
     RDKit          3D

 37 38  0  0  0  0  0  0  0  0999 V2000
  134.2810   67.4000  224.1260 O   0  0  0  0  0  0  0  0  0  0  0  0
  134.3760   68.5160  224.7010 C   0  0  0  0  0  0  0  0  0  0  0  0
  134.9600   69.6840  223.9510 C   0  0  0  0  0  0  0  0  0  0  0  0
  136.4920   69.7390  224.0730 C   0  0  0  0  0  0  0  0  0  0  0  0
  137.1900   68.5400  223.4220 C   0  0  0  0  0  0  0  0  0  0  0  0
  138.5370   68.4680  223.8810 O   0  0  0  0  0  0  0  0  0  0  0  0
  139.1340   69.2610  224.8770 C   0  0  0  0  0  0  0  0  0  0  0  0
  139.1940   68.7040  226.1630 C   0  0  0  0  0  0  0  0  0  0  0  0
  139.7870   69.3960  227.2200 C   0  0  0  0  0  0  0  0  0  0  0  0
  140.3390   70.6580  227.0050 C   0  0  0  0  0  0  0  0  0  0  0  0
  141.1120   71.5160  228.3250 Cl  0  0  0  0  0  0  0  0  0  0  0  0
  140.2910   71.2310  225.7320 C   0  0  0  0  0  0  0  0  0  0  0  0
  139.6980   70.5470  224.6610 C   0  0  0  0  0  0  0  0  0  0  0  0
  139.7960   71.3290  223.0890 Cl  0  0  0  0  0  0  0  0  0  0  0  0
  133.9720   68.6270  226.0690 N   0  0  0  0  0  0  0  0  0  0  0  0
  133.3350   69.7740  226.5590 N   0  0  0  0  0  0  0  0  0  0  0  0
  134.0050   70.8600  226.7830 C   0  0  0  0  0  0  0  0  0  0  0  0
  133.3160   72.1610  226.9080 C   0  0  0  0  0  0  0  0  0  0  0  0
  132.0770   72.2710  227.5630 C   0  0  0  0  0  0  0  0  0  0  0  0
  131.4320   73.5060  227.6370 C   0  0  0  0  0  0  0  0  0  0  0  0
  132.0250   74.6240  227.0530 C   0  0  0  0  0  0  0  0  0  0  0  0
  133.2290   74.5080  226.4330 N   0  0  0  0  0  0  0  0  0  0  0  0
  133.8830   73.3190  226.3530 C   0  0  0  0  0  0  0  0  0  0  0  0
  135.0770   73.2630  225.7090 F   0  0  0  0  0  0  0  0  0  0  0  0
  134.6914   69.5937  222.8881 H   0  0  0  0  0  0  0  0  0  0  0  0
  134.5510   70.6070  224.3877 H   0  0  0  0  0  0  0  0  0  0  0  0
  136.8492   70.6586  223.5865 H   0  0  0  0  0  0  0  0  0  0  0  0
  136.7367   69.7187  225.1452 H   0  0  0  0  0  0  0  0  0  0  0  0
  136.6601   67.6152  223.6938 H   0  0  0  0  0  0  0  0  0  0  0  0
  137.1811   68.6598  222.3286 H   0  0  0  0  0  0  0  0  0  0  0  0
  138.7669   67.7061  226.3412 H   0  0  0  0  0  0  0  0  0  0  0  0
  139.8189   68.9455  228.2230 H   0  0  0  0  0  0  0  0  0  0  0  0
  140.7229   72.2293  225.5679 H   0  0  0  0  0  0  0  0  0  0  0  0
  135.0996   70.8129  226.8813 H   0  0  0  0  0  0  0  0  0  0  0  0
  131.6154   71.3822  228.0178 H   0  0  0  0  0  0  0  0  0  0  0  0
  130.4641   73.5965  228.1517 H   0  0  0  0  0  0  0  0  0  0  0  0
  131.5188   75.5998  227.0938 H   0  0  0  0  0  0  0  0  0  0  0  0
  1  2  2  0
  2  3  1  0
  3  4  1  0
  4  5  1  0
  5  6  1  0
  6  7  1  0
  7  8  2  0
  8  9  1  0
  9 10  2  0
 10 11  1  0
 10 12  1  0
 12 13  2  0
 13 14  1  0
  2 15  1  0
 15 16  1  0
 16 17  2  0
 17 18  1  0
 18 19  2  0
 19 20  1  0
 20 21  2  0
 21 22  1  0
 22 23  2  0
 23 24  1  0
 13  7  1  0
 23 18  1  0
  3 25  1  0
  3 26  1  0
  4 27  1  0
  4 28  1  0
  5 29  1  0
  5 30  1  0
  8 31  1  0
  9 32  1  0
 12 33  1  0
 17 34  1  0
 19 35  1  0
 20 36  1  0
 21 37  1  0
M  CHG  1  15  -1
M  END
>  <meeko>  (1) 
{"free_energy": -6.31, "intermolecular_energy": -9.0, "internal_energy": -0.79, "cluster_size": 2, "cluster_id": 2, "rank_in_cluster": 1}

$$$$

     RDKit          3D

 37 38  0  0  0  0  0  0  0  0999 V2000
  138.9750   68.2200  223.1190 O   0  0  0  0  0  0  0  0  0  0  0  0
  138.6930   68.5130  224.3110 C   0  0  0  0  0  0  0  0  0  0  0  0
  138.1950   69.8970  224.6310 C   0  0  0  0  0  0  0  0  0  0  0  0
  136.6660   70.0050  224.4940 C   0  0  0  0  0  0  0  0  0  0  0  0
  136.1930   71.4230  224.1520 C   0  0  0  0  0  0  0  0  0  0  0  0
  134.9080   71.6460  224.7260 O   0  0  0  0  0  0  0  0  0  0  0  0
  134.4540   72.8250  225.3440 C   0  0  0  0  0  0  0  0  0  0  0  0
  135.0770   74.0170  224.9450 C   0  0  0  0  0  0  0  0  0  0  0  0
  134.6850   75.2470  225.4770 C   0  0  0  0  0  0  0  0  0  0  0  0
  133.6550   75.3050  226.4150 C   0  0  0  0  0  0  0  0  0  0  0  0
  133.1410   76.8520  227.0610 Cl  0  0  0  0  0  0  0  0  0  0  0  0
  133.0190   74.1310  226.8240 C   0  0  0  0  0  0  0  0  0  0  0  0
  133.4020   72.8890  226.2990 C   0  0  0  0  0  0  0  0  0  0  0  0
  132.4560   71.5000  226.8150 Cl  0  0  0  0  0  0  0  0  0  0  0  0
  138.9020   67.5350  225.3330 N   0  0  0  0  0  0  0  0  0  0  0  0
  140.0340   67.5570  226.1560 N   0  0  0  0  0  0  0  0  0  0  0  0
  140.0230   68.1950  227.2840 C   0  0  0  0  0  0  0  0  0  0  0  0
  140.3910   69.6240  227.3480 C   0  0  0  0  0  0  0  0  0  0  0  0
  139.8720   70.4670  228.3450 C   0  0  0  0  0  0  0  0  0  0  0  0
  140.2090   71.8210  228.3630 C   0  0  0  0  0  0  0  0  0  0  0  0
  141.0610   72.3260  227.3820 C   0  0  0  0  0  0  0  0  0  0  0  0
  141.5670   71.4990  226.4310 N   0  0  0  0  0  0  0  0  0  0  0  0
  141.2610   70.1750  226.3940 C   0  0  0  0  0  0  0  0  0  0  0  0
  141.7880   69.4010  225.4110 F   0  0  0  0  0  0  0  0  0  0  0  0
  138.4775   70.1461  225.6645 H   0  0  0  0  0  0  0  0  0  0  0  0
  138.6508   70.5964  223.9147 H   0  0  0  0  0  0  0  0  0  0  0  0
  136.3368   69.3237  223.6956 H   0  0  0  0  0  0  0  0  0  0  0  0
  136.2291   69.7387  225.4678 H   0  0  0  0  0  0  0  0  0  0  0  0
  136.9073   72.1554  224.5562 H   0  0  0  0  0  0  0  0  0  0  0  0
  136.1313   71.5356  223.0595 H   0  0  0  0  0  0  0  0  0  0  0  0
  135.8869   73.9821  224.2015 H   0  0  0  0  0  0  0  0  0  0  0  0
  135.1889   76.1706  225.1560 H   0  0  0  0  0  0  0  0  0  0  0  0
  132.2087   74.1814  227.5662 H   0  0  0  0  0  0  0  0  0  0  0  0
  139.7361   67.6660  228.2048 H   0  0  0  0  0  0  0  0  0  0  0  0
  139.1986   70.0588  229.1130 H   0  0  0  0  0  0  0  0  0  0  0  0
  139.8064   72.4833  229.1435 H   0  0  0  0  0  0  0  0  0  0  0  0
  141.3234   73.3942  227.3782 H   0  0  0  0  0  0  0  0  0  0  0  0
  1  2  2  0
  2  3  1  0
  3  4  1  0
  4  5  1  0
  5  6  1  0
  6  7  1  0
  7  8  2  0
  8  9  1  0
  9 10  2  0
 10 11  1  0
 10 12  1  0
 12 13  2  0
 13 14  1  0
  2 15  1  0
 15 16  1  0
 16 17  2  0
 17 18  1  0
 18 19  2  0
 19 20  1  0
 20 21  2  0
 21 22  1  0
 22 23  2  0
 23 24  1  0
 13  7  1  0
 23 18  1  0
  3 25  1  0
  3 26  1  0
  4 27  1  0
  4 28  1  0
  5 29  1  0
  5 30  1  0
  8 31  1  0
  9 32  1  0
 12 33  1  0
 17 34  1  0
 19 35  1  0
 20 36  1  0
 21 37  1  0
M  CHG  1  15  -1
M  END
>  <meeko>  (2) 
{"free_energy": -5.96, "intermolecular_energy": -8.65, "internal_energy": -0.67, "cluster_size": 1, "cluster_id": 6, "rank_in_cluster": 1}

$$$$

     RDKit          3D

 37 38  0  0  0  0  0  0  0  0999 V2000
  146.0680   73.0240  221.6600 O   0  0  0  0  0  0  0  0  0  0  0  0
  145.7350   73.4290  220.5150 C   0  0  0  0  0  0  0  0  0  0  0  0
  144.6870   74.5030  220.3900 C   0  0  0  0  0  0  0  0  0  0  0  0
  143.2620   73.9320  220.4910 C   0  0  0  0  0  0  0  0  0  0  0  0
  142.2380   74.7310  219.6780 C   0  0  0  0  0  0  0  0  0  0  0  0
  141.3050   75.3460  220.5630 O   0  0  0  0  0  0  0  0  0  0  0  0
  141.3650   76.6540  221.0770 C   0  0  0  0  0  0  0  0  0  0  0  0
  141.0190   76.8070  222.4280 C   0  0  0  0  0  0  0  0  0  0  0  0
  141.0680   78.0580  223.0450 C   0  0  0  0  0  0  0  0  0  0  0  0
  141.4720   79.1780  222.3210 C   0  0  0  0  0  0  0  0  0  0  0  0
  141.5640   80.7460  223.1030 Cl  0  0  0  0  0  0  0  0  0  0  0  0
  141.8220   79.0480  220.9750 C   0  0  0  0  0  0  0  0  0  0  0  0
  141.7780   77.7970  220.3420 C   0  0  0  0  0  0  0  0  0  0  0  0
  142.3430   77.7470  218.6770 Cl  0  0  0  0  0  0  0  0  0  0  0  0
  146.3290   72.8200  219.3650 N   0  0  0  0  0  0  0  0  0  0  0  0
  145.6190   71.9270  218.5530 N   0  0  0  0  0  0  0  0  0  0  0  0
  145.1120   70.8420  219.0460 C   0  0  0  0  0  0  0  0  0  0  0  0
  145.4910   69.5180  218.5090 C   0  0  0  0  0  0  0  0  0  0  0  0
  146.0410   69.3820  217.2230 C   0  0  0  0  0  0  0  0  0  0  0  0
  146.3580   68.1170  216.7270 C   0  0  0  0  0  0  0  0  0  0  0  0
  146.1210   66.9940  217.5180 C   0  0  0  0  0  0  0  0  0  0  0  0
  145.6010   67.1380  218.7650 N   0  0  0  0  0  0  0  0  0  0  0  0
  145.2900   68.3590  219.2760 C   0  0  0  0  0  0  0  0  0  0  0  0
  144.7610   68.4390  220.5230 F   0  0  0  0  0  0  0  0  0  0  0  0
  144.8333   75.2375  221.1957 H   0  0  0  0  0  0  0  0  0  0  0  0
  144.7963   74.9709  219.4005 H   0  0  0  0  0  0  0  0  0  0  0  0
  143.2723   72.8962  220.1208 H   0  0  0  0  0  0  0  0  0  0  0  0
  142.9593   73.9875  221.5471 H   0  0  0  0  0  0  0  0  0  0  0  0
  142.7568   75.5065  219.0954 H   0  0  0  0  0  0  0  0  0  0  0  0
  141.7042   74.0547  218.9942 H   0  0  0  0  0  0  0  0  0  0  0  0
  140.7044   75.9279  223.0096 H   0  0  0  0  0  0  0  0  0  0  0  0
  140.7874   78.1599  224.1037 H   0  0  0  0  0  0  0  0  0  0  0  0
  142.1353   79.9356  220.4057 H   0  0  0  0  0  0  0  0  0  0  0  0
  144.3908   70.9065  219.8741 H   0  0  0  0  0  0  0  0  0  0  0  0
  146.2220   70.2746  216.6062 H   0  0  0  0  0  0  0  0  0  0  0  0
  146.7907   68.0070  215.7217 H   0  0  0  0  0  0  0  0  0  0  0  0
  146.3551   65.9907  217.1325 H   0  0  0  0  0  0  0  0  0  0  0  0
  1  2  2  0
  2  3  1  0
  3  4  1  0
  4  5  1  0
  5  6  1  0
  6  7  1  0
  7  8  2  0
  8  9  1  0
  9 10  2  0
 10 11  1  0
 10 12  1  0
 12 13  2  0
 13 14  1  0
  2 15  1  0
 15 16  1  0
 16 17  2  0
 17 18  1  0
 18 19  2  0
 19 20  1  0
 20 21  2  0
 21 22  1  0
 22 23  2  0
 23 24  1  0
 13  7  1  0
 23 18  1  0
  3 25  1  0
  3 26  1  0
  4 27  1  0
  4 28  1  0
  5 29  1  0
  5 30  1  0
  8 31  1  0
  9 32  1  0
 12 33  1  0
 17 34  1  0
 19 35  1  0
 20 36  1  0
 21 37  1  0
M  CHG  1  15  -1
M  END
>  <meeko>  (3) 
{"free_energy": -6.22, "intermolecular_energy": -8.91, "internal_energy": -0.5, "cluster_size": 1, "cluster_id": 3, "rank_in_cluster": 1}

$$$$

     RDKit          3D

 37 38  0  0  0  0  0  0  0  0999 V2000
  141.0020   74.8950  222.2600 O   0  0  0  0  0  0  0  0  0  0  0  0
  140.1910   74.1300  221.6750 C   0  0  0  0  0  0  0  0  0  0  0  0
  139.6650   74.5130  220.3180 C   0  0  0  0  0  0  0  0  0  0  0  0
  140.8010   74.8040  219.3210 C   0  0  0  0  0  0  0  0  0  0  0  0
  141.6360   76.0310  219.7040 C   0  0  0  0  0  0  0  0  0  0  0  0
  140.7960   77.0030  220.3220 O   0  0  0  0  0  0  0  0  0  0  0  0
  141.2010   78.0650  221.1500 C   0  0  0  0  0  0  0  0  0  0  0  0
  141.1110   77.8450  222.5320 C   0  0  0  0  0  0  0  0  0  0  0  0
  141.5110   78.8240  223.4440 C   0  0  0  0  0  0  0  0  0  0  0  0
  142.0160   80.0390  222.9860 C   0  0  0  0  0  0  0  0  0  0  0  0
  142.5480   81.2590  224.1290 Cl  0  0  0  0  0  0  0  0  0  0  0  0
  142.1170   80.2780  221.6130 C   0  0  0  0  0  0  0  0  0  0  0  0
  141.7190   79.3040  220.6860 C   0  0  0  0  0  0  0  0  0  0  0  0
  141.9940   79.6840  218.9920 Cl  0  0  0  0  0  0  0  0  0  0  0  0
  139.7550   72.9410  222.3420 N   0  0  0  0  0  0  0  0  0  0  0  0
  140.4750   72.3860  223.4070 N   0  0  0  0  0  0  0  0  0  0  0  0
  140.1380   71.2400  223.9090 C   0  0  0  0  0  0  0  0  0  0  0  0
  140.2590   70.9860  225.3600 C   0  0  0  0  0  0  0  0  0  0  0  0
  140.9440   71.8770  226.2030 C   0  0  0  0  0  0  0  0  0  0  0  0
  141.0730   71.5950  227.5630 C   0  0  0  0  0  0  0  0  0  0  0  0
  140.5200   70.4220  228.0740 C   0  0  0  0  0  0  0  0  0  0  0  0
  139.8490   69.5730  227.2520 N   0  0  0  0  0  0  0  0  0  0  0  0
  139.7020   69.8270  225.9240 C   0  0  0  0  0  0  0  0  0  0  0  0
  139.0320   68.9350  225.1500 F   0  0  0  0  0  0  0  0  0  0  0  0
  139.0531   73.6863  219.9279 H   0  0  0  0  0  0  0  0  0  0  0  0
  139.0685   75.4303  220.4310 H   0  0  0  0  0  0  0  0  0  0  0  0
  141.4645   73.9276  219.2804 H   0  0  0  0  0  0  0  0  0  0  0  0
  140.3367   75.0139  218.3461 H   0  0  0  0  0  0  0  0  0  0  0  0
  142.4279   75.7311  220.4061 H   0  0  0  0  0  0  0  0  0  0  0  0
  142.0915   76.4614  218.8000 H   0  0  0  0  0  0  0  0  0  0  0  0
  140.7193   76.8866  222.9034 H   0  0  0  0  0  0  0  0  0  0  0  0
  141.4273   78.6357  224.5245 H   0  0  0  0  0  0  0  0  0  0  0  0
  142.5128   81.2401  221.2556 H   0  0  0  0  0  0  0  0  0  0  0  0
  139.7576   70.4473  223.2479 H   0  0  0  0  0  0  0  0  0  0  0  0
  141.3794   72.7988  225.7898 H   0  0  0  0  0  0  0  0  0  0  0  0
  141.6063   72.2920  228.2262 H   0  0  0  0  0  0  0  0  0  0  0  0
  140.6267   70.1835  229.1425 H   0  0  0  0  0  0  0  0  0  0  0  0
  1  2  2  0
  2  3  1  0
  3  4  1  0
  4  5  1  0
  5  6  1  0
  6  7  1  0
  7  8  2  0
  8  9  1  0
  9 10  2  0
 10 11  1  0
 10 12  1  0
 12 13  2  0
 13 14  1  0
  2 15  1  0
 15 16  1  0
 16 17  2  0
 17 18  1  0
 18 19  2  0
 19 20  1  0
 20 21  2  0
 21 22  1  0
 22 23  2  0
 23 24  1  0
 13  7  1  0
 23 18  1  0
  3 25  1  0
  3 26  1  0
  4 27  1  0
  4 28  1  0
  5 29  1  0
  5 30  1  0
  8 31  1  0
  9 32  1  0
 12 33  1  0
 17 34  1  0
 19 35  1  0
 20 36  1  0
 21 37  1  0
M  CHG  1  15  -1
M  END
>  <meeko>  (4) 
{"free_energy": -6.04, "intermolecular_energy": -8.72, "internal_energy": -0.52, "cluster_size": 8, "cluster_id": 1, "rank_in_cluster": 5}

$$$$

     RDKit          3D

 37 38  0  0  0  0  0  0  0  0999 V2000
  141.0590   74.6310  221.9970 O   0  0  0  0  0  0  0  0  0  0  0  0
  139.9370   74.0750  221.8580 C   0  0  0  0  0  0  0  0  0  0  0  0
  138.9460   74.6510  220.8830 C   0  0  0  0  0  0  0  0  0  0  0  0
  137.6800   75.1700  221.5860 C   0  0  0  0  0  0  0  0  0  0  0  0
  137.9870   76.1100  222.7570 C   0  0  0  0  0  0  0  0  0  0  0  0
  138.3060   77.4050  222.2550 O   0  0  0  0  0  0  0  0  0  0  0  0
  139.3510   78.2430  222.6840 C   0  0  0  0  0  0  0  0  0  0  0  0
  140.6540   77.7880  222.4380 C   0  0  0  0  0  0  0  0  0  0  0  0
  141.7650   78.5520  222.8000 C   0  0  0  0  0  0  0  0  0  0  0  0
  141.5880   79.7930  223.4100 C   0  0  0  0  0  0  0  0  0  0  0  0
  142.9810   80.7700  223.8380 Cl  0  0  0  0  0  0  0  0  0  0  0  0
  140.2980   80.2670  223.6620 C   0  0  0  0  0  0  0  0  0  0  0  0
  139.1740   79.5100  223.3040 C   0  0  0  0  0  0  0  0  0  0  0  0
  137.6090   80.2620  223.5790 Cl  0  0  0  0  0  0  0  0  0  0  0  0
  139.6210   72.9410  222.6710 N   0  0  0  0  0  0  0  0  0  0  0  0
  140.6050   72.2500  223.3890 N   0  0  0  0  0  0  0  0  0  0  0  0
  140.3420   71.1110  223.9470 C   0  0  0  0  0  0  0  0  0  0  0  0
  140.3630   70.9670  225.4170 C   0  0  0  0  0  0  0  0  0  0  0  0
  141.0680   71.8720  226.2290 C   0  0  0  0  0  0  0  0  0  0  0  0
  141.1010   71.6930  227.6130 C   0  0  0  0  0  0  0  0  0  0  0  0
  140.4320   70.6080  228.1780 C   0  0  0  0  0  0  0  0  0  0  0  0
  139.7430   69.7470  227.3840 N   0  0  0  0  0  0  0  0  0  0  0  0
  139.6880   69.9020  226.0340 C   0  0  0  0  0  0  0  0  0  0  0  0
  138.9950   69.0010  225.2930 F   0  0  0  0  0  0  0  0  0  0  0  0
  139.4207   75.4850  220.3453 H   0  0  0  0  0  0  0  0  0  0  0  0
  138.6460   73.8503  220.1909 H   0  0  0  0  0  0  0  0  0  0  0  0
  137.0691   75.7142  220.8507 H   0  0  0  0  0  0  0  0  0  0  0  0
  137.1501   74.2973  221.9953 H   0  0  0  0  0  0  0  0  0  0  0  0
  137.1069   76.1777  223.4134 H   0  0  0  0  0  0  0  0  0  0  0  0
  138.8410   75.7174  223.3284 H   0  0  0  0  0  0  0  0  0  0  0  0
  140.8035   76.8128  221.9516 H   0  0  0  0  0  0  0  0  0  0  0  0
  142.7796   78.1749  222.6040 H   0  0  0  0  0  0  0  0  0  0  0  0
  140.1630   81.2452  224.1468 H   0  0  0  0  0  0  0  0  0  0  0  0
  140.1002   70.2409  223.3189 H   0  0  0  0  0  0  0  0  0  0  0  0
  141.5948   72.7231  225.7729 H   0  0  0  0  0  0  0  0  0  0  0  0
  141.6495   72.4010  228.2516 H   0  0  0  0  0  0  0  0  0  0  0  0
  140.4620   70.4490  229.2660 H   0  0  0  0  0  0  0  0  0  0  0  0
  1  2  2  0
  2  3  1  0
  3  4  1  0
  4  5  1  0
  5  6  1  0
  6  7  1  0
  7  8  2  0
  8  9  1  0
  9 10  2  0
 10 11  1  0
 10 12  1  0
 12 13  2  0
 13 14  1  0
  2 15  1  0
 15 16  1  0
 16 17  2  0
 17 18  1  0
 18 19  2  0
 19 20  1  0
 20 21  2  0
 21 22  1  0
 22 23  2  0
 23 24  1  0
 13  7  1  0
 23 18  1  0
  3 25  1  0
  3 26  1  0
  4 27  1  0
  4 28  1  0
  5 29  1  0
  5 30  1  0
  8 31  1  0
  9 32  1  0
 12 33  1  0
 17 34  1  0
 19 35  1  0
 20 36  1  0
 21 37  1  0
M  CHG  1  15  -1
M  END
>  <meeko>  (5) 
{"free_energy": -6.37, "intermolecular_energy": -9.06, "internal_energy": -0.72, "cluster_size": 8, "cluster_id": 1, "rank_in_cluster": 1}

$$$$

     RDKit          3D

 37 38  0  0  0  0  0  0  0  0999 V2000
  137.2550   69.3840  225.3470 O   0  0  0  0  0  0  0  0  0  0  0  0
  138.1980   69.0580  224.5790 C   0  0  0  0  0  0  0  0  0  0  0  0
  138.5610   69.9650  223.4330 C   0  0  0  0  0  0  0  0  0  0  0  0
  139.1150   71.3150  223.9200 C   0  0  0  0  0  0  0  0  0  0  0  0
  140.5320   71.6010  223.4110 C   0  0  0  0  0  0  0  0  0  0  0  0
  140.4770   71.9740  222.0370 O   0  0  0  0  0  0  0  0  0  0  0  0
  141.0970   73.0860  221.4380 C   0  0  0  0  0  0  0  0  0  0  0  0
  142.3570   72.8610  220.8650 C   0  0  0  0  0  0  0  0  0  0  0  0
  143.0500   73.8890  220.2240 C   0  0  0  0  0  0  0  0  0  0  0  0
  142.4870   75.1620  220.1380 C   0  0  0  0  0  0  0  0  0  0  0  0
  143.3420   76.4470  219.3050 Cl  0  0  0  0  0  0  0  0  0  0  0  0
  141.2310   75.4070  220.7000 C   0  0  0  0  0  0  0  0  0  0  0  0
  140.5250   74.3830  221.3470 C   0  0  0  0  0  0  0  0  0  0  0  0
  138.9130   74.7920  221.9190 Cl  0  0  0  0  0  0  0  0  0  0  0  0
  138.8650   67.8100  224.7900 N   0  0  0  0  0  0  0  0  0  0  0  0
  139.2300   67.3750  226.0700 N   0  0  0  0  0  0  0  0  0  0  0  0
  140.3120   67.8080  226.6350 C   0  0  0  0  0  0  0  0  0  0  0  0
  140.4460   69.2260  227.0260 C   0  0  0  0  0  0  0  0  0  0  0  0
  139.6640   69.7750  228.0570 C   0  0  0  0  0  0  0  0  0  0  0  0
  139.7850   71.1260  228.3840 C   0  0  0  0  0  0  0  0  0  0  0  0
  140.6850   71.9230  227.6770 C   0  0  0  0  0  0  0  0  0  0  0  0
  141.4450   71.3780  226.6920 N   0  0  0  0  0  0  0  0  0  0  0  0
  141.3530   70.0630  226.3570 C   0  0  0  0  0  0  0  0  0  0  0  0
  142.1280   69.5800  225.3540 F   0  0  0  0  0  0  0  0  0  0  0  0
  139.3249   69.4693  222.8160 H   0  0  0  0  0  0  0  0  0  0  0  0
  137.6474   70.1619  222.8528 H   0  0  0  0  0  0  0  0  0  0  0  0
  138.4479   72.1152  223.5671 H   0  0  0  0  0  0  0  0  0  0  0  0
  139.1626   71.2736  225.0182 H   0  0  0  0  0  0  0  0  0  0  0  0
  140.9732   72.4213  223.9962 H   0  0  0  0  0  0  0  0  0  0  0  0
  141.1503   70.6980  223.5212 H   0  0  0  0  0  0  0  0  0  0  0  0
  142.8062   71.8585  220.9216 H   0  0  0  0  0  0  0  0  0  0  0  0
  144.0405   73.6951  219.7865 H   0  0  0  0  0  0  0  0  0  0  0  0
  140.7920   76.4134  220.6340 H   0  0  0  0  0  0  0  0  0  0  0  0
  141.1414   67.1111  226.8260 H   0  0  0  0  0  0  0  0  0  0  0  0
  138.9554   69.1384  228.6070 H   0  0  0  0  0  0  0  0  0  0  0  0
  139.1763   71.5584  229.1918 H   0  0  0  0  0  0  0  0  0  0  0  0
  140.7793   72.9924  227.9169 H   0  0  0  0  0  0  0  0  0  0  0  0
  1  2  2  0
  2  3  1  0
  3  4  1  0
  4  5  1  0
  5  6  1  0
  6  7  1  0
  7  8  2  0
  8  9  1  0
  9 10  2  0
 10 11  1  0
 10 12  1  0
 12 13  2  0
 13 14  1  0
  2 15  1  0
 15 16  1  0
 16 17  2  0
 17 18  1  0
 18 19  2  0
 19 20  1  0
 20 21  2  0
 21 22  1  0
 22 23  2  0
 23 24  1  0
 13  7  1  0
 23 18  1  0
  3 25  1  0
  3 26  1  0
  4 27  1  0
  4 28  1  0
  5 29  1  0
  5 30  1  0
  8 31  1  0
  9 32  1  0
 12 33  1  0
 17 34  1  0
 19 35  1  0
 20 36  1  0
 21 37  1  0
M  CHG  1  15  -1
M  END
>  <meeko>  (6) 
{"free_energy": -5.96, "intermolecular_energy": -8.65, "internal_energy": -1.07, "cluster_size": 3, "cluster_id": 7, "rank_in_cluster": 1}

$$$$

     RDKit          3D

 37 38  0  0  0  0  0  0  0  0999 V2000
  146.2080   72.7620  221.5510 O   0  0  0  0  0  0  0  0  0  0  0  0
  145.8140   73.2370  220.4530 C   0  0  0  0  0  0  0  0  0  0  0  0
  144.8090   74.3580  220.4540 C   0  0  0  0  0  0  0  0  0  0  0  0
  143.3720   73.8440  220.6520 C   0  0  0  0  0  0  0  0  0  0  0  0
  142.3150   74.9410  220.4870 C   0  0  0  0  0  0  0  0  0  0  0  0
  141.4240   74.9140  221.5990 O   0  0  0  0  0  0  0  0  0  0  0  0
  140.5260   75.9250  221.9850 C   0  0  0  0  0  0  0  0  0  0  0  0
  141.0860   77.1790  222.2690 C   0  0  0  0  0  0  0  0  0  0  0  0
  140.2820   78.2590  222.6380 C   0  0  0  0  0  0  0  0  0  0  0  0
  138.8990   78.1030  222.7220 C   0  0  0  0  0  0  0  0  0  0  0  0
  137.8850   79.4670  223.1560 Cl  0  0  0  0  0  0  0  0  0  0  0  0
  138.3210   76.8630  222.4410 C   0  0  0  0  0  0  0  0  0  0  0  0
  139.1160   75.7700  222.0700 C   0  0  0  0  0  0  0  0  0  0  0  0
  138.2600   74.2950  221.6410 Cl  0  0  0  0  0  0  0  0  0  0  0  0
  146.2970   72.6610  219.2360 N   0  0  0  0  0  0  0  0  0  0  0  0
  145.4260   72.1920  218.2440 N   0  0  0  0  0  0  0  0  0  0  0  0
  145.6460   71.0640  217.6480 C   0  0  0  0  0  0  0  0  0  0  0  0
  145.3860   69.7820  218.3340 C   0  0  0  0  0  0  0  0  0  0  0  0
  144.2650   68.9960  218.0150 C   0  0  0  0  0  0  0  0  0  0  0  0
  144.0250   67.8070  218.7030 C   0  0  0  0  0  0  0  0  0  0  0  0
  144.9050   67.4090  219.7100 C   0  0  0  0  0  0  0  0  0  0  0  0
  145.9920   68.1700  220.0010 N   0  0  0  0  0  0  0  0  0  0  0  0
  146.2540   69.3300  219.3410 C   0  0  0  0  0  0  0  0  0  0  0  0
  147.3490   70.0540  219.6860 F   0  0  0  0  0  0  0  0  0  0  0  0
  145.0532   75.0531  221.2708 H   0  0  0  0  0  0  0  0  0  0  0  0
  144.8587   74.8596  219.4763 H   0  0  0  0  0  0  0  0  0  0  0  0
  143.1768   73.0550  219.9108 H   0  0  0  0  0  0  0  0  0  0  0  0
  143.2967   73.4673  221.6827 H   0  0  0  0  0  0  0  0  0  0  0  0
  142.8097   75.9222  220.4374 H   0  0  0  0  0  0  0  0  0  0  0  0
  141.7491   74.7681  219.5597 H   0  0  0  0  0  0  0  0  0  0  0  0
  142.1755   77.3137  222.1999 H   0  0  0  0  0  0  0  0  0  0  0  0
  140.7399   79.2336  222.8626 H   0  0  0  0  0  0  0  0  0  0  0  0
  137.2299   76.7429  222.5116 H   0  0  0  0  0  0  0  0  0  0  0  0
  146.0314   71.0603  216.6177 H   0  0  0  0  0  0  0  0  0  0  0  0
  143.5758   69.3195  217.2211 H   0  0  0  0  0  0  0  0  0  0  0  0
  143.1500   67.1886  218.4541 H   0  0  0  0  0  0  0  0  0  0  0  0
  144.7187   66.4795  220.2680 H   0  0  0  0  0  0  0  0  0  0  0  0
  1  2  2  0
  2  3  1  0
  3  4  1  0
  4  5  1  0
  5  6  1  0
  6  7  1  0
  7  8  2  0
  8  9  1  0
  9 10  2  0
 10 11  1  0
 10 12  1  0
 12 13  2  0
 13 14  1  0
  2 15  1  0
 15 16  1  0
 16 17  2  0
 17 18  1  0
 18 19  2  0
 19 20  1  0
 20 21  2  0
 21 22  1  0
 22 23  2  0
 23 24  1  0
 13  7  1  0
 23 18  1  0
  3 25  1  0
  3 26  1  0
  4 27  1  0
  4 28  1  0
  5 29  1  0
  5 30  1  0
  8 31  1  0
  9 32  1  0
 12 33  1  0
 17 34  1  0
 19 35  1  0
 20 36  1  0
 21 37  1  0
M  CHG  1  15  -1
M  END
>  <meeko>  (7) 
{"free_energy": -6.05, "intermolecular_energy": -8.74, "internal_energy": -0.54, "cluster_size": 1, "cluster_id": 5, "rank_in_cluster": 1}

$$$$

     RDKit          3D

 37 38  0  0  0  0  0  0  0  0999 V2000
  140.9840   74.7450  221.9710 O   0  0  0  0  0  0  0  0  0  0  0  0
  139.8350   74.2320  221.9480 C   0  0  0  0  0  0  0  0  0  0  0  0
  138.7300   74.9360  221.2070 C   0  0  0  0  0  0  0  0  0  0  0  0
  137.4950   75.1670  222.0960 C   0  0  0  0  0  0  0  0  0  0  0  0
  137.4500   76.5730  222.7060 C   0  0  0  0  0  0  0  0  0  0  0  0
  138.3090   77.4380  221.9680 O   0  0  0  0  0  0  0  0  0  0  0  0
  139.3510   78.2320  222.4820 C   0  0  0  0  0  0  0  0  0  0  0  0
  140.6560   77.8190  222.1740 C   0  0  0  0  0  0  0  0  0  0  0  0
  141.7630   78.5480  222.6120 C   0  0  0  0  0  0  0  0  0  0  0  0
  141.5810   79.7090  223.3610 C   0  0  0  0  0  0  0  0  0  0  0  0
  142.9700   80.6440  223.8870 Cl  0  0  0  0  0  0  0  0  0  0  0  0
  140.2900   80.1400  223.6770 C   0  0  0  0  0  0  0  0  0  0  0  0
  139.1690   79.4170  223.2430 C   0  0  0  0  0  0  0  0  0  0  0  0
  137.6000   80.1190  223.6150 Cl  0  0  0  0  0  0  0  0  0  0  0  0
  139.6020   73.0190  222.6700 N   0  0  0  0  0  0  0  0  0  0  0  0
  140.6530   72.2700  223.2130 N   0  0  0  0  0  0  0  0  0  0  0  0
  140.4300   71.1240  223.7740 C   0  0  0  0  0  0  0  0  0  0  0  0
  140.3960   70.9950  225.2450 C   0  0  0  0  0  0  0  0  0  0  0  0
  141.1040   71.8830  226.0720 C   0  0  0  0  0  0  0  0  0  0  0  0
  141.0830   71.7180  227.4570 C   0  0  0  0  0  0  0  0  0  0  0  0
  140.3570   70.6630  228.0090 C   0  0  0  0  0  0  0  0  0  0  0  0
  139.6670   69.8180  227.2010 N   0  0  0  0  0  0  0  0  0  0  0  0
  139.6630   69.9600  225.8480 C   0  0  0  0  0  0  0  0  0  0  0  0
  138.9650   69.0760  225.0920 F   0  0  0  0  0  0  0  0  0  0  0  0
  139.1021   75.9099  220.8561 H   0  0  0  0  0  0  0  0  0  0  0  0
  138.4268   74.2983  220.3636 H   0  0  0  0  0  0  0  0  0  0  0  0
  136.5916   75.0207  221.4857 H   0  0  0  0  0  0  0  0  0  0  0  0
  137.5496   74.4492  222.9278 H   0  0  0  0  0  0  0  0  0  0  0  0
  136.4201   76.9574  222.6660 H   0  0  0  0  0  0  0  0  0  0  0  0
  137.7845   76.5296  223.7530 H   0  0  0  0  0  0  0  0  0  0  0  0
  140.8092   76.9070  221.5784 H   0  0  0  0  0  0  0  0  0  0  0  0
  142.7791   78.2060  222.3659 H   0  0  0  0  0  0  0  0  0  0  0  0
  140.1514   81.0549  224.2717 H   0  0  0  0  0  0  0  0  0  0  0  0
  140.2638   70.2356  223.1470 H   0  0  0  0  0  0  0  0  0  0  0  0
  141.6761   72.7101  225.6264 H   0  0  0  0  0  0  0  0  0  0  0  0
  141.6338   72.4134  228.1075 H   0  0  0  0  0  0  0  0  0  0  0  0
  140.3434   70.5155  229.0990 H   0  0  0  0  0  0  0  0  0  0  0  0
  1  2  2  0
  2  3  1  0
  3  4  1  0
  4  5  1  0
  5  6  1  0
  6  7  1  0
  7  8  2  0
  8  9  1  0
  9 10  2  0
 10 11  1  0
 10 12  1  0
 12 13  2  0
 13 14  1  0
  2 15  1  0
 15 16  1  0
 16 17  2  0
 17 18  1  0
 18 19  2  0
 19 20  1  0
 20 21  2  0
 21 22  1  0
 22 23  2  0
 23 24  1  0
 13  7  1  0
 23 18  1  0
  3 25  1  0
  3 26  1  0
  4 27  1  0
  4 28  1  0
  5 29  1  0
  5 30  1  0
  8 31  1  0
  9 32  1  0
 12 33  1  0
 17 34  1  0
 19 35  1  0
 20 36  1  0
 21 37  1  0
M  CHG  1  15  -1
M  END
>  <meeko>  (8) 
{"free_energy": -6.3, "intermolecular_energy": -8.99, "internal_energy": -0.71, "cluster_size": 8, "cluster_id": 1, "rank_in_cluster": 4}

$$$$

     RDKit          3D

 37 38  0  0  0  0  0  0  0  0999 V2000
  135.7310   68.6610  224.2330 O   0  0  0  0  0  0  0  0  0  0  0  0
  136.8090   69.3110  224.2650 C   0  0  0  0  0  0  0  0  0  0  0  0
  137.1320   70.2570  223.1390 C   0  0  0  0  0  0  0  0  0  0  0  0
  138.4240   71.0480  223.4030 C   0  0  0  0  0  0  0  0  0  0  0  0
  138.7220   72.0900  222.3190 C   0  0  0  0  0  0  0  0  0  0  0  0
  139.8560   72.8630  222.7010 O   0  0  0  0  0  0  0  0  0  0  0  0
  141.0170   73.0930  221.9410 C   0  0  0  0  0  0  0  0  0  0  0  0
  141.7780   71.9620  221.6110 C   0  0  0  0  0  0  0  0  0  0  0  0
  142.9350   72.0740  220.8380 C   0  0  0  0  0  0  0  0  0  0  0  0
  143.3460   73.3230  220.3750 C   0  0  0  0  0  0  0  0  0  0  0  0
  144.7830   73.4620  219.3780 Cl  0  0  0  0  0  0  0  0  0  0  0  0
  142.6010   74.4620  220.6890 C   0  0  0  0  0  0  0  0  0  0  0  0
  141.4370   74.3640  221.4650 C   0  0  0  0  0  0  0  0  0  0  0  0
  140.5330   75.8530  221.7020 Cl  0  0  0  0  0  0  0  0  0  0  0  0
  137.7180   69.0940  225.3470 N   0  0  0  0  0  0  0  0  0  0  0  0
  138.8230   68.2430  225.2240 N   0  0  0  0  0  0  0  0  0  0  0  0
  139.8450   68.3640  226.0100 C   0  0  0  0  0  0  0  0  0  0  0  0
  140.2630   69.6900  226.5090 C   0  0  0  0  0  0  0  0  0  0  0  0
  140.9790   70.5840  225.6940 C   0  0  0  0  0  0  0  0  0  0  0  0
  141.3910   71.8170  226.2010 C   0  0  0  0  0  0  0  0  0  0  0  0
  141.0900   72.1490  227.5210 C   0  0  0  0  0  0  0  0  0  0  0  0
  140.3870   71.2820  228.2950 N   0  0  0  0  0  0  0  0  0  0  0  0
  139.9660   70.0780  227.8250 C   0  0  0  0  0  0  0  0  0  0  0  0
  139.2790   69.2490  228.6510 F   0  0  0  0  0  0  0  0  0  0  0  0
  137.2538   69.6773  222.2121 H   0  0  0  0  0  0  0  0  0  0  0  0
  136.3048   70.9770  223.0526 H   0  0  0  0  0  0  0  0  0  0  0  0
  138.3268   71.5653  224.3689 H   0  0  0  0  0  0  0  0  0  0  0  0
  139.2556   70.3279  223.4039 H   0  0  0  0  0  0  0  0  0  0  0  0
  138.9303   71.5794  221.3672 H   0  0  0  0  0  0  0  0  0  0  0  0
  137.8517   72.7517  222.1979 H   0  0  0  0  0  0  0  0  0  0  0  0
  141.4582   70.9715  221.9668 H   0  0  0  0  0  0  0  0  0  0  0  0
  143.5225   71.1765  220.5942 H   0  0  0  0  0  0  0  0  0  0  0  0
  142.9307   75.4459  220.3239 H   0  0  0  0  0  0  0  0  0  0  0  0
  140.4088   67.4683  226.3098 H   0  0  0  0  0  0  0  0  0  0  0  0
  141.2149   70.3111  224.6548 H   0  0  0  0  0  0  0  0  0  0  0  0
  141.9482   72.5205  225.5649 H   0  0  0  0  0  0  0  0  0  0  0  0
  141.4216   73.1125  227.9355 H   0  0  0  0  0  0  0  0  0  0  0  0
  1  2  2  0
  2  3  1  0
  3  4  1  0
  4  5  1  0
  5  6  1  0
  6  7  1  0
  7  8  2  0
  8  9  1  0
  9 10  2  0
 10 11  1  0
 10 12  1  0
 12 13  2  0
 13 14  1  0
  2 15  1  0
 15 16  1  0
 16 17  2  0
 17 18  1  0
 18 19  2  0
 19 20  1  0
 20 21  2  0
 21 22  1  0
 22 23  2  0
 23 24  1  0
 13  7  1  0
 23 18  1  0
  3 25  1  0
  3 26  1  0
  4 27  1  0
  4 28  1  0
  5 29  1  0
  5 30  1  0
  8 31  1  0
  9 32  1  0
 12 33  1  0
 17 34  1  0
 19 35  1  0
 20 36  1  0
 21 37  1  0
M  CHG  1  15  -1
M  END
>  <meeko>  (9) 
{"free_energy": -5.87, "intermolecular_energy": -8.55, "internal_energy": -0.91, "cluster_size": 3, "cluster_id": 7, "rank_in_cluster": 3}

$$$$

     RDKit          3D

 37 38  0  0  0  0  0  0  0  0999 V2000
  139.6010   74.5730  222.2450 O   0  0  0  0  0  0  0  0  0  0  0  0
  140.3850   73.6280  221.9650 C   0  0  0  0  0  0  0  0  0  0  0  0
  140.9320   73.5150  220.5670 C   0  0  0  0  0  0  0  0  0  0  0  0
  142.2380   74.3110  220.3930 C   0  0  0  0  0  0  0  0  0  0  0  0
  142.0290   75.6610  219.6970 C   0  0  0  0  0  0  0  0  0  0  0  0
  141.0740   76.4280  220.4250 O   0  0  0  0  0  0  0  0  0  0  0  0
  141.3180   77.6010  221.1610 C   0  0  0  0  0  0  0  0  0  0  0  0
  141.1360   77.5130  222.5490 C   0  0  0  0  0  0  0  0  0  0  0  0
  141.3750   78.6110  223.3770 C   0  0  0  0  0  0  0  0  0  0  0  0
  141.8090   79.8170  222.8290 C   0  0  0  0  0  0  0  0  0  0  0  0
  142.1390   81.1900  223.8700 Cl  0  0  0  0  0  0  0  0  0  0  0  0
  141.9990   79.9260  221.4490 C   0  0  0  0  0  0  0  0  0  0  0  0
  141.7620   78.8310  220.6060 C   0  0  0  0  0  0  0  0  0  0  0  0
  142.1390   79.0640  218.9040 Cl  0  0  0  0  0  0  0  0  0  0  0  0
  140.6940   72.6620  222.9730 N   0  0  0  0  0  0  0  0  0  0  0  0
  139.7040   71.8610  223.5570 N   0  0  0  0  0  0  0  0  0  0  0  0
  140.0140   70.7570  224.1590 C   0  0  0  0  0  0  0  0  0  0  0  0
  140.2990   70.7400  225.6090 C   0  0  0  0  0  0  0  0  0  0  0  0
  140.7920   71.8780  226.2690 C   0  0  0  0  0  0  0  0  0  0  0  0
  141.0850   71.8250  227.6320 C   0  0  0  0  0  0  0  0  0  0  0  0
  140.8870   70.6330  228.3280 C   0  0  0  0  0  0  0  0  0  0  0  0
  140.3980   69.5430  227.6820 N   0  0  0  0  0  0  0  0  0  0  0  0
  140.0960   69.5690  226.3560 C   0  0  0  0  0  0  0  0  0  0  0  0
  139.6230   68.4440  225.7640 F   0  0  0  0  0  0  0  0  0  0  0  0
  141.1299   72.4554  220.3476 H   0  0  0  0  0  0  0  0  0  0  0  0
  140.1852   73.9317  219.8751 H   0  0  0  0  0  0  0  0  0  0  0  0
  142.6727   74.4927  221.3870 H   0  0  0  0  0  0  0  0  0  0  0  0
  142.9056   73.7124  219.7558 H   0  0  0  0  0  0  0  0  0  0  0  0
  142.9840   76.2055  219.6586 H   0  0  0  0  0  0  0  0  0  0  0  0
  141.6613   75.4930  218.6740 H   0  0  0  0  0  0  0  0  0  0  0  0
  140.7997   76.5639  222.9919 H   0  0  0  0  0  0  0  0  0  0  0  0
  141.2208   78.5246  224.4627 H   0  0  0  0  0  0  0  0  0  0  0  0
  142.3379   80.8804  221.0197 H   0  0  0  0  0  0  0  0  0  0  0  0
  140.0658   69.8206  223.5841 H   0  0  0  0  0  0  0  0  0  0  0  0
  140.9473   72.8126  225.7101 H   0  0  0  0  0  0  0  0  0  0  0  0
  141.4685   72.7149  228.1526 H   0  0  0  0  0  0  0  0  0  0  0  0
  141.1268   70.5755  229.4000 H   0  0  0  0  0  0  0  0  0  0  0  0
  1  2  2  0
  2  3  1  0
  3  4  1  0
  4  5  1  0
  5  6  1  0
  6  7  1  0
  7  8  2  0
  8  9  1  0
  9 10  2  0
 10 11  1  0
 10 12  1  0
 12 13  2  0
 13 14  1  0
  2 15  1  0
 15 16  1  0
 16 17  2  0
 17 18  1  0
 18 19  2  0
 19 20  1  0
 20 21  2  0
 21 22  1  0
 22 23  2  0
 23 24  1  0
 13  7  1  0
 23 18  1  0
  3 25  1  0
  3 26  1  0
  4 27  1  0
  4 28  1  0
  5 29  1  0
  5 30  1  0
  8 31  1  0
  9 32  1  0
 12 33  1  0
 17 34  1  0
 19 35  1  0
 20 36  1  0
 21 37  1  0
M  CHG  1  15  -1
M  END
>  <meeko>  (10) 
{"free_energy": -6.36, "intermolecular_energy": -9.05, "internal_energy": -0.61, "cluster_size": 8, "cluster_id": 1, "rank_in_cluster": 2}

$$$$

     RDKit          3D

 37 38  0  0  0  0  0  0  0  0999 V2000
  140.4940   74.0660  222.2810 O   0  0  0  0  0  0  0  0  0  0  0  0
  139.6340   73.1750  222.0520 C   0  0  0  0  0  0  0  0  0  0  0  0
  138.3650   73.5440  221.3320 C   0  0  0  0  0  0  0  0  0  0  0  0
  138.2790   75.0550  221.0550 C   0  0  0  0  0  0  0  0  0  0  0  0
  138.2810   75.9010  222.3340 C   0  0  0  0  0  0  0  0  0  0  0  0
  138.4740   77.2720  221.9970 O   0  0  0  0  0  0  0  0  0  0  0  0
  139.5650   78.0830  222.3550 C   0  0  0  0  0  0  0  0  0  0  0  0
  139.3190   79.0600  223.3310 C   0  0  0  0  0  0  0  0  0  0  0  0
  140.3390   79.9030  223.7780 C   0  0  0  0  0  0  0  0  0  0  0  0
  141.6260   79.7770  223.2590 C   0  0  0  0  0  0  0  0  0  0  0  0
  142.9150   80.8150  223.8410 Cl  0  0  0  0  0  0  0  0  0  0  0  0
  141.8930   78.8090  222.2870 C   0  0  0  0  0  0  0  0  0  0  0  0
  140.8790   77.9560  221.8290 C   0  0  0  0  0  0  0  0  0  0  0  0
  141.3660   76.7130  220.6840 Cl  0  0  0  0  0  0  0  0  0  0  0  0
  139.8690   71.8460  222.5280 N   0  0  0  0  0  0  0  0  0  0  0  0
  139.6910   71.5010  223.8730 N   0  0  0  0  0  0  0  0  0  0  0  0
  140.6980   71.4590  224.6870 C   0  0  0  0  0  0  0  0  0  0  0  0
  140.6220   70.6890  225.9450 C   0  0  0  0  0  0  0  0  0  0  0  0
  140.3450   69.3110  225.9420 C   0  0  0  0  0  0  0  0  0  0  0  0
  140.2450   68.6140  227.1470 C   0  0  0  0  0  0  0  0  0  0  0  0
  140.4190   69.2980  228.3490 C   0  0  0  0  0  0  0  0  0  0  0  0
  140.6990   70.6270  228.3390 N   0  0  0  0  0  0  0  0  0  0  0  0
  140.8100   71.3300  227.1800 C   0  0  0  0  0  0  0  0  0  0  0  0
  141.0780   72.6590  227.2350 F   0  0  0  0  0  0  0  0  0  0  0  0
  138.3304   73.0046  220.3739 H   0  0  0  0  0  0  0  0  0  0  0  0
  137.5164   73.2672  221.9749 H   0  0  0  0  0  0  0  0  0  0  0  0
  139.1425   75.3481  220.4398 H   0  0  0  0  0  0  0  0  0  0  0  0
  137.3250   75.2407  220.5398 H   0  0  0  0  0  0  0  0  0  0  0  0
  137.3183   75.7831  222.8530 H   0  0  0  0  0  0  0  0  0  0  0  0
  139.0963   75.5673  222.9928 H   0  0  0  0  0  0  0  0  0  0  0  0
  138.3075   79.1638  223.7507 H   0  0  0  0  0  0  0  0  0  0  0  0
  140.1262   80.6669  224.5403 H   0  0  0  0  0  0  0  0  0  0  0  0
  142.9094   78.7154  221.8770 H   0  0  0  0  0  0  0  0  0  0  0  0
  141.6208   72.0035  224.4381 H   0  0  0  0  0  0  0  0  0  0  0  0
  140.2068   68.7809  224.9881 H   0  0  0  0  0  0  0  0  0  0  0  0
  140.0309   67.5350  227.1482 H   0  0  0  0  0  0  0  0  0  0  0  0
  140.3296   68.7617  229.3052 H   0  0  0  0  0  0  0  0  0  0  0  0
  1  2  2  0
  2  3  1  0
  3  4  1  0
  4  5  1  0
  5  6  1  0
  6  7  1  0
  7  8  2  0
  8  9  1  0
  9 10  2  0
 10 11  1  0
 10 12  1  0
 12 13  2  0
 13 14  1  0
  2 15  1  0
 15 16  1  0
 16 17  2  0
 17 18  1  0
 18 19  2  0
 19 20  1  0
 20 21  2  0
 21 22  1  0
 22 23  2  0
 23 24  1  0
 13  7  1  0
 23 18  1  0
  3 25  1  0
  3 26  1  0
  4 27  1  0
  4 28  1  0
  5 29  1  0
  5 30  1  0
  8 31  1  0
  9 32  1  0
 12 33  1  0
 17 34  1  0
 19 35  1  0
 20 36  1  0
 21 37  1  0
M  CHG  1  15  -1
M  END
>  <meeko>  (11) 
{"free_energy": -6.34, "intermolecular_energy": -9.03, "internal_energy": -0.65, "cluster_size": 8, "cluster_id": 1, "rank_in_cluster": 3}

$$$$

     RDKit          3D

 37 38  0  0  0  0  0  0  0  0999 V2000
  135.0490   68.1710  224.4520 O   0  0  0  0  0  0  0  0  0  0  0  0
  134.8210   69.2450  225.0680 C   0  0  0  0  0  0  0  0  0  0  0  0
  135.6350   70.4680  224.7430 C   0  0  0  0  0  0  0  0  0  0  0  0
  136.4650   70.2840  223.4610 C   0  0  0  0  0  0  0  0  0  0  0  0
  137.4360   71.4410  223.2030 C   0  0  0  0  0  0  0  0  0  0  0  0
  138.7760   70.9830  223.3630 O   0  0  0  0  0  0  0  0  0  0  0  0
  139.3150   70.3290  224.4850 C   0  0  0  0  0  0  0  0  0  0  0  0
  139.7480   71.1510  225.5360 C   0  0  0  0  0  0  0  0  0  0  0  0
  140.2760   70.6050  226.7070 C   0  0  0  0  0  0  0  0  0  0  0  0
  140.3750   69.2220  226.8490 C   0  0  0  0  0  0  0  0  0  0  0  0
  141.0100   68.5320  228.3310 Cl  0  0  0  0  0  0  0  0  0  0  0  0
  139.9480   68.3840  225.8150 C   0  0  0  0  0  0  0  0  0  0  0  0
  139.4150   68.9190  224.6340 C   0  0  0  0  0  0  0  0  0  0  0  0
  138.8180   67.7600  223.4550 Cl  0  0  0  0  0  0  0  0  0  0  0  0
  133.8260   69.2560  226.0960 N   0  0  0  0  0  0  0  0  0  0  0  0
  133.6500   70.3570  226.9430 N   0  0  0  0  0  0  0  0  0  0  0  0
  132.7680   71.2670  226.6740 C   0  0  0  0  0  0  0  0  0  0  0  0
  133.1550   72.6890  226.5700 C   0  0  0  0  0  0  0  0  0  0  0  0
  134.2110   73.0980  225.7380 C   0  0  0  0  0  0  0  0  0  0  0  0
  134.5790   74.4430  225.6840 C   0  0  0  0  0  0  0  0  0  0  0  0
  133.8910   75.3720  226.4640 C   0  0  0  0  0  0  0  0  0  0  0  0
  132.8640   74.9660  227.2550 N   0  0  0  0  0  0  0  0  0  0  0  0
  132.4800   73.6630  227.3210 C   0  0  0  0  0  0  0  0  0  0  0  0
  131.4540   73.3170  228.1400 F   0  0  0  0  0  0  0  0  0  0  0  0
  134.9546   71.3214  224.6061 H   0  0  0  0  0  0  0  0  0  0  0  0
  136.3313   70.6439  225.5762 H   0  0  0  0  0  0  0  0  0  0  0  0
  137.0448   69.3534  223.5497 H   0  0  0  0  0  0  0  0  0  0  0  0
  135.7613   70.2515  222.6162 H   0  0  0  0  0  0  0  0  0  0  0  0
  137.2965   71.8148  222.1779 H   0  0  0  0  0  0  0  0  0  0  0  0
  137.2382   72.2517  223.9197 H   0  0  0  0  0  0  0  0  0  0  0  0
  139.6702   72.2436  225.4356 H   0  0  0  0  0  0  0  0  0  0  0  0
  140.6142   71.2665  227.5182 H   0  0  0  0  0  0  0  0  0  0  0  0
  140.0311   67.2931  225.9292 H   0  0  0  0  0  0  0  0  0  0  0  0
  131.7179   70.9773  226.5211 H   0  0  0  0  0  0  0  0  0  0  0  0
  134.7484   72.3568  225.1283 H   0  0  0  0  0  0  0  0  0  0  0  0
  135.4038   74.7673  225.0325 H   0  0  0  0  0  0  0  0  0  0  0  0
  134.1799   76.4331  226.4387 H   0  0  0  0  0  0  0  0  0  0  0  0
  1  2  2  0
  2  3  1  0
  3  4  1  0
  4  5  1  0
  5  6  1  0
  6  7  1  0
  7  8  2  0
  8  9  1  0
  9 10  2  0
 10 11  1  0
 10 12  1  0
 12 13  2  0
 13 14  1  0
  2 15  1  0
 15 16  1  0
 16 17  2  0
 17 18  1  0
 18 19  2  0
 19 20  1  0
 20 21  2  0
 21 22  1  0
 22 23  2  0
 23 24  1  0
 13  7  1  0
 23 18  1  0
  3 25  1  0
  3 26  1  0
  4 27  1  0
  4 28  1  0
  5 29  1  0
  5 30  1  0
  8 31  1  0
  9 32  1  0
 12 33  1  0
 17 34  1  0
 19 35  1  0
 20 36  1  0
 21 37  1  0
M  CHG  1  15  -1
M  END
>  <meeko>  (12) 
{"free_energy": -5.8, "intermolecular_energy": -8.48, "internal_energy": -0.94, "cluster_size": 2, "cluster_id": 2, "rank_in_cluster": 2}

$$$$

     RDKit          3D

 37 38  0  0  0  0  0  0  0  0999 V2000
  141.0340   73.8780  222.0970 O   0  0  0  0  0  0  0  0  0  0  0  0
  140.1630   73.0060  221.8390 C   0  0  0  0  0  0  0  0  0  0  0  0
  139.0860   73.3160  220.8350 C   0  0  0  0  0  0  0  0  0  0  0  0
  138.0470   74.3050  221.3910 C   0  0  0  0  0  0  0  0  0  0  0  0
  138.6540   75.3400  222.3440 C   0  0  0  0  0  0  0  0  0  0  0  0
  138.9860   76.5190  221.6160 O   0  0  0  0  0  0  0  0  0  0  0  0
  139.8660   77.5410  222.0190 C   0  0  0  0  0  0  0  0  0  0  0  0
  139.4340   78.3490  223.0820 C   0  0  0  0  0  0  0  0  0  0  0  0
  140.2400   79.3760  223.5770 C   0  0  0  0  0  0  0  0  0  0  0  0
  141.4970   79.6060  223.0210 C   0  0  0  0  0  0  0  0  0  0  0  0
  142.5230   80.8760  223.6620 Cl  0  0  0  0  0  0  0  0  0  0  0  0
  141.9470   78.8120  221.9640 C   0  0  0  0  0  0  0  0  0  0  0  0
  141.1490   77.7770  221.4560 C   0  0  0  0  0  0  0  0  0  0  0  0
  141.8700   76.7830  220.1980 Cl  0  0  0  0  0  0  0  0  0  0  0  0
  140.1960   71.7630  222.5470 N   0  0  0  0  0  0  0  0  0  0  0  0
  139.4700   71.5660  223.7270 N   0  0  0  0  0  0  0  0  0  0  0  0
  140.0760   71.3400  224.8500 C   0  0  0  0  0  0  0  0  0  0  0  0
  140.0910   69.9880  225.4430 C   0  0  0  0  0  0  0  0  0  0  0  0
  141.0180   69.6380  226.4400 C   0  0  0  0  0  0  0  0  0  0  0  0
  141.0330   68.3430  226.9590 C   0  0  0  0  0  0  0  0  0  0  0  0
  140.1240   67.4020  226.4770 C   0  0  0  0  0  0  0  0  0  0  0  0
  139.2250   67.7550  225.5220 N   0  0  0  0  0  0  0  0  0  0  0  0
  139.1820   69.0110  225.0040 C   0  0  0  0  0  0  0  0  0  0  0  0
  138.2700   69.3000  224.0420 F   0  0  0  0  0  0  0  0  0  0  0  0
  139.5507   73.7551  219.9399 H   0  0  0  0  0  0  0  0  0  0  0  0
  138.5661   72.3771  220.5937 H   0  0  0  0  0  0  0  0  0  0  0  0
  137.5821   74.8359  220.5472 H   0  0  0  0  0  0  0  0  0  0  0  0
  137.3120   73.7214  221.9648 H   0  0  0  0  0  0  0  0  0  0  0  0
  137.9247   75.5873  223.1295 H   0  0  0  0  0  0  0  0  0  0  0  0
  139.5628   74.9255  222.8047 H   0  0  0  0  0  0  0  0  0  0  0  0
  138.4461   78.1706  223.5317 H   0  0  0  0  0  0  0  0  0  0  0  0
  139.8826   80.0040  224.4064 H   0  0  0  0  0  0  0  0  0  0  0  0
  142.9380   79.0005  221.5253 H   0  0  0  0  0  0  0  0  0  0  0  0
  140.5856   72.1659  225.3679 H   0  0  0  0  0  0  0  0  0  0  0  0
  141.7331   70.3866  226.8118 H   0  0  0  0  0  0  0  0  0  0  0  0
  141.7554   68.0669  227.7413 H   0  0  0  0  0  0  0  0  0  0  0  0
  140.1349   66.3746  226.8699 H   0  0  0  0  0  0  0  0  0  0  0  0
  1  2  2  0
  2  3  1  0
  3  4  1  0
  4  5  1  0
  5  6  1  0
  6  7  1  0
  7  8  2  0
  8  9  1  0
  9 10  2  0
 10 11  1  0
 10 12  1  0
 12 13  2  0
 13 14  1  0
  2 15  1  0
 15 16  1  0
 16 17  2  0
 17 18  1  0
 18 19  2  0
 19 20  1  0
 20 21  2  0
 21 22  1  0
 22 23  2  0
 23 24  1  0
 13  7  1  0
 23 18  1  0
  3 25  1  0
  3 26  1  0
  4 27  1  0
  4 28  1  0
  5 29  1  0
  5 30  1  0
  8 31  1  0
  9 32  1  0
 12 33  1  0
 17 34  1  0
 19 35  1  0
 20 36  1  0
 21 37  1  0
M  CHG  1  15  -1
M  END
>  <meeko>  (13) 
{"free_energy": -5.95, "intermolecular_energy": -8.64, "internal_energy": -0.61, "cluster_size": 8, "cluster_id": 1, "rank_in_cluster": 7}

$$$$

     RDKit          3D

 37 38  0  0  0  0  0  0  0  0999 V2000
  140.7020   74.1000  222.3130 O   0  0  0  0  0  0  0  0  0  0  0  0
  139.6400   73.5020  221.9950 C   0  0  0  0  0  0  0  0  0  0  0  0
  138.4560   74.3040  221.5260 C   0  0  0  0  0  0  0  0  0  0  0  0
  138.8730   75.6780  220.9720 C   0  0  0  0  0  0  0  0  0  0  0  0
  137.9380   76.8100  221.4110 C   0  0  0  0  0  0  0  0  0  0  0  0
  138.3240   77.2700  222.7040 O   0  0  0  0  0  0  0  0  0  0  0  0
  139.3610   78.1720  223.0030 C   0  0  0  0  0  0  0  0  0  0  0  0
  140.6660   77.7250  222.7500 C   0  0  0  0  0  0  0  0  0  0  0  0
  141.7680   78.5490  222.9880 C   0  0  0  0  0  0  0  0  0  0  0  0
  141.5800   79.8410  223.4780 C   0  0  0  0  0  0  0  0  0  0  0  0
  142.9610   80.8880  223.7480 Cl  0  0  0  0  0  0  0  0  0  0  0  0
  140.2880   80.3070  223.7350 C   0  0  0  0  0  0  0  0  0  0  0  0
  139.1730   79.4900  223.5010 C   0  0  0  0  0  0  0  0  0  0  0  0
  137.5990   80.2280  223.7640 Cl  0  0  0  0  0  0  0  0  0  0  0  0
  139.5770   72.0800  222.1360 N   0  0  0  0  0  0  0  0  0  0  0  0
  139.2330   71.4730  223.3500 N   0  0  0  0  0  0  0  0  0  0  0  0
  140.0830   70.7280  223.9840 C   0  0  0  0  0  0  0  0  0  0  0  0
  140.2670   70.8650  225.4440 C   0  0  0  0  0  0  0  0  0  0  0  0
  141.0490   71.8980  225.9870 C   0  0  0  0  0  0  0  0  0  0  0  0
  141.2350   71.9840  227.3670 C   0  0  0  0  0  0  0  0  0  0  0  0
  140.6400   71.0350  228.1970 C   0  0  0  0  0  0  0  0  0  0  0  0
  139.8760   70.0490  227.6620 N   0  0  0  0  0  0  0  0  0  0  0  0
  139.6720   69.9450  226.3220 C   0  0  0  0  0  0  0  0  0  0  0  0
  138.9080   68.9300  225.8450 F   0  0  0  0  0  0  0  0  0  0  0  0
  137.9390   73.7435  220.7332 H   0  0  0  0  0  0  0  0  0  0  0  0
  137.7960   74.4721  222.3898 H   0  0  0  0  0  0  0  0  0  0  0  0
  139.8891   75.9052  221.3269 H   0  0  0  0  0  0  0  0  0  0  0  0
  138.8247   75.6185  219.8747 H   0  0  0  0  0  0  0  0  0  0  0  0
  138.0037   77.6397  220.6918 H   0  0  0  0  0  0  0  0  0  0  0  0
  136.9035   76.4380  221.4476 H   0  0  0  0  0  0  0  0  0  0  0  0
  140.8240   76.7094  222.3579 H   0  0  0  0  0  0  0  0  0  0  0  0
  142.7846   78.1789  222.7889 H   0  0  0  0  0  0  0  0  0  0  0  0
  140.1443   81.3255  224.1250 H   0  0  0  0  0  0  0  0  0  0  0  0
  140.6744   69.9850  223.4290 H   0  0  0  0  0  0  0  0  0  0  0  0
  141.5155   72.6405  225.3229 H   0  0  0  0  0  0  0  0  0  0  0  0
  141.8451   72.7926  227.7959 H   0  0  0  0  0  0  0  0  0  0  0  0
  140.7897   71.0853  229.2856 H   0  0  0  0  0  0  0  0  0  0  0  0
  1  2  2  0
  2  3  1  0
  3  4  1  0
  4  5  1  0
  5  6  1  0
  6  7  1  0
  7  8  2  0
  8  9  1  0
  9 10  2  0
 10 11  1  0
 10 12  1  0
 12 13  2  0
 13 14  1  0
  2 15  1  0
 15 16  1  0
 16 17  2  0
 17 18  1  0
 18 19  2  0
 19 20  1  0
 20 21  2  0
 21 22  1  0
 22 23  2  0
 23 24  1  0
 13  7  1  0
 23 18  1  0
  3 25  1  0
  3 26  1  0
  4 27  1  0
  4 28  1  0
  5 29  1  0
  5 30  1  0
  8 31  1  0
  9 32  1  0
 12 33  1  0
 17 34  1  0
 19 35  1  0
 20 36  1  0
 21 37  1  0
M  CHG  1  15  -1
M  END
>  <meeko>  (14) 
{"free_energy": -6.01, "intermolecular_energy": -8.7, "internal_energy": -0.63, "cluster_size": 8, "cluster_id": 1, "rank_in_cluster": 6}

$$$$

     RDKit          3D

 37 38  0  0  0  0  0  0  0  0999 V2000
  140.7330   72.8630  222.7320 O   0  0  0  0  0  0  0  0  0  0  0  0
  139.7740   73.4100  222.1270 C   0  0  0  0  0  0  0  0  0  0  0  0
  138.9370   72.5900  221.1820 C   0  0  0  0  0  0  0  0  0  0  0  0
  139.4470   72.6810  219.7330 C   0  0  0  0  0  0  0  0  0  0  0  0
  139.9230   74.0880  219.3520 C   0  0  0  0  0  0  0  0  0  0  0  0
  141.2300   74.0120  218.7920 O   0  0  0  0  0  0  0  0  0  0  0  0
  142.4480   73.9530  219.4940 C   0  0  0  0  0  0  0  0  0  0  0  0
  142.8370   72.6880  219.9580 C   0  0  0  0  0  0  0  0  0  0  0  0
  144.0390   72.5130  220.6450 C   0  0  0  0  0  0  0  0  0  0  0  0
  144.8780   73.6030  220.8730 C   0  0  0  0  0  0  0  0  0  0  0  0
  146.4040   73.3800  221.7090 Cl  0  0  0  0  0  0  0  0  0  0  0  0
  144.5110   74.8710  220.4160 C   0  0  0  0  0  0  0  0  0  0  0  0
  143.3060   75.0620  219.7250 C   0  0  0  0  0  0  0  0  0  0  0  0
  143.0090   76.6830  219.1120 Cl  0  0  0  0  0  0  0  0  0  0  0  0
  139.5380   74.8070  222.3200 N   0  0  0  0  0  0  0  0  0  0  0  0
  140.5770   75.7450  222.2670 N   0  0  0  0  0  0  0  0  0  0  0  0
  140.4130   76.8840  221.6710 C   0  0  0  0  0  0  0  0  0  0  0  0
  141.1460   78.0850  222.1210 C   0  0  0  0  0  0  0  0  0  0  0  0
  141.4840   78.2710  223.4730 C   0  0  0  0  0  0  0  0  0  0  0  0
  142.1450   79.4310  223.8760 C   0  0  0  0  0  0  0  0  0  0  0  0
  142.4640   80.4020  222.9270 C   0  0  0  0  0  0  0  0  0  0  0  0
  142.1440   80.2060  221.6220 N   0  0  0  0  0  0  0  0  0  0  0  0
  141.5060   79.0820  221.1990 C   0  0  0  0  0  0  0  0  0  0  0  0
  141.2000   78.9480  219.8840 F   0  0  0  0  0  0  0  0  0  0  0  0
  138.9659   71.5384  221.5033 H   0  0  0  0  0  0  0  0  0  0  0  0
  137.9108   72.9855  221.2065 H   0  0  0  0  0  0  0  0  0  0  0  0
  140.2879   71.9821  219.6129 H   0  0  0  0  0  0  0  0  0  0  0  0
  138.6051   72.4284  219.0716 H   0  0  0  0  0  0  0  0  0  0  0  0
  139.2324   74.5212  218.6135 H   0  0  0  0  0  0  0  0  0  0  0  0
  139.9454   74.7229  220.2500 H   0  0  0  0  0  0  0  0  0  0  0  0
  142.1849   71.8207  219.7777 H   0  0  0  0  0  0  0  0  0  0  0  0
  144.3248   71.5143  221.0069 H   0  0  0  0  0  0  0  0  0  0  0  0
  145.1745   75.7288  220.6002 H   0  0  0  0  0  0  0  0  0  0  0  0
  139.7198   76.9574  220.8200 H   0  0  0  0  0  0  0  0  0  0  0  0
  141.2266   77.5001  224.2143 H   0  0  0  0  0  0  0  0  0  0  0  0
  142.4124   79.5788  224.9327 H   0  0  0  0  0  0  0  0  0  0  0  0
  142.9746   81.3262  223.2355 H   0  0  0  0  0  0  0  0  0  0  0  0
  1  2  2  0
  2  3  1  0
  3  4  1  0
  4  5  1  0
  5  6  1  0
  6  7  1  0
  7  8  2  0
  8  9  1  0
  9 10  2  0
 10 11  1  0
 10 12  1  0
 12 13  2  0
 13 14  1  0
  2 15  1  0
 15 16  1  0
 16 17  2  0
 17 18  1  0
 18 19  2  0
 19 20  1  0
 20 21  2  0
 21 22  1  0
 22 23  2  0
 23 24  1  0
 13  7  1  0
 23 18  1  0
  3 25  1  0
  3 26  1  0
  4 27  1  0
  4 28  1  0
  5 29  1  0
  5 30  1  0
  8 31  1  0
  9 32  1  0
 12 33  1  0
 17 34  1  0
 19 35  1  0
 20 36  1  0
 21 37  1  0
M  CHG  1  15  -1
M  END
>  <meeko>  (15) 
{"free_energy": -5.12, "intermolecular_energy": -7.8, "internal_energy": -1.54, "cluster_size": 1, "cluster_id": 9, "rank_in_cluster": 1}

$$$$

     RDKit          3D

 37 38  0  0  0  0  0  0  0  0999 V2000
  139.7350   74.7140  219.6770 O   0  0  0  0  0  0  0  0  0  0  0  0
  140.2190   74.2020  220.7210 C   0  0  0  0  0  0  0  0  0  0  0  0
  141.0050   72.9220  220.6160 C   0  0  0  0  0  0  0  0  0  0  0  0
  141.1730   72.2350  221.9830 C   0  0  0  0  0  0  0  0  0  0  0  0
  139.8790   71.5910  222.4930 C   0  0  0  0  0  0  0  0  0  0  0  0
  139.7280   71.8640  223.8830 O   0  0  0  0  0  0  0  0  0  0  0  0
  140.0120   70.9940  224.9510 C   0  0  0  0  0  0  0  0  0  0  0  0
  140.7630   71.5310  226.0070 C   0  0  0  0  0  0  0  0  0  0  0  0
  141.0810   70.7610  227.1280 C   0  0  0  0  0  0  0  0  0  0  0  0
  140.6440   69.4400  227.2130 C   0  0  0  0  0  0  0  0  0  0  0  0
  141.0160   68.4810  228.6340 Cl  0  0  0  0  0  0  0  0  0  0  0  0
  139.8930   68.8860  226.1730 C   0  0  0  0  0  0  0  0  0  0  0  0
  139.5670   69.6480  225.0420 C   0  0  0  0  0  0  0  0  0  0  0  0
  138.5300   68.8710  223.8540 Cl  0  0  0  0  0  0  0  0  0  0  0  0
  139.9650   74.8270  221.9820 N   0  0  0  0  0  0  0  0  0  0  0  0
  140.6100   76.0090  222.3640 N   0  0  0  0  0  0  0  0  0  0  0  0
  140.0100   77.1530  222.2710 C   0  0  0  0  0  0  0  0  0  0  0  0
  140.6940   78.4010  222.6670 C   0  0  0  0  0  0  0  0  0  0  0  0
  142.0280   78.6490  222.3020 C   0  0  0  0  0  0  0  0  0  0  0  0
  142.6620   79.8210  222.7180 C   0  0  0  0  0  0  0  0  0  0  0  0
  141.9590   80.7370  223.4990 C   0  0  0  0  0  0  0  0  0  0  0  0
  140.6660   80.4930  223.8350 N   0  0  0  0  0  0  0  0  0  0  0  0
  140.0220   79.3640  223.4370 C   0  0  0  0  0  0  0  0  0  0  0  0
  138.7330   79.1690  223.8160 F   0  0  0  0  0  0  0  0  0  0  0  0
  140.4779   72.2363  219.9363 H   0  0  0  0  0  0  0  0  0  0  0  0
  142.0067   73.1686  220.2342 H   0  0  0  0  0  0  0  0  0  0  0  0
  141.9408   71.4528  221.8901 H   0  0  0  0  0  0  0  0  0  0  0  0
  141.4622   73.0105  222.7075 H   0  0  0  0  0  0  0  0  0  0  0  0
  139.0215   72.0057  221.9427 H   0  0  0  0  0  0  0  0  0  0  0  0
  139.9244   70.5032  222.3360 H   0  0  0  0  0  0  0  0  0  0  0  0
  141.1067   72.5744  225.9514 H   0  0  0  0  0  0  0  0  0  0  0  0
  141.6763   71.1970  227.9438 H   0  0  0  0  0  0  0  0  0  0  0  0
  139.5542   67.8418  226.2422 H   0  0  0  0  0  0  0  0  0  0  0  0
  138.9781   77.1959  221.8924 H   0  0  0  0  0  0  0  0  0  0  0  0
  142.5738   77.9182  221.6872 H   0  0  0  0  0  0  0  0  0  0  0  0
  143.7056   80.0197  222.4325 H   0  0  0  0  0  0  0  0  0  0  0  0
  142.4519   81.6581  223.8434 H   0  0  0  0  0  0  0  0  0  0  0  0
  1  2  2  0
  2  3  1  0
  3  4  1  0
  4  5  1  0
  5  6  1  0
  6  7  1  0
  7  8  2  0
  8  9  1  0
  9 10  2  0
 10 11  1  0
 10 12  1  0
 12 13  2  0
 13 14  1  0
  2 15  1  0
 15 16  1  0
 16 17  2  0
 17 18  1  0
 18 19  2  0
 19 20  1  0
 20 21  2  0
 21 22  1  0
 22 23  2  0
 23 24  1  0
 13  7  1  0
 23 18  1  0
  3 25  1  0
  3 26  1  0
  4 27  1  0
  4 28  1  0
  5 29  1  0
  5 30  1  0
  8 31  1  0
  9 32  1  0
 12 33  1  0
 17 34  1  0
 19 35  1  0
 20 36  1  0
 21 37  1  0
M  CHG  1  15  -1
M  END
>  <meeko>  (16) 
{"free_energy": -6.06, "intermolecular_energy": -8.75, "internal_energy": -0.46, "cluster_size": 2, "cluster_id": 4, "rank_in_cluster": 1}

$$$$

     RDKit          3D

 37 38  0  0  0  0  0  0  0  0999 V2000
  141.3740   74.9840  221.5170 O   0  0  0  0  0  0  0  0  0  0  0  0
  140.4170   74.2760  221.9270 C   0  0  0  0  0  0  0  0  0  0  0  0
  139.0350   74.8690  221.9840 C   0  0  0  0  0  0  0  0  0  0  0  0
  138.5450   75.3250  220.5990 C   0  0  0  0  0  0  0  0  0  0  0  0
  139.3040   76.5450  220.0670 C   0  0  0  0  0  0  0  0  0  0  0  0
  139.0490   77.6670  220.9070 O   0  0  0  0  0  0  0  0  0  0  0  0
  140.0020   78.4510  221.5820 C   0  0  0  0  0  0  0  0  0  0  0  0
  139.7400   78.7210  222.9330 C   0  0  0  0  0  0  0  0  0  0  0  0
  140.6330   79.4680  223.7040 C   0  0  0  0  0  0  0  0  0  0  0  0
  141.8090   79.9520  223.1350 C   0  0  0  0  0  0  0  0  0  0  0  0
  142.9470   80.8650  224.1090 Cl  0  0  0  0  0  0  0  0  0  0  0  0
  142.0910   79.6930  221.7910 C   0  0  0  0  0  0  0  0  0  0  0  0
  141.2030   78.9440  221.0060 C   0  0  0  0  0  0  0  0  0  0  0  0
  141.7210   78.5980  219.3610 Cl  0  0  0  0  0  0  0  0  0  0  0  0
  140.6820   72.9430  222.3740 N   0  0  0  0  0  0  0  0  0  0  0  0
  139.9640   72.3590  223.4240 N   0  0  0  0  0  0  0  0  0  0  0  0
  140.3150   71.2120  223.9120 C   0  0  0  0  0  0  0  0  0  0  0  0
  140.3420   70.9870  225.3720 C   0  0  0  0  0  0  0  0  0  0  0  0
  140.9870   71.8860  226.2380 C   0  0  0  0  0  0  0  0  0  0  0  0
  141.0260   71.6320  227.6090 C   0  0  0  0  0  0  0  0  0  0  0  0
  140.4240   70.4780  228.1080 C   0  0  0  0  0  0  0  0  0  0  0  0
  139.7920   69.6220  227.2630 N   0  0  0  0  0  0  0  0  0  0  0  0
  139.7310   69.8490  225.9240 C   0  0  0  0  0  0  0  0  0  0  0  0
  139.0980   68.9500  225.1280 F   0  0  0  0  0  0  0  0  0  0  0  0
  138.3396   74.1116  222.3749 H   0  0  0  0  0  0  0  0  0  0  0  0
  139.0714   75.7521  222.6388 H   0  0  0  0  0  0  0  0  0  0  0  0
  138.6758   74.4943  219.8899 H   0  0  0  0  0  0  0  0  0  0  0  0
  137.4888   75.6142  220.7026 H   0  0  0  0  0  0  0  0  0  0  0  0
  140.3829   76.3307  220.0591 H   0  0  0  0  0  0  0  0  0  0  0  0
  138.9669   76.7689  219.0442 H   0  0  0  0  0  0  0  0  0  0  0  0
  138.8167   78.3384  223.3925 H   0  0  0  0  0  0  0  0  0  0  0  0
  140.4079   79.6743  224.7608 H   0  0  0  0  0  0  0  0  0  0  0  0
  143.0187   80.0805  221.3446 H   0  0  0  0  0  0  0  0  0  0  0  0
  140.5965   70.3952  223.2312 H   0  0  0  0  0  0  0  0  0  0  0  0
  141.4622   72.7920  225.8340 H   0  0  0  0  0  0  0  0  0  0  0  0
  141.5271   72.3357  228.2900 H   0  0  0  0  0  0  0  0  0  0  0  0
  140.4606   70.2604  229.1856 H   0  0  0  0  0  0  0  0  0  0  0  0
  1  2  2  0
  2  3  1  0
  3  4  1  0
  4  5  1  0
  5  6  1  0
  6  7  1  0
  7  8  2  0
  8  9  1  0
  9 10  2  0
 10 11  1  0
 10 12  1  0
 12 13  2  0
 13 14  1  0
  2 15  1  0
 15 16  1  0
 16 17  2  0
 17 18  1  0
 18 19  2  0
 19 20  1  0
 20 21  2  0
 21 22  1  0
 22 23  2  0
 23 24  1  0
 13  7  1  0
 23 18  1  0
  3 25  1  0
  3 26  1  0
  4 27  1  0
  4 28  1  0
  5 29  1  0
  5 30  1  0
  8 31  1  0
  9 32  1  0
 12 33  1  0
 17 34  1  0
 19 35  1  0
 20 36  1  0
 21 37  1  0
M  CHG  1  15  -1
M  END
>  <meeko>  (17) 
{"free_energy": -5.61, "intermolecular_energy": -8.29, "internal_energy": -0.73, "cluster_size": 8, "cluster_id": 1, "rank_in_cluster": 8}

$$$$

     RDKit          3D

 37 38  0  0  0  0  0  0  0  0999 V2000
  141.1530   74.7180  221.5850 O   0  0  0  0  0  0  0  0  0  0  0  0
  139.9380   75.0260  221.7070 C   0  0  0  0  0  0  0  0  0  0  0  0
  138.9140   73.9340  221.8680 C   0  0  0  0  0  0  0  0  0  0  0  0
  139.5520   72.5350  221.8230 C   0  0  0  0  0  0  0  0  0  0  0  0
  140.3280   72.1880  223.0980 C   0  0  0  0  0  0  0  0  0  0  0  0
  139.4480   71.5830  224.0400 O   0  0  0  0  0  0  0  0  0  0  0  0
  139.8010   70.7140  225.0890 C   0  0  0  0  0  0  0  0  0  0  0  0
  140.5090   71.2850  226.1570 C   0  0  0  0  0  0  0  0  0  0  0  0
  140.8880   70.5190  227.2600 C   0  0  0  0  0  0  0  0  0  0  0  0
  140.5560   69.1660  227.3170 C   0  0  0  0  0  0  0  0  0  0  0  0
  141.0030   68.2080  228.7170 Cl  0  0  0  0  0  0  0  0  0  0  0  0
  139.8480   68.5780  226.2660 C   0  0  0  0  0  0  0  0  0  0  0  0
  139.4620   69.3360  225.1510 C   0  0  0  0  0  0  0  0  0  0  0  0
  138.4870   68.5060  223.9460 Cl  0  0  0  0  0  0  0  0  0  0  0  0
  139.5620   76.4050  221.6400 N   0  0  0  0  0  0  0  0  0  0  0  0
  139.0420   77.0830  222.7490 N   0  0  0  0  0  0  0  0  0  0  0  0
  139.0060   78.3780  222.7770 C   0  0  0  0  0  0  0  0  0  0  0  0
  140.2300   79.1640  223.0350 C   0  0  0  0  0  0  0  0  0  0  0  0
  141.5060   78.6290  222.7880 C   0  0  0  0  0  0  0  0  0  0  0  0
  142.6470   79.3800  223.0720 C   0  0  0  0  0  0  0  0  0  0  0  0
  142.5070   80.6610  223.6050 C   0  0  0  0  0  0  0  0  0  0  0  0
  141.2680   81.1730  223.8270 N   0  0  0  0  0  0  0  0  0  0  0  0
  140.1390   80.4660  223.5530 C   0  0  0  0  0  0  0  0  0  0  0  0
  138.9300   81.0250  223.8090 F   0  0  0  0  0  0  0  0  0  0  0  0
  138.4071   74.0623  222.8358 H   0  0  0  0  0  0  0  0  0  0  0  0
  138.2020   74.0099  221.0330 H   0  0  0  0  0  0  0  0  0  0  0  0
  138.7541   71.7904  221.6850 H   0  0  0  0  0  0  0  0  0  0  0  0
  140.2698   72.5280  220.9895 H   0  0  0  0  0  0  0  0  0  0  0  0
  141.1406   71.4881  222.8535 H   0  0  0  0  0  0  0  0  0  0  0  0
  140.7522   73.1063  223.5302 H   0  0  0  0  0  0  0  0  0  0  0  0
  140.7694   72.3532  226.1244 H   0  0  0  0  0  0  0  0  0  0  0  0
  141.4489   70.9827  228.0848 H   0  0  0  0  0  0  0  0  0  0  0  0
  139.5907   67.5096  226.3135 H   0  0  0  0  0  0  0  0  0  0  0  0
  138.0521   78.8986  222.6065 H   0  0  0  0  0  0  0  0  0  0  0  0
  141.6052   77.6164  222.3700 H   0  0  0  0  0  0  0  0  0  0  0  0
  143.6472   78.9657  222.8774 H   0  0  0  0  0  0  0  0  0  0  0  0
  143.3996   81.2571  223.8457 H   0  0  0  0  0  0  0  0  0  0  0  0
  1  2  2  0
  2  3  1  0
  3  4  1  0
  4  5  1  0
  5  6  1  0
  6  7  1  0
  7  8  2  0
  8  9  1  0
  9 10  2  0
 10 11  1  0
 10 12  1  0
 12 13  2  0
 13 14  1  0
  2 15  1  0
 15 16  1  0
 16 17  2  0
 17 18  1  0
 18 19  2  0
 19 20  1  0
 20 21  2  0
 21 22  1  0
 22 23  2  0
 23 24  1  0
 13  7  1  0
 23 18  1  0
  3 25  1  0
  3 26  1  0
  4 27  1  0
  4 28  1  0
  5 29  1  0
  5 30  1  0
  8 31  1  0
  9 32  1  0
 12 33  1  0
 17 34  1  0
 19 35  1  0
 20 36  1  0
 21 37  1  0
M  CHG  1  15  -1
M  END
>  <meeko>  (18) 
{"free_energy": -5.91, "intermolecular_energy": -8.6, "internal_energy": -0.59, "cluster_size": 2, "cluster_id": 4, "rank_in_cluster": 2}

$$$$

     RDKit          3D

 37 38  0  0  0  0  0  0  0  0999 V2000
  139.1220   66.9390  223.3390 O   0  0  0  0  0  0  0  0  0  0  0  0
  138.8070   68.0720  223.7890 C   0  0  0  0  0  0  0  0  0  0  0  0
  138.8660   69.2690  222.8780 C   0  0  0  0  0  0  0  0  0  0  0  0
  138.4640   70.5650  223.6020 C   0  0  0  0  0  0  0  0  0  0  0  0
  139.6400   71.5290  223.8040 C   0  0  0  0  0  0  0  0  0  0  0  0
  139.6590   72.4820  222.7440 O   0  0  0  0  0  0  0  0  0  0  0  0
  140.7790   72.8910  221.9980 C   0  0  0  0  0  0  0  0  0  0  0  0
  141.6750   71.8820  221.6180 C   0  0  0  0  0  0  0  0  0  0  0  0
  142.8070   72.1740  220.8540 C   0  0  0  0  0  0  0  0  0  0  0  0
  143.0560   73.4850  220.4500 C   0  0  0  0  0  0  0  0  0  0  0  0
  144.4600   73.8500  219.4650 Cl  0  0  0  0  0  0  0  0  0  0  0  0
  142.1750   74.5060  220.8160 C   0  0  0  0  0  0  0  0  0  0  0  0
  141.0350   74.2260  221.5830 C   0  0  0  0  0  0  0  0  0  0  0  0
  139.9510   75.5770  221.8880 Cl  0  0  0  0  0  0  0  0  0  0  0  0
  138.4490   68.1950  225.1680 N   0  0  0  0  0  0  0  0  0  0  0  0
  139.2410   67.6520  226.1880 N   0  0  0  0  0  0  0  0  0  0  0  0
  140.4050   68.1510  226.4610 C   0  0  0  0  0  0  0  0  0  0  0  0
  140.5430   69.5560  226.8950 C   0  0  0  0  0  0  0  0  0  0  0  0
  139.8340   70.0510  228.0040 C   0  0  0  0  0  0  0  0  0  0  0  0
  139.9560   71.3910  228.3720 C   0  0  0  0  0  0  0  0  0  0  0  0
  140.7840   72.2320  227.6280 C   0  0  0  0  0  0  0  0  0  0  0  0
  141.4740   71.7400  226.5670 N   0  0  0  0  0  0  0  0  0  0  0  0
  141.3790   70.4360  226.1900 C   0  0  0  0  0  0  0  0  0  0  0  0
  142.0830   70.0060  225.1130 F   0  0  0  0  0  0  0  0  0  0  0  0
  139.8934   69.3774  222.5002 H   0  0  0  0  0  0  0  0  0  0  0  0
  138.1545   69.1050  222.0553 H   0  0  0  0  0  0  0  0  0  0  0  0
  137.6919   71.0741  223.0064 H   0  0  0  0  0  0  0  0  0  0  0  0
  138.0947   70.2835  224.5992 H   0  0  0  0  0  0  0  0  0  0  0  0
  139.5252   72.0515  224.7652 H   0  0  0  0  0  0  0  0  0  0  0  0
  140.5830   70.9627  223.8056 H   0  0  0  0  0  0  0  0  0  0  0  0
  141.4834   70.8437  221.9265 H   0  0  0  0  0  0  0  0  0  0  0  0
  143.5021   71.3698  220.5710 H   0  0  0  0  0  0  0  0  0  0  0  0
  142.3778   75.5397  220.4993 H   0  0  0  0  0  0  0  0  0  0  0  0
  141.3016   67.5205  226.3684 H   0  0  0  0  0  0  0  0  0  0  0  0
  139.1819   69.3801  228.5825 H   0  0  0  0  0  0  0  0  0  0  0  0
  139.4047   71.7808  229.2404 H   0  0  0  0  0  0  0  0  0  0  0  0
  140.8779   73.2935  227.9009 H   0  0  0  0  0  0  0  0  0  0  0  0
  1  2  2  0
  2  3  1  0
  3  4  1  0
  4  5  1  0
  5  6  1  0
  6  7  1  0
  7  8  2  0
  8  9  1  0
  9 10  2  0
 10 11  1  0
 10 12  1  0
 12 13  2  0
 13 14  1  0
  2 15  1  0
 15 16  1  0
 16 17  2  0
 17 18  1  0
 18 19  2  0
 19 20  1  0
 20 21  2  0
 21 22  1  0
 22 23  2  0
 23 24  1  0
 13  7  1  0
 23 18  1  0
  3 25  1  0
  3 26  1  0
  4 27  1  0
  4 28  1  0
  5 29  1  0
  5 30  1  0
  8 31  1  0
  9 32  1  0
 12 33  1  0
 17 34  1  0
 19 35  1  0
 20 36  1  0
 21 37  1  0
M  CHG  1  15  -1
M  END
>  <meeko>  (19) 
{"free_energy": -5.92, "intermolecular_energy": -8.61, "internal_energy": -1.02, "cluster_size": 3, "cluster_id": 7, "rank_in_cluster": 2}

$$$$

     RDKit          3D

 37 38  0  0  0  0  0  0  0  0999 V2000
  139.2200   69.0550  222.7470 O   0  0  0  0  0  0  0  0  0  0  0  0
  138.6890   69.5160  223.7910 C   0  0  0  0  0  0  0  0  0  0  0  0
  138.4910   71.0030  223.9200 C   0  0  0  0  0  0  0  0  0  0  0  0
  137.0730   71.4340  223.5070 C   0  0  0  0  0  0  0  0  0  0  0  0
  137.0600   72.3590  222.2850 C   0  0  0  0  0  0  0  0  0  0  0  0
  138.3970   72.5890  221.8490 O   0  0  0  0  0  0  0  0  0  0  0  0
  139.0930   73.8110  221.8720 C   0  0  0  0  0  0  0  0  0  0  0  0
  138.3510   74.9430  222.2400 C   0  0  0  0  0  0  0  0  0  0  0  0
  138.9500   76.2010  222.3190 C   0  0  0  0  0  0  0  0  0  0  0  0
  140.3070   76.3470  222.0380 C   0  0  0  0  0  0  0  0  0  0  0  0
  141.0690   77.9220  222.1670 Cl  0  0  0  0  0  0  0  0  0  0  0  0
  141.0660   75.2320  221.6720 C   0  0  0  0  0  0  0  0  0  0  0  0
  140.4770   73.9630  221.5880 C   0  0  0  0  0  0  0  0  0  0  0  0
  141.5590   72.6260  221.2200 Cl  0  0  0  0  0  0  0  0  0  0  0  0
  138.3330   68.6160  224.8440 N   0  0  0  0  0  0  0  0  0  0  0  0
  139.2610   67.7260  225.3990 N   0  0  0  0  0  0  0  0  0  0  0  0
  139.8920   68.0200  226.4920 C   0  0  0  0  0  0  0  0  0  0  0  0
  140.2940   69.4120  226.7820 C   0  0  0  0  0  0  0  0  0  0  0  0
  141.0440   70.1620  225.8600 C   0  0  0  0  0  0  0  0  0  0  0  0
  141.4400   71.4620  226.1740 C   0  0  0  0  0  0  0  0  0  0  0  0
  141.0870   72.0060  227.4080 C   0  0  0  0  0  0  0  0  0  0  0  0
  140.3500   71.2770  228.2860 N   0  0  0  0  0  0  0  0  0  0  0  0
  139.9450   70.0100  228.0030 C   0  0  0  0  0  0  0  0  0  0  0  0
  139.2220   69.3260  228.9260 F   0  0  0  0  0  0  0  0  0  0  0  0
  138.6597   71.2941  224.9673 H   0  0  0  0  0  0  0  0  0  0  0  0
  139.2062   71.5004  223.2484 H   0  0  0  0  0  0  0  0  0  0  0  0
  136.4877   70.5331  223.2709 H   0  0  0  0  0  0  0  0  0  0  0  0
  136.6415   71.9952  224.3489 H   0  0  0  0  0  0  0  0  0  0  0  0
  136.4859   71.8871  221.4740 H   0  0  0  0  0  0  0  0  0  0  0  0
  136.5926   73.3173  222.5556 H   0  0  0  0  0  0  0  0  0  0  0  0
  137.2805   74.8376  222.4699 H   0  0  0  0  0  0  0  0  0  0  0  0
  138.3503   77.0782  222.6034 H   0  0  0  0  0  0  0  0  0  0  0  0
  142.1362   75.3516  221.4476 H   0  0  0  0  0  0  0  0  0  0  0  0
  140.1312   67.2239  227.2124 H   0  0  0  0  0  0  0  0  0  0  0  0
  141.3191   69.7232  224.8895 H   0  0  0  0  0  0  0  0  0  0  0  0
  142.0257   72.0528  225.4543 H   0  0  0  0  0  0  0  0  0  0  0  0
  141.4053   73.0256  227.6708 H   0  0  0  0  0  0  0  0  0  0  0  0
  1  2  2  0
  2  3  1  0
  3  4  1  0
  4  5  1  0
  5  6  1  0
  6  7  1  0
  7  8  2  0
  8  9  1  0
  9 10  2  0
 10 11  1  0
 10 12  1  0
 12 13  2  0
 13 14  1  0
  2 15  1  0
 15 16  1  0
 16 17  2  0
 17 18  1  0
 18 19  2  0
 19 20  1  0
 20 21  2  0
 21 22  1  0
 22 23  2  0
 23 24  1  0
 13  7  1  0
 23 18  1  0
  3 25  1  0
  3 26  1  0
  4 27  1  0
  4 28  1  0
  5 29  1  0
  5 30  1  0
  8 31  1  0
  9 32  1  0
 12 33  1  0
 17 34  1  0
 19 35  1  0
 20 36  1  0
 21 37  1  0
M  CHG  1  15  -1
M  END
>  <meeko>  (20) 
{"free_energy": -5.61, "intermolecular_energy": -8.3, "internal_energy": -0.9, "cluster_size": 1, "cluster_id": 8, "rank_in_cluster": 1}

$$$$
