
     RDKit          3D

 43 46  0  0  0  0  0  0  0  0999 V2000
  140.9060   73.4370  221.9620 O   0  0  0  0  0  0  0  0  0  0  0  0
  139.7510   73.9340  222.0870 C   0  0  0  0  0  0  0  0  0  0  0  0
  139.5960   75.3320  222.0680 C   0  0  0  0  0  0  0  0  0  0  0  0
  140.6900   76.2110  221.9350 C   0  0  0  0  0  0  0  0  0  0  0  0
  140.4840   77.5910  221.9390 C   0  0  0  0  0  0  0  0  0  0  0  0
  139.1910   78.1080  222.0690 C   0  0  0  0  0  0  0  0  0  0  0  0
  138.1000   77.2430  222.1900 C   0  0  0  0  0  0  0  0  0  0  0  0
  138.3000   75.8600  222.1900 C   0  0  0  0  0  0  0  0  0  0  0  0
  137.2440   75.0250  222.3140 N   0  0  0  0  0  0  0  0  0  0  0  0
  137.4000   73.6780  222.3440 C   0  0  0  0  0  0  0  0  0  0  0  0
  136.1940   72.8460  222.4930 C   0  0  0  0  0  0  0  0  0  0  0  0
  135.7590   72.4730  223.6910 C   0  0  0  0  0  0  0  0  0  0  0  0
  135.0770   73.3930  224.6210 C   0  0  0  0  0  0  0  0  0  0  0  0
  135.3300   74.7710  224.5390 C   0  0  0  0  0  0  0  0  0  0  0  0
  134.6970   75.6460  225.4170 C   0  0  0  0  0  0  0  0  0  0  0  0
  133.8430   75.1370  226.3940 C   0  0  0  0  0  0  0  0  0  0  0  0
  133.6070   73.7990  226.4700 N   0  0  0  0  0  0  0  0  0  0  0  0
  134.1990   72.9270  225.6110 C   0  0  0  0  0  0  0  0  0  0  0  0
  138.6540   73.1160  222.2380 N   0  0  0  0  0  0  0  0  0  0  0  0
  138.8190   71.6420  222.2480 C   0  0  0  0  0  0  0  0  0  0  0  0
  139.2090   71.1460  223.6210 C   0  0  0  0  0  0  0  0  0  0  0  0
  140.3300   71.6840  224.2770 C   0  0  0  0  0  0  0  0  0  0  0  0
  140.7020   71.2050  225.5390 C   0  0  0  0  0  0  0  0  0  0  0  0
  139.9500   70.2050  226.1620 C   0  0  0  0  0  0  0  0  0  0  0  0
  140.4310   69.6060  227.7320 Cl  0  0  0  0  0  0  0  0  0  0  0  0
  138.8270   69.6740  225.5200 C   0  0  0  0  0  0  0  0  0  0  0  0
  138.4470   70.1530  224.2640 C   0  0  0  0  0  0  0  0  0  0  0  0
  141.7080   75.8082  221.8279 H   0  0  0  0  0  0  0  0  0  0  0  0
  141.3406   78.2739  221.8397 H   0  0  0  0  0  0  0  0  0  0  0  0
  139.0326   79.1965  222.0760 H   0  0  0  0  0  0  0  0  0  0  0  0
  137.0830   77.6512  222.2853 H   0  0  0  0  0  0  0  0  0  0  0  0
  135.6434   72.5277  221.5955 H   0  0  0  0  0  0  0  0  0  0  0  0
  135.9144   71.4301  224.0043 H   0  0  0  0  0  0  0  0  0  0  0  0
  136.0275   75.1589  223.7820 H   0  0  0  0  0  0  0  0  0  0  0  0
  134.8692   76.7298  225.3406 H   0  0  0  0  0  0  0  0  0  0  0  0
  133.3577   75.8200  227.1067 H   0  0  0  0  0  0  0  0  0  0  0  0
  133.9884   71.8504  225.6927 H   0  0  0  0  0  0  0  0  0  0  0  0
  137.8690   71.1724  221.9532 H   0  0  0  0  0  0  0  0  0  0  0  0
  139.6185   71.3758  221.5410 H   0  0  0  0  0  0  0  0  0  0  0  0
  140.9158   72.4825  223.7981 H   0  0  0  0  0  0  0  0  0  0  0  0
  141.5892   71.6172  226.0420 H   0  0  0  0  0  0  0  0  0  0  0  0
  138.2422   68.8783  226.0045 H   0  0  0  0  0  0  0  0  0  0  0  0
  137.5471   69.7517  223.7749 H   0  0  0  0  0  0  0  0  0  0  0  0
  1  2  2  0
  2  3  1  0
  3  4  2  0
  4  5  1  0
  5  6  2  0
  6  7  1  0
  7  8  2  0
  8  9  1  0
  9 10  2  0
 10 11  1  0
 11 12  2  0
 12 13  1  0
 13 14  2  0
 14 15  1  0
 15 16  2  0
 16 17  1  0
 17 18  2  0
 10 19  1  0
 19 20  1  0
 20 21  1  0
 21 22  2  0
 22 23  1  0
 23 24  2  0
 24 25  1  0
 24 26  1  0
 26 27  2  0
 19  2  1  0
 27 21  1  0
  8  3  1  0
 18 13  1  0
  4 28  1  0
  5 29  1  0
  6 30  1  0
  7 31  1  0
 11 32  1  0
 12 33  1  0
 14 34  1  0
 15 35  1  0
 16 36  1  0
 18 37  1  0
 20 38  1  0
 20 39  1  0
 22 40  1  0
 23 41  1  0
 26 42  1  0
 27 43  1  0
M  END
>  <meeko>  (1) 
{"free_energy": -7.38, "intermolecular_energy": -8.87, "internal_energy": -1.35, "cluster_size": 3, "cluster_id": 4, "rank_in_cluster": 2}

$$$$

     RDKit          3D

 43 46  0  0  0  0  0  0  0  0999 V2000
  141.4680   71.0410  221.2210 O   0  0  0  0  0  0  0  0  0  0  0  0
  141.7020   72.2830  221.2220 C   0  0  0  0  0  0  0  0  0  0  0  0
  142.9680   72.7470  220.8220 C   0  0  0  0  0  0  0  0  0  0  0  0
  144.0050   71.8740  220.4350 C   0  0  0  0  0  0  0  0  0  0  0  0
  145.2490   72.3850  220.0620 C   0  0  0  0  0  0  0  0  0  0  0  0
  145.4700   73.7660  220.0650 C   0  0  0  0  0  0  0  0  0  0  0  0
  144.4440   74.6400  220.4360 C   0  0  0  0  0  0  0  0  0  0  0  0
  143.1970   74.1340  220.8140 C   0  0  0  0  0  0  0  0  0  0  0  0
  142.2070   74.9790  221.1780 N   0  0  0  0  0  0  0  0  0  0  0  0
  140.9920   74.5260  221.5760 C   0  0  0  0  0  0  0  0  0  0  0  0
  139.9780   75.5200  221.9670 C   0  0  0  0  0  0  0  0  0  0  0  0
  139.9420   76.7230  221.4060 C   0  0  0  0  0  0  0  0  0  0  0  0
  140.8220   77.8310  221.8230 C   0  0  0  0  0  0  0  0  0  0  0  0
  141.0990   78.0170  223.1870 C   0  0  0  0  0  0  0  0  0  0  0  0
  141.9230   79.0640  223.5900 C   0  0  0  0  0  0  0  0  0  0  0  0
  142.4350   79.9390  222.6350 C   0  0  0  0  0  0  0  0  0  0  0  0
  142.1580   79.7540  221.3150 N   0  0  0  0  0  0  0  0  0  0  0  0
  141.3720   78.7280  220.8950 C   0  0  0  0  0  0  0  0  0  0  0  0
  140.7260   73.1730  221.6090 N   0  0  0  0  0  0  0  0  0  0  0  0
  139.3900   72.6820  222.0210 C   0  0  0  0  0  0  0  0  0  0  0  0
  139.4880   71.7800  223.2300 C   0  0  0  0  0  0  0  0  0  0  0  0
  140.5750   71.8960  224.1130 C   0  0  0  0  0  0  0  0  0  0  0  0
  140.6740   71.0430  225.2200 C   0  0  0  0  0  0  0  0  0  0  0  0
  139.6840   70.0880  225.4640 C   0  0  0  0  0  0  0  0  0  0  0  0
  139.8260   69.0210  226.8410 Cl  0  0  0  0  0  0  0  0  0  0  0  0
  138.5940   69.9750  224.5940 C   0  0  0  0  0  0  0  0  0  0  0  0
  138.4850   70.8280  223.4940 C   0  0  0  0  0  0  0  0  0  0  0  0
  143.8333   70.7875  220.4270 H   0  0  0  0  0  0  0  0  0  0  0  0
  146.0571   71.7003  219.7651 H   0  0  0  0  0  0  0  0  0  0  0  0
  146.4531   74.1652  219.7749 H   0  0  0  0  0  0  0  0  0  0  0  0
  144.6180   75.7261  220.4305 H   0  0  0  0  0  0  0  0  0  0  0  0
  139.2371   75.2611  222.7377 H   0  0  0  0  0  0  0  0  0  0  0  0
  139.2229   76.9015  220.5930 H   0  0  0  0  0  0  0  0  0  0  0  0
  140.6658   77.3369  223.9353 H   0  0  0  0  0  0  0  0  0  0  0  0
  142.1678   79.1992  224.6539 H   0  0  0  0  0  0  0  0  0  0  0  0
  143.0661   80.7835  222.9488 H   0  0  0  0  0  0  0  0  0  0  0  0
  141.1660   78.6002  219.8221 H   0  0  0  0  0  0  0  0  0  0  0  0
  138.7513   73.5432  222.2667 H   0  0  0  0  0  0  0  0  0  0  0  0
  138.9595   72.1045  221.1896 H   0  0  0  0  0  0  0  0  0  0  0  0
  141.3488   72.6572  223.9349 H   0  0  0  0  0  0  0  0  0  0  0  0
  141.5348   71.1256  225.8998 H   0  0  0  0  0  0  0  0  0  0  0  0
  137.8219   69.2131  224.7769 H   0  0  0  0  0  0  0  0  0  0  0  0
  137.6109   70.7558  222.8302 H   0  0  0  0  0  0  0  0  0  0  0  0
  1  2  2  0
  2  3  1  0
  3  4  2  0
  4  5  1  0
  5  6  2  0
  6  7  1  0
  7  8  2  0
  8  9  1  0
  9 10  2  0
 10 11  1  0
 11 12  2  0
 12 13  1  0
 13 14  2  0
 14 15  1  0
 15 16  2  0
 16 17  1  0
 17 18  2  0
 10 19  1  0
 19 20  1  0
 20 21  1  0
 21 22  2  0
 22 23  1  0
 23 24  2  0
 24 25  1  0
 24 26  1  0
 26 27  2  0
 19  2  1  0
 27 21  1  0
  8  3  1  0
 18 13  1  0
  4 28  1  0
  5 29  1  0
  6 30  1  0
  7 31  1  0
 11 32  1  0
 12 33  1  0
 14 34  1  0
 15 35  1  0
 16 36  1  0
 18 37  1  0
 20 38  1  0
 20 39  1  0
 22 40  1  0
 23 41  1  0
 26 42  1  0
 27 43  1  0
M  END
>  <meeko>  (2) 
{"free_energy": -7.54, "intermolecular_energy": -9.03, "internal_energy": -1.15, "cluster_size": 5, "cluster_id": 2, "rank_in_cluster": 2}

$$$$

     RDKit          3D

 43 46  0  0  0  0  0  0  0  0999 V2000
  140.8980   73.7570  221.8550 O   0  0  0  0  0  0  0  0  0  0  0  0
  139.7500   74.2500  222.0450 C   0  0  0  0  0  0  0  0  0  0  0  0
  139.6050   75.6450  222.1420 C   0  0  0  0  0  0  0  0  0  0  0  0
  140.7020   76.5260  222.0540 C   0  0  0  0  0  0  0  0  0  0  0  0
  140.5060   77.9030  222.1730 C   0  0  0  0  0  0  0  0  0  0  0  0
  139.2210   78.4140  222.3730 C   0  0  0  0  0  0  0  0  0  0  0  0
  138.1260   77.5500  222.4500 C   0  0  0  0  0  0  0  0  0  0  0  0
  138.3150   76.1690  222.3360 C   0  0  0  0  0  0  0  0  0  0  0  0
  137.2560   75.3330  222.4160 N   0  0  0  0  0  0  0  0  0  0  0  0
  137.4030   73.9870  222.3350 C   0  0  0  0  0  0  0  0  0  0  0  0
  136.1950   73.1530  222.4460 C   0  0  0  0  0  0  0  0  0  0  0  0
  135.7620   72.7210  223.6250 C   0  0  0  0  0  0  0  0  0  0  0  0
  135.0750   73.5910  224.5980 C   0  0  0  0  0  0  0  0  0  0  0  0
  135.2830   74.9780  224.5490 C   0  0  0  0  0  0  0  0  0  0  0  0
  134.6460   75.8080  225.4680 C   0  0  0  0  0  0  0  0  0  0  0  0
  133.8350   75.2440  226.4510 C   0  0  0  0  0  0  0  0  0  0  0  0
  133.6430   73.8970  226.4940 N   0  0  0  0  0  0  0  0  0  0  0  0
  134.2390   73.0700  225.5950 C   0  0  0  0  0  0  0  0  0  0  0  0
  138.6510   73.4290  222.1560 N   0  0  0  0  0  0  0  0  0  0  0  0
  138.8050   71.9580  222.0450 C   0  0  0  0  0  0  0  0  0  0  0  0
  139.1840   71.3460  223.3730 C   0  0  0  0  0  0  0  0  0  0  0  0
  138.3950   70.3280  223.9350 C   0  0  0  0  0  0  0  0  0  0  0  0
  138.7350   69.7790  225.1770 C   0  0  0  0  0  0  0  0  0  0  0  0
  139.8730   70.2250  225.8550 C   0  0  0  0  0  0  0  0  0  0  0  0
  140.2820   69.5420  227.4110 Cl  0  0  0  0  0  0  0  0  0  0  0  0
  140.6690   71.2310  225.2970 C   0  0  0  0  0  0  0  0  0  0  0  0
  140.3380   71.7760  224.0540 C   0  0  0  0  0  0  0  0  0  0  0  0
  141.7143   76.1276  221.8913 H   0  0  0  0  0  0  0  0  0  0  0  0
  141.3650   78.5872  222.1092 H   0  0  0  0  0  0  0  0  0  0  0  0
  139.0712   79.4994  222.4701 H   0  0  0  0  0  0  0  0  0  0  0  0
  137.1148   77.9560  222.6003 H   0  0  0  0  0  0  0  0  0  0  0  0
  135.6405   72.8825  221.5353 H   0  0  0  0  0  0  0  0  0  0  0  0
  135.9232   71.6652  223.8881 H   0  0  0  0  0  0  0  0  0  0  0  0
  135.9480   75.4088  223.7860 H   0  0  0  0  0  0  0  0  0  0  0  0
  134.7817   76.8985  225.4185 H   0  0  0  0  0  0  0  0  0  0  0  0
  133.3477   75.8904  227.1958 H   0  0  0  0  0  0  0  0  0  0  0  0
  134.0642   71.9854  225.6502 H   0  0  0  0  0  0  0  0  0  0  0  0
  137.8530   71.5221  221.7079 H   0  0  0  0  0  0  0  0  0  0  0  0
  139.6067   71.7455  221.3224 H   0  0  0  0  0  0  0  0  0  0  0  0
  137.5079   69.9616  223.3976 H   0  0  0  0  0  0  0  0  0  0  0  0
  138.1047   68.9943  225.6207 H   0  0  0  0  0  0  0  0  0  0  0  0
  141.5561   71.5931  225.8373 H   0  0  0  0  0  0  0  0  0  0  0  0
  140.9831   72.5456  223.6050 H   0  0  0  0  0  0  0  0  0  0  0  0
  1  2  2  0
  2  3  1  0
  3  4  2  0
  4  5  1  0
  5  6  2  0
  6  7  1  0
  7  8  2  0
  8  9  1  0
  9 10  2  0
 10 11  1  0
 11 12  2  0
 12 13  1  0
 13 14  2  0
 14 15  1  0
 15 16  2  0
 16 17  1  0
 17 18  2  0
 10 19  1  0
 19 20  1  0
 20 21  1  0
 21 22  2  0
 22 23  1  0
 23 24  2  0
 24 25  1  0
 24 26  1  0
 26 27  2  0
 19  2  1  0
 27 21  1  0
  8  3  1  0
 18 13  1  0
  4 28  1  0
  5 29  1  0
  6 30  1  0
  7 31  1  0
 11 32  1  0
 12 33  1  0
 14 34  1  0
 15 35  1  0
 16 36  1  0
 18 37  1  0
 20 38  1  0
 20 39  1  0
 22 40  1  0
 23 41  1  0
 26 42  1  0
 27 43  1  0
M  END
>  <meeko>  (3) 
{"free_energy": -7.36, "intermolecular_energy": -8.85, "internal_energy": -1.37, "cluster_size": 3, "cluster_id": 4, "rank_in_cluster": 3}

$$$$

     RDKit          3D

 43 46  0  0  0  0  0  0  0  0999 V2000
  140.2470   72.0760  224.8570 O   0  0  0  0  0  0  0  0  0  0  0  0
  139.6760   70.9480  224.8670 C   0  0  0  0  0  0  0  0  0  0  0  0
  139.9670   70.0370  225.8980 C   0  0  0  0  0  0  0  0  0  0  0  0
  140.8940   70.3240  226.9200 C   0  0  0  0  0  0  0  0  0  0  0  0
  141.1590   69.3770  227.9110 C   0  0  0  0  0  0  0  0  0  0  0  0
  140.5020   68.1440  227.8980 C   0  0  0  0  0  0  0  0  0  0  0  0
  139.5730   67.8550  226.8950 C   0  0  0  0  0  0  0  0  0  0  0  0
  139.3050   68.7970  225.8970 C   0  0  0  0  0  0  0  0  0  0  0  0
  138.4110   68.5140  224.9240 N   0  0  0  0  0  0  0  0  0  0  0  0
  138.1430   69.3920  223.9250 C   0  0  0  0  0  0  0  0  0  0  0  0
  137.1630   68.9940  222.9000 C   0  0  0  0  0  0  0  0  0  0  0  0
  135.9030   68.7240  223.2210 C   0  0  0  0  0  0  0  0  0  0  0  0
  135.2220   69.3280  224.3820 C   0  0  0  0  0  0  0  0  0  0  0  0
  135.2460   70.7210  224.5480 C   0  0  0  0  0  0  0  0  0  0  0  0
  134.6120   71.3000  225.6450 C   0  0  0  0  0  0  0  0  0  0  0  0
  133.9900   70.4820  226.5860 C   0  0  0  0  0  0  0  0  0  0  0  0
  133.9760   69.1310  226.4190 N   0  0  0  0  0  0  0  0  0  0  0  0
  134.5710   68.5450  225.3470 C   0  0  0  0  0  0  0  0  0  0  0  0
  138.7770   70.6160  223.8800 N   0  0  0  0  0  0  0  0  0  0  0  0
  138.4650   71.5820  222.7990 C   0  0  0  0  0  0  0  0  0  0  0  0
  139.7260   72.0930  222.1420 C   0  0  0  0  0  0  0  0  0  0  0  0
  140.6880   71.1900  221.6590 C   0  0  0  0  0  0  0  0  0  0  0  0
  141.8660   71.6670  221.0720 C   0  0  0  0  0  0  0  0  0  0  0  0
  142.0820   73.0410  220.9420 C   0  0  0  0  0  0  0  0  0  0  0  0
  143.5620   73.6250  220.2180 Cl  0  0  0  0  0  0  0  0  0  0  0  0
  141.1230   73.9450  221.4110 C   0  0  0  0  0  0  0  0  0  0  0  0
  139.9420   73.4750  221.9900 C   0  0  0  0  0  0  0  0  0  0  0  0
  141.4095   71.2956  226.9369 H   0  0  0  0  0  0  0  0  0  0  0  0
  141.8870   69.6022  228.7042 H   0  0  0  0  0  0  0  0  0  0  0  0
  140.7165   67.3994  228.6787 H   0  0  0  0  0  0  0  0  0  0  0  0
  139.0523   66.8861  226.8905 H   0  0  0  0  0  0  0  0  0  0  0  0
  137.4806   68.9191  221.8495 H   0  0  0  0  0  0  0  0  0  0  0  0
  135.3412   68.0175  222.5923 H   0  0  0  0  0  0  0  0  0  0  0  0
  135.7644   71.3547  223.8134 H   0  0  0  0  0  0  0  0  0  0  0  0
  134.6025   72.3931  225.7673 H   0  0  0  0  0  0  0  0  0  0  0  0
  133.5082   70.9298  227.4677 H   0  0  0  0  0  0  0  0  0  0  0  0
  134.5420   67.4511  225.2353 H   0  0  0  0  0  0  0  0  0  0  0  0
  137.8423   71.0838  222.0414 H   0  0  0  0  0  0  0  0  0  0  0  0
  137.9307   72.4368  223.2393 H   0  0  0  0  0  0  0  0  0  0  0  0
  140.5153   70.1068  221.7422 H   0  0  0  0  0  0  0  0  0  0  0  0
  142.6248   70.9568  220.7116 H   0  0  0  0  0  0  0  0  0  0  0  0
  141.2992   75.0273  221.3237 H   0  0  0  0  0  0  0  0  0  0  0  0
  139.1769   74.1889  222.3289 H   0  0  0  0  0  0  0  0  0  0  0  0
  1  2  2  0
  2  3  1  0
  3  4  2  0
  4  5  1  0
  5  6  2  0
  6  7  1  0
  7  8  2  0
  8  9  1  0
  9 10  2  0
 10 11  1  0
 11 12  2  0
 12 13  1  0
 13 14  2  0
 14 15  1  0
 15 16  2  0
 16 17  1  0
 17 18  2  0
 10 19  1  0
 19 20  1  0
 20 21  1  0
 21 22  2  0
 22 23  1  0
 23 24  2  0
 24 25  1  0
 24 26  1  0
 26 27  2  0
 19  2  1  0
 27 21  1  0
  8  3  1  0
 18 13  1  0
  4 28  1  0
  5 29  1  0
  6 30  1  0
  7 31  1  0
 11 32  1  0
 12 33  1  0
 14 34  1  0
 15 35  1  0
 16 36  1  0
 18 37  1  0
 20 38  1  0
 20 39  1  0
 22 40  1  0
 23 41  1  0
 26 42  1  0
 27 43  1  0
M  END
>  <meeko>  (4) 
{"free_energy": -7.24, "intermolecular_energy": -8.73, "internal_energy": -1.39, "cluster_size": 4, "cluster_id": 5, "rank_in_cluster": 2}

$$$$

     RDKit          3D

 43 46  0  0  0  0  0  0  0  0999 V2000
  138.9010   74.0060  222.3370 O   0  0  0  0  0  0  0  0  0  0  0  0
  139.9240   73.9610  221.5960 C   0  0  0  0  0  0  0  0  0  0  0  0
  140.5970   75.1540  221.2790 C   0  0  0  0  0  0  0  0  0  0  0  0
  140.1620   76.4130  221.7400 C   0  0  0  0  0  0  0  0  0  0  0  0
  140.8580   77.5690  221.3830 C   0  0  0  0  0  0  0  0  0  0  0  0
  141.9920   77.4830  220.5700 C   0  0  0  0  0  0  0  0  0  0  0  0
  142.4370   76.2380  220.1170 C   0  0  0  0  0  0  0  0  0  0  0  0
  141.7430   75.0770  220.4690 C   0  0  0  0  0  0  0  0  0  0  0  0
  142.1710   73.8740  220.0250 N   0  0  0  0  0  0  0  0  0  0  0  0
  141.5110   72.7270  220.3240 C   0  0  0  0  0  0  0  0  0  0  0  0
  142.0430   71.4640  219.7870 C   0  0  0  0  0  0  0  0  0  0  0  0
  143.2740   71.0580  220.0740 C   0  0  0  0  0  0  0  0  0  0  0  0
  144.4430   71.9570  220.0500 C   0  0  0  0  0  0  0  0  0  0  0  0
  144.8030   72.6520  221.2150 C   0  0  0  0  0  0  0  0  0  0  0  0
  145.9010   73.5090  221.2000 C   0  0  0  0  0  0  0  0  0  0  0  0
  146.6090   73.6920  220.0140 C   0  0  0  0  0  0  0  0  0  0  0  0
  146.2500   73.0180  218.8880 N   0  0  0  0  0  0  0  0  0  0  0  0
  145.1950   72.1610  218.8830 C   0  0  0  0  0  0  0  0  0  0  0  0
  140.3760   72.7570  221.1060 N   0  0  0  0  0  0  0  0  0  0  0  0
  139.6690   71.5000  221.4500 C   0  0  0  0  0  0  0  0  0  0  0  0
  139.8110   71.1780  222.9200 C   0  0  0  0  0  0  0  0  0  0  0  0
  139.0650   70.1330  223.4910 C   0  0  0  0  0  0  0  0  0  0  0  0
  139.1810   69.8520  224.8570 C   0  0  0  0  0  0  0  0  0  0  0  0
  140.0550   70.5930  225.6560 C   0  0  0  0  0  0  0  0  0  0  0  0
  140.1830   70.2420  227.3640 Cl  0  0  0  0  0  0  0  0  0  0  0  0
  140.8090   71.6270  225.0920 C   0  0  0  0  0  0  0  0  0  0  0  0
  140.7030   71.9070  223.7270 C   0  0  0  0  0  0  0  0  0  0  0  0
  139.2721   76.4846  222.3825 H   0  0  0  0  0  0  0  0  0  0  0  0
  140.5134   78.5499  221.7422 H   0  0  0  0  0  0  0  0  0  0  0  0
  142.5349   78.3967  220.2864 H   0  0  0  0  0  0  0  0  0  0  0  0
  143.3337   76.1718  219.4833 H   0  0  0  0  0  0  0  0  0  0  0  0
  141.4087   70.8449  219.1356 H   0  0  0  0  0  0  0  0  0  0  0  0
  143.4292   70.0025  220.3420 H   0  0  0  0  0  0  0  0  0  0  0  0
  144.2193   72.5202  222.1380 H   0  0  0  0  0  0  0  0  0  0  0  0
  146.2063   74.0363  222.1158 H   0  0  0  0  0  0  0  0  0  0  0  0
  147.4628   74.3851  219.9879 H   0  0  0  0  0  0  0  0  0  0  0  0
  144.9295   71.6249  217.9599 H   0  0  0  0  0  0  0  0  0  0  0  0
  138.6016   71.6110  221.2084 H   0  0  0  0  0  0  0  0  0  0  0  0
  140.1148   70.6793  220.8689 H   0  0  0  0  0  0  0  0  0  0  0  0
  138.3885   69.5347  222.8630 H   0  0  0  0  0  0  0  0  0  0  0  0
  138.5818   69.0446  225.3032 H   0  0  0  0  0  0  0  0  0  0  0  0
  141.4863   72.2206  225.7236 H   0  0  0  0  0  0  0  0  0  0  0  0
  141.3201   72.7013  223.2816 H   0  0  0  0  0  0  0  0  0  0  0  0
  1  2  2  0
  2  3  1  0
  3  4  2  0
  4  5  1  0
  5  6  2  0
  6  7  1  0
  7  8  2  0
  8  9  1  0
  9 10  2  0
 10 11  1  0
 11 12  2  0
 12 13  1  0
 13 14  2  0
 14 15  1  0
 15 16  2  0
 16 17  1  0
 17 18  2  0
 10 19  1  0
 19 20  1  0
 20 21  1  0
 21 22  2  0
 22 23  1  0
 23 24  2  0
 24 25  1  0
 24 26  1  0
 26 27  2  0
 19  2  1  0
 27 21  1  0
  8  3  1  0
 18 13  1  0
  4 28  1  0
  5 29  1  0
  6 30  1  0
  7 31  1  0
 11 32  1  0
 12 33  1  0
 14 34  1  0
 15 35  1  0
 16 36  1  0
 18 37  1  0
 20 38  1  0
 20 39  1  0
 22 40  1  0
 23 41  1  0
 26 42  1  0
 27 43  1  0
M  END
>  <meeko>  (5) 
{"free_energy": -7.39, "intermolecular_energy": -8.88, "internal_energy": -1.43, "cluster_size": 5, "cluster_id": 1, "rank_in_cluster": 5}

$$$$

     RDKit          3D

 43 46  0  0  0  0  0  0  0  0999 V2000
  140.0900   72.0110  224.8710 O   0  0  0  0  0  0  0  0  0  0  0  0
  139.5780   70.8560  224.8880 C   0  0  0  0  0  0  0  0  0  0  0  0
  139.8980   69.9750  225.9370 C   0  0  0  0  0  0  0  0  0  0  0  0
  140.7920   70.3240  226.9700 C   0  0  0  0  0  0  0  0  0  0  0  0
  141.0880   69.4070  227.9790 C   0  0  0  0  0  0  0  0  0  0  0  0
  140.4970   68.1400  227.9720 C   0  0  0  0  0  0  0  0  0  0  0  0
  139.6010   67.7900  226.9590 C   0  0  0  0  0  0  0  0  0  0  0  0
  139.3020   68.7030  225.9430 C   0  0  0  0  0  0  0  0  0  0  0  0
  138.4410   68.3600  224.9590 N   0  0  0  0  0  0  0  0  0  0  0  0
  138.1450   69.2090  223.9430 C   0  0  0  0  0  0  0  0  0  0  0  0
  137.2050   68.7460  222.9080 C   0  0  0  0  0  0  0  0  0  0  0  0
  135.8960   68.7230  223.1290 C   0  0  0  0  0  0  0  0  0  0  0  0
  135.2640   69.3730  224.2930 C   0  0  0  0  0  0  0  0  0  0  0  0
  135.2390   70.7740  224.3710 C   0  0  0  0  0  0  0  0  0  0  0  0
  134.6520   71.3970  225.4690 C   0  0  0  0  0  0  0  0  0  0  0  0
  134.1270   70.6170  226.4980 C   0  0  0  0  0  0  0  0  0  0  0  0
  134.1610   69.2590  226.4160 N   0  0  0  0  0  0  0  0  0  0  0  0
  134.7110   68.6290  225.3450 C   0  0  0  0  0  0  0  0  0  0  0  0
  138.7150   70.4630  223.8910 N   0  0  0  0  0  0  0  0  0  0  0  0
  138.3720   71.3970  222.7910 C   0  0  0  0  0  0  0  0  0  0  0  0
  139.6130   72.0130  222.1900 C   0  0  0  0  0  0  0  0  0  0  0  0
  140.6590   71.1950  221.7310 C   0  0  0  0  0  0  0  0  0  0  0  0
  141.8180   71.7700  221.1960 C   0  0  0  0  0  0  0  0  0  0  0  0
  141.9330   73.1580  221.0960 C   0  0  0  0  0  0  0  0  0  0  0  0
  143.3900   73.8660  220.4380 Cl  0  0  0  0  0  0  0  0  0  0  0  0
  140.8920   73.9790  221.5410 C   0  0  0  0  0  0  0  0  0  0  0  0
  139.7290   73.4100  222.0680 C   0  0  0  0  0  0  0  0  0  0  0  0
  141.2569   71.3209  226.9804 H   0  0  0  0  0  0  0  0  0  0  0  0
  141.7880   69.6815  228.7819 H   0  0  0  0  0  0  0  0  0  0  0  0
  140.7380   67.4174  228.7656 H   0  0  0  0  0  0  0  0  0  0  0  0
  139.1305   66.7957  226.9606 H   0  0  0  0  0  0  0  0  0  0  0  0
  137.5944   68.4133  221.9345 H   0  0  0  0  0  0  0  0  0  0  0  0
  135.2524   68.1944  222.4104 H   0  0  0  0  0  0  0  0  0  0  0  0
  135.6823   71.3787  223.5662 H   0  0  0  0  0  0  0  0  0  0  0  0
  134.6030   72.4945  225.5239 H   0  0  0  0  0  0  0  0  0  0  0  0
  133.6832   71.1013  227.3803 H   0  0  0  0  0  0  0  0  0  0  0  0
  134.7225   67.5299  225.3031 H   0  0  0  0  0  0  0  0  0  0  0  0
  137.8300   70.8459  222.0084 H   0  0  0  0  0  0  0  0  0  0  0  0
  137.7468   72.2036  223.2015 H   0  0  0  0  0  0  0  0  0  0  0  0
  140.5671   70.1005  221.7921 H   0  0  0  0  0  0  0  0  0  0  0  0
  142.6411   71.1259  220.8531 H   0  0  0  0  0  0  0  0  0  0  0  0
  140.9884   75.0729  221.4763 H   0  0  0  0  0  0  0  0  0  0  0  0
  138.9000   74.0579  222.3890 H   0  0  0  0  0  0  0  0  0  0  0  0
  1  2  2  0
  2  3  1  0
  3  4  2  0
  4  5  1  0
  5  6  2  0
  6  7  1  0
  7  8  2  0
  8  9  1  0
  9 10  2  0
 10 11  1  0
 11 12  2  0
 12 13  1  0
 13 14  2  0
 14 15  1  0
 15 16  2  0
 16 17  1  0
 17 18  2  0
 10 19  1  0
 19 20  1  0
 20 21  1  0
 21 22  2  0
 22 23  1  0
 23 24  2  0
 24 25  1  0
 24 26  1  0
 26 27  2  0
 19  2  1  0
 27 21  1  0
  8  3  1  0
 18 13  1  0
  4 28  1  0
  5 29  1  0
  6 30  1  0
  7 31  1  0
 11 32  1  0
 12 33  1  0
 14 34  1  0
 15 35  1  0
 16 36  1  0
 18 37  1  0
 20 38  1  0
 20 39  1  0
 22 40  1  0
 23 41  1  0
 26 42  1  0
 27 43  1  0
M  END
>  <meeko>  (6) 
{"free_energy": -7.16, "intermolecular_energy": -8.66, "internal_energy": -1.44, "cluster_size": 4, "cluster_id": 5, "rank_in_cluster": 4}

$$$$

     RDKit          3D

 43 46  0  0  0  0  0  0  0  0999 V2000
  138.9810   74.0230  222.3460 O   0  0  0  0  0  0  0  0  0  0  0  0
  140.0090   73.9130  221.6190 C   0  0  0  0  0  0  0  0  0  0  0  0
  140.7250   75.0690  221.2580 C   0  0  0  0  0  0  0  0  0  0  0  0
  140.3270   76.3600  221.6620 C   0  0  0  0  0  0  0  0  0  0  0  0
  141.0640   77.4770  221.2630 C   0  0  0  0  0  0  0  0  0  0  0  0
  142.2020   77.3190  220.4660 C   0  0  0  0  0  0  0  0  0  0  0  0
  142.6100   76.0420  220.0710 C   0  0  0  0  0  0  0  0  0  0  0  0
  141.8750   74.9200  220.4650 C   0  0  0  0  0  0  0  0  0  0  0  0
  142.2670   73.6860  220.0770 N   0  0  0  0  0  0  0  0  0  0  0  0
  141.5660   72.5750  220.4170 C   0  0  0  0  0  0  0  0  0  0  0  0
  142.0610   71.2730  219.9400 C   0  0  0  0  0  0  0  0  0  0  0  0
  143.3330   70.9230  220.0900 C   0  0  0  0  0  0  0  0  0  0  0  0
  144.4420   71.8950  220.0700 C   0  0  0  0  0  0  0  0  0  0  0  0
  144.7310   72.6360  221.2270 C   0  0  0  0  0  0  0  0  0  0  0  0
  145.7710   73.5610  221.2160 C   0  0  0  0  0  0  0  0  0  0  0  0
  146.4920   73.7670  220.0410 C   0  0  0  0  0  0  0  0  0  0  0  0
  146.2020   73.0480  218.9230 N   0  0  0  0  0  0  0  0  0  0  0  0
  145.2040   72.1250  218.9150 C   0  0  0  0  0  0  0  0  0  0  0  0
  140.4260   72.6760  221.1850 N   0  0  0  0  0  0  0  0  0  0  0  0
  139.6740   71.4580  221.5740 C   0  0  0  0  0  0  0  0  0  0  0  0
  139.8120   71.1800  223.0530 C   0  0  0  0  0  0  0  0  0  0  0  0
  140.7410   71.8980  223.8250 C   0  0  0  0  0  0  0  0  0  0  0  0
  140.8830   71.6210  225.1900 C   0  0  0  0  0  0  0  0  0  0  0  0
  140.0870   70.6460  225.7970 C   0  0  0  0  0  0  0  0  0  0  0  0
  140.2810   70.3010  227.5000 Cl  0  0  0  0  0  0  0  0  0  0  0  0
  139.1530   69.9360  225.0370 C   0  0  0  0  0  0  0  0  0  0  0  0
  139.0020   70.2130  223.6760 C   0  0  0  0  0  0  0  0  0  0  0  0
  139.4346   76.4874  222.2924 H   0  0  0  0  0  0  0  0  0  0  0  0
  140.7487   78.4832  221.5763 H   0  0  0  0  0  0  0  0  0  0  0  0
  142.7772   78.2015  220.1493 H   0  0  0  0  0  0  0  0  0  0  0  0
  143.5096   75.9197  219.4500 H   0  0  0  0  0  0  0  0  0  0  0  0
  141.3640   70.5772  219.4502 H   0  0  0  0  0  0  0  0  0  0  0  0
  143.5706   69.8589  220.2359 H   0  0  0  0  0  0  0  0  0  0  0  0
  144.1367   72.4858  222.1404 H   0  0  0  0  0  0  0  0  0  0  0  0
  146.0218   74.1246  222.1267 H   0  0  0  0  0  0  0  0  0  0  0  0
  147.2990   74.5141  220.0176 H   0  0  0  0  0  0  0  0  0  0  0  0
  144.9929   71.5555  217.9979 H   0  0  0  0  0  0  0  0  0  0  0  0
  138.6102   71.6009  221.3335 H   0  0  0  0  0  0  0  0  0  0  0  0
  140.0855   70.6022  221.0187 H   0  0  0  0  0  0  0  0  0  0  0  0
  141.3577   72.6790  223.3561 H   0  0  0  0  0  0  0  0  0  0  0  0
  141.6240   72.1730  225.7869 H   0  0  0  0  0  0  0  0  0  0  0  0
  138.5362   69.1583  225.5111 H   0  0  0  0  0  0  0  0  0  0  0  0
  138.2457   69.6721  223.0883 H   0  0  0  0  0  0  0  0  0  0  0  0
  1  2  2  0
  2  3  1  0
  3  4  2  0
  4  5  1  0
  5  6  2  0
  6  7  1  0
  7  8  2  0
  8  9  1  0
  9 10  2  0
 10 11  1  0
 11 12  2  0
 12 13  1  0
 13 14  2  0
 14 15  1  0
 15 16  2  0
 16 17  1  0
 17 18  2  0
 10 19  1  0
 19 20  1  0
 20 21  1  0
 21 22  2  0
 22 23  1  0
 23 24  2  0
 24 25  1  0
 24 26  1  0
 26 27  2  0
 19  2  1  0
 27 21  1  0
  8  3  1  0
 18 13  1  0
  4 28  1  0
  5 29  1  0
  6 30  1  0
  7 31  1  0
 11 32  1  0
 12 33  1  0
 14 34  1  0
 15 35  1  0
 16 36  1  0
 18 37  1  0
 20 38  1  0
 20 39  1  0
 22 40  1  0
 23 41  1  0
 26 42  1  0
 27 43  1  0
M  END
>  <meeko>  (7) 
{"free_energy": -7.56, "intermolecular_energy": -9.05, "internal_energy": -1.36, "cluster_size": 5, "cluster_id": 1, "rank_in_cluster": 3}

$$$$

     RDKit          3D

 43 46  0  0  0  0  0  0  0  0999 V2000
  141.4890   71.0140  221.1940 O   0  0  0  0  0  0  0  0  0  0  0  0
  141.7190   72.2560  221.2090 C   0  0  0  0  0  0  0  0  0  0  0  0
  142.9860   72.7280  220.8220 C   0  0  0  0  0  0  0  0  0  0  0  0
  144.0280   71.8620  220.4330 C   0  0  0  0  0  0  0  0  0  0  0  0
  145.2730   72.3810  220.0730 C   0  0  0  0  0  0  0  0  0  0  0  0
  145.4900   73.7610  220.0930 C   0  0  0  0  0  0  0  0  0  0  0  0
  144.4600   74.6290  220.4660 C   0  0  0  0  0  0  0  0  0  0  0  0
  143.2110   74.1150  220.8300 C   0  0  0  0  0  0  0  0  0  0  0  0
  142.2180   74.9550  221.1980 N   0  0  0  0  0  0  0  0  0  0  0  0
  141.0010   74.4940  221.5820 C   0  0  0  0  0  0  0  0  0  0  0  0
  139.9820   75.4810  221.9770 C   0  0  0  0  0  0  0  0  0  0  0  0
  139.9230   76.6770  221.4030 C   0  0  0  0  0  0  0  0  0  0  0  0
  140.7900   77.8020  221.8000 C   0  0  0  0  0  0  0  0  0  0  0  0
  141.0990   77.9900  223.1560 C   0  0  0  0  0  0  0  0  0  0  0  0
  141.9110   79.0540  223.5410 C   0  0  0  0  0  0  0  0  0  0  0  0
  142.3770   79.9440  222.5760 C   0  0  0  0  0  0  0  0  0  0  0  0
  142.0680   79.7570  221.2640 N   0  0  0  0  0  0  0  0  0  0  0  0
  141.2940   78.7140  220.8610 C   0  0  0  0  0  0  0  0  0  0  0  0
  140.7390   73.1400  221.5990 N   0  0  0  0  0  0  0  0  0  0  0  0
  139.4010   72.6410  221.9980 C   0  0  0  0  0  0  0  0  0  0  0  0
  139.4870   71.7690  223.2290 C   0  0  0  0  0  0  0  0  0  0  0  0
  140.5810   71.8860  224.1050 C   0  0  0  0  0  0  0  0  0  0  0  0
  140.6690   71.0610  225.2320 C   0  0  0  0  0  0  0  0  0  0  0  0
  139.6620   70.1320  225.5050 C   0  0  0  0  0  0  0  0  0  0  0  0
  139.7890   69.0980  226.9090 Cl  0  0  0  0  0  0  0  0  0  0  0  0
  138.5660   70.0180  224.6440 C   0  0  0  0  0  0  0  0  0  0  0  0
  138.4680   70.8450  223.5220 C   0  0  0  0  0  0  0  0  0  0  0  0
  143.8598   70.7751  220.4131 H   0  0  0  0  0  0  0  0  0  0  0  0
  146.0848   71.7020  219.7730 H   0  0  0  0  0  0  0  0  0  0  0  0
  146.4743   74.1655  219.8144 H   0  0  0  0  0  0  0  0  0  0  0  0
  144.6314   75.7155  220.4733 H   0  0  0  0  0  0  0  0  0  0  0  0
  139.2562   75.2227  222.7622 H   0  0  0  0  0  0  0  0  0  0  0  0
  139.1942   76.8358  220.5945 H   0  0  0  0  0  0  0  0  0  0  0  0
  140.7007   77.2985  223.9131 H   0  0  0  0  0  0  0  0  0  0  0  0
  142.1821   79.1904  224.5983 H   0  0  0  0  0  0  0  0  0  0  0  0
  142.9973   80.8015  222.8758 H   0  0  0  0  0  0  0  0  0  0  0  0
  141.0621   78.5849  219.7935 H   0  0  0  0  0  0  0  0  0  0  0  0
  138.7471   73.4994  222.2115 H   0  0  0  0  0  0  0  0  0  0  0  0
  138.9939   72.0386  221.1726 H   0  0  0  0  0  0  0  0  0  0  0  0
  141.3687   72.6271  223.9040 H   0  0  0  0  0  0  0  0  0  0  0  0
  141.5346   71.1444  225.9056 H   0  0  0  0  0  0  0  0  0  0  0  0
  137.7801   69.2764  224.8502 H   0  0  0  0  0  0  0  0  0  0  0  0
  137.5892   70.7730  222.8644 H   0  0  0  0  0  0  0  0  0  0  0  0
  1  2  2  0
  2  3  1  0
  3  4  2  0
  4  5  1  0
  5  6  2  0
  6  7  1  0
  7  8  2  0
  8  9  1  0
  9 10  2  0
 10 11  1  0
 11 12  2  0
 12 13  1  0
 13 14  2  0
 14 15  1  0
 15 16  2  0
 16 17  1  0
 17 18  2  0
 10 19  1  0
 19 20  1  0
 20 21  1  0
 21 22  2  0
 22 23  1  0
 23 24  2  0
 24 25  1  0
 24 26  1  0
 26 27  2  0
 19  2  1  0
 27 21  1  0
  8  3  1  0
 18 13  1  0
  4 28  1  0
  5 29  1  0
  6 30  1  0
  7 31  1  0
 11 32  1  0
 12 33  1  0
 14 34  1  0
 15 35  1  0
 16 36  1  0
 18 37  1  0
 20 38  1  0
 20 39  1  0
 22 40  1  0
 23 41  1  0
 26 42  1  0
 27 43  1  0
M  END
>  <meeko>  (8) 
{"free_energy": -7.51, "intermolecular_energy": -9.0, "internal_energy": -1.16, "cluster_size": 5, "cluster_id": 2, "rank_in_cluster": 4}

$$$$

     RDKit          3D

 43 46  0  0  0  0  0  0  0  0999 V2000
  141.4730   71.0480  221.2180 O   0  0  0  0  0  0  0  0  0  0  0  0
  141.7080   72.2890  221.2190 C   0  0  0  0  0  0  0  0  0  0  0  0
  142.9760   72.7510  220.8210 C   0  0  0  0  0  0  0  0  0  0  0  0
  144.0120   71.8760  220.4370 C   0  0  0  0  0  0  0  0  0  0  0  0
  145.2570   72.3860  220.0660 C   0  0  0  0  0  0  0  0  0  0  0  0
  145.4810   73.7660  220.0700 C   0  0  0  0  0  0  0  0  0  0  0  0
  144.4560   74.6410  220.4390 C   0  0  0  0  0  0  0  0  0  0  0  0
  143.2070   74.1380  220.8140 C   0  0  0  0  0  0  0  0  0  0  0  0
  142.2190   74.9850  221.1770 N   0  0  0  0  0  0  0  0  0  0  0  0
  141.0010   74.5330  221.5720 C   0  0  0  0  0  0  0  0  0  0  0  0
  139.9890   75.5290  221.9610 C   0  0  0  0  0  0  0  0  0  0  0  0
  139.9530   76.7310  221.3980 C   0  0  0  0  0  0  0  0  0  0  0  0
  140.8440   77.8350  221.8010 C   0  0  0  0  0  0  0  0  0  0  0  0
  141.1400   78.0200  223.1610 C   0  0  0  0  0  0  0  0  0  0  0  0
  141.9740   79.0650  223.5530 C   0  0  0  0  0  0  0  0  0  0  0  0
  142.4770   79.9370  222.5890 C   0  0  0  0  0  0  0  0  0  0  0  0
  142.1800   79.7520  221.2740 N   0  0  0  0  0  0  0  0  0  0  0  0
  141.3840   78.7290  220.8660 C   0  0  0  0  0  0  0  0  0  0  0  0
  140.7340   73.1810  221.6040 N   0  0  0  0  0  0  0  0  0  0  0  0
  139.3950   72.6920  222.0140 C   0  0  0  0  0  0  0  0  0  0  0  0
  139.4920   71.7720  223.2090 C   0  0  0  0  0  0  0  0  0  0  0  0
  140.5650   71.8890  224.1080 C   0  0  0  0  0  0  0  0  0  0  0  0
  140.6640   71.0200  225.2010 C   0  0  0  0  0  0  0  0  0  0  0  0
  139.6860   70.0450  225.4160 C   0  0  0  0  0  0  0  0  0  0  0  0
  139.8270   68.9560  226.7760 Cl  0  0  0  0  0  0  0  0  0  0  0  0
  138.6100   69.9300  224.5300 C   0  0  0  0  0  0  0  0  0  0  0  0
  138.5020   70.8000  223.4430 C   0  0  0  0  0  0  0  0  0  0  0  0
  143.8391   70.7897  220.4297 H   0  0  0  0  0  0  0  0  0  0  0  0
  146.0644   71.7002  219.7696 H   0  0  0  0  0  0  0  0  0  0  0  0
  146.4655   74.1635  219.7823 H   0  0  0  0  0  0  0  0  0  0  0  0
  144.6322   75.7268  220.4343 H   0  0  0  0  0  0  0  0  0  0  0  0
  139.2485   75.2725  222.7329 H   0  0  0  0  0  0  0  0  0  0  0  0
  139.2248   76.9118  220.5936 H   0  0  0  0  0  0  0  0  0  0  0  0
  140.7145   77.3416  223.9151 H   0  0  0  0  0  0  0  0  0  0  0  0
  142.2331   79.2006  224.6134 H   0  0  0  0  0  0  0  0  0  0  0  0
  143.1170   80.7786  222.8926 H   0  0  0  0  0  0  0  0  0  0  0  0
  141.1622   78.6017  219.7961 H   0  0  0  0  0  0  0  0  0  0  0  0
  138.7627   73.5535  222.2747 H   0  0  0  0  0  0  0  0  0  0  0  0
  138.9576   72.1297  221.1758 H   0  0  0  0  0  0  0  0  0  0  0  0
  141.3290   72.6650  223.9528 H   0  0  0  0  0  0  0  0  0  0  0  0
  141.5147   71.1048  225.8932 H   0  0  0  0  0  0  0  0  0  0  0  0
  137.8477   69.1532  224.6896 H   0  0  0  0  0  0  0  0  0  0  0  0
  137.6382   70.7250  222.7660 H   0  0  0  0  0  0  0  0  0  0  0  0
  1  2  2  0
  2  3  1  0
  3  4  2  0
  4  5  1  0
  5  6  2  0
  6  7  1  0
  7  8  2  0
  8  9  1  0
  9 10  2  0
 10 11  1  0
 11 12  2  0
 12 13  1  0
 13 14  2  0
 14 15  1  0
 15 16  2  0
 16 17  1  0
 17 18  2  0
 10 19  1  0
 19 20  1  0
 20 21  1  0
 21 22  2  0
 22 23  1  0
 23 24  2  0
 24 25  1  0
 24 26  1  0
 26 27  2  0
 19  2  1  0
 27 21  1  0
  8  3  1  0
 18 13  1  0
  4 28  1  0
  5 29  1  0
  6 30  1  0
  7 31  1  0
 11 32  1  0
 12 33  1  0
 14 34  1  0
 15 35  1  0
 16 36  1  0
 18 37  1  0
 20 38  1  0
 20 39  1  0
 22 40  1  0
 23 41  1  0
 26 42  1  0
 27 43  1  0
M  END
>  <meeko>  (9) 
{"free_energy": -7.54, "intermolecular_energy": -9.03, "internal_energy": -1.15, "cluster_size": 5, "cluster_id": 2, "rank_in_cluster": 1}

$$$$

     RDKit          3D

 43 46  0  0  0  0  0  0  0  0999 V2000
  138.1160   75.4270  221.5610 O   0  0  0  0  0  0  0  0  0  0  0  0
  139.2600   74.9160  221.3970 C   0  0  0  0  0  0  0  0  0  0  0  0
  139.4750   73.5740  221.7610 C   0  0  0  0  0  0  0  0  0  0  0  0
  138.4610   72.7740  222.3260 C   0  0  0  0  0  0  0  0  0  0  0  0
  138.7300   71.4520  222.6850 C   0  0  0  0  0  0  0  0  0  0  0  0
  140.0050   70.9150  222.4810 C   0  0  0  0  0  0  0  0  0  0  0  0
  141.0130   71.6970  221.9110 C   0  0  0  0  0  0  0  0  0  0  0  0
  140.7500   73.0230  221.5520 C   0  0  0  0  0  0  0  0  0  0  0  0
  141.7280   73.7800  221.0070 N   0  0  0  0  0  0  0  0  0  0  0  0
  141.5200   75.0780  220.6690 C   0  0  0  0  0  0  0  0  0  0  0  0
  142.6460   75.8300  220.0920 C   0  0  0  0  0  0  0  0  0  0  0  0
  143.4490   75.2820  219.1880 C   0  0  0  0  0  0  0  0  0  0  0  0
  144.4260   74.2260  219.5140 C   0  0  0  0  0  0  0  0  0  0  0  0
  144.9230   74.1280  220.8230 C   0  0  0  0  0  0  0  0  0  0  0  0
  145.8510   73.1400  221.1400 C   0  0  0  0  0  0  0  0  0  0  0  0
  146.3040   72.2800  220.1410 C   0  0  0  0  0  0  0  0  0  0  0  0
  145.8200   72.3860  218.8730 N   0  0  0  0  0  0  0  0  0  0  0  0
  144.8990   73.3300  218.5450 C   0  0  0  0  0  0  0  0  0  0  0  0
  140.2870   75.6630  220.8660 N   0  0  0  0  0  0  0  0  0  0  0  0
  140.0560   77.0740  220.4750 C   0  0  0  0  0  0  0  0  0  0  0  0
  140.7970   78.0230  221.3880 C   0  0  0  0  0  0  0  0  0  0  0  0
  140.9150   77.7390  222.7590 C   0  0  0  0  0  0  0  0  0  0  0  0
  141.5820   78.6320  223.6060 C   0  0  0  0  0  0  0  0  0  0  0  0
  142.1520   79.7990  223.0910 C   0  0  0  0  0  0  0  0  0  0  0  0
  142.9720   80.9120  224.1600 Cl  0  0  0  0  0  0  0  0  0  0  0  0
  142.0480   80.0820  221.7250 C   0  0  0  0  0  0  0  0  0  0  0  0
  141.3910   79.1900  220.8740 C   0  0  0  0  0  0  0  0  0  0  0  0
  137.4560   73.1922  222.4843 H   0  0  0  0  0  0  0  0  0  0  0  0
  137.9376   70.8316  223.1291 H   0  0  0  0  0  0  0  0  0  0  0  0
  140.2149   69.8746  222.7699 H   0  0  0  0  0  0  0  0  0  0  0  0
  142.0130   71.2699  221.7447 H   0  0  0  0  0  0  0  0  0  0  0  0
  142.8256   76.8658  220.4160 H   0  0  0  0  0  0  0  0  0  0  0  0
  143.3827   75.6317  218.1472 H   0  0  0  0  0  0  0  0  0  0  0  0
  144.5799   74.8305  221.5968 H   0  0  0  0  0  0  0  0  0  0  0  0
  146.2236   73.0389  222.1700 H   0  0  0  0  0  0  0  0  0  0  0  0
  147.0556   71.5126  220.3781 H   0  0  0  0  0  0  0  0  0  0  0  0
  144.5225   73.3914  217.5133 H   0  0  0  0  0  0  0  0  0  0  0  0
  140.4065   77.2222  219.4429 H   0  0  0  0  0  0  0  0  0  0  0  0
  138.9793   77.2851  220.5534 H   0  0  0  0  0  0  0  0  0  0  0  0
  140.4826   76.8136  223.1674 H   0  0  0  0  0  0  0  0  0  0  0  0
  141.6577   78.4140  224.6815 H   0  0  0  0  0  0  0  0  0  0  0  0
  142.4838   81.0075  221.3207 H   0  0  0  0  0  0  0  0  0  0  0  0
  141.3379   79.4014  219.7958 H   0  0  0  0  0  0  0  0  0  0  0  0
  1  2  2  0
  2  3  1  0
  3  4  2  0
  4  5  1  0
  5  6  2  0
  6  7  1  0
  7  8  2  0
  8  9  1  0
  9 10  2  0
 10 11  1  0
 11 12  2  0
 12 13  1  0
 13 14  2  0
 14 15  1  0
 15 16  2  0
 16 17  1  0
 17 18  2  0
 10 19  1  0
 19 20  1  0
 20 21  1  0
 21 22  2  0
 22 23  1  0
 23 24  2  0
 24 25  1  0
 24 26  1  0
 26 27  2  0
 19  2  1  0
 27 21  1  0
  8  3  1  0
 18 13  1  0
  4 28  1  0
  5 29  1  0
  6 30  1  0
  7 31  1  0
 11 32  1  0
 12 33  1  0
 14 34  1  0
 15 35  1  0
 16 36  1  0
 18 37  1  0
 20 38  1  0
 20 39  1  0
 22 40  1  0
 23 41  1  0
 26 42  1  0
 27 43  1  0
M  END
>  <meeko>  (10) 
{"free_energy": -7.51, "intermolecular_energy": -9.0, "internal_energy": -1.32, "cluster_size": 3, "cluster_id": 3, "rank_in_cluster": 3}

$$$$

     RDKit          3D

 43 46  0  0  0  0  0  0  0  0999 V2000
  138.1610   75.4620  221.5800 O   0  0  0  0  0  0  0  0  0  0  0  0
  139.3060   74.9540  221.4110 C   0  0  0  0  0  0  0  0  0  0  0  0
  139.5250   73.6120  221.7730 C   0  0  0  0  0  0  0  0  0  0  0  0
  138.5160   72.8090  222.3430 C   0  0  0  0  0  0  0  0  0  0  0  0
  138.7910   71.4880  222.7000 C   0  0  0  0  0  0  0  0  0  0  0  0
  140.0660   70.9550  222.4900 C   0  0  0  0  0  0  0  0  0  0  0  0
  141.0690   71.7400  221.9160 C   0  0  0  0  0  0  0  0  0  0  0  0
  140.8020   73.0650  221.5580 C   0  0  0  0  0  0  0  0  0  0  0  0
  141.7750   73.8250  221.0090 N   0  0  0  0  0  0  0  0  0  0  0  0
  141.5610   75.1220  220.6720 C   0  0  0  0  0  0  0  0  0  0  0  0
  142.6830   75.8780  220.0900 C   0  0  0  0  0  0  0  0  0  0  0  0
  143.4920   75.3270  219.1930 C   0  0  0  0  0  0  0  0  0  0  0  0
  144.4530   74.2580  219.5250 C   0  0  0  0  0  0  0  0  0  0  0  0
  144.9550   74.1650  220.8320 C   0  0  0  0  0  0  0  0  0  0  0  0
  145.8690   73.1640  221.1540 C   0  0  0  0  0  0  0  0  0  0  0  0
  146.3010   72.2870  220.1610 C   0  0  0  0  0  0  0  0  0  0  0  0
  145.8120   72.3880  218.8960 N   0  0  0  0  0  0  0  0  0  0  0  0
  144.9050   73.3440  218.5620 C   0  0  0  0  0  0  0  0  0  0  0  0
  140.3280   75.7040  220.8750 N   0  0  0  0  0  0  0  0  0  0  0  0
  140.0910   77.1150  220.4850 C   0  0  0  0  0  0  0  0  0  0  0  0
  140.8170   78.0660  221.4080 C   0  0  0  0  0  0  0  0  0  0  0  0
  140.9360   77.7720  222.7770 C   0  0  0  0  0  0  0  0  0  0  0  0
  141.5890   78.6670  223.6340 C   0  0  0  0  0  0  0  0  0  0  0  0
  142.1440   79.8450  223.1290 C   0  0  0  0  0  0  0  0  0  0  0  0
  142.9460   80.9610  224.2100 Cl  0  0  0  0  0  0  0  0  0  0  0  0
  142.0390   80.1390  221.7660 C   0  0  0  0  0  0  0  0  0  0  0  0
  141.3960   79.2460  220.9060 C   0  0  0  0  0  0  0  0  0  0  0  0
  137.5106   73.2242  222.5066 H   0  0  0  0  0  0  0  0  0  0  0  0
  138.0026   70.8650  223.1476 H   0  0  0  0  0  0  0  0  0  0  0  0
  140.2801   69.9150  222.7774 H   0  0  0  0  0  0  0  0  0  0  0  0
  142.0694   71.3155  221.7456 H   0  0  0  0  0  0  0  0  0  0  0  0
  142.8538   76.9182  220.4043 H   0  0  0  0  0  0  0  0  0  0  0  0
  143.4435   75.6842  218.1537 H   0  0  0  0  0  0  0  0  0  0  0  0
  144.6277   74.8807  221.6005 H   0  0  0  0  0  0  0  0  0  0  0  0
  146.2462   73.0669  222.1827 H   0  0  0  0  0  0  0  0  0  0  0  0
  147.0410   71.5094  220.4014 H   0  0  0  0  0  0  0  0  0  0  0  0
  144.5239   73.4010  217.5317 H   0  0  0  0  0  0  0  0  0  0  0  0
  140.4504   77.2683  219.4568 H   0  0  0  0  0  0  0  0  0  0  0  0
  139.0122   77.3188  220.5530 H   0  0  0  0  0  0  0  0  0  0  0  0
  140.5156   76.8373  223.1763 H   0  0  0  0  0  0  0  0  0  0  0  0
  141.6650   78.4414  224.7079 H   0  0  0  0  0  0  0  0  0  0  0  0
  142.4630   81.0740  221.3710 H   0  0  0  0  0  0  0  0  0  0  0  0
  141.3419   79.4665  219.8297 H   0  0  0  0  0  0  0  0  0  0  0  0
  1  2  2  0
  2  3  1  0
  3  4  2  0
  4  5  1  0
  5  6  2  0
  6  7  1  0
  7  8  2  0
  8  9  1  0
  9 10  2  0
 10 11  1  0
 11 12  2  0
 12 13  1  0
 13 14  2  0
 14 15  1  0
 15 16  2  0
 16 17  1  0
 17 18  2  0
 10 19  1  0
 19 20  1  0
 20 21  1  0
 21 22  2  0
 22 23  1  0
 23 24  2  0
 24 25  1  0
 24 26  1  0
 26 27  2  0
 19  2  1  0
 27 21  1  0
  8  3  1  0
 18 13  1  0
  4 28  1  0
  5 29  1  0
  6 30  1  0
  7 31  1  0
 11 32  1  0
 12 33  1  0
 14 34  1  0
 15 35  1  0
 16 36  1  0
 18 37  1  0
 20 38  1  0
 20 39  1  0
 22 40  1  0
 23 41  1  0
 26 42  1  0
 27 43  1  0
M  END
>  <meeko>  (11) 
{"free_energy": -7.52, "intermolecular_energy": -9.02, "internal_energy": -1.32, "cluster_size": 3, "cluster_id": 3, "rank_in_cluster": 1}

$$$$

     RDKit          3D

 43 46  0  0  0  0  0  0  0  0999 V2000
  138.1490   75.4470  221.5830 O   0  0  0  0  0  0  0  0  0  0  0  0
  139.2940   74.9420  221.4120 C   0  0  0  0  0  0  0  0  0  0  0  0
  139.5170   73.6010  221.7740 C   0  0  0  0  0  0  0  0  0  0  0  0
  138.5110   72.7950  222.3440 C   0  0  0  0  0  0  0  0  0  0  0  0
  138.7900   71.4740  222.7010 C   0  0  0  0  0  0  0  0  0  0  0  0
  140.0660   70.9440  222.4890 C   0  0  0  0  0  0  0  0  0  0  0  0
  141.0660   71.7320  221.9130 C   0  0  0  0  0  0  0  0  0  0  0  0
  140.7950   73.0560  221.5570 C   0  0  0  0  0  0  0  0  0  0  0  0
  141.7650   73.8190  221.0060 N   0  0  0  0  0  0  0  0  0  0  0  0
  141.5480   75.1160  220.6710 C   0  0  0  0  0  0  0  0  0  0  0  0
  142.6670   75.8750  220.0870 C   0  0  0  0  0  0  0  0  0  0  0  0
  143.4780   75.3260  219.1910 C   0  0  0  0  0  0  0  0  0  0  0  0
  144.4440   74.2620  219.5250 C   0  0  0  0  0  0  0  0  0  0  0  0
  144.9580   74.1830  220.8290 C   0  0  0  0  0  0  0  0  0  0  0  0
  145.8770   73.1870  221.1520 C   0  0  0  0  0  0  0  0  0  0  0  0
  146.3020   72.3010  220.1640 C   0  0  0  0  0  0  0  0  0  0  0  0
  145.8020   72.3890  218.9020 N   0  0  0  0  0  0  0  0  0  0  0  0
  144.8900   73.3400  218.5670 C   0  0  0  0  0  0  0  0  0  0  0  0
  140.3130   75.6940  220.8760 N   0  0  0  0  0  0  0  0  0  0  0  0
  140.0730   77.1050  220.4870 C   0  0  0  0  0  0  0  0  0  0  0  0
  140.8010   78.0570  221.4060 C   0  0  0  0  0  0  0  0  0  0  0  0
  140.9200   77.7680  222.7760 C   0  0  0  0  0  0  0  0  0  0  0  0
  141.5750   78.6640  223.6290 C   0  0  0  0  0  0  0  0  0  0  0  0
  142.1340   79.8390  223.1200 C   0  0  0  0  0  0  0  0  0  0  0  0
  142.9400   80.9570  224.1970 Cl  0  0  0  0  0  0  0  0  0  0  0  0
  142.0300   80.1280  221.7560 C   0  0  0  0  0  0  0  0  0  0  0  0
  141.3840   79.2340  220.8990 C   0  0  0  0  0  0  0  0  0  0  0  0
  137.5044   73.2072  222.5079 H   0  0  0  0  0  0  0  0  0  0  0  0
  138.0039   70.8492  223.1500 H   0  0  0  0  0  0  0  0  0  0  0  0
  140.2833   69.9046  222.7761 H   0  0  0  0  0  0  0  0  0  0  0  0
  142.0669   71.3100  221.7397 H   0  0  0  0  0  0  0  0  0  0  0  0
  142.8338   76.9165  220.3993 H   0  0  0  0  0  0  0  0  0  0  0  0
  143.4275   75.6808  218.1510 H   0  0  0  0  0  0  0  0  0  0  0  0
  144.6360   74.9054  221.5935 H   0  0  0  0  0  0  0  0  0  0  0  0
  146.2638   73.1007  222.1781 H   0  0  0  0  0  0  0  0  0  0  0  0
  147.0452   71.5269  220.4057 H   0  0  0  0  0  0  0  0  0  0  0  0
  144.5000   73.3865  217.5395 H   0  0  0  0  0  0  0  0  0  0  0  0
  140.4281   77.2585  219.4573 H   0  0  0  0  0  0  0  0  0  0  0  0
  138.9942   77.3074  220.5599 H   0  0  0  0  0  0  0  0  0  0  0  0
  140.4976   76.8357  223.1790 H   0  0  0  0  0  0  0  0  0  0  0  0
  141.6499   78.4423  224.7038 H   0  0  0  0  0  0  0  0  0  0  0  0
  142.4572   81.0600  221.3575 H   0  0  0  0  0  0  0  0  0  0  0  0
  141.3305   79.4508  219.8219 H   0  0  0  0  0  0  0  0  0  0  0  0
  1  2  2  0
  2  3  1  0
  3  4  2  0
  4  5  1  0
  5  6  2  0
  6  7  1  0
  7  8  2  0
  8  9  1  0
  9 10  2  0
 10 11  1  0
 11 12  2  0
 12 13  1  0
 13 14  2  0
 14 15  1  0
 15 16  2  0
 16 17  1  0
 17 18  2  0
 10 19  1  0
 19 20  1  0
 20 21  1  0
 21 22  2  0
 22 23  1  0
 23 24  2  0
 24 25  1  0
 24 26  1  0
 26 27  2  0
 19  2  1  0
 27 21  1  0
  8  3  1  0
 18 13  1  0
  4 28  1  0
  5 29  1  0
  6 30  1  0
  7 31  1  0
 11 32  1  0
 12 33  1  0
 14 34  1  0
 15 35  1  0
 16 36  1  0
 18 37  1  0
 20 38  1  0
 20 39  1  0
 22 40  1  0
 23 41  1  0
 26 42  1  0
 27 43  1  0
M  END
>  <meeko>  (12) 
{"free_energy": -7.52, "intermolecular_energy": -9.01, "internal_energy": -1.32, "cluster_size": 3, "cluster_id": 3, "rank_in_cluster": 2}

$$$$

     RDKit          3D

 43 46  0  0  0  0  0  0  0  0999 V2000
  140.8620   73.7510  221.9550 O   0  0  0  0  0  0  0  0  0  0  0  0
  139.6990   74.2230  222.1020 C   0  0  0  0  0  0  0  0  0  0  0  0
  139.5220   75.6170  222.1570 C   0  0  0  0  0  0  0  0  0  0  0  0
  140.6020   76.5200  222.0740 C   0  0  0  0  0  0  0  0  0  0  0  0
  140.3730   77.8940  222.1500 C   0  0  0  0  0  0  0  0  0  0  0  0
  139.0720   78.3830  222.3030 C   0  0  0  0  0  0  0  0  0  0  0  0
  137.9940   77.4960  222.3740 C   0  0  0  0  0  0  0  0  0  0  0  0
  138.2160   76.1180  222.3020 C   0  0  0  0  0  0  0  0  0  0  0  0
  137.1740   75.2610  222.3780 N   0  0  0  0  0  0  0  0  0  0  0  0
  137.3510   73.9170  222.3370 C   0  0  0  0  0  0  0  0  0  0  0  0
  136.1580   73.0590  222.4380 C   0  0  0  0  0  0  0  0  0  0  0  0
  135.7100   72.6390  223.6150 C   0  0  0  0  0  0  0  0  0  0  0  0
  135.0470   73.5280  224.5880 C   0  0  0  0  0  0  0  0  0  0  0  0
  135.2940   74.9090  224.5390 C   0  0  0  0  0  0  0  0  0  0  0  0
  134.6790   75.7560  225.4580 C   0  0  0  0  0  0  0  0  0  0  0  0
  133.8500   75.2150  226.4390 C   0  0  0  0  0  0  0  0  0  0  0  0
  133.6210   73.8740  226.4810 N   0  0  0  0  0  0  0  0  0  0  0  0
  134.1950   73.0300  225.5840 C   0  0  0  0  0  0  0  0  0  0  0  0
  138.6150   73.3810  222.2050 N   0  0  0  0  0  0  0  0  0  0  0  0
  138.8030   71.9120  222.1380 C   0  0  0  0  0  0  0  0  0  0  0  0
  139.1830   71.3470  223.4870 C   0  0  0  0  0  0  0  0  0  0  0  0
  140.3250   71.8190  224.1560 C   0  0  0  0  0  0  0  0  0  0  0  0
  140.6870   71.2770  225.3960 C   0  0  0  0  0  0  0  0  0  0  0  0
  139.9040   70.2810  225.9840 C   0  0  0  0  0  0  0  0  0  0  0  0
  140.3720   69.6020  227.5250 Cl  0  0  0  0  0  0  0  0  0  0  0  0
  138.7600   69.8150  225.3280 C   0  0  0  0  0  0  0  0  0  0  0  0
  138.3890   70.3570  224.0950 C   0  0  0  0  0  0  0  0  0  0  0  0
  141.6268   76.1403  221.9491 H   0  0  0  0  0  0  0  0  0  0  0  0
  141.2186   78.5949  222.0894 H   0  0  0  0  0  0  0  0  0  0  0  0
  138.8966   79.4670  222.3676 H   0  0  0  0  0  0  0  0  0  0  0  0
  136.9704   77.8827  222.4866 H   0  0  0  0  0  0  0  0  0  0  0  0
  135.6285   72.7607  221.5212 H   0  0  0  0  0  0  0  0  0  0  0  0
  135.8392   71.5785  223.8771 H   0  0  0  0  0  0  0  0  0  0  0  0
  135.9716   75.3212  223.7768 H   0  0  0  0  0  0  0  0  0  0  0  0
  134.8461   76.8422  225.4099 H   0  0  0  0  0  0  0  0  0  0  0  0
  133.3787   75.8746  227.1825 H   0  0  0  0  0  0  0  0  0  0  0  0
  133.9902   71.9507  225.6395 H   0  0  0  0  0  0  0  0  0  0  0  0
  137.8643   71.4451  221.8051 H   0  0  0  0  0  0  0  0  0  0  0  0
  139.6162   71.6972  221.4291 H   0  0  0  0  0  0  0  0  0  0  0  0
  140.9356   72.6153  223.7054 H   0  0  0  0  0  0  0  0  0  0  0  0
  141.5912   71.6371  225.9085 H   0  0  0  0  0  0  0  0  0  0  0  0
  138.1512   69.0202  225.7838 H   0  0  0  0  0  0  0  0  0  0  0  0
  137.4721   70.0083  223.5972 H   0  0  0  0  0  0  0  0  0  0  0  0
  1  2  2  0
  2  3  1  0
  3  4  2  0
  4  5  1  0
  5  6  2  0
  6  7  1  0
  7  8  2  0
  8  9  1  0
  9 10  2  0
 10 11  1  0
 11 12  2  0
 12 13  1  0
 13 14  2  0
 14 15  1  0
 15 16  2  0
 16 17  1  0
 17 18  2  0
 10 19  1  0
 19 20  1  0
 20 21  1  0
 21 22  2  0
 22 23  1  0
 23 24  2  0
 24 25  1  0
 24 26  1  0
 26 27  2  0
 19  2  1  0
 27 21  1  0
  8  3  1  0
 18 13  1  0
  4 28  1  0
  5 29  1  0
  6 30  1  0
  7 31  1  0
 11 32  1  0
 12 33  1  0
 14 34  1  0
 15 35  1  0
 16 36  1  0
 18 37  1  0
 20 38  1  0
 20 39  1  0
 22 40  1  0
 23 41  1  0
 26 42  1  0
 27 43  1  0
M  END
>  <meeko>  (13) 
{"free_energy": -7.39, "intermolecular_energy": -8.88, "internal_energy": -1.34, "cluster_size": 3, "cluster_id": 4, "rank_in_cluster": 1}

$$$$

     RDKit          3D

 43 46  0  0  0  0  0  0  0  0999 V2000
  137.9120   73.5000  222.3450 O   0  0  0  0  0  0  0  0  0  0  0  0
  139.1050   73.6720  221.9630 C   0  0  0  0  0  0  0  0  0  0  0  0
  139.5780   74.9790  221.7490 C   0  0  0  0  0  0  0  0  0  0  0  0
  138.7630   76.1160  221.9250 C   0  0  0  0  0  0  0  0  0  0  0  0
  139.2770   77.3910  221.6830 C   0  0  0  0  0  0  0  0  0  0  0  0
  140.6040   77.5460  221.2720 C   0  0  0  0  0  0  0  0  0  0  0  0
  141.4230   76.4260  221.1060 C   0  0  0  0  0  0  0  0  0  0  0  0
  140.9130   75.1460  221.3440 C   0  0  0  0  0  0  0  0  0  0  0  0
  141.7040   74.0630  221.1770 N   0  0  0  0  0  0  0  0  0  0  0  0
  141.2390   72.8030  221.3730 C   0  0  0  0  0  0  0  0  0  0  0  0
  142.1690   71.6830  221.1570 C   0  0  0  0  0  0  0  0  0  0  0  0
  142.9880   71.6590  220.1110 C   0  0  0  0  0  0  0  0  0  0  0  0
  144.2820   72.3670  220.0870 C   0  0  0  0  0  0  0  0  0  0  0  0
  144.6960   73.0850  221.2190 C   0  0  0  0  0  0  0  0  0  0  0  0
  145.9130   73.7630  221.2040 C   0  0  0  0  0  0  0  0  0  0  0  0
  146.6900   73.7480  220.0470 C   0  0  0  0  0  0  0  0  0  0  0  0
  146.2780   73.0530  218.9520 N   0  0  0  0  0  0  0  0  0  0  0  0
  145.1040   72.3680  218.9500 C   0  0  0  0  0  0  0  0  0  0  0  0
  139.9330   72.5920  221.7610 N   0  0  0  0  0  0  0  0  0  0  0  0
  139.4350   71.2160  221.9970 C   0  0  0  0  0  0  0  0  0  0  0  0
  139.6660   70.7880  223.4270 C   0  0  0  0  0  0  0  0  0  0  0  0
  140.4390   71.5850  224.2890 C   0  0  0  0  0  0  0  0  0  0  0  0
  140.6700   71.1730  225.6070 C   0  0  0  0  0  0  0  0  0  0  0  0
  140.1180   69.9800  226.0790 C   0  0  0  0  0  0  0  0  0  0  0  0
  140.4240   69.4700  227.7230 Cl  0  0  0  0  0  0  0  0  0  0  0  0
  139.3390   69.1880  225.2300 C   0  0  0  0  0  0  0  0  0  0  0  0
  139.0980   69.5970  223.9160 C   0  0  0  0  0  0  0  0  0  0  0  0
  137.7199   75.9980  222.2537 H   0  0  0  0  0  0  0  0  0  0  0  0
  138.6366   78.2754  221.8160 H   0  0  0  0  0  0  0  0  0  0  0  0
  141.0046   78.5521  221.0788 H   0  0  0  0  0  0  0  0  0  0  0  0
  142.4686   76.5513  220.7882 H   0  0  0  0  0  0  0  0  0  0  0  0
  142.1864   70.8499  221.8751 H   0  0  0  0  0  0  0  0  0  0  0  0
  142.6874   71.0849  219.2222 H   0  0  0  0  0  0  0  0  0  0  0  0
  144.0609   73.1126  222.1167 H   0  0  0  0  0  0  0  0  0  0  0  0
  146.2574   74.3051  222.0970 H   0  0  0  0  0  0  0  0  0  0  0  0
  147.6407   74.3006  220.0189 H   0  0  0  0  0  0  0  0  0  0  0  0
  144.7968   71.8115  218.0523 H   0  0  0  0  0  0  0  0  0  0  0  0
  138.3566   71.1833  221.7826 H   0  0  0  0  0  0  0  0  0  0  0  0
  139.9836   70.5293  221.3355 H   0  0  0  0  0  0  0  0  0  0  0  0
  140.8629   72.5335  223.9276 H   0  0  0  0  0  0  0  0  0  0  0  0
  141.2889   71.7915  226.2736 H   0  0  0  0  0  0  0  0  0  0  0  0
  138.9153   68.2416  225.5971 H   0  0  0  0  0  0  0  0  0  0  0  0
  138.4611   68.9850  223.2604 H   0  0  0  0  0  0  0  0  0  0  0  0
  1  2  2  0
  2  3  1  0
  3  4  2  0
  4  5  1  0
  5  6  2  0
  6  7  1  0
  7  8  2  0
  8  9  1  0
  9 10  2  0
 10 11  1  0
 11 12  2  0
 12 13  1  0
 13 14  2  0
 14 15  1  0
 15 16  2  0
 16 17  1  0
 17 18  2  0
 10 19  1  0
 19 20  1  0
 20 21  1  0
 21 22  2  0
 22 23  1  0
 23 24  2  0
 24 25  1  0
 24 26  1  0
 26 27  2  0
 19  2  1  0
 27 21  1  0
  8  3  1  0
 18 13  1  0
  4 28  1  0
  5 29  1  0
  6 30  1  0
  7 31  1  0
 11 32  1  0
 12 33  1  0
 14 34  1  0
 15 35  1  0
 16 36  1  0
 18 37  1  0
 20 38  1  0
 20 39  1  0
 22 40  1  0
 23 41  1  0
 26 42  1  0
 27 43  1  0
M  END
>  <meeko>  (14) 
{"free_energy": -7.58, "intermolecular_energy": -9.08, "internal_energy": -1.26, "cluster_size": 5, "cluster_id": 1, "rank_in_cluster": 2}

$$$$

     RDKit          3D

 43 46  0  0  0  0  0  0  0  0999 V2000
  140.2240   72.0290  224.8280 O   0  0  0  0  0  0  0  0  0  0  0  0
  139.6640   70.8970  224.8550 C   0  0  0  0  0  0  0  0  0  0  0  0
  139.9650   70.0030  225.8990 C   0  0  0  0  0  0  0  0  0  0  0  0
  140.8910   70.3140  226.9150 C   0  0  0  0  0  0  0  0  0  0  0  0
  141.1670   69.3840  227.9200 C   0  0  0  0  0  0  0  0  0  0  0  0
  140.5210   68.1440  227.9250 C   0  0  0  0  0  0  0  0  0  0  0  0
  139.5930   67.8320  226.9270 C   0  0  0  0  0  0  0  0  0  0  0  0
  139.3150   68.7570  225.9170 C   0  0  0  0  0  0  0  0  0  0  0  0
  138.4220   68.4520  224.9490 N   0  0  0  0  0  0  0  0  0  0  0  0
  138.1450   69.3130  223.9380 C   0  0  0  0  0  0  0  0  0  0  0  0
  137.1670   68.8910  222.9210 C   0  0  0  0  0  0  0  0  0  0  0  0
  135.9040   68.6370  223.2430 C   0  0  0  0  0  0  0  0  0  0  0  0
  135.2200   69.2800  224.3810 C   0  0  0  0  0  0  0  0  0  0  0  0
  135.2420   70.6790  224.4970 C   0  0  0  0  0  0  0  0  0  0  0  0
  134.6050   71.2950  225.5720 C   0  0  0  0  0  0  0  0  0  0  0  0
  133.9830   70.5100  226.5410 C   0  0  0  0  0  0  0  0  0  0  0  0
  133.9710   69.1540  226.4220 N   0  0  0  0  0  0  0  0  0  0  0  0
  134.5690   68.5310  225.3720 C   0  0  0  0  0  0  0  0  0  0  0  0
  138.7670   70.5410  223.8740 N   0  0  0  0  0  0  0  0  0  0  0  0
  138.4440   71.4890  222.7800 C   0  0  0  0  0  0  0  0  0  0  0  0
  139.7000   72.0220  222.1310 C   0  0  0  0  0  0  0  0  0  0  0  0
  140.6760   71.1360  221.6440 C   0  0  0  0  0  0  0  0  0  0  0  0
  141.8490   71.6330  221.0640 C   0  0  0  0  0  0  0  0  0  0  0  0
  142.0470   73.0120  220.9450 C   0  0  0  0  0  0  0  0  0  0  0  0
  143.5210   73.6210  220.2310 Cl  0  0  0  0  0  0  0  0  0  0  0  0
  141.0740   73.8980  221.4180 C   0  0  0  0  0  0  0  0  0  0  0  0
  139.8980   73.4080  221.9900 C   0  0  0  0  0  0  0  0  0  0  0  0
  141.3972   71.2906  226.9165 H   0  0  0  0  0  0  0  0  0  0  0  0
  141.8939   69.6276  228.7089 H   0  0  0  0  0  0  0  0  0  0  0  0
  140.7434   67.4124  228.7158 H   0  0  0  0  0  0  0  0  0  0  0  0
  139.0815   66.8582  226.9367 H   0  0  0  0  0  0  0  0  0  0  0  0
  137.4889   68.7841  221.8746 H   0  0  0  0  0  0  0  0  0  0  0  0
  135.3421   67.9141  222.6333 H   0  0  0  0  0  0  0  0  0  0  0  0
  135.7607   71.2870  223.7412 H   0  0  0  0  0  0  0  0  0  0  0  0
  134.5931   72.3918  225.6552 H   0  0  0  0  0  0  0  0  0  0  0  0
  133.4997   70.9882  227.4057 H   0  0  0  0  0  0  0  0  0  0  0  0
  134.5421   67.4337  225.2993 H   0  0  0  0  0  0  0  0  0  0  0  0
  137.8407   70.9692  222.0211 H   0  0  0  0  0  0  0  0  0  0  0  0
  137.8855   72.3356  223.2059 H   0  0  0  0  0  0  0  0  0  0  0  0
  140.5179   70.0500  221.7187 H   0  0  0  0  0  0  0  0  0  0  0  0
  142.6182   70.9358  220.7003 H   0  0  0  0  0  0  0  0  0  0  0  0
  141.2353   74.9833  221.3393 H   0  0  0  0  0  0  0  0  0  0  0  0
  139.1225   74.1091  222.3321 H   0  0  0  0  0  0  0  0  0  0  0  0
  1  2  2  0
  2  3  1  0
  3  4  2  0
  4  5  1  0
  5  6  2  0
  6  7  1  0
  7  8  2  0
  8  9  1  0
  9 10  2  0
 10 11  1  0
 11 12  2  0
 12 13  1  0
 13 14  2  0
 14 15  1  0
 15 16  2  0
 16 17  1  0
 17 18  2  0
 10 19  1  0
 19 20  1  0
 20 21  1  0
 21 22  2  0
 22 23  1  0
 23 24  2  0
 24 25  1  0
 24 26  1  0
 26 27  2  0
 19  2  1  0
 27 21  1  0
  8  3  1  0
 18 13  1  0
  4 28  1  0
  5 29  1  0
  6 30  1  0
  7 31  1  0
 11 32  1  0
 12 33  1  0
 14 34  1  0
 15 35  1  0
 16 36  1  0
 18 37  1  0
 20 38  1  0
 20 39  1  0
 22 40  1  0
 23 41  1  0
 26 42  1  0
 27 43  1  0
M  END
>  <meeko>  (15) 
{"free_energy": -7.24, "intermolecular_energy": -8.74, "internal_energy": -1.39, "cluster_size": 4, "cluster_id": 5, "rank_in_cluster": 1}

$$$$

     RDKit          3D

 43 46  0  0  0  0  0  0  0  0999 V2000
  140.1870   71.9970  224.8520 O   0  0  0  0  0  0  0  0  0  0  0  0
  139.6460   70.8550  224.8770 C   0  0  0  0  0  0  0  0  0  0  0  0
  139.9440   69.9750  225.9330 C   0  0  0  0  0  0  0  0  0  0  0  0
  140.8450   70.3080  226.9630 C   0  0  0  0  0  0  0  0  0  0  0  0
  141.1180   69.3910  227.9800 C   0  0  0  0  0  0  0  0  0  0  0  0
  140.4950   68.1400  227.9820 C   0  0  0  0  0  0  0  0  0  0  0  0
  139.5900   67.8050  226.9710 C   0  0  0  0  0  0  0  0  0  0  0  0
  139.3150   68.7180  225.9480 C   0  0  0  0  0  0  0  0  0  0  0  0
  138.4450   68.3900  224.9670 N   0  0  0  0  0  0  0  0  0  0  0  0
  138.1710   69.2380  223.9440 C   0  0  0  0  0  0  0  0  0  0  0  0
  137.2200   68.7920  222.9130 C   0  0  0  0  0  0  0  0  0  0  0  0
  135.9260   68.6580  223.1820 C   0  0  0  0  0  0  0  0  0  0  0  0
  135.2700   69.3190  224.3250 C   0  0  0  0  0  0  0  0  0  0  0  0
  135.2800   70.7200  224.4110 C   0  0  0  0  0  0  0  0  0  0  0  0
  134.6690   71.3530  225.4910 C   0  0  0  0  0  0  0  0  0  0  0  0
  134.0850   70.5830  226.4940 C   0  0  0  0  0  0  0  0  0  0  0  0
  134.0830   69.2250  226.4050 N   0  0  0  0  0  0  0  0  0  0  0  0
  134.6560   68.5850  225.3510 C   0  0  0  0  0  0  0  0  0  0  0  0
  138.7730   70.4770  223.8830 N   0  0  0  0  0  0  0  0  0  0  0  0
  138.4540   71.4110  222.7760 C   0  0  0  0  0  0  0  0  0  0  0  0
  139.7120   71.9690  222.1520 C   0  0  0  0  0  0  0  0  0  0  0  0
  140.6920   71.1030  221.6380 C   0  0  0  0  0  0  0  0  0  0  0  0
  141.8670   71.6230  221.0820 C   0  0  0  0  0  0  0  0  0  0  0  0
  142.0630   73.0050  221.0150 C   0  0  0  0  0  0  0  0  0  0  0  0
  143.5390   73.6420  220.3290 Cl  0  0  0  0  0  0  0  0  0  0  0  0
  141.0860   73.8720  221.5140 C   0  0  0  0  0  0  0  0  0  0  0  0
  139.9080   73.3600  222.0630 C   0  0  0  0  0  0  0  0  0  0  0  0
  141.3349   71.2929  226.9663 H   0  0  0  0  0  0  0  0  0  0  0  0
  141.8247   69.6537  228.7810 H   0  0  0  0  0  0  0  0  0  0  0  0
  140.7174   67.4174  228.7810 H   0  0  0  0  0  0  0  0  0  0  0  0
  139.0940   66.8232  226.9800 H   0  0  0  0  0  0  0  0  0  0  0  0
  137.5874   68.5655  221.9012 H   0  0  0  0  0  0  0  0  0  0  0  0
  135.3157   68.0246  222.5214 H   0  0  0  0  0  0  0  0  0  0  0  0
  135.7693   71.3168  223.6272 H   0  0  0  0  0  0  0  0  0  0  0  0
  134.6479   72.4511  225.5512 H   0  0  0  0  0  0  0  0  0  0  0  0
  133.6230   71.0751  227.3626 H   0  0  0  0  0  0  0  0  0  0  0  0
  134.6381   67.4862  225.3025 H   0  0  0  0  0  0  0  0  0  0  0  0
  137.8801   70.8732  222.0069 H   0  0  0  0  0  0  0  0  0  0  0  0
  137.8672   72.2472  223.1840 H   0  0  0  0  0  0  0  0  0  0  0  0
  140.5357   70.0147  221.6725 H   0  0  0  0  0  0  0  0  0  0  0  0
  142.6390   70.9409  220.6963 H   0  0  0  0  0  0  0  0  0  0  0  0
  141.2454   74.9597  221.4741 H   0  0  0  0  0  0  0  0  0  0  0  0
  139.1300   74.0470  222.4274 H   0  0  0  0  0  0  0  0  0  0  0  0
  1  2  2  0
  2  3  1  0
  3  4  2  0
  4  5  1  0
  5  6  2  0
  6  7  1  0
  7  8  2  0
  8  9  1  0
  9 10  2  0
 10 11  1  0
 11 12  2  0
 12 13  1  0
 13 14  2  0
 14 15  1  0
 15 16  2  0
 16 17  1  0
 17 18  2  0
 10 19  1  0
 19 20  1  0
 20 21  1  0
 21 22  2  0
 22 23  1  0
 23 24  2  0
 24 25  1  0
 24 26  1  0
 26 27  2  0
 19  2  1  0
 27 21  1  0
  8  3  1  0
 18 13  1  0
  4 28  1  0
  5 29  1  0
  6 30  1  0
  7 31  1  0
 11 32  1  0
 12 33  1  0
 14 34  1  0
 15 35  1  0
 16 36  1  0
 18 37  1  0
 20 38  1  0
 20 39  1  0
 22 40  1  0
 23 41  1  0
 26 42  1  0
 27 43  1  0
M  END
>  <meeko>  (16) 
{"free_energy": -7.2, "intermolecular_energy": -8.69, "internal_energy": -1.42, "cluster_size": 4, "cluster_id": 5, "rank_in_cluster": 3}

$$$$

     RDKit          3D

 43 46  0  0  0  0  0  0  0  0999 V2000
  141.4350   70.9670  221.2240 O   0  0  0  0  0  0  0  0  0  0  0  0
  141.5640   72.2240  221.2360 C   0  0  0  0  0  0  0  0  0  0  0  0
  142.7850   72.7970  220.8340 C   0  0  0  0  0  0  0  0  0  0  0  0
  143.8890   72.0170  220.4340 C   0  0  0  0  0  0  0  0  0  0  0  0
  145.0830   72.6340  220.0590 C   0  0  0  0  0  0  0  0  0  0  0  0
  145.1880   74.0280  220.0750 C   0  0  0  0  0  0  0  0  0  0  0  0
  144.0950   74.8090  220.4600 C   0  0  0  0  0  0  0  0  0  0  0  0
  142.8970   74.1970  220.8390 C   0  0  0  0  0  0  0  0  0  0  0  0
  141.8430   74.9540  221.2170 N   0  0  0  0  0  0  0  0  0  0  0  0
  140.6720   74.3970  221.6160 C   0  0  0  0  0  0  0  0  0  0  0  0
  139.5810   75.2990  222.0210 C   0  0  0  0  0  0  0  0  0  0  0  0
  139.5210   76.5490  221.5790 C   0  0  0  0  0  0  0  0  0  0  0  0
  140.0210   77.7010  222.3530 C   0  0  0  0  0  0  0  0  0  0  0  0
  141.4000   77.9650  222.3820 C   0  0  0  0  0  0  0  0  0  0  0  0
  141.8830   79.0460  223.1160 C   0  0  0  0  0  0  0  0  0  0  0  0
  140.9920   79.8330  223.8430 C   0  0  0  0  0  0  0  0  0  0  0  0
  139.6580   79.5660  223.8120 N   0  0  0  0  0  0  0  0  0  0  0  0
  139.1610   78.5290  223.0880 C   0  0  0  0  0  0  0  0  0  0  0  0
  140.5200   73.0270  221.6370 N   0  0  0  0  0  0  0  0  0  0  0  0
  139.2320   72.4210  222.0510 C   0  0  0  0  0  0  0  0  0  0  0  0
  139.3980   71.5810  223.2960 C   0  0  0  0  0  0  0  0  0  0  0  0
  140.4060   71.8840  224.2260 C   0  0  0  0  0  0  0  0  0  0  0  0
  140.5730   71.0890  225.3660 C   0  0  0  0  0  0  0  0  0  0  0  0
  139.7240   70.0030  225.5970 C   0  0  0  0  0  0  0  0  0  0  0  0
  139.9490   69.0100  227.0180 Cl  0  0  0  0  0  0  0  0  0  0  0  0
  138.7110   69.7020  224.6810 C   0  0  0  0  0  0  0  0  0  0  0  0
  138.5360   70.4970  223.5450 C   0  0  0  0  0  0  0  0  0  0  0  0
  143.8091   70.9200  220.4175 H   0  0  0  0  0  0  0  0  0  0  0  0
  145.9435   72.0223  219.7501 H   0  0  0  0  0  0  0  0  0  0  0  0
  146.1326   74.5109  219.7840 H   0  0  0  0  0  0  0  0  0  0  0  0
  144.1776   75.9059  220.4648 H   0  0  0  0  0  0  0  0  0  0  0  0
  138.8008   74.9298  222.7029 H   0  0  0  0  0  0  0  0  0  0  0  0
  139.0778   76.7346  220.5895 H   0  0  0  0  0  0  0  0  0  0  0  0
  142.0968   77.3200  221.8267 H   0  0  0  0  0  0  0  0  0  0  0  0
  142.9586   79.2764  223.1216 H   0  0  0  0  0  0  0  0  0  0  0  0
  141.3685   80.6735  224.4444 H   0  0  0  0  0  0  0  0  0  0  0  0
  138.0777   78.3381  223.0786 H   0  0  0  0  0  0  0  0  0  0  0  0
  138.5068   73.2230  222.2534 H   0  0  0  0  0  0  0  0  0  0  0  0
  138.8755   71.7716  221.2379 H   0  0  0  0  0  0  0  0  0  0  0  0
  141.0658   72.7480  224.0581 H   0  0  0  0  0  0  0  0  0  0  0  0
  141.3751   71.3198  226.0825 H   0  0  0  0  0  0  0  0  0  0  0  0
  138.0515   68.8389  224.8548 H   0  0  0  0  0  0  0  0  0  0  0  0
  137.7200   70.2742  222.8417 H   0  0  0  0  0  0  0  0  0  0  0  0
  1  2  2  0
  2  3  1  0
  3  4  2  0
  4  5  1  0
  5  6  2  0
  6  7  1  0
  7  8  2  0
  8  9  1  0
  9 10  2  0
 10 11  1  0
 11 12  2  0
 12 13  1  0
 13 14  2  0
 14 15  1  0
 15 16  2  0
 16 17  1  0
 17 18  2  0
 10 19  1  0
 19 20  1  0
 20 21  1  0
 21 22  2  0
 22 23  1  0
 23 24  2  0
 24 25  1  0
 24 26  1  0
 26 27  2  0
 19  2  1  0
 27 21  1  0
  8  3  1  0
 18 13  1  0
  4 28  1  0
  5 29  1  0
  6 30  1  0
  7 31  1  0
 11 32  1  0
 12 33  1  0
 14 34  1  0
 15 35  1  0
 16 36  1  0
 18 37  1  0
 20 38  1  0
 20 39  1  0
 22 40  1  0
 23 41  1  0
 26 42  1  0
 27 43  1  0
M  END
>  <meeko>  (17) 
{"free_energy": -7.5, "intermolecular_energy": -8.99, "internal_energy": -1.16, "cluster_size": 5, "cluster_id": 2, "rank_in_cluster": 5}

$$$$

     RDKit          3D

 43 46  0  0  0  0  0  0  0  0999 V2000
  137.2310   73.3020  222.3370 O   0  0  0  0  0  0  0  0  0  0  0  0
  138.4420   73.5980  222.1330 C   0  0  0  0  0  0  0  0  0  0  0  0
  138.8250   74.9520  222.1010 C   0  0  0  0  0  0  0  0  0  0  0  0
  137.9000   76.0020  222.2690 C   0  0  0  0  0  0  0  0  0  0  0  0
  138.3300   77.3290  222.2120 C   0  0  0  0  0  0  0  0  0  0  0  0
  139.6800   77.6210  221.9940 C   0  0  0  0  0  0  0  0  0  0  0  0
  140.6050   76.5860  221.8370 C   0  0  0  0  0  0  0  0  0  0  0  0
  140.1810   75.2550  221.8900 C   0  0  0  0  0  0  0  0  0  0  0  0
  141.0760   74.2540  221.7320 N   0  0  0  0  0  0  0  0  0  0  0  0
  140.6990   72.9510  221.7510 C   0  0  0  0  0  0  0  0  0  0  0  0
  141.7410   71.9280  221.5590 C   0  0  0  0  0  0  0  0  0  0  0  0
  142.4190   71.8420  220.4200 C   0  0  0  0  0  0  0  0  0  0  0  0
  143.7860   72.3700  220.2560 C   0  0  0  0  0  0  0  0  0  0  0  0
  144.1250   73.6000  220.8410 C   0  0  0  0  0  0  0  0  0  0  0  0
  145.4110   74.1110  220.6850 C   0  0  0  0  0  0  0  0  0  0  0  0
  146.3390   73.4080  219.9180 C   0  0  0  0  0  0  0  0  0  0  0  0
  146.0000   72.2190  219.3510 N   0  0  0  0  0  0  0  0  0  0  0  0
  144.7570   71.6910  219.5050 C   0  0  0  0  0  0  0  0  0  0  0  0
  139.3780   72.6080  221.9450 N   0  0  0  0  0  0  0  0  0  0  0  0
  138.9730   71.1820  221.9880 C   0  0  0  0  0  0  0  0  0  0  0  0
  139.2900   70.5640  223.3300 C   0  0  0  0  0  0  0  0  0  0  0  0
  138.9230   69.2350  223.6030 C   0  0  0  0  0  0  0  0  0  0  0  0
  139.1970   68.6740  224.8560 C   0  0  0  0  0  0  0  0  0  0  0  0
  139.8560   69.4230  225.8340 C   0  0  0  0  0  0  0  0  0  0  0  0
  140.1820   68.7160  227.3990 Cl  0  0  0  0  0  0  0  0  0  0  0  0
  140.2340   70.7420  225.5650 C   0  0  0  0  0  0  0  0  0  0  0  0
  139.9700   71.3050  224.3140 C   0  0  0  0  0  0  0  0  0  0  0  0
  136.8380   75.7757  222.4452 H   0  0  0  0  0  0  0  0  0  0  0  0
  137.6052   78.1467  222.3389 H   0  0  0  0  0  0  0  0  0  0  0  0
  140.0143   78.6679  221.9460 H   0  0  0  0  0  0  0  0  0  0  0  0
  141.6674   76.8184  221.6716 H   0  0  0  0  0  0  0  0  0  0  0  0
  141.9618   71.2224  222.3735 H   0  0  0  0  0  0  0  0  0  0  0  0
  141.9384   71.3542  219.5591 H   0  0  0  0  0  0  0  0  0  0  0  0
  143.3764   74.1591  221.4215 H   0  0  0  0  0  0  0  0  0  0  0  0
  145.6922   75.0611  221.1628 H   0  0  0  0  0  0  0  0  0  0  0  0
  147.3496   73.8166  219.7708 H   0  0  0  0  0  0  0  0  0  0  0  0
  144.5111   70.7258  219.0381 H   0  0  0  0  0  0  0  0  0  0  0  0
  137.8903   71.1109  221.8070 H   0  0  0  0  0  0  0  0  0  0  0  0
  139.5324   70.6376  221.2130 H   0  0  0  0  0  0  0  0  0  0  0  0
  138.4197   68.6347  222.8308 H   0  0  0  0  0  0  0  0  0  0  0  0
  138.8922   67.6393  225.0714 H   0  0  0  0  0  0  0  0  0  0  0  0
  140.7399   71.3372  226.3395 H   0  0  0  0  0  0  0  0  0  0  0  0
  140.2955   72.3331  224.0971 H   0  0  0  0  0  0  0  0  0  0  0  0
  1  2  2  0
  2  3  1  0
  3  4  2  0
  4  5  1  0
  5  6  2  0
  6  7  1  0
  7  8  2  0
  8  9  1  0
  9 10  2  0
 10 11  1  0
 11 12  2  0
 12 13  1  0
 13 14  2  0
 14 15  1  0
 15 16  2  0
 16 17  1  0
 17 18  2  0
 10 19  1  0
 19 20  1  0
 20 21  1  0
 21 22  2  0
 22 23  1  0
 23 24  2  0
 24 25  1  0
 24 26  1  0
 26 27  2  0
 19  2  1  0
 27 21  1  0
  8  3  1  0
 18 13  1  0
  4 28  1  0
  5 29  1  0
  6 30  1  0
  7 31  1  0
 11 32  1  0
 12 33  1  0
 14 34  1  0
 15 35  1  0
 16 36  1  0
 18 37  1  0
 20 38  1  0
 20 39  1  0
 22 40  1  0
 23 41  1  0
 26 42  1  0
 27 43  1  0
M  END
>  <meeko>  (18) 
{"free_energy": -7.59, "intermolecular_energy": -9.08, "internal_energy": -1.15, "cluster_size": 5, "cluster_id": 1, "rank_in_cluster": 1}

$$$$

     RDKit          3D

 43 46  0  0  0  0  0  0  0  0999 V2000
  138.9740   74.0220  222.3420 O   0  0  0  0  0  0  0  0  0  0  0  0
  139.9920   73.9380  221.5970 C   0  0  0  0  0  0  0  0  0  0  0  0
  140.6990   75.1070  221.2630 C   0  0  0  0  0  0  0  0  0  0  0  0
  140.3050   76.3830  221.7120 C   0  0  0  0  0  0  0  0  0  0  0  0
  141.0330   77.5140  221.3380 C   0  0  0  0  0  0  0  0  0  0  0  0
  142.1600   77.3840  220.5210 C   0  0  0  0  0  0  0  0  0  0  0  0
  142.5650   76.1220  220.0800 C   0  0  0  0  0  0  0  0  0  0  0  0
  141.8380   74.9860  220.4490 C   0  0  0  0  0  0  0  0  0  0  0  0
  142.2280   73.7660  220.0160 N   0  0  0  0  0  0  0  0  0  0  0  0
  141.5340   72.6430  220.3310 C   0  0  0  0  0  0  0  0  0  0  0  0
  142.0260   71.3580  219.8060 C   0  0  0  0  0  0  0  0  0  0  0  0
  143.2760   70.9630  220.0130 C   0  0  0  0  0  0  0  0  0  0  0  0
  144.4200   71.8940  220.0430 C   0  0  0  0  0  0  0  0  0  0  0  0
  144.7060   72.5970  221.2240 C   0  0  0  0  0  0  0  0  0  0  0  0
  145.7780   73.4840  221.2610 C   0  0  0  0  0  0  0  0  0  0  0  0
  146.5350   73.6910  220.1090 C   0  0  0  0  0  0  0  0  0  0  0  0
  146.2470   73.0090  218.9670 N   0  0  0  0  0  0  0  0  0  0  0  0
  145.2170   72.1230  218.9130 C   0  0  0  0  0  0  0  0  0  0  0  0
  140.4050   72.7160  221.1190 N   0  0  0  0  0  0  0  0  0  0  0  0
  139.6630   71.4840  221.4800 C   0  0  0  0  0  0  0  0  0  0  0  0
  139.8100   71.1690  222.9510 C   0  0  0  0  0  0  0  0  0  0  0  0
  139.0520   70.1390  223.5330 C   0  0  0  0  0  0  0  0  0  0  0  0
  139.1740   69.8650  224.9010 C   0  0  0  0  0  0  0  0  0  0  0  0
  140.0640   70.5980  225.6890 C   0  0  0  0  0  0  0  0  0  0  0  0
  140.1990   70.2550  227.3980 Cl  0  0  0  0  0  0  0  0  0  0  0  0
  140.8300   71.6170  225.1130 C   0  0  0  0  0  0  0  0  0  0  0  0
  140.7180   71.8900  223.7480 C   0  0  0  0  0  0  0  0  0  0  0  0
  139.4216   76.4884  222.3589 H   0  0  0  0  0  0  0  0  0  0  0  0
  140.7194   78.5090  221.6867 H   0  0  0  0  0  0  0  0  0  0  0  0
  142.7291   78.2775  220.2248 H   0  0  0  0  0  0  0  0  0  0  0  0
  143.4558   76.0219  219.4425 H   0  0  0  0  0  0  0  0  0  0  0  0
  141.3446   70.7134  219.2314 H   0  0  0  0  0  0  0  0  0  0  0  0
  143.4680   69.8913  220.1695 H   0  0  0  0  0  0  0  0  0  0  0  0
  144.0839   72.4471  222.1187 H   0  0  0  0  0  0  0  0  0  0  0  0
  146.0256   74.0168  222.1909 H   0  0  0  0  0  0  0  0  0  0  0  0
  147.3686   74.4086  220.1230 H   0  0  0  0  0  0  0  0  0  0  0  0
  145.0081   71.5831  217.9776 H   0  0  0  0  0  0  0  0  0  0  0  0
  138.5971   71.6261  221.2482 H   0  0  0  0  0  0  0  0  0  0  0  0
  140.0772   70.6455  220.9010 H   0  0  0  0  0  0  0  0  0  0  0  0
  138.3620   69.5472  222.9135 H   0  0  0  0  0  0  0  0  0  0  0  0
  138.5664   69.0693  225.3566 H   0  0  0  0  0  0  0  0  0  0  0  0
  141.5212   72.2038  225.7358 H   0  0  0  0  0  0  0  0  0  0  0  0
  141.3430   72.6729  223.2936 H   0  0  0  0  0  0  0  0  0  0  0  0
  1  2  2  0
  2  3  1  0
  3  4  2  0
  4  5  1  0
  5  6  2  0
  6  7  1  0
  7  8  2  0
  8  9  1  0
  9 10  2  0
 10 11  1  0
 11 12  2  0
 12 13  1  0
 13 14  2  0
 14 15  1  0
 15 16  2  0
 16 17  1  0
 17 18  2  0
 10 19  1  0
 19 20  1  0
 20 21  1  0
 21 22  2  0
 22 23  1  0
 23 24  2  0
 24 25  1  0
 24 26  1  0
 26 27  2  0
 19  2  1  0
 27 21  1  0
  8  3  1  0
 18 13  1  0
  4 28  1  0
  5 29  1  0
  6 30  1  0
  7 31  1  0
 11 32  1  0
 12 33  1  0
 14 34  1  0
 15 35  1  0
 16 36  1  0
 18 37  1  0
 20 38  1  0
 20 39  1  0
 22 40  1  0
 23 41  1  0
 26 42  1  0
 27 43  1  0
M  END
>  <meeko>  (19) 
{"free_energy": -7.47, "intermolecular_energy": -8.96, "internal_energy": -1.41, "cluster_size": 5, "cluster_id": 1, "rank_in_cluster": 4}

$$$$

     RDKit          3D

 43 46  0  0  0  0  0  0  0  0999 V2000
  141.4730   71.0260  221.2380 O   0  0  0  0  0  0  0  0  0  0  0  0
  141.7020   72.2680  221.2370 C   0  0  0  0  0  0  0  0  0  0  0  0
  142.9660   72.7370  220.8360 C   0  0  0  0  0  0  0  0  0  0  0  0
  144.0060   71.8670  220.4510 C   0  0  0  0  0  0  0  0  0  0  0  0
  145.2480   72.3830  220.0770 C   0  0  0  0  0  0  0  0  0  0  0  0
  145.4640   73.7640  220.0780 C   0  0  0  0  0  0  0  0  0  0  0  0
  144.4350   74.6340  220.4470 C   0  0  0  0  0  0  0  0  0  0  0  0
  143.1900   74.1240  220.8260 C   0  0  0  0  0  0  0  0  0  0  0  0
  142.1970   74.9670  221.1890 N   0  0  0  0  0  0  0  0  0  0  0  0
  140.9840   74.5090  221.5870 C   0  0  0  0  0  0  0  0  0  0  0  0
  139.9660   75.5000  221.9770 C   0  0  0  0  0  0  0  0  0  0  0  0
  139.9220   76.7000  221.4110 C   0  0  0  0  0  0  0  0  0  0  0  0
  140.8130   77.8080  221.8030 C   0  0  0  0  0  0  0  0  0  0  0  0
  141.1370   77.9860  223.1570 C   0  0  0  0  0  0  0  0  0  0  0  0
  141.9720   79.0330  223.5380 C   0  0  0  0  0  0  0  0  0  0  0  0
  142.4490   79.9160  222.5700 C   0  0  0  0  0  0  0  0  0  0  0  0
  142.1260   79.7380  221.2610 N   0  0  0  0  0  0  0  0  0  0  0  0
  141.3280   78.7120  220.8620 C   0  0  0  0  0  0  0  0  0  0  0  0
  140.7230   73.1560  221.6220 N   0  0  0  0  0  0  0  0  0  0  0  0
  139.3880   72.6600  222.0360 C   0  0  0  0  0  0  0  0  0  0  0  0
  139.4930   71.7360  223.2270 C   0  0  0  0  0  0  0  0  0  0  0  0
  140.5390   71.8910  224.1540 C   0  0  0  0  0  0  0  0  0  0  0  0
  140.6460   71.0190  225.2440 C   0  0  0  0  0  0  0  0  0  0  0  0
  139.7040   70.0040  225.4290 C   0  0  0  0  0  0  0  0  0  0  0  0
  139.8550   68.9130  226.7860 Cl  0  0  0  0  0  0  0  0  0  0  0  0
  138.6550   69.8520  224.5160 C   0  0  0  0  0  0  0  0  0  0  0  0
  138.5380   70.7240  223.4320 C   0  0  0  0  0  0  0  0  0  0  0  0
  143.8387   70.7798  220.4453 H   0  0  0  0  0  0  0  0  0  0  0  0
  146.0587   71.7011  219.7807 H   0  0  0  0  0  0  0  0  0  0  0  0
  146.4457   74.1664  219.7878 H   0  0  0  0  0  0  0  0  0  0  0  0
  144.6047   75.7208  220.4393 H   0  0  0  0  0  0  0  0  0  0  0  0
  139.2289   75.2409  222.7513 H   0  0  0  0  0  0  0  0  0  0  0  0
  139.1865   76.8762  220.6122 H   0  0  0  0  0  0  0  0  0  0  0  0
  140.7321   77.2999  223.9155 H   0  0  0  0  0  0  0  0  0  0  0  0
  142.2530   79.1625  224.5936 H   0  0  0  0  0  0  0  0  0  0  0  0
  143.0892   80.7600  222.8664 H   0  0  0  0  0  0  0  0  0  0  0  0
  141.0850   78.5902  219.7961 H   0  0  0  0  0  0  0  0  0  0  0  0
  138.7534   73.5180  222.3025 H   0  0  0  0  0  0  0  0  0  0  0  0
  138.9498   72.0987  221.1976 H   0  0  0  0  0  0  0  0  0  0  0  0
  141.2742   72.6986  224.0225 H   0  0  0  0  0  0  0  0  0  0  0  0
  141.4752   71.1335  225.9577 H   0  0  0  0  0  0  0  0  0  0  0  0
  137.9211   69.0440  224.6524 H   0  0  0  0  0  0  0  0  0  0  0  0
  137.6941   70.6190  222.7343 H   0  0  0  0  0  0  0  0  0  0  0  0
  1  2  2  0
  2  3  1  0
  3  4  2  0
  4  5  1  0
  5  6  2  0
  6  7  1  0
  7  8  2  0
  8  9  1  0
  9 10  2  0
 10 11  1  0
 11 12  2  0
 12 13  1  0
 13 14  2  0
 14 15  1  0
 15 16  2  0
 16 17  1  0
 17 18  2  0
 10 19  1  0
 19 20  1  0
 20 21  1  0
 21 22  2  0
 22 23  1  0
 23 24  2  0
 24 25  1  0
 24 26  1  0
 26 27  2  0
 19  2  1  0
 27 21  1  0
  8  3  1  0
 18 13  1  0
  4 28  1  0
  5 29  1  0
  6 30  1  0
  7 31  1  0
 11 32  1  0
 12 33  1  0
 14 34  1  0
 15 35  1  0
 16 36  1  0
 18 37  1  0
 20 38  1  0
 20 39  1  0
 22 40  1  0
 23 41  1  0
 26 42  1  0
 27 43  1  0
M  END
>  <meeko>  (20) 
{"free_energy": -7.52, "intermolecular_energy": -9.01, "internal_energy": -1.16, "cluster_size": 5, "cluster_id": 2, "rank_in_cluster": 3}

$$$$
