
     RDKit          3D

 59 64  0  0  0  0  0  0  0  0999 V2000
  140.5420   67.7690  227.9170 N   0  0  0  0  0  0  0  0  0  0  0  0
  140.6750   69.1180  227.4630 C   0  0  0  0  0  0  0  0  0  0  0  0
  141.1350   69.9840  228.2570 O   0  0  0  0  0  0  0  0  0  0  0  0
  140.3030   69.5130  226.0830 C   0  0  0  0  0  0  0  0  0  0  0  0
  139.4980   68.6470  225.2940 C   0  0  0  0  0  0  0  0  0  0  0  0
  139.1340   68.9940  223.9810 C   0  0  0  0  0  0  0  0  0  0  0  0
  139.5940   70.2070  223.4790 C   0  0  0  0  0  0  0  0  0  0  0  0
  139.4030   70.7960  222.2490 C   0  0  0  0  0  0  0  0  0  0  0  0
  140.1090   71.9960  222.3120 C   0  0  0  0  0  0  0  0  0  0  0  0
  140.1880   73.0000  221.2360 C   0  0  0  0  0  0  0  0  0  0  0  0
  139.1240   73.4480  220.7310 O   0  0  0  0  0  0  0  0  0  0  0  0
  141.4510   73.4360  220.7160 N   0  0  0  0  0  0  0  0  0  0  0  0
  142.5830   72.5450  220.4730 C   0  0  0  0  0  0  0  0  0  0  0  0
  143.7520   73.4680  219.9810 C   0  0  1  0  0  0  0  0  0  0  0  0
  144.9310   73.4580  220.9400 C   0  0  0  0  0  0  0  0  0  0  0  0
  145.7640   72.2930  220.4440 C   0  0  0  0  0  0  0  0  0  0  0  0
  145.5820   72.2120  218.9810 N   0  0  0  0  0  0  0  0  0  0  0  0
  145.5110   70.8110  218.5000 C   0  0  1  0  0  0  0  0  0  0  0  0
  146.4930   69.9100  219.2320 C   0  0  0  0  0  0  0  0  0  0  0  0
  145.8050   68.5550  219.3150 C   0  0  0  0  0  0  0  0  0  0  0  0
  144.3920   68.7260  218.9680 N   0  0  0  0  0  0  0  0  0  0  0  0
  144.1680   70.1620  218.8200 C   0  0  0  0  0  0  0  0  0  0  0  0
  144.3670   72.9870  218.6580 C   0  0  0  0  0  0  0  0  0  0  0  0
  143.0980   74.8200  219.8860 C   0  0  0  0  0  0  0  0  0  0  0  0
  143.6460   76.0270  219.4340 C   0  0  0  0  0  0  0  0  0  0  0  0
  142.8270   77.1670  219.3990 C   0  0  0  0  0  0  0  0  0  0  0  0
  141.4820   77.0850  219.8020 C   0  0  0  0  0  0  0  0  0  0  0  0
  140.9530   75.8680  220.2530 C   0  0  0  0  0  0  0  0  0  0  0  0
  141.7950   74.7510  220.3080 C   0  0  0  0  0  0  0  0  0  0  0  0
  140.6970   72.1480  223.5230 N   0  0  0  0  0  0  0  0  0  0  0  0
  140.3750   71.0470  224.2230 C   0  0  0  0  0  0  0  0  0  0  0  0
  140.7540   70.7350  225.5280 C   0  0  0  0  0  0  0  0  0  0  0  0
  140.3190   66.9870  227.2640 H   0  0  0  0  0  0  0  0  0  0  0  0
  140.7570   67.5320  228.9120 H   0  0  0  0  0  0  0  0  0  0  0  0
  139.1548   67.6913  225.7169 H   0  0  0  0  0  0  0  0  0  0  0  0
  138.5061   68.3281  223.3708 H   0  0  0  0  0  0  0  0  0  0  0  0
  138.8205   70.4048  221.4018 H   0  0  0  0  0  0  0  0  0  0  0  0
  142.8683   72.0259  221.3999 H   0  0  0  0  0  0  0  0  0  0  0  0
  142.3379   71.7703  219.7315 H   0  0  0  0  0  0  0  0  0  0  0  0
  145.4954   74.4004  220.8825 H   0  0  0  0  0  0  0  0  0  0  0  0
  144.6317   73.3593  221.9939 H   0  0  0  0  0  0  0  0  0  0  0  0
  146.8247   72.4607  220.6823 H   0  0  0  0  0  0  0  0  0  0  0  0
  145.4490   71.3564  220.9273 H   0  0  0  0  0  0  0  0  0  0  0  0
  145.7093   70.8888  217.4208 H   0  0  0  0  0  0  0  0  0  0  0  0
  147.4357   69.8303  218.6707 H   0  0  0  0  0  0  0  0  0  0  0  0
  146.7488   70.3031  220.2270 H   0  0  0  0  0  0  0  0  0  0  0  0
  146.2777   67.8556  218.6098 H   0  0  0  0  0  0  0  0  0  0  0  0
  145.8953   68.1495  220.3336 H   0  0  0  0  0  0  0  0  0  0  0  0
  144.2280   68.2770  218.0360 H   0  0  0  0  0  0  0  0  0  0  0  0
  143.4576   70.3478  218.0010 H   0  0  0  0  0  0  0  0  0  0  0  0
  143.7474   70.5834  219.7450 H   0  0  0  0  0  0  0  0  0  0  0  0
  144.6303   73.8519  218.0313 H   0  0  0  0  0  0  0  0  0  0  0  0
  143.6492   72.3637  218.1045 H   0  0  0  0  0  0  0  0  0  0  0  0
  144.6967   76.0808  219.1129 H   0  0  0  0  0  0  0  0  0  0  0  0
  143.2387   78.1274  219.0553 H   0  0  0  0  0  0  0  0  0  0  0  0
  140.8428   77.9794  219.7631 H   0  0  0  0  0  0  0  0  0  0  0  0
  139.8986   75.7922  220.5573 H   0  0  0  0  0  0  0  0  0  0  0  0
  141.2800   72.9520  223.8490 H   0  0  0  0  0  0  0  0  0  0  0  0
  141.3868   71.4203  226.1111 H   0  0  0  0  0  0  0  0  0  0  0  0
  1  2  1  0
  2  3  2  0
  2  4  1  0
  4  5  2  0
  5  6  1  0
  6  7  2  0
  7  8  1  0
  8  9  2  0
  9 10  1  0
 10 11  2  0
 10 12  1  0
 12 13  1  0
 14 13  1  1
 14 15  1  0
 15 16  1  0
 16 17  1  0
 17 18  1  0
 18 19  1  0
 19 20  1  0
 20 21  1  0
 21 22  1  0
 17 23  1  0
 14 24  1  0
 24 25  2  0
 25 26  1  0
 26 27  2  0
 27 28  1  0
 28 29  2  0
  9 30  1  0
 30 31  1  0
 31 32  2  0
 32  4  1  0
 31  7  1  0
 29 12  1  0
 23 14  1  0
 29 24  1  0
 22 18  1  0
  1 33  1  0
  1 34  1  0
  5 35  1  0
  6 36  1  0
  8 37  1  0
 13 38  1  0
 13 39  1  0
 15 40  1  0
 15 41  1  0
 16 42  1  0
 16 43  1  0
 18 44  1  6
 19 45  1  0
 19 46  1  0
 20 47  1  0
 20 48  1  0
 21 49  1  0
 22 50  1  0
 22 51  1  0
 23 52  1  0
 23 53  1  0
 25 54  1  0
 26 55  1  0
 27 56  1  0
 28 57  1  0
 30 58  1  0
 32 59  1  0
M  END
>  <meeko>  (1) 
{"free_energy": -8.49, "intermolecular_energy": -9.68, "internal_energy": -1.15, "cluster_size": 6, "cluster_id": 1, "rank_in_cluster": 6}

$$$$

     RDKit          3D

 59 64  0  0  0  0  0  0  0  0999 V2000
  141.0190   67.6510  226.9930 N   0  0  0  0  0  0  0  0  0  0  0  0
  139.8340   67.7340  226.1960 C   0  0  0  0  0  0  0  0  0  0  0  0
  138.8400   67.0230  226.5090 O   0  0  0  0  0  0  0  0  0  0  0  0
  139.7450   68.6450  225.0290 C   0  0  0  0  0  0  0  0  0  0  0  0
  139.1150   68.2000  223.8340 C   0  0  0  0  0  0  0  0  0  0  0  0
  139.0220   69.0410  222.7110 C   0  0  0  0  0  0  0  0  0  0  0  0
  139.5730   70.3150  222.8050 C   0  0  0  0  0  0  0  0  0  0  0  0
  139.6320   71.3340  221.8810 C   0  0  0  0  0  0  0  0  0  0  0  0
  140.3110   72.3660  222.5270 C   0  0  0  0  0  0  0  0  0  0  0  0
  140.6030   73.6900  221.9510 C   0  0  0  0  0  0  0  0  0  0  0  0
  139.8180   74.6490  222.1790 O   0  0  0  0  0  0  0  0  0  0  0  0
  141.7320   73.8950  221.0930 N   0  0  0  0  0  0  0  0  0  0  0  0
  142.7320   72.8700  220.8030 C   0  0  0  0  0  0  0  0  0  0  0  0
  143.8010   73.5670  219.8890 C   0  0  1  0  0  0  0  0  0  0  0  0
  145.1670   73.6290  220.5530 C   0  0  0  0  0  0  0  0  0  0  0  0
  145.8050   72.3170  220.1440 C   0  0  0  0  0  0  0  0  0  0  0  0
  145.2880   71.9730  218.8050 N   0  0  0  0  0  0  0  0  0  0  0  0
  145.0390   70.5180  218.6550 C   0  0  1  0  0  0  0  0  0  0  0  0
  146.3260   69.7120  218.7340 C   0  0  0  0  0  0  0  0  0  0  0  0
  145.9330   68.3990  219.3960 C   0  0  0  0  0  0  0  0  0  0  0  0
  144.5950   68.5490  219.9740 N   0  0  0  0  0  0  0  0  0  0  0  0
  144.2240   69.9520  219.8130 C   0  0  0  0  0  0  0  0  0  0  0  0
  144.0710   72.7830  218.5960 C   0  0  0  0  0  0  0  0  0  0  0  0
  143.2100   74.9300  219.6560 C   0  0  0  0  0  0  0  0  0  0  0  0
  143.6980   75.9700  218.8550 C   0  0  0  0  0  0  0  0  0  0  0  0
  142.9510   77.1540  218.7590 C   0  0  0  0  0  0  0  0  0  0  0  0
  141.7320   77.2800  219.4500 C   0  0  0  0  0  0  0  0  0  0  0  0
  141.2610   76.2280  220.2490 C   0  0  0  0  0  0  0  0  0  0  0  0
  142.0380   75.0690  220.3540 C   0  0  0  0  0  0  0  0  0  0  0  0
  140.6430   72.0080  223.7910 N   0  0  0  0  0  0  0  0  0  0  0  0
  140.1890   70.7530  223.9440 C   0  0  0  0  0  0  0  0  0  0  0  0
  140.2990   69.9470  225.0760 C   0  0  0  0  0  0  0  0  0  0  0  0
  141.8080   68.3240  226.8780 H   0  0  0  0  0  0  0  0  0  0  0  0
  141.0730   66.9590  227.7730 H   0  0  0  0  0  0  0  0  0  0  0  0
  138.6950   67.1844  223.7877 H   0  0  0  0  0  0  0  0  0  0  0  0
  138.5293   68.7024  221.7876 H   0  0  0  0  0  0  0  0  0  0  0  0
  139.2309   71.3338  220.8567 H   0  0  0  0  0  0  0  0  0  0  0  0
  143.1971   72.5135  221.7339 H   0  0  0  0  0  0  0  0  0  0  0  0
  142.2849   71.9942  220.3099 H   0  0  0  0  0  0  0  0  0  0  0  0
  145.7492   74.4847  220.1804 H   0  0  0  0  0  0  0  0  0  0  0  0
  145.1131   73.7633  221.6434 H   0  0  0  0  0  0  0  0  0  0  0  0
  146.8990   72.4261  220.1080 H   0  0  0  0  0  0  0  0  0  0  0  0
  145.5636   71.5253  220.8686 H   0  0  0  0  0  0  0  0  0  0  0  0
  144.5286   70.4335  217.6843 H   0  0  0  0  0  0  0  0  0  0  0  0
  146.7303   69.5308  217.7272 H   0  0  0  0  0  0  0  0  0  0  0  0
  147.1083   70.2399  219.2990 H   0  0  0  0  0  0  0  0  0  0  0  0
  145.9247   67.5940  218.6464 H   0  0  0  0  0  0  0  0  0  0  0  0
  146.6565   68.1443  220.1844 H   0  0  0  0  0  0  0  0  0  0  0  0
  143.9280   67.9730  219.4090 H   0  0  0  0  0  0  0  0  0  0  0  0
  143.1499   70.0321  219.5894 H   0  0  0  0  0  0  0  0  0  0  0  0
  144.4277   70.5125  220.7373 H   0  0  0  0  0  0  0  0  0  0  0  0
  144.2253   73.4814  217.7602 H   0  0  0  0  0  0  0  0  0  0  0  0
  143.2155   72.1355  218.3535 H   0  0  0  0  0  0  0  0  0  0  0  0
  144.6482   75.8609  218.3117 H   0  0  0  0  0  0  0  0  0  0  0  0
  143.3197   77.9863  218.1415 H   0  0  0  0  0  0  0  0  0  0  0  0
  141.1462   78.2070  219.3633 H   0  0  0  0  0  0  0  0  0  0  0  0
  140.3021   76.3121  220.7813 H   0  0  0  0  0  0  0  0  0  0  0  0
  141.1490   72.5840  224.5010 H   0  0  0  0  0  0  0  0  0  0  0  0
  140.8033   70.3132  225.9824 H   0  0  0  0  0  0  0  0  0  0  0  0
  1  2  1  0
  2  3  2  0
  2  4  1  0
  4  5  2  0
  5  6  1  0
  6  7  2  0
  7  8  1  0
  8  9  2  0
  9 10  1  0
 10 11  2  0
 10 12  1  0
 12 13  1  0
 14 13  1  1
 14 15  1  0
 15 16  1  0
 16 17  1  0
 17 18  1  0
 18 19  1  0
 19 20  1  0
 20 21  1  0
 21 22  1  0
 17 23  1  0
 14 24  1  0
 24 25  2  0
 25 26  1  0
 26 27  2  0
 27 28  1  0
 28 29  2  0
  9 30  1  0
 30 31  1  0
 31 32  2  0
 32  4  1  0
 31  7  1  0
 29 12  1  0
 23 14  1  0
 29 24  1  0
 22 18  1  0
  1 33  1  0
  1 34  1  0
  5 35  1  0
  6 36  1  0
  8 37  1  0
 13 38  1  0
 13 39  1  0
 15 40  1  0
 15 41  1  0
 16 42  1  0
 16 43  1  0
 18 44  1  6
 19 45  1  0
 19 46  1  0
 20 47  1  0
 20 48  1  0
 21 49  1  0
 22 50  1  0
 22 51  1  0
 23 52  1  0
 23 53  1  0
 25 54  1  0
 26 55  1  0
 27 56  1  0
 28 57  1  0
 30 58  1  0
 32 59  1  0
M  END
>  <meeko>  (2) 
{"free_energy": -9.2, "intermolecular_energy": -10.4, "internal_energy": -1.11, "cluster_size": 6, "cluster_id": 1, "rank_in_cluster": 2}

$$$$

     RDKit          3D

 59 64  0  0  0  0  0  0  0  0999 V2000
  145.7190   72.2730  220.6940 N   0  0  0  0  0  0  0  0  0  0  0  0
  145.3010   73.0480  219.5680 C   0  0  0  0  0  0  0  0  0  0  0  0
  145.8790   72.8740  218.4610 O   0  0  0  0  0  0  0  0  0  0  0  0
  144.1980   74.0340  219.6710 C   0  0  0  0  0  0  0  0  0  0  0  0
  143.9930   74.9760  218.6260 C   0  0  0  0  0  0  0  0  0  0  0  0
  142.9580   75.9250  218.7000 C   0  0  0  0  0  0  0  0  0  0  0  0
  142.1500   75.9170  219.8320 C   0  0  0  0  0  0  0  0  0  0  0  0
  141.0820   76.7160  220.1730 C   0  0  0  0  0  0  0  0  0  0  0  0
  140.6740   76.2550  221.4250 C   0  0  0  0  0  0  0  0  0  0  0  0
  139.5390   76.7820  222.2020 C   0  0  0  0  0  0  0  0  0  0  0  0
  138.5580   76.0300  222.4490 O   0  0  0  0  0  0  0  0  0  0  0  0
  139.5040   78.1480  222.6360 N   0  0  0  0  0  0  0  0  0  0  0  0
  138.2750   78.8720  222.9510 C   0  0  0  0  0  0  0  0  0  0  0  0
  138.7220   80.3340  223.3030 C   0  0  1  0  0  0  0  0  0  0  0  0
  138.1680   81.3530  222.3210 C   0  0  0  0  0  0  0  0  0  0  0  0
  136.8260   81.7150  222.9270 C   0  0  0  0  0  0  0  0  0  0  0  0
  136.9630   81.6160  224.3930 N   0  0  0  0  0  0  0  0  0  0  0  0
  135.7500   81.0520  225.0340 C   0  0  1  0  0  0  0  0  0  0  0  0
  134.6300   82.0770  225.1260 C   0  0  0  0  0  0  0  0  0  0  0  0
  133.3440   81.2770  224.9680 C   0  0  0  0  0  0  0  0  0  0  0  0
  133.6840   79.9380  224.4780 N   0  0  0  0  0  0  0  0  0  0  0  0
  135.1170   79.9470  224.1940 C   0  0  0  0  0  0  0  0  0  0  0  0
  138.1720   80.8100  224.6560 C   0  0  0  0  0  0  0  0  0  0  0  0
  140.2230   80.2490  223.2590 C   0  0  0  0  0  0  0  0  0  0  0  0
  141.1650   81.2420  223.5530 C   0  0  0  0  0  0  0  0  0  0  0  0
  142.5300   80.9200  223.4780 C   0  0  0  0  0  0  0  0  0  0  0  0
  142.9320   79.6200  223.1230 C   0  0  0  0  0  0  0  0  0  0  0  0
  141.9740   78.6400  222.8280 C   0  0  0  0  0  0  0  0  0  0  0  0
  140.6200   78.9910  222.8800 C   0  0  0  0  0  0  0  0  0  0  0  0
  141.4420   75.2150  221.8300 N   0  0  0  0  0  0  0  0  0  0  0  0
  142.3390   75.0230  220.8490 C   0  0  0  0  0  0  0  0  0  0  0  0
  143.3540   74.0680  220.8080 C   0  0  0  0  0  0  0  0  0  0  0  0
  145.1790   72.2600  221.5860 H   0  0  0  0  0  0  0  0  0  0  0  0
  146.5370   71.6290  220.6060 H   0  0  0  0  0  0  0  0  0  0  0  0
  144.6538   74.9622  217.7467 H   0  0  0  0  0  0  0  0  0  0  0  0
  142.7928   76.6499  217.8892 H   0  0  0  0  0  0  0  0  0  0  0  0
  140.6458   77.5381  219.5866 H   0  0  0  0  0  0  0  0  0  0  0  0
  137.5991   78.8760  222.0832 H   0  0  0  0  0  0  0  0  0  0  0  0
  137.7293   78.4029  223.7829 H   0  0  0  0  0  0  0  0  0  0  0  0
  138.8226   82.2345  222.2544 H   0  0  0  0  0  0  0  0  0  0  0  0
  138.0902   80.9676  221.2937 H   0  0  0  0  0  0  0  0  0  0  0  0
  136.5500   82.7414  222.6436 H   0  0  0  0  0  0  0  0  0  0  0  0
  136.0400   81.0367  222.5636 H   0  0  0  0  0  0  0  0  0  0  0  0
  136.1046   80.7014  226.0145 H   0  0  0  0  0  0  0  0  0  0  0  0
  134.6510   82.5851  226.1014 H   0  0  0  0  0  0  0  0  0  0  0  0
  134.7245   82.8598  224.3590 H   0  0  0  0  0  0  0  0  0  0  0  0
  132.8349   81.1978  225.9399 H   0  0  0  0  0  0  0  0  0  0  0  0
  132.6738   81.7794  224.2549 H   0  0  0  0  0  0  0  0  0  0  0  0
  133.5140   79.2540  225.2520 H   0  0  0  0  0  0  0  0  0  0  0  0
  135.5577   78.9750  224.4604 H   0  0  0  0  0  0  0  0  0  0  0  0
  135.2963   80.1264  223.1236 H   0  0  0  0  0  0  0  0  0  0  0  0
  138.9258   81.4232  225.1716 H   0  0  0  0  0  0  0  0  0  0  0  0
  137.9284   79.9493  225.2962 H   0  0  0  0  0  0  0  0  0  0  0  0
  140.8424   82.2545  223.8371 H   0  0  0  0  0  0  0  0  0  0  0  0
  143.2871   81.6872  223.6977 H   0  0  0  0  0  0  0  0  0  0  0  0
  144.0025   79.3711  223.0766 H   0  0  0  0  0  0  0  0  0  0  0  0
  142.2797   77.6175  222.5615 H   0  0  0  0  0  0  0  0  0  0  0  0
  141.3580   74.6740  222.7200 H   0  0  0  0  0  0  0  0  0  0  0  0
  143.4957   73.3593  221.6372 H   0  0  0  0  0  0  0  0  0  0  0  0
  1  2  1  0
  2  3  2  0
  2  4  1  0
  4  5  2  0
  5  6  1  0
  6  7  2  0
  7  8  1  0
  8  9  2  0
  9 10  1  0
 10 11  2  0
 10 12  1  0
 12 13  1  0
 14 13  1  6
 14 15  1  0
 15 16  1  0
 16 17  1  0
 17 18  1  0
 18 19  1  0
 19 20  1  0
 20 21  1  0
 21 22  1  0
 17 23  1  0
 14 24  1  0
 24 25  2  0
 25 26  1  0
 26 27  2  0
 27 28  1  0
 28 29  2  0
  9 30  1  0
 30 31  1  0
 31 32  2  0
 32  4  1  0
 31  7  1  0
 29 12  1  0
 23 14  1  0
 29 24  1  0
 22 18  1  0
  1 33  1  0
  1 34  1  0
  5 35  1  0
  6 36  1  0
  8 37  1  0
 13 38  1  0
 13 39  1  0
 15 40  1  0
 15 41  1  0
 16 42  1  0
 16 43  1  0
 18 44  1  1
 19 45  1  0
 19 46  1  0
 20 47  1  0
 20 48  1  0
 21 49  1  0
 22 50  1  0
 22 51  1  0
 23 52  1  0
 23 53  1  0
 25 54  1  0
 26 55  1  0
 27 56  1  0
 28 57  1  0
 30 58  1  0
 32 59  1  0
M  END
>  <meeko>  (3) 
{"free_energy": -8.45, "intermolecular_energy": -9.64, "internal_energy": -1.17, "cluster_size": 11, "cluster_id": 2, "rank_in_cluster": 7}

$$$$

     RDKit          3D

 59 64  0  0  0  0  0  0  0  0999 V2000
  145.7340   72.2820  220.6860 N   0  0  0  0  0  0  0  0  0  0  0  0
  145.3250   73.0590  219.5580 C   0  0  0  0  0  0  0  0  0  0  0  0
  145.9130   72.8870  218.4550 O   0  0  0  0  0  0  0  0  0  0  0  0
  144.2210   74.0450  219.6530 C   0  0  0  0  0  0  0  0  0  0  0  0
  144.0030   74.9650  218.5910 C   0  0  0  0  0  0  0  0  0  0  0  0
  142.9670   75.9130  218.6580 C   0  0  0  0  0  0  0  0  0  0  0  0
  142.1700   75.9260  219.7980 C   0  0  0  0  0  0  0  0  0  0  0  0
  141.1050   76.7300  220.1350 C   0  0  0  0  0  0  0  0  0  0  0  0
  140.7110   76.2940  221.4000 C   0  0  0  0  0  0  0  0  0  0  0  0
  139.5840   76.8350  222.1790 C   0  0  0  0  0  0  0  0  0  0  0  0
  138.5920   76.0960  222.4230 O   0  0  0  0  0  0  0  0  0  0  0  0
  139.5680   78.1990  222.6170 N   0  0  0  0  0  0  0  0  0  0  0  0
  138.3500   78.9360  222.9430 C   0  0  0  0  0  0  0  0  0  0  0  0
  138.8170   80.3930  223.2960 C   0  0  1  0  0  0  0  0  0  0  0  0
  138.2690   81.4220  222.3210 C   0  0  0  0  0  0  0  0  0  0  0  0
  136.9360   81.7970  222.9360 C   0  0  0  0  0  0  0  0  0  0  0  0
  137.0800   81.6920  224.4010 N   0  0  0  0  0  0  0  0  0  0  0  0
  135.8640   81.1410  225.0480 C   0  0  1  0  0  0  0  0  0  0  0  0
  135.9100   81.2910  226.5610 C   0  0  0  0  0  0  0  0  0  0  0  0
  134.4640   81.5120  226.9830 C   0  0  0  0  0  0  0  0  0  0  0  0
  133.6690   81.8120  225.7900 N   0  0  0  0  0  0  0  0  0  0  0  0
  134.6100   81.9250  224.6770 C   0  0  0  0  0  0  0  0  0  0  0  0
  138.2810   80.8700  224.6540 C   0  0  0  0  0  0  0  0  0  0  0  0
  140.3170   80.2890  223.2420 C   0  0  0  0  0  0  0  0  0  0  0  0
  141.2720   81.2700  223.5340 C   0  0  0  0  0  0  0  0  0  0  0  0
  142.6320   80.9320  223.4500 C   0  0  0  0  0  0  0  0  0  0  0  0
  143.0170   79.6280  223.0870 C   0  0  0  0  0  0  0  0  0  0  0  0
  142.0450   78.6610  222.7960 C   0  0  0  0  0  0  0  0  0  0  0  0
  140.6960   79.0280  222.8570 C   0  0  0  0  0  0  0  0  0  0  0  0
  141.4860   75.2640  221.8180 N   0  0  0  0  0  0  0  0  0  0  0  0
  142.3730   75.0540  220.8310 C   0  0  0  0  0  0  0  0  0  0  0  0
  143.3900   74.1000  220.7990 C   0  0  0  0  0  0  0  0  0  0  0  0
  145.1850   72.2680  221.5730 H   0  0  0  0  0  0  0  0  0  0  0  0
  146.5520   71.6380  220.6040 H   0  0  0  0  0  0  0  0  0  0  0  0
  144.6539   74.9346  217.7048 H   0  0  0  0  0  0  0  0  0  0  0  0
  142.7922   76.6218  217.8352 H   0  0  0  0  0  0  0  0  0  0  0  0
  140.6613   77.5398  219.5372 H   0  0  0  0  0  0  0  0  0  0  0  0
  137.6678   78.9503  222.0802 H   0  0  0  0  0  0  0  0  0  0  0  0
  137.8049   78.4708  223.7776 H   0  0  0  0  0  0  0  0  0  0  0  0
  138.9334   82.2961  222.2536 H   0  0  0  0  0  0  0  0  0  0  0  0
  138.1806   81.0413  221.2928 H   0  0  0  0  0  0  0  0  0  0  0  0
  136.6701   82.8274  222.6574 H   0  0  0  0  0  0  0  0  0  0  0  0
  136.1404   81.1285  222.5753 H   0  0  0  0  0  0  0  0  0  0  0  0
  135.8348   80.0938  224.7126 H   0  0  0  0  0  0  0  0  0  0  0  0
  136.3132   80.3798  227.0271 H   0  0  0  0  0  0  0  0  0  0  0  0
  136.5613   82.1208  226.8728 H   0  0  0  0  0  0  0  0  0  0  0  0
  134.0766   80.6037  227.4676 H   0  0  0  0  0  0  0  0  0  0  0  0
  134.4042   82.3489  227.6943 H   0  0  0  0  0  0  0  0  0  0  0  0
  133.0440   80.9950  225.5990 H   0  0  0  0  0  0  0  0  0  0  0  0
  134.1624   81.5054  223.7640 H   0  0  0  0  0  0  0  0  0  0  0  0
  134.8574   82.9799  224.4876 H   0  0  0  0  0  0  0  0  0  0  0  0
  139.0452   81.4719  225.1676 H   0  0  0  0  0  0  0  0  0  0  0  0
  138.0308   80.0098  225.2924 H   0  0  0  0  0  0  0  0  0  0  0  0
  140.9630   82.2853  223.8234 H   0  0  0  0  0  0  0  0  0  0  0  0
  143.3994   81.6891  223.6687 H   0  0  0  0  0  0  0  0  0  0  0  0
  144.0841   79.3668  223.0315 H   0  0  0  0  0  0  0  0  0  0  0  0
  142.3364   77.6354  222.5254 H   0  0  0  0  0  0  0  0  0  0  0  0
  141.4130   74.7410  222.7190 H   0  0  0  0  0  0  0  0  0  0  0  0
  143.5427   73.4089  221.6410 H   0  0  0  0  0  0  0  0  0  0  0  0
  1  2  1  0
  2  3  2  0
  2  4  1  0
  4  5  2  0
  5  6  1  0
  6  7  2  0
  7  8  1  0
  8  9  2  0
  9 10  1  0
 10 11  2  0
 10 12  1  0
 12 13  1  0
 14 13  1  6
 14 15  1  0
 15 16  1  0
 16 17  1  0
 17 18  1  0
 18 19  1  0
 19 20  1  0
 20 21  1  0
 21 22  1  0
 17 23  1  0
 14 24  1  0
 24 25  2  0
 25 26  1  0
 26 27  2  0
 27 28  1  0
 28 29  2  0
  9 30  1  0
 30 31  1  0
 31 32  2  0
 32  4  1  0
 31  7  1  0
 29 12  1  0
 23 14  1  0
 29 24  1  0
 22 18  1  0
  1 33  1  0
  1 34  1  0
  5 35  1  0
  6 36  1  0
  8 37  1  0
 13 38  1  0
 13 39  1  0
 15 40  1  0
 15 41  1  0
 16 42  1  0
 16 43  1  0
 18 44  1  1
 19 45  1  0
 19 46  1  0
 20 47  1  0
 20 48  1  0
 21 49  1  0
 22 50  1  0
 22 51  1  0
 23 52  1  0
 23 53  1  0
 25 54  1  0
 26 55  1  0
 27 56  1  0
 28 57  1  0
 30 58  1  0
 32 59  1  0
M  END
>  <meeko>  (4) 
{"free_energy": -8.7, "intermolecular_energy": -9.9, "internal_energy": -1.1, "cluster_size": 11, "cluster_id": 2, "rank_in_cluster": 4}

$$$$

     RDKit          3D

 59 64  0  0  0  0  0  0  0  0999 V2000
  146.1830   72.5820  221.2360 N   0  0  0  0  0  0  0  0  0  0  0  0
  145.5680   73.2610  220.1380 C   0  0  0  0  0  0  0  0  0  0  0  0
  146.1660   73.2880  219.0280 O   0  0  0  0  0  0  0  0  0  0  0  0
  144.2440   73.9160  220.2730 C   0  0  0  0  0  0  0  0  0  0  0  0
  143.1180   73.1510  220.6850 C   0  0  0  0  0  0  0  0  0  0  0  0
  141.8500   73.7450  220.8160 C   0  0  0  0  0  0  0  0  0  0  0  0
  141.7340   75.1000  220.5220 C   0  0  0  0  0  0  0  0  0  0  0  0
  140.6370   75.9310  220.5580 C   0  0  0  0  0  0  0  0  0  0  0  0
  141.1160   77.1760  220.1500 C   0  0  0  0  0  0  0  0  0  0  0  0
  140.3170   78.4090  220.0500 C   0  0  0  0  0  0  0  0  0  0  0  0
  139.8290   78.7390  218.9350 O   0  0  0  0  0  0  0  0  0  0  0  0
  140.1310   79.2690  221.1810 N   0  0  0  0  0  0  0  0  0  0  0  0
  138.8240   79.7050  221.6670 C   0  0  0  0  0  0  0  0  0  0  0  0
  139.1180   80.6800  222.8610 C   0  0  1  0  0  0  0  0  0  0  0  0
  138.6340   82.0920  222.5780 C   0  0  0  0  0  0  0  0  0  0  0  0
  137.2020   82.0670  223.0710 C   0  0  0  0  0  0  0  0  0  0  0  0
  137.1430   81.1320  224.2110 N   0  0  0  0  0  0  0  0  0  0  0  0
  135.8950   80.3300  224.2170 C   0  0  1  0  0  0  0  0  0  0  0  0
  134.7800   81.0120  223.4390 C   0  0  0  0  0  0  0  0  0  0  0  0
  133.9770   79.8770  222.8190 C   0  0  0  0  0  0  0  0  0  0  0  0
  134.7500   78.6390  222.9330 N   0  0  0  0  0  0  0  0  0  0  0  0
  136.0570   79.0090  223.4710 C   0  0  0  0  0  0  0  0  0  0  0  0
  138.3570   80.2940  224.1380 C   0  0  0  0  0  0  0  0  0  0  0  0
  140.6140   80.5990  223.0020 C   0  0  0  0  0  0  0  0  0  0  0  0
  141.4370   81.2140  223.9540 C   0  0  0  0  0  0  0  0  0  0  0  0
  142.8170   80.9620  223.9130 C   0  0  0  0  0  0  0  0  0  0  0  0
  143.3520   80.1020  222.9380 C   0  0  0  0  0  0  0  0  0  0  0  0
  142.5110   79.4980  221.9910 C   0  0  0  0  0  0  0  0  0  0  0  0
  141.1420   79.7870  222.0320 C   0  0  0  0  0  0  0  0  0  0  0  0
  142.4440   77.1190  219.8890 N   0  0  0  0  0  0  0  0  0  0  0  0
  142.8060   75.8460  220.1180 C   0  0  0  0  0  0  0  0  0  0  0  0
  144.0760   75.2900  219.9770 C   0  0  0  0  0  0  0  0  0  0  0  0
  145.6700   72.3930  222.1240 H   0  0  0  0  0  0  0  0  0  0  0  0
  147.1410   72.1810  221.1270 H   0  0  0  0  0  0  0  0  0  0  0  0
  143.2406   72.0801  220.9042 H   0  0  0  0  0  0  0  0  0  0  0  0
  140.9784   73.1575  221.1403 H   0  0  0  0  0  0  0  0  0  0  0  0
  139.6078   75.6703  220.8456 H   0  0  0  0  0  0  0  0  0  0  0  0
  138.2740   80.2284  220.8711 H   0  0  0  0  0  0  0  0  0  0  0  0
  138.2034   78.8532  221.9821 H   0  0  0  0  0  0  0  0  0  0  0  0
  139.2298   82.8325  223.1318 H   0  0  0  0  0  0  0  0  0  0  0  0
  138.7228   82.3765  221.5191 H   0  0  0  0  0  0  0  0  0  0  0  0
  136.8983   83.0736  223.3944 H   0  0  0  0  0  0  0  0  0  0  0  0
  136.5212   81.7447  222.2693 H   0  0  0  0  0  0  0  0  0  0  0  0
  135.6670   80.1990  225.2851 H   0  0  0  0  0  0  0  0  0  0  0  0
  134.1480   81.6088  224.1130 H   0  0  0  0  0  0  0  0  0  0  0  0
  135.1716   81.7032  222.6782 H   0  0  0  0  0  0  0  0  0  0  0  0
  133.0205   79.7666  223.3509 H   0  0  0  0  0  0  0  0  0  0  0  0
  133.7738   80.0961  221.7604 H   0  0  0  0  0  0  0  0  0  0  0  0
  134.2780   78.0220  223.6350 H   0  0  0  0  0  0  0  0  0  0  0  0
  136.4120   78.2299  224.1616 H   0  0  0  0  0  0  0  0  0  0  0  0
  136.7922   79.1128  222.6594 H   0  0  0  0  0  0  0  0  0  0  0  0
  138.9897   80.4743  225.0196 H   0  0  0  0  0  0  0  0  0  0  0  0
  138.0871   79.2278  224.1170 H   0  0  0  0  0  0  0  0  0  0  0  0
  141.0105   81.8807  224.7180 H   0  0  0  0  0  0  0  0  0  0  0  0
  143.4829   81.4394  224.6469 H   0  0  0  0  0  0  0  0  0  0  0  0
  144.4335   79.9019  222.9175 H   0  0  0  0  0  0  0  0  0  0  0  0
  142.9185   78.8126  221.2332 H   0  0  0  0  0  0  0  0  0  0  0  0
  143.0620   77.9010  219.5730 H   0  0  0  0  0  0  0  0  0  0  0  0
  144.9264   75.9033  219.6441 H   0  0  0  0  0  0  0  0  0  0  0  0
  1  2  1  0
  2  3  2  0
  2  4  1  0
  4  5  2  0
  5  6  1  0
  6  7  2  0
  7  8  1  0
  8  9  2  0
  9 10  1  0
 10 11  2  0
 10 12  1  0
 12 13  1  0
 14 13  1  6
 14 15  1  0
 15 16  1  0
 16 17  1  0
 17 18  1  0
 18 19  1  0
 19 20  1  0
 20 21  1  0
 21 22  1  0
 17 23  1  0
 14 24  1  0
 24 25  2  0
 25 26  1  0
 26 27  2  0
 27 28  1  0
 28 29  2  0
  9 30  1  0
 30 31  1  0
 31 32  2  0
 32  4  1  0
 31  7  1  0
 29 12  1  0
 23 14  1  0
 29 24  1  0
 22 18  1  0
  1 33  1  0
  1 34  1  0
  5 35  1  0
  6 36  1  0
  8 37  1  0
 13 38  1  0
 13 39  1  0
 15 40  1  0
 15 41  1  0
 16 42  1  0
 16 43  1  0
 18 44  1  1
 19 45  1  0
 19 46  1  0
 20 47  1  0
 20 48  1  0
 21 49  1  0
 22 50  1  0
 22 51  1  0
 23 52  1  0
 23 53  1  0
 25 54  1  0
 26 55  1  0
 27 56  1  0
 28 57  1  0
 30 58  1  0
 32 59  1  0
M  END
>  <meeko>  (5) 
{"free_energy": -8.27, "intermolecular_energy": -9.46, "internal_energy": -1.28, "cluster_size": 11, "cluster_id": 2, "rank_in_cluster": 11}

$$$$

     RDKit          3D

 59 64  0  0  0  0  0  0  0  0999 V2000
  145.6670   72.2650  220.6820 N   0  0  0  0  0  0  0  0  0  0  0  0
  145.2350   73.0200  219.5470 C   0  0  0  0  0  0  0  0  0  0  0  0
  145.7880   72.8140  218.4320 O   0  0  0  0  0  0  0  0  0  0  0  0
  144.1470   74.0230  219.6500 C   0  0  0  0  0  0  0  0  0  0  0  0
  143.9570   74.9680  218.6050 C   0  0  0  0  0  0  0  0  0  0  0  0
  142.9370   75.9330  218.6800 C   0  0  0  0  0  0  0  0  0  0  0  0
  142.1270   75.9360  219.8110 C   0  0  0  0  0  0  0  0  0  0  0  0
  141.0710   76.7510  220.1520 C   0  0  0  0  0  0  0  0  0  0  0  0
  140.6550   76.2950  221.4020 C   0  0  0  0  0  0  0  0  0  0  0  0
  139.5270   76.8380  222.1800 C   0  0  0  0  0  0  0  0  0  0  0  0
  138.5360   76.1010  222.4260 O   0  0  0  0  0  0  0  0  0  0  0  0
  139.5120   78.2040  222.6130 N   0  0  0  0  0  0  0  0  0  0  0  0
  138.2940   78.9430  222.9350 C   0  0  0  0  0  0  0  0  0  0  0  0
  138.7610   80.4000  223.2840 C   0  0  1  0  0  0  0  0  0  0  0  0
  138.2140   81.4260  222.3060 C   0  0  0  0  0  0  0  0  0  0  0  0
  136.8810   81.8050  222.9190 C   0  0  0  0  0  0  0  0  0  0  0  0
  137.0240   81.7040  224.3840 N   0  0  0  0  0  0  0  0  0  0  0  0
  135.8080   81.1550  225.0320 C   0  0  1  0  0  0  0  0  0  0  0  0
  135.8650   81.2870  226.5460 C   0  0  0  0  0  0  0  0  0  0  0  0
  134.4230   81.5150  226.9800 C   0  0  0  0  0  0  0  0  0  0  0  0
  133.6230   81.8370  225.7960 N   0  0  0  0  0  0  0  0  0  0  0  0
  134.5580   81.9550  224.6790 C   0  0  0  0  0  0  0  0  0  0  0  0
  138.2240   80.8820  224.6400 C   0  0  0  0  0  0  0  0  0  0  0  0
  140.2610   80.2960  223.2320 C   0  0  0  0  0  0  0  0  0  0  0  0
  141.2170   81.2780  223.5210 C   0  0  0  0  0  0  0  0  0  0  0  0
  142.5770   80.9390  223.4390 C   0  0  0  0  0  0  0  0  0  0  0  0
  142.9610   79.6340  223.0810 C   0  0  0  0  0  0  0  0  0  0  0  0
  141.9880   78.6650  222.7920 C   0  0  0  0  0  0  0  0  0  0  0  0
  140.6390   79.0340  222.8510 C   0  0  0  0  0  0  0  0  0  0  0  0
  141.4070   75.2430  221.8080 N   0  0  0  0  0  0  0  0  0  0  0  0
  142.3020   75.0380  220.8270 C   0  0  0  0  0  0  0  0  0  0  0  0
  143.3030   74.0690  220.7870 C   0  0  0  0  0  0  0  0  0  0  0  0
  145.1440   72.2790  221.5840 H   0  0  0  0  0  0  0  0  0  0  0  0
  146.4740   71.6080  220.5920 H   0  0  0  0  0  0  0  0  0  0  0  0
  144.6172   74.9440  217.7254 H   0  0  0  0  0  0  0  0  0  0  0  0
  142.7845   76.6620  217.8705 H   0  0  0  0  0  0  0  0  0  0  0  0
  140.6481   77.5805  219.5663 H   0  0  0  0  0  0  0  0  0  0  0  0
  137.6131   78.9551  222.0712 H   0  0  0  0  0  0  0  0  0  0  0  0
  137.7476   78.4808  223.7703 H   0  0  0  0  0  0  0  0  0  0  0  0
  138.8793   82.2992  222.2358 H   0  0  0  0  0  0  0  0  0  0  0  0
  138.1251   81.0416  221.2792 H   0  0  0  0  0  0  0  0  0  0  0  0
  136.6169   82.8350  222.6372 H   0  0  0  0  0  0  0  0  0  0  0  0
  136.0845   81.1369  222.5597 H   0  0  0  0  0  0  0  0  0  0  0  0
  135.7677   80.1122  224.6843 H   0  0  0  0  0  0  0  0  0  0  0  0
  136.2636   80.3672  226.9989 H   0  0  0  0  0  0  0  0  0  0  0  0
  136.5251   82.1078  226.8632 H   0  0  0  0  0  0  0  0  0  0  0  0
  134.0308   80.6039  227.4554 H   0  0  0  0  0  0  0  0  0  0  0  0
  134.3748   82.3433  227.7022 H   0  0  0  0  0  0  0  0  0  0  0  0
  132.9900   81.0270  225.6000 H   0  0  0  0  0  0  0  0  0  0  0  0
  134.1008   81.5507  223.7638 H   0  0  0  0  0  0  0  0  0  0  0  0
  134.8139   83.0100  224.5014 H   0  0  0  0  0  0  0  0  0  0  0  0
  138.9883   81.4849  225.1522 H   0  0  0  0  0  0  0  0  0  0  0  0
  137.9724   80.0239  225.2806 H   0  0  0  0  0  0  0  0  0  0  0  0
  140.9084   82.2945  223.8065 H   0  0  0  0  0  0  0  0  0  0  0  0
  143.3448   81.6964  223.6554 H   0  0  0  0  0  0  0  0  0  0  0  0
  144.0280   79.3721  223.0274 H   0  0  0  0  0  0  0  0  0  0  0  0
  142.2789   77.6383  222.5251 H   0  0  0  0  0  0  0  0  0  0  0  0
  141.3140   74.7020  222.6970 H   0  0  0  0  0  0  0  0  0  0  0  0
  143.4343   73.3586  221.6165 H   0  0  0  0  0  0  0  0  0  0  0  0
  1  2  1  0
  2  3  2  0
  2  4  1  0
  4  5  2  0
  5  6  1  0
  6  7  2  0
  7  8  1  0
  8  9  2  0
  9 10  1  0
 10 11  2  0
 10 12  1  0
 12 13  1  0
 14 13  1  6
 14 15  1  0
 15 16  1  0
 16 17  1  0
 17 18  1  0
 18 19  1  0
 19 20  1  0
 20 21  1  0
 21 22  1  0
 17 23  1  0
 14 24  1  0
 24 25  2  0
 25 26  1  0
 26 27  2  0
 27 28  1  0
 28 29  2  0
  9 30  1  0
 30 31  1  0
 31 32  2  0
 32  4  1  0
 31  7  1  0
 29 12  1  0
 23 14  1  0
 29 24  1  0
 22 18  1  0
  1 33  1  0
  1 34  1  0
  5 35  1  0
  6 36  1  0
  8 37  1  0
 13 38  1  0
 13 39  1  0
 15 40  1  0
 15 41  1  0
 16 42  1  0
 16 43  1  0
 18 44  1  1
 19 45  1  0
 19 46  1  0
 20 47  1  0
 20 48  1  0
 21 49  1  0
 22 50  1  0
 22 51  1  0
 23 52  1  0
 23 53  1  0
 25 54  1  0
 26 55  1  0
 27 56  1  0
 28 57  1  0
 30 58  1  0
 32 59  1  0
M  END
>  <meeko>  (6) 
{"free_energy": -8.71, "intermolecular_energy": -9.9, "internal_energy": -1.1, "cluster_size": 11, "cluster_id": 2, "rank_in_cluster": 3}

$$$$

     RDKit          3D

 59 64  0  0  0  0  0  0  0  0999 V2000
  145.4610   72.0870  220.4530 N   0  0  0  0  0  0  0  0  0  0  0  0
  145.1930   73.0480  219.4290 C   0  0  0  0  0  0  0  0  0  0  0  0
  145.8950   73.0310  218.3810 O   0  0  0  0  0  0  0  0  0  0  0  0
  144.1040   74.0450  219.5650 C   0  0  0  0  0  0  0  0  0  0  0  0
  143.8920   75.0040  218.5370 C   0  0  0  0  0  0  0  0  0  0  0  0
  142.8700   75.9640  218.6440 C   0  0  0  0  0  0  0  0  0  0  0  0
  142.0810   75.9490  219.7880 C   0  0  0  0  0  0  0  0  0  0  0  0
  141.0290   76.7550  220.1600 C   0  0  0  0  0  0  0  0  0  0  0  0
  140.6360   76.2810  221.4110 C   0  0  0  0  0  0  0  0  0  0  0  0
  139.5210   76.8100  222.2160 C   0  0  0  0  0  0  0  0  0  0  0  0
  138.5410   76.0620  222.4780 O   0  0  0  0  0  0  0  0  0  0  0  0
  139.5040   78.1730  222.6580 N   0  0  0  0  0  0  0  0  0  0  0  0
  138.2870   78.9000  223.0090 C   0  0  0  0  0  0  0  0  0  0  0  0
  138.7500   80.3580  223.3580 C   0  0  1  0  0  0  0  0  0  0  0  0
  138.1750   81.3860  222.3970 C   0  0  0  0  0  0  0  0  0  0  0  0
  136.8520   81.7500  223.0380 C   0  0  0  0  0  0  0  0  0  0  0  0
  137.0240   81.6410  224.5000 N   0  0  0  0  0  0  0  0  0  0  0  0
  135.8250   81.0790  225.1670 C   0  0  1  0  0  0  0  0  0  0  0  0
  135.8530   81.3090  226.6710 C   0  0  0  0  0  0  0  0  0  0  0  0
  134.3970   81.4970  227.0720 C   0  0  0  0  0  0  0  0  0  0  0  0
  133.6000   81.7050  225.8600 N   0  0  0  0  0  0  0  0  0  0  0  0
  134.5450   81.7950  224.7490 C   0  0  0  0  0  0  0  0  0  0  0  0
  138.2350   80.8280  224.7270 C   0  0  0  0  0  0  0  0  0  0  0  0
  140.2490   80.2660  223.2760 C   0  0  0  0  0  0  0  0  0  0  0  0
  141.2020   81.2530  223.5540 C   0  0  0  0  0  0  0  0  0  0  0  0
  142.5630   80.9260  223.4430 C   0  0  0  0  0  0  0  0  0  0  0  0
  142.9500   79.6260  223.0690 C   0  0  0  0  0  0  0  0  0  0  0  0
  141.9800   78.6520  222.7920 C   0  0  0  0  0  0  0  0  0  0  0  0
  140.6290   79.0090  222.8800 C   0  0  0  0  0  0  0  0  0  0  0  0
  141.3990   75.2260  221.7880 N   0  0  0  0  0  0  0  0  0  0  0  0
  142.2770   75.0380  220.7890 C   0  0  0  0  0  0  0  0  0  0  0  0
  143.2800   74.0720  220.7170 C   0  0  0  0  0  0  0  0  0  0  0  0
  144.8190   71.9530  221.2640 H   0  0  0  0  0  0  0  0  0  0  0  0
  146.2710   71.4360  220.3550 H   0  0  0  0  0  0  0  0  0  0  0  0
  144.5364   74.9949  217.6455 H   0  0  0  0  0  0  0  0  0  0  0  0
  142.7004   76.7034  217.8474 H   0  0  0  0  0  0  0  0  0  0  0  0
  140.5932   77.5912  219.5936 H   0  0  0  0  0  0  0  0  0  0  0  0
  137.5888   78.9123  222.1591 H   0  0  0  0  0  0  0  0  0  0  0  0
  137.7607   78.4282  223.8518 H   0  0  0  0  0  0  0  0  0  0  0  0
  138.8316   82.2651  222.3193 H   0  0  0  0  0  0  0  0  0  0  0  0
  138.0690   81.0071  221.3698 H   0  0  0  0  0  0  0  0  0  0  0  0
  136.5742   82.7795  222.7680 H   0  0  0  0  0  0  0  0  0  0  0  0
  136.0542   81.0774  222.6900 H   0  0  0  0  0  0  0  0  0  0  0  0
  135.8380   80.0156  224.8858 H   0  0  0  0  0  0  0  0  0  0  0  0
  136.2860   80.4390  227.1865 H   0  0  0  0  0  0  0  0  0  0  0  0
  136.4703   82.1779  226.9430 H   0  0  0  0  0  0  0  0  0  0  0  0
  134.0399   80.6010  227.6008 H   0  0  0  0  0  0  0  0  0  0  0  0
  134.3006   82.3669  227.7383 H   0  0  0  0  0  0  0  0  0  0  0  0
  133.0070   80.8560  225.7090 H   0  0  0  0  0  0  0  0  0  0  0  0
  134.1204   81.3121  223.8565 H   0  0  0  0  0  0  0  0  0  0  0  0
  134.7547   82.8474  224.5071 H   0  0  0  0  0  0  0  0  0  0  0  0
  139.0041   81.4344  225.2278 H   0  0  0  0  0  0  0  0  0  0  0  0
  138.0027   79.9640  225.3669 H   0  0  0  0  0  0  0  0  0  0  0  0
  140.8908   82.2647  223.8535 H   0  0  0  0  0  0  0  0  0  0  0  0
  143.3288   81.6883  223.6490 H   0  0  0  0  0  0  0  0  0  0  0  0
  144.0178   79.3727  222.9936 H   0  0  0  0  0  0  0  0  0  0  0  0
  142.2741   77.6298  222.5117 H   0  0  0  0  0  0  0  0  0  0  0  0
  141.3240   74.6730  222.6710 H   0  0  0  0  0  0  0  0  0  0  0  0
  143.4276   73.3497  221.5334 H   0  0  0  0  0  0  0  0  0  0  0  0
  1  2  1  0
  2  3  2  0
  2  4  1  0
  4  5  2  0
  5  6  1  0
  6  7  2  0
  7  8  1  0
  8  9  2  0
  9 10  1  0
 10 11  2  0
 10 12  1  0
 12 13  1  0
 14 13  1  6
 14 15  1  0
 15 16  1  0
 16 17  1  0
 17 18  1  0
 18 19  1  0
 19 20  1  0
 20 21  1  0
 21 22  1  0
 17 23  1  0
 14 24  1  0
 24 25  2  0
 25 26  1  0
 26 27  2  0
 27 28  1  0
 28 29  2  0
  9 30  1  0
 30 31  1  0
 31 32  2  0
 32  4  1  0
 31  7  1  0
 29 12  1  0
 23 14  1  0
 29 24  1  0
 22 18  1  0
  1 33  1  0
  1 34  1  0
  5 35  1  0
  6 36  1  0
  8 37  1  0
 13 38  1  0
 13 39  1  0
 15 40  1  0
 15 41  1  0
 16 42  1  0
 16 43  1  0
 18 44  1  1
 19 45  1  0
 19 46  1  0
 20 47  1  0
 20 48  1  0
 21 49  1  0
 22 50  1  0
 22 51  1  0
 23 52  1  0
 23 53  1  0
 25 54  1  0
 26 55  1  0
 27 56  1  0
 28 57  1  0
 30 58  1  0
 32 59  1  0
M  END
>  <meeko>  (7) 
{"free_energy": -8.63, "intermolecular_energy": -9.83, "internal_energy": -1.11, "cluster_size": 11, "cluster_id": 2, "rank_in_cluster": 6}

$$$$

     RDKit          3D

 59 64  0  0  0  0  0  0  0  0999 V2000
  145.5240   72.1480  220.5360 N   0  0  0  0  0  0  0  0  0  0  0  0
  145.2440   73.0790  219.4880 C   0  0  0  0  0  0  0  0  0  0  0  0
  145.9550   73.0520  218.4450 O   0  0  0  0  0  0  0  0  0  0  0  0
  144.1330   74.0570  219.5920 C   0  0  0  0  0  0  0  0  0  0  0  0
  143.8890   74.9630  218.5250 C   0  0  0  0  0  0  0  0  0  0  0  0
  142.8460   75.9040  218.6010 C   0  0  0  0  0  0  0  0  0  0  0  0
  142.0700   75.9220  219.7540 C   0  0  0  0  0  0  0  0  0  0  0  0
  141.0030   76.7200  220.1020 C   0  0  0  0  0  0  0  0  0  0  0  0
  140.6350   76.2930  221.3770 C   0  0  0  0  0  0  0  0  0  0  0  0
  139.5170   76.8320  222.1710 C   0  0  0  0  0  0  0  0  0  0  0  0
  138.5320   76.0900  222.4310 O   0  0  0  0  0  0  0  0  0  0  0  0
  139.5030   78.1980  222.6050 N   0  0  0  0  0  0  0  0  0  0  0  0
  138.2840   78.9410  222.9140 C   0  0  0  0  0  0  0  0  0  0  0  0
  138.7540   80.3960  223.2690 C   0  0  1  0  0  0  0  0  0  0  0  0
  138.2210   81.4250  222.2850 C   0  0  0  0  0  0  0  0  0  0  0  0
  136.8830   81.8090  222.8840 C   0  0  0  0  0  0  0  0  0  0  0  0
  137.0100   81.7070  224.3510 N   0  0  0  0  0  0  0  0  0  0  0  0
  135.7850   81.1620  224.9850 C   0  0  1  0  0  0  0  0  0  0  0  0
  134.6130   82.1260  224.8730 C   0  0  0  0  0  0  0  0  0  0  0  0
  133.3810   81.2410  224.7430 C   0  0  0  0  0  0  0  0  0  0  0  0
  133.8160   79.8730  224.4550 N   0  0  0  0  0  0  0  0  0  0  0  0
  135.2640   79.9250  224.2610 C   0  0  0  0  0  0  0  0  0  0  0  0
  138.2040   80.8800  224.6190 C   0  0  0  0  0  0  0  0  0  0  0  0
  140.2530   80.2860  223.2330 C   0  0  0  0  0  0  0  0  0  0  0  0
  141.2100   81.2630  223.5330 C   0  0  0  0  0  0  0  0  0  0  0  0
  142.5690   80.9190  223.4650 C   0  0  0  0  0  0  0  0  0  0  0  0
  142.9520   79.6130  223.1110 C   0  0  0  0  0  0  0  0  0  0  0  0
  141.9790   78.6490  222.8110 C   0  0  0  0  0  0  0  0  0  0  0  0
  140.6310   79.0220  222.8560 C   0  0  0  0  0  0  0  0  0  0  0  0
  141.4260   75.2740  221.7920 N   0  0  0  0  0  0  0  0  0  0  0  0
  142.2980   75.0610  220.7920 C   0  0  0  0  0  0  0  0  0  0  0  0
  143.3220   74.1160  220.7510 C   0  0  0  0  0  0  0  0  0  0  0  0
  144.8780   72.0200  221.3450 H   0  0  0  0  0  0  0  0  0  0  0  0
  146.3480   71.5120  220.4600 H   0  0  0  0  0  0  0  0  0  0  0  0
  144.5241   74.9282  217.6275 H   0  0  0  0  0  0  0  0  0  0  0  0
  142.6508   76.6031  217.7745 H   0  0  0  0  0  0  0  0  0  0  0  0
  140.5417   77.5199  219.5043 H   0  0  0  0  0  0  0  0  0  0  0  0
  137.6126   78.9564  222.0428 H   0  0  0  0  0  0  0  0  0  0  0  0
  137.7260   78.4804  223.7425 H   0  0  0  0  0  0  0  0  0  0  0  0
  138.8904   82.2956  222.2221 H   0  0  0  0  0  0  0  0  0  0  0  0
  138.1415   81.0412  221.2572 H   0  0  0  0  0  0  0  0  0  0  0  0
  136.6259   82.8401  222.5997 H   0  0  0  0  0  0  0  0  0  0  0  0
  136.0878   81.1440  222.5160 H   0  0  0  0  0  0  0  0  0  0  0  0
  136.0890   80.9601  226.0227 H   0  0  0  0  0  0  0  0  0  0  0  0
  134.5432   82.7550  225.7728 H   0  0  0  0  0  0  0  0  0  0  0  0
  134.7217   82.8086  224.0173 H   0  0  0  0  0  0  0  0  0  0  0  0
  132.8115   81.2583  225.6839 H   0  0  0  0  0  0  0  0  0  0  0  0
  132.7380   81.6095  223.9301 H   0  0  0  0  0  0  0  0  0  0  0  0
  133.6270   79.2850  225.3000 H   0  0  0  0  0  0  0  0  0  0  0  0
  135.7308   79.0214  224.6800 H   0  0  0  0  0  0  0  0  0  0  0  0
  135.5075   79.9748  223.1894 H   0  0  0  0  0  0  0  0  0  0  0  0
  138.9651   81.4797  225.1396 H   0  0  0  0  0  0  0  0  0  0  0  0
  137.9418   80.0226  225.2562 H   0  0  0  0  0  0  0  0  0  0  0  0
  140.9027   82.2804  223.8165 H   0  0  0  0  0  0  0  0  0  0  0  0
  143.3373   81.6736  223.6894 H   0  0  0  0  0  0  0  0  0  0  0  0
  144.0185   79.3468  223.0693 H   0  0  0  0  0  0  0  0  0  0  0  0
  142.2691   77.6216  222.5460 H   0  0  0  0  0  0  0  0  0  0  0  0
  141.3730   74.7590  222.6990 H   0  0  0  0  0  0  0  0  0  0  0  0
  143.4953   73.4343  221.5967 H   0  0  0  0  0  0  0  0  0  0  0  0
  1  2  1  0
  2  3  2  0
  2  4  1  0
  4  5  2  0
  5  6  1  0
  6  7  2  0
  7  8  1  0
  8  9  2  0
  9 10  1  0
 10 11  2  0
 10 12  1  0
 12 13  1  0
 14 13  1  6
 14 15  1  0
 15 16  1  0
 16 17  1  0
 17 18  1  0
 18 19  1  0
 19 20  1  0
 20 21  1  0
 21 22  1  0
 17 23  1  0
 14 24  1  0
 24 25  2  0
 25 26  1  0
 26 27  2  0
 27 28  1  0
 28 29  2  0
  9 30  1  0
 30 31  1  0
 31 32  2  0
 32  4  1  0
 31  7  1  0
 29 12  1  0
 23 14  1  0
 29 24  1  0
 22 18  1  0
  1 33  1  0
  1 34  1  0
  5 35  1  0
  6 36  1  0
  8 37  1  0
 13 38  1  0
 13 39  1  0
 15 40  1  0
 15 41  1  0
 16 42  1  0
 16 43  1  0
 18 44  1  1
 19 45  1  0
 19 46  1  0
 20 47  1  0
 20 48  1  0
 21 49  1  0
 22 50  1  0
 22 51  1  0
 23 52  1  0
 23 53  1  0
 25 54  1  0
 26 55  1  0
 27 56  1  0
 28 57  1  0
 30 58  1  0
 32 59  1  0
M  END
>  <meeko>  (8) 
{"free_energy": -8.35, "intermolecular_energy": -9.54, "internal_energy": -1.19, "cluster_size": 11, "cluster_id": 2, "rank_in_cluster": 9}

$$$$

     RDKit          3D

 59 64  0  0  0  0  0  0  0  0999 V2000
  145.6370   72.3260  220.7580 N   0  0  0  0  0  0  0  0  0  0  0  0
  145.2800   73.1230  219.6250 C   0  0  0  0  0  0  0  0  0  0  0  0
  145.9430   72.9970  218.5590 O   0  0  0  0  0  0  0  0  0  0  0  0
  144.1430   74.0750  219.6730 C   0  0  0  0  0  0  0  0  0  0  0  0
  143.8700   74.9040  218.5510 C   0  0  0  0  0  0  0  0  0  0  0  0
  142.8020   75.8190  218.5710 C   0  0  0  0  0  0  0  0  0  0  0  0
  142.0300   75.8910  219.7260 C   0  0  0  0  0  0  0  0  0  0  0  0
  140.9440   76.6810  220.0270 C   0  0  0  0  0  0  0  0  0  0  0  0
  140.5930   76.3280  221.3300 C   0  0  0  0  0  0  0  0  0  0  0  0
  139.4640   76.8870  222.0940 C   0  0  0  0  0  0  0  0  0  0  0  0
  138.4470   76.1730  222.3020 O   0  0  0  0  0  0  0  0  0  0  0  0
  139.4770   78.2430  222.5560 N   0  0  0  0  0  0  0  0  0  0  0  0
  138.2760   78.9920  222.9190 C   0  0  0  0  0  0  0  0  0  0  0  0
  138.7710   80.4350  223.2880 C   0  0  1  0  0  0  0  0  0  0  0  0
  138.2180   81.4890  222.3430 C   0  0  0  0  0  0  0  0  0  0  0  0
  136.9030   81.8720  222.9920 C   0  0  0  0  0  0  0  0  0  0  0  0
  137.0750   81.7380  224.4520 N   0  0  0  0  0  0  0  0  0  0  0  0
  135.8660   81.1930  225.1130 C   0  0  1  0  0  0  0  0  0  0  0  0
  135.9540   81.2950  226.6280 C   0  0  0  0  0  0  0  0  0  0  0  0
  134.5240   81.5330  227.0950 C   0  0  0  0  0  0  0  0  0  0  0  0
  133.7060   81.8870  225.9330 N   0  0  0  0  0  0  0  0  0  0  0  0
  134.6190   82.0140  224.7990 C   0  0  0  0  0  0  0  0  0  0  0  0
  138.2690   80.8950  224.6650 C   0  0  0  0  0  0  0  0  0  0  0  0
  140.2680   80.3110  223.2020 C   0  0  0  0  0  0  0  0  0  0  0  0
  141.2430   81.2730  223.4920 C   0  0  0  0  0  0  0  0  0  0  0  0
  142.5960   80.9180  223.3740 C   0  0  0  0  0  0  0  0  0  0  0  0
  142.9550   79.6150  222.9800 C   0  0  0  0  0  0  0  0  0  0  0  0
  141.9630   78.6670  222.6920 C   0  0  0  0  0  0  0  0  0  0  0  0
  140.6210   79.0520  222.7870 C   0  0  0  0  0  0  0  0  0  0  0  0
  141.4130   75.3590  221.8050 N   0  0  0  0  0  0  0  0  0  0  0  0
  142.2860   75.1050  220.8160 C   0  0  0  0  0  0  0  0  0  0  0  0
  143.3350   74.1880  220.8300 C   0  0  0  0  0  0  0  0  0  0  0  0
  145.0330   72.2730  221.6060 H   0  0  0  0  0  0  0  0  0  0  0  0
  146.4770   71.7080  220.7130 H   0  0  0  0  0  0  0  0  0  0  0  0
  144.5029   74.8288  217.6545 H   0  0  0  0  0  0  0  0  0  0  0  0
  142.5843   76.4569  217.7017 H   0  0  0  0  0  0  0  0  0  0  0  0
  140.4588   77.4276  219.3811 H   0  0  0  0  0  0  0  0  0  0  0  0
  137.5774   79.0315  222.0702 H   0  0  0  0  0  0  0  0  0  0  0  0
  137.7405   78.5200  223.7559 H   0  0  0  0  0  0  0  0  0  0  0  0
  138.8935   82.3547  222.2773 H   0  0  0  0  0  0  0  0  0  0  0  0
  138.1030   81.1280  221.3103 H   0  0  0  0  0  0  0  0  0  0  0  0
  136.6468   82.9110  222.7375 H   0  0  0  0  0  0  0  0  0  0  0  0
  136.0904   81.2218  222.6356 H   0  0  0  0  0  0  0  0  0  0  0  0
  135.8059   80.1575  224.7467 H   0  0  0  0  0  0  0  0  0  0  0  0
  136.3492   80.3616  227.0553 H   0  0  0  0  0  0  0  0  0  0  0  0
  136.6308   82.1011  226.9475 H   0  0  0  0  0  0  0  0  0  0  0  0
  134.1293   80.6182  227.5613 H   0  0  0  0  0  0  0  0  0  0  0  0
  134.5005   82.3479  227.8335 H   0  0  0  0  0  0  0  0  0  0  0  0
  133.0580   81.0880  225.7340 H   0  0  0  0  0  0  0  0  0  0  0  0
  134.1385   81.6313  223.8865 H   0  0  0  0  0  0  0  0  0  0  0  0
  134.8838   83.0688  224.6339 H   0  0  0  0  0  0  0  0  0  0  0  0
  139.0519   81.4768  225.1735 H   0  0  0  0  0  0  0  0  0  0  0  0
  138.0193   80.0268  225.2925 H   0  0  0  0  0  0  0  0  0  0  0  0
  140.9545   82.2870  223.8061 H   0  0  0  0  0  0  0  0  0  0  0  0
  143.3783   81.6604  223.5901 H   0  0  0  0  0  0  0  0  0  0  0  0
  144.0169   79.3399  222.8979 H   0  0  0  0  0  0  0  0  0  0  0  0
  142.2339   77.6423  222.3976 H   0  0  0  0  0  0  0  0  0  0  0  0
  141.3780   74.9030  222.7440 H   0  0  0  0  0  0  0  0  0  0  0  0
  143.5303   73.5678  221.7173 H   0  0  0  0  0  0  0  0  0  0  0  0
  1  2  1  0
  2  3  2  0
  2  4  1  0
  4  5  2  0
  5  6  1  0
  6  7  2  0
  7  8  1  0
  8  9  2  0
  9 10  1  0
 10 11  2  0
 10 12  1  0
 12 13  1  0
 14 13  1  6
 14 15  1  0
 15 16  1  0
 16 17  1  0
 17 18  1  0
 18 19  1  0
 19 20  1  0
 20 21  1  0
 21 22  1  0
 17 23  1  0
 14 24  1  0
 24 25  2  0
 25 26  1  0
 26 27  2  0
 27 28  1  0
 28 29  2  0
  9 30  1  0
 30 31  1  0
 31 32  2  0
 32  4  1  0
 31  7  1  0
 29 12  1  0
 23 14  1  0
 29 24  1  0
 22 18  1  0
  1 33  1  0
  1 34  1  0
  5 35  1  0
  6 36  1  0
  8 37  1  0
 13 38  1  0
 13 39  1  0
 15 40  1  0
 15 41  1  0
 16 42  1  0
 16 43  1  0
 18 44  1  1
 19 45  1  0
 19 46  1  0
 20 47  1  0
 20 48  1  0
 21 49  1  0
 22 50  1  0
 22 51  1  0
 23 52  1  0
 23 53  1  0
 25 54  1  0
 26 55  1  0
 27 56  1  0
 28 57  1  0
 30 58  1  0
 32 59  1  0
M  END
>  <meeko>  (9) 
{"free_energy": -8.7, "intermolecular_energy": -9.89, "internal_energy": -1.09, "cluster_size": 11, "cluster_id": 2, "rank_in_cluster": 5}

$$$$

     RDKit          3D

 59 64  0  0  0  0  0  0  0  0999 V2000
  141.0150   67.6220  227.0200 N   0  0  0  0  0  0  0  0  0  0  0  0
  139.8220   67.7040  226.2360 C   0  0  0  0  0  0  0  0  0  0  0  0
  138.8290   66.9990  226.5630 O   0  0  0  0  0  0  0  0  0  0  0  0
  139.7240   68.6080  225.0630 C   0  0  0  0  0  0  0  0  0  0  0  0
  139.1130   68.1460  223.8660 C   0  0  0  0  0  0  0  0  0  0  0  0
  139.0130   68.9790  222.7380 C   0  0  0  0  0  0  0  0  0  0  0  0
  139.5360   70.2640  222.8310 C   0  0  0  0  0  0  0  0  0  0  0  0
  139.5820   71.2800  221.9020 C   0  0  0  0  0  0  0  0  0  0  0  0
  140.2340   72.3290  222.5490 C   0  0  0  0  0  0  0  0  0  0  0  0
  140.5050   73.6570  221.9700 C   0  0  0  0  0  0  0  0  0  0  0  0
  139.6800   74.5910  222.1580 O   0  0  0  0  0  0  0  0  0  0  0  0
  141.6580   73.8900  221.1520 N   0  0  0  0  0  0  0  0  0  0  0  0
  142.6640   72.8740  220.8530 C   0  0  0  0  0  0  0  0  0  0  0  0
  143.7600   73.6020  219.9970 C   0  0  1  0  0  0  0  0  0  0  0  0
  145.1060   73.6360  220.7000 C   0  0  0  0  0  0  0  0  0  0  0  0
  145.7540   72.3380  220.2610 C   0  0  0  0  0  0  0  0  0  0  0  0
  145.2750   72.0450  218.8960 N   0  0  0  0  0  0  0  0  0  0  0  0
  145.0270   70.5980  218.6840 C   0  0  1  0  0  0  0  0  0  0  0  0
  146.3150   69.7900  218.7370 C   0  0  0  0  0  0  0  0  0  0  0  0
  145.9200   68.4510  219.3420 C   0  0  0  0  0  0  0  0  0  0  0  0
  144.5790   68.5750  219.9190 N   0  0  0  0  0  0  0  0  0  0  0  0
  144.2070   69.9850  219.8140 C   0  0  0  0  0  0  0  0  0  0  0  0
  144.0650   72.8660  218.6830 C   0  0  0  0  0  0  0  0  0  0  0  0
  143.1780   74.9740  219.7980 C   0  0  0  0  0  0  0  0  0  0  0  0
  143.6900   76.0420  219.0500 C   0  0  0  0  0  0  0  0  0  0  0  0
  142.9470   77.2310  218.9770 C   0  0  0  0  0  0  0  0  0  0  0  0
  141.7090   77.3340  219.6370 C   0  0  0  0  0  0  0  0  0  0  0  0
  141.2140   76.2550  220.3830 C   0  0  0  0  0  0  0  0  0  0  0  0
  141.9860   75.0900  220.4670 C   0  0  0  0  0  0  0  0  0  0  0  0
  140.5640   71.9830  223.8180 N   0  0  0  0  0  0  0  0  0  0  0  0
  140.1330   70.7200  223.9730 C   0  0  0  0  0  0  0  0  0  0  0  0
  140.2510   69.9220  225.1090 C   0  0  0  0  0  0  0  0  0  0  0  0
  141.8050   68.2910  226.8930 H   0  0  0  0  0  0  0  0  0  0  0  0
  141.0740   66.9350  227.8040 H   0  0  0  0  0  0  0  0  0  0  0  0
  138.7128   67.1224  223.8215 H   0  0  0  0  0  0  0  0  0  0  0  0
  138.5364   68.6256  221.8117 H   0  0  0  0  0  0  0  0  0  0  0  0
  139.1900   71.2667  220.8743 H   0  0  0  0  0  0  0  0  0  0  0  0
  143.1014   72.4817  221.7830 H   0  0  0  0  0  0  0  0  0  0  0  0
  142.2300   72.0183  220.3149 H   0  0  0  0  0  0  0  0  0  0  0  0
  145.6995   74.5035  220.3756 H   0  0  0  0  0  0  0  0  0  0  0  0
  145.0216   73.7300  221.7927 H   0  0  0  0  0  0  0  0  0  0  0  0
  146.8487   72.4457  220.2603 H   0  0  0  0  0  0  0  0  0  0  0  0
  145.4911   71.5207  220.9486 H   0  0  0  0  0  0  0  0  0  0  0  0
  144.5214   70.5530  217.7081 H   0  0  0  0  0  0  0  0  0  0  0  0
  146.7251   69.6507  217.7258 H   0  0  0  0  0  0  0  0  0  0  0  0
  147.0936   70.2949  219.3277 H   0  0  0  0  0  0  0  0  0  0  0  0
  145.9166   67.6777  218.5597 H   0  0  0  0  0  0  0  0  0  0  0  0
  146.6398   68.1651  220.1231 H   0  0  0  0  0  0  0  0  0  0  0  0
  143.9150   68.0230  219.3270 H   0  0  0  0  0  0  0  0  0  0  0  0
  143.1339   70.0736  219.5889 H   0  0  0  0  0  0  0  0  0  0  0  0
  144.4057   70.5074  220.7614 H   0  0  0  0  0  0  0  0  0  0  0  0
  144.2440   73.5947  217.8787 H   0  0  0  0  0  0  0  0  0  0  0  0
  143.2155   72.2305  218.3922 H   0  0  0  0  0  0  0  0  0  0  0  0
  144.6551   75.9509  218.5301 H   0  0  0  0  0  0  0  0  0  0  0  0
  143.3342   78.0849  218.4018 H   0  0  0  0  0  0  0  0  0  0  0  0
  141.1269   78.2648  219.5675 H   0  0  0  0  0  0  0  0  0  0  0  0
  140.2407   76.3223  220.8910 H   0  0  0  0  0  0  0  0  0  0  0  0
  141.0510   72.5730  224.5290 H   0  0  0  0  0  0  0  0  0  0  0  0
  140.7405   70.3024  226.0177 H   0  0  0  0  0  0  0  0  0  0  0  0
  1  2  1  0
  2  3  2  0
  2  4  1  0
  4  5  2  0
  5  6  1  0
  6  7  2  0
  7  8  1  0
  8  9  2  0
  9 10  1  0
 10 11  2  0
 10 12  1  0
 12 13  1  0
 14 13  1  1
 14 15  1  0
 15 16  1  0
 16 17  1  0
 17 18  1  0
 18 19  1  0
 19 20  1  0
 20 21  1  0
 21 22  1  0
 17 23  1  0
 14 24  1  0
 24 25  2  0
 25 26  1  0
 26 27  2  0
 27 28  1  0
 28 29  2  0
  9 30  1  0
 30 31  1  0
 31 32  2  0
 32  4  1  0
 31  7  1  0
 29 12  1  0
 23 14  1  0
 29 24  1  0
 22 18  1  0
  1 33  1  0
  1 34  1  0
  5 35  1  0
  6 36  1  0
  8 37  1  0
 13 38  1  0
 13 39  1  0
 15 40  1  0
 15 41  1  0
 16 42  1  0
 16 43  1  0
 18 44  1  6
 19 45  1  0
 19 46  1  0
 20 47  1  0
 20 48  1  0
 21 49  1  0
 22 50  1  0
 22 51  1  0
 23 52  1  0
 23 53  1  0
 25 54  1  0
 26 55  1  0
 27 56  1  0
 28 57  1  0
 30 58  1  0
 32 59  1  0
M  END
>  <meeko>  (10) 
{"free_energy": -9.21, "intermolecular_energy": -10.4, "internal_energy": -1.1, "cluster_size": 6, "cluster_id": 1, "rank_in_cluster": 1}

$$$$

     RDKit          3D

 59 64  0  0  0  0  0  0  0  0999 V2000
  145.7080   72.2770  220.7010 N   0  0  0  0  0  0  0  0  0  0  0  0
  145.3060   73.0530  219.5700 C   0  0  0  0  0  0  0  0  0  0  0  0
  145.9020   72.8820  218.4710 O   0  0  0  0  0  0  0  0  0  0  0  0
  144.1990   74.0370  219.6570 C   0  0  0  0  0  0  0  0  0  0  0  0
  143.9770   74.9460  218.5870 C   0  0  0  0  0  0  0  0  0  0  0  0
  142.9390   75.8930  218.6460 C   0  0  0  0  0  0  0  0  0  0  0  0
  142.1430   75.9140  219.7870 C   0  0  0  0  0  0  0  0  0  0  0  0
  141.0750   76.7170  220.1180 C   0  0  0  0  0  0  0  0  0  0  0  0
  140.6840   76.2910  221.3860 C   0  0  0  0  0  0  0  0  0  0  0  0
  139.5550   76.8350  222.1620 C   0  0  0  0  0  0  0  0  0  0  0  0
  138.5600   76.1000  222.4010 O   0  0  0  0  0  0  0  0  0  0  0  0
  139.5440   78.1990  222.6010 N   0  0  0  0  0  0  0  0  0  0  0  0
  138.3280   78.9380  222.9330 C   0  0  0  0  0  0  0  0  0  0  0  0
  138.7980   80.3930  223.2850 C   0  0  1  0  0  0  0  0  0  0  0  0
  138.2450   81.4230  222.3140 C   0  0  0  0  0  0  0  0  0  0  0  0
  136.9160   81.8000  222.9360 C   0  0  0  0  0  0  0  0  0  0  0  0
  137.0670   81.6930  224.4000 N   0  0  0  0  0  0  0  0  0  0  0  0
  135.8550   81.1420  225.0530 C   0  0  1  0  0  0  0  0  0  0  0  0
  135.9090   81.2920  226.5660 C   0  0  0  0  0  0  0  0  0  0  0  0
  134.4660   81.5140  226.9950 C   0  0  0  0  0  0  0  0  0  0  0  0
  133.6650   81.8150  225.8070 N   0  0  0  0  0  0  0  0  0  0  0  0
  134.5990   81.9280  224.6890 C   0  0  0  0  0  0  0  0  0  0  0  0
  138.2690   80.8700  224.6460 C   0  0  0  0  0  0  0  0  0  0  0  0
  140.2970   80.2880  223.2230 C   0  0  0  0  0  0  0  0  0  0  0  0
  141.2550   81.2680  223.5110 C   0  0  0  0  0  0  0  0  0  0  0  0
  142.6140   80.9290  223.4190 C   0  0  0  0  0  0  0  0  0  0  0  0
  142.9960   79.6260  223.0540 C   0  0  0  0  0  0  0  0  0  0  0  0
  142.0210   78.6590  222.7660 C   0  0  0  0  0  0  0  0  0  0  0  0
  140.6730   79.0280  222.8350 C   0  0  0  0  0  0  0  0  0  0  0  0
  141.4620   75.2670  221.8130 N   0  0  0  0  0  0  0  0  0  0  0  0
  142.3490   75.0500  220.8270 C   0  0  0  0  0  0  0  0  0  0  0  0
  143.3680   74.1000  220.8020 C   0  0  0  0  0  0  0  0  0  0  0  0
  145.1530   72.2620  221.5840 H   0  0  0  0  0  0  0  0  0  0  0  0
  146.5280   71.6350  220.6250 H   0  0  0  0  0  0  0  0  0  0  0  0
  144.6265   74.9082  217.7000 H   0  0  0  0  0  0  0  0  0  0  0  0
  142.7622   76.5942  217.8171 H   0  0  0  0  0  0  0  0  0  0  0  0
  140.6277   77.5198  219.5135 H   0  0  0  0  0  0  0  0  0  0  0  0
  137.6421   78.9540  222.0731 H   0  0  0  0  0  0  0  0  0  0  0  0
  137.7860   78.4729  223.7696 H   0  0  0  0  0  0  0  0  0  0  0  0
  138.9101   82.2963  222.2431 H   0  0  0  0  0  0  0  0  0  0  0  0
  138.1498   81.0422  221.2864 H   0  0  0  0  0  0  0  0  0  0  0  0
  136.6508   82.8312  222.6599 H   0  0  0  0  0  0  0  0  0  0  0  0
  136.1172   81.1336  222.5785 H   0  0  0  0  0  0  0  0  0  0  0  0
  135.8235   80.0948  224.7176 H   0  0  0  0  0  0  0  0  0  0  0  0
  136.3138   80.3805  227.0301 H   0  0  0  0  0  0  0  0  0  0  0  0
  136.5626   82.1213  226.8745 H   0  0  0  0  0  0  0  0  0  0  0  0
  134.0804   80.6058  227.4813 H   0  0  0  0  0  0  0  0  0  0  0  0
  134.4107   82.3509  227.7067 H   0  0  0  0  0  0  0  0  0  0  0  0
  133.0370   80.9980  225.6190 H   0  0  0  0  0  0  0  0  0  0  0  0
  134.1458   81.5093  223.7783 H   0  0  0  0  0  0  0  0  0  0  0  0
  134.8462   82.9828  224.4984 H   0  0  0  0  0  0  0  0  0  0  0  0
  139.0362   81.4712  225.1559 H   0  0  0  0  0  0  0  0  0  0  0  0
  138.0214   80.0096  225.2850 H   0  0  0  0  0  0  0  0  0  0  0  0
  140.9486   82.2832  223.8035 H   0  0  0  0  0  0  0  0  0  0  0  0
  143.3831   81.6857  223.6333 H   0  0  0  0  0  0  0  0  0  0  0  0
  144.0626   79.3639  222.9940 H   0  0  0  0  0  0  0  0  0  0  0  0
  142.3099   77.6336  222.4921 H   0  0  0  0  0  0  0  0  0  0  0  0
  141.3910   74.7520  222.7190 H   0  0  0  0  0  0  0  0  0  0  0  0
  143.5230   73.4165  221.6498 H   0  0  0  0  0  0  0  0  0  0  0  0
  1  2  1  0
  2  3  2  0
  2  4  1  0
  4  5  2  0
  5  6  1  0
  6  7  2  0
  7  8  1  0
  8  9  2  0
  9 10  1  0
 10 11  2  0
 10 12  1  0
 12 13  1  0
 14 13  1  6
 14 15  1  0
 15 16  1  0
 16 17  1  0
 17 18  1  0
 18 19  1  0
 19 20  1  0
 20 21  1  0
 21 22  1  0
 17 23  1  0
 14 24  1  0
 24 25  2  0
 25 26  1  0
 26 27  2  0
 27 28  1  0
 28 29  2  0
  9 30  1  0
 30 31  1  0
 31 32  2  0
 32  4  1  0
 31  7  1  0
 29 12  1  0
 23 14  1  0
 29 24  1  0
 22 18  1  0
  1 33  1  0
  1 34  1  0
  5 35  1  0
  6 36  1  0
  8 37  1  0
 13 38  1  0
 13 39  1  0
 15 40  1  0
 15 41  1  0
 16 42  1  0
 16 43  1  0
 18 44  1  1
 19 45  1  0
 19 46  1  0
 20 47  1  0
 20 48  1  0
 21 49  1  0
 22 50  1  0
 22 51  1  0
 23 52  1  0
 23 53  1  0
 25 54  1  0
 26 55  1  0
 27 56  1  0
 28 57  1  0
 30 58  1  0
 32 59  1  0
M  END
>  <meeko>  (11) 
{"free_energy": -8.72, "intermolecular_energy": -9.91, "internal_energy": -1.1, "cluster_size": 11, "cluster_id": 2, "rank_in_cluster": 1}

$$$$

     RDKit          3D

 59 64  0  0  0  0  0  0  0  0999 V2000
  146.1410   72.6400  221.3190 N   0  0  0  0  0  0  0  0  0  0  0  0
  145.5630   73.3360  220.2120 C   0  0  0  0  0  0  0  0  0  0  0  0
  146.1880   73.3610  219.1160 O   0  0  0  0  0  0  0  0  0  0  0  0
  144.2460   74.0110  220.3210 C   0  0  0  0  0  0  0  0  0  0  0  0
  143.1080   73.2730  220.7460 C   0  0  0  0  0  0  0  0  0  0  0  0
  141.8470   73.8860  220.8520 C   0  0  0  0  0  0  0  0  0  0  0  0
  141.7510   75.2330  220.5200 C   0  0  0  0  0  0  0  0  0  0  0  0
  140.6650   76.0800  220.5260 C   0  0  0  0  0  0  0  0  0  0  0  0
  141.1620   77.3060  220.0880 C   0  0  0  0  0  0  0  0  0  0  0  0
  140.3800   78.5470  219.9480 C   0  0  0  0  0  0  0  0  0  0  0  0
  139.9280   78.8670  218.8160 O   0  0  0  0  0  0  0  0  0  0  0  0
  140.1700   79.4230  221.0620 N   0  0  0  0  0  0  0  0  0  0  0  0
  138.8680   79.9700  221.4340 C   0  0  0  0  0  0  0  0  0  0  0  0
  139.1400   80.9210  222.6530 C   0  0  1  0  0  0  0  0  0  0  0  0
  138.8040   82.3690  222.3360 C   0  0  0  0  0  0  0  0  0  0  0  0
  137.3370   82.4680  222.7020 C   0  0  0  0  0  0  0  0  0  0  0  0
  137.1000   81.5440  223.8290 N   0  0  0  0  0  0  0  0  0  0  0  0
  135.7930   80.8510  223.7230 C   0  0  1  0  0  0  0  0  0  0  0  0
  135.9480   79.4240  223.2220 C   0  0  0  0  0  0  0  0  0  0  0  0
  134.8490   78.6350  223.9210 C   0  0  0  0  0  0  0  0  0  0  0  0
  134.3060   79.4530  225.0090 N   0  0  0  0  0  0  0  0  0  0  0  0
  135.1370   80.6520  225.0860 C   0  0  0  0  0  0  0  0  0  0  0  0
  138.2400   80.6050  223.8580 C   0  0  0  0  0  0  0  0  0  0  0  0
  140.6050   80.7140  222.9240 C   0  0  0  0  0  0  0  0  0  0  0  0
  141.3910   81.2590  223.9460 C   0  0  0  0  0  0  0  0  0  0  0  0
  142.7440   80.8910  224.0240 C   0  0  0  0  0  0  0  0  0  0  0  0
  143.2860   79.9840  223.0960 C   0  0  0  0  0  0  0  0  0  0  0  0
  142.4830   79.4510  222.0770 C   0  0  0  0  0  0  0  0  0  0  0  0
  141.1450   79.8560  222.0000 C   0  0  0  0  0  0  0  0  0  0  0  0
  142.4910   77.2260  219.8360 N   0  0  0  0  0  0  0  0  0  0  0  0
  142.8350   75.9540  220.1030 C   0  0  0  0  0  0  0  0  0  0  0  0
  144.0990   75.3790  219.9860 C   0  0  0  0  0  0  0  0  0  0  0  0
  145.6040   72.4540  222.1940 H   0  0  0  0  0  0  0  0  0  0  0  0
  147.0950   72.2250  221.2310 H   0  0  0  0  0  0  0  0  0  0  0  0
  143.2153   72.2071  220.9956 H   0  0  0  0  0  0  0  0  0  0  0  0
  140.9658   73.3189  221.1864 H   0  0  0  0  0  0  0  0  0  0  0  0
  139.6306   75.8408  220.8138 H   0  0  0  0  0  0  0  0  0  0  0  0
  138.4356   80.5354  220.5953 H   0  0  0  0  0  0  0  0  0  0  0  0
  138.1518   79.1755  221.6905 H   0  0  0  0  0  0  0  0  0  0  0  0
  139.4101   83.0573  222.9434 H   0  0  0  0  0  0  0  0  0  0  0  0
  139.0087   82.6420  221.2902 H   0  0  0  0  0  0  0  0  0  0  0  0
  137.0930   83.4977  223.0023 H   0  0  0  0  0  0  0  0  0  0  0  0
  136.7035   82.2031  221.8426 H   0  0  0  0  0  0  0  0  0  0  0  0
  135.2052   81.4904  223.0480 H   0  0  0  0  0  0  0  0  0  0  0  0
  135.8186   79.3820  222.1304 H   0  0  0  0  0  0  0  0  0  0  0  0
  136.9472   79.0181  223.4383 H   0  0  0  0  0  0  0  0  0  0  0  0
  134.0506   78.3959  223.2031 H   0  0  0  0  0  0  0  0  0  0  0  0
  135.2582   77.6969  224.3243 H   0  0  0  0  0  0  0  0  0  0  0  0
  133.3380   79.7490  224.7420 H   0  0  0  0  0  0  0  0  0  0  0  0
  134.5139   81.5243  225.3327 H   0  0  0  0  0  0  0  0  0  0  0  0
  135.9018   80.5407  225.8687 H   0  0  0  0  0  0  0  0  0  0  0  0
  138.8067   80.7332  224.7920 H   0  0  0  0  0  0  0  0  0  0  0  0
  137.8830   79.5657  223.8087 H   0  0  0  0  0  0  0  0  0  0  0  0
  140.9577   81.9613  224.6733 H   0  0  0  0  0  0  0  0  0  0  0  0
  143.3822   81.3138  224.8139 H   0  0  0  0  0  0  0  0  0  0  0  0
  144.3438   79.6914  223.1695 H   0  0  0  0  0  0  0  0  0  0  0  0
  142.8952   78.7310  221.3546 H   0  0  0  0  0  0  0  0  0  0  0  0
  143.1210   77.9900  219.5040 H   0  0  0  0  0  0  0  0  0  0  0  0
  144.9595   75.9719  219.6426 H   0  0  0  0  0  0  0  0  0  0  0  0
  1  2  1  0
  2  3  2  0
  2  4  1  0
  4  5  2  0
  5  6  1  0
  6  7  2  0
  7  8  1  0
  8  9  2  0
  9 10  1  0
 10 11  2  0
 10 12  1  0
 12 13  1  0
 14 13  1  6
 14 15  1  0
 15 16  1  0
 16 17  1  0
 17 18  1  0
 18 19  1  0
 19 20  1  0
 20 21  1  0
 21 22  1  0
 17 23  1  0
 14 24  1  0
 24 25  2  0
 25 26  1  0
 26 27  2  0
 27 28  1  0
 28 29  2  0
  9 30  1  0
 30 31  1  0
 31 32  2  0
 32  4  1  0
 31  7  1  0
 29 12  1  0
 23 14  1  0
 29 24  1  0
 22 18  1  0
  1 33  1  0
  1 34  1  0
  5 35  1  0
  6 36  1  0
  8 37  1  0
 13 38  1  0
 13 39  1  0
 15 40  1  0
 15 41  1  0
 16 42  1  0
 16 43  1  0
 18 44  1  6
 19 45  1  0
 19 46  1  0
 20 47  1  0
 20 48  1  0
 21 49  1  0
 22 50  1  0
 22 51  1  0
 23 52  1  0
 23 53  1  0
 25 54  1  0
 26 55  1  0
 27 56  1  0
 28 57  1  0
 30 58  1  0
 32 59  1  0
M  END
>  <meeko>  (12) 
{"free_energy": -8.42, "intermolecular_energy": -9.61, "internal_energy": -1.23, "cluster_size": 11, "cluster_id": 2, "rank_in_cluster": 8}

$$$$

     RDKit          3D

 59 64  0  0  0  0  0  0  0  0999 V2000
  146.1340   72.6320  221.3970 N   0  0  0  0  0  0  0  0  0  0  0  0
  145.4940   73.1790  220.2410 C   0  0  0  0  0  0  0  0  0  0  0  0
  146.0490   73.0400  219.1160 O   0  0  0  0  0  0  0  0  0  0  0  0
  144.1940   73.8860  220.3350 C   0  0  0  0  0  0  0  0  0  0  0  0
  143.0320   73.1760  220.7430 C   0  0  0  0  0  0  0  0  0  0  0  0
  141.7860   73.8210  220.8350 C   0  0  0  0  0  0  0  0  0  0  0  0
  141.7270   75.1710  220.5060 C   0  0  0  0  0  0  0  0  0  0  0  0
  140.6630   76.0440  220.5010 C   0  0  0  0  0  0  0  0  0  0  0  0
  141.1970   77.2590  220.0730 C   0  0  0  0  0  0  0  0  0  0  0  0
  140.4480   78.5200  219.9270 C   0  0  0  0  0  0  0  0  0  0  0  0
  140.0490   78.8710  218.7850 O   0  0  0  0  0  0  0  0  0  0  0  0
  140.2140   79.3800  221.0490 N   0  0  0  0  0  0  0  0  0  0  0  0
  138.8940   79.8710  221.4380 C   0  0  0  0  0  0  0  0  0  0  0  0
  139.1390   80.8230  222.6610 C   0  0  1  0  0  0  0  0  0  0  0  0
  138.7420   82.2580  222.3560 C   0  0  0  0  0  0  0  0  0  0  0  0
  137.2760   82.2950  222.7370 C   0  0  0  0  0  0  0  0  0  0  0  0
  137.0870   81.3550  223.8600 N   0  0  0  0  0  0  0  0  0  0  0  0
  135.8080   80.6110  223.7610 C   0  0  1  0  0  0  0  0  0  0  0  0
  134.9870   81.0520  222.5600 C   0  0  0  0  0  0  0  0  0  0  0  0
  134.2600   79.7990  222.0930 C   0  0  0  0  0  0  0  0  0  0  0  0
  134.8640   78.6360  222.7480 N   0  0  0  0  0  0  0  0  0  0  0  0
  136.0270   79.1270  223.4840 C   0  0  0  0  0  0  0  0  0  0  0  0
  138.2650   80.4640  223.8720 C   0  0  0  0  0  0  0  0  0  0  0  0
  140.6140   80.6740  222.9160 C   0  0  0  0  0  0  0  0  0  0  0  0
  141.3870   81.2440  223.9350 C   0  0  0  0  0  0  0  0  0  0  0  0
  142.7540   80.9300  223.9980 C   0  0  0  0  0  0  0  0  0  0  0  0
  143.3240   80.0530  223.0580 C   0  0  0  0  0  0  0  0  0  0  0  0
  142.5330   79.4950  222.0430 C   0  0  0  0  0  0  0  0  0  0  0  0
  141.1790   79.8450  221.9810 C   0  0  0  0  0  0  0  0  0  0  0  0
  142.5270   77.1460  219.8390 N   0  0  0  0  0  0  0  0  0  0  0  0
  142.8350   75.8650  220.1050 C   0  0  0  0  0  0  0  0  0  0  0  0
  144.0850   75.2590  220.0030 C   0  0  0  0  0  0  0  0  0  0  0  0
  145.6510   72.5780  222.3200 H   0  0  0  0  0  0  0  0  0  0  0  0
  147.0760   72.1910  221.3090 H   0  0  0  0  0  0  0  0  0  0  0  0
  143.1087   72.1069  220.9902 H   0  0  0  0  0  0  0  0  0  0  0  0
  140.8867   73.2754  221.1569 H   0  0  0  0  0  0  0  0  0  0  0  0
  139.6193   75.8300  220.7748 H   0  0  0  0  0  0  0  0  0  0  0  0
  138.4306   80.4244  220.6079 H   0  0  0  0  0  0  0  0  0  0  0  0
  138.2134   79.0460  221.6954 H   0  0  0  0  0  0  0  0  0  0  0  0
  139.3258   82.9668  222.9616 H   0  0  0  0  0  0  0  0  0  0  0  0
  138.9252   82.5453  221.3101 H   0  0  0  0  0  0  0  0  0  0  0  0
  136.9937   83.3121  223.0466 H   0  0  0  0  0  0  0  0  0  0  0  0
  136.6455   82.0099  221.8819 H   0  0  0  0  0  0  0  0  0  0  0  0
  135.3122   80.8036  224.7238 H   0  0  0  0  0  0  0  0  0  0  0  0
  134.2663   81.8308  222.8501 H   0  0  0  0  0  0  0  0  0  0  0  0
  135.6162   81.4823  221.7670 H   0  0  0  0  0  0  0  0  0  0  0  0
  133.1959   79.8655  222.3637 H   0  0  0  0  0  0  0  0  0  0  0  0
  134.3446   79.7008  221.0007 H   0  0  0  0  0  0  0  0  0  0  0  0
  134.1790   78.2600  223.4440 H   0  0  0  0  0  0  0  0  0  0  0  0
  136.1283   78.5798  224.4328 H   0  0  0  0  0  0  0  0  0  0  0  0
  136.9456   78.9759  222.8980 H   0  0  0  0  0  0  0  0  0  0  0  0
  138.8352   80.6103  224.8012 H   0  0  0  0  0  0  0  0  0  0  0  0
  137.9504   79.4112  223.8196 H   0  0  0  0  0  0  0  0  0  0  0  0
  140.9326   81.9237  224.6709 H   0  0  0  0  0  0  0  0  0  0  0  0
  143.3817   81.3718  224.7859 H   0  0  0  0  0  0  0  0  0  0  0  0
  144.3937   79.8038  223.1189 H   0  0  0  0  0  0  0  0  0  0  0  0
  142.9672   78.7975  221.3116 H   0  0  0  0  0  0  0  0  0  0  0  0
  143.1800   77.8950  219.5170 H   0  0  0  0  0  0  0  0  0  0  0  0
  144.9645   75.8315  219.6733 H   0  0  0  0  0  0  0  0  0  0  0  0
  1  2  1  0
  2  3  2  0
  2  4  1  0
  4  5  2  0
  5  6  1  0
  6  7  2  0
  7  8  1  0
  8  9  2  0
  9 10  1  0
 10 11  2  0
 10 12  1  0
 12 13  1  0
 14 13  1  6
 14 15  1  0
 15 16  1  0
 16 17  1  0
 17 18  1  0
 18 19  1  0
 19 20  1  0
 20 21  1  0
 21 22  1  0
 17 23  1  0
 14 24  1  0
 24 25  2  0
 25 26  1  0
 26 27  2  0
 27 28  1  0
 28 29  2  0
  9 30  1  0
 30 31  1  0
 31 32  2  0
 32  4  1  0
 31  7  1  0
 29 12  1  0
 23 14  1  0
 29 24  1  0
 22 18  1  0
  1 33  1  0
  1 34  1  0
  5 35  1  0
  6 36  1  0
  8 37  1  0
 13 38  1  0
 13 39  1  0
 15 40  1  0
 15 41  1  0
 16 42  1  0
 16 43  1  0
 18 44  1  1
 19 45  1  0
 19 46  1  0
 20 47  1  0
 20 48  1  0
 21 49  1  0
 22 50  1  0
 22 51  1  0
 23 52  1  0
 23 53  1  0
 25 54  1  0
 26 55  1  0
 27 56  1  0
 28 57  1  0
 30 58  1  0
 32 59  1  0
M  END
>  <meeko>  (13) 
{"free_energy": -8.27, "intermolecular_energy": -9.46, "internal_energy": -1.33, "cluster_size": 11, "cluster_id": 2, "rank_in_cluster": 10}

$$$$

     RDKit          3D

 59 64  0  0  0  0  0  0  0  0999 V2000
  146.1140   72.6440  221.4140 N   0  0  0  0  0  0  0  0  0  0  0  0
  145.4700   73.1740  220.2530 C   0  0  0  0  0  0  0  0  0  0  0  0
  146.0170   73.0130  219.1270 O   0  0  0  0  0  0  0  0  0  0  0  0
  144.1740   73.8890  220.3420 C   0  0  0  0  0  0  0  0  0  0  0  0
  143.0060   73.1850  220.7440 C   0  0  0  0  0  0  0  0  0  0  0  0
  141.7630   73.8380  220.8320 C   0  0  0  0  0  0  0  0  0  0  0  0
  141.7140   75.1880  220.5050 C   0  0  0  0  0  0  0  0  0  0  0  0
  140.6550   76.0680  220.4960 C   0  0  0  0  0  0  0  0  0  0  0  0
  141.1980   77.2800  220.0710 C   0  0  0  0  0  0  0  0  0  0  0  0
  140.4580   78.5460  219.9240 C   0  0  0  0  0  0  0  0  0  0  0  0
  140.0800   78.9090  218.7780 O   0  0  0  0  0  0  0  0  0  0  0  0
  140.2080   79.3970  221.0490 N   0  0  0  0  0  0  0  0  0  0  0  0
  138.8810   79.8750  221.4300 C   0  0  0  0  0  0  0  0  0  0  0  0
  139.1090   80.8220  222.6610 C   0  0  1  0  0  0  0  0  0  0  0  0
  138.7040   82.2560  222.3620 C   0  0  0  0  0  0  0  0  0  0  0  0
  137.2350   82.2790  222.7310 C   0  0  0  0  0  0  0  0  0  0  0  0
  137.0440   81.3310  223.8470 N   0  0  0  0  0  0  0  0  0  0  0  0
  135.7720   80.5780  223.7340 C   0  0  1  0  0  0  0  0  0  0  0  0
  134.9880   80.9730  222.4910 C   0  0  0  0  0  0  0  0  0  0  0  0
  134.2810   79.7000  222.0460 C   0  0  0  0  0  0  0  0  0  0  0  0
  134.8680   78.5640  222.7600 N   0  0  0  0  0  0  0  0  0  0  0  0
  136.0050   79.0860  223.5160 C   0  0  0  0  0  0  0  0  0  0  0  0
  138.2280   80.4480  223.8630 C   0  0  0  0  0  0  0  0  0  0  0  0
  140.5830   80.6830  222.9270 C   0  0  0  0  0  0  0  0  0  0  0  0
  141.3440   81.2520  223.9550 C   0  0  0  0  0  0  0  0  0  0  0  0
  142.7130   80.9480  224.0270 C   0  0  0  0  0  0  0  0  0  0  0  0
  143.2970   80.0810  223.0860 C   0  0  0  0  0  0  0  0  0  0  0  0
  142.5180   79.5230  222.0620 C   0  0  0  0  0  0  0  0  0  0  0  0
  141.1620   79.8630  221.9920 C   0  0  0  0  0  0  0  0  0  0  0  0
  142.5290   77.1590  219.8420 N   0  0  0  0  0  0  0  0  0  0  0  0
  142.8270   75.8770  220.1090 C   0  0  0  0  0  0  0  0  0  0  0  0
  144.0750   75.2630  220.0110 C   0  0  0  0  0  0  0  0  0  0  0  0
  145.6370   72.6090  222.3410 H   0  0  0  0  0  0  0  0  0  0  0  0
  147.0540   72.1970  221.3280 H   0  0  0  0  0  0  0  0  0  0  0  0
  143.0752   72.1150  220.9896 H   0  0  0  0  0  0  0  0  0  0  0  0
  140.8590   73.2976  221.1494 H   0  0  0  0  0  0  0  0  0  0  0  0
  139.6089   75.8602  220.7653 H   0  0  0  0  0  0  0  0  0  0  0  0
  138.4199   80.4296  220.5995 H   0  0  0  0  0  0  0  0  0  0  0  0
  138.2048   79.0432  221.6769 H   0  0  0  0  0  0  0  0  0  0  0  0
  139.2773   82.9652  222.9771 H   0  0  0  0  0  0  0  0  0  0  0  0
  138.8939   82.5518  221.3197 H   0  0  0  0  0  0  0  0  0  0  0  0
  136.9420   83.2920  223.0441 H   0  0  0  0  0  0  0  0  0  0  0  0
  136.6140   81.9937  221.8691 H   0  0  0  0  0  0  0  0  0  0  0  0
  135.2451   80.8017  224.6733 H   0  0  0  0  0  0  0  0  0  0  0  0
  134.2555   81.7581  222.7299 H   0  0  0  0  0  0  0  0  0  0  0  0
  135.6408   81.3783  221.7038 H   0  0  0  0  0  0  0  0  0  0  0  0
  133.2086   79.7707  222.2805 H   0  0  0  0  0  0  0  0  0  0  0  0
  134.4009   79.5638  220.9611 H   0  0  0  0  0  0  0  0  0  0  0  0
  134.1620   78.2100  223.4470 H   0  0  0  0  0  0  0  0  0  0  0  0
  136.0773   78.5725  224.4861 H   0  0  0  0  0  0  0  0  0  0  0  0
  136.9427   78.9190  222.9657 H   0  0  0  0  0  0  0  0  0  0  0  0
  138.7896   80.5920  224.7978 H   0  0  0  0  0  0  0  0  0  0  0  0
  137.9217   79.3933  223.8015 H   0  0  0  0  0  0  0  0  0  0  0  0
  140.8789   81.9237  224.6915 H   0  0  0  0  0  0  0  0  0  0  0  0
  143.3311   81.3897  224.8225 H   0  0  0  0  0  0  0  0  0  0  0  0
  144.3681   79.8398  223.1535 H   0  0  0  0  0  0  0  0  0  0  0  0
  142.9629   78.8332  221.3298 H   0  0  0  0  0  0  0  0  0  0  0  0
  143.1880   77.9050  219.5240 H   0  0  0  0  0  0  0  0  0  0  0  0
  144.9593   75.8304  219.6853 H   0  0  0  0  0  0  0  0  0  0  0  0
  1  2  1  0
  2  3  2  0
  2  4  1  0
  4  5  2  0
  5  6  1  0
  6  7  2  0
  7  8  1  0
  8  9  2  0
  9 10  1  0
 10 11  2  0
 10 12  1  0
 12 13  1  0
 14 13  1  6
 14 15  1  0
 15 16  1  0
 16 17  1  0
 17 18  1  0
 18 19  1  0
 19 20  1  0
 20 21  1  0
 21 22  1  0
 17 23  1  0
 14 24  1  0
 24 25  2  0
 25 26  1  0
 26 27  2  0
 27 28  1  0
 28 29  2  0
  9 30  1  0
 30 31  1  0
 31 32  2  0
 32  4  1  0
 31  7  1  0
 29 12  1  0
 23 14  1  0
 29 24  1  0
 22 18  1  0
  1 33  1  0
  1 34  1  0
  5 35  1  0
  6 36  1  0
  8 37  1  0
 13 38  1  0
 13 39  1  0
 15 40  1  0
 15 41  1  0
 16 42  1  0
 16 43  1  0
 18 44  1  1
 19 45  1  0
 19 46  1  0
 20 47  1  0
 20 48  1  0
 21 49  1  0
 22 50  1  0
 22 51  1  0
 23 52  1  0
 23 53  1  0
 25 54  1  0
 26 55  1  0
 27 56  1  0
 28 57  1  0
 30 58  1  0
 32 59  1  0
M  END
>  <meeko>  (14) 
{"free_energy": -8.24, "intermolecular_energy": -9.44, "internal_energy": -1.33, "cluster_size": 1, "cluster_id": 4, "rank_in_cluster": 1}

$$$$

     RDKit          3D

 59 64  0  0  0  0  0  0  0  0999 V2000
  143.6890   80.1160  222.7850 N   0  0  0  0  0  0  0  0  0  0  0  0
  142.4510   80.3840  223.4490 C   0  0  0  0  0  0  0  0  0  0  0  0
  142.3830   81.3720  224.2310 O   0  0  0  0  0  0  0  0  0  0  0  0
  141.2520   79.5410  223.2260 C   0  0  0  0  0  0  0  0  0  0  0  0
  139.9600   80.0640  223.5060 C   0  0  0  0  0  0  0  0  0  0  0  0
  138.8060   79.2850  223.3090 C   0  0  0  0  0  0  0  0  0  0  0  0
  138.9720   77.9860  222.8400 C   0  0  0  0  0  0  0  0  0  0  0  0
  138.0410   77.0110  222.5610 C   0  0  0  0  0  0  0  0  0  0  0  0
  138.7880   75.9120  222.1360 C   0  0  0  0  0  0  0  0  0  0  0  0
  138.2350   74.6190  221.6980 C   0  0  0  0  0  0  0  0  0  0  0  0
  136.9960   74.5150  221.4940 O   0  0  0  0  0  0  0  0  0  0  0  0
  139.0700   73.4640  221.5530 N   0  0  0  0  0  0  0  0  0  0  0  0
  140.2710   73.4260  220.7230 C   0  0  0  0  0  0  0  0  0  0  0  0
  140.8050   71.9530  220.8160 C   0  0  1  0  0  0  0  0  0  0  0  0
  140.7770   71.2470  219.4700 C   0  0  0  0  0  0  0  0  0  0  0  0
  142.1220   71.6010  218.8710 C   0  0  0  0  0  0  0  0  0  0  0  0
  143.0830   71.7270  219.9850 N   0  0  0  0  0  0  0  0  0  0  0  0
  144.0440   72.8370  219.7770 C   0  0  1  0  0  0  0  0  0  0  0  0
  144.8670   73.1150  221.0250 C   0  0  0  0  0  0  0  0  0  0  0  0
  146.2300   73.5580  220.5120 C   0  0  0  0  0  0  0  0  0  0  0  0
  146.3190   73.2400  219.0850 N   0  0  0  0  0  0  0  0  0  0  0  0
  145.1130   72.4860  218.7480 C   0  0  0  0  0  0  0  0  0  0  0  0
  142.2860   71.8870  221.2180 C   0  0  0  0  0  0  0  0  0  0  0  0
  139.8800   71.3200  221.8190 C   0  0  0  0  0  0  0  0  0  0  0  0
  139.9170   70.0240  222.3480 C   0  0  0  0  0  0  0  0  0  0  0  0
  138.9610   69.6620  223.3100 C   0  0  0  0  0  0  0  0  0  0  0  0
  137.9950   70.5920  223.7340 C   0  0  0  0  0  0  0  0  0  0  0  0
  137.9720   71.8850  223.1900 C   0  0  0  0  0  0  0  0  0  0  0  0
  138.9160   72.2140  222.2110 C   0  0  0  0  0  0  0  0  0  0  0  0
  140.1120   76.1990  222.1390 N   0  0  0  0  0  0  0  0  0  0  0  0
  140.2090   77.4670  222.5730 C   0  0  0  0  0  0  0  0  0  0  0  0
  141.3730   78.2110  222.7570 C   0  0  0  0  0  0  0  0  0  0  0  0
  143.7600   79.4170  222.0150 H   0  0  0  0  0  0  0  0  0  0  0  0
  144.5320   80.6910  223.0060 H   0  0  0  0  0  0  0  0  0  0  0  0
  139.8616   81.0930  223.8822 H   0  0  0  0  0  0  0  0  0  0  0  0
  137.8049   79.6896  223.5189 H   0  0  0  0  0  0  0  0  0  0  0  0
  136.9472   77.0828  222.6531 H   0  0  0  0  0  0  0  0  0  0  0  0
  140.0255   73.6799  219.6813 H   0  0  0  0  0  0  0  0  0  0  0  0
  141.0231   74.1528  221.0637 H   0  0  0  0  0  0  0  0  0  0  0  0
  140.6746   70.1591  219.5964 H   0  0  0  0  0  0  0  0  0  0  0  0
  139.9284   71.5504  218.8392 H   0  0  0  0  0  0  0  0  0  0  0  0
  142.4472   70.8075  218.1821 H   0  0  0  0  0  0  0  0  0  0  0  0
  142.0590   72.5418  218.3046 H   0  0  0  0  0  0  0  0  0  0  0  0
  143.4116   73.6840  219.4725 H   0  0  0  0  0  0  0  0  0  0  0  0
  144.4024   73.9120  221.6241 H   0  0  0  0  0  0  0  0  0  0  0  0
  144.9394   72.2311  221.6758 H   0  0  0  0  0  0  0  0  0  0  0  0
  146.3463   74.6421  220.6579 H   0  0  0  0  0  0  0  0  0  0  0  0
  147.0263   73.0365  221.0633 H   0  0  0  0  0  0  0  0  0  0  0  0
  146.2970   74.1380  218.5480 H   0  0  0  0  0  0  0  0  0  0  0  0
  144.7681   72.7617  217.7405 H   0  0  0  0  0  0  0  0  0  0  0  0
  145.3185   71.4054  218.7593 H   0  0  0  0  0  0  0  0  0  0  0  0
  142.4543   71.0294  221.8860 H   0  0  0  0  0  0  0  0  0  0  0  0
  142.5807   72.8041  221.7491 H   0  0  0  0  0  0  0  0  0  0  0  0
  140.6798   69.3042  222.0164 H   0  0  0  0  0  0  0  0  0  0  0  0
  138.9674   68.6470  223.7339 H   0  0  0  0  0  0  0  0  0  0  0  0
  137.2546   70.3045  224.4951 H   0  0  0  0  0  0  0  0  0  0  0  0
  137.2288   72.6233  223.5255 H   0  0  0  0  0  0  0  0  0  0  0  0
  140.8980   75.5680  221.8630 H   0  0  0  0  0  0  0  0  0  0  0  0
  142.3604   77.7758  222.5433 H   0  0  0  0  0  0  0  0  0  0  0  0
  1  2  1  0
  2  3  2  0
  2  4  1  0
  4  5  2  0
  5  6  1  0
  6  7  2  0
  7  8  1  0
  8  9  2  0
  9 10  1  0
 10 11  2  0
 10 12  1  0
 12 13  1  0
 14 13  1  6
 14 15  1  0
 15 16  1  0
 16 17  1  0
 17 18  1  0
 18 19  1  0
 19 20  1  0
 20 21  1  0
 21 22  1  0
 17 23  1  0
 14 24  1  0
 24 25  2  0
 25 26  1  0
 26 27  2  0
 27 28  1  0
 28 29  2  0
  9 30  1  0
 30 31  1  0
 31 32  2  0
 32  4  1  0
 31  7  1  0
 29 12  1  0
 23 14  1  0
 29 24  1  0
 22 18  1  0
  1 33  1  0
  1 34  1  0
  5 35  1  0
  6 36  1  0
  8 37  1  0
 13 38  1  0
 13 39  1  0
 15 40  1  0
 15 41  1  0
 16 42  1  0
 16 43  1  0
 18 44  1  6
 19 45  1  0
 19 46  1  0
 20 47  1  0
 20 48  1  0
 21 49  1  0
 22 50  1  0
 22 51  1  0
 23 52  1  0
 23 53  1  0
 25 54  1  0
 26 55  1  0
 27 56  1  0
 28 57  1  0
 30 58  1  0
 32 59  1  0
M  END
>  <meeko>  (15) 
{"free_energy": -8.61, "intermolecular_energy": -9.8, "internal_energy": -1.03, "cluster_size": 2, "cluster_id": 3, "rank_in_cluster": 1}

$$$$

     RDKit          3D

 59 64  0  0  0  0  0  0  0  0999 V2000
  143.7110   80.1300  222.7580 N   0  0  0  0  0  0  0  0  0  0  0  0
  142.4780   80.4030  223.4290 C   0  0  0  0  0  0  0  0  0  0  0  0
  142.4200   81.3860  224.2180 O   0  0  0  0  0  0  0  0  0  0  0  0
  141.2710   79.5710  223.2050 C   0  0  0  0  0  0  0  0  0  0  0  0
  139.9860   80.0950  223.5100 C   0  0  0  0  0  0  0  0  0  0  0  0
  138.8260   79.3260  223.3130 C   0  0  0  0  0  0  0  0  0  0  0  0
  138.9790   78.0350  222.8190 C   0  0  0  0  0  0  0  0  0  0  0  0
  138.0390   77.0690  222.5340 C   0  0  0  0  0  0  0  0  0  0  0  0
  138.7750   75.9750  222.0800 C   0  0  0  0  0  0  0  0  0  0  0  0
  138.2100   74.6930  221.6260 C   0  0  0  0  0  0  0  0  0  0  0  0
  136.9730   74.6090  221.4010 O   0  0  0  0  0  0  0  0  0  0  0  0
  139.0290   73.5250  221.4880 N   0  0  0  0  0  0  0  0  0  0  0  0
  140.2440   73.4740  220.6790 C   0  0  0  0  0  0  0  0  0  0  0  0
  140.7540   71.9920  220.7720 C   0  0  1  0  0  0  0  0  0  0  0  0
  140.7380   71.2960  219.4210 C   0  0  0  0  0  0  0  0  0  0  0  0
  142.0990   71.6320  218.8480 C   0  0  0  0  0  0  0  0  0  0  0  0
  143.0420   71.7370  219.9790 N   0  0  0  0  0  0  0  0  0  0  0  0
  144.0230   72.8330  219.7950 C   0  0  1  0  0  0  0  0  0  0  0  0
  144.8360   73.0830  221.0560 C   0  0  0  0  0  0  0  0  0  0  0  0
  146.2120   73.5090  220.5640 C   0  0  0  0  0  0  0  0  0  0  0  0
  146.3130   73.2060  219.1340 N   0  0  0  0  0  0  0  0  0  0  0  0
  145.0990   72.4760  218.7750 C   0  0  0  0  0  0  0  0  0  0  0  0
  142.2260   71.9020  221.2000 C   0  0  0  0  0  0  0  0  0  0  0  0
  139.8010   71.3680  221.7540 C   0  0  0  0  0  0  0  0  0  0  0  0
  139.8090   70.0690  222.2760 C   0  0  0  0  0  0  0  0  0  0  0  0
  138.8310   69.7150  223.2190 C   0  0  0  0  0  0  0  0  0  0  0  0
  137.8720   70.6580  223.6320 C   0  0  0  0  0  0  0  0  0  0  0  0
  137.8790   71.9540  223.0950 C   0  0  0  0  0  0  0  0  0  0  0  0
  138.8450   72.2750  222.1350 C   0  0  0  0  0  0  0  0  0  0  0  0
  140.1010   76.2540  222.0720 N   0  0  0  0  0  0  0  0  0  0  0  0
  140.2090   77.5140  222.5280 C   0  0  0  0  0  0  0  0  0  0  0  0
  141.3800   78.2480  222.7110 C   0  0  0  0  0  0  0  0  0  0  0  0
  143.7740   79.4350  221.9830 H   0  0  0  0  0  0  0  0  0  0  0  0
  144.5590   80.6970  222.9790 H   0  0  0  0  0  0  0  0  0  0  0  0
  139.8977   81.1174  223.9061 H   0  0  0  0  0  0  0  0  0  0  0  0
  137.8297   79.7321  223.5421 H   0  0  0  0  0  0  0  0  0  0  0  0
  136.9468   77.1442  222.6411 H   0  0  0  0  0  0  0  0  0  0  0  0
  140.0209   73.7381  219.6347 H   0  0  0  0  0  0  0  0  0  0  0  0
  141.0009   74.1872  221.0375 H   0  0  0  0  0  0  0  0  0  0  0  0
  140.6157   70.2091  219.5377 H   0  0  0  0  0  0  0  0  0  0  0  0
  139.9057   71.6176  218.7778 H   0  0  0  0  0  0  0  0  0  0  0  0
  142.4239   70.8372  218.1605 H   0  0  0  0  0  0  0  0  0  0  0  0
  142.0607   72.5768  218.2860 H   0  0  0  0  0  0  0  0  0  0  0  0
  143.4080   73.6934  219.4926 H   0  0  0  0  0  0  0  0  0  0  0  0
  144.3776   73.8807  221.6590 H   0  0  0  0  0  0  0  0  0  0  0  0
  144.8861   72.1906  221.6972 H   0  0  0  0  0  0  0  0  0  0  0  0
  146.3444   74.5892  220.7239 H   0  0  0  0  0  0  0  0  0  0  0  0
  146.9929   72.9678  221.1183 H   0  0  0  0  0  0  0  0  0  0  0  0
  146.3120   74.1110  218.6070 H   0  0  0  0  0  0  0  0  0  0  0  0
  144.7707   72.7683  217.7666 H   0  0  0  0  0  0  0  0  0  0  0  0
  145.2869   71.3922  218.7774 H   0  0  0  0  0  0  0  0  0  0  0  0
  142.3700   71.0384  221.8659 H   0  0  0  0  0  0  0  0  0  0  0  0
  142.5249   72.8113  221.7420 H   0  0  0  0  0  0  0  0  0  0  0  0
  140.5669   69.3399  221.9536 H   0  0  0  0  0  0  0  0  0  0  0  0
  138.8144   68.6973  223.6362 H   0  0  0  0  0  0  0  0  0  0  0  0
  137.1141   70.3781  224.3785 H   0  0  0  0  0  0  0  0  0  0  0  0
  137.1411   72.7016  223.4215 H   0  0  0  0  0  0  0  0  0  0  0  0
  140.8800   75.6250  221.7760 H   0  0  0  0  0  0  0  0  0  0  0  0
  142.3624   77.8114  222.4780 H   0  0  0  0  0  0  0  0  0  0  0  0
  1  2  1  0
  2  3  2  0
  2  4  1  0
  4  5  2  0
  5  6  1  0
  6  7  2  0
  7  8  1  0
  8  9  2  0
  9 10  1  0
 10 11  2  0
 10 12  1  0
 12 13  1  0
 14 13  1  6
 14 15  1  0
 15 16  1  0
 16 17  1  0
 17 18  1  0
 18 19  1  0
 19 20  1  0
 20 21  1  0
 21 22  1  0
 17 23  1  0
 14 24  1  0
 24 25  2  0
 25 26  1  0
 26 27  2  0
 27 28  1  0
 28 29  2  0
  9 30  1  0
 30 31  1  0
 31 32  2  0
 32  4  1  0
 31  7  1  0
 29 12  1  0
 23 14  1  0
 29 24  1  0
 22 18  1  0
  1 33  1  0
  1 34  1  0
  5 35  1  0
  6 36  1  0
  8 37  1  0
 13 38  1  0
 13 39  1  0
 15 40  1  0
 15 41  1  0
 16 42  1  0
 16 43  1  0
 18 44  1  6
 19 45  1  0
 19 46  1  0
 20 47  1  0
 20 48  1  0
 21 49  1  0
 22 50  1  0
 22 51  1  0
 23 52  1  0
 23 53  1  0
 25 54  1  0
 26 55  1  0
 27 56  1  0
 28 57  1  0
 30 58  1  0
 32 59  1  0
M  END
>  <meeko>  (16) 
{"free_energy": -8.6, "intermolecular_energy": -9.79, "internal_energy": -1.03, "cluster_size": 2, "cluster_id": 3, "rank_in_cluster": 2}

$$$$

     RDKit          3D

 59 64  0  0  0  0  0  0  0  0999 V2000
  141.0250   67.6770  227.0880 N   0  0  0  0  0  0  0  0  0  0  0  0
  139.8320   67.7190  226.3000 C   0  0  0  0  0  0  0  0  0  0  0  0
  138.8560   66.9930  226.6350 O   0  0  0  0  0  0  0  0  0  0  0  0
  139.7140   68.6050  225.1160 C   0  0  0  0  0  0  0  0  0  0  0  0
  139.0850   68.1240  223.9350 C   0  0  0  0  0  0  0  0  0  0  0  0
  138.9650   68.9400  222.7960 C   0  0  0  0  0  0  0  0  0  0  0  0
  139.4880   70.2270  222.8620 C   0  0  0  0  0  0  0  0  0  0  0  0
  139.5170   71.2300  221.9180 C   0  0  0  0  0  0  0  0  0  0  0  0
  140.1780   72.2890  222.5390 C   0  0  0  0  0  0  0  0  0  0  0  0
  140.4360   73.6080  221.9360 C   0  0  0  0  0  0  0  0  0  0  0  0
  139.5870   74.5280  222.0780 O   0  0  0  0  0  0  0  0  0  0  0  0
  141.6070   73.8480  221.1460 N   0  0  0  0  0  0  0  0  0  0  0  0
  142.6140   72.8310  220.8530 C   0  0  0  0  0  0  0  0  0  0  0  0
  143.7310   73.5650  220.0300 C   0  0  1  0  0  0  0  0  0  0  0  0
  145.0630   73.5820  220.7610 C   0  0  0  0  0  0  0  0  0  0  0  0
  145.7130   72.2880  220.3170 C   0  0  0  0  0  0  0  0  0  0  0  0
  145.2610   72.0170  218.9380 N   0  0  0  0  0  0  0  0  0  0  0  0
  145.0110   70.5750  218.7000 C   0  0  1  0  0  0  0  0  0  0  0  0
  146.2940   69.7600  218.7640 C   0  0  0  0  0  0  0  0  0  0  0  0
  145.8820   68.4130  219.3420 C   0  0  0  0  0  0  0  0  0  0  0  0
  144.5320   68.5360  219.8960 N   0  0  0  0  0  0  0  0  0  0  0  0
  144.1680   69.9480  219.8060 C   0  0  0  0  0  0  0  0  0  0  0  0
  144.0600   72.8470  218.7120 C   0  0  0  0  0  0  0  0  0  0  0  0
  143.1600   74.9440  219.8390 C   0  0  0  0  0  0  0  0  0  0  0  0
  143.6930   76.0190  219.1180 C   0  0  0  0  0  0  0  0  0  0  0  0
  142.9570   77.2130  219.0470 C   0  0  0  0  0  0  0  0  0  0  0  0
  141.7060   77.3130  219.6830 C   0  0  0  0  0  0  0  0  0  0  0  0
  141.1910   76.2250  220.4020 C   0  0  0  0  0  0  0  0  0  0  0  0
  141.9550   75.0550  220.4850 C   0  0  0  0  0  0  0  0  0  0  0  0
  140.5280   71.9630  223.8070 N   0  0  0  0  0  0  0  0  0  0  0  0
  140.1020   70.7010  223.9880 C   0  0  0  0  0  0  0  0  0  0  0  0
  140.2390   69.9200  225.1340 C   0  0  0  0  0  0  0  0  0  0  0  0
  141.7980   68.3650  226.9540 H   0  0  0  0  0  0  0  0  0  0  0  0
  141.1000   67.0020  227.8810 H   0  0  0  0  0  0  0  0  0  0  0  0
  138.6866   67.0990  223.9120 H   0  0  0  0  0  0  0  0  0  0  0  0
  138.4737   68.5725  221.8830 H   0  0  0  0  0  0  0  0  0  0  0  0
  139.1080   71.2016  220.8973 H   0  0  0  0  0  0  0  0  0  0  0  0
  143.0302   72.4233  221.7860 H   0  0  0  0  0  0  0  0  0  0  0  0
  142.1868   71.9855  220.2939 H   0  0  0  0  0  0  0  0  0  0  0  0
  145.6672   74.4509  220.4612 H   0  0  0  0  0  0  0  0  0  0  0  0
  144.9568   73.6609  221.8530 H   0  0  0  0  0  0  0  0  0  0  0  0
  146.8080   72.3900  220.3405 H   0  0  0  0  0  0  0  0  0  0  0  0
  145.4316   71.4623  220.9871 H   0  0  0  0  0  0  0  0  0  0  0  0
  144.5230   70.5476  217.7145 H   0  0  0  0  0  0  0  0  0  0  0  0
  146.7216   69.6339  217.7584 H   0  0  0  0  0  0  0  0  0  0  0  0
  147.0640   70.2522  219.3762 H   0  0  0  0  0  0  0  0  0  0  0  0
  145.8890   67.6514  218.5484 H   0  0  0  0  0  0  0  0  0  0  0  0
  146.5863   68.1113  220.1313 H   0  0  0  0  0  0  0  0  0  0  0  0
  143.8760   67.9960  219.2840 H   0  0  0  0  0  0  0  0  0  0  0  0
  143.0995   70.0446  219.5630 H   0  0  0  0  0  0  0  0  0  0  0  0
  144.3518   70.4550  220.7647 H   0  0  0  0  0  0  0  0  0  0  0  0
  144.2593   73.5866  217.9225 H   0  0  0  0  0  0  0  0  0  0  0  0
  143.2138   72.2202  218.3941 H   0  0  0  0  0  0  0  0  0  0  0  0
  144.6684   75.9303  218.6172 H   0  0  0  0  0  0  0  0  0  0  0  0
  143.3600   78.0731  218.4922 H   0  0  0  0  0  0  0  0  0  0  0  0
  141.1301   78.2478  219.6160 H   0  0  0  0  0  0  0  0  0  0  0  0
  140.2075   76.2895  220.8904 H   0  0  0  0  0  0  0  0  0  0  0  0
  141.0250   72.5640  224.5020 H   0  0  0  0  0  0  0  0  0  0  0  0
  140.7418   70.3147  226.0292 H   0  0  0  0  0  0  0  0  0  0  0  0
  1  2  1  0
  2  3  2  0
  2  4  1  0
  4  5  2  0
  5  6  1  0
  6  7  2  0
  7  8  1  0
  8  9  2  0
  9 10  1  0
 10 11  2  0
 10 12  1  0
 12 13  1  0
 14 13  1  1
 14 15  1  0
 15 16  1  0
 16 17  1  0
 17 18  1  0
 18 19  1  0
 19 20  1  0
 20 21  1  0
 21 22  1  0
 17 23  1  0
 14 24  1  0
 24 25  2  0
 25 26  1  0
 26 27  2  0
 27 28  1  0
 28 29  2  0
  9 30  1  0
 30 31  1  0
 31 32  2  0
 32  4  1  0
 31  7  1  0
 29 12  1  0
 23 14  1  0
 29 24  1  0
 22 18  1  0
  1 33  1  0
  1 34  1  0
  5 35  1  0
  6 36  1  0
  8 37  1  0
 13 38  1  0
 13 39  1  0
 15 40  1  0
 15 41  1  0
 16 42  1  0
 16 43  1  0
 18 44  1  6
 19 45  1  0
 19 46  1  0
 20 47  1  0
 20 48  1  0
 21 49  1  0
 22 50  1  0
 22 51  1  0
 23 52  1  0
 23 53  1  0
 25 54  1  0
 26 55  1  0
 27 56  1  0
 28 57  1  0
 30 58  1  0
 32 59  1  0
M  END
>  <meeko>  (17) 
{"free_energy": -9.17, "intermolecular_energy": -10.36, "internal_energy": -1.1, "cluster_size": 6, "cluster_id": 1, "rank_in_cluster": 4}

$$$$

     RDKit          3D

 59 64  0  0  0  0  0  0  0  0999 V2000
  145.6680   72.2720  220.7270 N   0  0  0  0  0  0  0  0  0  0  0  0
  145.3060   73.0750  219.6010 C   0  0  0  0  0  0  0  0  0  0  0  0
  145.9510   72.9400  218.5250 O   0  0  0  0  0  0  0  0  0  0  0  0
  144.1860   74.0450  219.6670 C   0  0  0  0  0  0  0  0  0  0  0  0
  143.9420   74.9170  218.5710 C   0  0  0  0  0  0  0  0  0  0  0  0
  142.8900   75.8500  218.6090 C   0  0  0  0  0  0  0  0  0  0  0  0
  142.1040   75.8950  219.7550 C   0  0  0  0  0  0  0  0  0  0  0  0
  141.0270   76.6940  220.0700 C   0  0  0  0  0  0  0  0  0  0  0  0
  140.6530   76.3030  221.3550 C   0  0  0  0  0  0  0  0  0  0  0  0
  139.5230   76.8550  222.1220 C   0  0  0  0  0  0  0  0  0  0  0  0
  138.5150   76.1310  222.3420 O   0  0  0  0  0  0  0  0  0  0  0  0
  139.5250   78.2140  222.5750 N   0  0  0  0  0  0  0  0  0  0  0  0
  138.3160   78.9630  222.9110 C   0  0  0  0  0  0  0  0  0  0  0  0
  138.8020   80.4090  223.2790 C   0  0  1  0  0  0  0  0  0  0  0  0
  138.2650   81.4560  222.3170 C   0  0  0  0  0  0  0  0  0  0  0  0
  136.9380   81.8410  222.9380 C   0  0  0  0  0  0  0  0  0  0  0  0
  137.0820   81.7180  224.4020 N   0  0  0  0  0  0  0  0  0  0  0  0
  135.8610   81.1740  225.0440 C   0  0  1  0  0  0  0  0  0  0  0  0
  135.9160   81.2970  226.5590 C   0  0  0  0  0  0  0  0  0  0  0  0
  134.4760   81.5330  226.9920 C   0  0  0  0  0  0  0  0  0  0  0  0
  133.6810   81.8680  225.8080 N   0  0  0  0  0  0  0  0  0  0  0  0
  134.6180   81.9860  224.6930 C   0  0  0  0  0  0  0  0  0  0  0  0
  138.2740   80.8780  224.6430 C   0  0  0  0  0  0  0  0  0  0  0  0
  140.3000   80.2880  223.2220 C   0  0  0  0  0  0  0  0  0  0  0  0
  141.2680   81.2540  223.5240 C   0  0  0  0  0  0  0  0  0  0  0  0
  142.6240   80.9000  223.4340 C   0  0  0  0  0  0  0  0  0  0  0  0
  142.9920   79.5950  223.0560 C   0  0  0  0  0  0  0  0  0  0  0  0
  142.0070   78.6430  222.7550 C   0  0  0  0  0  0  0  0  0  0  0  0
  140.6630   79.0270  222.8230 C   0  0  0  0  0  0  0  0  0  0  0  0
  141.4490   75.3040  221.8070 N   0  0  0  0  0  0  0  0  0  0  0  0
  142.3310   75.0690  220.8210 C   0  0  0  0  0  0  0  0  0  0  0  0
  143.3640   74.1330  220.8170 C   0  0  0  0  0  0  0  0  0  0  0  0
  145.0770   72.2280  221.5850 H   0  0  0  0  0  0  0  0  0  0  0  0
  146.4980   71.6410  220.6700 H   0  0  0  0  0  0  0  0  0  0  0  0
  144.5852   74.8613  217.6804 H   0  0  0  0  0  0  0  0  0  0  0  0
  142.6956   76.5219  217.7600 H   0  0  0  0  0  0  0  0  0  0  0  0
  140.5633   77.4709  219.4444 H   0  0  0  0  0  0  0  0  0  0  0  0
  137.6329   78.9955  222.0494 H   0  0  0  0  0  0  0  0  0  0  0  0
  137.7659   78.4956  223.7410 H   0  0  0  0  0  0  0  0  0  0  0  0
  138.9402   82.3224  222.2585 H   0  0  0  0  0  0  0  0  0  0  0  0
  138.1699   81.0879  221.2848 H   0  0  0  0  0  0  0  0  0  0  0  0
  136.6850   82.8777  222.6711 H   0  0  0  0  0  0  0  0  0  0  0  0
  136.1337   81.1865  222.5711 H   0  0  0  0  0  0  0  0  0  0  0  0
  135.8134   80.1335  224.6904 H   0  0  0  0  0  0  0  0  0  0  0  0
  136.3070   80.3717  227.0073 H   0  0  0  0  0  0  0  0  0  0  0  0
  136.5814   82.1113  226.8818 H   0  0  0  0  0  0  0  0  0  0  0  0
  134.0761   80.6221  227.4613 H   0  0  0  0  0  0  0  0  0  0  0  0
  134.4325   82.3570  227.7194 H   0  0  0  0  0  0  0  0  0  0  0  0
  133.0410   81.0640  225.6060 H   0  0  0  0  0  0  0  0  0  0  0  0
  134.1593   81.5908  223.7747 H   0  0  0  0  0  0  0  0  0  0  0  0
  134.8820   83.0400  224.5214 H   0  0  0  0  0  0  0  0  0  0  0  0
  139.0465   81.4648  225.1616 H   0  0  0  0  0  0  0  0  0  0  0  0
  138.0140   80.0138  225.2720 H   0  0  0  0  0  0  0  0  0  0  0  0
  140.9721   82.2696  223.8256 H   0  0  0  0  0  0  0  0  0  0  0  0
  143.4012   81.6450  223.6597 H   0  0  0  0  0  0  0  0  0  0  0  0
  144.0556   79.3209  222.9965 H   0  0  0  0  0  0  0  0  0  0  0  0
  142.2848   77.6170  222.4717 H   0  0  0  0  0  0  0  0  0  0  0  0
  141.3930   74.8160  222.7290 H   0  0  0  0  0  0  0  0  0  0  0  0
  143.5363   73.4794  221.6849 H   0  0  0  0  0  0  0  0  0  0  0  0
  1  2  1  0
  2  3  2  0
  2  4  1  0
  4  5  2  0
  5  6  1  0
  6  7  2  0
  7  8  1  0
  8  9  2  0
  9 10  1  0
 10 11  2  0
 10 12  1  0
 12 13  1  0
 14 13  1  6
 14 15  1  0
 15 16  1  0
 16 17  1  0
 17 18  1  0
 18 19  1  0
 19 20  1  0
 20 21  1  0
 21 22  1  0
 17 23  1  0
 14 24  1  0
 24 25  2  0
 25 26  1  0
 26 27  2  0
 27 28  1  0
 28 29  2  0
  9 30  1  0
 30 31  1  0
 31 32  2  0
 32  4  1  0
 31  7  1  0
 29 12  1  0
 23 14  1  0
 29 24  1  0
 22 18  1  0
  1 33  1  0
  1 34  1  0
  5 35  1  0
  6 36  1  0
  8 37  1  0
 13 38  1  0
 13 39  1  0
 15 40  1  0
 15 41  1  0
 16 42  1  0
 16 43  1  0
 18 44  1  1
 19 45  1  0
 19 46  1  0
 20 47  1  0
 20 48  1  0
 21 49  1  0
 22 50  1  0
 22 51  1  0
 23 52  1  0
 23 53  1  0
 25 54  1  0
 26 55  1  0
 27 56  1  0
 28 57  1  0
 30 58  1  0
 32 59  1  0
M  END
>  <meeko>  (18) 
{"free_energy": -8.71, "intermolecular_energy": -9.91, "internal_energy": -1.1, "cluster_size": 11, "cluster_id": 2, "rank_in_cluster": 2}

$$$$

     RDKit          3D

 59 64  0  0  0  0  0  0  0  0999 V2000
  141.0110   67.6320  226.9920 N   0  0  0  0  0  0  0  0  0  0  0  0
  139.8270   67.7240  226.1960 C   0  0  0  0  0  0  0  0  0  0  0  0
  138.8270   67.0210  226.5110 O   0  0  0  0  0  0  0  0  0  0  0  0
  139.7440   68.6340  225.0280 C   0  0  0  0  0  0  0  0  0  0  0  0
  139.1320   68.1860  223.8260 C   0  0  0  0  0  0  0  0  0  0  0  0
  139.0450   69.0260  222.7020 C   0  0  0  0  0  0  0  0  0  0  0  0
  139.5840   70.3040  222.8030 C   0  0  0  0  0  0  0  0  0  0  0  0
  139.6460   71.3240  221.8800 C   0  0  0  0  0  0  0  0  0  0  0  0
  140.3090   72.3610  222.5340 C   0  0  0  0  0  0  0  0  0  0  0  0
  140.5980   73.6880  221.9620 C   0  0  0  0  0  0  0  0  0  0  0  0
  139.8020   74.6400  222.1810 O   0  0  0  0  0  0  0  0  0  0  0  0
  141.7350   73.9020  221.1170 N   0  0  0  0  0  0  0  0  0  0  0  0
  142.7340   72.8780  220.8200 C   0  0  0  0  0  0  0  0  0  0  0  0
  143.8140   73.5850  219.9270 C   0  0  1  0  0  0  0  0  0  0  0  0
  145.1740   73.6310  220.6040 C   0  0  0  0  0  0  0  0  0  0  0  0
  145.8110   72.3230  220.1790 C   0  0  0  0  0  0  0  0  0  0  0  0
  145.3050   72.0030  218.8300 N   0  0  0  0  0  0  0  0  0  0  0  0
  145.0510   70.5520  218.6540 C   0  0  1  0  0  0  0  0  0  0  0  0
  146.3340   69.7390  218.7340 C   0  0  0  0  0  0  0  0  0  0  0  0
  145.9290   68.4170  219.3710 C   0  0  0  0  0  0  0  0  0  0  0  0
  144.5860   68.5630  219.9380 N   0  0  0  0  0  0  0  0  0  0  0  0
  144.2220   69.9710  219.7960 C   0  0  0  0  0  0  0  0  0  0  0  0
  144.0920   72.8210  218.6240 C   0  0  0  0  0  0  0  0  0  0  0  0
  143.2300   74.9540  219.7110 C   0  0  0  0  0  0  0  0  0  0  0  0
  143.7290   76.0050  218.9310 C   0  0  0  0  0  0  0  0  0  0  0  0
  142.9870   77.1930  218.8480 C   0  0  0  0  0  0  0  0  0  0  0  0
  141.7620   77.3130  219.5290 C   0  0  0  0  0  0  0  0  0  0  0  0
  141.2810   76.2500  220.3080 C   0  0  0  0  0  0  0  0  0  0  0  0
  142.0520   75.0860  220.4010 C   0  0  0  0  0  0  0  0  0  0  0  0
  140.6300   72.0050  223.8020 N   0  0  0  0  0  0  0  0  0  0  0  0
  140.1830   70.7470  223.9500 C   0  0  0  0  0  0  0  0  0  0  0  0
  140.2870   69.9410  225.0830 C   0  0  0  0  0  0  0  0  0  0  0  0
  141.8060   68.2980  226.8760 H   0  0  0  0  0  0  0  0  0  0  0  0
  141.0600   66.9400  227.7720 H   0  0  0  0  0  0  0  0  0  0  0  0
  138.7204   67.1672  223.7744 H   0  0  0  0  0  0  0  0  0  0  0  0
  138.5661   68.6835  221.7728 H   0  0  0  0  0  0  0  0  0  0  0  0
  139.2571   71.3210  220.8510 H   0  0  0  0  0  0  0  0  0  0  0  0
  143.1891   72.5051  221.7494 H   0  0  0  0  0  0  0  0  0  0  0  0
  142.2882   72.0119  220.3090 H   0  0  0  0  0  0  0  0  0  0  0  0
  145.7626   74.4905  220.2507 H   0  0  0  0  0  0  0  0  0  0  0  0
  145.1108   73.7477  221.6960 H   0  0  0  0  0  0  0  0  0  0  0  0
  146.9057   72.4284  220.1546 H   0  0  0  0  0  0  0  0  0  0  0  0
  145.5601   71.5205  220.8882 H   0  0  0  0  0  0  0  0  0  0  0  0
  144.5500   70.4852  217.6770 H   0  0  0  0  0  0  0  0  0  0  0  0
  146.7483   69.5720  217.7288 H   0  0  0  0  0  0  0  0  0  0  0  0
  147.1122   70.2547  219.3158 H   0  0  0  0  0  0  0  0  0  0  0  0
  145.9251   67.6241  218.6085 H   0  0  0  0  0  0  0  0  0  0  0  0
  146.6436   68.1469  220.1625 H   0  0  0  0  0  0  0  0  0  0  0  0
  143.9230   68.0000  219.3560 H   0  0  0  0  0  0  0  0  0  0  0  0
  143.1505   70.0593  219.5636 H   0  0  0  0  0  0  0  0  0  0  0  0
  144.4191   70.5159  220.7310 H   0  0  0  0  0  0  0  0  0  0  0  0
  144.2556   73.5321  217.8009 H   0  0  0  0  0  0  0  0  0  0  0  0
  143.2363   72.1805  218.3641 H   0  0  0  0  0  0  0  0  0  0  0  0
  144.6835   75.9011  218.3942 H   0  0  0  0  0  0  0  0  0  0  0  0
  143.3648   78.0340  218.2480 H   0  0  0  0  0  0  0  0  0  0  0  0
  141.1796   78.2429  219.4505 H   0  0  0  0  0  0  0  0  0  0  0  0
  140.3184   76.3298  220.8344 H   0  0  0  0  0  0  0  0  0  0  0  0
  141.1220   72.5850  224.5180 H   0  0  0  0  0  0  0  0  0  0  0  0
  140.7778   70.3104  225.9955 H   0  0  0  0  0  0  0  0  0  0  0  0
  1  2  1  0
  2  3  2  0
  2  4  1  0
  4  5  2  0
  5  6  1  0
  6  7  2  0
  7  8  1  0
  8  9  2  0
  9 10  1  0
 10 11  2  0
 10 12  1  0
 12 13  1  0
 14 13  1  1
 14 15  1  0
 15 16  1  0
 16 17  1  0
 17 18  1  0
 18 19  1  0
 19 20  1  0
 20 21  1  0
 21 22  1  0
 17 23  1  0
 14 24  1  0
 24 25  2  0
 25 26  1  0
 26 27  2  0
 27 28  1  0
 28 29  2  0
  9 30  1  0
 30 31  1  0
 31 32  2  0
 32  4  1  0
 31  7  1  0
 29 12  1  0
 23 14  1  0
 29 24  1  0
 22 18  1  0
  1 33  1  0
  1 34  1  0
  5 35  1  0
  6 36  1  0
  8 37  1  0
 13 38  1  0
 13 39  1  0
 15 40  1  0
 15 41  1  0
 16 42  1  0
 16 43  1  0
 18 44  1  6
 19 45  1  0
 19 46  1  0
 20 47  1  0
 20 48  1  0
 21 49  1  0
 22 50  1  0
 22 51  1  0
 23 52  1  0
 23 53  1  0
 25 54  1  0
 26 55  1  0
 27 56  1  0
 28 57  1  0
 30 58  1  0
 32 59  1  0
M  END
>  <meeko>  (19) 
{"free_energy": -9.18, "intermolecular_energy": -10.37, "internal_energy": -1.11, "cluster_size": 6, "cluster_id": 1, "rank_in_cluster": 3}

$$$$

     RDKit          3D

 59 64  0  0  0  0  0  0  0  0999 V2000
  141.0050   67.6820  226.9410 N   0  0  0  0  0  0  0  0  0  0  0  0
  139.8180   67.7730  226.1500 C   0  0  0  0  0  0  0  0  0  0  0  0
  138.8190   67.0710  226.4690 O   0  0  0  0  0  0  0  0  0  0  0  0
  139.7310   68.6810  224.9800 C   0  0  0  0  0  0  0  0  0  0  0  0
  139.1340   68.2220  223.7740 C   0  0  0  0  0  0  0  0  0  0  0  0
  139.0430   69.0600  222.6480 C   0  0  0  0  0  0  0  0  0  0  0  0
  139.5630   70.3460  222.7520 C   0  0  0  0  0  0  0  0  0  0  0  0
  139.6170   71.3650  221.8280 C   0  0  0  0  0  0  0  0  0  0  0  0
  140.2610   72.4130  222.4870 C   0  0  0  0  0  0  0  0  0  0  0  0
  140.5350   73.7430  221.9160 C   0  0  0  0  0  0  0  0  0  0  0  0
  139.7000   74.6710  222.0860 O   0  0  0  0  0  0  0  0  0  0  0  0
  141.7040   73.9860  221.1240 N   0  0  0  0  0  0  0  0  0  0  0  0
  142.7830   73.0170  220.9440 C   0  0  0  0  0  0  0  0  0  0  0  0
  143.8660   73.7440  220.0720 C   0  0  1  0  0  0  0  0  0  0  0  0
  145.1780   73.9200  220.8190 C   0  0  0  0  0  0  0  0  0  0  0  0
  145.9210   72.6360  220.5100 C   0  0  0  0  0  0  0  0  0  0  0  0
  145.5180   72.2080  219.1560 N   0  0  0  0  0  0  0  0  0  0  0  0
  145.3690   70.7360  219.0530 C   0  0  1  0  0  0  0  0  0  0  0  0
  144.1300   70.2390  219.7840 C   0  0  0  0  0  0  0  0  0  0  0  0
  143.6390   69.0500  218.9710 C   0  0  0  0  0  0  0  0  0  0  0  0
  144.3260   69.0510  217.6770 N   0  0  0  0  0  0  0  0  0  0  0  0
  145.1090   70.2830  217.6200 C   0  0  0  0  0  0  0  0  0  0  0  0
  144.2700   72.9290  218.8340 C   0  0  0  0  0  0  0  0  0  0  0  0
  143.2100   75.0570  219.7430 C   0  0  0  0  0  0  0  0  0  0  0  0
  143.6860   76.0940  218.9310 C   0  0  0  0  0  0  0  0  0  0  0  0
  142.8750   77.2230  218.7350 C   0  0  0  0  0  0  0  0  0  0  0  0
  141.6070   77.2980  219.3400 C   0  0  0  0  0  0  0  0  0  0  0  0
  141.1490   76.2500  220.1520 C   0  0  0  0  0  0  0  0  0  0  0  0
  141.9870   75.1470  220.3570 C   0  0  0  0  0  0  0  0  0  0  0  0
  140.5770   72.0630  223.7570 N   0  0  0  0  0  0  0  0  0  0  0  0
  140.1480   70.7980  223.9030 C   0  0  0  0  0  0  0  0  0  0  0  0
  140.2540   69.9950  225.0370 C   0  0  0  0  0  0  0  0  0  0  0  0
  141.7990   68.3480  226.8200 H   0  0  0  0  0  0  0  0  0  0  0  0
  141.0570   66.9920  227.7220 H   0  0  0  0  0  0  0  0  0  0  0  0
  138.7378   67.1972  223.7208 H   0  0  0  0  0  0  0  0  0  0  0  0
  138.5759   68.7099  221.7157 H   0  0  0  0  0  0  0  0  0  0  0  0
  139.2360   71.3553  220.7962 H   0  0  0  0  0  0  0  0  0  0  0  0
  143.2054   72.7281  221.9177 H   0  0  0  0  0  0  0  0  0  0  0  0
  142.4248   72.0958  220.4613 H   0  0  0  0  0  0  0  0  0  0  0  0
  145.7303   74.7956  220.4472 H   0  0  0  0  0  0  0  0  0  0  0  0
  145.0432   74.0943  221.8967 H   0  0  0  0  0  0  0  0  0  0  0  0
  147.0063   72.8128  220.5410 H   0  0  0  0  0  0  0  0  0  0  0  0
  145.6796   71.8595  221.2508 H   0  0  0  0  0  0  0  0  0  0  0  0
  146.3093   70.3436  219.4676 H   0  0  0  0  0  0  0  0  0  0  0  0
  144.3847   69.9278  220.8078 H   0  0  0  0  0  0  0  0  0  0  0  0
  143.3626   71.0221  219.8729 H   0  0  0  0  0  0  0  0  0  0  0  0
  143.8625   68.1165  219.5082 H   0  0  0  0  0  0  0  0  0  0  0  0
  142.5520   69.1228  218.8187 H   0  0  0  0  0  0  0  0  0  0  0  0
  144.9940   68.2450  217.6610 H   0  0  0  0  0  0  0  0  0  0  0  0
  146.0641   70.0961  217.1073 H   0  0  0  0  0  0  0  0  0  0  0  0
  144.5636   71.0599  217.0641 H   0  0  0  0  0  0  0  0  0  0  0  0
  144.4365   73.6026  217.9805 H   0  0  0  0  0  0  0  0  0  0  0  0
  143.4743   72.2187  218.5650 H   0  0  0  0  0  0  0  0  0  0  0  0
  144.6758   76.0252  218.4561 H   0  0  0  0  0  0  0  0  0  0  0  0
  143.2322   78.0519  218.1062 H   0  0  0  0  0  0  0  0  0  0  0  0
  140.9726   78.1815  219.1757 H   0  0  0  0  0  0  0  0  0  0  0  0
  140.1533   76.2936  220.6176 H   0  0  0  0  0  0  0  0  0  0  0  0
  141.0560   72.6500  224.4760 H   0  0  0  0  0  0  0  0  0  0  0  0
  140.7319   70.3727  225.9530 H   0  0  0  0  0  0  0  0  0  0  0  0
  1  2  1  0
  2  3  2  0
  2  4  1  0
  4  5  2  0
  5  6  1  0
  6  7  2  0
  7  8  1  0
  8  9  2  0
  9 10  1  0
 10 11  2  0
 10 12  1  0
 12 13  1  0
 14 13  1  1
 14 15  1  0
 15 16  1  0
 16 17  1  0
 17 18  1  0
 18 19  1  0
 19 20  1  0
 20 21  1  0
 21 22  1  0
 17 23  1  0
 14 24  1  0
 24 25  2  0
 25 26  1  0
 26 27  2  0
 27 28  1  0
 28 29  2  0
  9 30  1  0
 30 31  1  0
 31 32  2  0
 32  4  1  0
 31  7  1  0
 29 12  1  0
 23 14  1  0
 29 24  1  0
 22 18  1  0
  1 33  1  0
  1 34  1  0
  5 35  1  0
  6 36  1  0
  8 37  1  0
 13 38  1  0
 13 39  1  0
 15 40  1  0
 15 41  1  0
 16 42  1  0
 16 43  1  0
 18 44  1  1
 19 45  1  0
 19 46  1  0
 20 47  1  0
 20 48  1  0
 21 49  1  0
 22 50  1  0
 22 51  1  0
 23 52  1  0
 23 53  1  0
 25 54  1  0
 26 55  1  0
 27 56  1  0
 28 57  1  0
 30 58  1  0
 32 59  1  0
M  END
>  <meeko>  (20) 
{"free_energy": -8.62, "intermolecular_energy": -9.81, "internal_energy": -1.2, "cluster_size": 6, "cluster_id": 1, "rank_in_cluster": 5}

$$$$
