
     RDKit          3D

 58 63  0  0  0  0  0  0  0  0999 V2000
  145.9330   72.7050  218.5880 N   0  0  0  0  0  0  0  0  0  0  0  0
  145.4070   73.1850  219.6690 C   0  0  0  0  0  0  0  0  0  0  0  0
  146.0710   73.0210  220.8830 O   0  0  0  0  0  0  0  0  0  0  0  0
  144.1160   73.9110  219.6210 C   0  0  0  0  0  0  0  0  0  0  0  0
  143.4430   74.1240  218.3870 C   0  0  0  0  0  0  0  0  0  0  0  0
  142.2170   74.8130  218.3430 C   0  0  0  0  0  0  0  0  0  0  0  0
  141.6850   75.2720  219.5440 C   0  0  0  0  0  0  0  0  0  0  0  0
  140.5270   75.9690  219.8000 C   0  0  0  0  0  0  0  0  0  0  0  0
  140.5170   76.1550  221.1830 C   0  0  0  0  0  0  0  0  0  0  0  0
  139.4860   76.8760  221.9530 C   0  0  0  0  0  0  0  0  0  0  0  0
  138.5680   76.2110  222.5050 O   0  0  0  0  0  0  0  0  0  0  0  0
  139.4840   78.3120  222.0510 N   0  0  0  0  0  0  0  0  0  0  0  0
  138.2630   79.1150  222.1750 C   0  0  0  0  0  0  0  0  0  0  0  0
  138.6720   80.4170  222.9470 C   0  0  1  0  0  0  0  0  0  0  0  0
  138.1880   81.7060  222.2680 C   0  0  0  0  0  0  0  0  0  0  0  0
  137.4150   82.4470  223.3490 C   0  0  0  0  0  0  0  0  0  0  0  0
  136.9710   81.4590  224.3480 N   0  0  0  0  0  0  0  0  0  0  0  0
  135.6660   80.8440  223.9790 C   0  0  2  0  0  0  0  0  0  0  0  0
  134.7900   81.7970  223.1810 C   0  0  0  0  0  0  0  0  0  0  0  0
  133.3700   81.3970  223.5290 C   0  0  0  0  0  0  0  0  0  0  0  0
  133.3910   80.7330  224.8320 N   0  0  0  0  0  0  0  0  0  0  0  0
  134.7940   80.5450  225.2030 C   0  0  0  0  0  0  0  0  0  0  0  0
  138.0660   80.4720  224.3640 C   0  0  0  0  0  0  0  0  0  0  0  0
  140.1690   80.3080  222.9970 C   0  0  0  0  0  0  0  0  0  0  0  0
  141.0940   81.2350  223.4920 C   0  0  0  0  0  0  0  0  0  0  0  0
  142.4590   80.9100  223.4560 C   0  0  0  0  0  0  0  0  0  0  0  0
  142.8790   79.6750  222.9310 C   0  0  0  0  0  0  0  0  0  0  0  0
  141.9350   78.7550  222.4460 C   0  0  0  0  0  0  0  0  0  0  0  0
  140.5780   79.0940  222.5060 C   0  0  0  0  0  0  0  0  0  0  0  0
  141.6230   75.6160  221.7480 N   0  0  0  0  0  0  0  0  0  0  0  0
  142.3230   75.0750  220.7370 C   0  0  0  0  0  0  0  0  0  0  0  0
  143.5410   74.4010  220.8170 C   0  0  0  0  0  0  0  0  0  0  0  0
  146.0310   72.1420  221.3870 H   0  0  0  0  0  0  0  0  0  0  0  0
  143.8865   73.7452  217.4544 H   0  0  0  0  0  0  0  0  0  0  0  0
  141.6957   74.9834  217.3895 H   0  0  0  0  0  0  0  0  0  0  0  0
  139.7733   76.3062  219.0732 H   0  0  0  0  0  0  0  0  0  0  0  0
  137.8712   79.3694  221.1791 H   0  0  0  0  0  0  0  0  0  0  0  0
  137.4737   78.5645  222.7078 H   0  0  0  0  0  0  0  0  0  0  0  0
  139.0424   82.3062  221.9219 H   0  0  0  0  0  0  0  0  0  0  0  0
  137.5701   81.5018  221.3812 H   0  0  0  0  0  0  0  0  0  0  0  0
  138.0648   83.1950  223.8267 H   0  0  0  0  0  0  0  0  0  0  0  0
  136.5487   82.9657  222.9126 H   0  0  0  0  0  0  0  0  0  0  0  0
  135.9535   79.9407  223.4209 H   0  0  0  0  0  0  0  0  0  0  0  0
  134.9826   82.8393  223.4751 H   0  0  0  0  0  0  0  0  0  0  0  0
  134.9864   81.7368  222.1004 H   0  0  0  0  0  0  0  0  0  0  0  0
  132.7318   82.2916  223.5768 H   0  0  0  0  0  0  0  0  0  0  0  0
  132.9665   80.7191  222.7625 H   0  0  0  0  0  0  0  0  0  0  0  0
  132.9380   81.3610  225.5380 H   0  0  0  0  0  0  0  0  0  0  0  0
  135.0563   81.2312  226.0217 H   0  0  0  0  0  0  0  0  0  0  0  0
  134.9591   79.5107  225.5392 H   0  0  0  0  0  0  0  0  0  0  0  0
  138.8352   80.7782  225.0883 H   0  0  0  0  0  0  0  0  0  0  0  0
  137.6868   79.4823  224.6583 H   0  0  0  0  0  0  0  0  0  0  0  0
  140.7577   82.1991  223.9011 H   0  0  0  0  0  0  0  0  0  0  0  0
  143.2027   81.6239  223.8398 H   0  0  0  0  0  0  0  0  0  0  0  0
  143.9506   79.4285  222.9000 H   0  0  0  0  0  0  0  0  0  0  0  0
  142.2550   77.7891  222.0281 H   0  0  0  0  0  0  0  0  0  0  0  0
  141.8800   75.6140  222.7600 H   0  0  0  0  0  0  0  0  0  0  0  0
  144.0419   74.2541  221.7853 H   0  0  0  0  0  0  0  0  0  0  0  0
  1  2  2  0
  2  3  1  0
  2  4  1  0
  4  5  2  0
  5  6  1  0
  6  7  2  0
  7  8  1  0
  8  9  2  0
  9 10  1  0
 10 11  2  0
 10 12  1  0
 12 13  1  0
 14 13  1  6
 14 15  1  0
 15 16  1  0
 16 17  1  0
 17 18  1  0
 18 19  1  0
 19 20  1  0
 20 21  1  0
 21 22  1  0
 17 23  1  0
 14 24  1  0
 24 25  2  0
 25 26  1  0
 26 27  2  0
 27 28  1  0
 28 29  2  0
  9 30  1  0
 30 31  1  0
 31 32  2  0
 32  4  1  0
 31  7  1  0
 29 12  1  0
 23 14  1  0
 29 24  1  0
 22 18  1  0
  3 33  1  0
  5 34  1  0
  6 35  1  0
  8 36  1  0
 13 37  1  0
 13 38  1  0
 15 39  1  0
 15 40  1  0
 16 41  1  0
 16 42  1  0
 18 43  1  6
 19 44  1  0
 19 45  1  0
 20 46  1  0
 20 47  1  0
 21 48  1  0
 22 49  1  0
 22 50  1  0
 23 51  1  0
 23 52  1  0
 25 53  1  0
 26 54  1  0
 27 55  1  0
 28 56  1  0
 30 57  1  0
 32 58  1  0
M  CHG  1   1  -1
M  END
>  <meeko>  (1) 
{"free_energy": -8.09, "intermolecular_energy": -9.58, "internal_energy": -1.08, "cluster_size": 11, "cluster_id": 1, "rank_in_cluster": 11}

$$$$

     RDKit          3D

 58 63  0  0  0  0  0  0  0  0999 V2000
  145.9360   72.3780  218.2220 N   0  0  0  0  0  0  0  0  0  0  0  0
  145.5660   72.9580  219.3190 C   0  0  0  0  0  0  0  0  0  0  0  0
  146.2490   72.6820  220.5010 O   0  0  0  0  0  0  0  0  0  0  0  0
  144.4320   73.9130  219.3210 C   0  0  0  0  0  0  0  0  0  0  0  0
  144.0820   74.6350  218.1470 C   0  0  0  0  0  0  0  0  0  0  0  0
  143.0060   75.5400  218.1520 C   0  0  0  0  0  0  0  0  0  0  0  0
  142.2960   75.7010  219.3370 C   0  0  0  0  0  0  0  0  0  0  0  0
  141.2200   76.5080  219.6330 C   0  0  0  0  0  0  0  0  0  0  0  0
  140.9350   76.2500  220.9740 C   0  0  0  0  0  0  0  0  0  0  0  0
  139.8730   76.8920  221.7730 C   0  0  0  0  0  0  0  0  0  0  0  0
  139.0010   76.1610  222.3170 O   0  0  0  0  0  0  0  0  0  0  0  0
  139.7900   78.3220  221.9070 N   0  0  0  0  0  0  0  0  0  0  0  0
  138.5240   79.0610  221.9510 C   0  0  0  0  0  0  0  0  0  0  0  0
  138.8020   80.3570  222.7870 C   0  0  1  0  0  0  0  0  0  0  0  0
  138.3090   81.6410  222.1040 C   0  0  0  0  0  0  0  0  0  0  0  0
  137.4150   82.3110  223.1370 C   0  0  0  0  0  0  0  0  0  0  0  0
  136.9440   81.2740  224.0710 N   0  0  0  0  0  0  0  0  0  0  0  0
  135.7060   80.6070  223.5810 C   0  0  2  0  0  0  0  0  0  0  0  0
  134.5330   80.8160  224.5250 C   0  0  0  0  0  0  0  0  0  0  0  0
  133.6750   79.5780  224.3540 C   0  0  0  0  0  0  0  0  0  0  0  0
  134.5310   78.4970  223.8660 N   0  0  0  0  0  0  0  0  0  0  0  0
  135.8360   79.0800  223.5530 C   0  0  0  0  0  0  0  0  0  0  0  0
  138.0830   80.3420  224.1500 C   0  0  0  0  0  0  0  0  0  0  0  0
  140.2950   80.3200  222.9560 C   0  0  0  0  0  0  0  0  0  0  0  0
  141.1280   81.2760  223.5480 C   0  0  0  0  0  0  0  0  0  0  0  0
  142.5060   81.0190  223.6150 C   0  0  0  0  0  0  0  0  0  0  0  0
  143.0300   79.8220  223.0950 C   0  0  0  0  0  0  0  0  0  0  0  0
  142.1760   78.8730  222.5110 C   0  0  0  0  0  0  0  0  0  0  0  0
  140.8030   79.1430  222.4690 C   0  0  0  0  0  0  0  0  0  0  0  0
  141.8030   75.3450  221.4840 N   0  0  0  0  0  0  0  0  0  0  0  0
  142.6230   75.0150  220.4730 C   0  0  0  0  0  0  0  0  0  0  0  0
  143.6860   74.1130  220.5070 C   0  0  0  0  0  0  0  0  0  0  0  0
  145.9470   71.9380  221.1200 H   0  0  0  0  0  0  0  0  0  0  0  0
  144.6602   74.4836  217.2236 H   0  0  0  0  0  0  0  0  0  0  0  0
  142.7342   76.1031  217.2470 H   0  0  0  0  0  0  0  0  0  0  0  0
  140.6990   77.2041  218.9591 H   0  0  0  0  0  0  0  0  0  0  0  0
  138.2017   79.3258  220.9332 H   0  0  0  0  0  0  0  0  0  0  0  0
  137.7233   78.4571  222.4028 H   0  0  0  0  0  0  0  0  0  0  0  0
  139.1568   82.2921  221.8444 H   0  0  0  0  0  0  0  0  0  0  0  0
  137.7755   81.4335  221.1647 H   0  0  0  0  0  0  0  0  0  0  0  0
  137.9853   83.0757  223.6847 H   0  0  0  0  0  0  0  0  0  0  0  0
  136.5608   82.7989  222.6447 H   0  0  0  0  0  0  0  0  0  0  0  0
  135.5515   81.0464  222.5845 H   0  0  0  0  0  0  0  0  0  0  0  0
  134.8826   80.9050  225.5641 H   0  0  0  0  0  0  0  0  0  0  0  0
  133.9792   81.7399  224.3019 H   0  0  0  0  0  0  0  0  0  0  0  0
  133.2313   79.2953  225.3200 H   0  0  0  0  0  0  0  0  0  0  0  0
  132.8619   79.7730  223.6393 H   0  0  0  0  0  0  0  0  0  0  0  0
  134.6520   77.7910  224.6320 H   0  0  0  0  0  0  0  0  0  0  0  0
  136.5756   78.7568  224.3003 H   0  0  0  0  0  0  0  0  0  0  0  0
  136.1681   78.7483  222.5582 H   0  0  0  0  0  0  0  0  0  0  0  0
  138.7755   80.6643  224.9415 H   0  0  0  0  0  0  0  0  0  0  0  0
  137.7320   79.3268  224.3871 H   0  0  0  0  0  0  0  0  0  0  0  0
  140.7111   82.2100  223.9527 H   0  0  0  0  0  0  0  0  0  0  0  0
  143.1790   81.7568  224.0761 H   0  0  0  0  0  0  0  0  0  0  0  0
  144.1117   79.6288  223.1460 H   0  0  0  0  0  0  0  0  0  0  0  0
  142.5773   77.9370  222.0952 H   0  0  0  0  0  0  0  0  0  0  0  0
  141.8300   74.9750  222.4600 H   0  0  0  0  0  0  0  0  0  0  0  0
  143.9379   73.5715  221.4308 H   0  0  0  0  0  0  0  0  0  0  0  0
  1  2  2  0
  2  3  1  0
  2  4  1  0
  4  5  2  0
  5  6  1  0
  6  7  2  0
  7  8  1  0
  8  9  2  0
  9 10  1  0
 10 11  2  0
 10 12  1  0
 12 13  1  0
 14 13  1  6
 14 15  1  0
 15 16  1  0
 16 17  1  0
 17 18  1  0
 18 19  1  0
 19 20  1  0
 20 21  1  0
 21 22  1  0
 17 23  1  0
 14 24  1  0
 24 25  2  0
 25 26  1  0
 26 27  2  0
 27 28  1  0
 28 29  2  0
  9 30  1  0
 30 31  1  0
 31 32  2  0
 32  4  1  0
 31  7  1  0
 29 12  1  0
 23 14  1  0
 29 24  1  0
 22 18  1  0
  3 33  1  0
  5 34  1  0
  6 35  1  0
  8 36  1  0
 13 37  1  0
 13 38  1  0
 15 39  1  0
 15 40  1  0
 16 41  1  0
 16 42  1  0
 18 43  1  6
 19 44  1  0
 19 45  1  0
 20 46  1  0
 20 47  1  0
 21 48  1  0
 22 49  1  0
 22 50  1  0
 23 51  1  0
 23 52  1  0
 25 53  1  0
 26 54  1  0
 27 55  1  0
 28 56  1  0
 30 57  1  0
 32 58  1  0
M  CHG  1   1  -1
M  END
>  <meeko>  (2) 
{"free_energy": -8.34, "intermolecular_energy": -9.83, "internal_energy": -1.1, "cluster_size": 11, "cluster_id": 1, "rank_in_cluster": 2}

$$$$

     RDKit          3D

 58 63  0  0  0  0  0  0  0  0999 V2000
  145.9500   72.6230  218.8870 N   0  0  0  0  0  0  0  0  0  0  0  0
  145.4860   73.0850  220.0030 C   0  0  0  0  0  0  0  0  0  0  0  0
  146.1900   72.8540  221.1830 O   0  0  0  0  0  0  0  0  0  0  0  0
  144.2230   73.8600  220.0310 C   0  0  0  0  0  0  0  0  0  0  0  0
  144.0710   75.0390  219.2490 C   0  0  0  0  0  0  0  0  0  0  0  0
  142.8710   75.7720  219.2770 C   0  0  0  0  0  0  0  0  0  0  0  0
  141.8410   75.3060  220.0870 C   0  0  0  0  0  0  0  0  0  0  0  0
  140.5810   75.8130  220.3140 C   0  0  0  0  0  0  0  0  0  0  0  0
  139.9940   74.9280  221.2180 C   0  0  0  0  0  0  0  0  0  0  0  0
  138.6420   75.0490  221.7960 C   0  0  0  0  0  0  0  0  0  0  0  0
  137.9730   73.9990  221.9950 O   0  0  0  0  0  0  0  0  0  0  0  0
  138.0620   76.3310  222.0960 N   0  0  0  0  0  0  0  0  0  0  0  0
  138.7410   77.3650  222.8840 C   0  0  0  0  0  0  0  0  0  0  0  0
  138.1710   78.7390  222.3880 C   0  0  1  0  0  0  0  0  0  0  0  0
  137.7160   79.6580  223.5310 C   0  0  0  0  0  0  0  0  0  0  0  0
  138.4620   80.9630  223.2980 C   0  0  0  0  0  0  0  0  0  0  0  0
  139.6600   80.6650  222.4960 N   0  0  0  0  0  0  0  0  0  0  0  0
  140.8170   80.2740  223.3490 C   0  0  2  0  0  0  0  0  0  0  0  0
  141.8240   81.4030  223.4970 C   0  0  0  0  0  0  0  0  0  0  0  0
  143.1580   80.7070  223.6810 C   0  0  0  0  0  0  0  0  0  0  0  0
  143.0610   79.3750  223.0860 N   0  0  0  0  0  0  0  0  0  0  0  0
  141.6610   79.1630  222.7150 C   0  0  0  0  0  0  0  0  0  0  0  0
  139.2200   79.5650  221.6190 C   0  0  0  0  0  0  0  0  0  0  0  0
  137.0420   78.3160  221.4920 C   0  0  0  0  0  0  0  0  0  0  0  0
  136.1060   79.1220  220.8310 C   0  0  0  0  0  0  0  0  0  0  0  0
  135.1420   78.5060  220.0190 C   0  0  0  0  0  0  0  0  0  0  0  0
  135.1230   77.1070  219.8780 C   0  0  0  0  0  0  0  0  0  0  0  0
  136.0750   76.3170  220.5430 C   0  0  0  0  0  0  0  0  0  0  0  0
  137.0370   76.9540  221.3360 C   0  0  0  0  0  0  0  0  0  0  0  0
  140.8550   73.9360  221.5470 N   0  0  0  0  0  0  0  0  0  0  0  0
  141.9750   74.1760  220.8450 C   0  0  0  0  0  0  0  0  0  0  0  0
  143.1500   73.4260  220.8460 C   0  0  0  0  0  0  0  0  0  0  0  0
  146.0960   71.9800  221.6860 H   0  0  0  0  0  0  0  0  0  0  0  0
  144.9021   75.3813  218.6149 H   0  0  0  0  0  0  0  0  0  0  0  0
  142.7508   76.6859  218.6766 H   0  0  0  0  0  0  0  0  0  0  0  0
  140.1347   76.7187  219.8774 H   0  0  0  0  0  0  0  0  0  0  0  0
  138.5293   77.2287  223.9548 H   0  0  0  0  0  0  0  0  0  0  0  0
  139.8323   77.3143  222.7556 H   0  0  0  0  0  0  0  0  0  0  0  0
  136.6288   79.8199  223.4891 H   0  0  0  0  0  0  0  0  0  0  0  0
  137.9293   79.2278  224.5207 H   0  0  0  0  0  0  0  0  0  0  0  0
  137.8167   81.6704  222.7565 H   0  0  0  0  0  0  0  0  0  0  0  0
  138.7481   81.4164  224.2585 H   0  0  0  0  0  0  0  0  0  0  0  0
  140.3505   79.9745  224.2991 H   0  0  0  0  0  0  0  0  0  0  0  0
  141.8361   82.0327  222.5951 H   0  0  0  0  0  0  0  0  0  0  0  0
  141.5823   82.0687  224.3387 H   0  0  0  0  0  0  0  0  0  0  0  0
  143.9509   81.2822  223.1804 H   0  0  0  0  0  0  0  0  0  0  0  0
  143.4034   80.6298  224.7505 H   0  0  0  0  0  0  0  0  0  0  0  0
  143.6460   79.3500  222.2170 H   0  0  0  0  0  0  0  0  0  0  0  0
  141.5578   79.1973  221.6204 H   0  0  0  0  0  0  0  0  0  0  0  0
  141.3207   78.1801  223.0728 H   0  0  0  0  0  0  0  0  0  0  0  0
  138.7738   79.9744  220.7007 H   0  0  0  0  0  0  0  0  0  0  0  0
  140.0752   78.9329  221.3376 H   0  0  0  0  0  0  0  0  0  0  0  0
  136.1265   80.2157  220.9463 H   0  0  0  0  0  0  0  0  0  0  0  0
  134.3979   79.1199  219.4904 H   0  0  0  0  0  0  0  0  0  0  0  0
  134.3603   76.6300  219.2450 H   0  0  0  0  0  0  0  0  0  0  0  0
  136.0650   75.2216  220.4429 H   0  0  0  0  0  0  0  0  0  0  0  0
  140.6860   73.1430  222.2060 H   0  0  0  0  0  0  0  0  0  0  0  0
  143.2410   72.5205  221.4639 H   0  0  0  0  0  0  0  0  0  0  0  0
  1  2  2  0
  2  3  1  0
  2  4  1  0
  4  5  2  0
  5  6  1  0
  6  7  2  0
  7  8  1  0
  8  9  2  0
  9 10  1  0
 10 11  2  0
 10 12  1  0
 12 13  1  0
 14 13  1  1
 14 15  1  0
 15 16  1  0
 16 17  1  0
 17 18  1  0
 18 19  1  0
 19 20  1  0
 20 21  1  0
 21 22  1  0
 17 23  1  0
 14 24  1  0
 24 25  2  0
 25 26  1  0
 26 27  2  0
 27 28  1  0
 28 29  2  0
  9 30  1  0
 30 31  1  0
 31 32  2  0
 32  4  1  0
 31  7  1  0
 29 12  1  0
 23 14  1  0
 29 24  1  0
 22 18  1  0
  3 33  1  0
  5 34  1  0
  6 35  1  0
  8 36  1  0
 13 37  1  0
 13 38  1  0
 15 39  1  0
 15 40  1  0
 16 41  1  0
 16 42  1  0
 18 43  1  1
 19 44  1  0
 19 45  1  0
 20 46  1  0
 20 47  1  0
 21 48  1  0
 22 49  1  0
 22 50  1  0
 23 51  1  0
 23 52  1  0
 25 53  1  0
 26 54  1  0
 27 55  1  0
 28 56  1  0
 30 57  1  0
 32 58  1  0
M  CHG  1   1  -1
M  END
>  <meeko>  (3) 
{"free_energy": -7.81, "intermolecular_energy": -9.3, "internal_energy": -1.41, "cluster_size": 2, "cluster_id": 5, "rank_in_cluster": 2}

$$$$

     RDKit          3D

 58 63  0  0  0  0  0  0  0  0999 V2000
  145.9100   72.3490  218.2190 N   0  0  0  0  0  0  0  0  0  0  0  0
  145.5560   72.9350  219.3170 C   0  0  0  0  0  0  0  0  0  0  0  0
  146.2500   72.6590  220.4920 O   0  0  0  0  0  0  0  0  0  0  0  0
  144.4280   73.8970  219.3280 C   0  0  0  0  0  0  0  0  0  0  0  0
  144.0820   74.6310  218.1600 C   0  0  0  0  0  0  0  0  0  0  0  0
  143.0120   75.5430  218.1730 C   0  0  0  0  0  0  0  0  0  0  0  0
  142.3030   75.6980  219.3590 C   0  0  0  0  0  0  0  0  0  0  0  0
  141.2310   76.5090  219.6620 C   0  0  0  0  0  0  0  0  0  0  0  0
  140.9450   76.2420  221.0010 C   0  0  0  0  0  0  0  0  0  0  0  0
  139.8880   76.8820  221.8060 C   0  0  0  0  0  0  0  0  0  0  0  0
  139.0180   76.1520  222.3540 O   0  0  0  0  0  0  0  0  0  0  0  0
  139.8060   78.3130  221.9420 N   0  0  0  0  0  0  0  0  0  0  0  0
  138.5400   79.0510  222.0010 C   0  0  0  0  0  0  0  0  0  0  0  0
  138.8280   80.3470  222.8340 C   0  0  1  0  0  0  0  0  0  0  0  0
  138.3260   81.6320  222.1570 C   0  0  0  0  0  0  0  0  0  0  0  0
  137.4440   82.3000  223.2010 C   0  0  0  0  0  0  0  0  0  0  0  0
  136.9840   81.2630  224.1400 N   0  0  0  0  0  0  0  0  0  0  0  0
  135.7400   80.5950  223.6640 C   0  0  2  0  0  0  0  0  0  0  0  0
  134.5750   80.8150  224.6150 C   0  0  0  0  0  0  0  0  0  0  0  0
  133.7130   79.5770  224.4590 C   0  0  0  0  0  0  0  0  0  0  0  0
  134.5620   78.4910  223.9720 N   0  0  0  0  0  0  0  0  0  0  0  0
  135.8660   79.0680  223.6460 C   0  0  0  0  0  0  0  0  0  0  0  0
  138.1240   80.3310  224.2060 C   0  0  0  0  0  0  0  0  0  0  0  0
  140.3220   80.3100  222.9860 C   0  0  0  0  0  0  0  0  0  0  0  0
  141.1620   81.2670  223.5690 C   0  0  0  0  0  0  0  0  0  0  0  0
  142.5400   81.0100  223.6200 C   0  0  0  0  0  0  0  0  0  0  0  0
  143.0580   79.8140  223.0930 C   0  0  0  0  0  0  0  0  0  0  0  0
  142.1980   78.8640  222.5190 C   0  0  0  0  0  0  0  0  0  0  0  0
  140.8240   79.1340  222.4930 C   0  0  0  0  0  0  0  0  0  0  0  0
  141.8080   75.3270  221.5030 N   0  0  0  0  0  0  0  0  0  0  0  0
  142.6260   75.0000  220.4890 C   0  0  0  0  0  0  0  0  0  0  0  0
  143.6830   74.0920  220.5150 C   0  0  0  0  0  0  0  0  0  0  0  0
  145.9570   71.9120  221.1120 H   0  0  0  0  0  0  0  0  0  0  0  0
  144.6587   74.4834  217.2350 H   0  0  0  0  0  0  0  0  0  0  0  0
  142.7441   76.1160  217.2730 H   0  0  0  0  0  0  0  0  0  0  0  0
  140.7137   77.2133  218.9939 H   0  0  0  0  0  0  0  0  0  0  0  0
  138.2053   79.3158  220.9872 H   0  0  0  0  0  0  0  0  0  0  0  0
  137.7447   78.4467  222.4618 H   0  0  0  0  0  0  0  0  0  0  0  0
  139.1702   82.2839  221.8880 H   0  0  0  0  0  0  0  0  0  0  0  0
  137.7819   81.4251  221.2236 H   0  0  0  0  0  0  0  0  0  0  0  0
  138.0204   83.0646  223.7425 H   0  0  0  0  0  0  0  0  0  0  0  0
  136.5837   82.7872  222.7188 H   0  0  0  0  0  0  0  0  0  0  0  0
  135.5789   81.0268  222.6652 H   0  0  0  0  0  0  0  0  0  0  0  0
  134.9324   80.9110  225.6509 H   0  0  0  0  0  0  0  0  0  0  0  0
  134.0220   81.7388  224.3897 H   0  0  0  0  0  0  0  0  0  0  0  0
  133.2762   79.3019  225.4304 H   0  0  0  0  0  0  0  0  0  0  0  0
  132.8951   79.7691  223.7490 H   0  0  0  0  0  0  0  0  0  0  0  0
  134.6870   77.7900  224.7420 H   0  0  0  0  0  0  0  0  0  0  0  0
  136.6099   78.7482  224.3906 H   0  0  0  0  0  0  0  0  0  0  0  0
  136.1905   78.7282  222.6514 H   0  0  0  0  0  0  0  0  0  0  0  0
  138.8253   80.6530  224.9899 H   0  0  0  0  0  0  0  0  0  0  0  0
  137.7759   79.3157  224.4467 H   0  0  0  0  0  0  0  0  0  0  0  0
  140.7496   82.2010  223.9785 H   0  0  0  0  0  0  0  0  0  0  0  0
  143.2182   81.7474  224.0742 H   0  0  0  0  0  0  0  0  0  0  0  0
  144.1404   79.6218  223.1305 H   0  0  0  0  0  0  0  0  0  0  0  0
  142.5948   77.9280  222.0989 H   0  0  0  0  0  0  0  0  0  0  0  0
  141.8330   74.9480  222.4770 H   0  0  0  0  0  0  0  0  0  0  0  0
  143.9316   73.5414  221.4342 H   0  0  0  0  0  0  0  0  0  0  0  0
  1  2  2  0
  2  3  1  0
  2  4  1  0
  4  5  2  0
  5  6  1  0
  6  7  2  0
  7  8  1  0
  8  9  2  0
  9 10  1  0
 10 11  2  0
 10 12  1  0
 12 13  1  0
 14 13  1  6
 14 15  1  0
 15 16  1  0
 16 17  1  0
 17 18  1  0
 18 19  1  0
 19 20  1  0
 20 21  1  0
 21 22  1  0
 17 23  1  0
 14 24  1  0
 24 25  2  0
 25 26  1  0
 26 27  2  0
 27 28  1  0
 28 29  2  0
  9 30  1  0
 30 31  1  0
 31 32  2  0
 32  4  1  0
 31  7  1  0
 29 12  1  0
 23 14  1  0
 29 24  1  0
 22 18  1  0
  3 33  1  0
  5 34  1  0
  6 35  1  0
  8 36  1  0
 13 37  1  0
 13 38  1  0
 15 39  1  0
 15 40  1  0
 16 41  1  0
 16 42  1  0
 18 43  1  6
 19 44  1  0
 19 45  1  0
 20 46  1  0
 20 47  1  0
 21 48  1  0
 22 49  1  0
 22 50  1  0
 23 51  1  0
 23 52  1  0
 25 53  1  0
 26 54  1  0
 27 55  1  0
 28 56  1  0
 30 57  1  0
 32 58  1  0
M  CHG  1   1  -1
M  END
>  <meeko>  (4) 
{"free_energy": -8.32, "intermolecular_energy": -9.82, "internal_energy": -1.11, "cluster_size": 11, "cluster_id": 1, "rank_in_cluster": 6}

$$$$

     RDKit          3D

 58 63  0  0  0  0  0  0  0  0999 V2000
  145.9450   72.3700  218.2190 N   0  0  0  0  0  0  0  0  0  0  0  0
  145.5800   72.9620  219.3110 C   0  0  0  0  0  0  0  0  0  0  0  0
  146.2730   72.7030  220.4920 O   0  0  0  0  0  0  0  0  0  0  0  0
  144.4430   73.9120  219.3100 C   0  0  0  0  0  0  0  0  0  0  0  0
  144.0850   74.6220  218.1310 C   0  0  0  0  0  0  0  0  0  0  0  0
  143.0060   75.5240  218.1320 C   0  0  0  0  0  0  0  0  0  0  0  0
  142.2990   75.6930  219.3180 C   0  0  0  0  0  0  0  0  0  0  0  0
  141.2210   76.4970  219.6110 C   0  0  0  0  0  0  0  0  0  0  0  0
  140.9430   76.2510  220.9560 C   0  0  0  0  0  0  0  0  0  0  0  0
  139.8820   76.8950  221.7530 C   0  0  0  0  0  0  0  0  0  0  0  0
  139.0040   76.1680  222.2920 O   0  0  0  0  0  0  0  0  0  0  0  0
  139.8060   78.3250  221.8930 N   0  0  0  0  0  0  0  0  0  0  0  0
  138.5440   79.0690  221.9540 C   0  0  0  0  0  0  0  0  0  0  0  0
  138.8380   80.3620  222.7910 C   0  0  1  0  0  0  0  0  0  0  0  0
  138.3420   81.6500  222.1170 C   0  0  0  0  0  0  0  0  0  0  0  0
  137.4630   82.3200  223.1630 C   0  0  0  0  0  0  0  0  0  0  0  0
  136.9990   81.2820  224.0990 N   0  0  0  0  0  0  0  0  0  0  0  0
  135.7520   80.6220  223.6220 C   0  0  2  0  0  0  0  0  0  0  0  0
  134.5850   80.8530  224.5690 C   0  0  0  0  0  0  0  0  0  0  0  0
  133.7150   79.6210  224.4140 C   0  0  0  0  0  0  0  0  0  0  0  0
  134.5580   78.5270  223.9340 N   0  0  0  0  0  0  0  0  0  0  0  0
  135.8670   79.0940  223.6100 C   0  0  0  0  0  0  0  0  0  0  0  0
  138.1340   80.3450  224.1620 C   0  0  0  0  0  0  0  0  0  0  0  0
  140.3320   80.3180  222.9420 C   0  0  0  0  0  0  0  0  0  0  0  0
  141.1770   81.2690  223.5270 C   0  0  0  0  0  0  0  0  0  0  0  0
  142.5540   81.0060  223.5780 C   0  0  0  0  0  0  0  0  0  0  0  0
  143.0660   79.8080  223.0470 C   0  0  0  0  0  0  0  0  0  0  0  0
  142.2020   78.8640  222.4710 C   0  0  0  0  0  0  0  0  0  0  0  0
  140.8290   79.1410  222.4460 C   0  0  0  0  0  0  0  0  0  0  0  0
  141.8170   75.3530  221.4710 N   0  0  0  0  0  0  0  0  0  0  0  0
  142.6340   75.0170  220.4590 C   0  0  0  0  0  0  0  0  0  0  0  0
  143.7000   74.1200  220.4970 C   0  0  0  0  0  0  0  0  0  0  0  0
  146.0200   71.9220  221.0870 H   0  0  0  0  0  0  0  0  0  0  0  0
  144.6594   74.4637  217.2064 H   0  0  0  0  0  0  0  0  0  0  0  0
  142.7297   76.0787  217.2231 H   0  0  0  0  0  0  0  0  0  0  0  0
  140.6936   77.1838  218.9327 H   0  0  0  0  0  0  0  0  0  0  0  0
  138.2108   79.3383  220.9408 H   0  0  0  0  0  0  0  0  0  0  0  0
  137.7459   78.4672  222.4133 H   0  0  0  0  0  0  0  0  0  0  0  0
  139.1891   82.2986  221.8492 H   0  0  0  0  0  0  0  0  0  0  0  0
  137.7968   81.4476  221.1833 H   0  0  0  0  0  0  0  0  0  0  0  0
  138.0429   83.0806  223.7064 H   0  0  0  0  0  0  0  0  0  0  0  0
  136.6050   82.8129  222.6826 H   0  0  0  0  0  0  0  0  0  0  0  0
  135.5970   81.0521  222.6215 H   0  0  0  0  0  0  0  0  0  0  0  0
  134.9398   80.9496  225.6057 H   0  0  0  0  0  0  0  0  0  0  0  0
  134.0392   81.7800  224.3391 H   0  0  0  0  0  0  0  0  0  0  0  0
  133.2725   79.3525  225.3846 H   0  0  0  0  0  0  0  0  0  0  0  0
  132.9013   79.8165  223.7001 H   0  0  0  0  0  0  0  0  0  0  0  0
  134.6760   77.8280  224.7070 H   0  0  0  0  0  0  0  0  0  0  0  0
  136.6063   78.7717  224.3580 H   0  0  0  0  0  0  0  0  0  0  0  0
  136.1920   78.7485  222.6175 H   0  0  0  0  0  0  0  0  0  0  0  0
  138.8367   80.6611  224.9471 H   0  0  0  0  0  0  0  0  0  0  0  0
  137.7811   79.3305  224.3993 H   0  0  0  0  0  0  0  0  0  0  0  0
  140.7691   82.2040  223.9385 H   0  0  0  0  0  0  0  0  0  0  0  0
  143.2356   81.7388  224.0346 H   0  0  0  0  0  0  0  0  0  0  0  0
  144.1475   79.6105  223.0834 H   0  0  0  0  0  0  0  0  0  0  0  0
  142.5942   77.9272  222.0484 H   0  0  0  0  0  0  0  0  0  0  0  0
  141.8490   74.9920  222.4500 H   0  0  0  0  0  0  0  0  0  0  0  0
  143.9572   73.5878  221.4247 H   0  0  0  0  0  0  0  0  0  0  0  0
  1  2  2  0
  2  3  1  0
  2  4  1  0
  4  5  2  0
  5  6  1  0
  6  7  2  0
  7  8  1  0
  8  9  2  0
  9 10  1  0
 10 11  2  0
 10 12  1  0
 12 13  1  0
 14 13  1  6
 14 15  1  0
 15 16  1  0
 16 17  1  0
 17 18  1  0
 18 19  1  0
 19 20  1  0
 20 21  1  0
 21 22  1  0
 17 23  1  0
 14 24  1  0
 24 25  2  0
 25 26  1  0
 26 27  2  0
 27 28  1  0
 28 29  2  0
  9 30  1  0
 30 31  1  0
 31 32  2  0
 32  4  1  0
 31  7  1  0
 29 12  1  0
 23 14  1  0
 29 24  1  0
 22 18  1  0
  3 33  1  0
  5 34  1  0
  6 35  1  0
  8 36  1  0
 13 37  1  0
 13 38  1  0
 15 39  1  0
 15 40  1  0
 16 41  1  0
 16 42  1  0
 18 43  1  6
 19 44  1  0
 19 45  1  0
 20 46  1  0
 20 47  1  0
 21 48  1  0
 22 49  1  0
 22 50  1  0
 23 51  1  0
 23 52  1  0
 25 53  1  0
 26 54  1  0
 27 55  1  0
 28 56  1  0
 30 57  1  0
 32 58  1  0
M  CHG  1   1  -1
M  END
>  <meeko>  (5) 
{"free_energy": -8.33, "intermolecular_energy": -9.82, "internal_energy": -1.11, "cluster_size": 11, "cluster_id": 1, "rank_in_cluster": 5}

$$$$

     RDKit          3D

 58 63  0  0  0  0  0  0  0  0999 V2000
  145.9470   72.4210  218.2870 N   0  0  0  0  0  0  0  0  0  0  0  0
  145.5750   73.0260  219.3680 C   0  0  0  0  0  0  0  0  0  0  0  0
  146.2750   72.8020  220.5510 O   0  0  0  0  0  0  0  0  0  0  0  0
  144.4210   73.9570  219.3520 C   0  0  0  0  0  0  0  0  0  0  0  0
  144.0320   74.6180  218.1550 C   0  0  0  0  0  0  0  0  0  0  0  0
  142.9370   75.5010  218.1420 C   0  0  0  0  0  0  0  0  0  0  0  0
  142.2470   75.7000  219.3340 C   0  0  0  0  0  0  0  0  0  0  0  0
  141.1600   76.4960  219.6160 C   0  0  0  0  0  0  0  0  0  0  0  0
  140.9080   76.2930  220.9730 C   0  0  0  0  0  0  0  0  0  0  0  0
  139.8490   76.9470  221.7650 C   0  0  0  0  0  0  0  0  0  0  0  0
  138.9600   76.2280  222.2970 O   0  0  0  0  0  0  0  0  0  0  0  0
  139.7880   78.3780  221.9070 N   0  0  0  0  0  0  0  0  0  0  0  0
  138.5340   79.1350  221.9640 C   0  0  0  0  0  0  0  0  0  0  0  0
  138.8380   80.4230  222.8040 C   0  0  1  0  0  0  0  0  0  0  0  0
  138.3590   81.7180  222.1310 C   0  0  0  0  0  0  0  0  0  0  0  0
  137.4820   82.3960  223.1730 C   0  0  0  0  0  0  0  0  0  0  0  0
  137.0030   81.3610  224.1060 N   0  0  0  0  0  0  0  0  0  0  0  0
  135.7510   80.7150  223.6220 C   0  0  2  0  0  0  0  0  0  0  0  0
  134.5750   80.9820  224.5480 C   0  0  0  0  0  0  0  0  0  0  0  0
  133.6860   79.7640  224.4020 C   0  0  0  0  0  0  0  0  0  0  0  0
  134.5160   78.6470  223.9520 N   0  0  0  0  0  0  0  0  0  0  0  0
  135.8390   79.1850  223.6370 C   0  0  0  0  0  0  0  0  0  0  0  0
  138.1280   80.4120  224.1720 C   0  0  0  0  0  0  0  0  0  0  0  0
  140.3310   80.3630  222.9620 C   0  0  0  0  0  0  0  0  0  0  0  0
  141.1830   81.3040  223.5520 C   0  0  0  0  0  0  0  0  0  0  0  0
  142.5570   81.0260  223.6080 C   0  0  0  0  0  0  0  0  0  0  0  0
  143.0590   79.8240  223.0780 C   0  0  0  0  0  0  0  0  0  0  0  0
  142.1870   78.8900  222.4960 C   0  0  0  0  0  0  0  0  0  0  0  0
  140.8170   79.1810  222.4660 C   0  0  0  0  0  0  0  0  0  0  0  0
  141.8060   75.4300  221.5040 N   0  0  0  0  0  0  0  0  0  0  0  0
  142.6120   75.0710  220.4920 C   0  0  0  0  0  0  0  0  0  0  0  0
  143.6950   74.1940  220.5430 C   0  0  0  0  0  0  0  0  0  0  0  0
  145.9670   72.1040  221.2190 H   0  0  0  0  0  0  0  0  0  0  0  0
  144.5944   74.4367  217.2272 H   0  0  0  0  0  0  0  0  0  0  0  0
  142.6357   76.0178  217.2189 H   0  0  0  0  0  0  0  0  0  0  0  0
  140.6101   77.1495  218.9227 H   0  0  0  0  0  0  0  0  0  0  0  0
  138.2079   79.4094  220.9499 H   0  0  0  0  0  0  0  0  0  0  0  0
  137.7277   78.5410  222.4190 H   0  0  0  0  0  0  0  0  0  0  0  0
  139.2145   82.3579  221.8689 H   0  0  0  0  0  0  0  0  0  0  0  0
  137.8159   81.5230  221.1945 H   0  0  0  0  0  0  0  0  0  0  0  0
  138.0669   83.1502  223.7199 H   0  0  0  0  0  0  0  0  0  0  0  0
  136.6314   82.8983  222.6891 H   0  0  0  0  0  0  0  0  0  0  0  0
  135.6179   81.1311  222.6125 H   0  0  0  0  0  0  0  0  0  0  0  0
  134.9169   81.0902  225.5879 H   0  0  0  0  0  0  0  0  0  0  0  0
  134.0488   81.9140  224.2942 H   0  0  0  0  0  0  0  0  0  0  0  0
  133.2258   79.5200  225.3709 H   0  0  0  0  0  0  0  0  0  0  0  0
  132.8855   79.9615  223.6738 H   0  0  0  0  0  0  0  0  0  0  0  0
  134.6100   77.9590  224.7380 H   0  0  0  0  0  0  0  0  0  0  0  0
  136.5621   78.8624  224.4006 H   0  0  0  0  0  0  0  0  0  0  0  0
  136.1714   78.8170  222.6551 H   0  0  0  0  0  0  0  0  0  0  0  0
  138.8308   80.7197  224.9603 H   0  0  0  0  0  0  0  0  0  0  0  0
  137.7632   79.4010  224.4062 H   0  0  0  0  0  0  0  0  0  0  0  0
  140.7833   82.2426  223.9635 H   0  0  0  0  0  0  0  0  0  0  0  0
  143.2443   81.7511  224.0683 H   0  0  0  0  0  0  0  0  0  0  0  0
  144.1381   79.6149  223.1195 H   0  0  0  0  0  0  0  0  0  0  0  0
  142.5712   77.9502  222.0728 H   0  0  0  0  0  0  0  0  0  0  0  0
  141.8610   75.1040  222.4960 H   0  0  0  0  0  0  0  0  0  0  0  0
  143.9773   73.6996  221.4842 H   0  0  0  0  0  0  0  0  0  0  0  0
  1  2  2  0
  2  3  1  0
  2  4  1  0
  4  5  2  0
  5  6  1  0
  6  7  2  0
  7  8  1  0
  8  9  2  0
  9 10  1  0
 10 11  2  0
 10 12  1  0
 12 13  1  0
 14 13  1  6
 14 15  1  0
 15 16  1  0
 16 17  1  0
 17 18  1  0
 18 19  1  0
 19 20  1  0
 20 21  1  0
 21 22  1  0
 17 23  1  0
 14 24  1  0
 24 25  2  0
 25 26  1  0
 26 27  2  0
 27 28  1  0
 28 29  2  0
  9 30  1  0
 30 31  1  0
 31 32  2  0
 32  4  1  0
 31  7  1  0
 29 12  1  0
 23 14  1  0
 29 24  1  0
 22 18  1  0
  3 33  1  0
  5 34  1  0
  6 35  1  0
  8 36  1  0
 13 37  1  0
 13 38  1  0
 15 39  1  0
 15 40  1  0
 16 41  1  0
 16 42  1  0
 18 43  1  6
 19 44  1  0
 19 45  1  0
 20 46  1  0
 20 47  1  0
 21 48  1  0
 22 49  1  0
 22 50  1  0
 23 51  1  0
 23 52  1  0
 25 53  1  0
 26 54  1  0
 27 55  1  0
 28 56  1  0
 30 57  1  0
 32 58  1  0
M  CHG  1   1  -1
M  END
>  <meeko>  (6) 
{"free_energy": -8.32, "intermolecular_energy": -9.81, "internal_energy": -1.11, "cluster_size": 11, "cluster_id": 1, "rank_in_cluster": 7}

$$$$

     RDKit          3D

 58 63  0  0  0  0  0  0  0  0999 V2000
  145.9340   72.3660  218.2330 N   0  0  0  0  0  0  0  0  0  0  0  0
  145.5660   72.9410  219.3320 C   0  0  0  0  0  0  0  0  0  0  0  0
  146.2510   72.6620  220.5120 O   0  0  0  0  0  0  0  0  0  0  0  0
  144.4310   73.8950  219.3400 C   0  0  0  0  0  0  0  0  0  0  0  0
  144.0770   74.6190  218.1690 C   0  0  0  0  0  0  0  0  0  0  0  0
  143.0010   75.5240  218.1780 C   0  0  0  0  0  0  0  0  0  0  0  0
  142.2940   75.6830  219.3660 C   0  0  0  0  0  0  0  0  0  0  0  0
  141.2180   76.4870  219.6660 C   0  0  0  0  0  0  0  0  0  0  0  0
  140.9370   76.2270  221.0080 C   0  0  0  0  0  0  0  0  0  0  0  0
  139.8780   76.8660  221.8110 C   0  0  0  0  0  0  0  0  0  0  0  0
  139.0070   76.1350  222.3550 O   0  0  0  0  0  0  0  0  0  0  0  0
  139.7950   78.2960  221.9500 N   0  0  0  0  0  0  0  0  0  0  0  0
  138.5290   79.0340  222.0100 C   0  0  0  0  0  0  0  0  0  0  0  0
  138.8160   80.3290  222.8470 C   0  0  1  0  0  0  0  0  0  0  0  0
  138.3160   81.6140  222.1720 C   0  0  0  0  0  0  0  0  0  0  0  0
  137.4320   82.2810  223.2160 C   0  0  0  0  0  0  0  0  0  0  0  0
  136.9710   81.2410  224.1520 N   0  0  0  0  0  0  0  0  0  0  0  0
  135.7280   80.5740  223.6740 C   0  0  2  0  0  0  0  0  0  0  0  0
  134.5660   80.7750  224.6340 C   0  0  0  0  0  0  0  0  0  0  0  0
  133.7090   79.5370  224.4650 C   0  0  0  0  0  0  0  0  0  0  0  0
  134.5610   78.4610  223.9590 N   0  0  0  0  0  0  0  0  0  0  0  0
  135.8610   79.0490  223.6340 C   0  0  0  0  0  0  0  0  0  0  0  0
  138.1110   80.3090  224.2170 C   0  0  0  0  0  0  0  0  0  0  0  0
  140.3110   80.2920  222.9990 C   0  0  0  0  0  0  0  0  0  0  0  0
  141.1500   81.2470  223.5860 C   0  0  0  0  0  0  0  0  0  0  0  0
  142.5280   80.9900  223.6380 C   0  0  0  0  0  0  0  0  0  0  0  0
  143.0470   79.7950  223.1080 C   0  0  0  0  0  0  0  0  0  0  0  0
  142.1870   78.8460  222.5310 C   0  0  0  0  0  0  0  0  0  0  0  0
  140.8140   79.1170  222.5040 C   0  0  0  0  0  0  0  0  0  0  0  0
  141.8080   75.3220  221.5140 N   0  0  0  0  0  0  0  0  0  0  0  0
  142.6250   74.9940  220.4990 C   0  0  0  0  0  0  0  0  0  0  0  0
  143.6880   74.0930  220.5280 C   0  0  0  0  0  0  0  0  0  0  0  0
  145.9530   71.9130  221.1270 H   0  0  0  0  0  0  0  0  0  0  0  0
  144.6525   74.4692  217.2436 H   0  0  0  0  0  0  0  0  0  0  0  0
  142.7268   76.0885  217.2746 H   0  0  0  0  0  0  0  0  0  0  0  0
  140.6938   77.1828  218.9944 H   0  0  0  0  0  0  0  0  0  0  0  0
  138.1952   79.3013  220.9965 H   0  0  0  0  0  0  0  0  0  0  0  0
  137.7336   78.4284  222.4690 H   0  0  0  0  0  0  0  0  0  0  0  0
  139.1609   82.2660  221.9055 H   0  0  0  0  0  0  0  0  0  0  0  0
  137.7734   81.4088  221.2374 H   0  0  0  0  0  0  0  0  0  0  0  0
  138.0075   83.0445  223.7599 H   0  0  0  0  0  0  0  0  0  0  0  0
  136.5727   82.7700  222.7338 H   0  0  0  0  0  0  0  0  0  0  0  0
  135.5596   81.0193  222.6823 H   0  0  0  0  0  0  0  0  0  0  0  0
  134.9281   80.8578  225.6694 H   0  0  0  0  0  0  0  0  0  0  0  0
  134.0079   81.6994  224.4242 H   0  0  0  0  0  0  0  0  0  0  0  0
  133.2778   79.2467  225.4344 H   0  0  0  0  0  0  0  0  0  0  0  0
  132.8869   79.7353  223.7616 H   0  0  0  0  0  0  0  0  0  0  0  0
  134.6930   77.7500  224.7180 H   0  0  0  0  0  0  0  0  0  0  0  0
  136.6104   78.7224  224.3700 H   0  0  0  0  0  0  0  0  0  0  0  0
  136.1817   78.7247  222.6330 H   0  0  0  0  0  0  0  0  0  0  0  0
  138.8113   80.6289  225.0027 H   0  0  0  0  0  0  0  0  0  0  0  0
  137.7629   79.2929  224.4546 H   0  0  0  0  0  0  0  0  0  0  0  0
  140.7370   82.1796  223.9979 H   0  0  0  0  0  0  0  0  0  0  0  0
  143.2056   81.7261  224.0952 H   0  0  0  0  0  0  0  0  0  0  0  0
  144.1295   79.6030  223.1455 H   0  0  0  0  0  0  0  0  0  0  0  0
  142.5837   77.9105  222.1097 H   0  0  0  0  0  0  0  0  0  0  0  0
  141.8380   74.9500  222.4890 H   0  0  0  0  0  0  0  0  0  0  0  0
  143.9427   73.5501  221.4501 H   0  0  0  0  0  0  0  0  0  0  0  0
  1  2  2  0
  2  3  1  0
  2  4  1  0
  4  5  2  0
  5  6  1  0
  6  7  2  0
  7  8  1  0
  8  9  2  0
  9 10  1  0
 10 11  2  0
 10 12  1  0
 12 13  1  0
 14 13  1  6
 14 15  1  0
 15 16  1  0
 16 17  1  0
 17 18  1  0
 18 19  1  0
 19 20  1  0
 20 21  1  0
 21 22  1  0
 17 23  1  0
 14 24  1  0
 24 25  2  0
 25 26  1  0
 26 27  2  0
 27 28  1  0
 28 29  2  0
  9 30  1  0
 30 31  1  0
 31 32  2  0
 32  4  1  0
 31  7  1  0
 29 12  1  0
 23 14  1  0
 29 24  1  0
 22 18  1  0
  3 33  1  0
  5 34  1  0
  6 35  1  0
  8 36  1  0
 13 37  1  0
 13 38  1  0
 15 39  1  0
 15 40  1  0
 16 41  1  0
 16 42  1  0
 18 43  1  6
 19 44  1  0
 19 45  1  0
 20 46  1  0
 20 47  1  0
 21 48  1  0
 22 49  1  0
 22 50  1  0
 23 51  1  0
 23 52  1  0
 25 53  1  0
 26 54  1  0
 27 55  1  0
 28 56  1  0
 30 57  1  0
 32 58  1  0
M  CHG  1   1  -1
M  END
>  <meeko>  (7) 
{"free_energy": -8.34, "intermolecular_energy": -9.83, "internal_energy": -1.1, "cluster_size": 11, "cluster_id": 1, "rank_in_cluster": 1}

$$$$

     RDKit          3D

 58 63  0  0  0  0  0  0  0  0999 V2000
  145.6130   72.2480  217.9030 N   0  0  0  0  0  0  0  0  0  0  0  0
  145.5590   73.2250  218.7510 C   0  0  0  0  0  0  0  0  0  0  0  0
  146.6640   73.4900  219.5560 O   0  0  0  0  0  0  0  0  0  0  0  0
  144.3400   74.0610  218.8610 C   0  0  0  0  0  0  0  0  0  0  0  0
  143.7160   74.5990  217.7020 C   0  0  0  0  0  0  0  0  0  0  0  0
  142.5600   75.3930  217.8090 C   0  0  0  0  0  0  0  0  0  0  0  0
  142.0470   75.6280  219.0810 C   0  0  0  0  0  0  0  0  0  0  0  0
  140.9510   76.3590  219.4830 C   0  0  0  0  0  0  0  0  0  0  0  0
  140.9290   76.2400  220.8730 C   0  0  0  0  0  0  0  0  0  0  0  0
  139.9530   76.8700  221.7810 C   0  0  0  0  0  0  0  0  0  0  0  0
  139.1620   76.1290  222.4270 O   0  0  0  0  0  0  0  0  0  0  0  0
  139.8570   78.3000  221.9120 N   0  0  0  0  0  0  0  0  0  0  0  0
  138.5850   79.0300  221.9270 C   0  0  0  0  0  0  0  0  0  0  0  0
  138.8370   80.3290  222.7680 C   0  0  1  0  0  0  0  0  0  0  0  0
  138.3500   81.6090  222.0720 C   0  0  0  0  0  0  0  0  0  0  0  0
  137.4290   82.2740  223.0840 C   0  0  0  0  0  0  0  0  0  0  0  0
  136.9440   81.2350  224.0080 N   0  0  0  0  0  0  0  0  0  0  0  0
  135.7210   80.5590  223.4920 C   0  0  2  0  0  0  0  0  0  0  0  0
  134.5270   80.7580  224.4120 C   0  0  0  0  0  0  0  0  0  0  0  0
  133.6830   79.5140  224.2210 C   0  0  0  0  0  0  0  0  0  0  0  0
  134.5570   78.4400  223.7490 N   0  0  0  0  0  0  0  0  0  0  0  0
  135.8640   79.0340  223.4650 C   0  0  0  0  0  0  0  0  0  0  0  0
  138.0870   80.3100  224.1140 C   0  0  0  0  0  0  0  0  0  0  0  0
  140.3250   80.3020  222.9690 C   0  0  0  0  0  0  0  0  0  0  0  0
  141.1390   81.2650  223.5790 C   0  0  0  0  0  0  0  0  0  0  0  0
  142.5170   81.0170  223.6770 C   0  0  0  0  0  0  0  0  0  0  0  0
  143.0590   79.8230  223.1690 C   0  0  0  0  0  0  0  0  0  0  0  0
  142.2250   78.8670  222.5680 C   0  0  0  0  0  0  0  0  0  0  0  0
  140.8510   79.1280  222.4950 C   0  0  0  0  0  0  0  0  0  0  0  0
  141.9700   75.4900  221.3070 N   0  0  0  0  0  0  0  0  0  0  0  0
  142.6390   75.1180  220.2030 C   0  0  0  0  0  0  0  0  0  0  0  0
  143.7880   74.3320  220.1350 C   0  0  0  0  0  0  0  0  0  0  0  0
  147.0560   74.4230  219.6180 H   0  0  0  0  0  0  0  0  0  0  0  0
  144.1427   74.3916  216.7095 H   0  0  0  0  0  0  0  0  0  0  0  0
  142.0767   75.8149  216.9154 H   0  0  0  0  0  0  0  0  0  0  0  0
  140.2467   76.9153  218.8470 H   0  0  0  0  0  0  0  0  0  0  0  0
  138.2833   79.2917  220.9021 H   0  0  0  0  0  0  0  0  0  0  0  0
  137.7782   78.4212  222.3612 H   0  0  0  0  0  0  0  0  0  0  0  0
  139.1987   82.2656  221.8301 H   0  0  0  0  0  0  0  0  0  0  0  0
  137.8388   81.3965  221.1215 H   0  0  0  0  0  0  0  0  0  0  0  0
  137.9820   83.0428  223.6436 H   0  0  0  0  0  0  0  0  0  0  0  0
  136.5830   82.7561  222.5723 H   0  0  0  0  0  0  0  0  0  0  0  0
  135.5829   80.9984  222.4931 H   0  0  0  0  0  0  0  0  0  0  0  0
  134.8542   80.8479  225.4584 H   0  0  0  0  0  0  0  0  0  0  0  0
  133.9709   81.6781  224.1793 H   0  0  0  0  0  0  0  0  0  0  0  0
  133.2215   79.2261  225.1771 H   0  0  0  0  0  0  0  0  0  0  0  0
  132.8838   79.7043  223.4895 H   0  0  0  0  0  0  0  0  0  0  0  0
  134.6680   77.7340  224.5170 H   0  0  0  0  0  0  0  0  0  0  0  0
  136.5898   78.7158  224.2278 H   0  0  0  0  0  0  0  0  0  0  0  0
  136.2204   78.7063  222.4773 H   0  0  0  0  0  0  0  0  0  0  0  0
  138.7590   80.6370  224.9211 H   0  0  0  0  0  0  0  0  0  0  0  0
  137.7371   79.2927  224.3437 H   0  0  0  0  0  0  0  0  0  0  0  0
  140.7071   82.1967  223.9732 H   0  0  0  0  0  0  0  0  0  0  0  0
  143.1751   81.7590  224.1527 H   0  0  0  0  0  0  0  0  0  0  0  0
  144.1407   79.6374  223.2429 H   0  0  0  0  0  0  0  0  0  0  0  0
  142.6417   77.9330  222.1631 H   0  0  0  0  0  0  0  0  0  0  0  0
  142.2050   75.2450  222.2950 H   0  0  0  0  0  0  0  0  0  0  0  0
  144.2535   73.9328  221.0482 H   0  0  0  0  0  0  0  0  0  0  0  0
  1  2  2  0
  2  3  1  0
  2  4  1  0
  4  5  2  0
  5  6  1  0
  6  7  2  0
  7  8  1  0
  8  9  2  0
  9 10  1  0
 10 11  2  0
 10 12  1  0
 12 13  1  0
 14 13  1  6
 14 15  1  0
 15 16  1  0
 16 17  1  0
 17 18  1  0
 18 19  1  0
 19 20  1  0
 20 21  1  0
 21 22  1  0
 17 23  1  0
 14 24  1  0
 24 25  2  0
 25 26  1  0
 26 27  2  0
 27 28  1  0
 28 29  2  0
  9 30  1  0
 30 31  1  0
 31 32  2  0
 32  4  1  0
 31  7  1  0
 29 12  1  0
 23 14  1  0
 29 24  1  0
 22 18  1  0
  3 33  1  0
  5 34  1  0
  6 35  1  0
  8 36  1  0
 13 37  1  0
 13 38  1  0
 15 39  1  0
 15 40  1  0
 16 41  1  0
 16 42  1  0
 18 43  1  6
 19 44  1  0
 19 45  1  0
 20 46  1  0
 20 47  1  0
 21 48  1  0
 22 49  1  0
 22 50  1  0
 23 51  1  0
 23 52  1  0
 25 53  1  0
 26 54  1  0
 27 55  1  0
 28 56  1  0
 30 57  1  0
 32 58  1  0
M  CHG  1   1  -1
M  END
>  <meeko>  (8) 
{"free_energy": -8.26, "intermolecular_energy": -9.75, "internal_energy": -1.08, "cluster_size": 11, "cluster_id": 1, "rank_in_cluster": 9}

$$$$

     RDKit          3D

 58 63  0  0  0  0  0  0  0  0999 V2000
  145.9360   72.3830  218.3080 N   0  0  0  0  0  0  0  0  0  0  0  0
  145.5570   72.9720  219.3960 C   0  0  0  0  0  0  0  0  0  0  0  0
  146.2540   72.7360  220.5790 O   0  0  0  0  0  0  0  0  0  0  0  0
  144.3980   73.8960  219.3880 C   0  0  0  0  0  0  0  0  0  0  0  0
  143.9840   74.5390  218.1890 C   0  0  0  0  0  0  0  0  0  0  0  0
  142.8850   75.4160  218.1840 C   0  0  0  0  0  0  0  0  0  0  0  0
  142.2160   75.6290  219.3850 C   0  0  0  0  0  0  0  0  0  0  0  0
  141.1300   76.4240  219.6760 C   0  0  0  0  0  0  0  0  0  0  0  0
  140.9030   76.2390  221.0400 C   0  0  0  0  0  0  0  0  0  0  0  0
  139.8560   76.8990  221.8420 C   0  0  0  0  0  0  0  0  0  0  0  0
  138.9780   76.1840  222.3960 O   0  0  0  0  0  0  0  0  0  0  0  0
  139.7930   78.3310  221.9690 N   0  0  0  0  0  0  0  0  0  0  0  0
  138.5380   79.0870  222.0200 C   0  0  0  0  0  0  0  0  0  0  0  0
  138.8410   80.3850  222.8460 C   0  0  1  0  0  0  0  0  0  0  0  0
  138.3590   81.6710  222.1600 C   0  0  0  0  0  0  0  0  0  0  0  0
  137.4840   82.3590  223.1970 C   0  0  0  0  0  0  0  0  0  0  0  0
  137.0070   81.3340  224.1410 N   0  0  0  0  0  0  0  0  0  0  0  0
  135.7550   80.6800  223.6660 C   0  0  2  0  0  0  0  0  0  0  0  0
  134.5820   80.9520  224.5940 C   0  0  0  0  0  0  0  0  0  0  0  0
  133.6950   79.7300  224.4600 C   0  0  0  0  0  0  0  0  0  0  0  0
  134.5270   78.6120  224.0160 N   0  0  0  0  0  0  0  0  0  0  0  0
  135.8480   79.1510  223.6930 C   0  0  0  0  0  0  0  0  0  0  0  0
  138.1340   80.3860  224.2150 C   0  0  0  0  0  0  0  0  0  0  0  0
  140.3350   80.3280  223.0010 C   0  0  0  0  0  0  0  0  0  0  0  0
  141.1860   81.2760  223.5800 C   0  0  0  0  0  0  0  0  0  0  0  0
  142.5610   81.0010  223.6370 C   0  0  0  0  0  0  0  0  0  0  0  0
  143.0640   79.7940  223.1180 C   0  0  0  0  0  0  0  0  0  0  0  0
  142.1920   78.8530  222.5480 C   0  0  0  0  0  0  0  0  0  0  0  0
  140.8220   79.1420  222.5170 C   0  0  0  0  0  0  0  0  0  0  0  0
  141.8150   75.3870  221.5670 N   0  0  0  0  0  0  0  0  0  0  0  0
  142.6040   75.0190  220.5450 C   0  0  0  0  0  0  0  0  0  0  0  0
  143.6920   74.1480  220.5890 C   0  0  0  0  0  0  0  0  0  0  0  0
  145.9310   72.0470  221.2490 H   0  0  0  0  0  0  0  0  0  0  0  0
  144.5305   74.3478  217.2537 H   0  0  0  0  0  0  0  0  0  0  0  0
  142.5642   75.9180  217.2593 H   0  0  0  0  0  0  0  0  0  0  0  0
  140.5646   77.0653  218.9838 H   0  0  0  0  0  0  0  0  0  0  0  0
  138.2099   79.3500  221.0035 H   0  0  0  0  0  0  0  0  0  0  0  0
  137.7335   78.4966  222.4829 H   0  0  0  0  0  0  0  0  0  0  0  0
  139.2129   82.3090  221.8885 H   0  0  0  0  0  0  0  0  0  0  0  0
  137.8139   81.4651  221.2270 H   0  0  0  0  0  0  0  0  0  0  0  0
  138.0699   83.1187  223.7352 H   0  0  0  0  0  0  0  0  0  0  0  0
  136.6323   82.8561  222.7097 H   0  0  0  0  0  0  0  0  0  0  0  0
  135.6168   81.0867  222.6533 H   0  0  0  0  0  0  0  0  0  0  0  0
  134.9273   81.0690  225.6318 H   0  0  0  0  0  0  0  0  0  0  0  0
  134.0530   81.8811  224.3353 H   0  0  0  0  0  0  0  0  0  0  0  0
  133.2384   79.4921  225.4321 H   0  0  0  0  0  0  0  0  0  0  0  0
  132.8916   79.9198  223.7331 H   0  0  0  0  0  0  0  0  0  0  0  0
  134.6260   77.9310  224.8070 H   0  0  0  0  0  0  0  0  0  0  0  0
  136.5741   78.8367  224.4572 H   0  0  0  0  0  0  0  0  0  0  0  0
  136.1793   78.7759  222.7134 H   0  0  0  0  0  0  0  0  0  0  0  0
  138.8377   80.7021  224.9991 H   0  0  0  0  0  0  0  0  0  0  0  0
  137.7711   79.3769  224.4602 H   0  0  0  0  0  0  0  0  0  0  0  0
  140.7852   82.2180  223.9825 H   0  0  0  0  0  0  0  0  0  0  0  0
  143.2478   81.7317  224.0890 H   0  0  0  0  0  0  0  0  0  0  0  0
  144.1436   79.5870  223.1589 H   0  0  0  0  0  0  0  0  0  0  0  0
  142.5765   77.9089  222.1346 H   0  0  0  0  0  0  0  0  0  0  0  0
  141.8900   75.0760  222.5610 H   0  0  0  0  0  0  0  0  0  0  0  0
  143.9939   73.6692  221.5322 H   0  0  0  0  0  0  0  0  0  0  0  0
  1  2  2  0
  2  3  1  0
  2  4  1  0
  4  5  2  0
  5  6  1  0
  6  7  2  0
  7  8  1  0
  8  9  2  0
  9 10  1  0
 10 11  2  0
 10 12  1  0
 12 13  1  0
 14 13  1  6
 14 15  1  0
 15 16  1  0
 16 17  1  0
 17 18  1  0
 18 19  1  0
 19 20  1  0
 20 21  1  0
 21 22  1  0
 17 23  1  0
 14 24  1  0
 24 25  2  0
 25 26  1  0
 26 27  2  0
 27 28  1  0
 28 29  2  0
  9 30  1  0
 30 31  1  0
 31 32  2  0
 32  4  1  0
 31  7  1  0
 29 12  1  0
 23 14  1  0
 29 24  1  0
 22 18  1  0
  3 33  1  0
  5 34  1  0
  6 35  1  0
  8 36  1  0
 13 37  1  0
 13 38  1  0
 15 39  1  0
 15 40  1  0
 16 41  1  0
 16 42  1  0
 18 43  1  6
 19 44  1  0
 19 45  1  0
 20 46  1  0
 20 47  1  0
 21 48  1  0
 22 49  1  0
 22 50  1  0
 23 51  1  0
 23 52  1  0
 25 53  1  0
 26 54  1  0
 27 55  1  0
 28 56  1  0
 30 57  1  0
 32 58  1  0
M  CHG  1   1  -1
M  END
>  <meeko>  (9) 
{"free_energy": -8.29, "intermolecular_energy": -9.78, "internal_energy": -1.11, "cluster_size": 11, "cluster_id": 1, "rank_in_cluster": 8}

$$$$

     RDKit          3D

 58 63  0  0  0  0  0  0  0  0999 V2000
  145.9440   72.4030  218.2030 N   0  0  0  0  0  0  0  0  0  0  0  0
  145.5560   72.9570  219.3070 C   0  0  0  0  0  0  0  0  0  0  0  0
  146.2170   72.6490  220.4930 O   0  0  0  0  0  0  0  0  0  0  0  0
  144.4270   73.9170  219.3130 C   0  0  0  0  0  0  0  0  0  0  0  0
  144.0830   74.6480  218.1420 C   0  0  0  0  0  0  0  0  0  0  0  0
  143.0110   75.5580  218.1500 C   0  0  0  0  0  0  0  0  0  0  0  0
  142.2990   75.7150  219.3350 C   0  0  0  0  0  0  0  0  0  0  0  0
  141.2250   76.5250  219.6330 C   0  0  0  0  0  0  0  0  0  0  0  0
  140.9360   76.2600  220.9720 C   0  0  0  0  0  0  0  0  0  0  0  0
  139.8760   76.9020  221.7730 C   0  0  0  0  0  0  0  0  0  0  0  0
  138.9980   76.1720  222.3090 O   0  0  0  0  0  0  0  0  0  0  0  0
  139.8010   78.3310  221.9180 N   0  0  0  0  0  0  0  0  0  0  0  0
  138.5390   79.0750  221.9850 C   0  0  0  0  0  0  0  0  0  0  0  0
  138.8340   80.3650  222.8260 C   0  0  1  0  0  0  0  0  0  0  0  0
  138.3370   81.6550  222.1590 C   0  0  0  0  0  0  0  0  0  0  0  0
  137.4600   82.3210  223.2080 C   0  0  0  0  0  0  0  0  0  0  0  0
  136.9980   81.2800  224.1410 N   0  0  0  0  0  0  0  0  0  0  0  0
  135.7500   80.6210  223.6640 C   0  0  2  0  0  0  0  0  0  0  0  0
  134.5800   80.8650  224.6050 C   0  0  0  0  0  0  0  0  0  0  0  0
  133.7060   79.6360  224.4560 C   0  0  0  0  0  0  0  0  0  0  0  0
  134.5450   78.5340  223.9880 N   0  0  0  0  0  0  0  0  0  0  0  0
  135.8590   79.0930  223.6650 C   0  0  0  0  0  0  0  0  0  0  0  0
  138.1340   80.3420  224.1990 C   0  0  0  0  0  0  0  0  0  0  0  0
  140.3290   80.3200  222.9740 C   0  0  0  0  0  0  0  0  0  0  0  0
  141.1750   81.2690  223.5610 C   0  0  0  0  0  0  0  0  0  0  0  0
  142.5520   81.0050  223.6070 C   0  0  0  0  0  0  0  0  0  0  0  0
  143.0630   79.8100  223.0710 C   0  0  0  0  0  0  0  0  0  0  0  0
  142.1980   78.8680  222.4930 C   0  0  0  0  0  0  0  0  0  0  0  0
  140.8250   79.1450  222.4720 C   0  0  0  0  0  0  0  0  0  0  0  0
  141.8000   75.3480  221.4780 N   0  0  0  0  0  0  0  0  0  0  0  0
  142.6200   75.0200  220.4670 C   0  0  0  0  0  0  0  0  0  0  0  0
  143.6790   74.1140  220.4980 C   0  0  0  0  0  0  0  0  0  0  0  0
  145.8970   71.8960  221.0910 H   0  0  0  0  0  0  0  0  0  0  0  0
  144.6627   74.4995  217.2190 H   0  0  0  0  0  0  0  0  0  0  0  0
  142.7438   76.1278  217.2478 H   0  0  0  0  0  0  0  0  0  0  0  0
  140.7084   77.2271  218.9620 H   0  0  0  0  0  0  0  0  0  0  0  0
  138.2034   79.3479  220.9736 H   0  0  0  0  0  0  0  0  0  0  0  0
  137.7424   78.4713  222.4443 H   0  0  0  0  0  0  0  0  0  0  0  0
  139.1837   82.3046  221.8925 H   0  0  0  0  0  0  0  0  0  0  0  0
  137.7900   81.4560  221.2256 H   0  0  0  0  0  0  0  0  0  0  0  0
  138.0405   83.0800  223.7529 H   0  0  0  0  0  0  0  0  0  0  0  0
  136.6011   82.8153  222.7306 H   0  0  0  0  0  0  0  0  0  0  0  0
  135.6006   81.0431  222.6593 H   0  0  0  0  0  0  0  0  0  0  0  0
  134.9311   80.9682  225.6423 H   0  0  0  0  0  0  0  0  0  0  0  0
  134.0392   81.7926  224.3660 H   0  0  0  0  0  0  0  0  0  0  0  0
  133.2585   79.3772  225.4269 H   0  0  0  0  0  0  0  0  0  0  0  0
  132.8966   79.8298  223.7368 H   0  0  0  0  0  0  0  0  0  0  0  0
  134.6570   77.8410  224.7670 H   0  0  0  0  0  0  0  0  0  0  0  0
  136.5936   78.7739  224.4190 H   0  0  0  0  0  0  0  0  0  0  0  0
  136.1873   78.7378  222.6770 H   0  0  0  0  0  0  0  0  0  0  0  0
  138.8385   80.6554  224.9836 H   0  0  0  0  0  0  0  0  0  0  0  0
  137.7825   79.3266  224.4343 H   0  0  0  0  0  0  0  0  0  0  0  0
  140.7682   82.2023  223.9775 H   0  0  0  0  0  0  0  0  0  0  0  0
  143.2348   81.7361  224.0644 H   0  0  0  0  0  0  0  0  0  0  0  0
  144.1446   79.6126  223.1048 H   0  0  0  0  0  0  0  0  0  0  0  0
  142.5895   77.9329  222.0659 H   0  0  0  0  0  0  0  0  0  0  0  0
  141.8230   74.9720  222.4530 H   0  0  0  0  0  0  0  0  0  0  0  0
  143.9267   73.5666  221.4194 H   0  0  0  0  0  0  0  0  0  0  0  0
  1  2  2  0
  2  3  1  0
  2  4  1  0
  4  5  2  0
  5  6  1  0
  6  7  2  0
  7  8  1  0
  8  9  2  0
  9 10  1  0
 10 11  2  0
 10 12  1  0
 12 13  1  0
 14 13  1  6
 14 15  1  0
 15 16  1  0
 16 17  1  0
 17 18  1  0
 18 19  1  0
 19 20  1  0
 20 21  1  0
 21 22  1  0
 17 23  1  0
 14 24  1  0
 24 25  2  0
 25 26  1  0
 26 27  2  0
 27 28  1  0
 28 29  2  0
  9 30  1  0
 30 31  1  0
 31 32  2  0
 32  4  1  0
 31  7  1  0
 29 12  1  0
 23 14  1  0
 29 24  1  0
 22 18  1  0
  3 33  1  0
  5 34  1  0
  6 35  1  0
  8 36  1  0
 13 37  1  0
 13 38  1  0
 15 39  1  0
 15 40  1  0
 16 41  1  0
 16 42  1  0
 18 43  1  6
 19 44  1  0
 19 45  1  0
 20 46  1  0
 20 47  1  0
 21 48  1  0
 22 49  1  0
 22 50  1  0
 23 51  1  0
 23 52  1  0
 25 53  1  0
 26 54  1  0
 27 55  1  0
 28 56  1  0
 30 57  1  0
 32 58  1  0
M  CHG  1   1  -1
M  END
>  <meeko>  (10) 
{"free_energy": -8.33, "intermolecular_energy": -9.82, "internal_energy": -1.12, "cluster_size": 11, "cluster_id": 1, "rank_in_cluster": 4}

$$$$

     RDKit          3D

 58 63  0  0  0  0  0  0  0  0999 V2000
  145.9000   72.2740  218.5650 N   0  0  0  0  0  0  0  0  0  0  0  0
  145.6530   73.0740  219.5520 C   0  0  0  0  0  0  0  0  0  0  0  0
  146.6960   73.8030  220.1160 O   0  0  0  0  0  0  0  0  0  0  0  0
  144.2740   73.2220  220.0760 C   0  0  0  0  0  0  0  0  0  0  0  0
  143.4410   72.0860  220.2720 C   0  0  0  0  0  0  0  0  0  0  0  0
  142.1330   72.2290  220.7680 C   0  0  0  0  0  0  0  0  0  0  0  0
  141.6850   73.5120  221.0650 C   0  0  0  0  0  0  0  0  0  0  0  0
  140.4730   73.9470  221.5500 C   0  0  0  0  0  0  0  0  0  0  0  0
  140.6000   75.3330  221.6470 C   0  0  0  0  0  0  0  0  0  0  0  0
  139.5520   76.2700  222.0960 C   0  0  0  0  0  0  0  0  0  0  0  0
  138.5520   75.8100  222.7110 O   0  0  0  0  0  0  0  0  0  0  0  0
  139.6290   77.6790  221.8120 N   0  0  0  0  0  0  0  0  0  0  0  0
  138.5130   78.4590  221.2660 C   0  0  0  0  0  0  0  0  0  0  0  0
  138.7180   79.9290  221.7710 C   0  0  1  0  0  0  0  0  0  0  0  0
  138.6150   80.9770  220.6530 C   0  0  0  0  0  0  0  0  0  0  0  0
  137.5650   81.9640  221.1430 C   0  0  0  0  0  0  0  0  0  0  0  0
  136.7150   81.2710  222.1270 N   0  0  0  0  0  0  0  0  0  0  0  0
  135.5860   80.5510  221.4750 C   0  0  2  0  0  0  0  0  0  0  0  0
  135.4570   79.1200  221.9740 C   0  0  0  0  0  0  0  0  0  0  0  0
  134.8750   78.3560  220.8020 C   0  0  0  0  0  0  0  0  0  0  0  0
  135.2080   79.0800  219.5760 N   0  0  0  0  0  0  0  0  0  0  0  0
  135.8070   80.3550  219.9720 C   0  0  0  0  0  0  0  0  0  0  0  0
  137.6480   80.3500  222.7980 C   0  0  0  0  0  0  0  0  0  0  0  0
  140.0830   79.8700  222.3950 C   0  0  0  0  0  0  0  0  0  0  0  0
  140.8370   80.9170  222.9380 C   0  0  0  0  0  0  0  0  0  0  0  0
  142.0930   80.6250  223.4930 C   0  0  0  0  0  0  0  0  0  0  0  0
  142.5750   79.3040  223.4970 C   0  0  0  0  0  0  0  0  0  0  0  0
  141.8000   78.2670  222.9530 C   0  0  0  0  0  0  0  0  0  0  0  0
  140.5440   78.5790  222.4190 C   0  0  0  0  0  0  0  0  0  0  0  0
  141.8220   75.7340  221.2250 N   0  0  0  0  0  0  0  0  0  0  0  0
  142.4760   74.6120  220.8790 C   0  0  0  0  0  0  0  0  0  0  0  0
  143.7750   74.5090  220.3840 C   0  0  0  0  0  0  0  0  0  0  0  0
  146.9670   74.7060  219.7430 H   0  0  0  0  0  0  0  0  0  0  0  0
  143.8246   71.0832  220.0327 H   0  0  0  0  0  0  0  0  0  0  0  0
  141.4841   71.3533  220.9166 H   0  0  0  0  0  0  0  0  0  0  0  0
  139.5952   73.3353  221.8056 H   0  0  0  0  0  0  0  0  0  0  0  0
  138.5280   78.4280  220.1665 H   0  0  0  0  0  0  0  0  0  0  0  0
  137.5437   78.0545  221.5928 H   0  0  0  0  0  0  0  0  0  0  0  0
  139.5813   81.4810  220.5038 H   0  0  0  0  0  0  0  0  0  0  0  0
  138.3446   80.5281  219.6859 H   0  0  0  0  0  0  0  0  0  0  0  0
  138.0558   82.8275  221.6157 H   0  0  0  0  0  0  0  0  0  0  0  0
  136.9577   82.3265  220.3005 H   0  0  0  0  0  0  0  0  0  0  0  0
  134.7115   81.1772  221.7054 H   0  0  0  0  0  0  0  0  0  0  0  0
  136.4417   78.7152  222.2506 H   0  0  0  0  0  0  0  0  0  0  0  0
  134.8270   79.0474  222.8728 H   0  0  0  0  0  0  0  0  0  0  0  0
  135.3054   77.3443  220.7659 H   0  0  0  0  0  0  0  0  0  0  0  0
  133.7836   78.2693  220.9084 H   0  0  0  0  0  0  0  0  0  0  0  0
  135.9190   78.5270  219.0400 H   0  0  0  0  0  0  0  0  0  0  0  0
  136.8852   80.3417  219.7543 H   0  0  0  0  0  0  0  0  0  0  0  0
  135.3414   81.1796  219.4123 H   0  0  0  0  0  0  0  0  0  0  0  0
  138.1259   80.8566  223.6494 H   0  0  0  0  0  0  0  0  0  0  0  0
  137.1106   79.4675  223.1755 H   0  0  0  0  0  0  0  0  0  0  0  0
  140.4531   81.9478  222.9300 H   0  0  0  0  0  0  0  0  0  0  0  0
  142.7020   81.4321  223.9261 H   0  0  0  0  0  0  0  0  0  0  0  0
  143.5625   79.0822  223.9277 H   0  0  0  0  0  0  0  0  0  0  0  0
  142.1718   77.2318  222.9466 H   0  0  0  0  0  0  0  0  0  0  0  0
  142.1870   76.7120  221.1800 H   0  0  0  0  0  0  0  0  0  0  0  0
  144.3957   75.4052  220.2368 H   0  0  0  0  0  0  0  0  0  0  0  0
  1  2  2  0
  2  3  1  0
  2  4  1  0
  4  5  2  0
  5  6  1  0
  6  7  2  0
  7  8  1  0
  8  9  2  0
  9 10  1  0
 10 11  2  0
 10 12  1  0
 12 13  1  0
 14 13  1  6
 14 15  1  0
 15 16  1  0
 16 17  1  0
 17 18  1  0
 18 19  1  0
 19 20  1  0
 20 21  1  0
 21 22  1  0
 17 23  1  0
 14 24  1  0
 24 25  2  0
 25 26  1  0
 26 27  2  0
 27 28  1  0
 28 29  2  0
  9 30  1  0
 30 31  1  0
 31 32  2  0
 32  4  1  0
 31  7  1  0
 29 12  1  0
 23 14  1  0
 29 24  1  0
 22 18  1  0
  3 33  1  0
  5 34  1  0
  6 35  1  0
  8 36  1  0
 13 37  1  0
 13 38  1  0
 15 39  1  0
 15 40  1  0
 16 41  1  0
 16 42  1  0
 18 43  1  6
 19 44  1  0
 19 45  1  0
 20 46  1  0
 20 47  1  0
 21 48  1  0
 22 49  1  0
 22 50  1  0
 23 51  1  0
 23 52  1  0
 25 53  1  0
 26 54  1  0
 27 55  1  0
 28 56  1  0
 30 57  1  0
 32 58  1  0
M  CHG  1   1  -1
M  END
>  <meeko>  (11) 
{"free_energy": -8.0, "intermolecular_energy": -9.49, "internal_energy": -1.08, "cluster_size": 2, "cluster_id": 2, "rank_in_cluster": 1}

$$$$

     RDKit          3D

 58 63  0  0  0  0  0  0  0  0999 V2000
  145.9230   72.3630  218.2100 N   0  0  0  0  0  0  0  0  0  0  0  0
  145.5560   72.9420  219.3080 C   0  0  0  0  0  0  0  0  0  0  0  0
  146.2420   72.6630  220.4880 O   0  0  0  0  0  0  0  0  0  0  0  0
  144.4240   73.8980  219.3150 C   0  0  0  0  0  0  0  0  0  0  0  0
  144.0720   74.6220  218.1420 C   0  0  0  0  0  0  0  0  0  0  0  0
  142.9980   75.5300  218.1510 C   0  0  0  0  0  0  0  0  0  0  0  0
  142.2910   75.6910  219.3380 C   0  0  0  0  0  0  0  0  0  0  0  0
  141.2170   76.4980  219.6370 C   0  0  0  0  0  0  0  0  0  0  0  0
  140.9350   76.2400  220.9790 C   0  0  0  0  0  0  0  0  0  0  0  0
  139.8770   76.8820  221.7820 C   0  0  0  0  0  0  0  0  0  0  0  0
  139.0040   76.1530  222.3260 O   0  0  0  0  0  0  0  0  0  0  0  0
  139.7980   78.3120  221.9200 N   0  0  0  0  0  0  0  0  0  0  0  0
  138.5340   79.0530  221.9840 C   0  0  0  0  0  0  0  0  0  0  0  0
  138.8270   80.3480  222.8180 C   0  0  1  0  0  0  0  0  0  0  0  0
  138.3260   81.6340  222.1440 C   0  0  0  0  0  0  0  0  0  0  0  0
  137.4480   82.3030  223.1910 C   0  0  0  0  0  0  0  0  0  0  0  0
  136.9890   81.2650  224.1300 N   0  0  0  0  0  0  0  0  0  0  0  0
  135.7420   80.6010  223.6570 C   0  0  2  0  0  0  0  0  0  0  0  0
  134.5820   80.8140  224.6160 C   0  0  0  0  0  0  0  0  0  0  0  0
  133.7190   79.5780  224.4560 C   0  0  0  0  0  0  0  0  0  0  0  0
  134.5650   78.4940  223.9580 N   0  0  0  0  0  0  0  0  0  0  0  0
  135.8680   79.0740  223.6290 C   0  0  0  0  0  0  0  0  0  0  0  0
  138.1270   80.3310  224.1910 C   0  0  0  0  0  0  0  0  0  0  0  0
  140.3220   80.3080  222.9650 C   0  0  0  0  0  0  0  0  0  0  0  0
  141.1650   81.2620  223.5470 C   0  0  0  0  0  0  0  0  0  0  0  0
  142.5430   81.0020  223.5940 C   0  0  0  0  0  0  0  0  0  0  0  0
  143.0570   79.8060  223.0640 C   0  0  0  0  0  0  0  0  0  0  0  0
  142.1940   78.8580  222.4900 C   0  0  0  0  0  0  0  0  0  0  0  0
  140.8200   79.1310  222.4690 C   0  0  0  0  0  0  0  0  0  0  0  0
  141.8030   75.3330  221.4860 N   0  0  0  0  0  0  0  0  0  0  0  0
  142.6200   75.0020  220.4720 C   0  0  0  0  0  0  0  0  0  0  0  0
  143.6810   74.0990  220.5020 C   0  0  0  0  0  0  0  0  0  0  0  0
  145.9540   71.9040  221.0950 H   0  0  0  0  0  0  0  0  0  0  0  0
  144.6469   74.4698  217.2166 H   0  0  0  0  0  0  0  0  0  0  0  0
  142.7256   76.0952  217.2475 H   0  0  0  0  0  0  0  0  0  0  0  0
  140.6947   77.1945  218.9646 H   0  0  0  0  0  0  0  0  0  0  0  0
  138.1969   79.3198  220.9715 H   0  0  0  0  0  0  0  0  0  0  0  0
  137.7391   78.4498  222.4468 H   0  0  0  0  0  0  0  0  0  0  0  0
  139.1708   82.2844  221.8734 H   0  0  0  0  0  0  0  0  0  0  0  0
  137.7789   81.4290  221.2119 H   0  0  0  0  0  0  0  0  0  0  0  0
  138.0272   83.0660  223.7318 H   0  0  0  0  0  0  0  0  0  0  0  0
  136.5874   82.7928  222.7119 H   0  0  0  0  0  0  0  0  0  0  0  0
  135.5751   81.0401  222.6624 H   0  0  0  0  0  0  0  0  0  0  0  0
  134.9451   80.9024  225.6506 H   0  0  0  0  0  0  0  0  0  0  0  0
  134.0279   81.7394  224.4002 H   0  0  0  0  0  0  0  0  0  0  0  0
  133.2865   79.2970  225.4276 H   0  0  0  0  0  0  0  0  0  0  0  0
  132.8982   79.7752  223.7508 H   0  0  0  0  0  0  0  0  0  0  0  0
  134.6950   77.7890  224.7230 H   0  0  0  0  0  0  0  0  0  0  0  0
  136.6156   78.7498  224.3679 H   0  0  0  0  0  0  0  0  0  0  0  0
  136.1875   78.7406  222.6306 H   0  0  0  0  0  0  0  0  0  0  0  0
  138.8311   80.6501  224.9736 H   0  0  0  0  0  0  0  0  0  0  0  0
  137.7775   79.3159  224.4307 H   0  0  0  0  0  0  0  0  0  0  0  0
  140.7556   82.1962  223.9590 H   0  0  0  0  0  0  0  0  0  0  0  0
  143.2239   81.7373  224.0475 H   0  0  0  0  0  0  0  0  0  0  0  0
  144.1391   79.6117  223.0988 H   0  0  0  0  0  0  0  0  0  0  0  0
  142.5880   77.9224  222.0665 H   0  0  0  0  0  0  0  0  0  0  0  0
  141.8330   74.9610  222.4620 H   0  0  0  0  0  0  0  0  0  0  0  0
  143.9342   73.5565  221.4248 H   0  0  0  0  0  0  0  0  0  0  0  0
  1  2  2  0
  2  3  1  0
  2  4  1  0
  4  5  2  0
  5  6  1  0
  6  7  2  0
  7  8  1  0
  8  9  2  0
  9 10  1  0
 10 11  2  0
 10 12  1  0
 12 13  1  0
 14 13  1  6
 14 15  1  0
 15 16  1  0
 16 17  1  0
 17 18  1  0
 18 19  1  0
 19 20  1  0
 20 21  1  0
 21 22  1  0
 17 23  1  0
 14 24  1  0
 24 25  2  0
 25 26  1  0
 26 27  2  0
 27 28  1  0
 28 29  2  0
  9 30  1  0
 30 31  1  0
 31 32  2  0
 32  4  1  0
 31  7  1  0
 29 12  1  0
 23 14  1  0
 29 24  1  0
 22 18  1  0
  3 33  1  0
  5 34  1  0
  6 35  1  0
  8 36  1  0
 13 37  1  0
 13 38  1  0
 15 39  1  0
 15 40  1  0
 16 41  1  0
 16 42  1  0
 18 43  1  6
 19 44  1  0
 19 45  1  0
 20 46  1  0
 20 47  1  0
 21 48  1  0
 22 49  1  0
 22 50  1  0
 23 51  1  0
 23 52  1  0
 25 53  1  0
 26 54  1  0
 27 55  1  0
 28 56  1  0
 30 57  1  0
 32 58  1  0
M  CHG  1   1  -1
M  END
>  <meeko>  (12) 
{"free_energy": -8.33, "intermolecular_energy": -9.83, "internal_energy": -1.1, "cluster_size": 11, "cluster_id": 1, "rank_in_cluster": 3}

$$$$

     RDKit          3D

 58 63  0  0  0  0  0  0  0  0999 V2000
  145.9390   72.4390  218.9500 N   0  0  0  0  0  0  0  0  0  0  0  0
  145.5650   72.9140  220.0940 C   0  0  0  0  0  0  0  0  0  0  0  0
  146.3240   72.6390  221.2280 O   0  0  0  0  0  0  0  0  0  0  0  0
  144.3470   73.7520  220.2000 C   0  0  0  0  0  0  0  0  0  0  0  0
  144.3300   75.0850  219.7050 C   0  0  0  0  0  0  0  0  0  0  0  0
  143.1740   75.8780  219.8070 C   0  0  0  0  0  0  0  0  0  0  0  0
  142.0490   75.3150  220.4000 C   0  0  0  0  0  0  0  0  0  0  0  0
  140.8010   75.8460  220.6370 C   0  0  0  0  0  0  0  0  0  0  0  0
  140.0860   74.8230  221.2600 C   0  0  0  0  0  0  0  0  0  0  0  0
  138.6930   74.9070  221.7390 C   0  0  0  0  0  0  0  0  0  0  0  0
  138.0270   73.8420  221.8530 O   0  0  0  0  0  0  0  0  0  0  0  0
  138.0730   76.1710  222.0370 N   0  0  0  0  0  0  0  0  0  0  0  0
  138.7200   77.2290  222.8190 C   0  0  0  0  0  0  0  0  0  0  0  0
  138.1030   78.5810  222.3210 C   0  0  1  0  0  0  0  0  0  0  0  0
  137.6230   79.4900  223.4630 C   0  0  0  0  0  0  0  0  0  0  0  0
  138.3250   80.8180  223.2230 C   0  0  0  0  0  0  0  0  0  0  0  0
  139.5290   80.5560  222.4160 N   0  0  0  0  0  0  0  0  0  0  0  0
  140.7020   80.2060  223.2650 C   0  0  2  0  0  0  0  0  0  0  0  0
  141.6980   81.3500  223.3630 C   0  0  0  0  0  0  0  0  0  0  0  0
  143.0420   80.6740  223.5510 C   0  0  0  0  0  0  0  0  0  0  0  0
  142.9520   79.3220  223.0020 N   0  0  0  0  0  0  0  0  0  0  0  0
  141.5490   79.0830  222.6580 C   0  0  0  0  0  0  0  0  0  0  0  0
  139.1220   79.4390  221.5450 C   0  0  0  0  0  0  0  0  0  0  0  0
  136.9850   78.1190  221.4310 C   0  0  0  0  0  0  0  0  0  0  0  0
  136.0210   78.8920  220.7720 C   0  0  0  0  0  0  0  0  0  0  0  0
  135.0740   78.2420  219.9660 C   0  0  0  0  0  0  0  0  0  0  0  0
  135.1000   76.8420  219.8300 C   0  0  0  0  0  0  0  0  0  0  0  0
  136.0800   76.0860  220.4930 C   0  0  0  0  0  0  0  0  0  0  0  0
  137.0250   76.7570  221.2800 C   0  0  0  0  0  0  0  0  0  0  0  0
  140.8590   73.7230  221.4160 N   0  0  0  0  0  0  0  0  0  0  0  0
  142.0510   74.0350  220.8820 C   0  0  0  0  0  0  0  0  0  0  0  0
  143.1810   73.2220  220.8020 C   0  0  0  0  0  0  0  0  0  0  0  0
  146.0350   71.9300  221.8930 H   0  0  0  0  0  0  0  0  0  0  0  0
  145.2338   75.5011  219.2359 H   0  0  0  0  0  0  0  0  0  0  0  0
  143.1596   76.9112  219.4298 H   0  0  0  0  0  0  0  0  0  0  0  0
  140.4452   76.8569  220.3890 H   0  0  0  0  0  0  0  0  0  0  0  0
  138.5169   77.0892  223.8910 H   0  0  0  0  0  0  0  0  0  0  0  0
  139.8119   77.2141  222.6868 H   0  0  0  0  0  0  0  0  0  0  0  0
  136.5310   79.6164  223.4249 H   0  0  0  0  0  0  0  0  0  0  0  0
  137.8546   79.0706  224.4532 H   0  0  0  0  0  0  0  0  0  0  0  0
  137.6547   81.5024  222.6824 H   0  0  0  0  0  0  0  0  0  0  0  0
  138.6003   81.2837  224.1808 H   0  0  0  0  0  0  0  0  0  0  0  0
  140.2514   79.9334  224.2307 H   0  0  0  0  0  0  0  0  0  0  0  0
  141.6912   81.9505  222.4414 H   0  0  0  0  0  0  0  0  0  0  0  0
  141.4601   82.0400  224.1860 H   0  0  0  0  0  0  0  0  0  0  0  0
  143.8216   81.2405  223.0206 H   0  0  0  0  0  0  0  0  0  0  0  0
  143.3024   80.6347  224.6190 H   0  0  0  0  0  0  0  0  0  0  0  0
  143.5260   79.2750  222.1260 H   0  0  0  0  0  0  0  0  0  0  0  0
  141.4306   79.0785  221.5644 H   0  0  0  0  0  0  0  0  0  0  0  0
  141.2242   78.1095  223.0541 H   0  0  0  0  0  0  0  0  0  0  0  0
  138.6591   79.8302  220.6270 H   0  0  0  0  0  0  0  0  0  0  0  0
  139.9965   78.8343  221.2629 H   0  0  0  0  0  0  0  0  0  0  0  0
  136.0065   79.9862  220.8839 H   0  0  0  0  0  0  0  0  0  0  0  0
  134.3082   78.8295  219.4384 H   0  0  0  0  0  0  0  0  0  0  0  0
  134.3503   76.3381  219.2023 H   0  0  0  0  0  0  0  0  0  0  0  0
  136.1052   74.9905  220.3965 H   0  0  0  0  0  0  0  0  0  0  0  0
  140.5880   72.8160  221.8570 H   0  0  0  0  0  0  0  0  0  0  0  0
  143.1665   72.1953  221.1966 H   0  0  0  0  0  0  0  0  0  0  0  0
  1  2  2  0
  2  3  1  0
  2  4  1  0
  4  5  2  0
  5  6  1  0
  6  7  2  0
  7  8  1  0
  8  9  2  0
  9 10  1  0
 10 11  2  0
 10 12  1  0
 12 13  1  0
 14 13  1  1
 14 15  1  0
 15 16  1  0
 16 17  1  0
 17 18  1  0
 18 19  1  0
 19 20  1  0
 20 21  1  0
 21 22  1  0
 17 23  1  0
 14 24  1  0
 24 25  2  0
 25 26  1  0
 26 27  2  0
 27 28  1  0
 28 29  2  0
  9 30  1  0
 30 31  1  0
 31 32  2  0
 32  4  1  0
 31  7  1  0
 29 12  1  0
 23 14  1  0
 29 24  1  0
 22 18  1  0
  3 33  1  0
  5 34  1  0
  6 35  1  0
  8 36  1  0
 13 37  1  0
 13 38  1  0
 15 39  1  0
 15 40  1  0
 16 41  1  0
 16 42  1  0
 18 43  1  1
 19 44  1  0
 19 45  1  0
 20 46  1  0
 20 47  1  0
 21 48  1  0
 22 49  1  0
 22 50  1  0
 23 51  1  0
 23 52  1  0
 25 53  1  0
 26 54  1  0
 27 55  1  0
 28 56  1  0
 30 57  1  0
 32 58  1  0
M  CHG  1   1  -1
M  END
>  <meeko>  (13) 
{"free_energy": -7.85, "intermolecular_energy": -9.34, "internal_energy": -1.46, "cluster_size": 2, "cluster_id": 5, "rank_in_cluster": 1}

$$$$

     RDKit          3D

 58 63  0  0  0  0  0  0  0  0999 V2000
  145.6220   72.1390  218.2530 N   0  0  0  0  0  0  0  0  0  0  0  0
  145.5610   73.1920  219.0030 C   0  0  0  0  0  0  0  0  0  0  0  0
  146.6710   73.5530  219.7630 O   0  0  0  0  0  0  0  0  0  0  0  0
  144.3280   74.0140  219.0510 C   0  0  0  0  0  0  0  0  0  0  0  0
  143.7330   74.5070  217.8580 C   0  0  0  0  0  0  0  0  0  0  0  0
  142.5640   75.2870  217.9050 C   0  0  0  0  0  0  0  0  0  0  0  0
  142.0090   75.5540  219.1520 C   0  0  0  0  0  0  0  0  0  0  0  0
  140.8920   76.2810  219.4980 C   0  0  0  0  0  0  0  0  0  0  0  0
  140.8290   76.2040  220.8900 C   0  0  0  0  0  0  0  0  0  0  0  0
  139.8160   76.8470  221.7480 C   0  0  0  0  0  0  0  0  0  0  0  0
  138.9660   76.1200  222.3300 O   0  0  0  0  0  0  0  0  0  0  0  0
  139.7540   78.2770  221.9000 N   0  0  0  0  0  0  0  0  0  0  0  0
  138.4990   79.0300  221.9890 C   0  0  0  0  0  0  0  0  0  0  0  0
  138.8170   80.3140  222.8310 C   0  0  1  0  0  0  0  0  0  0  0  0
  138.3210   81.6110  222.1760 C   0  0  0  0  0  0  0  0  0  0  0  0
  137.4650   82.2800  223.2420 C   0  0  0  0  0  0  0  0  0  0  0  0
  137.0080   81.2380  224.1770 N   0  0  0  0  0  0  0  0  0  0  0  0
  135.7480   80.5910  223.7160 C   0  0  2  0  0  0  0  0  0  0  0  0
  134.6040   80.8090  224.6930 C   0  0  0  0  0  0  0  0  0  0  0  0
  133.7250   79.5840  224.5350 C   0  0  0  0  0  0  0  0  0  0  0  0
  134.5530   78.4950  224.0160 N   0  0  0  0  0  0  0  0  0  0  0  0
  135.8570   79.0640  223.6730 C   0  0  0  0  0  0  0  0  0  0  0  0
  138.1370   80.2910  224.2140 C   0  0  0  0  0  0  0  0  0  0  0  0
  140.3140   80.2570  222.9560 C   0  0  0  0  0  0  0  0  0  0  0  0
  141.1750   81.1960  223.5350 C   0  0  0  0  0  0  0  0  0  0  0  0
  142.5510   80.9220  223.5600 C   0  0  0  0  0  0  0  0  0  0  0  0
  143.0450   79.7250  223.0110 C   0  0  0  0  0  0  0  0  0  0  0  0
  142.1630   78.7920  222.4420 C   0  0  0  0  0  0  0  0  0  0  0  0
  140.7930   79.0800  222.4420 C   0  0  0  0  0  0  0  0  0  0  0  0
  141.8650   75.4820  221.3780 N   0  0  0  0  0  0  0  0  0  0  0  0
  142.5720   75.0870  220.3070 C   0  0  0  0  0  0  0  0  0  0  0  0
  143.7330   74.3150  220.2990 C   0  0  0  0  0  0  0  0  0  0  0  0
  147.0500   74.4920  219.7240 H   0  0  0  0  0  0  0  0  0  0  0  0
  144.1928   74.2755  216.8859 H   0  0  0  0  0  0  0  0  0  0  0  0
  142.1029   75.6739  216.9843 H   0  0  0  0  0  0  0  0  0  0  0  0
  140.2002   76.8076  218.8242 H   0  0  0  0  0  0  0  0  0  0  0  0
  138.1503   79.3099  220.9840 H   0  0  0  0  0  0  0  0  0  0  0  0
  137.7046   78.4305  222.4575 H   0  0  0  0  0  0  0  0  0  0  0  0
  139.1690   82.2546  221.8993 H   0  0  0  0  0  0  0  0  0  0  0  0
  137.7587   81.4207  221.2499 H   0  0  0  0  0  0  0  0  0  0  0  0
  138.0602   83.0312  223.7818 H   0  0  0  0  0  0  0  0  0  0  0  0
  136.6034   82.7842  222.7801 H   0  0  0  0  0  0  0  0  0  0  0  0
  135.5720   81.0397  222.7272 H   0  0  0  0  0  0  0  0  0  0  0  0
  134.9825   80.8847  225.7230 H   0  0  0  0  0  0  0  0  0  0  0  0
  134.0574   81.7423  224.4926 H   0  0  0  0  0  0  0  0  0  0  0  0
  133.3030   79.2995  225.5102 H   0  0  0  0  0  0  0  0  0  0  0  0
  132.8963   79.7959  223.8434 H   0  0  0  0  0  0  0  0  0  0  0  0
  134.6850   77.7820  224.7720 H   0  0  0  0  0  0  0  0  0  0  0  0
  136.6118   78.7254  224.3980 H   0  0  0  0  0  0  0  0  0  0  0  0
  136.1583   78.7361  222.6672 H   0  0  0  0  0  0  0  0  0  0  0  0
  138.8555   80.5954  224.9893 H   0  0  0  0  0  0  0  0  0  0  0  0
  137.7806   79.2774  224.4501 H   0  0  0  0  0  0  0  0  0  0  0  0
  140.7811   82.1301  223.9620 H   0  0  0  0  0  0  0  0  0  0  0  0
  143.2458   81.6460  224.0106 H   0  0  0  0  0  0  0  0  0  0  0  0
  144.1254   79.5190  223.0274 H   0  0  0  0  0  0  0  0  0  0  0  0
  142.5404   77.8553  222.0058 H   0  0  0  0  0  0  0  0  0  0  0  0
  142.0730   75.2700  222.3800 H   0  0  0  0  0  0  0  0  0  0  0  0
  144.1747   73.9497  221.2379 H   0  0  0  0  0  0  0  0  0  0  0  0
  1  2  2  0
  2  3  1  0
  2  4  1  0
  4  5  2  0
  5  6  1  0
  6  7  2  0
  7  8  1  0
  8  9  2  0
  9 10  1  0
 10 11  2  0
 10 12  1  0
 12 13  1  0
 14 13  1  6
 14 15  1  0
 15 16  1  0
 16 17  1  0
 17 18  1  0
 18 19  1  0
 19 20  1  0
 20 21  1  0
 21 22  1  0
 17 23  1  0
 14 24  1  0
 24 25  2  0
 25 26  1  0
 26 27  2  0
 27 28  1  0
 28 29  2  0
  9 30  1  0
 30 31  1  0
 31 32  2  0
 32  4  1  0
 31  7  1  0
 29 12  1  0
 23 14  1  0
 29 24  1  0
 22 18  1  0
  3 33  1  0
  5 34  1  0
  6 35  1  0
  8 36  1  0
 13 37  1  0
 13 38  1  0
 15 39  1  0
 15 40  1  0
 16 41  1  0
 16 42  1  0
 18 43  1  6
 19 44  1  0
 19 45  1  0
 20 46  1  0
 20 47  1  0
 21 48  1  0
 22 49  1  0
 22 50  1  0
 23 51  1  0
 23 52  1  0
 25 53  1  0
 26 54  1  0
 27 55  1  0
 28 56  1  0
 30 57  1  0
 32 58  1  0
M  CHG  1   1  -1
M  END
>  <meeko>  (14) 
{"free_energy": -8.24, "intermolecular_energy": -9.73, "internal_energy": -1.08, "cluster_size": 11, "cluster_id": 1, "rank_in_cluster": 10}

$$$$

     RDKit          3D

 58 63  0  0  0  0  0  0  0  0999 V2000
  146.2710   72.6540  219.1870 N   0  0  0  0  0  0  0  0  0  0  0  0
  145.7260   73.0410  220.2950 C   0  0  0  0  0  0  0  0  0  0  0  0
  146.3570   72.7530  221.5030 O   0  0  0  0  0  0  0  0  0  0  0  0
  144.4480   73.7920  220.2850 C   0  0  0  0  0  0  0  0  0  0  0  0
  143.2310   73.1670  220.6740 C   0  0  0  0  0  0  0  0  0  0  0  0
  142.0190   73.8810  220.6630 C   0  0  0  0  0  0  0  0  0  0  0  0
  142.0520   75.2130  220.2660 C   0  0  0  0  0  0  0  0  0  0  0  0
  141.0390   76.1390  220.1540 C   0  0  0  0  0  0  0  0  0  0  0  0
  141.6630   77.3050  219.7100 C   0  0  0  0  0  0  0  0  0  0  0  0
  140.9950   78.5860  219.4110 C   0  0  0  0  0  0  0  0  0  0  0  0
  140.9400   78.9730  218.2120 O   0  0  0  0  0  0  0  0  0  0  0  0
  140.4480   79.4130  220.4540 N   0  0  0  0  0  0  0  0  0  0  0  0
  139.0150   79.5040  220.7500 C   0  0  0  0  0  0  0  0  0  0  0  0
  138.9040   79.8610  222.2720 C   0  0  1  0  0  0  0  0  0  0  0  0
  137.9610   81.0400  222.5550 C   0  0  0  0  0  0  0  0  0  0  0  0
  136.9730   80.5080  223.5820 C   0  0  0  0  0  0  0  0  0  0  0  0
  136.9460   79.0390  223.4680 N   0  0  0  0  0  0  0  0  0  0  0  0
  135.9690   78.5800  222.4410 C   0  0  2  0  0  0  0  0  0  0  0  0
  134.7060   78.0110  223.0670 C   0  0  0  0  0  0  0  0  0  0  0  0
  134.2180   76.9750  222.0750 C   0  0  0  0  0  0  0  0  0  0  0  0
  135.3640   76.5310  221.2810 N   0  0  0  0  0  0  0  0  0  0  0  0
  136.4940   77.3940  221.6250 C   0  0  0  0  0  0  0  0  0  0  0  0
  138.3330   78.6980  223.1070 C   0  0  0  0  0  0  0  0  0  0  0  0
  140.3310   80.1510  222.6420 C   0  0  0  0  0  0  0  0  0  0  0  0
  140.8380   80.6130  223.8630 C   0  0  0  0  0  0  0  0  0  0  0  0
  142.2230   80.7950  223.9910 C   0  0  0  0  0  0  0  0  0  0  0  0
  143.0770   80.5170  222.9090 C   0  0  0  0  0  0  0  0  0  0  0  0
  142.5500   80.0470  221.6950 C   0  0  0  0  0  0  0  0  0  0  0  0
  141.1660   79.8580  221.5950 C   0  0  0  0  0  0  0  0  0  0  0  0
  142.9910   77.1030  219.5390 N   0  0  0  0  0  0  0  0  0  0  0  0
  143.2150   75.8250  219.8880 C   0  0  0  0  0  0  0  0  0  0  0  0
  144.4330   75.1480  219.8820 C   0  0  0  0  0  0  0  0  0  0  0  0
  146.1270   71.9170  222.0280 H   0  0  0  0  0  0  0  0  0  0  0  0
  143.2376   72.1126  220.9872 H   0  0  0  0  0  0  0  0  0  0  0  0
  141.0748   73.4005  220.9592 H   0  0  0  0  0  0  0  0  0  0  0  0
  139.9702   75.9914  220.3681 H   0  0  0  0  0  0  0  0  0  0  0  0
  138.5487   80.2909  220.1389 H   0  0  0  0  0  0  0  0  0  0  0  0
  138.4980   78.5604  220.5212 H   0  0  0  0  0  0  0  0  0  0  0  0
  138.5207   81.8950  222.9621 H   0  0  0  0  0  0  0  0  0  0  0  0
  137.4603   81.3997  221.6440 H   0  0  0  0  0  0  0  0  0  0  0  0
  137.2932   80.7983  224.5936 H   0  0  0  0  0  0  0  0  0  0  0  0
  135.9711   80.9243  223.4005 H   0  0  0  0  0  0  0  0  0  0  0  0
  135.7898   79.4788  221.8327 H   0  0  0  0  0  0  0  0  0  0  0  0
  134.9305   77.5436  224.0371 H   0  0  0  0  0  0  0  0  0  0  0  0
  133.9520   78.7877  223.2623 H   0  0  0  0  0  0  0  0  0  0  0  0
  133.7831   76.1196  222.6127 H   0  0  0  0  0  0  0  0  0  0  0  0
  133.4459   77.4071  221.4214 H   0  0  0  0  0  0  0  0  0  0  0  0
  135.5990   75.5450  221.5510 H   0  0  0  0  0  0  0  0  0  0  0  0
  137.2251   76.8281  222.2210 H   0  0  0  0  0  0  0  0  0  0  0  0
  136.9855   77.7545  220.7093 H   0  0  0  0  0  0  0  0  0  0  0  0
  138.9338   78.5618  224.0183 H   0  0  0  0  0  0  0  0  0  0  0  0
  138.3599   77.7621  222.5297 H   0  0  0  0  0  0  0  0  0  0  0  0
  140.1636   80.8288  224.7048 H   0  0  0  0  0  0  0  0  0  0  0  0
  142.6426   81.1566  224.9414 H   0  0  0  0  0  0  0  0  0  0  0  0
  144.1615   80.6682  223.0138 H   0  0  0  0  0  0  0  0  0  0  0  0
  143.2098   79.8321  220.8415 H   0  0  0  0  0  0  0  0  0  0  0  0
  143.6990   77.7960  219.2090 H   0  0  0  0  0  0  0  0  0  0  0  0
  145.3588   75.6548  219.5720 H   0  0  0  0  0  0  0  0  0  0  0  0
  1  2  2  0
  2  3  1  0
  2  4  1  0
  4  5  2  0
  5  6  1  0
  6  7  2  0
  7  8  1  0
  8  9  2  0
  9 10  1  0
 10 11  2  0
 10 12  1  0
 12 13  1  0
 14 13  1  6
 14 15  1  0
 15 16  1  0
 16 17  1  0
 17 18  1  0
 18 19  1  0
 19 20  1  0
 20 21  1  0
 21 22  1  0
 17 23  1  0
 14 24  1  0
 24 25  2  0
 25 26  1  0
 26 27  2  0
 27 28  1  0
 28 29  2  0
  9 30  1  0
 30 31  1  0
 31 32  2  0
 32  4  1  0
 31  7  1  0
 29 12  1  0
 23 14  1  0
 29 24  1  0
 22 18  1  0
  3 33  1  0
  5 34  1  0
  6 35  1  0
  8 36  1  0
 13 37  1  0
 13 38  1  0
 15 39  1  0
 15 40  1  0
 16 41  1  0
 16 42  1  0
 18 43  1  6
 19 44  1  0
 19 45  1  0
 20 46  1  0
 20 47  1  0
 21 48  1  0
 22 49  1  0
 22 50  1  0
 23 51  1  0
 23 52  1  0
 25 53  1  0
 26 54  1  0
 27 55  1  0
 28 56  1  0
 30 57  1  0
 32 58  1  0
M  CHG  1   1  -1
M  END
>  <meeko>  (15) 
{"free_energy": -7.97, "intermolecular_energy": -9.46, "internal_energy": -1.27, "cluster_size": 2, "cluster_id": 4, "rank_in_cluster": 1}

$$$$

     RDKit          3D

 58 63  0  0  0  0  0  0  0  0999 V2000
  146.3210   71.5410  219.3390 N   0  0  0  0  0  0  0  0  0  0  0  0
  145.8320   72.5380  220.0040 C   0  0  0  0  0  0  0  0  0  0  0  0
  146.1430   72.6760  221.3540 O   0  0  0  0  0  0  0  0  0  0  0  0
  144.9550   73.5300  219.3380 C   0  0  0  0  0  0  0  0  0  0  0  0
  144.5210   73.3390  217.9980 C   0  0  0  0  0  0  0  0  0  0  0  0
  143.6890   74.2820  217.3680 C   0  0  0  0  0  0  0  0  0  0  0  0
  143.3040   75.4010  218.0980 C   0  0  0  0  0  0  0  0  0  0  0  0
  142.5140   76.4720  217.7450 C   0  0  0  0  0  0  0  0  0  0  0  0
  142.4790   77.2830  218.8800 C   0  0  0  0  0  0  0  0  0  0  0  0
  141.7770   78.5750  219.0000 C   0  0  0  0  0  0  0  0  0  0  0  0
  142.0390   79.4850  218.1670 O   0  0  0  0  0  0  0  0  0  0  0  0
  140.8410   78.8300  220.0620 N   0  0  0  0  0  0  0  0  0  0  0  0
  139.5930   78.0800  220.2420 C   0  0  0  0  0  0  0  0  0  0  0  0
  139.2710   78.1270  221.7750 C   0  0  1  0  0  0  0  0  0  0  0  0
  137.8260   78.5470  222.0820 C   0  0  0  0  0  0  0  0  0  0  0  0
  137.2800   77.4370  222.9680 C   0  0  0  0  0  0  0  0  0  0  0  0
  138.0770   76.2240  222.7200 N   0  0  0  0  0  0  0  0  0  0  0  0
  137.5430   75.4330  221.5760 C   0  0  2  0  0  0  0  0  0  0  0  0
  136.6990   74.2560  222.0400 C   0  0  0  0  0  0  0  0  0  0  0  0
  136.8740   73.2080  220.9590 C   0  0  0  0  0  0  0  0  0  0  0  0
  138.1400   73.4680  220.2750 N   0  0  0  0  0  0  0  0  0  0  0  0
  138.6520   74.7450  220.7730 C   0  0  0  0  0  0  0  0  0  0  0  0
  139.4270   76.7500  222.4500 C   0  0  0  0  0  0  0  0  0  0  0  0
  140.2870   79.1070  222.2900 C   0  0  0  0  0  0  0  0  0  0  0  0
  140.4250   79.6170  223.5870 C   0  0  0  0  0  0  0  0  0  0  0  0
  141.4720   80.5140  223.8490 C   0  0  0  0  0  0  0  0  0  0  0  0
  142.3580   80.8870  222.8230 C   0  0  0  0  0  0  0  0  0  0  0  0
  142.2070   80.3580  221.5310 C   0  0  0  0  0  0  0  0  0  0  0  0
  141.1650   79.4530  221.2960 C   0  0  0  0  0  0  0  0  0  0  0  0
  143.2240   76.7480  219.8750 N   0  0  0  0  0  0  0  0  0  0  0  0
  143.7160   75.5980  219.3870 C   0  0  0  0  0  0  0  0  0  0  0  0
  144.5440   74.6870  220.0410 C   0  0  0  0  0  0  0  0  0  0  0  0
  145.9050   71.9520  222.0240 H   0  0  0  0  0  0  0  0  0  0  0  0
  144.8399   72.4422  217.4466 H   0  0  0  0  0  0  0  0  0  0  0  0
  143.3534   74.1387  216.3303 H   0  0  0  0  0  0  0  0  0  0  0  0
  142.0186   76.6496  216.7791 H   0  0  0  0  0  0  0  0  0  0  0  0
  138.7805   78.5485  219.6673 H   0  0  0  0  0  0  0  0  0  0  0  0
  139.6931   77.0443  219.8853 H   0  0  0  0  0  0  0  0  0  0  0  0
  137.8066   79.5109  222.6117 H   0  0  0  0  0  0  0  0  0  0  0  0
  137.2289   78.6811  221.1680 H   0  0  0  0  0  0  0  0  0  0  0  0
  137.3628   77.7285  224.0254 H   0  0  0  0  0  0  0  0  0  0  0  0
  136.2202   77.2516  222.7392 H   0  0  0  0  0  0  0  0  0  0  0  0
  136.9792   76.1730  220.9890 H   0  0  0  0  0  0  0  0  0  0  0  0
  137.0589   73.8783  223.0084 H   0  0  0  0  0  0  0  0  0  0  0  0
  135.6442   74.5318  222.1858 H   0  0  0  0  0  0  0  0  0  0  0  0
  136.8936   72.2055  221.4113 H   0  0  0  0  0  0  0  0  0  0  0  0
  136.0386   73.2539  220.2449 H   0  0  0  0  0  0  0  0  0  0  0  0
  138.8210   72.7110  220.5280 H   0  0  0  0  0  0  0  0  0  0  0  0
  139.5238   74.5684  221.4201 H   0  0  0  0  0  0  0  0  0  0  0  0
  138.9587   75.3826  219.9307 H   0  0  0  0  0  0  0  0  0  0  0  0
  139.9824   76.8567  223.3935 H   0  0  0  0  0  0  0  0  0  0  0  0
  139.9830   76.0625  221.7956 H   0  0  0  0  0  0  0  0  0  0  0  0
  139.7271   79.3206  224.3839 H   0  0  0  0  0  0  0  0  0  0  0  0
  141.5999   80.9267  224.8606 H   0  0  0  0  0  0  0  0  0  0  0  0
  143.1725   81.5958  223.0331 H   0  0  0  0  0  0  0  0  0  0  0  0
  142.8925   80.6484  220.7212 H   0  0  0  0  0  0  0  0  0  0  0  0
  143.3830   77.1440  220.8290 H   0  0  0  0  0  0  0  0  0  0  0  0
  144.8694   74.8631  221.0769 H   0  0  0  0  0  0  0  0  0  0  0  0
  1  2  2  0
  2  3  1  0
  2  4  1  0
  4  5  2  0
  5  6  1  0
  6  7  2  0
  7  8  1  0
  8  9  2  0
  9 10  1  0
 10 11  2  0
 10 12  1  0
 12 13  1  0
 14 13  1  6
 14 15  1  0
 15 16  1  0
 16 17  1  0
 17 18  1  0
 18 19  1  0
 19 20  1  0
 20 21  1  0
 21 22  1  0
 17 23  1  0
 14 24  1  0
 24 25  2  0
 25 26  1  0
 26 27  2  0
 27 28  1  0
 28 29  2  0
  9 30  1  0
 30 31  1  0
 31 32  2  0
 32  4  1  0
 31  7  1  0
 29 12  1  0
 23 14  1  0
 29 24  1  0
 22 18  1  0
  3 33  1  0
  5 34  1  0
  6 35  1  0
  8 36  1  0
 13 37  1  0
 13 38  1  0
 15 39  1  0
 15 40  1  0
 16 41  1  0
 16 42  1  0
 18 43  1  6
 19 44  1  0
 19 45  1  0
 20 46  1  0
 20 47  1  0
 21 48  1  0
 22 49  1  0
 22 50  1  0
 23 51  1  0
 23 52  1  0
 25 53  1  0
 26 54  1  0
 27 55  1  0
 28 56  1  0
 30 57  1  0
 32 58  1  0
M  CHG  1   1  -1
M  END
>  <meeko>  (16) 
{"free_energy": -7.8, "intermolecular_energy": -9.29, "internal_energy": -1.24, "cluster_size": 2, "cluster_id": 6, "rank_in_cluster": 2}

$$$$

     RDKit          3D

 58 63  0  0  0  0  0  0  0  0999 V2000
  146.2650   72.9680  219.3060 N   0  0  0  0  0  0  0  0  0  0  0  0
  145.6930   73.2900  220.4220 C   0  0  0  0  0  0  0  0  0  0  0  0
  146.3380   73.0100  221.6240 O   0  0  0  0  0  0  0  0  0  0  0  0
  144.3690   73.9570  220.4260 C   0  0  0  0  0  0  0  0  0  0  0  0
  143.2000   73.2590  220.8380 C   0  0  0  0  0  0  0  0  0  0  0  0
  141.9460   73.8940  220.8400 C   0  0  0  0  0  0  0  0  0  0  0  0
  141.8870   75.2230  220.4330 C   0  0  0  0  0  0  0  0  0  0  0  0
  140.8150   76.0800  220.3300 C   0  0  0  0  0  0  0  0  0  0  0  0
  141.3570   77.2800  219.8680 C   0  0  0  0  0  0  0  0  0  0  0  0
  140.6050   78.5130  219.5700 C   0  0  0  0  0  0  0  0  0  0  0  0
  140.2610   78.7390  218.3780 O   0  0  0  0  0  0  0  0  0  0  0  0
  140.2940   79.4740  220.5950 N   0  0  0  0  0  0  0  0  0  0  0  0
  138.9270   79.8240  220.9920 C   0  0  0  0  0  0  0  0  0  0  0  0
  139.0070   80.2730  222.4920 C   0  0  1  0  0  0  0  0  0  0  0  0
  138.3020   81.6080  222.7680 C   0  0  0  0  0  0  0  0  0  0  0  0
  137.3300   81.3060  223.8990 C   0  0  0  0  0  0  0  0  0  0  0  0
  137.0490   79.8600  223.8830 N   0  0  0  0  0  0  0  0  0  0  0  0
  135.9250   79.5230  222.9650 C   0  0  2  0  0  0  0  0  0  0  0  0
  136.2790   78.3830  222.0230 C   0  0  0  0  0  0  0  0  0  0  0  0
  135.4660   78.6510  220.7720 C   0  0  0  0  0  0  0  0  0  0  0  0
  135.1660   80.0820  220.7230 N   0  0  0  0  0  0  0  0  0  0  0  0
  135.6030   80.6630  221.9930 C   0  0  0  0  0  0  0  0  0  0  0  0
  138.3240   79.2690  223.4410 C   0  0  0  0  0  0  0  0  0  0  0  0
  140.4890   80.3330  222.7330 C   0  0  0  0  0  0  0  0  0  0  0  0
  141.1680   80.7630  223.8800 C   0  0  0  0  0  0  0  0  0  0  0  0
  142.5700   80.7110  223.8910 C   0  0  0  0  0  0  0  0  0  0  0  0
  143.2700   80.2360  222.7680 C   0  0  0  0  0  0  0  0  0  0  0  0
  142.5710   79.8020  221.6300 C   0  0  0  0  0  0  0  0  0  0  0  0
  141.1710   79.8480  221.6470 C   0  0  0  0  0  0  0  0  0  0  0  0
  142.6930   77.1620  219.6780 N   0  0  0  0  0  0  0  0  0  0  0  0
  143.0030   75.9040  220.0330 C   0  0  0  0  0  0  0  0  0  0  0  0
  144.2620   75.3060  220.0130 C   0  0  0  0  0  0  0  0  0  0  0  0
  146.2890   72.0880  222.0440 H   0  0  0  0  0  0  0  0  0  0  0  0
  143.2783   72.2098  221.1589 H   0  0  0  0  0  0  0  0  0  0  0  0
  141.0390   73.3565  221.1538 H   0  0  0  0  0  0  0  0  0  0  0  0
  139.7612   75.8658  220.5613 H   0  0  0  0  0  0  0  0  0  0  0  0
  138.5476   80.6464  220.3678 H   0  0  0  0  0  0  0  0  0  0  0  0
  138.2428   78.9721  220.8651 H   0  0  0  0  0  0  0  0  0  0  0  0
  139.0290   82.3741  223.0757 H   0  0  0  0  0  0  0  0  0  0  0  0
  137.7927   82.0015  221.8759 H   0  0  0  0  0  0  0  0  0  0  0  0
  137.7790   81.5885  224.8626 H   0  0  0  0  0  0  0  0  0  0  0  0
  136.3997   81.8778  223.7666 H   0  0  0  0  0  0  0  0  0  0  0  0
  135.0944   79.2874  223.6466 H   0  0  0  0  0  0  0  0  0  0  0  0
  137.3551   78.3883  221.7948 H   0  0  0  0  0  0  0  0  0  0  0  0
  136.0579   77.3981  222.4600 H   0  0  0  0  0  0  0  0  0  0  0  0
  136.0440   78.3605  219.8823 H   0  0  0  0  0  0  0  0  0  0  0  0
  134.5342   78.0666  220.7905 H   0  0  0  0  0  0  0  0  0  0  0  0
  135.7190   80.5160  219.9460 H   0  0  0  0  0  0  0  0  0  0  0  0
  136.5013   81.2767  221.8305 H   0  0  0  0  0  0  0  0  0  0  0  0
  134.8082   81.2995  222.4092 H   0  0  0  0  0  0  0  0  0  0  0  0
  138.9694   79.0786  224.3112 H   0  0  0  0  0  0  0  0  0  0  0  0
  138.1455   78.3141  222.9249 H   0  0  0  0  0  0  0  0  0  0  0  0
  140.6133   81.1340  224.7545 H   0  0  0  0  0  0  0  0  0  0  0  0
  143.1236   81.0431  224.7816 H   0  0  0  0  0  0  0  0  0  0  0  0
  144.3695   80.2042  222.7809 H   0  0  0  0  0  0  0  0  0  0  0  0
  143.1108   79.4341  220.7450 H   0  0  0  0  0  0  0  0  0  0  0  0
  143.3500   77.8960  219.3320 H   0  0  0  0  0  0  0  0  0  0  0  0
  145.1488   75.8680  219.6848 H   0  0  0  0  0  0  0  0  0  0  0  0
  1  2  2  0
  2  3  1  0
  2  4  1  0
  4  5  2  0
  5  6  1  0
  6  7  2  0
  7  8  1  0
  8  9  2  0
  9 10  1  0
 10 11  2  0
 10 12  1  0
 12 13  1  0
 14 13  1  6
 14 15  1  0
 15 16  1  0
 16 17  1  0
 17 18  1  0
 18 19  1  0
 19 20  1  0
 20 21  1  0
 21 22  1  0
 17 23  1  0
 14 24  1  0
 24 25  2  0
 25 26  1  0
 26 27  2  0
 27 28  1  0
 28 29  2  0
  9 30  1  0
 30 31  1  0
 31 32  2  0
 32  4  1  0
 31  7  1  0
 29 12  1  0
 23 14  1  0
 29 24  1  0
 22 18  1  0
  3 33  1  0
  5 34  1  0
  6 35  1  0
  8 36  1  0
 13 37  1  0
 13 38  1  0
 15 39  1  0
 15 40  1  0
 16 41  1  0
 16 42  1  0
 18 43  1  1
 19 44  1  0
 19 45  1  0
 20 46  1  0
 20 47  1  0
 21 48  1  0
 22 49  1  0
 22 50  1  0
 23 51  1  0
 23 52  1  0
 25 53  1  0
 26 54  1  0
 27 55  1  0
 28 56  1  0
 30 57  1  0
 32 58  1  0
M  CHG  1   1  -1
M  END
>  <meeko>  (17) 
{"free_energy": -7.96, "intermolecular_energy": -9.46, "internal_energy": -1.24, "cluster_size": 2, "cluster_id": 2, "rank_in_cluster": 2}

$$$$

     RDKit          3D

 58 63  0  0  0  0  0  0  0  0999 V2000
  146.3180   71.8140  219.3300 N   0  0  0  0  0  0  0  0  0  0  0  0
  145.7280   72.7380  220.0190 C   0  0  0  0  0  0  0  0  0  0  0  0
  145.8840   72.7590  221.4030 O   0  0  0  0  0  0  0  0  0  0  0  0
  144.9020   73.7690  219.3480 C   0  0  0  0  0  0  0  0  0  0  0  0
  144.5750   73.6590  217.9680 C   0  0  0  0  0  0  0  0  0  0  0  0
  143.7920   74.6380  217.3320 C   0  0  0  0  0  0  0  0  0  0  0  0
  143.3440   75.7110  218.0970 C   0  0  0  0  0  0  0  0  0  0  0  0
  142.5800   76.8010  217.7470 C   0  0  0  0  0  0  0  0  0  0  0  0
  142.4520   77.5430  218.9220 C   0  0  0  0  0  0  0  0  0  0  0  0
  141.7370   78.8250  219.0640 C   0  0  0  0  0  0  0  0  0  0  0  0
  141.9030   79.7110  218.1820 O   0  0  0  0  0  0  0  0  0  0  0  0
  140.8960   79.0980  220.1990 N   0  0  0  0  0  0  0  0  0  0  0  0
  139.5360   78.5690  220.3480 C   0  0  0  0  0  0  0  0  0  0  0  0
  139.2730   78.4660  221.8900 C   0  0  1  0  0  0  0  0  0  0  0  0
  137.9410   79.0950  222.3250 C   0  0  0  0  0  0  0  0  0  0  0  0
  137.2240   77.9920  223.0910 C   0  0  0  0  0  0  0  0  0  0  0  0
  137.7740   76.7000  222.6470 N   0  0  0  0  0  0  0  0  0  0  0  0
  137.0690   76.1800  221.4420 C   0  0  2  0  0  0  0  0  0  0  0  0
  138.0390   75.7510  220.3530 C   0  0  0  0  0  0  0  0  0  0  0  0
  137.2880   75.9820  219.0570 C   0  0  0  0  0  0  0  0  0  0  0  0
  136.2670   77.0000  219.2980 N   0  0  0  0  0  0  0  0  0  0  0  0
  136.2420   77.2610  220.7380 C   0  0  0  0  0  0  0  0  0  0  0  0
  139.1890   77.0050  222.3740 C   0  0  0  0  0  0  0  0  0  0  0  0
  140.4680   79.1670  222.4710 C   0  0  0  0  0  0  0  0  0  0  0  0
  140.7370   79.4640  223.8130 C   0  0  0  0  0  0  0  0  0  0  0  0
  141.9390   80.1130  224.1310 C   0  0  0  0  0  0  0  0  0  0  0  0
  142.8500   80.4560  223.1150 C   0  0  0  0  0  0  0  0  0  0  0  0
  142.5650   80.1420  221.7760 C   0  0  0  0  0  0  0  0  0  0  0  0
  141.3660   79.4800  221.4840 C   0  0  0  0  0  0  0  0  0  0  0  0
  143.1190   76.9490  219.9400 N   0  0  0  0  0  0  0  0  0  0  0  0
  143.6530   75.8300  219.4230 C   0  0  0  0  0  0  0  0  0  0  0  0
  144.4310   74.8810  220.0850 C   0  0  0  0  0  0  0  0  0  0  0  0
  145.7770   71.9160  221.9560 H   0  0  0  0  0  0  0  0  0  0  0  0
  144.9397   72.7964  217.3909 H   0  0  0  0  0  0  0  0  0  0  0  0
  143.5414   74.5586  216.2639 H   0  0  0  0  0  0  0  0  0  0  0  0
  142.1616   77.0360  216.7572 H   0  0  0  0  0  0  0  0  0  0  0  0
  138.8088   79.2501  219.8818 H   0  0  0  0  0  0  0  0  0  0  0  0
  139.4307   77.5902  219.8573 H   0  0  0  0  0  0  0  0  0  0  0  0
  138.1169   79.9661  222.9733 H   0  0  0  0  0  0  0  0  0  0  0  0
  137.3527   79.4569  221.4689 H   0  0  0  0  0  0  0  0  0  0  0  0
  137.3911   78.1178  224.1709 H   0  0  0  0  0  0  0  0  0  0  0  0
  136.1418   78.0337  222.8986 H   0  0  0  0  0  0  0  0  0  0  0  0
  136.4576   75.3540  221.8345 H   0  0  0  0  0  0  0  0  0  0  0  0
  138.9536   76.3613  220.3856 H   0  0  0  0  0  0  0  0  0  0  0  0
  138.3585   74.7048  220.4684 H   0  0  0  0  0  0  0  0  0  0  0  0
  137.9844   76.3293  218.2795 H   0  0  0  0  0  0  0  0  0  0  0  0
  136.8200   75.0466  218.7163 H   0  0  0  0  0  0  0  0  0  0  0  0
  136.5450   77.8810  218.8020 H   0  0  0  0  0  0  0  0  0  0  0  0
  136.6743   78.2515  220.9432 H   0  0  0  0  0  0  0  0  0  0  0  0
  135.2058   77.2428  221.1066 H   0  0  0  0  0  0  0  0  0  0  0  0
  139.7822   76.8805  223.2920 H   0  0  0  0  0  0  0  0  0  0  0  0
  139.5873   76.3236  221.6077 H   0  0  0  0  0  0  0  0  0  0  0  0
  140.0198   79.1936  224.6020 H   0  0  0  0  0  0  0  0  0  0  0  0
  142.1704   80.3548  225.1788 H   0  0  0  0  0  0  0  0  0  0  0  0
  143.7878   80.9714  223.3700 H   0  0  0  0  0  0  0  0  0  0  0  0
  143.2684   80.4103  220.9740 H   0  0  0  0  0  0  0  0  0  0  0  0
  143.2010   77.2860  220.9250 H   0  0  0  0  0  0  0  0  0  0  0  0
  144.6722   74.9939  221.1523 H   0  0  0  0  0  0  0  0  0  0  0  0
  1  2  2  0
  2  3  1  0
  2  4  1  0
  4  5  2  0
  5  6  1  0
  6  7  2  0
  7  8  1  0
  8  9  2  0
  9 10  1  0
 10 11  2  0
 10 12  1  0
 12 13  1  0
 14 13  1  6
 14 15  1  0
 15 16  1  0
 16 17  1  0
 17 18  1  0
 18 19  1  0
 19 20  1  0
 20 21  1  0
 21 22  1  0
 17 23  1  0
 14 24  1  0
 24 25  2  0
 25 26  1  0
 26 27  2  0
 27 28  1  0
 28 29  2  0
  9 30  1  0
 30 31  1  0
 31 32  2  0
 32  4  1  0
 31  7  1  0
 29 12  1  0
 23 14  1  0
 29 24  1  0
 22 18  1  0
  3 33  1  0
  5 34  1  0
  6 35  1  0
  8 36  1  0
 13 37  1  0
 13 38  1  0
 15 39  1  0
 15 40  1  0
 16 41  1  0
 16 42  1  0
 18 43  1  1
 19 44  1  0
 19 45  1  0
 20 46  1  0
 20 47  1  0
 21 48  1  0
 22 49  1  0
 22 50  1  0
 23 51  1  0
 23 52  1  0
 25 53  1  0
 26 54  1  0
 27 55  1  0
 28 56  1  0
 30 57  1  0
 32 58  1  0
M  CHG  1   1  -1
M  END
>  <meeko>  (18) 
{"free_energy": -7.78, "intermolecular_energy": -9.27, "internal_energy": -1.26, "cluster_size": 2, "cluster_id": 4, "rank_in_cluster": 2}

$$$$

     RDKit          3D

 58 63  0  0  0  0  0  0  0  0999 V2000
  146.0680   71.5280  219.1530 N   0  0  0  0  0  0  0  0  0  0  0  0
  145.7350   72.5960  219.8040 C   0  0  0  0  0  0  0  0  0  0  0  0
  146.0930   72.7170  221.1440 O   0  0  0  0  0  0  0  0  0  0  0  0
  144.9880   73.6860  219.1320 C   0  0  0  0  0  0  0  0  0  0  0  0
  144.8720   73.7280  217.7150 C   0  0  0  0  0  0  0  0  0  0  0  0
  144.1630   74.7630  217.0800 C   0  0  0  0  0  0  0  0  0  0  0  0
  143.5780   75.7380  217.8810 C   0  0  0  0  0  0  0  0  0  0  0  0
  142.8430   76.8520  217.5420 C   0  0  0  0  0  0  0  0  0  0  0  0
  142.5220   77.4550  218.7580 C   0  0  0  0  0  0  0  0  0  0  0  0
  141.7570   78.7050  218.9310 C   0  0  0  0  0  0  0  0  0  0  0  0
  141.9350   79.6410  218.1040 O   0  0  0  0  0  0  0  0  0  0  0  0
  140.8540   78.8910  220.0350 N   0  0  0  0  0  0  0  0  0  0  0  0
  139.6370   78.0970  220.2310 C   0  0  0  0  0  0  0  0  0  0  0  0
  139.3700   78.0770  221.7750 C   0  0  1  0  0  0  0  0  0  0  0  0
  137.9260   78.4410  222.1500 C   0  0  0  0  0  0  0  0  0  0  0  0
  137.4460   77.2830  223.0120 C   0  0  0  0  0  0  0  0  0  0  0  0
  138.2680   76.1050  222.6890 N   0  0  0  0  0  0  0  0  0  0  0  0
  137.7160   75.3410  221.5360 C   0  0  2  0  0  0  0  0  0  0  0  0
  136.8440   74.1790  221.9860 C   0  0  0  0  0  0  0  0  0  0  0  0
  136.9950   73.1400  220.8920 C   0  0  0  0  0  0  0  0  0  0  0  0
  138.2670   73.3780  220.2110 N   0  0  0  0  0  0  0  0  0  0  0  0
  138.8080   74.6370  220.7240 C   0  0  0  0  0  0  0  0  0  0  0  0
  139.5910   76.6820  222.3910 C   0  0  0  0  0  0  0  0  0  0  0  0
  140.3750   79.0680  222.2900 C   0  0  0  0  0  0  0  0  0  0  0  0
  140.5460   79.5350  223.5990 C   0  0  0  0  0  0  0  0  0  0  0  0
  141.5750   80.4530  223.8580 C   0  0  0  0  0  0  0  0  0  0  0  0
  142.4120   80.8910  222.8150 C   0  0  0  0  0  0  0  0  0  0  0  0
  142.2280   80.4060  221.5110 C   0  0  0  0  0  0  0  0  0  0  0  0
  141.2050   79.4780  221.2790 C   0  0  0  0  0  0  0  0  0  0  0  0
  143.0480   76.7580  219.7930 N   0  0  0  0  0  0  0  0  0  0  0  0
  143.6840   75.7110  219.2440 C   0  0  0  0  0  0  0  0  0  0  0  0
  144.3820   74.7030  219.9070 C   0  0  0  0  0  0  0  0  0  0  0  0
  146.2910   71.9000  221.7100 H   0  0  0  0  0  0  0  0  0  0  0  0
  145.3430   72.9407  217.1081 H   0  0  0  0  0  0  0  0  0  0  0  0
  144.0738   74.8004  215.9843 H   0  0  0  0  0  0  0  0  0  0  0  0
  142.5688   77.1921  216.5325 H   0  0  0  0  0  0  0  0  0  0  0  0
  138.7903   78.5610  219.7039 H   0  0  0  0  0  0  0  0  0  0  0  0
  139.7549   77.0787  219.8320 H   0  0  0  0  0  0  0  0  0  0  0  0
  137.8984   79.3835  222.7165 H   0  0  0  0  0  0  0  0  0  0  0  0
  137.2915   78.5906  221.2640 H   0  0  0  0  0  0  0  0  0  0  0  0
  137.5598   77.5374  224.0761 H   0  0  0  0  0  0  0  0  0  0  0  0
  136.3842   77.0740  222.8149 H   0  0  0  0  0  0  0  0  0  0  0  0
  137.1702   76.1013  220.9580 H   0  0  0  0  0  0  0  0  0  0  0  0
  137.1943   73.7814  222.9499 H   0  0  0  0  0  0  0  0  0  0  0  0
  135.7959   74.4778  222.1351 H   0  0  0  0  0  0  0  0  0  0  0  0
  136.9908   72.1319  221.3322 H   0  0  0  0  0  0  0  0  0  0  0  0
  136.1612   73.2145  220.1784 H   0  0  0  0  0  0  0  0  0  0  0  0
  138.9300   72.6030  220.4550 H   0  0  0  0  0  0  0  0  0  0  0  0
  139.6758   74.4327  221.3683 H   0  0  0  0  0  0  0  0  0  0  0  0
  139.1284   75.2773  219.8889 H   0  0  0  0  0  0  0  0  0  0  0  0
  140.1775   76.7709  223.3174 H   0  0  0  0  0  0  0  0  0  0  0  0
  140.1423   76.0366  221.6914 H   0  0  0  0  0  0  0  0  0  0  0  0
  139.8865   79.1889  224.4085 H   0  0  0  0  0  0  0  0  0  0  0  0
  141.7279   80.8315  224.8795 H   0  0  0  0  0  0  0  0  0  0  0  0
  143.2130   81.6158  223.0225 H   0  0  0  0  0  0  0  0  0  0  0  0
  142.8736   80.7475  220.6885 H   0  0  0  0  0  0  0  0  0  0  0  0
  142.9740   76.9840  220.8110 H   0  0  0  0  0  0  0  0  0  0  0  0
  144.4597   74.6983  221.0042 H   0  0  0  0  0  0  0  0  0  0  0  0
  1  2  2  0
  2  3  1  0
  2  4  1  0
  4  5  2  0
  5  6  1  0
  6  7  2  0
  7  8  1  0
  8  9  2  0
  9 10  1  0
 10 11  2  0
 10 12  1  0
 12 13  1  0
 14 13  1  6
 14 15  1  0
 15 16  1  0
 16 17  1  0
 17 18  1  0
 18 19  1  0
 19 20  1  0
 20 21  1  0
 21 22  1  0
 17 23  1  0
 14 24  1  0
 24 25  2  0
 25 26  1  0
 26 27  2  0
 27 28  1  0
 28 29  2  0
  9 30  1  0
 30 31  1  0
 31 32  2  0
 32  4  1  0
 31  7  1  0
 29 12  1  0
 23 14  1  0
 29 24  1  0
 22 18  1  0
  3 33  1  0
  5 34  1  0
  6 35  1  0
  8 36  1  0
 13 37  1  0
 13 38  1  0
 15 39  1  0
 15 40  1  0
 16 41  1  0
 16 42  1  0
 18 43  1  6
 19 44  1  0
 19 45  1  0
 20 46  1  0
 20 47  1  0
 21 48  1  0
 22 49  1  0
 22 50  1  0
 23 51  1  0
 23 52  1  0
 25 53  1  0
 26 54  1  0
 27 55  1  0
 28 56  1  0
 30 57  1  0
 32 58  1  0
M  CHG  1   1  -1
M  END
>  <meeko>  (19) 
{"free_energy": -7.83, "intermolecular_energy": -9.33, "internal_energy": -1.26, "cluster_size": 2, "cluster_id": 6, "rank_in_cluster": 1}

$$$$

     RDKit          3D

 58 63  0  0  0  0  0  0  0  0999 V2000
  146.3240   72.9780  218.8410 N   0  0  0  0  0  0  0  0  0  0  0  0
  145.8390   73.0900  220.0360 C   0  0  0  0  0  0  0  0  0  0  0  0
  146.6160   72.7050  221.1260 O   0  0  0  0  0  0  0  0  0  0  0  0
  144.4750   73.6290  220.2490 C   0  0  0  0  0  0  0  0  0  0  0  0
  143.4110   72.7820  220.6660 C   0  0  0  0  0  0  0  0  0  0  0  0
  142.1180   73.2960  220.8670 C   0  0  0  0  0  0  0  0  0  0  0  0
  141.9160   74.6550  220.6500 C   0  0  0  0  0  0  0  0  0  0  0  0
  140.7760   75.4190  220.7600 C   0  0  0  0  0  0  0  0  0  0  0  0
  141.1740   76.7120  220.4180 C   0  0  0  0  0  0  0  0  0  0  0  0
  140.3020   77.9000  220.3580 C   0  0  0  0  0  0  0  0  0  0  0  0
  139.0730   77.7370  220.1270 O   0  0  0  0  0  0  0  0  0  0  0  0
  140.8280   79.2300  220.5140 N   0  0  0  0  0  0  0  0  0  0  0  0
  140.4280   80.3650  219.6760 C   0  0  0  0  0  0  0  0  0  0  0  0
  140.6160   81.6480  220.5570 C   0  0  1  0  0  0  0  0  0  0  0  0
  141.4020   82.7630  219.8520 C   0  0  0  0  0  0  0  0  0  0  0  0
  140.5030   83.9880  219.9430 C   0  0  0  0  0  0  0  0  0  0  0  0
  139.1180   83.5220  220.1270 N   0  0  0  0  0  0  0  0  0  0  0  0
  138.4450   83.2520  218.8260 C   0  0  2  0  0  0  0  0  0  0  0  0
  137.5930   84.4260  218.3700 C   0  0  0  0  0  0  0  0  0  0  0  0
  136.4740   83.7970  217.5630 C   0  0  0  0  0  0  0  0  0  0  0  0
  136.3140   82.4130  218.0090 N   0  0  0  0  0  0  0  0  0  0  0  0
  137.4190   82.1190  218.9230 C   0  0  0  0  0  0  0  0  0  0  0  0
  139.2720   82.3000  220.9370 C   0  0  0  0  0  0  0  0  0  0  0  0
  141.3240   81.1090  221.7680 C   0  0  0  0  0  0  0  0  0  0  0  0
  141.8330   81.8150  222.8650 C   0  0  0  0  0  0  0  0  0  0  0  0
  142.4430   81.0950  223.9030 C   0  0  0  0  0  0  0  0  0  0  0  0
  142.5380   79.6940  223.8340 C   0  0  0  0  0  0  0  0  0  0  0  0
  142.0150   79.0040  222.7280 C   0  0  0  0  0  0  0  0  0  0  0  0
  141.3960   79.7410  221.7110 C   0  0  0  0  0  0  0  0  0  0  0  0
  142.4890   76.7390  220.0950 N   0  0  0  0  0  0  0  0  0  0  0  0
  142.9290   75.4800  220.2470 C   0  0  0  0  0  0  0  0  0  0  0  0
  144.2220   75.0040  220.0330 C   0  0  0  0  0  0  0  0  0  0  0  0
  146.3300   71.9430  221.7310 H   0  0  0  0  0  0  0  0  0  0  0  0
  143.6022   71.7117  220.8332 H   0  0  0  0  0  0  0  0  0  0  0  0
  141.2917   72.6437  221.1860 H   0  0  0  0  0  0  0  0  0  0  0  0
  139.7704   75.0833  221.0535 H   0  0  0  0  0  0  0  0  0  0  0  0
  141.0646   80.4208  218.7807 H   0  0  0  0  0  0  0  0  0  0  0  0
  139.3876   80.2631  219.3338 H   0  0  0  0  0  0  0  0  0  0  0  0
  142.3589   82.9455  220.3630 H   0  0  0  0  0  0  0  0  0  0  0  0
  141.6480   82.5042  218.8116 H   0  0  0  0  0  0  0  0  0  0  0  0
  140.8046   84.6099  220.7987 H   0  0  0  0  0  0  0  0  0  0  0  0
  140.5851   84.5917  219.0272 H   0  0  0  0  0  0  0  0  0  0  0  0
  139.2777   83.0235  218.1446 H   0  0  0  0  0  0  0  0  0  0  0  0
  137.1884   84.9713  219.2354 H   0  0  0  0  0  0  0  0  0  0  0  0
  138.1697   85.1567  217.7839 H   0  0  0  0  0  0  0  0  0  0  0  0
  135.5386   84.3520  217.7271 H   0  0  0  0  0  0  0  0  0  0  0  0
  136.7152   83.8260  216.4902 H   0  0  0  0  0  0  0  0  0  0  0  0
  135.4110   82.3310  218.5350 H   0  0  0  0  0  0  0  0  0  0  0  0
  137.0398   82.0491  219.9532 H   0  0  0  0  0  0  0  0  0  0  0  0
  137.8880   81.1618  218.6514 H   0  0  0  0  0  0  0  0  0  0  0  0
  139.2703   82.5575  222.0064 H   0  0  0  0  0  0  0  0  0  0  0  0
  138.4408   81.6054  220.7457 H   0  0  0  0  0  0  0  0  0  0  0  0
  141.7561   82.9113  222.9118 H   0  0  0  0  0  0  0  0  0  0  0  0
  142.8488   81.6290  224.7749 H   0  0  0  0  0  0  0  0  0  0  0  0
  143.0234   79.1365  224.6486 H   0  0  0  0  0  0  0  0  0  0  0  0
  142.0901   77.9085  222.6622 H   0  0  0  0  0  0  0  0  0  0  0  0
  143.0500   77.5670  219.7930 H   0  0  0  0  0  0  0  0  0  0  0  0
  145.0249   75.6804  219.7046 H   0  0  0  0  0  0  0  0  0  0  0  0
  1  2  2  0
  2  3  1  0
  2  4  1  0
  4  5  2  0
  5  6  1  0
  6  7  2  0
  7  8  1  0
  8  9  2  0
  9 10  1  0
 10 11  2  0
 10 12  1  0
 12 13  1  0
 14 13  1  6
 14 15  1  0
 15 16  1  0
 16 17  1  0
 17 18  1  0
 18 19  1  0
 19 20  1  0
 20 21  1  0
 21 22  1  0
 17 23  1  0
 14 24  1  0
 24 25  2  0
 25 26  1  0
 26 27  2  0
 27 28  1  0
 28 29  2  0
  9 30  1  0
 30 31  1  0
 31 32  2  0
 32  4  1  0
 31  7  1  0
 29 12  1  0
 23 14  1  0
 29 24  1  0
 22 18  1  0
  3 33  1  0
  5 34  1  0
  6 35  1  0
  8 36  1  0
 13 37  1  0
 13 38  1  0
 15 39  1  0
 15 40  1  0
 16 41  1  0
 16 42  1  0
 18 43  1  6
 19 44  1  0
 19 45  1  0
 20 46  1  0
 20 47  1  0
 21 48  1  0
 22 49  1  0
 22 50  1  0
 23 51  1  0
 23 52  1  0
 25 53  1  0
 26 54  1  0
 27 55  1  0
 28 56  1  0
 30 57  1  0
 32 58  1  0
M  CHG  1   1  -1
M  END
>  <meeko>  (20) 
{"free_energy": -8.0, "intermolecular_energy": -9.49, "internal_energy": -1.12, "cluster_size": 1, "cluster_id": 3, "rank_in_cluster": 1}

$$$$
