
     RDKit          3D

 68 73  0  0  0  0  0  0  0  0999 V2000
  146.7020   73.3850  222.2010 C   0  0  0  0  0  0  0  0  0  0  0  0
  145.8640   73.8820  221.0210 C   0  0  0  0  0  0  0  0  0  0  0  0
  146.3730   73.4010  219.7280 N   0  0  0  0  0  0  0  0  0  0  0  0
  145.8220   72.0880  219.3140 C   0  0  1  0  0  0  0  0  0  0  0  0
  144.5440   71.7160  220.0960 C   0  0  0  0  0  0  0  0  0  0  0  0
  143.4270   72.5540  219.6530 N   0  0  0  0  0  0  0  0  0  0  0  0
  142.4460   73.0420  220.5890 C   0  0  0  0  0  0  0  0  0  0  0  0
  142.1440   74.3640  220.6350 N   0  0  0  0  0  0  0  0  0  0  0  0
  141.2020   74.8340  221.4940 C   0  0  0  0  0  0  0  0  0  0  0  0
  140.8620   76.2360  221.4990 N   0  0  0  0  0  0  0  0  0  0  0  0
  140.4340   76.8810  220.2450 C   0  0  0  0  0  0  0  0  0  0  0  0
  139.5770   78.1180  220.5120 C   0  0  0  0  0  0  0  0  0  0  0  0
  140.2890   79.0410  221.4550 C   0  0  0  0  0  0  0  0  0  0  0  0
  140.2080   80.4340  221.2960 C   0  0  0  0  0  0  0  0  0  0  0  0
  140.8510   81.2810  222.2030 C   0  0  0  0  0  0  0  0  0  0  0  0
  141.5610   80.7450  223.2800 C   0  0  0  0  0  0  0  0  0  0  0  0
  141.6320   79.3580  223.4520 C   0  0  0  0  0  0  0  0  0  0  0  0
  141.0070   78.4980  222.5340 C   0  0  0  0  0  0  0  0  0  0  0  0
  141.0640   77.0050  222.7450 C   0  0  0  0  0  0  0  0  0  0  0  0
  140.5670   73.9650  222.3230 N   0  0  0  0  0  0  0  0  0  0  0  0
  140.8610   72.6370  222.2920 C   0  0  0  0  0  0  0  0  0  0  0  0
  140.1910   71.7230  223.1820 N   0  0  0  0  0  0  0  0  0  0  0  0
  139.0320   70.9610  222.6830 C   0  0  0  0  0  0  0  0  0  0  0  0
  138.1480   70.4430  223.8210 C   0  0  0  0  0  0  0  0  0  0  0  0
  138.9830   69.7370  224.8450 C   0  0  0  0  0  0  0  0  0  0  0  0
  138.5170   68.5780  225.4860 C   0  0  0  0  0  0  0  0  0  0  0  0
  139.2990   67.9520  226.4600 C   0  0  0  0  0  0  0  0  0  0  0  0
  140.5410   68.4870  226.8090 C   0  0  0  0  0  0  0  0  0  0  0  0
  141.0030   69.6520  226.1890 C   0  0  0  0  0  0  0  0  0  0  0  0
  140.2310   70.2770  225.1970 C   0  0  0  0  0  0  0  0  0  0  0  0
  140.7040   71.5580  224.5560 C   0  0  0  0  0  0  0  0  0  0  0  0
  141.7960   72.1820  221.4170 N   0  0  0  0  0  0  0  0  0  0  0  0
  143.2340   72.6880  218.2060 C   0  0  0  0  0  0  0  0  0  0  0  0
  144.5780   73.0050  217.5420 C   0  0  0  0  0  0  0  0  0  0  0  0
  145.5780   72.0690  217.9130 O   0  0  0  0  0  0  0  0  0  0  0  0
  146.2149   73.6739  223.1441 H   0  0  0  0  0  0  0  0  0  0  0  0
  146.7886   72.2894  222.1536 H   0  0  0  0  0  0  0  0  0  0  0  0
  147.7049   73.8344  222.1536 H   0  0  0  0  0  0  0  0  0  0  0  0
  144.8306   73.5270  221.1476 H   0  0  0  0  0  0  0  0  0  0  0  0
  145.9155   74.9808  221.0132 H   0  0  0  0  0  0  0  0  0  0  0  0
  146.2280   74.1330  218.9940 H   0  0  0  0  0  0  0  0  0  0  0  0
  146.5791   71.3270  219.5544 H   0  0  0  0  0  0  0  0  0  0  0  0
  144.3007   70.6586  219.9154 H   0  0  0  0  0  0  0  0  0  0  0  0
  144.7160   71.8797  221.1701 H   0  0  0  0  0  0  0  0  0  0  0  0
  141.3260   77.1810  219.6754 H   0  0  0  0  0  0  0  0  0  0  0  0
  139.8288   76.1596  219.6764 H   0  0  0  0  0  0  0  0  0  0  0  0
  139.3875   78.6416  219.5633 H   0  0  0  0  0  0  0  0  0  0  0  0
  138.6233   77.8062  220.9629 H   0  0  0  0  0  0  0  0  0  0  0  0
  139.6379   80.8589  220.4567 H   0  0  0  0  0  0  0  0  0  0  0  0
  140.7979   82.3715  222.0685 H   0  0  0  0  0  0  0  0  0  0  0  0
  142.0647   81.4137  223.9935 H   0  0  0  0  0  0  0  0  0  0  0  0
  142.1794   78.9396  224.3095 H   0  0  0  0  0  0  0  0  0  0  0  0
  142.0497   76.7473  223.1597 H   0  0  0  0  0  0  0  0  0  0  0  0
  140.2465   76.7389  223.4312 H   0  0  0  0  0  0  0  0  0  0  0  0
  138.4295   71.6155  222.0360 H   0  0  0  0  0  0  0  0  0  0  0  0
  139.4130   70.0910  222.1280 H   0  0  0  0  0  0  0  0  0  0  0  0
  137.6320   71.2910  224.2950 H   0  0  0  0  0  0  0  0  0  0  0  0
  137.4113   69.7370  223.4101 H   0  0  0  0  0  0  0  0  0  0  0  0
  137.5339   68.1618  225.2207 H   0  0  0  0  0  0  0  0  0  0  0  0
  138.9363   67.0375  226.9521 H   0  0  0  0  0  0  0  0  0  0  0  0
  141.1571   67.9908  227.5733 H   0  0  0  0  0  0  0  0  0  0  0  0
  141.9739   70.0799  226.4793 H   0  0  0  0  0  0  0  0  0  0  0  0
  140.3595   72.4062  225.1658 H   0  0  0  0  0  0  0  0  0  0  0  0
  141.8020   71.5200  224.5015 H   0  0  0  0  0  0  0  0  0  0  0  0
  142.8367   71.7462  217.7997 H   0  0  0  0  0  0  0  0  0  0  0  0
  142.5223   73.5020  218.0034 H   0  0  0  0  0  0  0  0  0  0  0  0
  144.4516   72.9780  216.4496 H   0  0  0  0  0  0  0  0  0  0  0  0
  144.8998   74.0025  217.8760 H   0  0  0  0  0  0  0  0  0  0  0  0
  1  2  1  0
  2  3  1  0
  3  4  1  0
  4  5  1  0
  5  6  1  0
  6  7  1  0
  7  8  2  0
  8  9  1  0
  9 10  1  0
 10 11  1  0
 11 12  1  0
 12 13  1  0
 13 14  2  0
 14 15  1  0
 15 16  2  0
 16 17  1  0
 17 18  2  0
 18 19  1  0
  9 20  2  0
 20 21  1  0
 21 22  1  0
 22 23  1  0
 23 24  1  0
 24 25  1  0
 25 26  2  0
 26 27  1  0
 27 28  2  0
 28 29  1  0
 29 30  2  0
 30 31  1  0
 21 32  2  0
  6 33  1  0
 33 34  1  0
 34 35  1  0
 35  4  1  0
 32  7  1  0
 19 10  1  0
 31 22  1  0
 18 13  1  0
 30 25  1  0
  1 36  1  0
  1 37  1  0
  1 38  1  0
  2 39  1  0
  2 40  1  0
  3 41  1  0
  4 42  1  6
  5 43  1  0
  5 44  1  0
 11 45  1  0
 11 46  1  0
 12 47  1  0
 12 48  1  0
 14 49  1  0
 15 50  1  0
 16 51  1  0
 17 52  1  0
 19 53  1  0
 19 54  1  0
 23 55  1  0
 23 56  1  0
 24 57  1  0
 24 58  1  0
 26 59  1  0
 27 60  1  0
 28 61  1  0
 29 62  1  0
 31 63  1  0
 31 64  1  0
 33 65  1  0
 33 66  1  0
 34 67  1  0
 34 68  1  0
M  END
>  <meeko>  (1) 
{"free_energy": -10.63, "intermolecular_energy": -12.12, "internal_energy": -1.03, "cluster_size": 20, "cluster_id": 1, "rank_in_cluster": 6}

$$$$

     RDKit          3D

 68 73  0  0  0  0  0  0  0  0999 V2000
  146.4650   73.3760  221.9420 C   0  0  0  0  0  0  0  0  0  0  0  0
  145.3580   73.5140  220.8950 C   0  0  0  0  0  0  0  0  0  0  0  0
  145.8340   73.2300  219.5330 N   0  0  0  0  0  0  0  0  0  0  0  0
  145.1940   72.0490  218.9050 C   0  0  1  0  0  0  0  0  0  0  0  0
  143.9630   71.5590  219.6970 C   0  0  0  0  0  0  0  0  0  0  0  0
  142.8550   72.5040  219.5300 N   0  0  0  0  0  0  0  0  0  0  0  0
  141.9700   72.8140  220.6250 C   0  0  0  0  0  0  0  0  0  0  0  0
  141.6240   71.8500  221.5160 N   0  0  0  0  0  0  0  0  0  0  0  0
  140.8130   72.1340  222.5680 C   0  0  0  0  0  0  0  0  0  0  0  0
  140.4890   71.1100  223.5310 N   0  0  0  0  0  0  0  0  0  0  0  0
  139.2800   70.2900  223.3350 C   0  0  0  0  0  0  0  0  0  0  0  0
  139.3940   68.9410  224.0440 C   0  0  0  0  0  0  0  0  0  0  0  0
  139.7590   69.1470  225.4830 C   0  0  0  0  0  0  0  0  0  0  0  0
  139.2120   68.3310  226.4870 C   0  0  0  0  0  0  0  0  0  0  0  0
  139.5870   68.5160  227.8210 C   0  0  0  0  0  0  0  0  0  0  0  0
  140.5200   69.5010  228.1560 C   0  0  0  0  0  0  0  0  0  0  0  0
  141.0780   70.3060  227.1590 C   0  0  0  0  0  0  0  0  0  0  0  0
  140.6930   70.1420  225.8180 C   0  0  0  0  0  0  0  0  0  0  0  0
  141.3230   70.9950  224.7440 C   0  0  0  0  0  0  0  0  0  0  0  0
  140.3370   73.3980  222.7160 N   0  0  0  0  0  0  0  0  0  0  0  0
  140.6720   74.3740  221.8300 C   0  0  0  0  0  0  0  0  0  0  0  0
  140.1540   75.7100  221.9880 N   0  0  0  0  0  0  0  0  0  0  0  0
  138.7320   75.8890  222.3320 C   0  0  0  0  0  0  0  0  0  0  0  0
  138.2250   77.2910  221.9810 C   0  0  0  0  0  0  0  0  0  0  0  0
  139.1520   78.3300  222.5340 C   0  0  0  0  0  0  0  0  0  0  0  0
  138.6560   79.5290  223.0720 C   0  0  0  0  0  0  0  0  0  0  0  0
  139.5390   80.4980  223.5550 C   0  0  0  0  0  0  0  0  0  0  0  0
  140.9170   80.2830  223.4910 C   0  0  0  0  0  0  0  0  0  0  0  0
  141.4180   79.1000  222.9380 C   0  0  0  0  0  0  0  0  0  0  0  0
  140.5370   78.1130  222.4660 C   0  0  0  0  0  0  0  0  0  0  0  0
  141.0720   76.8550  221.8300 C   0  0  0  0  0  0  0  0  0  0  0  0
  141.4950   74.0760  220.7910 N   0  0  0  0  0  0  0  0  0  0  0  0
  142.5610   72.9420  218.1630 C   0  0  0  0  0  0  0  0  0  0  0  0
  143.8640   73.3510  217.4690 C   0  0  0  0  0  0  0  0  0  0  0  0
  144.8450   72.3300  217.5560 O   0  0  0  0  0  0  0  0  0  0  0  0
  146.0260   73.4307  222.9491 H   0  0  0  0  0  0  0  0  0  0  0  0
  146.9713   72.4078  221.8148 H   0  0  0  0  0  0  0  0  0  0  0  0
  147.1935   74.1903  221.8148 H   0  0  0  0  0  0  0  0  0  0  0  0
  144.5500   72.8092  221.1407 H   0  0  0  0  0  0  0  0  0  0  0  0
  145.0055   74.5558  220.9159 H   0  0  0  0  0  0  0  0  0  0  0  0
  145.7410   74.0860  218.9380 H   0  0  0  0  0  0  0  0  0  0  0  0
  145.9314   71.2329  218.9200 H   0  0  0  0  0  0  0  0  0  0  0  0
  143.6587   70.5701  219.3234 H   0  0  0  0  0  0  0  0  0  0  0  0
  144.2224   71.4893  220.7637 H   0  0  0  0  0  0  0  0  0  0  0  0
  138.4117   70.8324  223.7373 H   0  0  0  0  0  0  0  0  0  0  0  0
  139.1619   70.1034  222.2574 H   0  0  0  0  0  0  0  0  0  0  0  0
  138.4294   68.4156  223.9846 H   0  0  0  0  0  0  0  0  0  0  0  0
  140.1763   68.3415  223.5555 H   0  0  0  0  0  0  0  0  0  0  0  0
  138.4881   67.5459  226.2234 H   0  0  0  0  0  0  0  0  0  0  0  0
  139.1472   67.8855  228.6078 H   0  0  0  0  0  0  0  0  0  0  0  0
  140.8157   69.6430  229.2060 H   0  0  0  0  0  0  0  0  0  0  0  0
  141.8219   71.0713  227.4255 H   0  0  0  0  0  0  0  0  0  0  0  0
  141.4898   72.0033  225.1509 H   0  0  0  0  0  0  0  0  0  0  0  0
  142.2645   70.5084  224.4494 H   0  0  0  0  0  0  0  0  0  0  0  0
  138.1373   75.1480  221.7778 H   0  0  0  0  0  0  0  0  0  0  0  0
  138.6273   75.7538  223.4186 H   0  0  0  0  0  0  0  0  0  0  0  0
  138.1733   77.3954  220.8872 H   0  0  0  0  0  0  0  0  0  0  0  0
  137.2260   77.4315  222.4194 H   0  0  0  0  0  0  0  0  0  0  0  0
  137.5710   79.7052  223.1131 H   0  0  0  0  0  0  0  0  0  0  0  0
  139.1481   81.4314  223.9862 H   0  0  0  0  0  0  0  0  0  0  0  0
  141.6100   81.0454  223.8762 H   0  0  0  0  0  0  0  0  0  0  0  0
  142.5046   78.9421  222.8726 H   0  0  0  0  0  0  0  0  0  0  0  0
  141.2250   77.0395  220.7564 H   0  0  0  0  0  0  0  0  0  0  0  0
  142.0160   76.5999  222.3338 H   0  0  0  0  0  0  0  0  0  0  0  0
  142.0917   72.1175  217.6063 H   0  0  0  0  0  0  0  0  0  0  0  0
  141.8745   73.8010  218.1918 H   0  0  0  0  0  0  0  0  0  0  0  0
  143.6547   73.5554  216.4086 H   0  0  0  0  0  0  0  0  0  0  0  0
  144.2550   74.2475  217.9723 H   0  0  0  0  0  0  0  0  0  0  0  0
  1  2  1  0
  2  3  1  0
  3  4  1  0
  4  5  1  0
  5  6  1  0
  6  7  1  0
  7  8  2  0
  8  9  1  0
  9 10  1  0
 10 11  1  0
 11 12  1  0
 12 13  1  0
 13 14  2  0
 14 15  1  0
 15 16  2  0
 16 17  1  0
 17 18  2  0
 18 19  1  0
  9 20  2  0
 20 21  1  0
 21 22  1  0
 22 23  1  0
 23 24  1  0
 24 25  1  0
 25 26  2  0
 26 27  1  0
 27 28  2  0
 28 29  1  0
 29 30  2  0
 30 31  1  0
 21 32  2  0
  6 33  1  0
 33 34  1  0
 34 35  1  0
 35  4  1  0
 32  7  1  0
 19 10  1  0
 31 22  1  0
 18 13  1  0
 30 25  1  0
  1 36  1  0
  1 37  1  0
  1 38  1  0
  2 39  1  0
  2 40  1  0
  3 41  1  0
  4 42  1  6
  5 43  1  0
  5 44  1  0
 11 45  1  0
 11 46  1  0
 12 47  1  0
 12 48  1  0
 14 49  1  0
 15 50  1  0
 16 51  1  0
 17 52  1  0
 19 53  1  0
 19 54  1  0
 23 55  1  0
 23 56  1  0
 24 57  1  0
 24 58  1  0
 26 59  1  0
 27 60  1  0
 28 61  1  0
 29 62  1  0
 31 63  1  0
 31 64  1  0
 33 65  1  0
 33 66  1  0
 34 67  1  0
 34 68  1  0
M  END
>  <meeko>  (2) 
{"free_energy": -10.12, "intermolecular_energy": -11.61, "internal_energy": -1.02, "cluster_size": 20, "cluster_id": 1, "rank_in_cluster": 14}

$$$$

     RDKit          3D

 68 73  0  0  0  0  0  0  0  0999 V2000
  146.7020   73.3910  222.2000 C   0  0  0  0  0  0  0  0  0  0  0  0
  145.8900   73.8430  220.9850 C   0  0  0  0  0  0  0  0  0  0  0  0
  146.4440   73.3380  219.7190 N   0  0  0  0  0  0  0  0  0  0  0  0
  145.7860   72.1050  219.2230 C   0  0  1  0  0  0  0  0  0  0  0  0
  144.4660   71.8060  219.9640 C   0  0  0  0  0  0  0  0  0  0  0  0
  143.4360   72.7640  219.5520 N   0  0  0  0  0  0  0  0  0  0  0  0
  142.4840   73.2850  220.5010 C   0  0  0  0  0  0  0  0  0  0  0  0
  142.2640   74.6220  220.5830 N   0  0  0  0  0  0  0  0  0  0  0  0
  141.3500   75.1250  221.4530 C   0  0  0  0  0  0  0  0  0  0  0  0
  141.0960   76.5450  221.4970 N   0  0  0  0  0  0  0  0  0  0  0  0
  140.9800   77.2980  220.2360 C   0  0  0  0  0  0  0  0  0  0  0  0
  140.1590   78.5740  220.4160 C   0  0  0  0  0  0  0  0  0  0  0  0
  140.7060   79.3800  221.5540 C   0  0  0  0  0  0  0  0  0  0  0  0
  140.7400   80.7840  221.4900 C   0  0  0  0  0  0  0  0  0  0  0  0
  141.2240   81.5220  222.5730 C   0  0  0  0  0  0  0  0  0  0  0  0
  141.6590   80.8680  223.7290 C   0  0  0  0  0  0  0  0  0  0  0  0
  141.6130   79.4720  223.8030 C   0  0  0  0  0  0  0  0  0  0  0  0
  141.1480   78.7200  222.7130 C   0  0  0  0  0  0  0  0  0  0  0  0
  141.0740   77.2160  222.8130 C   0  0  0  0  0  0  0  0  0  0  0  0
  140.6600   74.2740  222.2570 N   0  0  0  0  0  0  0  0  0  0  0  0
  140.8720   72.9320  222.1900 C   0  0  0  0  0  0  0  0  0  0  0  0
  140.1440   72.0360  223.0530 N   0  0  0  0  0  0  0  0  0  0  0  0
  138.8870   71.4400  222.5650 C   0  0  0  0  0  0  0  0  0  0  0  0
  138.0020   70.9430  223.7130 C   0  0  0  0  0  0  0  0  0  0  0  0
  138.7970   70.0830  224.6460 C   0  0  0  0  0  0  0  0  0  0  0  0
  138.2330   68.9400  225.2350 C   0  0  0  0  0  0  0  0  0  0  0  0
  138.9840   68.1680  226.1260 C   0  0  0  0  0  0  0  0  0  0  0  0
  140.2910   68.5400  226.4450 C   0  0  0  0  0  0  0  0  0  0  0  0
  140.8520   69.6890  225.8760 C   0  0  0  0  0  0  0  0  0  0  0  0
  140.1110   70.4600  224.9670 C   0  0  0  0  0  0  0  0  0  0  0  0
  140.6950   71.7230  224.3850 C   0  0  0  0  0  0  0  0  0  0  0  0
  141.7800   72.4450  221.3040 N   0  0  0  0  0  0  0  0  0  0  0  0
  143.2850   72.9950  218.1140 C   0  0  0  0  0  0  0  0  0  0  0  0
  144.6640   73.2260  217.4880 C   0  0  0  0  0  0  0  0  0  0  0  0
  145.5700   72.1860  217.8200 O   0  0  0  0  0  0  0  0  0  0  0  0
  146.1769   73.6833  223.1213 H   0  0  0  0  0  0  0  0  0  0  0  0
  146.8197   72.2976  222.1762 H   0  0  0  0  0  0  0  0  0  0  0  0
  147.6934   73.8671  222.1762 H   0  0  0  0  0  0  0  0  0  0  0  0
  144.8595   73.4733  221.0918 H   0  0  0  0  0  0  0  0  0  0  0  0
  145.9232   74.9420  220.9502 H   0  0  0  0  0  0  0  0  0  0  0  0
  146.4380   74.0990  219.0000 H   0  0  0  0  0  0  0  0  0  0  0  0
  146.4667   71.2662  219.4308 H   0  0  0  0  0  0  0  0  0  0  0  0
  144.1339   70.7859  219.7208 H   0  0  0  0  0  0  0  0  0  0  0  0
  144.6306   71.8942  221.0480 H   0  0  0  0  0  0  0  0  0  0  0  0
  141.9878   77.5682  219.8876 H   0  0  0  0  0  0  0  0  0  0  0  0
  140.4677   76.6603  219.5005 H   0  0  0  0  0  0  0  0  0  0  0  0
  140.2051   79.1699  219.4925 H   0  0  0  0  0  0  0  0  0  0  0  0
  139.1154   78.3036  220.6344 H   0  0  0  0  0  0  0  0  0  0  0  0
  140.3853   81.3018  220.5866 H   0  0  0  0  0  0  0  0  0  0  0  0
  141.2628   82.6198  222.5158 H   0  0  0  0  0  0  0  0  0  0  0  0
  142.0377   81.4514  224.5811 H   0  0  0  0  0  0  0  0  0  0  0  0
  141.9428   78.9612  224.7197 H   0  0  0  0  0  0  0  0  0  0  0  0
  141.9336   76.8617  223.4008 H   0  0  0  0  0  0  0  0  0  0  0  0
  140.1158   76.9663  223.2921 H   0  0  0  0  0  0  0  0  0  0  0  0
  138.3331   72.1989  221.9929 H   0  0  0  0  0  0  0  0  0  0  0  0
  139.1437   70.5751  221.9357 H   0  0  0  0  0  0  0  0  0  0  0  0
  137.6047   71.8072  224.2655 H   0  0  0  0  0  0  0  0  0  0  0  0
  137.1745   70.3499  223.2965 H   0  0  0  0  0  0  0  0  0  0  0  0
  137.1989   68.6517  224.9950 H   0  0  0  0  0  0  0  0  0  0  0  0
  138.5443   67.2659  226.5765 H   0  0  0  0  0  0  0  0  0  0  0  0
  140.8808   67.9293  227.1445 H   0  0  0  0  0  0  0  0  0  0  0  0
  141.8765   69.9886  226.1419 H   0  0  0  0  0  0  0  0  0  0  0  0
  140.4743   72.5598  225.0640 H   0  0  0  0  0  0  0  0  0  0  0  0
  141.7785   71.5703  224.2721 H   0  0  0  0  0  0  0  0  0  0  0  0
  142.8133   72.1169  217.6488 H   0  0  0  0  0  0  0  0  0  0  0  0
  142.6535   73.8803  217.9485 H   0  0  0  0  0  0  0  0  0  0  0  0
  144.5565   73.2699  216.3942 H   0  0  0  0  0  0  0  0  0  0  0  0
  145.0663   74.1710  217.8819 H   0  0  0  0  0  0  0  0  0  0  0  0
  1  2  1  0
  2  3  1  0
  3  4  1  0
  4  5  1  0
  5  6  1  0
  6  7  1  0
  7  8  2  0
  8  9  1  0
  9 10  1  0
 10 11  1  0
 11 12  1  0
 12 13  1  0
 13 14  2  0
 14 15  1  0
 15 16  2  0
 16 17  1  0
 17 18  2  0
 18 19  1  0
  9 20  2  0
 20 21  1  0
 21 22  1  0
 22 23  1  0
 23 24  1  0
 24 25  1  0
 25 26  2  0
 26 27  1  0
 27 28  2  0
 28 29  1  0
 29 30  2  0
 30 31  1  0
 21 32  2  0
  6 33  1  0
 33 34  1  0
 34 35  1  0
 35  4  1  0
 32  7  1  0
 19 10  1  0
 31 22  1  0
 18 13  1  0
 30 25  1  0
  1 36  1  0
  1 37  1  0
  1 38  1  0
  2 39  1  0
  2 40  1  0
  3 41  1  0
  4 42  1  6
  5 43  1  0
  5 44  1  0
 11 45  1  0
 11 46  1  0
 12 47  1  0
 12 48  1  0
 14 49  1  0
 15 50  1  0
 16 51  1  0
 17 52  1  0
 19 53  1  0
 19 54  1  0
 23 55  1  0
 23 56  1  0
 24 57  1  0
 24 58  1  0
 26 59  1  0
 27 60  1  0
 28 61  1  0
 29 62  1  0
 31 63  1  0
 31 64  1  0
 33 65  1  0
 33 66  1  0
 34 67  1  0
 34 68  1  0
M  END
>  <meeko>  (3) 
{"free_energy": -10.61, "intermolecular_energy": -12.1, "internal_energy": -1.03, "cluster_size": 20, "cluster_id": 1, "rank_in_cluster": 7}

$$$$

     RDKit          3D

 68 73  0  0  0  0  0  0  0  0999 V2000
  146.4230   73.3880  221.9560 C   0  0  0  0  0  0  0  0  0  0  0  0
  145.3520   73.6480  220.8950 C   0  0  0  0  0  0  0  0  0  0  0  0
  145.8240   73.3460  219.5350 N   0  0  0  0  0  0  0  0  0  0  0  0
  145.2320   72.1190  218.9500 C   0  0  1  0  0  0  0  0  0  0  0  0
  144.0210   71.6090  219.7610 C   0  0  0  0  0  0  0  0  0  0  0  0
  142.8760   72.5010  219.5610 N   0  0  0  0  0  0  0  0  0  0  0  0
  141.9790   72.8140  220.6450 C   0  0  0  0  0  0  0  0  0  0  0  0
  141.6250   71.8540  221.5370 N   0  0  0  0  0  0  0  0  0  0  0  0
  140.8020   72.1410  222.5780 C   0  0  0  0  0  0  0  0  0  0  0  0
  140.4690   71.1200  223.5420 N   0  0  0  0  0  0  0  0  0  0  0  0
  139.2370   70.3310  223.3640 C   0  0  0  0  0  0  0  0  0  0  0  0
  139.3300   68.9760  224.0640 C   0  0  0  0  0  0  0  0  0  0  0  0
  139.7250   69.1660  225.4970 C   0  0  0  0  0  0  0  0  0  0  0  0
  139.1750   68.3580  226.5070 C   0  0  0  0  0  0  0  0  0  0  0  0
  139.5790   68.5270  227.8350 C   0  0  0  0  0  0  0  0  0  0  0  0
  140.5410   69.4860  228.1590 C   0  0  0  0  0  0  0  0  0  0  0  0
  141.1020   70.2830  227.1550 C   0  0  0  0  0  0  0  0  0  0  0  0
  140.6890   70.1360  225.8210 C   0  0  0  0  0  0  0  0  0  0  0  0
  141.3220   70.9780  224.7400 C   0  0  0  0  0  0  0  0  0  0  0  0
  140.3220   73.4050  222.7170 N   0  0  0  0  0  0  0  0  0  0  0  0
  140.6650   74.3780  221.8300 C   0  0  0  0  0  0  0  0  0  0  0  0
  140.1440   75.7130  221.9770 N   0  0  0  0  0  0  0  0  0  0  0  0
  138.7210   75.8910  222.3180 C   0  0  0  0  0  0  0  0  0  0  0  0
  138.2110   77.2890  221.9540 C   0  0  0  0  0  0  0  0  0  0  0  0
  139.1340   78.3340  222.5010 C   0  0  0  0  0  0  0  0  0  0  0  0
  138.6340   79.5360  223.0290 C   0  0  0  0  0  0  0  0  0  0  0  0
  139.5140   80.5110  223.5070 C   0  0  0  0  0  0  0  0  0  0  0  0
  140.8930   80.3000  223.4460 C   0  0  0  0  0  0  0  0  0  0  0  0
  141.3970   79.1130  222.9030 C   0  0  0  0  0  0  0  0  0  0  0  0
  140.5200   78.1210  222.4370 C   0  0  0  0  0  0  0  0  0  0  0  0
  141.0590   76.8590  221.8110 C   0  0  0  0  0  0  0  0  0  0  0  0
  141.5000   74.0760  220.8010 N   0  0  0  0  0  0  0  0  0  0  0  0
  142.5650   72.8780  218.1800 C   0  0  0  0  0  0  0  0  0  0  0  0
  143.8510   73.3140  217.4700 C   0  0  0  0  0  0  0  0  0  0  0  0
  144.8730   72.3370  217.5920 O   0  0  0  0  0  0  0  0  0  0  0  0
  145.9807   73.4954  222.9574 H   0  0  0  0  0  0  0  0  0  0  0  0
  146.8173   72.3680  221.8367 H   0  0  0  0  0  0  0  0  0  0  0  0
  147.2411   74.1136  221.8367 H   0  0  0  0  0  0  0  0  0  0  0  0
  144.4779   73.0171  221.1136 H   0  0  0  0  0  0  0  0  0  0  0  0
  145.0970   74.7174  220.9314 H   0  0  0  0  0  0  0  0  0  0  0  0
  145.6820   74.1790  218.9170 H   0  0  0  0  0  0  0  0  0  0  0  0
  146.0013   71.3339  218.9929 H   0  0  0  0  0  0  0  0  0  0  0  0
  143.7571   70.5956  219.4243 H   0  0  0  0  0  0  0  0  0  0  0  0
  144.2827   71.5893  220.8292 H   0  0  0  0  0  0  0  0  0  0  0  0
  138.3897   70.8925  223.7845 H   0  0  0  0  0  0  0  0  0  0  0  0
  139.0953   70.1530  222.2878 H   0  0  0  0  0  0  0  0  0  0  0  0
  138.3519   68.4748  224.0190 H   0  0  0  0  0  0  0  0  0  0  0  0
  140.0883   68.3597  223.5589 H   0  0  0  0  0  0  0  0  0  0  0  0
  138.4268   67.5928  226.2528 H   0  0  0  0  0  0  0  0  0  0  0  0
  139.1380   67.9031  228.6263 H   0  0  0  0  0  0  0  0  0  0  0  0
  140.8580   69.6150  229.2044 H   0  0  0  0  0  0  0  0  0  0  0  0
  141.8697   71.0278  227.4118 H   0  0  0  0  0  0  0  0  0  0  0  0
  141.5217   71.9797  225.1483 H   0  0  0  0  0  0  0  0  0  0  0  0
  142.2456   70.4694  224.4266 H   0  0  0  0  0  0  0  0  0  0  0  0
  138.1288   75.1436  221.7696 H   0  0  0  0  0  0  0  0  0  0  0  0
  138.6152   75.7647  223.4056 H   0  0  0  0  0  0  0  0  0  0  0  0
  138.1619   77.3844  220.8592 H   0  0  0  0  0  0  0  0  0  0  0  0
  137.2103   77.4307  222.3881 H   0  0  0  0  0  0  0  0  0  0  0  0
  137.5485   79.7101  223.0663 H   0  0  0  0  0  0  0  0  0  0  0  0
  139.1197   81.4459  223.9319 H   0  0  0  0  0  0  0  0  0  0  0  0
  141.5837   81.0676  223.8251 H   0  0  0  0  0  0  0  0  0  0  0  0
  142.4841   78.9567  222.8411 H   0  0  0  0  0  0  0  0  0  0  0  0
  141.2125   77.0356  220.7362 H   0  0  0  0  0  0  0  0  0  0  0  0
  142.0031   76.6103  222.3177 H   0  0  0  0  0  0  0  0  0  0  0  0
  142.1291   72.0161  217.6535 H   0  0  0  0  0  0  0  0  0  0  0  0
  141.8447   73.7093  218.1792 H   0  0  0  0  0  0  0  0  0  0  0  0
  143.6337   73.4718  216.4033 H   0  0  0  0  0  0  0  0  0  0  0  0
  144.2055   74.2428  217.9408 H   0  0  0  0  0  0  0  0  0  0  0  0
  1  2  1  0
  2  3  1  0
  3  4  1  0
  4  5  1  0
  5  6  1  0
  6  7  1  0
  7  8  2  0
  8  9  1  0
  9 10  1  0
 10 11  1  0
 11 12  1  0
 12 13  1  0
 13 14  2  0
 14 15  1  0
 15 16  2  0
 16 17  1  0
 17 18  2  0
 18 19  1  0
  9 20  2  0
 20 21  1  0
 21 22  1  0
 22 23  1  0
 23 24  1  0
 24 25  1  0
 25 26  2  0
 26 27  1  0
 27 28  2  0
 28 29  1  0
 29 30  2  0
 30 31  1  0
 21 32  2  0
  6 33  1  0
 33 34  1  0
 34 35  1  0
 35  4  1  0
 32  7  1  0
 19 10  1  0
 31 22  1  0
 18 13  1  0
 30 25  1  0
  1 36  1  0
  1 37  1  0
  1 38  1  0
  2 39  1  0
  2 40  1  0
  3 41  1  0
  4 42  1  6
  5 43  1  0
  5 44  1  0
 11 45  1  0
 11 46  1  0
 12 47  1  0
 12 48  1  0
 14 49  1  0
 15 50  1  0
 16 51  1  0
 17 52  1  0
 19 53  1  0
 19 54  1  0
 23 55  1  0
 23 56  1  0
 24 57  1  0
 24 58  1  0
 26 59  1  0
 27 60  1  0
 28 61  1  0
 29 62  1  0
 31 63  1  0
 31 64  1  0
 33 65  1  0
 33 66  1  0
 34 67  1  0
 34 68  1  0
M  END
>  <meeko>  (4) 
{"free_energy": -10.1, "intermolecular_energy": -11.59, "internal_energy": -1.03, "cluster_size": 20, "cluster_id": 1, "rank_in_cluster": 15}

$$$$

     RDKit          3D

 68 73  0  0  0  0  0  0  0  0999 V2000
  146.6870   73.3920  222.3080 C   0  0  0  0  0  0  0  0  0  0  0  0
  145.7660   73.6980  221.1250 C   0  0  0  0  0  0  0  0  0  0  0  0
  146.3560   73.3020  219.8370 N   0  0  0  0  0  0  0  0  0  0  0  0
  145.7000   72.1290  219.2090 C   0  0  1  0  0  0  0  0  0  0  0  0
  144.3610   71.7740  219.8880 C   0  0  0  0  0  0  0  0  0  0  0  0
  143.3490   72.7780  219.5480 N   0  0  0  0  0  0  0  0  0  0  0  0
  142.3790   73.2150  220.5210 C   0  0  0  0  0  0  0  0  0  0  0  0
  142.0430   74.5270  220.6090 N   0  0  0  0  0  0  0  0  0  0  0  0
  141.1110   74.9490  221.5020 C   0  0  0  0  0  0  0  0  0  0  0  0
  140.7340   76.3410  221.5530 N   0  0  0  0  0  0  0  0  0  0  0  0
  140.1330   76.9700  220.3630 C   0  0  0  0  0  0  0  0  0  0  0  0
  139.2820   78.1830  220.7380 C   0  0  0  0  0  0  0  0  0  0  0  0
  140.0790   79.1270  221.5860 C   0  0  0  0  0  0  0  0  0  0  0  0
  139.9380   80.5180  221.4400 C   0  0  0  0  0  0  0  0  0  0  0  0
  140.6650   81.3840  222.2600 C   0  0  0  0  0  0  0  0  0  0  0  0
  141.5200   80.8710  223.2390 C   0  0  0  0  0  0  0  0  0  0  0  0
  141.6520   79.4880  223.3980 C   0  0  0  0  0  0  0  0  0  0  0  0
  140.9420   78.6080  222.5650 C   0  0  0  0  0  0  0  0  0  0  0  0
  141.0680   77.1170  222.7640 C   0  0  0  0  0  0  0  0  0  0  0  0
  140.5210   74.0420  222.3240 N   0  0  0  0  0  0  0  0  0  0  0  0
  140.8490   72.7240  222.2520 C   0  0  0  0  0  0  0  0  0  0  0  0
  140.2260   71.7690  223.1330 N   0  0  0  0  0  0  0  0  0  0  0  0
  139.2460   70.8180  222.5780 C   0  0  0  0  0  0  0  0  0  0  0  0
  138.3310   70.2360  223.6600 C   0  0  0  0  0  0  0  0  0  0  0  0
  139.1460   69.7190  224.8050 C   0  0  0  0  0  0  0  0  0  0  0  0
  138.7840   68.5390  225.4760 C   0  0  0  0  0  0  0  0  0  0  0  0
  139.5420   68.0890  226.5610 C   0  0  0  0  0  0  0  0  0  0  0  0
  140.6520   68.8200  226.9900 C   0  0  0  0  0  0  0  0  0  0  0  0
  141.0050   70.0060  226.3380 C   0  0  0  0  0  0  0  0  0  0  0  0
  140.2600   70.4560  225.2370 C   0  0  0  0  0  0  0  0  0  0  0  0
  140.6110   71.7560  224.5580 C   0  0  0  0  0  0  0  0  0  0  0  0
  141.7740   72.3170  221.3420 N   0  0  0  0  0  0  0  0  0  0  0  0
  143.2330   73.1480  218.1360 C   0  0  0  0  0  0  0  0  0  0  0  0
  144.6280   73.4240  217.5670 C   0  0  0  0  0  0  0  0  0  0  0  0
  145.5180   72.3480  217.8160 O   0  0  0  0  0  0  0  0  0  0  0  0
  146.1468   73.5715  223.2493 H   0  0  0  0  0  0  0  0  0  0  0  0
  147.0050   72.3399  222.2626 H   0  0  0  0  0  0  0  0  0  0  0  0
  147.5713   74.0446  222.2626 H   0  0  0  0  0  0  0  0  0  0  0  0
  144.8208   73.1525  221.2630 H   0  0  0  0  0  0  0  0  0  0  0  0
  145.6040   74.7857  221.0991 H   0  0  0  0  0  0  0  0  0  0  0  0
  146.3840   74.1250  219.1910 H   0  0  0  0  0  0  0  0  0  0  0  0
  146.3682   71.2666  219.3493 H   0  0  0  0  0  0  0  0  0  0  0  0
  144.0260   70.7858  219.5399 H   0  0  0  0  0  0  0  0  0  0  0  0
  144.5013   71.7555  220.9789 H   0  0  0  0  0  0  0  0  0  0  0  0
  140.9370   77.2935  219.6856 H   0  0  0  0  0  0  0  0  0  0  0  0
  139.4819   76.2303  219.8742 H   0  0  0  0  0  0  0  0  0  0  0  0
  138.9606   78.6996  219.8216 H   0  0  0  0  0  0  0  0  0  0  0  0
  138.4018   77.8448  221.3044 H   0  0  0  0  0  0  0  0  0  0  0  0
  139.2549   80.9246  220.6797 H   0  0  0  0  0  0  0  0  0  0  0  0
  140.5643   82.4722  222.1348 H   0  0  0  0  0  0  0  0  0  0  0  0
  142.0895   81.5554  223.8849 H   0  0  0  0  0  0  0  0  0  0  0  0
  142.3149   79.0875  224.1791 H   0  0  0  0  0  0  0  0  0  0  0  0
  142.1049   76.8885  223.0514 H   0  0  0  0  0  0  0  0  0  0  0  0
  140.3508   76.8287  223.5466 H   0  0  0  0  0  0  0  0  0  0  0  0
  138.6272   71.3404  221.8336 H   0  0  0  0  0  0  0  0  0  0  0  0
  139.8024   69.9861  222.1216 H   0  0  0  0  0  0  0  0  0  0  0  0
  137.6524   71.0219  224.0230 H   0  0  0  0  0  0  0  0  0  0  0  0
  137.7502   69.4066  223.2302 H   0  0  0  0  0  0  0  0  0  0  0  0
  137.9029   67.9684  225.1472 H   0  0  0  0  0  0  0  0  0  0  0  0
  139.2640   67.1583  227.0773 H   0  0  0  0  0  0  0  0  0  0  0  0
  141.2494   68.4626  227.8417 H   0  0  0  0  0  0  0  0  0  0  0  0
  141.8697   70.5881  226.6894 H   0  0  0  0  0  0  0  0  0  0  0  0
  140.0881   72.5756  225.0726 H   0  0  0  0  0  0  0  0  0  0  0  0
  141.7029   71.8778  224.6113 H   0  0  0  0  0  0  0  0  0  0  0  0
  142.7653   72.3237  217.5777 H   0  0  0  0  0  0  0  0  0  0  0  0
  142.6123   74.0513  218.0423 H   0  0  0  0  0  0  0  0  0  0  0  0
  144.5464   73.5751  216.4805 H   0  0  0  0  0  0  0  0  0  0  0  0
  145.0285   74.3217  218.0607 H   0  0  0  0  0  0  0  0  0  0  0  0
  1  2  1  0
  2  3  1  0
  3  4  1  0
  4  5  1  0
  5  6  1  0
  6  7  1  0
  7  8  2  0
  8  9  1  0
  9 10  1  0
 10 11  1  0
 11 12  1  0
 12 13  1  0
 13 14  2  0
 14 15  1  0
 15 16  2  0
 16 17  1  0
 17 18  2  0
 18 19  1  0
  9 20  2  0
 20 21  1  0
 21 22  1  0
 22 23  1  0
 23 24  1  0
 24 25  1  0
 25 26  2  0
 26 27  1  0
 27 28  2  0
 28 29  1  0
 29 30  2  0
 30 31  1  0
 21 32  2  0
  6 33  1  0
 33 34  1  0
 34 35  1  0
 35  4  1  0
 32  7  1  0
 19 10  1  0
 31 22  1  0
 18 13  1  0
 30 25  1  0
  1 36  1  0
  1 37  1  0
  1 38  1  0
  2 39  1  0
  2 40  1  0
  3 41  1  0
  4 42  1  6
  5 43  1  0
  5 44  1  0
 11 45  1  0
 11 46  1  0
 12 47  1  0
 12 48  1  0
 14 49  1  0
 15 50  1  0
 16 51  1  0
 17 52  1  0
 19 53  1  0
 19 54  1  0
 23 55  1  0
 23 56  1  0
 24 57  1  0
 24 58  1  0
 26 59  1  0
 27 60  1  0
 28 61  1  0
 29 62  1  0
 31 63  1  0
 31 64  1  0
 33 65  1  0
 33 66  1  0
 34 67  1  0
 34 68  1  0
M  END
>  <meeko>  (5) 
{"free_energy": -10.66, "intermolecular_energy": -12.15, "internal_energy": -1.02, "cluster_size": 20, "cluster_id": 1, "rank_in_cluster": 3}

$$$$

     RDKit          3D

 68 73  0  0  0  0  0  0  0  0999 V2000
  145.2750   74.5010  220.8470 C   0  0  0  0  0  0  0  0  0  0  0  0
  146.0680   73.2180  220.5960 C   0  0  0  0  0  0  0  0  0  0  0  0
  146.2420   72.9350  219.1630 N   0  0  0  0  0  0  0  0  0  0  0  0
  145.4740   71.7610  218.6830 C   0  0  1  0  0  0  0  0  0  0  0  0
  144.1940   71.5190  219.5100 C   0  0  0  0  0  0  0  0  0  0  0  0
  143.2000   72.5510  219.2020 N   0  0  0  0  0  0  0  0  0  0  0  0
  142.3530   73.0980  220.2320 C   0  0  0  0  0  0  0  0  0  0  0  0
  142.2010   74.4420  220.3490 N   0  0  0  0  0  0  0  0  0  0  0  0
  141.3860   74.9710  221.2970 C   0  0  0  0  0  0  0  0  0  0  0  0
  141.2020   76.4000  221.3800 N   0  0  0  0  0  0  0  0  0  0  0  0
  141.2660   77.2090  220.1500 C   0  0  0  0  0  0  0  0  0  0  0  0
  140.4960   78.5210  220.2980 C   0  0  0  0  0  0  0  0  0  0  0  0
  140.9530   79.2480  221.5260 C   0  0  0  0  0  0  0  0  0  0  0  0
  141.0660   80.6490  221.5320 C   0  0  0  0  0  0  0  0  0  0  0  0
  141.4640   81.3140  222.6950 C   0  0  0  0  0  0  0  0  0  0  0  0
  141.7330   80.5900  223.8590 C   0  0  0  0  0  0  0  0  0  0  0  0
  141.6080   79.1970  223.8630 C   0  0  0  0  0  0  0  0  0  0  0  0
  141.2300   78.5170  222.6940 C   0  0  0  0  0  0  0  0  0  0  0  0
  141.0670   77.0170  222.7150 C   0  0  0  0  0  0  0  0  0  0  0  0
  140.7250   74.1390  222.1440 N   0  0  0  0  0  0  0  0  0  0  0  0
  140.8690   72.7900  222.0430 C   0  0  0  0  0  0  0  0  0  0  0  0
  140.1730   71.9140  222.9510 N   0  0  0  0  0  0  0  0  0  0  0  0
  139.0710   71.0810  222.4370 C   0  0  0  0  0  0  0  0  0  0  0  0
  138.1350   70.6090  223.5540 C   0  0  0  0  0  0  0  0  0  0  0  0
  138.9270   70.0020  224.6710 C   0  0  0  0  0  0  0  0  0  0  0  0
  138.4560   68.8730  225.3600 C   0  0  0  0  0  0  0  0  0  0  0  0
  139.1970   68.3390  226.4190 C   0  0  0  0  0  0  0  0  0  0  0  0
  140.3980   68.9380  226.8050 C   0  0  0  0  0  0  0  0  0  0  0  0
  140.8610   70.0750  226.1340 C   0  0  0  0  0  0  0  0  0  0  0  0
  140.1330   70.6070  225.0580 C   0  0  0  0  0  0  0  0  0  0  0  0
  140.6060   71.8580  224.3610 C   0  0  0  0  0  0  0  0  0  0  0  0
  141.6790   72.2770  221.0790 N   0  0  0  0  0  0  0  0  0  0  0  0
  142.9600   72.8360  217.7850 C   0  0  0  0  0  0  0  0  0  0  0  0
  144.3030   73.0020  217.0670 C   0  0  0  0  0  0  0  0  0  0  0  0
  145.1630   71.8990  217.3030 O   0  0  0  0  0  0  0  0  0  0  0  0
  145.1743   74.6638  221.9302 H   0  0  0  0  0  0  0  0  0  0  0  0
  145.8041   75.3533  220.3957 H   0  0  0  0  0  0  0  0  0  0  0  0
  144.2761   74.4089  220.3957 H   0  0  0  0  0  0  0  0  0  0  0  0
  147.0608   73.3206  221.0585 H   0  0  0  0  0  0  0  0  0  0  0  0
  145.5017   72.3835  221.0353 H   0  0  0  0  0  0  0  0  0  0  0  0
  146.0300   73.7940  218.6030 H   0  0  0  0  0  0  0  0  0  0  0  0
  146.1146   70.8769  218.8173 H   0  0  0  0  0  0  0  0  0  0  0  0
  143.7815   70.5297  219.2629 H   0  0  0  0  0  0  0  0  0  0  0  0
  144.4408   71.5614  220.5811 H   0  0  0  0  0  0  0  0  0  0  0  0
  142.3189   77.4364  219.9268 H   0  0  0  0  0  0  0  0  0  0  0  0
  140.8071   76.6312  219.3342 H   0  0  0  0  0  0  0  0  0  0  0  0
  140.6757   79.1505  219.4140 H   0  0  0  0  0  0  0  0  0  0  0  0
  139.4219   78.3011  220.3874 H   0  0  0  0  0  0  0  0  0  0  0  0
  140.8410   81.2224  220.6207 H   0  0  0  0  0  0  0  0  0  0  0  0
  141.5656   82.4093  222.6938 H   0  0  0  0  0  0  0  0  0  0  0  0
  142.0436   81.1162  224.7737 H   0  0  0  0  0  0  0  0  0  0  0  0
  141.8066   78.6318  224.7856 H   0  0  0  0  0  0  0  0  0  0  0  0
  141.8353   76.5908  223.3768 H   0  0  0  0  0  0  0  0  0  0  0  0
  140.0493   76.8030  223.0734 H   0  0  0  0  0  0  0  0  0  0  0  0
  138.4895   71.6700  221.7124 H   0  0  0  0  0  0  0  0  0  0  0  0
  139.5117   70.1901  221.9657 H   0  0  0  0  0  0  0  0  0  0  0  0
  137.5652   71.4681  223.9377 H   0  0  0  0  0  0  0  0  0  0  0  0
  137.4468   69.8521  223.1496 H   0  0  0  0  0  0  0  0  0  0  0  0
  137.5032   68.4081  225.0666 H   0  0  0  0  0  0  0  0  0  0  0  0
  138.8334   67.4461  226.9486 H   0  0  0  0  0  0  0  0  0  0  0  0
  140.9803   68.5156  227.6371 H   0  0  0  0  0  0  0  0  0  0  0  0
  141.7992   70.5540  226.4508 H   0  0  0  0  0  0  0  0  0  0  0  0
  140.1998   72.7325  224.8904 H   0  0  0  0  0  0  0  0  0  0  0  0
  141.7059   71.8541  224.3743 H   0  0  0  0  0  0  0  0  0  0  0  0
  142.4018   72.0033  217.3322 H   0  0  0  0  0  0  0  0  0  0  0  0
  142.3744   73.7623  217.6897 H   0  0  0  0  0  0  0  0  0  0  0  0
  144.1211   73.0874  215.9855 H   0  0  0  0  0  0  0  0  0  0  0  0
  144.7911   73.9074  217.4569 H   0  0  0  0  0  0  0  0  0  0  0  0
  1  2  1  0
  2  3  1  0
  3  4  1  0
  4  5  1  0
  5  6  1  0
  6  7  1  0
  7  8  2  0
  8  9  1  0
  9 10  1  0
 10 11  1  0
 11 12  1  0
 12 13  1  0
 13 14  2  0
 14 15  1  0
 15 16  2  0
 16 17  1  0
 17 18  2  0
 18 19  1  0
  9 20  2  0
 20 21  1  0
 21 22  1  0
 22 23  1  0
 23 24  1  0
 24 25  1  0
 25 26  2  0
 26 27  1  0
 27 28  2  0
 28 29  1  0
 29 30  2  0
 30 31  1  0
 21 32  2  0
  6 33  1  0
 33 34  1  0
 34 35  1  0
 35  4  1  0
 32  7  1  0
 19 10  1  0
 31 22  1  0
 18 13  1  0
 30 25  1  0
  1 36  1  0
  1 37  1  0
  1 38  1  0
  2 39  1  0
  2 40  1  0
  3 41  1  0
  4 42  1  6
  5 43  1  0
  5 44  1  0
 11 45  1  0
 11 46  1  0
 12 47  1  0
 12 48  1  0
 14 49  1  0
 15 50  1  0
 16 51  1  0
 17 52  1  0
 19 53  1  0
 19 54  1  0
 23 55  1  0
 23 56  1  0
 24 57  1  0
 24 58  1  0
 26 59  1  0
 27 60  1  0
 28 61  1  0
 29 62  1  0
 31 63  1  0
 31 64  1  0
 33 65  1  0
 33 66  1  0
 34 67  1  0
 34 68  1  0
M  END
>  <meeko>  (6) 
{"free_energy": -10.15, "intermolecular_energy": -11.64, "internal_energy": -1.16, "cluster_size": 20, "cluster_id": 1, "rank_in_cluster": 11}

$$$$

     RDKit          3D

 68 73  0  0  0  0  0  0  0  0999 V2000
  146.4300   73.4520  221.8980 C   0  0  0  0  0  0  0  0  0  0  0  0
  145.3290   73.2470  220.8550 C   0  0  0  0  0  0  0  0  0  0  0  0
  145.8630   73.1330  219.4890 N   0  0  0  0  0  0  0  0  0  0  0  0
  145.0690   72.2490  218.6030 C   0  0  1  0  0  0  0  0  0  0  0  0
  143.7090   71.8650  219.2250 C   0  0  0  0  0  0  0  0  0  0  0  0
  142.8110   73.0240  219.2120 N   0  0  0  0  0  0  0  0  0  0  0  0
  141.9140   73.2810  220.3100 C   0  0  0  0  0  0  0  0  0  0  0  0
  141.5180   72.2660  221.1210 N   0  0  0  0  0  0  0  0  0  0  0  0
  140.6940   72.4980  222.1750 C   0  0  0  0  0  0  0  0  0  0  0  0
  140.3190   71.4170  223.0530 N   0  0  0  0  0  0  0  0  0  0  0  0
  139.1090   70.6300  222.7540 C   0  0  0  0  0  0  0  0  0  0  0  0
  139.1770   69.2350  223.3750 C   0  0  0  0  0  0  0  0  0  0  0  0
  139.4850   69.3390  224.8380 C   0  0  0  0  0  0  0  0  0  0  0  0
  138.8870   68.4660  225.7620 C   0  0  0  0  0  0  0  0  0  0  0  0
  139.2100   68.5560  227.1190 C   0  0  0  0  0  0  0  0  0  0  0  0
  140.1400   69.5020  227.5570 C   0  0  0  0  0  0  0  0  0  0  0  0
  140.7490   70.3630  226.6390 C   0  0  0  0  0  0  0  0  0  0  0  0
  140.4170   70.2950  225.2770 C   0  0  0  0  0  0  0  0  0  0  0  0
  141.1010   71.2080  224.2890 C   0  0  0  0  0  0  0  0  0  0  0  0
  140.2550   73.7630  222.4080 N   0  0  0  0  0  0  0  0  0  0  0  0
  140.6390   74.7900  221.6040 C   0  0  0  0  0  0  0  0  0  0  0  0
  140.1600   76.1260  221.8510 N   0  0  0  0  0  0  0  0  0  0  0  0
  138.7840   76.3110  222.3460 C   0  0  0  0  0  0  0  0  0  0  0  0
  138.2630   77.7290  222.0870 C   0  0  0  0  0  0  0  0  0  0  0  0
  139.2570   78.7410  222.5680 C   0  0  0  0  0  0  0  0  0  0  0  0
  138.8370   79.9300  223.1870 C   0  0  0  0  0  0  0  0  0  0  0  0
  139.7790   80.8750  223.6010 C   0  0  0  0  0  0  0  0  0  0  0  0
  141.1400   80.6470  223.3880 C   0  0  0  0  0  0  0  0  0  0  0  0
  141.5630   79.4730  222.7540 C   0  0  0  0  0  0  0  0  0  0  0  0
  140.6250   78.5110  222.3500 C   0  0  0  0  0  0  0  0  0  0  0  0
  141.0720   77.2650  221.6280 C   0  0  0  0  0  0  0  0  0  0  0  0
  141.4740   74.5420  220.5610 N   0  0  0  0  0  0  0  0  0  0  0  0
  142.7140   73.7710  217.9560 C   0  0  0  0  0  0  0  0  0  0  0  0
  144.1220   74.0430  217.4160 C   0  0  0  0  0  0  0  0  0  0  0  0
  144.8880   72.8520  217.3290 O   0  0  0  0  0  0  0  0  0  0  0  0
  145.9989   73.3717  222.9068 H   0  0  0  0  0  0  0  0  0  0  0  0
  147.2056   72.6828  221.7684 H   0  0  0  0  0  0  0  0  0  0  0  0
  146.8768   74.4488  221.7684 H   0  0  0  0  0  0  0  0  0  0  0  0
  144.7802   72.3251  221.0976 H   0  0  0  0  0  0  0  0  0  0  0  0
  144.6712   74.1282  220.8849 H   0  0  0  0  0  0  0  0  0  0  0  0
  145.9890   74.0870  219.0760 H   0  0  0  0  0  0  0  0  0  0  0  0
  145.6395   71.3169  218.4773 H   0  0  0  0  0  0  0  0  0  0  0  0
  143.2588   71.0479  218.6423 H   0  0  0  0  0  0  0  0  0  0  0  0
  143.8645   71.5381  220.2637 H   0  0  0  0  0  0  0  0  0  0  0  0
  138.2316   71.1575  223.1565 H   0  0  0  0  0  0  0  0  0  0  0  0
  139.0331   70.5172  221.6624 H   0  0  0  0  0  0  0  0  0  0  0  0
  138.2092   68.7294  223.2416 H   0  0  0  0  0  0  0  0  0  0  0  0
  139.9713   68.6577  222.8792 H   0  0  0  0  0  0  0  0  0  0  0  0
  138.1644   67.7115  225.4176 H   0  0  0  0  0  0  0  0  0  0  0  0
  138.7311   67.8807  227.8433 H   0  0  0  0  0  0  0  0  0  0  0  0
  140.3934   69.5696  228.6253 H   0  0  0  0  0  0  0  0  0  0  0  0
  141.4915   71.0968  226.9857 H   0  0  0  0  0  0  0  0  0  0  0  0
  141.2635   72.1842  224.7693 H   0  0  0  0  0  0  0  0  0  0  0  0
  142.0474   70.7274  224.0002 H   0  0  0  0  0  0  0  0  0  0  0  0
  138.1246   75.5925  221.8371 H   0  0  0  0  0  0  0  0  0  0  0  0
  138.7906   76.1463  223.4336 H   0  0  0  0  0  0  0  0  0  0  0  0
  138.0996   77.8646  221.0077 H   0  0  0  0  0  0  0  0  0  0  0  0
  137.3169   77.8687  222.6304 H   0  0  0  0  0  0  0  0  0  0  0  0
  137.7648   80.1173  223.3460 H   0  0  0  0  0  0  0  0  0  0  0  0
  139.4480   81.8001  224.0955 H   0  0  0  0  0  0  0  0  0  0  0  0
  141.8802   81.3905  223.7187 H   0  0  0  0  0  0  0  0  0  0  0  0
  142.6346   79.3040  222.5718 H   0  0  0  0  0  0  0  0  0  0  0  0
  141.1139   77.4778  220.5496 H   0  0  0  0  0  0  0  0  0  0  0  0
  142.0598   76.9853  222.0231 H   0  0  0  0  0  0  0  0  0  0  0  0
  142.1466   73.1812  217.2210 H   0  0  0  0  0  0  0  0  0  0  0  0
  142.1982   74.7259  218.1351 H   0  0  0  0  0  0  0  0  0  0  0  0
  144.0398   74.4884  216.4136 H   0  0  0  0  0  0  0  0  0  0  0  0
  144.6300   74.7283  218.1105 H   0  0  0  0  0  0  0  0  0  0  0  0
  1  2  1  0
  2  3  1  0
  3  4  1  0
  4  5  1  0
  5  6  1  0
  6  7  1  0
  7  8  2  0
  8  9  1  0
  9 10  1  0
 10 11  1  0
 11 12  1  0
 12 13  1  0
 13 14  2  0
 14 15  1  0
 15 16  2  0
 16 17  1  0
 17 18  2  0
 18 19  1  0
  9 20  2  0
 20 21  1  0
 21 22  1  0
 22 23  1  0
 23 24  1  0
 24 25  1  0
 25 26  2  0
 26 27  1  0
 27 28  2  0
 28 29  1  0
 29 30  2  0
 30 31  1  0
 21 32  2  0
  6 33  1  0
 33 34  1  0
 34 35  1  0
 35  4  1  0
 32  7  1  0
 19 10  1  0
 31 22  1  0
 18 13  1  0
 30 25  1  0
  1 36  1  0
  1 37  1  0
  1 38  1  0
  2 39  1  0
  2 40  1  0
  3 41  1  0
  4 42  1  6
  5 43  1  0
  5 44  1  0
 11 45  1  0
 11 46  1  0
 12 47  1  0
 12 48  1  0
 14 49  1  0
 15 50  1  0
 16 51  1  0
 17 52  1  0
 19 53  1  0
 19 54  1  0
 23 55  1  0
 23 56  1  0
 24 57  1  0
 24 58  1  0
 26 59  1  0
 27 60  1  0
 28 61  1  0
 29 62  1  0
 31 63  1  0
 31 64  1  0
 33 65  1  0
 33 66  1  0
 34 67  1  0
 34 68  1  0
M  END
>  <meeko>  (7) 
{"free_energy": -10.0, "intermolecular_energy": -11.5, "internal_energy": -1.02, "cluster_size": 20, "cluster_id": 1, "rank_in_cluster": 19}

$$$$

     RDKit          3D

 68 73  0  0  0  0  0  0  0  0999 V2000
  146.3110   73.7390  221.5930 C   0  0  0  0  0  0  0  0  0  0  0  0
  145.5080   72.8120  220.6790 C   0  0  0  0  0  0  0  0  0  0  0  0
  145.9260   72.9120  219.2710 N   0  0  0  0  0  0  0  0  0  0  0  0
  144.9820   72.2820  218.3170 C   0  0  1  0  0  0  0  0  0  0  0  0
  143.5810   72.0720  218.9290 C   0  0  0  0  0  0  0  0  0  0  0  0
  142.8990   73.3620  219.0660 N   0  0  0  0  0  0  0  0  0  0  0  0
  142.0690   73.6470  220.2100 C   0  0  0  0  0  0  0  0  0  0  0  0
  141.7730   74.9310  220.5360 N   0  0  0  0  0  0  0  0  0  0  0  0
  140.9700   75.2120  221.5940 C   0  0  0  0  0  0  0  0  0  0  0  0
  140.6300   76.5810  221.9020 N   0  0  0  0  0  0  0  0  0  0  0  0
  139.6570   77.2920  221.0530 C   0  0  0  0  0  0  0  0  0  0  0  0
  138.9830   78.4370  221.8080 C   0  0  0  0  0  0  0  0  0  0  0  0
  140.0200   79.3290  222.4190 C   0  0  0  0  0  0  0  0  0  0  0  0
  139.8350   80.7220  222.4620 C   0  0  0  0  0  0  0  0  0  0  0  0
  140.7980   81.5370  223.0630 C   0  0  0  0  0  0  0  0  0  0  0  0
  141.9370   80.9690  223.6390 C   0  0  0  0  0  0  0  0  0  0  0  0
  142.1190   79.5820  223.6120 C   0  0  0  0  0  0  0  0  0  0  0  0
  141.1680   78.7560  222.9920 C   0  0  0  0  0  0  0  0  0  0  0  0
  141.3570   77.2590  222.9950 C   0  0  0  0  0  0  0  0  0  0  0  0
  140.4700   74.1910  222.3380 N   0  0  0  0  0  0  0  0  0  0  0  0
  140.7590   72.8990  222.0270 C   0  0  0  0  0  0  0  0  0  0  0  0
  140.2340   71.8220  222.8270 N   0  0  0  0  0  0  0  0  0  0  0  0
  139.6090   70.6700  222.1520 C   0  0  0  0  0  0  0  0  0  0  0  0
  138.6830   69.8870  223.0870 C   0  0  0  0  0  0  0  0  0  0  0  0
  139.3890   69.5700  224.3690 C   0  0  0  0  0  0  0  0  0  0  0  0
  139.2010   68.3360  225.0130 C   0  0  0  0  0  0  0  0  0  0  0  0
  139.8460   68.0720  226.2250 C   0  0  0  0  0  0  0  0  0  0  0  0
  140.6670   69.0400  226.8050 C   0  0  0  0  0  0  0  0  0  0  0  0
  140.8430   70.2790  226.1790 C   0  0  0  0  0  0  0  0  0  0  0  0
  140.2120   70.5460  224.9530 C   0  0  0  0  0  0  0  0  0  0  0  0
  140.3630   71.8950  224.2960 C   0  0  0  0  0  0  0  0  0  0  0  0
  141.5540   72.6350  220.9570 N   0  0  0  0  0  0  0  0  0  0  0  0
  142.9240   74.2500  217.9010 C   0  0  0  0  0  0  0  0  0  0  0  0
  144.3540   74.3330  217.3560 C   0  0  0  0  0  0  0  0  0  0  0  0
  144.9000   73.0450  217.1200 O   0  0  0  0  0  0  0  0  0  0  0  0
  146.0977   73.4928  222.6437 H   0  0  0  0  0  0  0  0  0  0  0  0
  147.3852   73.6074  221.3963 H   0  0  0  0  0  0  0  0  0  0  0  0
  146.0275   74.7835  221.3963 H   0  0  0  0  0  0  0  0  0  0  0  0
  145.6488   71.7745  221.0164 H   0  0  0  0  0  0  0  0  0  0  0  0
  144.4523   73.1153  220.7377 H   0  0  0  0  0  0  0  0  0  0  0  0
  146.1160   73.9120  219.0280 H   0  0  0  0  0  0  0  0  0  0  0  0
  145.3793   71.2846  218.0775 H   0  0  0  0  0  0  0  0  0  0  0  0
  142.9909   71.4151  218.2730 H   0  0  0  0  0  0  0  0  0  0  0  0
  143.6846   71.6095  219.9216 H   0  0  0  0  0  0  0  0  0  0  0  0
  140.1803   77.7016  220.1764 H   0  0  0  0  0  0  0  0  0  0  0  0
  138.8794   76.5765  220.7474 H   0  0  0  0  0  0  0  0  0  0  0  0
  138.3664   79.0210  221.1089 H   0  0  0  0  0  0  0  0  0  0  0  0
  138.3502   78.0203  222.6055 H   0  0  0  0  0  0  0  0  0  0  0  0
  138.9319   81.1705  222.0224 H   0  0  0  0  0  0  0  0  0  0  0  0
  140.6589   82.6280  223.0826 H   0  0  0  0  0  0  0  0  0  0  0  0
  142.6916   81.6130  224.1143 H   0  0  0  0  0  0  0  0  0  0  0  0
  143.0105   79.1371  224.0782 H   0  0  0  0  0  0  0  0  0  0  0  0
  142.4301   77.0414  222.8895 H   0  0  0  0  0  0  0  0  0  0  0  0
  140.9511   76.8790  223.9441 H   0  0  0  0  0  0  0  0  0  0  0  0
  139.0223   71.0358  221.2964 H   0  0  0  0  0  0  0  0  0  0  0  0
  140.4117   69.9926  221.8252 H   0  0  0  0  0  0  0  0  0  0  0  0
  137.7901   70.4917  223.3040 H   0  0  0  0  0  0  0  0  0  0  0  0
  138.3902   68.9467  222.5969 H   0  0  0  0  0  0  0  0  0  0  0  0
  138.5452   67.5761  224.5630 H   0  0  0  0  0  0  0  0  0  0  0  0
  139.7062   67.1006  226.7218 H   0  0  0  0  0  0  0  0  0  0  0  0
  141.1770   68.8285  227.7564 H   0  0  0  0  0  0  0  0  0  0  0  0
  141.4771   71.0457  226.6482 H   0  0  0  0  0  0  0  0  0  0  0  0
  139.5847   72.5673  224.6862 H   0  0  0  0  0  0  0  0  0  0  0  0
  141.3712   72.2698  224.5264 H   0  0  0  0  0  0  0  0  0  0  0  0
  142.2567   73.8526  217.1220 H   0  0  0  0  0  0  0  0  0  0  0  0
  142.5840   75.2536  218.1961 H   0  0  0  0  0  0  0  0  0  0  0  0
  144.3433   74.8946  216.4103 H   0  0  0  0  0  0  0  0  0  0  0  0
  144.9789   74.8386  218.1069 H   0  0  0  0  0  0  0  0  0  0  0  0
  1  2  1  0
  2  3  1  0
  3  4  1  0
  4  5  1  0
  5  6  1  0
  6  7  1  0
  7  8  2  0
  8  9  1  0
  9 10  1  0
 10 11  1  0
 11 12  1  0
 12 13  1  0
 13 14  2  0
 14 15  1  0
 15 16  2  0
 16 17  1  0
 17 18  2  0
 18 19  1  0
  9 20  2  0
 20 21  1  0
 21 22  1  0
 22 23  1  0
 23 24  1  0
 24 25  1  0
 25 26  2  0
 26 27  1  0
 27 28  2  0
 28 29  1  0
 29 30  2  0
 30 31  1  0
 21 32  2  0
  6 33  1  0
 33 34  1  0
 34 35  1  0
 35  4  1  0
 32  7  1  0
 19 10  1  0
 31 22  1  0
 18 13  1  0
 30 25  1  0
  1 36  1  0
  1 37  1  0
  1 38  1  0
  2 39  1  0
  2 40  1  0
  3 41  1  0
  4 42  1  6
  5 43  1  0
  5 44  1  0
 11 45  1  0
 11 46  1  0
 12 47  1  0
 12 48  1  0
 14 49  1  0
 15 50  1  0
 16 51  1  0
 17 52  1  0
 19 53  1  0
 19 54  1  0
 23 55  1  0
 23 56  1  0
 24 57  1  0
 24 58  1  0
 26 59  1  0
 27 60  1  0
 28 61  1  0
 29 62  1  0
 31 63  1  0
 31 64  1  0
 33 65  1  0
 33 66  1  0
 34 67  1  0
 34 68  1  0
M  END
>  <meeko>  (8) 
{"free_energy": -10.01, "intermolecular_energy": -11.5, "internal_energy": -1.07, "cluster_size": 20, "cluster_id": 1, "rank_in_cluster": 18}

$$$$

     RDKit          3D

 68 73  0  0  0  0  0  0  0  0999 V2000
  146.3200   73.7310  221.6250 C   0  0  0  0  0  0  0  0  0  0  0  0
  145.6650   72.7260  220.6770 C   0  0  0  0  0  0  0  0  0  0  0  0
  145.9350   73.0280  219.2630 N   0  0  0  0  0  0  0  0  0  0  0  0
  145.0060   72.3650  218.3160 C   0  0  1  0  0  0  0  0  0  0  0  0
  143.6130   72.1220  218.9360 C   0  0  0  0  0  0  0  0  0  0  0  0
  142.8960   73.3940  219.0640 N   0  0  0  0  0  0  0  0  0  0  0  0
  142.0620   73.6660  220.2080 C   0  0  0  0  0  0  0  0  0  0  0  0
  141.7650   74.9460  220.5480 N   0  0  0  0  0  0  0  0  0  0  0  0
  140.9590   75.2160  221.6070 C   0  0  0  0  0  0  0  0  0  0  0  0
  140.6180   76.5800  221.9290 N   0  0  0  0  0  0  0  0  0  0  0  0
  139.5740   77.2680  221.1480 C   0  0  0  0  0  0  0  0  0  0  0  0
  138.9360   78.4070  221.9420 C   0  0  0  0  0  0  0  0  0  0  0  0
  139.9980   79.3220  222.4700 C   0  0  0  0  0  0  0  0  0  0  0  0
  139.7920   80.7120  222.5160 C   0  0  0  0  0  0  0  0  0  0  0  0
  140.7810   81.5480  223.0410 C   0  0  0  0  0  0  0  0  0  0  0  0
  141.9690   81.0050  223.5360 C   0  0  0  0  0  0  0  0  0  0  0  0
  142.1730   79.6210  223.5060 C   0  0  0  0  0  0  0  0  0  0  0  0
  141.1950   78.7730  222.9620 C   0  0  0  0  0  0  0  0  0  0  0  0
  141.4100   77.2800  222.9610 C   0  0  0  0  0  0  0  0  0  0  0  0
  140.4570   74.1860  222.3380 N   0  0  0  0  0  0  0  0  0  0  0  0
  140.7470   72.8980  222.0130 C   0  0  0  0  0  0  0  0  0  0  0  0
  140.2190   71.8120  222.7990 N   0  0  0  0  0  0  0  0  0  0  0  0
  139.6100   70.6610  222.1080 C   0  0  0  0  0  0  0  0  0  0  0  0
  138.6780   69.8640  223.0260 C   0  0  0  0  0  0  0  0  0  0  0  0
  139.3710   69.5430  224.3150 C   0  0  0  0  0  0  0  0  0  0  0  0
  139.1830   68.3030  224.9470 C   0  0  0  0  0  0  0  0  0  0  0  0
  139.8150   68.0350  226.1650 C   0  0  0  0  0  0  0  0  0  0  0  0
  140.6240   69.0040  226.7620 C   0  0  0  0  0  0  0  0  0  0  0  0
  140.7980   70.2480  226.1460 C   0  0  0  0  0  0  0  0  0  0  0  0
  140.1810   70.5200  224.9150 C   0  0  0  0  0  0  0  0  0  0  0  0
  140.3310   71.8750  224.2690 C   0  0  0  0  0  0  0  0  0  0  0  0
  141.5450   72.6460  220.9420 N   0  0  0  0  0  0  0  0  0  0  0  0
  142.8940   74.2730  217.8920 C   0  0  0  0  0  0  0  0  0  0  0  0
  144.3190   74.3900  217.3410 C   0  0  0  0  0  0  0  0  0  0  0  0
  144.8990   73.1150  217.1140 O   0  0  0  0  0  0  0  0  0  0  0  0
  146.1260   73.4333  222.6660 H   0  0  0  0  0  0  0  0  0  0  0  0
  147.4051   73.7510  221.4455 H   0  0  0  0  0  0  0  0  0  0  0  0
  145.9002   74.7318  221.4455 H   0  0  0  0  0  0  0  0  0  0  0  0
  146.0532   71.7221  220.9038 H   0  0  0  0  0  0  0  0  0  0  0  0
  144.5771   72.7824  220.8293 H   0  0  0  0  0  0  0  0  0  0  0  0
  145.9610   74.0650  219.1200 H   0  0  0  0  0  0  0  0  0  0  0  0
  145.4301   71.3775  218.0815 H   0  0  0  0  0  0  0  0  0  0  0  0
  143.0388   71.4430  218.2885 H   0  0  0  0  0  0  0  0  0  0  0  0
  143.7333   71.6718  219.9324 H   0  0  0  0  0  0  0  0  0  0  0  0
  140.0256   77.6797  220.2333 H   0  0  0  0  0  0  0  0  0  0  0  0
  138.7891   76.5370  220.9040 H   0  0  0  0  0  0  0  0  0  0  0  0
  138.2599   78.9744  221.2856 H   0  0  0  0  0  0  0  0  0  0  0  0
  138.3704   77.9857  222.7862 H   0  0  0  0  0  0  0  0  0  0  0  0
  138.8522   81.1415  222.1387 H   0  0  0  0  0  0  0  0  0  0  0  0
  140.6236   82.6364  223.0645 H   0  0  0  0  0  0  0  0  0  0  0  0
  142.7448   81.6660  223.9497 H   0  0  0  0  0  0  0  0  0  0  0  0
  143.1034   79.1956  223.9102 H   0  0  0  0  0  0  0  0  0  0  0  0
  142.4763   77.0802  222.7790 H   0  0  0  0  0  0  0  0  0  0  0  0
  141.0805   76.9010  223.9397 H   0  0  0  0  0  0  0  0  0  0  0  0
  139.0310   71.0294  221.2483 H   0  0  0  0  0  0  0  0  0  0  0  0
  140.4213   69.9917  221.7859 H   0  0  0  0  0  0  0  0  0  0  0  0
  137.7779   70.4604  223.2362 H   0  0  0  0  0  0  0  0  0  0  0  0
  138.3983   68.9252  222.5256 H   0  0  0  0  0  0  0  0  0  0  0  0
  138.5380   67.5420  224.4834 H   0  0  0  0  0  0  0  0  0  0  0  0
  139.6748   67.0595  226.6536 H   0  0  0  0  0  0  0  0  0  0  0  0
  141.1249   68.7890  227.7174 H   0  0  0  0  0  0  0  0  0  0  0  0
  141.4207   71.0159  226.6282 H   0  0  0  0  0  0  0  0  0  0  0  0
  139.5442   72.5397  224.6552 H   0  0  0  0  0  0  0  0  0  0  0  0
  141.3342   72.2542  224.5133 H   0  0  0  0  0  0  0  0  0  0  0  0
  142.2349   73.8519  217.1185 H   0  0  0  0  0  0  0  0  0  0  0  0
  142.5288   75.2696  218.1808 H   0  0  0  0  0  0  0  0  0  0  0  0
  144.2897   74.9429  216.3905 H   0  0  0  0  0  0  0  0  0  0  0  0
  144.9326   74.9189  218.0852 H   0  0  0  0  0  0  0  0  0  0  0  0
  1  2  1  0
  2  3  1  0
  3  4  1  0
  4  5  1  0
  5  6  1  0
  6  7  1  0
  7  8  2  0
  8  9  1  0
  9 10  1  0
 10 11  1  0
 11 12  1  0
 12 13  1  0
 13 14  2  0
 14 15  1  0
 15 16  2  0
 16 17  1  0
 17 18  2  0
 18 19  1  0
  9 20  2  0
 20 21  1  0
 21 22  1  0
 22 23  1  0
 23 24  1  0
 24 25  1  0
 25 26  2  0
 26 27  1  0
 27 28  2  0
 28 29  1  0
 29 30  2  0
 30 31  1  0
 21 32  2  0
  6 33  1  0
 33 34  1  0
 34 35  1  0
 35  4  1  0
 32  7  1  0
 19 10  1  0
 31 22  1  0
 18 13  1  0
 30 25  1  0
  1 36  1  0
  1 37  1  0
  1 38  1  0
  2 39  1  0
  2 40  1  0
  3 41  1  0
  4 42  1  6
  5 43  1  0
  5 44  1  0
 11 45  1  0
 11 46  1  0
 12 47  1  0
 12 48  1  0
 14 49  1  0
 15 50  1  0
 16 51  1  0
 17 52  1  0
 19 53  1  0
 19 54  1  0
 23 55  1  0
 23 56  1  0
 24 57  1  0
 24 58  1  0
 26 59  1  0
 27 60  1  0
 28 61  1  0
 29 62  1  0
 31 63  1  0
 31 64  1  0
 33 65  1  0
 33 66  1  0
 34 67  1  0
 34 68  1  0
M  END
>  <meeko>  (9) 
{"free_energy": -10.01, "intermolecular_energy": -11.51, "internal_energy": -1.07, "cluster_size": 20, "cluster_id": 1, "rank_in_cluster": 17}

$$$$

     RDKit          3D

 68 73  0  0  0  0  0  0  0  0999 V2000
  145.2310   74.5070  220.8020 C   0  0  0  0  0  0  0  0  0  0  0  0
  146.0900   73.2600  220.5860 C   0  0  0  0  0  0  0  0  0  0  0  0
  146.2660   72.9380  219.1610 N   0  0  0  0  0  0  0  0  0  0  0  0
  145.5570   71.7100  218.7280 C   0  0  1  0  0  0  0  0  0  0  0  0
  144.3060   71.4220  219.5860 C   0  0  0  0  0  0  0  0  0  0  0  0
  143.2510   72.3880  219.2690 N   0  0  0  0  0  0  0  0  0  0  0  0
  142.3930   72.9170  220.2990 C   0  0  0  0  0  0  0  0  0  0  0  0
  142.1760   74.2540  220.3870 N   0  0  0  0  0  0  0  0  0  0  0  0
  141.3490   74.7640  221.3350 C   0  0  0  0  0  0  0  0  0  0  0  0
  141.0940   76.1840  221.3870 N   0  0  0  0  0  0  0  0  0  0  0  0
  140.9930   76.9460  220.1300 C   0  0  0  0  0  0  0  0  0  0  0  0
  140.1680   78.2210  220.3100 C   0  0  0  0  0  0  0  0  0  0  0  0
  140.7010   79.0180  221.4610 C   0  0  0  0  0  0  0  0  0  0  0  0
  140.7360   80.4220  221.4090 C   0  0  0  0  0  0  0  0  0  0  0  0
  141.2070   81.1520  222.5030 C   0  0  0  0  0  0  0  0  0  0  0  0
  141.6280   80.4890  223.6590 C   0  0  0  0  0  0  0  0  0  0  0  0
  141.5820   79.0930  223.7220 C   0  0  0  0  0  0  0  0  0  0  0  0
  141.1300   78.3490  222.6200 C   0  0  0  0  0  0  0  0  0  0  0  0
  141.0550   76.8440  222.7080 C   0  0  0  0  0  0  0  0  0  0  0  0
  140.7440   73.9210  222.2120 N   0  0  0  0  0  0  0  0  0  0  0  0
  140.9540   72.5790  222.1400 C   0  0  0  0  0  0  0  0  0  0  0  0
  140.3180   71.6910  223.0800 N   0  0  0  0  0  0  0  0  0  0  0  0
  139.3470   70.6990  222.5820 C   0  0  0  0  0  0  0  0  0  0  0  0
  138.4150   70.1980  223.6880 C   0  0  0  0  0  0  0  0  0  0  0  0
  139.2110   69.7680  224.8820 C   0  0  0  0  0  0  0  0  0  0  0  0
  138.8390   68.6410  225.6320 C   0  0  0  0  0  0  0  0  0  0  0  0
  139.5790   68.2740  226.7600 C   0  0  0  0  0  0  0  0  0  0  0  0
  140.6820   69.0370  227.1520 C   0  0  0  0  0  0  0  0  0  0  0  0
  141.0450   70.1720  226.4190 C   0  0  0  0  0  0  0  0  0  0  0  0
  140.3180   70.5370  225.2760 C   0  0  0  0  0  0  0  0  0  0  0  0
  140.6790   71.7850  224.5080 C   0  0  0  0  0  0  0  0  0  0  0  0
  141.7740   72.0840  221.1760 N   0  0  0  0  0  0  0  0  0  0  0  0
  142.9710   72.6190  217.8490 C   0  0  0  0  0  0  0  0  0  0  0  0
  144.2900   72.8390  217.1010 C   0  0  0  0  0  0  0  0  0  0  0  0
  145.2140   71.7920  217.3510 O   0  0  0  0  0  0  0  0  0  0  0  0
  145.1082   74.6853  221.8805 H   0  0  0  0  0  0  0  0  0  0  0  0
  145.7232   75.3757  220.3404 H   0  0  0  0  0  0  0  0  0  0  0  0
  144.2439   74.3567  220.3404 H   0  0  0  0  0  0  0  0  0  0  0  0
  147.0799   73.4314  221.0340 H   0  0  0  0  0  0  0  0  0  0  0  0
  145.5737   72.4119  221.0594 H   0  0  0  0  0  0  0  0  0  0  0  0
  146.0050   73.7660  218.5750 H   0  0  0  0  0  0  0  0  0  0  0  0
  146.2482   70.8668  218.8739 H   0  0  0  0  0  0  0  0  0  0  0  0
  143.9448   70.4048  219.3743 H   0  0  0  0  0  0  0  0  0  0  0  0
  144.5690   71.5091  220.6506 H   0  0  0  0  0  0  0  0  0  0  0  0
  142.0047   77.2195  219.7960 H   0  0  0  0  0  0  0  0  0  0  0  0
  140.4907   76.3134  219.3833 H   0  0  0  0  0  0  0  0  0  0  0  0
  140.2248   78.8242  219.3919 H   0  0  0  0  0  0  0  0  0  0  0  0
  139.1219   77.9484  220.5133 H   0  0  0  0  0  0  0  0  0  0  0  0
  140.3920   80.9469  220.5056 H   0  0  0  0  0  0  0  0  0  0  0  0
  141.2466   82.2502  222.4545 H   0  0  0  0  0  0  0  0  0  0  0  0
  141.9959   81.0660  224.5202 H   0  0  0  0  0  0  0  0  0  0  0  0
  141.9012   78.5753  224.6386 H   0  0  0  0  0  0  0  0  0  0  0  0
  141.9071   76.4852  223.3040 H   0  0  0  0  0  0  0  0  0  0  0  0
  140.0912   76.5901  223.1733 H   0  0  0  0  0  0  0  0  0  0  0  0
  138.7403   71.1632  221.7905 H   0  0  0  0  0  0  0  0  0  0  0  0
  139.9115   69.8361  222.1989 H   0  0  0  0  0  0  0  0  0  0  0  0
  137.7305   71.0079  223.9805 H   0  0  0  0  0  0  0  0  0  0  0  0
  137.8415   69.3383  223.3112 H   0  0  0  0  0  0  0  0  0  0  0  0
  137.9640   68.0458  225.3317 H   0  0  0  0  0  0  0  0  0  0  0  0
  139.2927   67.3839  227.3394 H   0  0  0  0  0  0  0  0  0  0  0  0
  141.2654   68.7450  228.0376 H   0  0  0  0  0  0  0  0  0  0  0  0
  141.9034   70.7803  226.7400 H   0  0  0  0  0  0  0  0  0  0  0  0
  140.1464   72.6392  224.9515 H   0  0  0  0  0  0  0  0  0  0  0  0
  141.7697   71.9135  224.5705 H   0  0  0  0  0  0  0  0  0  0  0  0
  142.4526   71.7441  217.4298 H   0  0  0  0  0  0  0  0  0  0  0  0
  142.3330   73.5084  217.7396 H   0  0  0  0  0  0  0  0  0  0  0  0
  144.0847   72.8835  216.0212 H   0  0  0  0  0  0  0  0  0  0  0  0
  144.7335   73.7809  217.4562 H   0  0  0  0  0  0  0  0  0  0  0  0
  1  2  1  0
  2  3  1  0
  3  4  1  0
  4  5  1  0
  5  6  1  0
  6  7  1  0
  7  8  2  0
  8  9  1  0
  9 10  1  0
 10 11  1  0
 11 12  1  0
 12 13  1  0
 13 14  2  0
 14 15  1  0
 15 16  2  0
 16 17  1  0
 17 18  2  0
 18 19  1  0
  9 20  2  0
 20 21  1  0
 21 22  1  0
 22 23  1  0
 23 24  1  0
 24 25  1  0
 25 26  2  0
 26 27  1  0
 27 28  2  0
 28 29  1  0
 29 30  2  0
 30 31  1  0
 21 32  2  0
  6 33  1  0
 33 34  1  0
 34 35  1  0
 35  4  1  0
 32  7  1  0
 19 10  1  0
 31 22  1  0
 18 13  1  0
 30 25  1  0
  1 36  1  0
  1 37  1  0
  1 38  1  0
  2 39  1  0
  2 40  1  0
  3 41  1  0
  4 42  1  6
  5 43  1  0
  5 44  1  0
 11 45  1  0
 11 46  1  0
 12 47  1  0
 12 48  1  0
 14 49  1  0
 15 50  1  0
 16 51  1  0
 17 52  1  0
 19 53  1  0
 19 54  1  0
 23 55  1  0
 23 56  1  0
 24 57  1  0
 24 58  1  0
 26 59  1  0
 27 60  1  0
 28 61  1  0
 29 62  1  0
 31 63  1  0
 31 64  1  0
 33 65  1  0
 33 66  1  0
 34 67  1  0
 34 68  1  0
M  END
>  <meeko>  (10) 
{"free_energy": -10.15, "intermolecular_energy": -11.64, "internal_energy": -1.16, "cluster_size": 20, "cluster_id": 1, "rank_in_cluster": 12}

$$$$

     RDKit          3D

 68 73  0  0  0  0  0  0  0  0999 V2000
  146.6740   73.3950  222.1590 C   0  0  0  0  0  0  0  0  0  0  0  0
  145.7110   73.5290  220.9780 C   0  0  0  0  0  0  0  0  0  0  0  0
  146.3220   73.1120  219.7060 N   0  0  0  0  0  0  0  0  0  0  0  0
  145.5830   72.0320  219.0080 C   0  0  1  0  0  0  0  0  0  0  0  0
  144.2220   71.7300  219.6710 C   0  0  0  0  0  0  0  0  0  0  0  0
  143.2840   72.8230  219.4040 N   0  0  0  0  0  0  0  0  0  0  0  0
  142.3490   73.2640  220.4090 C   0  0  0  0  0  0  0  0  0  0  0  0
  142.0420   74.5810  220.5240 N   0  0  0  0  0  0  0  0  0  0  0  0
  141.1440   75.0080  221.4490 C   0  0  0  0  0  0  0  0  0  0  0  0
  140.7950   76.4060  221.5290 N   0  0  0  0  0  0  0  0  0  0  0  0
  140.2860   77.0940  220.3300 C   0  0  0  0  0  0  0  0  0  0  0  0
  139.4400   78.3130  220.6970 C   0  0  0  0  0  0  0  0  0  0  0  0
  140.2030   79.2050  221.6290 C   0  0  0  0  0  0  0  0  0  0  0  0
  140.1030   80.6030  221.5280 C   0  0  0  0  0  0  0  0  0  0  0  0
  140.7960   81.4200  222.4250 C   0  0  0  0  0  0  0  0  0  0  0  0
  141.5760   80.8500  223.4350 C   0  0  0  0  0  0  0  0  0  0  0  0
  141.6660   79.4580  223.5480 C   0  0  0  0  0  0  0  0  0  0  0  0
  140.9910   78.6290  222.6390 C   0  0  0  0  0  0  0  0  0  0  0  0
  141.0690   77.1290  222.7880 C   0  0  0  0  0  0  0  0  0  0  0  0
  140.5580   74.1010  222.2730 N   0  0  0  0  0  0  0  0  0  0  0  0
  140.8580   72.7780  222.1730 C   0  0  0  0  0  0  0  0  0  0  0  0
  140.2400   71.8230  223.0580 N   0  0  0  0  0  0  0  0  0  0  0  0
  139.2790   70.8520  222.5020 C   0  0  0  0  0  0  0  0  0  0  0  0
  138.3610   70.2680  223.5810 C   0  0  0  0  0  0  0  0  0  0  0  0
  139.1730   69.7720  224.7380 C   0  0  0  0  0  0  0  0  0  0  0  0
  138.8220   68.5940  225.4170 C   0  0  0  0  0  0  0  0  0  0  0  0
  139.5750   68.1650  226.5130 C   0  0  0  0  0  0  0  0  0  0  0  0
  140.6700   68.9150  226.9460 C   0  0  0  0  0  0  0  0  0  0  0  0
  141.0130   70.1000  226.2860 C   0  0  0  0  0  0  0  0  0  0  0  0
  140.2730   70.5290  225.1730 C   0  0  0  0  0  0  0  0  0  0  0  0
  140.6120   71.8280  224.4860 C   0  0  0  0  0  0  0  0  0  0  0  0
  141.7490   72.3660  221.2330 N   0  0  0  0  0  0  0  0  0  0  0  0
  143.1920   73.2910  218.0180 C   0  0  0  0  0  0  0  0  0  0  0  0
  144.6020   73.5030  217.4590 C   0  0  0  0  0  0  0  0  0  0  0  0
  145.4130   72.3520  217.6330 O   0  0  0  0  0  0  0  0  0  0  0  0
  146.1118   73.4732  223.1012 H   0  0  0  0  0  0  0  0  0  0  0  0
  147.1775   72.4181  222.1125 H   0  0  0  0  0  0  0  0  0  0  0  0
  147.4251   74.1973  222.1125 H   0  0  0  0  0  0  0  0  0  0  0  0
  144.8285   72.9007  221.1687 H   0  0  0  0  0  0  0  0  0  0  0  0
  145.4378   74.5906  220.8868 H   0  0  0  0  0  0  0  0  0  0  0  0
  146.4650   73.9470  219.0900 H   0  0  0  0  0  0  0  0  0  0  0  0
  146.1897   71.1180  219.0887 H   0  0  0  0  0  0  0  0  0  0  0  0
  143.8166   70.7931  219.2613 H   0  0  0  0  0  0  0  0  0  0  0  0
  144.3625   71.6306  220.7575 H   0  0  0  0  0  0  0  0  0  0  0  0
  141.1389   77.4226  219.7180 H   0  0  0  0  0  0  0  0  0  0  0  0
  139.6508   76.3896  219.7729 H   0  0  0  0  0  0  0  0  0  0  0  0
  139.1891   78.8708  219.7828 H   0  0  0  0  0  0  0  0  0  0  0  0
  138.5180   77.9763  221.1936 H   0  0  0  0  0  0  0  0  0  0  0  0
  139.4790   81.0543  220.7426 H   0  0  0  0  0  0  0  0  0  0  0  0
  140.7275   82.5143  222.3361 H   0  0  0  0  0  0  0  0  0  0  0  0
  142.1191   81.4954  224.1410 H   0  0  0  0  0  0  0  0  0  0  0  0
  142.2685   79.0118  224.3529 H   0  0  0  0  0  0  0  0  0  0  0  0
  142.0798   76.8635  223.1312 H   0  0  0  0  0  0  0  0  0  0  0  0
  140.2964   76.8309  223.5120 H   0  0  0  0  0  0  0  0  0  0  0  0
  138.6607   71.3580  221.7459 H   0  0  0  0  0  0  0  0  0  0  0  0
  139.8517   70.0236  222.0595 H   0  0  0  0  0  0  0  0  0  0  0  0
  137.6691   71.0483  223.9307 H   0  0  0  0  0  0  0  0  0  0  0  0
  137.7943   69.4276  223.1537 H   0  0  0  0  0  0  0  0  0  0  0  0
  137.9524   68.0077  225.0853 H   0  0  0  0  0  0  0  0  0  0  0  0
  139.3047   67.2353  227.0352 H   0  0  0  0  0  0  0  0  0  0  0  0
  141.2637   68.5739  227.8069 H   0  0  0  0  0  0  0  0  0  0  0  0
  141.8657   70.6977  226.6406 H   0  0  0  0  0  0  0  0  0  0  0  0
  140.0729   72.6446  224.9886 H   0  0  0  0  0  0  0  0  0  0  0  0
  141.7015   71.9659  224.5482 H   0  0  0  0  0  0  0  0  0  0  0  0
  142.6655   72.5398  217.4110 H   0  0  0  0  0  0  0  0  0  0  0  0
  142.6372   74.2403  217.9864 H   0  0  0  0  0  0  0  0  0  0  0  0
  144.5296   73.7292  216.3850 H   0  0  0  0  0  0  0  0  0  0  0  0
  145.0667   74.3363  218.0064 H   0  0  0  0  0  0  0  0  0  0  0  0
  1  2  1  0
  2  3  1  0
  3  4  1  0
  4  5  1  0
  5  6  1  0
  6  7  1  0
  7  8  2  0
  8  9  1  0
  9 10  1  0
 10 11  1  0
 11 12  1  0
 12 13  1  0
 13 14  2  0
 14 15  1  0
 15 16  2  0
 16 17  1  0
 17 18  2  0
 18 19  1  0
  9 20  2  0
 20 21  1  0
 21 22  1  0
 22 23  1  0
 23 24  1  0
 24 25  1  0
 25 26  2  0
 26 27  1  0
 27 28  2  0
 28 29  1  0
 29 30  2  0
 30 31  1  0
 21 32  2  0
  6 33  1  0
 33 34  1  0
 34 35  1  0
 35  4  1  0
 32  7  1  0
 19 10  1  0
 31 22  1  0
 18 13  1  0
 30 25  1  0
  1 36  1  0
  1 37  1  0
  1 38  1  0
  2 39  1  0
  2 40  1  0
  3 41  1  0
  4 42  1  6
  5 43  1  0
  5 44  1  0
 11 45  1  0
 11 46  1  0
 12 47  1  0
 12 48  1  0
 14 49  1  0
 15 50  1  0
 16 51  1  0
 17 52  1  0
 19 53  1  0
 19 54  1  0
 23 55  1  0
 23 56  1  0
 24 57  1  0
 24 58  1  0
 26 59  1  0
 27 60  1  0
 28 61  1  0
 29 62  1  0
 31 63  1  0
 31 64  1  0
 33 65  1  0
 33 66  1  0
 34 67  1  0
 34 68  1  0
M  END
>  <meeko>  (11) 
{"free_energy": -10.65, "intermolecular_energy": -12.14, "internal_energy": -1.01, "cluster_size": 20, "cluster_id": 1, "rank_in_cluster": 4}

$$$$

     RDKit          3D

 68 73  0  0  0  0  0  0  0  0999 V2000
  146.6770   73.4140  222.1920 C   0  0  0  0  0  0  0  0  0  0  0  0
  145.5270   73.4390  221.1830 C   0  0  0  0  0  0  0  0  0  0  0  0
  145.9910   73.2530  219.7990 N   0  0  0  0  0  0  0  0  0  0  0  0
  145.3690   72.0990  219.1050 C   0  0  1  0  0  0  0  0  0  0  0  0
  144.0960   71.6010  219.8220 C   0  0  0  0  0  0  0  0  0  0  0  0
  143.0070   72.5630  219.6290 N   0  0  0  0  0  0  0  0  0  0  0  0
  142.0740   72.8510  220.6890 C   0  0  0  0  0  0  0  0  0  0  0  0
  141.7070   71.8760  221.5600 N   0  0  0  0  0  0  0  0  0  0  0  0
  140.8490   72.1400  222.5790 C   0  0  0  0  0  0  0  0  0  0  0  0
  140.5040   71.1040  223.5220 N   0  0  0  0  0  0  0  0  0  0  0  0
  139.2630   70.3340  223.3270 C   0  0  0  0  0  0  0  0  0  0  0  0
  139.3390   68.9640  224.0020 C   0  0  0  0  0  0  0  0  0  0  0  0
  139.7350   69.1210  225.4380 C   0  0  0  0  0  0  0  0  0  0  0  0
  139.1750   68.3010  226.4320 C   0  0  0  0  0  0  0  0  0  0  0  0
  139.5790   68.4390  227.7630 C   0  0  0  0  0  0  0  0  0  0  0  0
  140.5530   69.3800  228.1060 C   0  0  0  0  0  0  0  0  0  0  0  0
  141.1240   70.1900  227.1180 C   0  0  0  0  0  0  0  0  0  0  0  0
  140.7100   70.0730  225.7820 C   0  0  0  0  0  0  0  0  0  0  0  0
  141.3540   70.9290  224.7180 C   0  0  0  0  0  0  0  0  0  0  0  0
  140.3460   73.3950  222.7140 N   0  0  0  0  0  0  0  0  0  0  0  0
  140.7000   74.3820  221.8480 C   0  0  0  0  0  0  0  0  0  0  0  0
  140.1530   75.7070  221.9920 N   0  0  0  0  0  0  0  0  0  0  0  0
  138.7270   75.8590  222.3340 C   0  0  0  0  0  0  0  0  0  0  0  0
  138.1900   77.2460  221.9670 C   0  0  0  0  0  0  0  0  0  0  0  0
  139.0940   78.3100  222.5090 C   0  0  0  0  0  0  0  0  0  0  0  0
  138.5710   79.5040  223.0350 C   0  0  0  0  0  0  0  0  0  0  0  0
  139.4330   80.4970  223.5080 C   0  0  0  0  0  0  0  0  0  0  0  0
  140.8160   80.3120  223.4470 C   0  0  0  0  0  0  0  0  0  0  0  0
  141.3420   79.1330  222.9070 C   0  0  0  0  0  0  0  0  0  0  0  0
  140.4840   78.1230  222.4440 C   0  0  0  0  0  0  0  0  0  0  0  0
  141.0460   76.8700  221.8210 C   0  0  0  0  0  0  0  0  0  0  0  0
  141.5700   74.1040  220.8420 N   0  0  0  0  0  0  0  0  0  0  0  0
  142.7850   73.0440  218.2640 C   0  0  0  0  0  0  0  0  0  0  0  0
  144.1250   73.4570  217.6460 C   0  0  0  0  0  0  0  0  0  0  0  0
  145.0900   72.4230  217.7500 O   0  0  0  0  0  0  0  0  0  0  0  0
  146.2689   73.4229  223.2134 H   0  0  0  0  0  0  0  0  0  0  0  0
  147.2749   72.5026  222.0440 H   0  0  0  0  0  0  0  0  0  0  0  0
  147.3140   74.2985  222.0440 H   0  0  0  0  0  0  0  0  0  0  0  0
  144.8220   72.6318  221.4308 H   0  0  0  0  0  0  0  0  0  0  0  0
  145.0470   74.4267  221.2459 H   0  0  0  0  0  0  0  0  0  0  0  0
  145.8680   74.1420  219.2610 H   0  0  0  0  0  0  0  0  0  0  0  0
  146.0957   71.2737  219.1307 H   0  0  0  0  0  0  0  0  0  0  0  0
  143.8002   70.6267  219.4057 H   0  0  0  0  0  0  0  0  0  0  0  0
  144.3025   71.4981  220.8975 H   0  0  0  0  0  0  0  0  0  0  0  0
  138.4218   70.8976  223.7568 H   0  0  0  0  0  0  0  0  0  0  0  0
  139.1206   70.1784  222.2474 H   0  0  0  0  0  0  0  0  0  0  0  0
  138.3548   68.4758  223.9469 H   0  0  0  0  0  0  0  0  0  0  0  0
  140.0905   68.3486  223.4857 H   0  0  0  0  0  0  0  0  0  0  0  0
  138.4180   67.5498  226.1626 H   0  0  0  0  0  0  0  0  0  0  0  0
  139.1292   67.8056  228.5418 H   0  0  0  0  0  0  0  0  0  0  0  0
  140.8714   69.4843  229.1537 H   0  0  0  0  0  0  0  0  0  0  0  0
  141.9000   70.9209  227.3894 H   0  0  0  0  0  0  0  0  0  0  0  0
  141.5645   71.9202  225.1460 H   0  0  0  0  0  0  0  0  0  0  0  0
  142.2723   70.4162  224.3957 H   0  0  0  0  0  0  0  0  0  0  0  0
  138.1486   75.0991  221.7882 H   0  0  0  0  0  0  0  0  0  0  0  0
  138.6248   75.7337  223.4221 H   0  0  0  0  0  0  0  0  0  0  0  0
  138.1370   77.3372  220.8721 H   0  0  0  0  0  0  0  0  0  0  0  0
  137.1877   77.3700  222.4028 H   0  0  0  0  0  0  0  0  0  0  0  0
  137.4824   79.6568  223.0743 H   0  0  0  0  0  0  0  0  0  0  0  0
  139.0215   81.4261  223.9292 H   0  0  0  0  0  0  0  0  0  0  0  0
  141.4922   81.0935  223.8237 H   0  0  0  0  0  0  0  0  0  0  0  0
  142.4318   78.9972  222.8451 H   0  0  0  0  0  0  0  0  0  0  0  0
  141.1944   77.0463  220.7454 H   0  0  0  0  0  0  0  0  0  0  0  0
  141.9956   76.6409  222.3268 H   0  0  0  0  0  0  0  0  0  0  0  0
  142.3343   72.2420  217.6610 H   0  0  0  0  0  0  0  0  0  0  0  0
  142.1075   73.9103  218.2852 H   0  0  0  0  0  0  0  0  0  0  0  0
  143.9696   73.6944  216.5832 H   0  0  0  0  0  0  0  0  0  0  0  0
  144.5004   74.3337  218.1942 H   0  0  0  0  0  0  0  0  0  0  0  0
  1  2  1  0
  2  3  1  0
  3  4  1  0
  4  5  1  0
  5  6  1  0
  6  7  1  0
  7  8  2  0
  8  9  1  0
  9 10  1  0
 10 11  1  0
 11 12  1  0
 12 13  1  0
 13 14  2  0
 14 15  1  0
 15 16  2  0
 16 17  1  0
 17 18  2  0
 18 19  1  0
  9 20  2  0
 20 21  1  0
 21 22  1  0
 22 23  1  0
 23 24  1  0
 24 25  1  0
 25 26  2  0
 26 27  1  0
 27 28  2  0
 28 29  1  0
 29 30  2  0
 30 31  1  0
 21 32  2  0
  6 33  1  0
 33 34  1  0
 34 35  1  0
 35  4  1  0
 32  7  1  0
 19 10  1  0
 31 22  1  0
 18 13  1  0
 30 25  1  0
  1 36  1  0
  1 37  1  0
  1 38  1  0
  2 39  1  0
  2 40  1  0
  3 41  1  0
  4 42  1  6
  5 43  1  0
  5 44  1  0
 11 45  1  0
 11 46  1  0
 12 47  1  0
 12 48  1  0
 14 49  1  0
 15 50  1  0
 16 51  1  0
 17 52  1  0
 19 53  1  0
 19 54  1  0
 23 55  1  0
 23 56  1  0
 24 57  1  0
 24 58  1  0
 26 59  1  0
 27 60  1  0
 28 61  1  0
 29 62  1  0
 31 63  1  0
 31 64  1  0
 33 65  1  0
 33 66  1  0
 34 67  1  0
 34 68  1  0
M  END
>  <meeko>  (12) 
{"free_energy": -10.13, "intermolecular_energy": -11.63, "internal_energy": -1.02, "cluster_size": 20, "cluster_id": 1, "rank_in_cluster": 13}

$$$$

     RDKit          3D

 68 73  0  0  0  0  0  0  0  0999 V2000
  146.6880   73.4020  222.3110 C   0  0  0  0  0  0  0  0  0  0  0  0
  145.7640   73.7090  221.1320 C   0  0  0  0  0  0  0  0  0  0  0  0
  146.3510   73.3190  219.8410 N   0  0  0  0  0  0  0  0  0  0  0  0
  145.7240   72.1210  219.2310 C   0  0  1  0  0  0  0  0  0  0  0  0
  144.3970   71.7390  219.9200 C   0  0  0  0  0  0  0  0  0  0  0  0
  143.3570   72.7110  219.5720 N   0  0  0  0  0  0  0  0  0  0  0  0
  142.3800   73.1350  220.5430 C   0  0  0  0  0  0  0  0  0  0  0  0
  142.0170   74.4410  220.6210 N   0  0  0  0  0  0  0  0  0  0  0  0
  141.0780   74.8500  221.5130 C   0  0  0  0  0  0  0  0  0  0  0  0
  140.6710   76.2340  221.5530 N   0  0  0  0  0  0  0  0  0  0  0  0
  139.9830   76.8190  220.3890 C   0  0  0  0  0  0  0  0  0  0  0  0
  139.1280   78.0220  220.7860 C   0  0  0  0  0  0  0  0  0  0  0  0
  139.9540   79.0050  221.5590 C   0  0  0  0  0  0  0  0  0  0  0  0
  139.7710   80.3880  221.3880 C   0  0  0  0  0  0  0  0  0  0  0  0
  140.5280   81.2920  222.1400 C   0  0  0  0  0  0  0  0  0  0  0  0
  141.4540   80.8230  223.0750 C   0  0  0  0  0  0  0  0  0  0  0  0
  141.6290   79.4470  223.2590 C   0  0  0  0  0  0  0  0  0  0  0  0
  140.8890   78.5310  222.4940 C   0  0  0  0  0  0  0  0  0  0  0  0
  141.0620   77.0490  222.7210 C   0  0  0  0  0  0  0  0  0  0  0  0
  140.5080   73.9380  222.3420 N   0  0  0  0  0  0  0  0  0  0  0  0
  140.8640   72.6260  222.2790 C   0  0  0  0  0  0  0  0  0  0  0  0
  140.2620   71.6660  223.1700 N   0  0  0  0  0  0  0  0  0  0  0  0
  139.2790   70.7090  222.6300 C   0  0  0  0  0  0  0  0  0  0  0  0
  138.3860   70.1190  223.7250 C   0  0  0  0  0  0  0  0  0  0  0  0
  139.2240   69.6050  224.8550 C   0  0  0  0  0  0  0  0  0  0  0  0
  138.8820   68.4210  225.5300 C   0  0  0  0  0  0  0  0  0  0  0  0
  139.6610   67.9750  226.6010 C   0  0  0  0  0  0  0  0  0  0  0  0
  140.7730   68.7120  227.0130 C   0  0  0  0  0  0  0  0  0  0  0  0
  141.1070   69.9020  226.3570 C   0  0  0  0  0  0  0  0  0  0  0  0
  140.3410   70.3490  225.2700 C   0  0  0  0  0  0  0  0  0  0  0  0
  140.6720   71.6530  224.5880 C   0  0  0  0  0  0  0  0  0  0  0  0
  141.7950   72.2320  221.3720 N   0  0  0  0  0  0  0  0  0  0  0  0
  143.2260   73.0590  218.1550 C   0  0  0  0  0  0  0  0  0  0  0  0
  144.6120   73.3650  217.5760 C   0  0  0  0  0  0  0  0  0  0  0  0
  145.5300   72.3150  217.8360 O   0  0  0  0  0  0  0  0  0  0  0  0
  146.1507   73.5805  223.2541 H   0  0  0  0  0  0  0  0  0  0  0  0
  147.0058   72.3500  222.2635 H   0  0  0  0  0  0  0  0  0  0  0  0
  147.5722   74.0546  222.2635 H   0  0  0  0  0  0  0  0  0  0  0  0
  144.8206   73.1606  221.2708 H   0  0  0  0  0  0  0  0  0  0  0  0
  145.5997   74.7964  221.1100 H   0  0  0  0  0  0  0  0  0  0  0  0
  146.3470   74.1360  219.1870 H   0  0  0  0  0  0  0  0  0  0  0  0
  146.4168   71.2797  219.3802 H   0  0  0  0  0  0  0  0  0  0  0  0
  144.0873   70.7379  219.5856 H   0  0  0  0  0  0  0  0  0  0  0  0
  144.5420   71.7382  221.0104 H   0  0  0  0  0  0  0  0  0  0  0  0
  140.7357   77.1428  219.6552 H   0  0  0  0  0  0  0  0  0  0  0  0
  139.3203   76.0527  219.9605 H   0  0  0  0  0  0  0  0  0  0  0  0
  138.7384   78.5073  219.8789 H   0  0  0  0  0  0  0  0  0  0  0  0
  138.2924   77.6796  221.4141 H   0  0  0  0  0  0  0  0  0  0  0  0
  139.0322   80.7594  220.6626 H   0  0  0  0  0  0  0  0  0  0  0  0
  140.3941   82.3742  221.9950 H   0  0  0  0  0  0  0  0  0  0  0  0
  142.0462   81.5362  223.6672 H   0  0  0  0  0  0  0  0  0  0  0  0
  142.3491   79.0814  224.0059 H   0  0  0  0  0  0  0  0  0  0  0  0
  142.1200   76.8508  222.9477 H   0  0  0  0  0  0  0  0  0  0  0  0
  140.4019   76.7657  223.5541 H   0  0  0  0  0  0  0  0  0  0  0  0
  138.6445   71.2284  221.8968 H   0  0  0  0  0  0  0  0  0  0  0  0
  139.8337   69.8815  222.1636 H   0  0  0  0  0  0  0  0  0  0  0  0
  137.7084   70.8997  224.1011 H   0  0  0  0  0  0  0  0  0  0  0  0
  137.8031   69.2870  223.3031 H   0  0  0  0  0  0  0  0  0  0  0  0
  137.9998   67.8444  225.2149 H   0  0  0  0  0  0  0  0  0  0  0  0
  139.3977   67.0417  227.1203 H   0  0  0  0  0  0  0  0  0  0  0  0
  141.3869   68.3569  227.8538 H   0  0  0  0  0  0  0  0  0  0  0  0
  141.9735   70.4893  226.6949 H   0  0  0  0  0  0  0  0  0  0  0  0
  140.1529   72.4682  225.1134 H   0  0  0  0  0  0  0  0  0  0  0  0
  141.7638   71.7821  224.6228 H   0  0  0  0  0  0  0  0  0  0  0  0
  142.7785   72.2150  217.6096 H   0  0  0  0  0  0  0  0  0  0  0  0
  142.5810   73.9441  218.0520 H   0  0  0  0  0  0  0  0  0  0  0  0
  144.5226   73.4997  216.4880 H   0  0  0  0  0  0  0  0  0  0  0  0
  144.9908   74.2798  218.0553 H   0  0  0  0  0  0  0  0  0  0  0  0
  1  2  1  0
  2  3  1  0
  3  4  1  0
  4  5  1  0
  5  6  1  0
  6  7  1  0
  7  8  2  0
  8  9  1  0
  9 10  1  0
 10 11  1  0
 11 12  1  0
 12 13  1  0
 13 14  2  0
 14 15  1  0
 15 16  2  0
 16 17  1  0
 17 18  2  0
 18 19  1  0
  9 20  2  0
 20 21  1  0
 21 22  1  0
 22 23  1  0
 23 24  1  0
 24 25  1  0
 25 26  2  0
 26 27  1  0
 27 28  2  0
 28 29  1  0
 29 30  2  0
 30 31  1  0
 21 32  2  0
  6 33  1  0
 33 34  1  0
 34 35  1  0
 35  4  1  0
 32  7  1  0
 19 10  1  0
 31 22  1  0
 18 13  1  0
 30 25  1  0
  1 36  1  0
  1 37  1  0
  1 38  1  0
  2 39  1  0
  2 40  1  0
  3 41  1  0
  4 42  1  6
  5 43  1  0
  5 44  1  0
 11 45  1  0
 11 46  1  0
 12 47  1  0
 12 48  1  0
 14 49  1  0
 15 50  1  0
 16 51  1  0
 17 52  1  0
 19 53  1  0
 19 54  1  0
 23 55  1  0
 23 56  1  0
 24 57  1  0
 24 58  1  0
 26 59  1  0
 27 60  1  0
 28 61  1  0
 29 62  1  0
 31 63  1  0
 31 64  1  0
 33 65  1  0
 33 66  1  0
 34 67  1  0
 34 68  1  0
M  END
>  <meeko>  (13) 
{"free_energy": -10.67, "intermolecular_energy": -12.16, "internal_energy": -1.02, "cluster_size": 20, "cluster_id": 1, "rank_in_cluster": 2}

$$$$

     RDKit          3D

 68 73  0  0  0  0  0  0  0  0999 V2000
  146.6370   74.4720  215.8330 C   0  0  0  0  0  0  0  0  0  0  0  0
  145.2270   73.9430  216.1000 C   0  0  0  0  0  0  0  0  0  0  0  0
  144.8240   74.1000  217.5060 N   0  0  0  0  0  0  0  0  0  0  0  0
  145.6430   73.3130  218.4590 C   0  0  1  0  0  0  0  0  0  0  0  0
  145.1010   73.3900  219.9010 C   0  0  0  0  0  0  0  0  0  0  0  0
  143.8620   72.6140  220.0100 N   0  0  0  0  0  0  0  0  0  0  0  0
  142.7650   73.0750  220.8230 C   0  0  0  0  0  0  0  0  0  0  0  0
  142.4060   74.3840  220.8070 N   0  0  0  0  0  0  0  0  0  0  0  0
  141.3570   74.8270  221.5480 C   0  0  0  0  0  0  0  0  0  0  0  0
  140.9610   76.2140  221.4870 N   0  0  0  0  0  0  0  0  0  0  0  0
  140.6040   76.8060  220.1850 C   0  0  0  0  0  0  0  0  0  0  0  0
  139.6810   78.0130  220.3510 C   0  0  0  0  0  0  0  0  0  0  0  0
  140.2820   78.9890  221.3170 C   0  0  0  0  0  0  0  0  0  0  0  0
  140.1570   80.3740  221.1100 C   0  0  0  0  0  0  0  0  0  0  0  0
  140.6960   81.2700  222.0370 C   0  0  0  0  0  0  0  0  0  0  0  0
  141.3430   80.7930  223.1790 C   0  0  0  0  0  0  0  0  0  0  0  0
  141.4570   79.4160  223.3970 C   0  0  0  0  0  0  0  0  0  0  0  0
  140.9380   78.5070  222.4620 C   0  0  0  0  0  0  0  0  0  0  0  0
  141.0380   77.0230  222.7200 C   0  0  0  0  0  0  0  0  0  0  0  0
  140.6710   73.9460  222.3210 N   0  0  0  0  0  0  0  0  0  0  0  0
  141.0190   72.6310  222.3500 C   0  0  0  0  0  0  0  0  0  0  0  0
  140.2930   71.7040  223.1810 N   0  0  0  0  0  0  0  0  0  0  0  0
  139.2120   70.9030  222.5790 C   0  0  0  0  0  0  0  0  0  0  0  0
  138.2360   70.3670  223.6320 C   0  0  0  0  0  0  0  0  0  0  0  0
  138.9880   69.6960  224.7400 C   0  0  0  0  0  0  0  0  0  0  0  0
  138.4950   68.5280  225.3450 C   0  0  0  0  0  0  0  0  0  0  0  0
  139.1970   67.9340  226.3970 C   0  0  0  0  0  0  0  0  0  0  0  0
  140.3830   68.5090  226.8600 C   0  0  0  0  0  0  0  0  0  0  0  0
  140.8680   69.6830  226.2740 C   0  0  0  0  0  0  0  0  0  0  0  0
  140.1790   70.2770  225.2050 C   0  0  0  0  0  0  0  0  0  0  0  0
  140.6740   71.5660  224.6000 C   0  0  0  0  0  0  0  0  0  0  0  0
  142.0630   72.2020  221.5930 N   0  0  0  0  0  0  0  0  0  0  0  0
  143.8760   71.2650  219.4390 C   0  0  0  0  0  0  0  0  0  0  0  0
  144.4820   71.3140  218.0330 C   0  0  0  0  0  0  0  0  0  0  0  0
  145.7450   71.9610  218.0300 O   0  0  0  0  0  0  0  0  0  0  0  0
  147.1445   74.6624  216.7901 H   0  0  0  0  0  0  0  0  0  0  0  0
  147.2058   73.7261  215.2584 H   0  0  0  0  0  0  0  0  0  0  0  0
  146.5748   75.4079  215.2584 H   0  0  0  0  0  0  0  0  0  0  0  0
  144.5173   74.4944  215.4658 H   0  0  0  0  0  0  0  0  0  0  0  0
  145.2240   72.8675  215.8692 H   0  0  0  0  0  0  0  0  0  0  0  0
  144.8020   75.1160  217.7580 H   0  0  0  0  0  0  0  0  0  0  0  0
  146.6481   73.7599  218.4705 H   0  0  0  0  0  0  0  0  0  0  0  0
  145.8501   72.9805  220.5947 H   0  0  0  0  0  0  0  0  0  0  0  0
  144.8943   74.4402  220.1548 H   0  0  0  0  0  0  0  0  0  0  0  0
  141.5239   77.1273  219.6745 H   0  0  0  0  0  0  0  0  0  0  0  0
  140.0730   76.0449  219.5945 H   0  0  0  0  0  0  0  0  0  0  0  0
  139.5435   78.5033  219.3759 H   0  0  0  0  0  0  0  0  0  0  0  0
  138.7090   77.6737  220.7383 H   0  0  0  0  0  0  0  0  0  0  0  0
  139.6351   80.7522  220.2186 H   0  0  0  0  0  0  0  0  0  0  0  0
  140.6105   82.3534  221.8668 H   0  0  0  0  0  0  0  0  0  0  0  0
  141.7636   81.5012  223.9081 H   0  0  0  0  0  0  0  0  0  0  0  0
  141.9552   79.0442  224.3045 H   0  0  0  0  0  0  0  0  0  0  0  0
  141.9991   76.8176  223.2140 H   0  0  0  0  0  0  0  0  0  0  0  0
  140.1820   76.7415  223.3509 H   0  0  0  0  0  0  0  0  0  0  0  0
  138.6566   71.5335  221.8691 H   0  0  0  0  0  0  0  0  0  0  0  0
  139.6710   70.0409  222.0730 H   0  0  0  0  0  0  0  0  0  0  0  0
  137.6509   71.2025  224.0439 H   0  0  0  0  0  0  0  0  0  0  0  0
  137.5643   69.6352  223.1594 H   0  0  0  0  0  0  0  0  0  0  0  0
  137.5550   68.0804  224.9901 H   0  0  0  0  0  0  0  0  0  0  0  0
  138.8154   67.0126  226.8611 H   0  0  0  0  0  0  0  0  0  0  0  0
  140.9360   68.0382  227.6861 H   0  0  0  0  0  0  0  0  0  0  0  0
  141.7930   70.1425  226.6524 H   0  0  0  0  0  0  0  0  0  0  0  0
  140.2465   72.4081  225.1641 H   0  0  0  0  0  0  0  0  0  0  0  0
  141.7727   71.5615  224.6535 H   0  0  0  0  0  0  0  0  0  0  0  0
  144.4806   70.6030  220.0763 H   0  0  0  0  0  0  0  0  0  0  0  0
  142.8474   70.8792  219.3826 H   0  0  0  0  0  0  0  0  0  0  0  0
  144.6068   70.2859  217.6622 H   0  0  0  0  0  0  0  0  0  0  0  0
  143.8014   71.8858  217.3851 H   0  0  0  0  0  0  0  0  0  0  0  0
  1  2  1  0
  2  3  1  0
  3  4  1  0
  4  5  1  0
  5  6  1  0
  6  7  1  0
  7  8  2  0
  8  9  1  0
  9 10  1  0
 10 11  1  0
 11 12  1  0
 12 13  1  0
 13 14  2  0
 14 15  1  0
 15 16  2  0
 16 17  1  0
 17 18  2  0
 18 19  1  0
  9 20  2  0
 20 21  1  0
 21 22  1  0
 22 23  1  0
 23 24  1  0
 24 25  1  0
 25 26  2  0
 26 27  1  0
 27 28  2  0
 28 29  1  0
 29 30  2  0
 30 31  1  0
 21 32  2  0
  6 33  1  0
 33 34  1  0
 34 35  1  0
 35  4  1  0
 32  7  1  0
 19 10  1  0
 31 22  1  0
 18 13  1  0
 30 25  1  0
  1 36  1  0
  1 37  1  0
  1 38  1  0
  2 39  1  0
  2 40  1  0
  3 41  1  0
  4 42  1  1
  5 43  1  0
  5 44  1  0
 11 45  1  0
 11 46  1  0
 12 47  1  0
 12 48  1  0
 14 49  1  0
 15 50  1  0
 16 51  1  0
 17 52  1  0
 19 53  1  0
 19 54  1  0
 23 55  1  0
 23 56  1  0
 24 57  1  0
 24 58  1  0
 26 59  1  0
 27 60  1  0
 28 61  1  0
 29 62  1  0
 31 63  1  0
 31 64  1  0
 33 65  1  0
 33 66  1  0
 34 67  1  0
 34 68  1  0
M  END
>  <meeko>  (14) 
{"free_energy": -9.27, "intermolecular_energy": -10.76, "internal_energy": -0.9, "cluster_size": 20, "cluster_id": 1, "rank_in_cluster": 20}

$$$$

     RDKit          3D

 68 73  0  0  0  0  0  0  0  0999 V2000
  146.7030   73.3910  222.1130 C   0  0  0  0  0  0  0  0  0  0  0  0
  145.8520   73.8710  220.9370 C   0  0  0  0  0  0  0  0  0  0  0  0
  146.3580   73.3890  219.6420 N   0  0  0  0  0  0  0  0  0  0  0  0
  145.8350   72.0590  219.2480 C   0  0  1  0  0  0  0  0  0  0  0  0
  144.5840   71.6580  220.0570 C   0  0  0  0  0  0  0  0  0  0  0  0
  143.4350   72.4620  219.6310 N   0  0  0  0  0  0  0  0  0  0  0  0
  142.4600   72.9290  220.5840 C   0  0  0  0  0  0  0  0  0  0  0  0
  142.1210   74.2430  220.6250 N   0  0  0  0  0  0  0  0  0  0  0  0
  141.1840   74.6930  221.4990 C   0  0  0  0  0  0  0  0  0  0  0  0
  140.8030   76.0850  221.5010 N   0  0  0  0  0  0  0  0  0  0  0  0
  140.2920   76.6960  220.2610 C   0  0  0  0  0  0  0  0  0  0  0  0
  139.4150   77.9120  220.5520 C   0  0  0  0  0  0  0  0  0  0  0  0
  140.1460   78.8700  221.4430 C   0  0  0  0  0  0  0  0  0  0  0  0
  140.0160   80.2580  221.2660 C   0  0  0  0  0  0  0  0  0  0  0  0
  140.6800   81.1380  222.1240 C   0  0  0  0  0  0  0  0  0  0  0  0
  141.4600   80.6410  223.1720 C   0  0  0  0  0  0  0  0  0  0  0  0
  141.5810   79.2610  223.3610 C   0  0  0  0  0  0  0  0  0  0  0  0
  140.9350   78.3680  222.4910 C   0  0  0  0  0  0  0  0  0  0  0  0
  141.0460   76.8800  222.7220 C   0  0  0  0  0  0  0  0  0  0  0  0
  140.5910   73.8130  222.3480 N   0  0  0  0  0  0  0  0  0  0  0  0
  140.9230   72.4940  222.3220 C   0  0  0  0  0  0  0  0  0  0  0  0
  140.2980   71.5690  223.2330 N   0  0  0  0  0  0  0  0  0  0  0  0
  139.3040   70.6130  222.7100 C   0  0  0  0  0  0  0  0  0  0  0  0
  138.3910   70.0690  223.8140 C   0  0  0  0  0  0  0  0  0  0  0  0
  139.2110   69.5720  224.9650 C   0  0  0  0  0  0  0  0  0  0  0  0
  138.8430   68.4140  225.6680 C   0  0  0  0  0  0  0  0  0  0  0  0
  139.6040   67.9840  226.7590 C   0  0  0  0  0  0  0  0  0  0  0  0
  140.7250   68.7140  227.1610 C   0  0  0  0  0  0  0  0  0  0  0  0
  141.0850   69.8800  226.4760 C   0  0  0  0  0  0  0  0  0  0  0  0
  140.3360   70.3090  225.3690 C   0  0  0  0  0  0  0  0  0  0  0  0
  140.6940   71.5880  224.6550 C   0  0  0  0  0  0  0  0  0  0  0  0
  141.8530   72.0590  221.4320 N   0  0  0  0  0  0  0  0  0  0  0  0
  143.2110   72.5810  218.1880 C   0  0  0  0  0  0  0  0  0  0  0  0
  144.5320   72.9290  217.4950 C   0  0  0  0  0  0  0  0  0  0  0  0
  145.5650   72.0240  217.8520 O   0  0  0  0  0  0  0  0  0  0  0  0
  146.2123   73.6678  223.0578 H   0  0  0  0  0  0  0  0  0  0  0  0
  146.8132   72.2976  222.0637 H   0  0  0  0  0  0  0  0  0  0  0  0
  147.6957   73.8622  222.0637 H   0  0  0  0  0  0  0  0  0  0  0  0
  144.8238   73.5044  221.0727 H   0  0  0  0  0  0  0  0  0  0  0  0
  145.8906   74.9702  220.9229 H   0  0  0  0  0  0  0  0  0  0  0  0
  146.1870   74.1100  218.9030 H   0  0  0  0  0  0  0  0  0  0  0  0
  146.6165   71.3201  219.4788 H   0  0  0  0  0  0  0  0  0  0  0  0
  144.3665   70.5930  219.8882 H   0  0  0  0  0  0  0  0  0  0  0  0
  144.7726   71.8343  221.1263 H   0  0  0  0  0  0  0  0  0  0  0  0
  141.1443   77.0110  219.6410 H   0  0  0  0  0  0  0  0  0  0  0  0
  139.6792   75.9480  219.7366 H   0  0  0  0  0  0  0  0  0  0  0  0
  139.1630   78.4141  219.6063 H   0  0  0  0  0  0  0  0  0  0  0  0
  138.4947   77.5811  221.0556 H   0  0  0  0  0  0  0  0  0  0  0  0
  139.3908   80.6519  220.4511 H   0  0  0  0  0  0  0  0  0  0  0  0
  140.5888   82.2240  221.9746 H   0  0  0  0  0  0  0  0  0  0  0  0
  141.9790   81.3360  223.8485 H   0  0  0  0  0  0  0  0  0  0  0  0
  142.1848   78.8732  224.1947 H   0  0  0  0  0  0  0  0  0  0  0  0
  142.0587   76.6572  223.0892 H   0  0  0  0  0  0  0  0  0  0  0  0
  140.2727   76.6028  223.4536 H   0  0  0  0  0  0  0  0  0  0  0  0
  138.6849   71.1217  221.9564 H   0  0  0  0  0  0  0  0  0  0  0  0
  139.8487   69.7637  222.2718 H   0  0  0  0  0  0  0  0  0  0  0  0
  137.7243   70.8715  224.1625 H   0  0  0  0  0  0  0  0  0  0  0  0
  137.7967   69.2360  223.4104 H   0  0  0  0  0  0  0  0  0  0  0  0
  137.9542   67.8439  225.3598 H   0  0  0  0  0  0  0  0  0  0  0  0
  139.3198   67.0701  227.3013 H   0  0  0  0  0  0  0  0  0  0  0  0
  141.3254   68.3720  228.0169 H   0  0  0  0  0  0  0  0  0  0  0  0
  141.9579   70.4623  226.8061 H   0  0  0  0  0  0  0  0  0  0  0  0
  140.1830   72.4253  225.1528 H   0  0  0  0  0  0  0  0  0  0  0  0
  141.7874   71.7006  224.6970 H   0  0  0  0  0  0  0  0  0  0  0  0
  142.8311   71.6261  217.7956 H   0  0  0  0  0  0  0  0  0  0  0  0
  142.4745   73.3748  217.9948 H   0  0  0  0  0  0  0  0  0  0  0  0
  144.3844   72.8901  216.4056 H   0  0  0  0  0  0  0  0  0  0  0  0
  144.8328   73.9373  217.8156 H   0  0  0  0  0  0  0  0  0  0  0  0
  1  2  1  0
  2  3  1  0
  3  4  1  0
  4  5  1  0
  5  6  1  0
  6  7  1  0
  7  8  2  0
  8  9  1  0
  9 10  1  0
 10 11  1  0
 11 12  1  0
 12 13  1  0
 13 14  2  0
 14 15  1  0
 15 16  2  0
 16 17  1  0
 17 18  2  0
 18 19  1  0
  9 20  2  0
 20 21  1  0
 21 22  1  0
 22 23  1  0
 23 24  1  0
 24 25  1  0
 25 26  2  0
 26 27  1  0
 27 28  2  0
 28 29  1  0
 29 30  2  0
 30 31  1  0
 21 32  2  0
  6 33  1  0
 33 34  1  0
 34 35  1  0
 35  4  1  0
 32  7  1  0
 19 10  1  0
 31 22  1  0
 18 13  1  0
 30 25  1  0
  1 36  1  0
  1 37  1  0
  1 38  1  0
  2 39  1  0
  2 40  1  0
  3 41  1  0
  4 42  1  6
  5 43  1  0
  5 44  1  0
 11 45  1  0
 11 46  1  0
 12 47  1  0
 12 48  1  0
 14 49  1  0
 15 50  1  0
 16 51  1  0
 17 52  1  0
 19 53  1  0
 19 54  1  0
 23 55  1  0
 23 56  1  0
 24 57  1  0
 24 58  1  0
 26 59  1  0
 27 60  1  0
 28 61  1  0
 29 62  1  0
 31 63  1  0
 31 64  1  0
 33 65  1  0
 33 66  1  0
 34 67  1  0
 34 68  1  0
M  END
>  <meeko>  (15) 
{"free_energy": -10.59, "intermolecular_energy": -12.08, "internal_energy": -1.03, "cluster_size": 20, "cluster_id": 1, "rank_in_cluster": 8}

$$$$

     RDKit          3D

 68 73  0  0  0  0  0  0  0  0999 V2000
  146.4190   73.3920  221.8070 C   0  0  0  0  0  0  0  0  0  0  0  0
  145.6700   73.7460  220.5210 C   0  0  0  0  0  0  0  0  0  0  0  0
  146.2650   73.1160  219.3320 N   0  0  0  0  0  0  0  0  0  0  0  0
  145.5960   71.8600  218.9170 C   0  0  1  0  0  0  0  0  0  0  0  0
  144.3430   71.5550  219.7660 C   0  0  0  0  0  0  0  0  0  0  0  0
  143.2660   72.4850  219.4140 N   0  0  0  0  0  0  0  0  0  0  0  0
  142.3800   73.0120  220.4220 C   0  0  0  0  0  0  0  0  0  0  0  0
  142.1340   74.3450  220.4850 N   0  0  0  0  0  0  0  0  0  0  0  0
  141.2810   74.8530  221.4120 C   0  0  0  0  0  0  0  0  0  0  0  0
  140.9970   76.2670  221.4380 N   0  0  0  0  0  0  0  0  0  0  0  0
  140.7570   76.9790  220.1700 C   0  0  0  0  0  0  0  0  0  0  0  0
  139.9220   78.2410  220.3830 C   0  0  0  0  0  0  0  0  0  0  0  0
  140.5420   79.0930  221.4480 C   0  0  0  0  0  0  0  0  0  0  0  0
  140.5360   80.4950  221.3420 C   0  0  0  0  0  0  0  0  0  0  0  0
  141.0910   81.2760  222.3600 C   0  0  0  0  0  0  0  0  0  0  0  0
  141.6370   80.6660  223.4930 C   0  0  0  0  0  0  0  0  0  0  0  0
  141.6320   79.2730  223.6100 C   0  0  0  0  0  0  0  0  0  0  0  0
  141.0960   78.4780  222.5830 C   0  0  0  0  0  0  0  0  0  0  0  0
  141.0680   76.9760  222.7320 C   0  0  0  0  0  0  0  0  0  0  0  0
  140.6790   74.0100  222.2920 N   0  0  0  0  0  0  0  0  0  0  0  0
  140.9180   72.6720  222.2450 C   0  0  0  0  0  0  0  0  0  0  0  0
  140.2840   71.7860  223.1880 N   0  0  0  0  0  0  0  0  0  0  0  0
  139.3060   70.7990  222.6940 C   0  0  0  0  0  0  0  0  0  0  0  0
  138.3780   70.3010  223.8070 C   0  0  0  0  0  0  0  0  0  0  0  0
  139.1810   69.8660  224.9940 C   0  0  0  0  0  0  0  0  0  0  0  0
  138.8090   68.7390  225.7460 C   0  0  0  0  0  0  0  0  0  0  0  0
  139.5550   68.3670  226.8680 C   0  0  0  0  0  0  0  0  0  0  0  0
  140.6640   69.1240  227.2530 C   0  0  0  0  0  0  0  0  0  0  0  0
  141.0280   70.2590  226.5200 C   0  0  0  0  0  0  0  0  0  0  0  0
  140.2940   70.6290  225.3810 C   0  0  0  0  0  0  0  0  0  0  0  0
  140.6560   71.8760  224.6130 C   0  0  0  0  0  0  0  0  0  0  0  0
  141.7640   72.1800  221.3020 N   0  0  0  0  0  0  0  0  0  0  0  0
  142.9980   72.6770  217.9870 C   0  0  0  0  0  0  0  0  0  0  0  0
  144.3200   72.9180  217.2500 C   0  0  0  0  0  0  0  0  0  0  0  0
  145.2700   71.9020  217.5340 O   0  0  0  0  0  0  0  0  0  0  0  0
  145.8103   73.6797  222.6769 H   0  0  0  0  0  0  0  0  0  0  0  0
  146.6089   72.3089  221.8344 H   0  0  0  0  0  0  0  0  0  0  0  0
  147.3764   73.9329  221.8344 H   0  0  0  0  0  0  0  0  0  0  0  0
  144.6275   73.4079  220.6152 H   0  0  0  0  0  0  0  0  0  0  0  0
  145.7305   74.8362  220.3877 H   0  0  0  0  0  0  0  0  0  0  0  0
  146.3130   73.8090  218.5490 H   0  0  0  0  0  0  0  0  0  0  0  0
  146.3080   71.0395  219.0898 H   0  0  0  0  0  0  0  0  0  0  0  0
  144.0128   70.5238  219.5723 H   0  0  0  0  0  0  0  0  0  0  0  0
  144.5894   71.6714  220.8317 H   0  0  0  0  0  0  0  0  0  0  0  0
  141.7250   77.2614  219.7304 H   0  0  0  0  0  0  0  0  0  0  0  0
  140.2014   76.3080  219.4984 H   0  0  0  0  0  0  0  0  0  0  0  0
  139.8756   78.8099  219.4427 H   0  0  0  0  0  0  0  0  0  0  0  0
  138.9074   77.9536  220.6961 H   0  0  0  0  0  0  0  0  0  0  0  0
  140.0944   80.9776  220.4576 H   0  0  0  0  0  0  0  0  0  0  0  0
  141.0981   82.3722  222.2693 H   0  0  0  0  0  0  0  0  0  0  0  0
  142.0712   81.2829  224.2936 H   0  0  0  0  0  0  0  0  0  0  0  0
  142.0494   78.7974  224.5097 H   0  0  0  0  0  0  0  0  0  0  0  0
  141.9821   76.6589  223.2553 H   0  0  0  0  0  0  0  0  0  0  0  0
  140.1600   76.7191  223.2972 H   0  0  0  0  0  0  0  0  0  0  0  0
  138.6966   71.2668  221.9068 H   0  0  0  0  0  0  0  0  0  0  0  0
  139.8639   69.9342  222.3056 H   0  0  0  0  0  0  0  0  0  0  0  0
  137.6997   71.1139  224.1054 H   0  0  0  0  0  0  0  0  0  0  0  0
  137.7969   69.4449  223.4336 H   0  0  0  0  0  0  0  0  0  0  0  0
  137.9291   68.1483  225.4512 H   0  0  0  0  0  0  0  0  0  0  0  0
  139.2685   67.4775  227.4482 H   0  0  0  0  0  0  0  0  0  0  0  0
  141.2522   68.8274  228.1339 H   0  0  0  0  0  0  0  0  0  0  0  0
  141.8911   70.8630  226.8366 H   0  0  0  0  0  0  0  0  0  0  0  0
  140.1313   72.7323  225.0618 H   0  0  0  0  0  0  0  0  0  0  0  0
  141.7477   71.9990  224.6678 H   0  0  0  0  0  0  0  0  0  0  0  0
  142.5096   71.7789  217.5810 H   0  0  0  0  0  0  0  0  0  0  0  0
  142.3369   73.5455  217.8504 H   0  0  0  0  0  0  0  0  0  0  0  0
  144.1272   72.9337  216.1671 H   0  0  0  0  0  0  0  0  0  0  0  0
  144.7328   73.8793  217.5898 H   0  0  0  0  0  0  0  0  0  0  0  0
  1  2  1  0
  2  3  1  0
  3  4  1  0
  4  5  1  0
  5  6  1  0
  6  7  1  0
  7  8  2  0
  8  9  1  0
  9 10  1  0
 10 11  1  0
 11 12  1  0
 12 13  1  0
 13 14  2  0
 14 15  1  0
 15 16  2  0
 16 17  1  0
 17 18  2  0
 18 19  1  0
  9 20  2  0
 20 21  1  0
 21 22  1  0
 22 23  1  0
 23 24  1  0
 24 25  1  0
 25 26  2  0
 26 27  1  0
 27 28  2  0
 28 29  1  0
 29 30  2  0
 30 31  1  0
 21 32  2  0
  6 33  1  0
 33 34  1  0
 34 35  1  0
 35  4  1  0
 32  7  1  0
 19 10  1  0
 31 22  1  0
 18 13  1  0
 30 25  1  0
  1 36  1  0
  1 37  1  0
  1 38  1  0
  2 39  1  0
  2 40  1  0
  3 41  1  0
  4 42  1  6
  5 43  1  0
  5 44  1  0
 11 45  1  0
 11 46  1  0
 12 47  1  0
 12 48  1  0
 14 49  1  0
 15 50  1  0
 16 51  1  0
 17 52  1  0
 19 53  1  0
 19 54  1  0
 23 55  1  0
 23 56  1  0
 24 57  1  0
 24 58  1  0
 26 59  1  0
 27 60  1  0
 28 61  1  0
 29 62  1  0
 31 63  1  0
 31 64  1  0
 33 65  1  0
 33 66  1  0
 34 67  1  0
 34 68  1  0
M  END
>  <meeko>  (16) 
{"free_energy": -10.56, "intermolecular_energy": -12.05, "internal_energy": -1.02, "cluster_size": 20, "cluster_id": 1, "rank_in_cluster": 9}

$$$$

     RDKit          3D

 68 73  0  0  0  0  0  0  0  0999 V2000
  146.6860   73.3860  222.1220 C   0  0  0  0  0  0  0  0  0  0  0  0
  145.7540   73.6710  220.9430 C   0  0  0  0  0  0  0  0  0  0  0  0
  146.3210   73.2290  219.6590 N   0  0  0  0  0  0  0  0  0  0  0  0
  145.6500   72.0400  219.0820 C   0  0  1  0  0  0  0  0  0  0  0  0
  144.3310   71.7010  219.8070 C   0  0  0  0  0  0  0  0  0  0  0  0
  143.3080   72.6950  219.4700 N   0  0  0  0  0  0  0  0  0  0  0  0
  142.3650   73.1560  220.4580 C   0  0  0  0  0  0  0  0  0  0  0  0
  142.0580   74.4750  220.5450 N   0  0  0  0  0  0  0  0  0  0  0  0
  141.1520   74.9210  221.4530 C   0  0  0  0  0  0  0  0  0  0  0  0
  140.8040   76.3200  221.5040 N   0  0  0  0  0  0  0  0  0  0  0  0
  140.3100   76.9860  220.2850 C   0  0  0  0  0  0  0  0  0  0  0  0
  139.4610   78.2120  220.6190 C   0  0  0  0  0  0  0  0  0  0  0  0
  140.2130   79.1210  221.5430 C   0  0  0  0  0  0  0  0  0  0  0  0
  140.1160   80.5170  221.4160 C   0  0  0  0  0  0  0  0  0  0  0  0
  140.7990   81.3500  222.3060 C   0  0  0  0  0  0  0  0  0  0  0  0
  141.5650   80.7970  223.3360 C   0  0  0  0  0  0  0  0  0  0  0  0
  141.6530   79.4090  223.4770 C   0  0  0  0  0  0  0  0  0  0  0  0
  140.9880   78.5630  222.5750 C   0  0  0  0  0  0  0  0  0  0  0  0
  141.0630   77.0660  222.7520 C   0  0  0  0  0  0  0  0  0  0  0  0
  140.5580   74.0300  222.2900 N   0  0  0  0  0  0  0  0  0  0  0  0
  140.8570   72.7050  222.2190 C   0  0  0  0  0  0  0  0  0  0  0  0
  140.2310   71.7680  223.1160 N   0  0  0  0  0  0  0  0  0  0  0  0
  139.1780   70.8760  222.5970 C   0  0  0  0  0  0  0  0  0  0  0  0
  138.2890   70.3220  223.7150 C   0  0  0  0  0  0  0  0  0  0  0  0
  139.1320   69.7450  224.8100 C   0  0  0  0  0  0  0  0  0  0  0  0
  138.7450   68.5740  225.4810 C   0  0  0  0  0  0  0  0  0  0  0  0
  139.5310   68.0690  226.5210 C   0  0  0  0  0  0  0  0  0  0  0  0
  140.6960   68.7360  226.9040 C   0  0  0  0  0  0  0  0  0  0  0  0
  141.0760   69.9140  226.2530 C   0  0  0  0  0  0  0  0  0  0  0  0
  140.3020   70.4190  225.1960 C   0  0  0  0  0  0  0  0  0  0  0  0
  140.6850   71.7120  224.5200 C   0  0  0  0  0  0  0  0  0  0  0  0
  141.7560   72.2750  221.2950 N   0  0  0  0  0  0  0  0  0  0  0  0
  143.1510   73.0270  218.0520 C   0  0  0  0  0  0  0  0  0  0  0  0
  144.5290   73.2890  217.4360 C   0  0  0  0  0  0  0  0  0  0  0  0
  145.4270   72.2210  217.6890 O   0  0  0  0  0  0  0  0  0  0  0  0
  146.1450   73.5514  223.0654 H   0  0  0  0  0  0  0  0  0  0  0  0
  147.0290   72.3419  222.0742 H   0  0  0  0  0  0  0  0  0  0  0  0
  147.5542   74.0597  222.0742 H   0  0  0  0  0  0  0  0  0  0  0  0
  144.8030   73.1438  221.1092 H   0  0  0  0  0  0  0  0  0  0  0  0
  145.6074   74.7598  220.8874 H   0  0  0  0  0  0  0  0  0  0  0  0
  146.3420   74.0300  218.9860 H   0  0  0  0  0  0  0  0  0  0  0  0
  146.3247   71.1834  219.2271 H   0  0  0  0  0  0  0  0  0  0  0  0
  143.9882   70.7039  219.4936 H   0  0  0  0  0  0  0  0  0  0  0  0
  144.5017   71.7104  220.8936 H   0  0  0  0  0  0  0  0  0  0  0  0
  141.1706   77.3024  219.6773 H   0  0  0  0  0  0  0  0  0  0  0  0
  139.6811   76.2717  219.7333 H   0  0  0  0  0  0  0  0  0  0  0  0
  139.2215   78.7527  219.6915 H   0  0  0  0  0  0  0  0  0  0  0  0
  138.5331   77.8850  221.1109 H   0  0  0  0  0  0  0  0  0  0  0  0
  139.5018   80.9545  220.6152 H   0  0  0  0  0  0  0  0  0  0  0  0
  140.7337   82.4425  222.1958 H   0  0  0  0  0  0  0  0  0  0  0  0
  142.0995   81.4551  224.0369 H   0  0  0  0  0  0  0  0  0  0  0  0
  142.2454   78.9780  224.2976 H   0  0  0  0  0  0  0  0  0  0  0  0
  142.0693   76.8063  223.1123 H   0  0  0  0  0  0  0  0  0  0  0  0
  140.2810   76.7818  223.4716 H   0  0  0  0  0  0  0  0  0  0  0  0
  138.5505   71.4408  221.8919 H   0  0  0  0  0  0  0  0  0  0  0  0
  139.6687   70.0253  222.1016 H   0  0  0  0  0  0  0  0  0  0  0  0
  137.6701   71.1346  224.1231 H   0  0  0  0  0  0  0  0  0  0  0  0
  137.6462   69.5303  223.3026 H   0  0  0  0  0  0  0  0  0  0  0  0
  137.8216   68.0530  225.1879 H   0  0  0  0  0  0  0  0  0  0  0  0
  139.2313   67.1454  227.0379 H   0  0  0  0  0  0  0  0  0  0  0  0
  141.3160   68.3344  227.7191 H   0  0  0  0  0  0  0  0  0  0  0  0
  141.9846   70.4468  226.5702 H   0  0  0  0  0  0  0  0  0  0  0  0
  140.2303   72.5477  225.0721 H   0  0  0  0  0  0  0  0  0  0  0  0
  141.7830   71.7790  224.5209 H   0  0  0  0  0  0  0  0  0  0  0  0
  142.6689   72.1876  217.5296 H   0  0  0  0  0  0  0  0  0  0  0  0
  142.5263   73.9269  217.9519 H   0  0  0  0  0  0  0  0  0  0  0  0
  144.4164   73.4103  216.3485 H   0  0  0  0  0  0  0  0  0  0  0  0
  144.9418   74.2004  217.8931 H   0  0  0  0  0  0  0  0  0  0  0  0
  1  2  1  0
  2  3  1  0
  3  4  1  0
  4  5  1  0
  5  6  1  0
  6  7  1  0
  7  8  2  0
  8  9  1  0
  9 10  1  0
 10 11  1  0
 11 12  1  0
 12 13  1  0
 13 14  2  0
 14 15  1  0
 15 16  2  0
 16 17  1  0
 17 18  2  0
 18 19  1  0
  9 20  2  0
 20 21  1  0
 21 22  1  0
 22 23  1  0
 23 24  1  0
 24 25  1  0
 25 26  2  0
 26 27  1  0
 27 28  2  0
 28 29  1  0
 29 30  2  0
 30 31  1  0
 21 32  2  0
  6 33  1  0
 33 34  1  0
 34 35  1  0
 35  4  1  0
 32  7  1  0
 19 10  1  0
 31 22  1  0
 18 13  1  0
 30 25  1  0
  1 36  1  0
  1 37  1  0
  1 38  1  0
  2 39  1  0
  2 40  1  0
  3 41  1  0
  4 42  1  6
  5 43  1  0
  5 44  1  0
 11 45  1  0
 11 46  1  0
 12 47  1  0
 12 48  1  0
 14 49  1  0
 15 50  1  0
 16 51  1  0
 17 52  1  0
 19 53  1  0
 19 54  1  0
 23 55  1  0
 23 56  1  0
 24 57  1  0
 24 58  1  0
 26 59  1  0
 27 60  1  0
 28 61  1  0
 29 62  1  0
 31 63  1  0
 31 64  1  0
 33 65  1  0
 33 66  1  0
 34 67  1  0
 34 68  1  0
M  END
>  <meeko>  (17) 
{"free_energy": -10.64, "intermolecular_energy": -12.13, "internal_energy": -1.02, "cluster_size": 20, "cluster_id": 1, "rank_in_cluster": 5}

$$$$

     RDKit          3D

 68 73  0  0  0  0  0  0  0  0999 V2000
  145.2800   74.4260  220.8430 C   0  0  0  0  0  0  0  0  0  0  0  0
  145.9110   73.0700  220.5210 C   0  0  0  0  0  0  0  0  0  0  0  0
  146.1160   72.8730  219.0780 N   0  0  0  0  0  0  0  0  0  0  0  0
  145.2660   71.8110  218.4880 C   0  0  1  0  0  0  0  0  0  0  0  0
  143.9590   71.5990  219.2800 C   0  0  0  0  0  0  0  0  0  0  0  0
  143.0530   72.7300  219.0590 N   0  0  0  0  0  0  0  0  0  0  0  0
  142.2360   73.2480  220.1270 C   0  0  0  0  0  0  0  0  0  0  0  0
  142.0810   74.5880  220.2790 N   0  0  0  0  0  0  0  0  0  0  0  0
  141.2930   75.0910  221.2650 C   0  0  0  0  0  0  0  0  0  0  0  0
  141.1030   76.5160  221.3860 N   0  0  0  0  0  0  0  0  0  0  0  0
  141.0610   77.3450  220.1680 C   0  0  0  0  0  0  0  0  0  0  0  0
  140.2940   78.6460  220.4000 C   0  0  0  0  0  0  0  0  0  0  0  0
  140.8420   79.3590  221.5990 C   0  0  0  0  0  0  0  0  0  0  0  0
  140.9430   80.7600  221.6190 C   0  0  0  0  0  0  0  0  0  0  0  0
  141.4270   81.4110  222.7570 C   0  0  0  0  0  0  0  0  0  0  0  0
  141.7960   80.6710  223.8840 C   0  0  0  0  0  0  0  0  0  0  0  0
  141.6840   79.2770  223.8740 C   0  0  0  0  0  0  0  0  0  0  0  0
  141.2180   78.6120  222.7290 C   0  0  0  0  0  0  0  0  0  0  0  0
  141.0720   77.1100  222.7380 C   0  0  0  0  0  0  0  0  0  0  0  0
  140.6650   74.2350  222.1130 N   0  0  0  0  0  0  0  0  0  0  0  0
  140.8130   72.8900  221.9770 C   0  0  0  0  0  0  0  0  0  0  0  0
  140.1520   71.9890  222.8870 N   0  0  0  0  0  0  0  0  0  0  0  0
  139.0090   71.1950  222.4020 C   0  0  0  0  0  0  0  0  0  0  0  0
  138.1260   70.6940  223.5490 C   0  0  0  0  0  0  0  0  0  0  0  0
  138.9660   70.0300  224.5960 C   0  0  0  0  0  0  0  0  0  0  0  0
  138.5140   68.8810  225.2650 C   0  0  0  0  0  0  0  0  0  0  0  0
  139.3010   68.2930  226.2600 C   0  0  0  0  0  0  0  0  0  0  0  0
  140.5320   68.8570  226.6020 C   0  0  0  0  0  0  0  0  0  0  0  0
  140.9790   70.0120  225.9530 C   0  0  0  0  0  0  0  0  0  0  0  0
  140.2030   70.5990  224.9400 C   0  0  0  0  0  0  0  0  0  0  0  0
  140.6600   71.8690  224.2680 C   0  0  0  0  0  0  0  0  0  0  0  0
  141.5950   72.4040  220.9770 N   0  0  0  0  0  0  0  0  0  0  0  0
  142.8580   73.1590  217.6720 C   0  0  0  0  0  0  0  0  0  0  0  0
  144.2200   73.2820  216.9810 C   0  0  0  0  0  0  0  0  0  0  0  0
  144.9870   72.0970  217.1230 O   0  0  0  0  0  0  0  0  0  0  0  0
  145.2209   74.5531  221.9340 H   0  0  0  0  0  0  0  0  0  0  0  0
  145.8970   75.2289  220.4132 H   0  0  0  0  0  0  0  0  0  0  0  0
  144.2684   74.4710  220.4132 H   0  0  0  0  0  0  0  0  0  0  0  0
  146.8851   73.0048  221.0279 H   0  0  0  0  0  0  0  0  0  0  0  0
  145.2204   72.2884  220.8704 H   0  0  0  0  0  0  0  0  0  0  0  0
  146.0050   73.7850  218.5760 H   0  0  0  0  0  0  0  0  0  0  0  0
  145.8330   70.8702  218.5465 H   0  0  0  0  0  0  0  0  0  0  0  0
  143.4739   70.6715  218.9418 H   0  0  0  0  0  0  0  0  0  0  0  0
  144.1929   71.5264  220.3524 H   0  0  0  0  0  0  0  0  0  0  0  0
  142.0904   77.5866  219.8648 H   0  0  0  0  0  0  0  0  0  0  0  0
  140.5436   76.7758  219.3817 H   0  0  0  0  0  0  0  0  0  0  0  0
  140.3956   79.2912  219.5149 H   0  0  0  0  0  0  0  0  0  0  0  0
  139.2330   78.4130  220.5729 H   0  0  0  0  0  0  0  0  0  0  0  0
  140.6408   81.3453  220.7380 H   0  0  0  0  0  0  0  0  0  0  0  0
  141.5177   82.5072  222.7659 H   0  0  0  0  0  0  0  0  0  0  0  0
  142.1748   81.1855  224.7795 H   0  0  0  0  0  0  0  0  0  0  0  0
  141.9624   78.6990  224.7675 H   0  0  0  0  0  0  0  0  0  0  0  0
  141.8962   76.6818  223.3273 H   0  0  0  0  0  0  0  0  0  0  0  0
  140.0893   76.8789  223.1750 H   0  0  0  0  0  0  0  0  0  0  0  0
  138.4002   71.8216  221.7336 H   0  0  0  0  0  0  0  0  0  0  0  0
  139.4074   70.3165  221.8732 H   0  0  0  0  0  0  0  0  0  0  0  0
  137.5937   71.5462  223.9967 H   0  0  0  0  0  0  0  0  0  0  0  0
  137.4029   69.9655  223.1536 H   0  0  0  0  0  0  0  0  0  0  0  0
  137.5390   68.4427  225.0058 H   0  0  0  0  0  0  0  0  0  0  0  0
  138.9503   67.3857  226.7737 H   0  0  0  0  0  0  0  0  0  0  0  0
  141.1510   68.3918  227.3833 H   0  0  0  0  0  0  0  0  0  0  0  0
  141.9416   70.4625  226.2367 H   0  0  0  0  0  0  0  0  0  0  0  0
  140.2992   72.7278  224.8530 H   0  0  0  0  0  0  0  0  0  0  0  0
  141.7588   71.8468  224.2205 H   0  0  0  0  0  0  0  0  0  0  0  0
  142.2430   72.4172  217.1414 H   0  0  0  0  0  0  0  0  0  0  0  0
  142.3491   74.1341  217.6571 H   0  0  0  0  0  0  0  0  0  0  0  0
  144.0606   73.4778  215.9104 H   0  0  0  0  0  0  0  0  0  0  0  0
  144.7721   74.1077  217.4537 H   0  0  0  0  0  0  0  0  0  0  0  0
  1  2  1  0
  2  3  1  0
  3  4  1  0
  4  5  1  0
  5  6  1  0
  6  7  1  0
  7  8  2  0
  8  9  1  0
  9 10  1  0
 10 11  1  0
 11 12  1  0
 12 13  1  0
 13 14  2  0
 14 15  1  0
 15 16  2  0
 16 17  1  0
 17 18  2  0
 18 19  1  0
  9 20  2  0
 20 21  1  0
 21 22  1  0
 22 23  1  0
 23 24  1  0
 24 25  1  0
 25 26  2  0
 26 27  1  0
 27 28  2  0
 28 29  1  0
 29 30  2  0
 30 31  1  0
 21 32  2  0
  6 33  1  0
 33 34  1  0
 34 35  1  0
 35  4  1  0
 32  7  1  0
 19 10  1  0
 31 22  1  0
 18 13  1  0
 30 25  1  0
  1 36  1  0
  1 37  1  0
  1 38  1  0
  2 39  1  0
  2 40  1  0
  3 41  1  0
  4 42  1  6
  5 43  1  0
  5 44  1  0
 11 45  1  0
 11 46  1  0
 12 47  1  0
 12 48  1  0
 14 49  1  0
 15 50  1  0
 16 51  1  0
 17 52  1  0
 19 53  1  0
 19 54  1  0
 23 55  1  0
 23 56  1  0
 24 57  1  0
 24 58  1  0
 26 59  1  0
 27 60  1  0
 28 61  1  0
 29 62  1  0
 31 63  1  0
 31 64  1  0
 33 65  1  0
 33 66  1  0
 34 67  1  0
 34 68  1  0
M  END
>  <meeko>  (18) 
{"free_energy": -10.09, "intermolecular_energy": -11.58, "internal_energy": -1.18, "cluster_size": 20, "cluster_id": 1, "rank_in_cluster": 16}

$$$$

     RDKit          3D

 68 73  0  0  0  0  0  0  0  0999 V2000
  146.6920   73.3920  222.3030 C   0  0  0  0  0  0  0  0  0  0  0  0
  145.8240   73.7980  221.1110 C   0  0  0  0  0  0  0  0  0  0  0  0
  146.3900   73.3570  219.8270 N   0  0  0  0  0  0  0  0  0  0  0  0
  145.7530   72.1370  219.2740 C   0  0  1  0  0  0  0  0  0  0  0  0
  144.4230   71.7990  219.9810 C   0  0  0  0  0  0  0  0  0  0  0  0
  143.3910   72.7620  219.5880 N   0  0  0  0  0  0  0  0  0  0  0  0
  142.4180   73.2390  220.5390 C   0  0  0  0  0  0  0  0  0  0  0  0
  142.1300   74.5630  220.6140 N   0  0  0  0  0  0  0  0  0  0  0  0
  141.1960   75.0240  221.4870 C   0  0  0  0  0  0  0  0  0  0  0  0
  140.8690   76.4290  221.5240 N   0  0  0  0  0  0  0  0  0  0  0  0
  140.4650   77.1100  220.2810 C   0  0  0  0  0  0  0  0  0  0  0  0
  139.6180   78.3490  220.5690 C   0  0  0  0  0  0  0  0  0  0  0  0
  140.3250   79.2390  221.5450 C   0  0  0  0  0  0  0  0  0  0  0  0
  140.2600   80.6370  221.4200 C   0  0  0  0  0  0  0  0  0  0  0  0
  140.8990   81.4530  222.3570 C   0  0  0  0  0  0  0  0  0  0  0  0
  141.5880   80.8820  223.4300 C   0  0  0  0  0  0  0  0  0  0  0  0
  141.6440   79.4910  223.5670 C   0  0  0  0  0  0  0  0  0  0  0  0
  141.0230   78.6620  222.6190 C   0  0  0  0  0  0  0  0  0  0  0  0
  141.0610   77.1630  222.7910 C   0  0  0  0  0  0  0  0  0  0  0  0
  140.5560   74.1430  222.3000 N   0  0  0  0  0  0  0  0  0  0  0  0
  140.8360   72.8130  222.2390 C   0  0  0  0  0  0  0  0  0  0  0  0
  140.1610   71.8870  223.1120 N   0  0  0  0  0  0  0  0  0  0  0  0
  138.9820   71.1600  222.6060 C   0  0  0  0  0  0  0  0  0  0  0  0
  138.1030   70.6260  223.7420 C   0  0  0  0  0  0  0  0  0  0  0  0
  138.9380   69.8770  224.7340 C   0  0  0  0  0  0  0  0  0  0  0  0
  138.4580   68.7090  225.3480 C   0  0  0  0  0  0  0  0  0  0  0  0
  139.2410   68.0420  226.2950 C   0  0  0  0  0  0  0  0  0  0  0  0
  140.4970   68.5430  226.6420 C   0  0  0  0  0  0  0  0  0  0  0  0
  140.9720   69.7170  226.0480 C   0  0  0  0  0  0  0  0  0  0  0  0
  140.1990   70.3840  225.0850 C   0  0  0  0  0  0  0  0  0  0  0  0
  140.6880   71.6740  224.4730 C   0  0  0  0  0  0  0  0  0  0  0  0
  141.7640   72.3680  221.3510 N   0  0  0  0  0  0  0  0  0  0  0  0
  143.2610   73.0450  218.1560 C   0  0  0  0  0  0  0  0  0  0  0  0
  144.6490   73.3120  217.5630 C   0  0  0  0  0  0  0  0  0  0  0  0
  145.5590   72.2680  217.8720 O   0  0  0  0  0  0  0  0  0  0  0  0
  146.1679   73.6371  223.2386 H   0  0  0  0  0  0  0  0  0  0  0  0
  146.8856   72.3099  222.2639 H   0  0  0  0  0  0  0  0  0  0  0  0
  147.6467   73.9370  222.2639 H   0  0  0  0  0  0  0  0  0  0  0  0
  144.8274   73.3479  221.2306 H   0  0  0  0  0  0  0  0  0  0  0  0
  145.7717   74.8966  221.0939 H   0  0  0  0  0  0  0  0  0  0  0  0
  146.3760   74.1480  219.1410 H   0  0  0  0  0  0  0  0  0  0  0  0
  146.4389   71.2977  219.4616 H   0  0  0  0  0  0  0  0  0  0  0  0
  144.1047   70.7858  219.6944 H   0  0  0  0  0  0  0  0  0  0  0  0
  144.5689   71.8485  221.0702 H   0  0  0  0  0  0  0  0  0  0  0  0
  141.3677   77.4144  219.7310 H   0  0  0  0  0  0  0  0  0  0  0  0
  139.8601   76.4101  219.6858 H   0  0  0  0  0  0  0  0  0  0  0  0
  139.4475   78.8993  219.6319 H   0  0  0  0  0  0  0  0  0  0  0  0
  138.6552   78.0356  220.9988 H   0  0  0  0  0  0  0  0  0  0  0  0
  139.7059   81.0891  220.5842 H   0  0  0  0  0  0  0  0  0  0  0  0
  140.8596   82.5470  222.2497 H   0  0  0  0  0  0  0  0  0  0  0  0
  142.0871   81.5271  224.1680 H   0  0  0  0  0  0  0  0  0  0  0  0
  142.1763   79.0452  224.4202 H   0  0  0  0  0  0  0  0  0  0  0  0
  142.0378   76.8838  223.2127 H   0  0  0  0  0  0  0  0  0  0  0  0
  140.2305   76.8884  223.4580 H   0  0  0  0  0  0  0  0  0  0  0  0
  138.3834   71.8431  221.9854 H   0  0  0  0  0  0  0  0  0  0  0  0
  139.3397   70.2997  222.0213 H   0  0  0  0  0  0  0  0  0  0  0  0
  137.6090   71.4696  224.2464 H   0  0  0  0  0  0  0  0  0  0  0  0
  137.3480   69.9452  223.3218 H   0  0  0  0  0  0  0  0  0  0  0  0
  137.4644   68.3182  225.0835 H   0  0  0  0  0  0  0  0  0  0  0  0
  138.8670   67.1215  226.7671 H   0  0  0  0  0  0  0  0  0  0  0  0
  141.1138   68.0139  227.3834 H   0  0  0  0  0  0  0  0  0  0  0  0
  141.9545   70.1187  226.3366 H   0  0  0  0  0  0  0  0  0  0  0  0
  140.3676   72.5111  225.1107 H   0  0  0  0  0  0  0  0  0  0  0  0
  141.7843   71.6169  224.4026 H   0  0  0  0  0  0  0  0  0  0  0  0
  142.8059   72.1804  217.6507 H   0  0  0  0  0  0  0  0  0  0  0  0
  142.6231   73.9295  218.0122 H   0  0  0  0  0  0  0  0  0  0  0  0
  144.5600   73.3960  216.4698 H   0  0  0  0  0  0  0  0  0  0  0  0
  145.0354   74.2452  217.9987 H   0  0  0  0  0  0  0  0  0  0  0  0
  1  2  1  0
  2  3  1  0
  3  4  1  0
  4  5  1  0
  5  6  1  0
  6  7  1  0
  7  8  2  0
  8  9  1  0
  9 10  1  0
 10 11  1  0
 11 12  1  0
 12 13  1  0
 13 14  2  0
 14 15  1  0
 15 16  2  0
 16 17  1  0
 17 18  2  0
 18 19  1  0
  9 20  2  0
 20 21  1  0
 21 22  1  0
 22 23  1  0
 23 24  1  0
 24 25  1  0
 25 26  2  0
 26 27  1  0
 27 28  2  0
 28 29  1  0
 29 30  2  0
 30 31  1  0
 21 32  2  0
  6 33  1  0
 33 34  1  0
 34 35  1  0
 35  4  1  0
 32  7  1  0
 19 10  1  0
 31 22  1  0
 18 13  1  0
 30 25  1  0
  1 36  1  0
  1 37  1  0
  1 38  1  0
  2 39  1  0
  2 40  1  0
  3 41  1  0
  4 42  1  6
  5 43  1  0
  5 44  1  0
 11 45  1  0
 11 46  1  0
 12 47  1  0
 12 48  1  0
 14 49  1  0
 15 50  1  0
 16 51  1  0
 17 52  1  0
 19 53  1  0
 19 54  1  0
 23 55  1  0
 23 56  1  0
 24 57  1  0
 24 58  1  0
 26 59  1  0
 27 60  1  0
 28 61  1  0
 29 62  1  0
 31 63  1  0
 31 64  1  0
 33 65  1  0
 33 66  1  0
 34 67  1  0
 34 68  1  0
M  END
>  <meeko>  (19) 
{"free_energy": -10.67, "intermolecular_energy": -12.16, "internal_energy": -1.02, "cluster_size": 20, "cluster_id": 1, "rank_in_cluster": 1}

$$$$

     RDKit          3D

 68 73  0  0  0  0  0  0  0  0999 V2000
  146.6700   73.3930  222.2530 C   0  0  0  0  0  0  0  0  0  0  0  0
  145.6480   73.3220  221.1170 C   0  0  0  0  0  0  0  0  0  0  0  0
  146.2720   73.0240  219.8180 N   0  0  0  0  0  0  0  0  0  0  0  0
  145.5050   72.0650  218.9870 C   0  0  1  0  0  0  0  0  0  0  0  0
  144.1130   71.7600  219.5780 C   0  0  0  0  0  0  0  0  0  0  0  0
  143.2350   72.9210  219.4080 N   0  0  0  0  0  0  0  0  0  0  0  0
  142.2910   73.2960  220.4310 C   0  0  0  0  0  0  0  0  0  0  0  0
  141.9400   74.5980  220.5910 N   0  0  0  0  0  0  0  0  0  0  0  0
  141.0320   74.9630  221.5330 C   0  0  0  0  0  0  0  0  0  0  0  0
  140.6370   76.3440  221.6620 N   0  0  0  0  0  0  0  0  0  0  0  0
  139.9160   76.9960  220.5540 C   0  0  0  0  0  0  0  0  0  0  0  0
  139.0820   78.1800  221.0440 C   0  0  0  0  0  0  0  0  0  0  0  0
  139.9400   79.1150  221.8420 C   0  0  0  0  0  0  0  0  0  0  0  0
  139.7620   80.5060  221.7530 C   0  0  0  0  0  0  0  0  0  0  0  0
  140.5480   81.3630  222.5270 C   0  0  0  0  0  0  0  0  0  0  0  0
  141.5010   80.8390  223.4050 C   0  0  0  0  0  0  0  0  0  0  0  0
  141.6720   79.4550  223.5080 C   0  0  0  0  0  0  0  0  0  0  0  0
  140.9010   78.5850  222.7190 C   0  0  0  0  0  0  0  0  0  0  0  0
  141.0710   77.0920  222.8600 C   0  0  0  0  0  0  0  0  0  0  0  0
  140.4820   74.0090  222.3290 N   0  0  0  0  0  0  0  0  0  0  0  0
  140.8260   72.7010  222.1840 C   0  0  0  0  0  0  0  0  0  0  0  0
  140.2460   71.6960  223.0390 N   0  0  0  0  0  0  0  0  0  0  0  0
  139.4280   70.6290  222.4340 C   0  0  0  0  0  0  0  0  0  0  0  0
  138.5000   69.9640  223.4550 C   0  0  0  0  0  0  0  0  0  0  0  0
  139.2720   69.5640  224.6740 C   0  0  0  0  0  0  0  0  0  0  0  0
  138.9930   68.3620  225.3450 C   0  0  0  0  0  0  0  0  0  0  0  0
  139.7060   68.0220  226.4980 C   0  0  0  0  0  0  0  0  0  0  0  0
  140.6870   68.8830  226.9940 C   0  0  0  0  0  0  0  0  0  0  0  0
  140.9560   70.0900  226.3410 C   0  0  0  0  0  0  0  0  0  0  0  0
  140.2570   70.4320  225.1720 C   0  0  0  0  0  0  0  0  0  0  0  0
  140.5120   71.7530  224.4890 C   0  0  0  0  0  0  0  0  0  0  0  0
  141.7260   72.3520  221.2270 N   0  0  0  0  0  0  0  0  0  0  0  0
  143.2080   73.5400  218.0800 C   0  0  0  0  0  0  0  0  0  0  0  0
  144.6430   73.7420  217.5840 C   0  0  0  0  0  0  0  0  0  0  0  0
  145.3940   72.5390  217.6520 O   0  0  0  0  0  0  0  0  0  0  0  0
  146.1466   73.3566  223.2198 H   0  0  0  0  0  0  0  0  0  0  0  0
  147.3614   72.5407  222.1780 H   0  0  0  0  0  0  0  0  0  0  0  0
  147.2369   74.3327  222.1780 H   0  0  0  0  0  0  0  0  0  0  0  0
  144.9180   72.5321  221.3476 H   0  0  0  0  0  0  0  0  0  0  0  0
  145.1651   74.3072  221.0386 H   0  0  0  0  0  0  0  0  0  0  0  0
  146.4650   73.9160  219.3040 H   0  0  0  0  0  0  0  0  0  0  0  0
  146.0652   71.1183  218.9821 H   0  0  0  0  0  0  0  0  0  0  0  0
  143.6776   70.8939  219.0581 H   0  0  0  0  0  0  0  0  0  0  0  0
  144.2152   71.5365  220.6502 H   0  0  0  0  0  0  0  0  0  0  0  0
  140.6472   77.3560  219.8153 H   0  0  0  0  0  0  0  0  0  0  0  0
  139.2349   76.2579  220.1055 H   0  0  0  0  0  0  0  0  0  0  0  0
  138.6663   78.7162  220.1781 H   0  0  0  0  0  0  0  0  0  0  0  0
  138.2647   77.8081  221.6794 H   0  0  0  0  0  0  0  0  0  0  0  0
  139.0030   80.9204  221.0732 H   0  0  0  0  0  0  0  0  0  0  0  0
  140.4167   82.4521  222.4454 H   0  0  0  0  0  0  0  0  0  0  0  0
  142.1169   81.5158  224.0154 H   0  0  0  0  0  0  0  0  0  0  0  0
  142.4135   79.0456  224.2099 H   0  0  0  0  0  0  0  0  0  0  0  0
  142.1343   76.8762  223.0414 H   0  0  0  0  0  0  0  0  0  0  0  0
  140.4363   76.7671  223.6976 H   0  0  0  0  0  0  0  0  0  0  0  0
  138.8165   71.0640  221.6297 H   0  0  0  0  0  0  0  0  0  0  0  0
  140.1104   69.8589  222.0452 H   0  0  0  0  0  0  0  0  0  0  0  0
  137.7092   70.6725  223.7424 H   0  0  0  0  0  0  0  0  0  0  0  0
  138.0543   69.0659  223.0025 H   0  0  0  0  0  0  0  0  0  0  0  0
  138.2126   67.6876  224.9627 H   0  0  0  0  0  0  0  0  0  0  0  0
  139.4940   67.0747  227.0155 H   0  0  0  0  0  0  0  0  0  0  0  0
  141.2491   68.6115  227.8997 H   0  0  0  0  0  0  0  0  0  0  0  0
  141.7175   70.7737  226.7443 H   0  0  0  0  0  0  0  0  0  0  0  0
  139.8586   72.5152  224.9385 H   0  0  0  0  0  0  0  0  0  0  0  0
  141.5746   72.0022  224.6259 H   0  0  0  0  0  0  0  0  0  0  0  0
  142.6667   72.8856  217.3809 H   0  0  0  0  0  0  0  0  0  0  0  0
  142.6988   74.5133  218.1384 H   0  0  0  0  0  0  0  0  0  0  0  0
  144.6145   74.0864  216.5397 H   0  0  0  0  0  0  0  0  0  0  0  0
  145.1287   74.4876  218.2307 H   0  0  0  0  0  0  0  0  0  0  0  0
  1  2  1  0
  2  3  1  0
  3  4  1  0
  4  5  1  0
  5  6  1  0
  6  7  1  0
  7  8  2  0
  8  9  1  0
  9 10  1  0
 10 11  1  0
 11 12  1  0
 12 13  1  0
 13 14  2  0
 14 15  1  0
 15 16  2  0
 16 17  1  0
 17 18  2  0
 18 19  1  0
  9 20  2  0
 20 21  1  0
 21 22  1  0
 22 23  1  0
 23 24  1  0
 24 25  1  0
 25 26  2  0
 26 27  1  0
 27 28  2  0
 28 29  1  0
 29 30  2  0
 30 31  1  0
 21 32  2  0
  6 33  1  0
 33 34  1  0
 34 35  1  0
 35  4  1  0
 32  7  1  0
 19 10  1  0
 31 22  1  0
 18 13  1  0
 30 25  1  0
  1 36  1  0
  1 37  1  0
  1 38  1  0
  2 39  1  0
  2 40  1  0
  3 41  1  0
  4 42  1  6
  5 43  1  0
  5 44  1  0
 11 45  1  0
 11 46  1  0
 12 47  1  0
 12 48  1  0
 14 49  1  0
 15 50  1  0
 16 51  1  0
 17 52  1  0
 19 53  1  0
 19 54  1  0
 23 55  1  0
 23 56  1  0
 24 57  1  0
 24 58  1  0
 26 59  1  0
 27 60  1  0
 28 61  1  0
 29 62  1  0
 31 63  1  0
 31 64  1  0
 33 65  1  0
 33 66  1  0
 34 67  1  0
 34 68  1  0
M  END
>  <meeko>  (20) 
{"free_energy": -10.53, "intermolecular_energy": -12.02, "internal_energy": -1.0, "cluster_size": 20, "cluster_id": 1, "rank_in_cluster": 10}

$$$$
