
     RDKit          3D

 68 73  0  0  0  0  0  0  0  0999 V2000
  146.5710   72.4140  215.4240 C   0  0  0  0  0  0  0  0  0  0  0  0
  146.5470   73.7940  216.0670 C   0  0  0  0  0  0  0  0  0  0  0  0
  145.2190   74.0590  216.6420 N   0  0  0  0  0  0  0  0  0  0  0  0
  144.8340   73.0280  217.6220 C   0  0  2  0  0  0  0  0  0  0  0  0
  143.6360   73.5230  218.4470 C   0  0  0  0  0  0  0  0  0  0  0  0
  143.5320   72.8510  219.7480 N   0  0  0  0  0  0  0  0  0  0  0  0
  142.4610   73.2380  220.6300 C   0  0  0  0  0  0  0  0  0  0  0  0
  141.9890   74.5130  220.6090 N   0  0  0  0  0  0  0  0  0  0  0  0
  140.9930   74.9010  221.4500 C   0  0  0  0  0  0  0  0  0  0  0  0
  140.5270   76.2690  221.4510 N   0  0  0  0  0  0  0  0  0  0  0  0
  140.3460   77.0220  220.2050 C   0  0  0  0  0  0  0  0  0  0  0  0
  141.3860   78.1430  220.1470 C   0  0  0  0  0  0  0  0  0  0  0  0
  141.4570   78.9130  221.4450 C   0  0  0  0  0  0  0  0  0  0  0  0
  142.0740   80.1750  221.4590 C   0  0  0  0  0  0  0  0  0  0  0  0
  142.2080   80.8860  222.6520 C   0  0  0  0  0  0  0  0  0  0  0  0
  141.7360   80.3430  223.8500 C   0  0  0  0  0  0  0  0  0  0  0  0
  141.1300   79.0840  223.8540 C   0  0  0  0  0  0  0  0  0  0  0  0
  141.0030   78.3510  222.6640 C   0  0  0  0  0  0  0  0  0  0  0  0
  140.3080   77.0070  222.7020 C   0  0  0  0  0  0  0  0  0  0  0  0
  140.4620   73.9900  222.3090 N   0  0  0  0  0  0  0  0  0  0  0  0
  140.9190   72.7100  222.3420 C   0  0  0  0  0  0  0  0  0  0  0  0
  140.3470   71.7560  223.2640 N   0  0  0  0  0  0  0  0  0  0  0  0
  138.8930   71.5100  223.2420 C   0  0  0  0  0  0  0  0  0  0  0  0
  138.5570   70.1070  223.7470 C   0  0  0  0  0  0  0  0  0  0  0  0
  139.1680   69.8960  225.0980 C   0  0  0  0  0  0  0  0  0  0  0  0
  138.4800   69.1830  226.0960 C   0  0  0  0  0  0  0  0  0  0  0  0
  139.0710   68.9770  227.3440 C   0  0  0  0  0  0  0  0  0  0  0  0
  140.3540   69.4690  227.6020 C   0  0  0  0  0  0  0  0  0  0  0  0
  141.0500   70.1670  226.6060 C   0  0  0  0  0  0  0  0  0  0  0  0
  140.4560   70.4000  225.3560 C   0  0  0  0  0  0  0  0  0  0  0  0
  141.2210   71.1440  224.2860 C   0  0  0  0  0  0  0  0  0  0  0  0
  141.9270   72.3430  221.5020 N   0  0  0  0  0  0  0  0  0  0  0  0
  144.4510   71.7820  220.1740 C   0  0  0  0  0  0  0  0  0  0  0  0
  145.6790   71.6320  219.2540 C   0  0  0  0  0  0  0  0  0  0  0  0
  145.9260   72.7970  218.4930 O   0  0  0  0  0  0  0  0  0  0  0  0
  146.5844   71.6438  216.2092 H   0  0  0  0  0  0  0  0  0  0  0  0
  145.6750   72.2850  214.7991 H   0  0  0  0  0  0  0  0  0  0  0  0
  147.4710   72.3162  214.7991 H   0  0  0  0  0  0  0  0  0  0  0  0
  147.3041   73.8377  216.8638 H   0  0  0  0  0  0  0  0  0  0  0  0
  146.7665   74.5526  215.3013 H   0  0  0  0  0  0  0  0  0  0  0  0
  145.2720   74.9790  217.1410 H   0  0  0  0  0  0  0  0  0  0  0  0
  144.5610   72.1012  217.0962 H   0  0  0  0  0  0  0  0  0  0  0  0
  143.7473   74.6042  218.6165 H   0  0  0  0  0  0  0  0  0  0  0  0
  142.7222   73.2941  217.8791 H   0  0  0  0  0  0  0  0  0  0  0  0
  140.4796   76.3497  219.3447 H   0  0  0  0  0  0  0  0  0  0  0  0
  139.3337   77.4512  220.1729 H   0  0  0  0  0  0  0  0  0  0  0  0
  142.3726   77.7025  219.9403 H   0  0  0  0  0  0  0  0  0  0  0  0
  141.0896   78.8424  219.3514 H   0  0  0  0  0  0  0  0  0  0  0  0
  142.4547   80.6063  220.5214 H   0  0  0  0  0  0  0  0  0  0  0  0
  142.6864   81.8765  222.6495 H   0  0  0  0  0  0  0  0  0  0  0  0
  141.8414   80.9062  224.7890 H   0  0  0  0  0  0  0  0  0  0  0  0
  140.7496   78.6642  224.7969 H   0  0  0  0  0  0  0  0  0  0  0  0
  140.7066   76.4189  223.5418 H   0  0  0  0  0  0  0  0  0  0  0  0
  139.2279   77.1729  222.8281 H   0  0  0  0  0  0  0  0  0  0  0  0
  138.3950   72.2506  223.8850 H   0  0  0  0  0  0  0  0  0  0  0  0
  138.5429   71.5970  222.2028 H   0  0  0  0  0  0  0  0  0  0  0  0
  137.4649   69.9961  223.8184 H   0  0  0  0  0  0  0  0  0  0  0  0
  138.9594   69.3616  223.0452 H   0  0  0  0  0  0  0  0  0  0  0  0
  137.4741   68.7868  225.8929 H   0  0  0  0  0  0  0  0  0  0  0  0
  138.5264   68.4268  228.1254 H   0  0  0  0  0  0  0  0  0  0  0  0
  140.8170   69.3082  228.5868 H   0  0  0  0  0  0  0  0  0  0  0  0
  142.0676   70.5343  226.8050 H   0  0  0  0  0  0  0  0  0  0  0  0
  141.8082   71.9406  224.7661 H   0  0  0  0  0  0  0  0  0  0  0  0
  141.8606   70.4111  223.7724 H   0  0  0  0  0  0  0  0  0  0  0  0
  144.8024   72.0084  221.1915 H   0  0  0  0  0  0  0  0  0  0  0  0
  143.8928   70.8352  220.1298 H   0  0  0  0  0  0  0  0  0  0  0  0
  146.5623   71.4215  219.8749 H   0  0  0  0  0  0  0  0  0  0  0  0
  145.4749   70.8096  218.5526 H   0  0  0  0  0  0  0  0  0  0  0  0
  1  2  1  0
  2  3  1  0
  3  4  1  0
  4  5  1  0
  5  6  1  0
  6  7  1  0
  7  8  2  0
  8  9  1  0
  9 10  1  0
 10 11  1  0
 11 12  1  0
 12 13  1  0
 13 14  2  0
 14 15  1  0
 15 16  2  0
 16 17  1  0
 17 18  2  0
 18 19  1  0
  9 20  2  0
 20 21  1  0
 21 22  1  0
 22 23  1  0
 23 24  1  0
 24 25  1  0
 25 26  2  0
 26 27  1  0
 27 28  2  0
 28 29  1  0
 29 30  2  0
 30 31  1  0
 21 32  2  0
  6 33  1  0
 33 34  1  0
 34 35  1  0
 35  4  1  0
 32  7  1  0
 19 10  1  0
 31 22  1  0
 18 13  1  0
 30 25  1  0
  1 36  1  0
  1 37  1  0
  1 38  1  0
  2 39  1  0
  2 40  1  0
  3 41  1  0
  4 42  1  6
  5 43  1  0
  5 44  1  0
 11 45  1  0
 11 46  1  0
 12 47  1  0
 12 48  1  0
 14 49  1  0
 15 50  1  0
 16 51  1  0
 17 52  1  0
 19 53  1  0
 19 54  1  0
 23 55  1  0
 23 56  1  0
 24 57  1  0
 24 58  1  0
 26 59  1  0
 27 60  1  0
 28 61  1  0
 29 62  1  0
 31 63  1  0
 31 64  1  0
 33 65  1  0
 33 66  1  0
 34 67  1  0
 34 68  1  0
M  END
>  <meeko>  (1) 
{"free_energy": -9.32, "intermolecular_energy": -10.81, "internal_energy": -0.93, "cluster_size": 16, "cluster_id": 1, "rank_in_cluster": 9}

$$$$

     RDKit          3D

 68 73  0  0  0  0  0  0  0  0999 V2000
  146.0900   68.8060  219.2960 C   0  0  0  0  0  0  0  0  0  0  0  0
  145.4540   70.1400  218.9310 C   0  0  0  0  0  0  0  0  0  0  0  0
  146.3150   71.2470  219.3750 N   0  0  0  0  0  0  0  0  0  0  0  0
  145.6850   72.5570  219.1410 C   0  0  2  0  0  0  0  0  0  0  0  0
  144.5310   72.7590  220.1360 C   0  0  0  0  0  0  0  0  0  0  0  0
  143.5370   73.7270  219.6560 N   0  0  0  0  0  0  0  0  0  0  0  0
  142.3910   73.9930  220.4880 C   0  0  0  0  0  0  0  0  0  0  0  0
  141.8620   75.2440  220.5400 N   0  0  0  0  0  0  0  0  0  0  0  0
  140.7940   75.5170  221.3360 C   0  0  0  0  0  0  0  0  0  0  0  0
  140.2660   76.8600  221.4170 N   0  0  0  0  0  0  0  0  0  0  0  0
  139.9430   77.6350  220.2140 C   0  0  0  0  0  0  0  0  0  0  0  0
  140.9190   78.8060  220.1000 C   0  0  0  0  0  0  0  0  0  0  0  0
  141.0660   79.5450  221.4100 C   0  0  0  0  0  0  0  0  0  0  0  0
  141.6210   80.8360  221.4080 C   0  0  0  0  0  0  0  0  0  0  0  0
  141.8240   81.5230  222.6070 C   0  0  0  0  0  0  0  0  0  0  0  0
  141.4840   80.9270  223.8230 C   0  0  0  0  0  0  0  0  0  0  0  0
  140.9410   79.6390  223.8420 C   0  0  0  0  0  0  0  0  0  0  0  0
  140.7460   78.9310  222.6460 C   0  0  0  0  0  0  0  0  0  0  0  0
  140.1220   77.5540  222.7030 C   0  0  0  0  0  0  0  0  0  0  0  0
  140.2490   74.5140  222.0750 N   0  0  0  0  0  0  0  0  0  0  0  0
  140.7620   73.2560  222.0340 C   0  0  0  0  0  0  0  0  0  0  0  0
  140.1730   72.2030  222.8300 N   0  0  0  0  0  0  0  0  0  0  0  0
  138.7220   71.9570  222.7440 C   0  0  0  0  0  0  0  0  0  0  0  0
  138.3820   70.5050  223.0820 C   0  0  0  0  0  0  0  0  0  0  0  0
  138.9620   70.1470  224.4160 C   0  0  0  0  0  0  0  0  0  0  0  0
  138.2540   69.3240  225.3110 C   0  0  0  0  0  0  0  0  0  0  0  0
  138.8150   68.9840  226.5430 C   0  0  0  0  0  0  0  0  0  0  0  0
  140.0880   69.4480  226.8860 C   0  0  0  0  0  0  0  0  0  0  0  0
  140.8050   70.2550  225.9920 C   0  0  0  0  0  0  0  0  0  0  0  0
  140.2400   70.6240  224.7610 C   0  0  0  0  0  0  0  0  0  0  0  0
  141.0260   71.4840  223.7990 C   0  0  0  0  0  0  0  0  0  0  0  0
  141.8410   73.0040  221.2410 N   0  0  0  0  0  0  0  0  0  0  0  0
  143.6750   74.4550  218.3840 C   0  0  0  0  0  0  0  0  0  0  0  0
  144.8060   73.9100  217.4900 C   0  0  0  0  0  0  0  0  0  0  0  0
  145.1640   72.5830  217.8250 O   0  0  0  0  0  0  0  0  0  0  0  0
  146.1362   68.7091  220.3908 H   0  0  0  0  0  0  0  0  0  0  0  0
  145.4860   67.9859  218.8805 H   0  0  0  0  0  0  0  0  0  0  0  0
  147.1074   68.7590  218.8805 H   0  0  0  0  0  0  0  0  0  0  0  0
  145.3238   70.1949  217.8401 H   0  0  0  0  0  0  0  0  0  0  0  0
  144.4763   70.2216  219.4284 H   0  0  0  0  0  0  0  0  0  0  0  0
  146.4620   71.1350  220.4070 H   0  0  0  0  0  0  0  0  0  0  0  0
  146.4302   73.3551  219.2741 H   0  0  0  0  0  0  0  0  0  0  0  0
  144.0320   71.7922  220.2983 H   0  0  0  0  0  0  0  0  0  0  0  0
  144.9595   73.1549  221.0685 H   0  0  0  0  0  0  0  0  0  0  0  0
  140.0328   76.9922  219.3259 H   0  0  0  0  0  0  0  0  0  0  0  0
  138.9129   78.0148  220.2818 H   0  0  0  0  0  0  0  0  0  0  0  0
  141.9035   78.4204  219.7965 H   0  0  0  0  0  0  0  0  0  0  0  0
  140.5222   79.5098  219.3536 H   0  0  0  0  0  0  0  0  0  0  0  0
  141.8978   81.3093  220.4544 H   0  0  0  0  0  0  0  0  0  0  0  0
  142.2527   82.5359  222.5933 H   0  0  0  0  0  0  0  0  0  0  0  0
  141.6434   81.4708  224.7658 H   0  0  0  0  0  0  0  0  0  0  0  0
  140.6645   79.1771  224.8013 H   0  0  0  0  0  0  0  0  0  0  0  0
  140.6196   76.9653  223.4877 H   0  0  0  0  0  0  0  0  0  0  0  0
  139.0503   77.6627  222.9257 H   0  0  0  0  0  0  0  0  0  0  0  0
  138.2038   72.6202  223.4523 H   0  0  0  0  0  0  0  0  0  0  0  0
  138.3970   72.1579  221.7125 H   0  0  0  0  0  0  0  0  0  0  0  0
  137.2892   70.3835  223.1141 H   0  0  0  0  0  0  0  0  0  0  0  0
  138.8052   69.8434  222.3118 H   0  0  0  0  0  0  0  0  0  0  0  0
  137.2566   68.9479  225.0393 H   0  0  0  0  0  0  0  0  0  0  0  0
  138.2542   68.3497  227.2453 H   0  0  0  0  0  0  0  0  0  0  0  0
  140.5274   69.1797  227.8581 H   0  0  0  0  0  0  0  0  0  0  0  0
  141.8152   70.6008  226.2562 H   0  0  0  0  0  0  0  0  0  0  0  0
  141.5972   72.2242  224.3785 H   0  0  0  0  0  0  0  0  0  0  0  0
  141.6818   70.8145  223.2231 H   0  0  0  0  0  0  0  0  0  0  0  0
  142.7262   74.3780  217.8328 H   0  0  0  0  0  0  0  0  0  0  0  0
  143.9274   75.4969  218.6303 H   0  0  0  0  0  0  0  0  0  0  0  0
  144.4706   73.9321  216.4426 H   0  0  0  0  0  0  0  0  0  0  0  0
  145.6908   74.5455  217.6424 H   0  0  0  0  0  0  0  0  0  0  0  0
  1  2  1  0
  2  3  1  0
  3  4  1  0
  4  5  1  0
  5  6  1  0
  6  7  1  0
  7  8  2  0
  8  9  1  0
  9 10  1  0
 10 11  1  0
 11 12  1  0
 12 13  1  0
 13 14  2  0
 14 15  1  0
 15 16  2  0
 16 17  1  0
 17 18  2  0
 18 19  1  0
  9 20  2  0
 20 21  1  0
 21 22  1  0
 22 23  1  0
 23 24  1  0
 24 25  1  0
 25 26  2  0
 26 27  1  0
 27 28  2  0
 28 29  1  0
 29 30  2  0
 30 31  1  0
 21 32  2  0
  6 33  1  0
 33 34  1  0
 34 35  1  0
 35  4  1  0
 32  7  1  0
 19 10  1  0
 31 22  1  0
 18 13  1  0
 30 25  1  0
  1 36  1  0
  1 37  1  0
  1 38  1  0
  2 39  1  0
  2 40  1  0
  3 41  1  0
  4 42  1  6
  5 43  1  0
  5 44  1  0
 11 45  1  0
 11 46  1  0
 12 47  1  0
 12 48  1  0
 14 49  1  0
 15 50  1  0
 16 51  1  0
 17 52  1  0
 19 53  1  0
 19 54  1  0
 23 55  1  0
 23 56  1  0
 24 57  1  0
 24 58  1  0
 26 59  1  0
 27 60  1  0
 28 61  1  0
 29 62  1  0
 31 63  1  0
 31 64  1  0
 33 65  1  0
 33 66  1  0
 34 67  1  0
 34 68  1  0
M  END
>  <meeko>  (2) 
{"free_energy": -9.27, "intermolecular_energy": -10.76, "internal_energy": -0.94, "cluster_size": 16, "cluster_id": 1, "rank_in_cluster": 10}

$$$$

     RDKit          3D

 68 73  0  0  0  0  0  0  0  0999 V2000
  146.2140   68.2160  219.3870 C   0  0  0  0  0  0  0  0  0  0  0  0
  145.2920   69.3760  219.0380 C   0  0  0  0  0  0  0  0  0  0  0  0
  146.0380   70.6430  219.0860 N   0  0  0  0  0  0  0  0  0  0  0  0
  145.1950   71.7870  218.6970 C   0  0  2  0  0  0  0  0  0  0  0  0
  144.2720   72.1680  219.8650 C   0  0  0  0  0  0  0  0  0  0  0  0
  143.0720   72.8880  219.4220 N   0  0  0  0  0  0  0  0  0  0  0  0
  142.1110   73.2860  220.4190 C   0  0  0  0  0  0  0  0  0  0  0  0
  141.6510   74.5650  220.4500 N   0  0  0  0  0  0  0  0  0  0  0  0
  140.7600   74.9620  221.3980 C   0  0  0  0  0  0  0  0  0  0  0  0
  140.3090   76.3340  221.4490 N   0  0  0  0  0  0  0  0  0  0  0  0
  140.0370   77.1020  220.2290 C   0  0  0  0  0  0  0  0  0  0  0  0
  141.0800   78.2140  220.0980 C   0  0  0  0  0  0  0  0  0  0  0  0
  141.2620   78.9690  221.3940 C   0  0  0  0  0  0  0  0  0  0  0  0
  141.8890   80.2260  221.3700 C   0  0  0  0  0  0  0  0  0  0  0  0
  142.1250   80.9240  222.5560 C   0  0  0  0  0  0  0  0  0  0  0  0
  141.7450   80.3730  223.7820 C   0  0  0  0  0  0  0  0  0  0  0  0
  141.1290   79.1190  223.8230 C   0  0  0  0  0  0  0  0  0  0  0  0
  140.9000   78.3990  222.6400 C   0  0  0  0  0  0  0  0  0  0  0  0
  140.1980   77.0610  222.7200 C   0  0  0  0  0  0  0  0  0  0  0  0
  140.3220   74.0570  222.3130 N   0  0  0  0  0  0  0  0  0  0  0  0
  140.7690   72.7730  222.2960 C   0  0  0  0  0  0  0  0  0  0  0  0
  140.2970   71.8250  223.2790 N   0  0  0  0  0  0  0  0  0  0  0  0
  139.0020   71.1500  223.0710 C   0  0  0  0  0  0  0  0  0  0  0  0
  138.9610   69.7930  223.7740 C   0  0  0  0  0  0  0  0  0  0  0  0
  139.3100   69.9620  225.2200 C   0  0  0  0  0  0  0  0  0  0  0  0
  138.6480   69.2170  226.2130 C   0  0  0  0  0  0  0  0  0  0  0  0
  138.9980   69.3710  227.5550 C   0  0  0  0  0  0  0  0  0  0  0  0
  140.0160   70.2570  227.9170 C   0  0  0  0  0  0  0  0  0  0  0  0
  140.6900   70.9910  226.9320 C   0  0  0  0  0  0  0  0  0  0  0  0
  140.3300   70.8620  225.5810 C   0  0  0  0  0  0  0  0  0  0  0  0
  141.0710   71.6500  224.5260 C   0  0  0  0  0  0  0  0  0  0  0  0
  141.6720   72.3960  221.3480 N   0  0  0  0  0  0  0  0  0  0  0  0
  142.8240   73.2460  218.0150 C   0  0  0  0  0  0  0  0  0  0  0  0
  143.7960   72.5620  217.0330 C   0  0  0  0  0  0  0  0  0  0  0  0
  144.3990   71.4100  217.5880 O   0  0  0  0  0  0  0  0  0  0  0  0
  146.2881   68.1227  220.4805 H   0  0  0  0  0  0  0  0  0  0  0  0
  145.8069   67.2847  218.9663 H   0  0  0  0  0  0  0  0  0  0  0  0
  147.2132   68.4024  218.9663 H   0  0  0  0  0  0  0  0  0  0  0  0
  144.8886   69.2288  218.0253 H   0  0  0  0  0  0  0  0  0  0  0  0
  144.4680   69.4141  219.7657 H   0  0  0  0  0  0  0  0  0  0  0  0
  146.3470   70.7880  220.0770 H   0  0  0  0  0  0  0  0  0  0  0  0
  145.8325   72.6449  218.4368 H   0  0  0  0  0  0  0  0  0  0  0  0
  143.9607   71.2488  220.3828 H   0  0  0  0  0  0  0  0  0  0  0  0
  144.8358   72.8370  220.5318 H   0  0  0  0  0  0  0  0  0  0  0  0
  140.0944   76.4375  219.3543 H   0  0  0  0  0  0  0  0  0  0  0  0
  139.0299   77.5412  220.2829 H   0  0  0  0  0  0  0  0  0  0  0  0
  142.0424   77.7670  219.8083 H   0  0  0  0  0  0  0  0  0  0  0  0
  140.7281   78.9243  219.3354 H   0  0  0  0  0  0  0  0  0  0  0  0
  142.1966   80.6639  220.4089 H   0  0  0  0  0  0  0  0  0  0  0  0
  142.6113   81.9102  222.5248 H   0  0  0  0  0  0  0  0  0  0  0  0
  141.9304   80.9257  224.7148 H   0  0  0  0  0  0  0  0  0  0  0  0
  140.8214   78.6932  224.7895 H   0  0  0  0  0  0  0  0  0  0  0  0
  140.6569   76.4608  223.5195 H   0  0  0  0  0  0  0  0  0  0  0  0
  139.1330   77.2351  222.9333 H   0  0  0  0  0  0  0  0  0  0  0  0
  138.1987   71.7854  223.4723 H   0  0  0  0  0  0  0  0  0  0  0  0
  138.8670   70.9851  221.9919 H   0  0  0  0  0  0  0  0  0  0  0  0
  137.9500   69.3679  223.6893 H   0  0  0  0  0  0  0  0  0  0  0  0
  139.6877   69.1161  223.3010 H   0  0  0  0  0  0  0  0  0  0  0  0
  137.8526   68.5115  225.9308 H   0  0  0  0  0  0  0  0  0  0  0  0
  138.4715   68.7938  228.3294 H   0  0  0  0  0  0  0  0  0  0  0  0
  140.2884   70.3783  228.9758 H   0  0  0  0  0  0  0  0  0  0  0  0
  141.5052   71.6717  227.2186 H   0  0  0  0  0  0  0  0  0  0  0  0
  141.3068   72.6441  224.9335 H   0  0  0  0  0  0  0  0  0  0  0  0
  141.9779   71.0822  224.2708 H   0  0  0  0  0  0  0  0  0  0  0  0
  141.7974   72.9488  217.7545 H   0  0  0  0  0  0  0  0  0  0  0  0
  142.9765   74.3315  217.9225 H   0  0  0  0  0  0  0  0  0  0  0  0
  143.2392   72.2696  216.1305 H   0  0  0  0  0  0  0  0  0  0  0  0
  144.5958   73.2795  216.7975 H   0  0  0  0  0  0  0  0  0  0  0  0
  1  2  1  0
  2  3  1  0
  3  4  1  0
  4  5  1  0
  5  6  1  0
  6  7  1  0
  7  8  2  0
  8  9  1  0
  9 10  1  0
 10 11  1  0
 11 12  1  0
 12 13  1  0
 13 14  2  0
 14 15  1  0
 15 16  2  0
 16 17  1  0
 17 18  2  0
 18 19  1  0
  9 20  2  0
 20 21  1  0
 21 22  1  0
 22 23  1  0
 23 24  1  0
 24 25  1  0
 25 26  2  0
 26 27  1  0
 27 28  2  0
 28 29  1  0
 29 30  2  0
 30 31  1  0
 21 32  2  0
  6 33  1  0
 33 34  1  0
 34 35  1  0
 35  4  1  0
 32  7  1  0
 19 10  1  0
 31 22  1  0
 18 13  1  0
 30 25  1  0
  1 36  1  0
  1 37  1  0
  1 38  1  0
  2 39  1  0
  2 40  1  0
  3 41  1  0
  4 42  1  6
  5 43  1  0
  5 44  1  0
 11 45  1  0
 11 46  1  0
 12 47  1  0
 12 48  1  0
 14 49  1  0
 15 50  1  0
 16 51  1  0
 17 52  1  0
 19 53  1  0
 19 54  1  0
 23 55  1  0
 23 56  1  0
 24 57  1  0
 24 58  1  0
 26 59  1  0
 27 60  1  0
 28 61  1  0
 29 62  1  0
 31 63  1  0
 31 64  1  0
 33 65  1  0
 33 66  1  0
 34 67  1  0
 34 68  1  0
M  END
>  <meeko>  (3) 
{"free_energy": -9.05, "intermolecular_energy": -10.54, "internal_energy": -0.93, "cluster_size": 16, "cluster_id": 1, "rank_in_cluster": 14}

$$$$

     RDKit          3D

 68 73  0  0  0  0  0  0  0  0999 V2000
  147.5480   74.8530  215.9540 C   0  0  0  0  0  0  0  0  0  0  0  0
  146.6680   73.6260  216.1540 C   0  0  0  0  0  0  0  0  0  0  0  0
  145.3900   74.0190  216.7660 N   0  0  0  0  0  0  0  0  0  0  0  0
  144.7980   72.9180  217.5470 C   0  0  2  0  0  0  0  0  0  0  0  0
  143.6780   73.4670  218.4450 C   0  0  0  0  0  0  0  0  0  0  0  0
  143.4160   72.6070  219.6060 N   0  0  0  0  0  0  0  0  0  0  0  0
  142.4000   73.0190  220.5410 C   0  0  0  0  0  0  0  0  0  0  0  0
  141.9420   74.2990  220.5300 N   0  0  0  0  0  0  0  0  0  0  0  0
  141.0000   74.7100  221.4190 C   0  0  0  0  0  0  0  0  0  0  0  0
  140.5500   76.0830  221.4280 N   0  0  0  0  0  0  0  0  0  0  0  0
  140.3510   76.8360  220.1840 C   0  0  0  0  0  0  0  0  0  0  0  0
  141.4020   77.9440  220.1010 C   0  0  0  0  0  0  0  0  0  0  0  0
  141.5110   78.7150  221.3960 C   0  0  0  0  0  0  0  0  0  0  0  0
  142.1420   79.9700  221.3940 C   0  0  0  0  0  0  0  0  0  0  0  0
  142.3110   80.6820  222.5820 C   0  0  0  0  0  0  0  0  0  0  0  0
  141.8580   80.1470  223.7910 C   0  0  0  0  0  0  0  0  0  0  0  0
  141.2380   78.8950  223.8110 C   0  0  0  0  0  0  0  0  0  0  0  0
  141.0760   78.1610  222.6260 C   0  0  0  0  0  0  0  0  0  0  0  0
  140.3670   76.8260  222.6810 C   0  0  0  0  0  0  0  0  0  0  0  0
  140.5070   73.8160  222.3190 N   0  0  0  0  0  0  0  0  0  0  0  0
  140.9510   72.5310  222.3440 C   0  0  0  0  0  0  0  0  0  0  0  0
  140.4210   71.5960  223.3090 N   0  0  0  0  0  0  0  0  0  0  0  0
  138.9970   71.2170  223.2430 C   0  0  0  0  0  0  0  0  0  0  0  0
  138.7630   69.8280  223.8380 C   0  0  0  0  0  0  0  0  0  0  0  0
  139.3220   69.7700  225.2250 C   0  0  0  0  0  0  0  0  0  0  0  0
  138.6520   69.0690  226.2440 C   0  0  0  0  0  0  0  0  0  0  0  0
  139.1960   69.0080  227.5280 C   0  0  0  0  0  0  0  0  0  0  0  0
  140.4160   69.6330  227.8020 C   0  0  0  0  0  0  0  0  0  0  0  0
  141.0960   70.3200  226.7880 C   0  0  0  0  0  0  0  0  0  0  0  0
  140.5460   70.4080  225.5000 C   0  0  0  0  0  0  0  0  0  0  0  0
  141.2940   71.1410  224.4110 C   0  0  0  0  0  0  0  0  0  0  0  0
  141.9060   72.1410  221.4530 N   0  0  0  0  0  0  0  0  0  0  0  0
  144.1200   71.3340  219.8370 C   0  0  0  0  0  0  0  0  0  0  0  0
  145.3320   71.1310  218.9070 C   0  0  0  0  0  0  0  0  0  0  0  0
  145.8040   72.3490  218.3650 O   0  0  0  0  0  0  0  0  0  0  0  0
  147.8392   75.2590  216.9340 H   0  0  0  0  0  0  0  0  0  0  0  0
  148.4500   74.5696  215.3918 H   0  0  0  0  0  0  0  0  0  0  0  0
  146.9903   75.6165  215.3918 H   0  0  0  0  0  0  0  0  0  0  0  0
  146.4753   73.1530  215.1798 H   0  0  0  0  0  0  0  0  0  0  0  0
  147.1833   72.9160  216.8176 H   0  0  0  0  0  0  0  0  0  0  0  0
  145.5870   74.8130  217.4210 H   0  0  0  0  0  0  0  0  0  0  0  0
  144.3844   72.1604  216.8651 H   0  0  0  0  0  0  0  0  0  0  0  0
  143.9707   74.4648  218.8039 H   0  0  0  0  0  0  0  0  0  0  0  0
  142.7574   73.5074  217.8443 H   0  0  0  0  0  0  0  0  0  0  0  0
  140.4580   76.1605  219.3225 H   0  0  0  0  0  0  0  0  0  0  0  0
  139.3434   77.2771  220.1729 H   0  0  0  0  0  0  0  0  0  0  0  0
  142.3784   77.4917  219.8731 H   0  0  0  0  0  0  0  0  0  0  0  0
  141.0961   78.6457  219.3110 H   0  0  0  0  0  0  0  0  0  0  0  0
  142.5062   80.3953  220.4472 H   0  0  0  0  0  0  0  0  0  0  0  0
  142.8018   81.6663  222.5669 H   0  0  0  0  0  0  0  0  0  0  0  0
  141.9894   80.7111  224.7261 H   0  0  0  0  0  0  0  0  0  0  0  0
  140.8740   78.4815  224.7631 H   0  0  0  0  0  0  0  0  0  0  0  0
  140.7766   76.2348  223.5133 H   0  0  0  0  0  0  0  0  0  0  0  0
  139.2919   77.0052  222.8293 H   0  0  0  0  0  0  0  0  0  0  0  0
  138.4041   71.9526  223.8064 H   0  0  0  0  0  0  0  0  0  0  0  0
  138.6917   71.1977  222.1864 H   0  0  0  0  0  0  0  0  0  0  0  0
  137.6830   69.6219  223.8706 H   0  0  0  0  0  0  0  0  0  0  0  0
  139.2652   69.0755  223.2122 H   0  0  0  0  0  0  0  0  0  0  0  0
  137.6969   68.5676  226.0284 H   0  0  0  0  0  0  0  0  0  0  0  0
  138.6642   68.4676  228.3250 H   0  0  0  0  0  0  0  0  0  0  0  0
  140.8425   69.5853  228.8148 H   0  0  0  0  0  0  0  0  0  0  0  0
  142.0658   70.7928  227.0025 H   0  0  0  0  0  0  0  0  0  0  0  0
  141.7839   72.0203  224.8545 H   0  0  0  0  0  0  0  0  0  0  0  0
  142.0205   70.4353  223.9819 H   0  0  0  0  0  0  0  0  0  0  0  0
  144.4720   71.3136  220.8790 H   0  0  0  0  0  0  0  0  0  0  0  0
  143.4069   70.5238  219.6249 H   0  0  0  0  0  0  0  0  0  0  0  0
  146.1440   70.6617  219.4818 H   0  0  0  0  0  0  0  0  0  0  0  0
  145.0105   70.4932  218.0704 H   0  0  0  0  0  0  0  0  0  0  0  0
  1  2  1  0
  2  3  1  0
  3  4  1  0
  4  5  1  0
  5  6  1  0
  6  7  1  0
  7  8  2  0
  8  9  1  0
  9 10  1  0
 10 11  1  0
 11 12  1  0
 12 13  1  0
 13 14  2  0
 14 15  1  0
 15 16  2  0
 16 17  1  0
 17 18  2  0
 18 19  1  0
  9 20  2  0
 20 21  1  0
 21 22  1  0
 22 23  1  0
 23 24  1  0
 24 25  1  0
 25 26  2  0
 26 27  1  0
 27 28  2  0
 28 29  1  0
 29 30  2  0
 30 31  1  0
 21 32  2  0
  6 33  1  0
 33 34  1  0
 34 35  1  0
 35  4  1  0
 32  7  1  0
 19 10  1  0
 31 22  1  0
 18 13  1  0
 30 25  1  0
  1 36  1  0
  1 37  1  0
  1 38  1  0
  2 39  1  0
  2 40  1  0
  3 41  1  0
  4 42  1  6
  5 43  1  0
  5 44  1  0
 11 45  1  0
 11 46  1  0
 12 47  1  0
 12 48  1  0
 14 49  1  0
 15 50  1  0
 16 51  1  0
 17 52  1  0
 19 53  1  0
 19 54  1  0
 23 55  1  0
 23 56  1  0
 24 57  1  0
 24 58  1  0
 26 59  1  0
 27 60  1  0
 28 61  1  0
 29 62  1  0
 31 63  1  0
 31 64  1  0
 33 65  1  0
 33 66  1  0
 34 67  1  0
 34 68  1  0
M  END
>  <meeko>  (4) 
{"free_energy": -9.65, "intermolecular_energy": -11.14, "internal_energy": -0.9, "cluster_size": 16, "cluster_id": 1, "rank_in_cluster": 2}

$$$$

     RDKit          3D

 68 73  0  0  0  0  0  0  0  0999 V2000
  140.4350   71.6930  228.3160 C   0  0  0  0  0  0  0  0  0  0  0  0
  141.1020   71.3870  226.9820 C   0  0  0  0  0  0  0  0  0  0  0  0
  140.6500   70.0800  226.4810 N   0  0  0  0  0  0  0  0  0  0  0  0
  140.0120   70.1940  225.1590 C   0  0  2  0  0  0  0  0  0  0  0  0
  140.8300   71.1450  224.2710 C   0  0  0  0  0  0  0  0  0  0  0  0
  140.0300   71.7340  223.1900 N   0  0  0  0  0  0  0  0  0  0  0  0
  140.6740   72.6620  222.2960 C   0  0  0  0  0  0  0  0  0  0  0  0
  140.3250   73.9760  222.3100 N   0  0  0  0  0  0  0  0  0  0  0  0
  140.9070   74.8610  221.4580 C   0  0  0  0  0  0  0  0  0  0  0  0
  140.4990   76.2480  221.4510 N   0  0  0  0  0  0  0  0  0  0  0  0
  140.3670   77.0060  220.2020 C   0  0  0  0  0  0  0  0  0  0  0  0
  141.4540   78.0810  220.1550 C   0  0  0  0  0  0  0  0  0  0  0  0
  141.5420   78.8490  221.4530 C   0  0  0  0  0  0  0  0  0  0  0  0
  142.2110   80.0840  221.4730 C   0  0  0  0  0  0  0  0  0  0  0  0
  142.3600   80.7920  222.6670 C   0  0  0  0  0  0  0  0  0  0  0  0
  141.8500   80.2720  223.8590 C   0  0  0  0  0  0  0  0  0  0  0  0
  141.1910   79.0390  223.8570 C   0  0  0  0  0  0  0  0  0  0  0  0
  141.0480   78.3100  222.6670 C   0  0  0  0  0  0  0  0  0  0  0  0
  140.2960   76.9970  222.6970 C   0  0  0  0  0  0  0  0  0  0  0  0
  141.8590   74.4170  220.5930 N   0  0  0  0  0  0  0  0  0  0  0  0
  142.2220   73.1070  220.5670 C   0  0  0  0  0  0  0  0  0  0  0  0
  143.2310   72.6510  219.6390 N   0  0  0  0  0  0  0  0  0  0  0  0
  143.2700   73.2150  218.2760 C   0  0  0  0  0  0  0  0  0  0  0  0
  144.6800   73.1520  217.6880 C   0  0  0  0  0  0  0  0  0  0  0  0
  145.1960   71.7480  217.7580 C   0  0  0  0  0  0  0  0  0  0  0  0
  145.9670   71.2120  216.7110 C   0  0  0  0  0  0  0  0  0  0  0  0
  146.4580   69.9080  216.7990 C   0  0  0  0  0  0  0  0  0  0  0  0
  146.1950   69.1350  217.9330 C   0  0  0  0  0  0  0  0  0  0  0  0
  145.4400   69.6690  218.9860 C   0  0  0  0  0  0  0  0  0  0  0  0
  144.9220   70.9710  218.8980 C   0  0  0  0  0  0  0  0  0  0  0  0
  144.1200   71.5410  220.0440 C   0  0  0  0  0  0  0  0  0  0  0  0
  141.6180   72.2320  221.4180 N   0  0  0  0  0  0  0  0  0  0  0  0
  138.6140   71.3960  222.9640 C   0  0  0  0  0  0  0  0  0  0  0  0
  137.9890   70.5870  224.1180 C   0  0  0  0  0  0  0  0  0  0  0  0
  138.7110   70.7280  225.3260 O   0  0  0  0  0  0  0  0  0  0  0  0
  141.1003   71.3878  229.1371 H   0  0  0  0  0  0  0  0  0  0  0  0
  140.2359   72.7725  228.3873 H   0  0  0  0  0  0  0  0  0  0  0  0
  139.4869   71.1398  228.3873 H   0  0  0  0  0  0  0  0  0  0  0  0
  140.8360   72.1678  226.2543 H   0  0  0  0  0  0  0  0  0  0  0  0
  142.1929   71.3624  227.1212 H   0  0  0  0  0  0  0  0  0  0  0  0
  141.4990   69.4720  226.3820 H   0  0  0  0  0  0  0  0  0  0  0  0
  139.9613   69.2022  224.6859 H   0  0  0  0  0  0  0  0  0  0  0  0
  141.2285   71.9568  224.8973 H   0  0  0  0  0  0  0  0  0  0  0  0
  141.6365   70.5579  223.8075 H   0  0  0  0  0  0  0  0  0  0  0  0
  140.4826   76.3269  219.3444 H   0  0  0  0  0  0  0  0  0  0  0  0
  139.3747   77.4785  220.1570 H   0  0  0  0  0  0  0  0  0  0  0  0
  142.4233   77.5986  219.9606 H   0  0  0  0  0  0  0  0  0  0  0  0
  141.1974   78.7911  219.3550 H   0  0  0  0  0  0  0  0  0  0  0  0
  142.6211   80.4970  220.5396 H   0  0  0  0  0  0  0  0  0  0  0  0
  142.8801   81.7613  222.6691 H   0  0  0  0  0  0  0  0  0  0  0  0
  141.9668   80.8322  224.7984 H   0  0  0  0  0  0  0  0  0  0  0  0
  140.7815   78.6375  224.7956 H   0  0  0  0  0  0  0  0  0  0  0  0
  140.6581   76.3939  223.5427 H   0  0  0  0  0  0  0  0  0  0  0  0
  139.2225   77.2095  222.8082 H   0  0  0  0  0  0  0  0  0  0  0  0
  142.5872   72.6419  217.6315 H   0  0  0  0  0  0  0  0  0  0  0  0
  142.9628   74.2699  218.3282 H   0  0  0  0  0  0  0  0  0  0  0  0
  144.6529   73.4793  216.6382 H   0  0  0  0  0  0  0  0  0  0  0  0
  145.3441   73.8124  218.2649 H   0  0  0  0  0  0  0  0  0  0  0  0
  146.1836   71.8213  215.8211 H   0  0  0  0  0  0  0  0  0  0  0  0
  147.0528   69.4884  215.9743 H   0  0  0  0  0  0  0  0  0  0  0  0
  146.5807   68.1070  217.9992 H   0  0  0  0  0  0  0  0  0  0  0  0
  145.2523   69.0650  219.8860 H   0  0  0  0  0  0  0  0  0  0  0  0
  143.5028   70.7375  220.4722 H   0  0  0  0  0  0  0  0  0  0  0  0
  144.8363   71.9462  220.7739 H   0  0  0  0  0  0  0  0  0  0  0  0
  138.0465   72.3308  222.8454 H   0  0  0  0  0  0  0  0  0  0  0  0
  138.5688   70.7668  222.0629 H   0  0  0  0  0  0  0  0  0  0  0  0
  136.9590   70.9381  224.2786 H   0  0  0  0  0  0  0  0  0  0  0  0
  138.0121   69.5244  223.8346 H   0  0  0  0  0  0  0  0  0  0  0  0
  1  2  1  0
  2  3  1  0
  3  4  1  0
  4  5  1  0
  5  6  1  0
  6  7  1  0
  7  8  2  0
  8  9  1  0
  9 10  1  0
 10 11  1  0
 11 12  1  0
 12 13  1  0
 13 14  2  0
 14 15  1  0
 15 16  2  0
 16 17  1  0
 17 18  2  0
 18 19  1  0
  9 20  2  0
 20 21  1  0
 21 22  1  0
 22 23  1  0
 23 24  1  0
 24 25  1  0
 25 26  2  0
 26 27  1  0
 27 28  2  0
 28 29  1  0
 29 30  2  0
 30 31  1  0
 21 32  2  0
  6 33  1  0
 33 34  1  0
 34 35  1  0
 35  4  1  0
 32  7  1  0
 19 10  1  0
 31 22  1  0
 18 13  1  0
 30 25  1  0
  1 36  1  0
  1 37  1  0
  1 38  1  0
  2 39  1  0
  2 40  1  0
  3 41  1  0
  4 42  1  6
  5 43  1  0
  5 44  1  0
 11 45  1  0
 11 46  1  0
 12 47  1  0
 12 48  1  0
 14 49  1  0
 15 50  1  0
 16 51  1  0
 17 52  1  0
 19 53  1  0
 19 54  1  0
 23 55  1  0
 23 56  1  0
 24 57  1  0
 24 58  1  0
 26 59  1  0
 27 60  1  0
 28 61  1  0
 29 62  1  0
 31 63  1  0
 31 64  1  0
 33 65  1  0
 33 66  1  0
 34 67  1  0
 34 68  1  0
M  END
>  <meeko>  (5) 
{"free_energy": -8.47, "intermolecular_energy": -9.96, "internal_energy": -0.98, "cluster_size": 1, "cluster_id": 3, "rank_in_cluster": 1}

$$$$

     RDKit          3D

 68 73  0  0  0  0  0  0  0  0999 V2000
  147.4830   74.2380  216.0200 C   0  0  0  0  0  0  0  0  0  0  0  0
  146.1120   73.6790  215.6630 C   0  0  0  0  0  0  0  0  0  0  0  0
  145.1050   74.1670  216.6180 N   0  0  0  0  0  0  0  0  0  0  0  0
  144.6750   73.1070  217.5470 C   0  0  2  0  0  0  0  0  0  0  0  0
  143.5100   73.6200  218.4080 C   0  0  0  0  0  0  0  0  0  0  0  0
  143.3810   72.8860  219.6730 N   0  0  0  0  0  0  0  0  0  0  0  0
  142.3380   73.2810  220.5850 C   0  0  0  0  0  0  0  0  0  0  0  0
  141.8700   74.5570  220.5740 N   0  0  0  0  0  0  0  0  0  0  0  0
  140.9020   74.9520  221.4420 C   0  0  0  0  0  0  0  0  0  0  0  0
  140.4400   76.3220  221.4510 N   0  0  0  0  0  0  0  0  0  0  0  0
  140.2420   77.0770  220.2090 C   0  0  0  0  0  0  0  0  0  0  0  0
  141.2850   78.1930  220.1340 C   0  0  0  0  0  0  0  0  0  0  0  0
  141.3810   78.9620  221.4310 C   0  0  0  0  0  0  0  0  0  0  0  0
  142.0020   80.2220  221.4350 C   0  0  0  0  0  0  0  0  0  0  0  0
  142.1590   80.9330  222.6260 C   0  0  0  0  0  0  0  0  0  0  0  0
  141.7040   80.3910  223.8310 C   0  0  0  0  0  0  0  0  0  0  0  0
  141.0940   79.1340  223.8450 C   0  0  0  0  0  0  0  0  0  0  0  0
  140.9440   78.4020  222.6570 C   0  0  0  0  0  0  0  0  0  0  0  0
  140.2450   77.0600  222.7060 C   0  0  0  0  0  0  0  0  0  0  0  0
  140.3930   74.0460  222.3200 N   0  0  0  0  0  0  0  0  0  0  0  0
  140.8460   72.7650  222.3450 C   0  0  0  0  0  0  0  0  0  0  0  0
  140.2990   71.8170  223.2870 N   0  0  0  0  0  0  0  0  0  0  0  0
  138.9430   71.2780  223.0670 C   0  0  0  0  0  0  0  0  0  0  0  0
  138.7830   69.8970  223.7040 C   0  0  0  0  0  0  0  0  0  0  0  0
  139.1630   69.9600  225.1510 C   0  0  0  0  0  0  0  0  0  0  0  0
  138.4450   69.2300  226.1160 C   0  0  0  0  0  0  0  0  0  0  0  0
  138.8230   69.2830  227.4590 C   0  0  0  0  0  0  0  0  0  0  0  0
  139.9240   70.0520  227.8470 C   0  0  0  0  0  0  0  0  0  0  0  0
  140.6520   70.7680  226.8880 C   0  0  0  0  0  0  0  0  0  0  0  0
  140.2670   70.7410  225.5390 C   0  0  0  0  0  0  0  0  0  0  0  0
  141.0660   71.5080  224.5120 C   0  0  0  0  0  0  0  0  0  0  0  0
  141.8270   72.3910  221.4770 N   0  0  0  0  0  0  0  0  0  0  0  0
  144.2470   71.7500  220.0340 C   0  0  0  0  0  0  0  0  0  0  0  0
  145.4580   71.5850  219.0950 C   0  0  0  0  0  0  0  0  0  0  0  0
  145.7600   72.7750  218.3930 O   0  0  0  0  0  0  0  0  0  0  0  0
  147.5880   74.2808  217.1141 H   0  0  0  0  0  0  0  0  0  0  0  0
  148.2647   73.5868  215.6019 H   0  0  0  0  0  0  0  0  0  0  0  0
  147.5865   75.2501  215.6019 H   0  0  0  0  0  0  0  0  0  0  0  0
  145.8391   74.0040  214.6482 H   0  0  0  0  0  0  0  0  0  0  0  0
  146.1478   72.5804  215.7061 H   0  0  0  0  0  0  0  0  0  0  0  0
  145.5510   74.9310  217.1800 H   0  0  0  0  0  0  0  0  0  0  0  0
  144.3508   72.2235  216.9775 H   0  0  0  0  0  0  0  0  0  0  0  0
  143.6788   74.6835  218.6327 H   0  0  0  0  0  0  0  0  0  0  0  0
  142.5813   73.4700  217.8379 H   0  0  0  0  0  0  0  0  0  0  0  0
  140.3582   76.4048  219.3461 H   0  0  0  0  0  0  0  0  0  0  0  0
  139.2313   77.5109  220.1946 H   0  0  0  0  0  0  0  0  0  0  0  0
  142.2661   77.7485  219.9106 H   0  0  0  0  0  0  0  0  0  0  0  0
  140.9782   78.8940  219.3438 H   0  0  0  0  0  0  0  0  0  0  0  0
  142.3679   80.6523  220.4911 H   0  0  0  0  0  0  0  0  0  0  0  0
  142.6416   81.9214  222.6160 H   0  0  0  0  0  0  0  0  0  0  0  0
  141.8260   80.9538  224.7682 H   0  0  0  0  0  0  0  0  0  0  0  0
  140.7286   78.7151  224.7942 H   0  0  0  0  0  0  0  0  0  0  0  0
  140.6559   76.4700  223.5385 H   0  0  0  0  0  0  0  0  0  0  0  0
  139.1678   77.2296  222.8506 H   0  0  0  0  0  0  0  0  0  0  0  0
  138.2080   71.9649  223.5118 H   0  0  0  0  0  0  0  0  0  0  0  0
  138.7798   71.1812  221.9835 H   0  0  0  0  0  0  0  0  0  0  0  0
  137.7357   69.5727  223.6150 H   0  0  0  0  0  0  0  0  0  0  0  0
  139.4376   69.1800  223.1870 H   0  0  0  0  0  0  0  0  0  0  0  0
  137.5842   68.6164  225.8118 H   0  0  0  0  0  0  0  0  0  0  0  0
  138.2538   68.7190  228.2126 H   0  0  0  0  0  0  0  0  0  0  0  0
  140.2188   70.0949  228.9059 H   0  0  0  0  0  0  0  0  0  0  0  0
  141.5306   71.3548  227.1943 H   0  0  0  0  0  0  0  0  0  0  0  0
  141.3986   72.4542  224.9638 H   0  0  0  0  0  0  0  0  0  0  0  0
  141.9121   70.8709  224.2149 H   0  0  0  0  0  0  0  0  0  0  0  0
  144.6176   71.9049  221.0580 H   0  0  0  0  0  0  0  0  0  0  0  0
  143.6401   70.8367  219.9470 H   0  0  0  0  0  0  0  0  0  0  0  0
  146.3337   71.2964  219.6948 H   0  0  0  0  0  0  0  0  0  0  0  0
  145.2058   70.8123  218.3538 H   0  0  0  0  0  0  0  0  0  0  0  0
  1  2  1  0
  2  3  1  0
  3  4  1  0
  4  5  1  0
  5  6  1  0
  6  7  1  0
  7  8  2  0
  8  9  1  0
  9 10  1  0
 10 11  1  0
 11 12  1  0
 12 13  1  0
 13 14  2  0
 14 15  1  0
 15 16  2  0
 16 17  1  0
 17 18  2  0
 18 19  1  0
  9 20  2  0
 20 21  1  0
 21 22  1  0
 22 23  1  0
 23 24  1  0
 24 25  1  0
 25 26  2  0
 26 27  1  0
 27 28  2  0
 28 29  1  0
 29 30  2  0
 30 31  1  0
 21 32  2  0
  6 33  1  0
 33 34  1  0
 34 35  1  0
 35  4  1  0
 32  7  1  0
 19 10  1  0
 31 22  1  0
 18 13  1  0
 30 25  1  0
  1 36  1  0
  1 37  1  0
  1 38  1  0
  2 39  1  0
  2 40  1  0
  3 41  1  0
  4 42  1  6
  5 43  1  0
  5 44  1  0
 11 45  1  0
 11 46  1  0
 12 47  1  0
 12 48  1  0
 14 49  1  0
 15 50  1  0
 16 51  1  0
 17 52  1  0
 19 53  1  0
 19 54  1  0
 23 55  1  0
 23 56  1  0
 24 57  1  0
 24 58  1  0
 26 59  1  0
 27 60  1  0
 28 61  1  0
 29 62  1  0
 31 63  1  0
 31 64  1  0
 33 65  1  0
 33 66  1  0
 34 67  1  0
 34 68  1  0
M  END
>  <meeko>  (6) 
{"free_energy": -9.58, "intermolecular_energy": -11.07, "internal_energy": -0.91, "cluster_size": 16, "cluster_id": 1, "rank_in_cluster": 5}

$$$$

     RDKit          3D

 68 73  0  0  0  0  0  0  0  0999 V2000
  146.1730   68.7310  219.3120 C   0  0  0  0  0  0  0  0  0  0  0  0
  145.4840   70.0390  218.9470 C   0  0  0  0  0  0  0  0  0  0  0  0
  146.3130   71.1800  219.3690 N   0  0  0  0  0  0  0  0  0  0  0  0
  145.6500   72.4660  219.0960 C   0  0  2  0  0  0  0  0  0  0  0  0
  144.5170   72.6880  220.1100 C   0  0  0  0  0  0  0  0  0  0  0  0
  143.4910   73.6140  219.6150 N   0  0  0  0  0  0  0  0  0  0  0  0
  142.3600   73.8930  220.4620 C   0  0  0  0  0  0  0  0  0  0  0  0
  141.8410   75.1480  220.5150 N   0  0  0  0  0  0  0  0  0  0  0  0
  140.7870   75.4330  221.3260 C   0  0  0  0  0  0  0  0  0  0  0  0
  140.2680   76.7790  221.4060 N   0  0  0  0  0  0  0  0  0  0  0  0
  139.9650   77.5620  220.2030 C   0  0  0  0  0  0  0  0  0  0  0  0
  140.9520   78.7260  220.1050 C   0  0  0  0  0  0  0  0  0  0  0  0
  141.0900   79.4590  221.4200 C   0  0  0  0  0  0  0  0  0  0  0  0
  141.6540   80.7440  221.4300 C   0  0  0  0  0  0  0  0  0  0  0  0
  141.8490   81.4250  222.6330 C   0  0  0  0  0  0  0  0  0  0  0  0
  141.4900   80.8270  223.8440 C   0  0  0  0  0  0  0  0  0  0  0  0
  140.9370   79.5430  223.8510 C   0  0  0  0  0  0  0  0  0  0  0  0
  140.7500   78.8410  222.6490 C   0  0  0  0  0  0  0  0  0  0  0  0
  140.1150   77.4690  222.6930 C   0  0  0  0  0  0  0  0  0  0  0  0
  140.2470   74.4380  222.0800 N   0  0  0  0  0  0  0  0  0  0  0  0
  140.7510   73.1760  222.0390 C   0  0  0  0  0  0  0  0  0  0  0  0
  140.1690   72.1330  222.8500 N   0  0  0  0  0  0  0  0  0  0  0  0
  138.7180   71.8760  222.7690 C   0  0  0  0  0  0  0  0  0  0  0  0
  138.3870   70.4280  223.1280 C   0  0  0  0  0  0  0  0  0  0  0  0
  138.9690   70.0930  224.4670 C   0  0  0  0  0  0  0  0  0  0  0  0
  138.2660   69.2810  225.3750 C   0  0  0  0  0  0  0  0  0  0  0  0
  138.8290   68.9620  226.6120 C   0  0  0  0  0  0  0  0  0  0  0  0
  140.0990   69.4390  226.9470 C   0  0  0  0  0  0  0  0  0  0  0  0
  140.8110   70.2360  226.0410 C   0  0  0  0  0  0  0  0  0  0  0  0
  140.2440   70.5830  224.8050 C   0  0  0  0  0  0  0  0  0  0  0  0
  141.0250   71.4330  223.8300 C   0  0  0  0  0  0  0  0  0  0  0  0
  141.8160   72.9120  221.2310 N   0  0  0  0  0  0  0  0  0  0  0  0
  143.5850   74.2910  218.3100 C   0  0  0  0  0  0  0  0  0  0  0  0
  144.7050   73.7300  217.4120 C   0  0  0  0  0  0  0  0  0  0  0  0
  145.0980   72.4270  217.7930 O   0  0  0  0  0  0  0  0  0  0  0  0
  146.2231   68.6360  220.4067 H   0  0  0  0  0  0  0  0  0  0  0  0
  145.6022   67.8875  218.8965 H   0  0  0  0  0  0  0  0  0  0  0  0
  147.1915   68.7247  218.8965 H   0  0  0  0  0  0  0  0  0  0  0  0
  145.3346   70.0804  217.8580 H   0  0  0  0  0  0  0  0  0  0  0  0
  144.5119   70.0901  219.4593 H   0  0  0  0  0  0  0  0  0  0  0  0
  146.4540   71.0980  220.4040 H   0  0  0  0  0  0  0  0  0  0  0  0
  146.3815   73.2835  219.1772 H   0  0  0  0  0  0  0  0  0  0  0  0
  144.0427   71.7193  220.3263 H   0  0  0  0  0  0  0  0  0  0  0  0
  144.9601   73.1329  221.0132 H   0  0  0  0  0  0  0  0  0  0  0  0
  140.0595   76.9223  219.3131 H   0  0  0  0  0  0  0  0  0  0  0  0
  138.9373   77.9500  220.2611 H   0  0  0  0  0  0  0  0  0  0  0  0
  141.9368   78.3337  219.8113 H   0  0  0  0  0  0  0  0  0  0  0  0
  140.5693   79.4360  219.3570 H   0  0  0  0  0  0  0  0  0  0  0  0
  141.9451   81.2189  220.4814 H   0  0  0  0  0  0  0  0  0  0  0  0
  142.2861   82.4344  222.6277 H   0  0  0  0  0  0  0  0  0  0  0  0
  141.6424   81.3660  224.7907 H   0  0  0  0  0  0  0  0  0  0  0  0
  140.6462   79.0791  224.8050 H   0  0  0  0  0  0  0  0  0  0  0  0
  140.5992   76.8732  223.4808 H   0  0  0  0  0  0  0  0  0  0  0  0
  139.0417   77.5852  222.9039 H   0  0  0  0  0  0  0  0  0  0  0  0
  138.1963   72.5462  223.4681 H   0  0  0  0  0  0  0  0  0  0  0  0
  138.3913   72.0595  221.7348 H   0  0  0  0  0  0  0  0  0  0  0  0
  137.2949   70.3004  223.1619 H   0  0  0  0  0  0  0  0  0  0  0  0
  138.8143   69.7578  222.3676 H   0  0  0  0  0  0  0  0  0  0  0  0
  137.2702   68.8963  225.1098 H   0  0  0  0  0  0  0  0  0  0  0  0
  138.2723   68.3346  227.3237 H   0  0  0  0  0  0  0  0  0  0  0  0
  140.5402   69.1885  227.9230 H   0  0  0  0  0  0  0  0  0  0  0  0
  141.8193   70.5915  226.2997 H   0  0  0  0  0  0  0  0  0  0  0  0
  141.5920   72.1849  224.3984 H   0  0  0  0  0  0  0  0  0  0  0  0
  141.6840   70.7581  223.2641 H   0  0  0  0  0  0  0  0  0  0  0  0
  142.6252   74.1735  217.7857 H   0  0  0  0  0  0  0  0  0  0  0  0
  143.8230   75.3468  218.5068 H   0  0  0  0  0  0  0  0  0  0  0  0
  144.3440   73.7008  216.3734 H   0  0  0  0  0  0  0  0  0  0  0  0
  145.5800   74.3885  217.5156 H   0  0  0  0  0  0  0  0  0  0  0  0
  1  2  1  0
  2  3  1  0
  3  4  1  0
  4  5  1  0
  5  6  1  0
  6  7  1  0
  7  8  2  0
  8  9  1  0
  9 10  1  0
 10 11  1  0
 11 12  1  0
 12 13  1  0
 13 14  2  0
 14 15  1  0
 15 16  2  0
 16 17  1  0
 17 18  2  0
 18 19  1  0
  9 20  2  0
 20 21  1  0
 21 22  1  0
 22 23  1  0
 23 24  1  0
 24 25  1  0
 25 26  2  0
 26 27  1  0
 27 28  2  0
 28 29  1  0
 29 30  2  0
 30 31  1  0
 21 32  2  0
  6 33  1  0
 33 34  1  0
 34 35  1  0
 35  4  1  0
 32  7  1  0
 19 10  1  0
 31 22  1  0
 18 13  1  0
 30 25  1  0
  1 36  1  0
  1 37  1  0
  1 38  1  0
  2 39  1  0
  2 40  1  0
  3 41  1  0
  4 42  1  6
  5 43  1  0
  5 44  1  0
 11 45  1  0
 11 46  1  0
 12 47  1  0
 12 48  1  0
 14 49  1  0
 15 50  1  0
 16 51  1  0
 17 52  1  0
 19 53  1  0
 19 54  1  0
 23 55  1  0
 23 56  1  0
 24 57  1  0
 24 58  1  0
 26 59  1  0
 27 60  1  0
 28 61  1  0
 29 62  1  0
 31 63  1  0
 31 64  1  0
 33 65  1  0
 33 66  1  0
 34 67  1  0
 34 68  1  0
M  END
>  <meeko>  (7) 
{"free_energy": -9.27, "intermolecular_energy": -10.76, "internal_energy": -0.94, "cluster_size": 16, "cluster_id": 1, "rank_in_cluster": 12}

$$$$

     RDKit          3D

 68 73  0  0  0  0  0  0  0  0999 V2000
  146.0380   68.7100  219.3030 C   0  0  0  0  0  0  0  0  0  0  0  0
  145.4170   70.0510  218.9370 C   0  0  0  0  0  0  0  0  0  0  0  0
  146.2910   71.1490  219.3780 N   0  0  0  0  0  0  0  0  0  0  0  0
  145.6700   72.4660  219.1530 C   0  0  2  0  0  0  0  0  0  0  0  0
  144.5180   72.6700  220.1500 C   0  0  0  0  0  0  0  0  0  0  0  0
  143.5310   73.6480  219.6760 N   0  0  0  0  0  0  0  0  0  0  0  0
  142.3880   73.9180  220.5100 C   0  0  0  0  0  0  0  0  0  0  0  0
  141.8590   75.1690  220.5570 N   0  0  0  0  0  0  0  0  0  0  0  0
  140.7930   75.4450  221.3550 C   0  0  0  0  0  0  0  0  0  0  0  0
  140.2640   76.7880  221.4310 N   0  0  0  0  0  0  0  0  0  0  0  0
  139.9430   77.5590  220.2250 C   0  0  0  0  0  0  0  0  0  0  0  0
  140.9200   78.7310  220.1100 C   0  0  0  0  0  0  0  0  0  0  0  0
  141.0630   79.4740  221.4180 C   0  0  0  0  0  0  0  0  0  0  0  0
  141.6180   80.7640  221.4140 C   0  0  0  0  0  0  0  0  0  0  0  0
  141.8180   81.4550  222.6110 C   0  0  0  0  0  0  0  0  0  0  0  0
  141.4750   80.8620  223.8280 C   0  0  0  0  0  0  0  0  0  0  0  0
  140.9320   79.5740  223.8500 C   0  0  0  0  0  0  0  0  0  0  0  0
  140.7400   78.8630  222.6550 C   0  0  0  0  0  0  0  0  0  0  0  0
  140.1160   77.4860  222.7140 C   0  0  0  0  0  0  0  0  0  0  0  0
  140.2500   74.4460  222.1010 N   0  0  0  0  0  0  0  0  0  0  0  0
  140.7640   73.1880  222.0640 C   0  0  0  0  0  0  0  0  0  0  0  0
  140.1780   72.1390  222.8670 N   0  0  0  0  0  0  0  0  0  0  0  0
  138.7280   71.8840  222.7790 C   0  0  0  0  0  0  0  0  0  0  0  0
  138.3940   70.4340  223.1280 C   0  0  0  0  0  0  0  0  0  0  0  0
  138.9720   70.0890  224.4660 C   0  0  0  0  0  0  0  0  0  0  0  0
  138.2650   69.2710  225.3660 C   0  0  0  0  0  0  0  0  0  0  0  0
  138.8250   68.9420  226.6020 C   0  0  0  0  0  0  0  0  0  0  0  0
  140.0950   69.4160  226.9440 C   0  0  0  0  0  0  0  0  0  0  0  0
  140.8100   70.2190  226.0460 C   0  0  0  0  0  0  0  0  0  0  0  0
  140.2470   70.5750  224.8100 C   0  0  0  0  0  0  0  0  0  0  0  0
  141.0310   71.4310  223.8440 C   0  0  0  0  0  0  0  0  0  0  0  0
  141.8410   72.9320  221.2700 N   0  0  0  0  0  0  0  0  0  0  0  0
  143.6750   74.3840  218.4080 C   0  0  0  0  0  0  0  0  0  0  0  0
  144.8020   73.8350  217.5100 C   0  0  0  0  0  0  0  0  0  0  0  0
  145.1500   72.5040  217.8370 O   0  0  0  0  0  0  0  0  0  0  0  0
  146.0828   68.6133  220.3978 H   0  0  0  0  0  0  0  0  0  0  0  0
  145.4249   67.8965  218.8878 H   0  0  0  0  0  0  0  0  0  0  0  0
  147.0549   68.6513  218.8878 H   0  0  0  0  0  0  0  0  0  0  0  0
  145.2859   70.1058  217.8462 H   0  0  0  0  0  0  0  0  0  0  0  0
  144.4412   70.1445  219.4360 H   0  0  0  0  0  0  0  0  0  0  0  0
  146.4440   71.0320  220.4090 H   0  0  0  0  0  0  0  0  0  0  0  0
  146.4203   73.2584  219.2915 H   0  0  0  0  0  0  0  0  0  0  0  0
  144.0122   71.7059  220.3067 H   0  0  0  0  0  0  0  0  0  0  0  0
  144.9496   73.0568  221.0849 H   0  0  0  0  0  0  0  0  0  0  0  0
  140.0349   76.9136  219.3390 H   0  0  0  0  0  0  0  0  0  0  0  0
  138.9125   77.9384  220.2891 H   0  0  0  0  0  0  0  0  0  0  0  0
  141.9055   78.3448  219.8105 H   0  0  0  0  0  0  0  0  0  0  0  0
  140.5252   79.4324  219.3602 H   0  0  0  0  0  0  0  0  0  0  0  0
  141.8976   81.2343  220.4597 H   0  0  0  0  0  0  0  0  0  0  0  0
  142.2464   82.4680  222.5952 H   0  0  0  0  0  0  0  0  0  0  0  0
  141.6322   81.4086  224.7696 H   0  0  0  0  0  0  0  0  0  0  0  0
  140.6534   79.1147  224.8099 H   0  0  0  0  0  0  0  0  0  0  0  0
  140.6112   76.8997  223.5021 H   0  0  0  0  0  0  0  0  0  0  0  0
  139.0435   77.5954  222.9327 H   0  0  0  0  0  0  0  0  0  0  0  0
  138.2043   72.5505  223.4801 H   0  0  0  0  0  0  0  0  0  0  0  0
  138.4055   72.0740  221.7446 H   0  0  0  0  0  0  0  0  0  0  0  0
  137.3017   70.3079  223.1584 H   0  0  0  0  0  0  0  0  0  0  0  0
  138.8225   69.7683  222.3643 H   0  0  0  0  0  0  0  0  0  0  0  0
  137.2692   68.8899  225.0955 H   0  0  0  0  0  0  0  0  0  0  0  0
  138.2664   68.3092  227.3074 H   0  0  0  0  0  0  0  0  0  0  0  0
  140.5333   69.1581  227.9194 H   0  0  0  0  0  0  0  0  0  0  0  0
  141.8175   70.5724  226.3105 H   0  0  0  0  0  0  0  0  0  0  0  0
  141.5972   72.1782  224.4195 H   0  0  0  0  0  0  0  0  0  0  0  0
  141.6910   70.7598  223.2748 H   0  0  0  0  0  0  0  0  0  0  0  0
  142.7256   74.3186  217.8564 H   0  0  0  0  0  0  0  0  0  0  0  0
  143.9360   75.4222  218.6611 H   0  0  0  0  0  0  0  0  0  0  0  0
  144.4663   73.8656  216.4629 H   0  0  0  0  0  0  0  0  0  0  0  0
  145.6917   74.4628  217.6657 H   0  0  0  0  0  0  0  0  0  0  0  0
  1  2  1  0
  2  3  1  0
  3  4  1  0
  4  5  1  0
  5  6  1  0
  6  7  1  0
  7  8  2  0
  8  9  1  0
  9 10  1  0
 10 11  1  0
 11 12  1  0
 12 13  1  0
 13 14  2  0
 14 15  1  0
 15 16  2  0
 16 17  1  0
 17 18  2  0
 18 19  1  0
  9 20  2  0
 20 21  1  0
 21 22  1  0
 22 23  1  0
 23 24  1  0
 24 25  1  0
 25 26  2  0
 26 27  1  0
 27 28  2  0
 28 29  1  0
 29 30  2  0
 30 31  1  0
 21 32  2  0
  6 33  1  0
 33 34  1  0
 34 35  1  0
 35  4  1  0
 32  7  1  0
 19 10  1  0
 31 22  1  0
 18 13  1  0
 30 25  1  0
  1 36  1  0
  1 37  1  0
  1 38  1  0
  2 39  1  0
  2 40  1  0
  3 41  1  0
  4 42  1  6
  5 43  1  0
  5 44  1  0
 11 45  1  0
 11 46  1  0
 12 47  1  0
 12 48  1  0
 14 49  1  0
 15 50  1  0
 16 51  1  0
 17 52  1  0
 19 53  1  0
 19 54  1  0
 23 55  1  0
 23 56  1  0
 24 57  1  0
 24 58  1  0
 26 59  1  0
 27 60  1  0
 28 61  1  0
 29 62  1  0
 31 63  1  0
 31 64  1  0
 33 65  1  0
 33 66  1  0
 34 67  1  0
 34 68  1  0
M  END
>  <meeko>  (8) 
{"free_energy": -9.27, "intermolecular_energy": -10.76, "internal_energy": -0.95, "cluster_size": 16, "cluster_id": 1, "rank_in_cluster": 11}

$$$$

     RDKit          3D

 68 73  0  0  0  0  0  0  0  0999 V2000
  146.6450   73.2740  221.9470 C   0  0  0  0  0  0  0  0  0  0  0  0
  146.1900   74.1370  220.7780 C   0  0  0  0  0  0  0  0  0  0  0  0
  146.3150   73.3870  219.5190 N   0  0  0  0  0  0  0  0  0  0  0  0
  145.0540   72.7160  219.1570 C   0  0  2  0  0  0  0  0  0  0  0  0
  143.9310   73.1890  220.0940 C   0  0  0  0  0  0  0  0  0  0  0  0
  142.8270   72.2250  220.1780 N   0  0  0  0  0  0  0  0  0  0  0  0
  141.7160   72.5380  221.0410 C   0  0  0  0  0  0  0  0  0  0  0  0
  140.8390   73.5170  220.6950 N   0  0  0  0  0  0  0  0  0  0  0  0
  139.7980   73.8400  221.5080 C   0  0  0  0  0  0  0  0  0  0  0  0
  138.8950   74.9100  221.1510 N   0  0  0  0  0  0  0  0  0  0  0  0
  139.3680   76.1280  220.4830 C   0  0  0  0  0  0  0  0  0  0  0  0
  139.2290   77.3090  221.4450 C   0  0  0  0  0  0  0  0  0  0  0  0
  137.8710   77.3380  222.1080 C   0  0  0  0  0  0  0  0  0  0  0  0
  137.4370   78.5210  222.7260 C   0  0  0  0  0  0  0  0  0  0  0  0
  136.2130   78.5650  223.3970 C   0  0  0  0  0  0  0  0  0  0  0  0
  135.4100   77.4240  223.4660 C   0  0  0  0  0  0  0  0  0  0  0  0
  135.8340   76.2350  222.8650 C   0  0  0  0  0  0  0  0  0  0  0  0
  137.0690   76.1730  222.2010 C   0  0  0  0  0  0  0  0  0  0  0  0
  137.4770   74.8800  221.5300 C   0  0  0  0  0  0  0  0  0  0  0  0
  139.6360   73.1590  222.6740 N   0  0  0  0  0  0  0  0  0  0  0  0
  140.5010   72.1750  223.0360 C   0  0  0  0  0  0  0  0  0  0  0  0
  140.3170   71.4650  224.2810 N   0  0  0  0  0  0  0  0  0  0  0  0
  141.0770   71.8860  225.4730 C   0  0  0  0  0  0  0  0  0  0  0  0
  140.3370   71.5230  226.7610 C   0  0  0  0  0  0  0  0  0  0  0  0
  140.0060   70.0630  226.7600 C   0  0  0  0  0  0  0  0  0  0  0  0
  140.0880   69.3050  227.9430 C   0  0  0  0  0  0  0  0  0  0  0  0
  139.7580   67.9490  227.9300 C   0  0  0  0  0  0  0  0  0  0  0  0
  139.3320   67.3420  226.7450 C   0  0  0  0  0  0  0  0  0  0  0  0
  139.2330   68.0950  225.5680 C   0  0  0  0  0  0  0  0  0  0  0  0
  139.5860   69.4540  225.5640 C   0  0  0  0  0  0  0  0  0  0  0  0
  139.4640   70.2590  224.2910 C   0  0  0  0  0  0  0  0  0  0  0  0
  141.5470   71.8750  222.2150 N   0  0  0  0  0  0  0  0  0  0  0  0
  142.7910   70.9750  219.4010 C   0  0  0  0  0  0  0  0  0  0  0  0
  144.1300   70.6490  218.7100 C   0  0  0  0  0  0  0  0  0  0  0  0
  145.2220   71.3190  219.3100 O   0  0  0  0  0  0  0  0  0  0  0  0
  146.3832   73.7705  222.8930 H   0  0  0  0  0  0  0  0  0  0  0  0
  146.1458   72.2951  221.8963 H   0  0  0  0  0  0  0  0  0  0  0  0
  147.7347   73.1329  221.8963 H   0  0  0  0  0  0  0  0  0  0  0  0
  145.1392   74.4265  220.9265 H   0  0  0  0  0  0  0  0  0  0  0  0
  146.8216   75.0361  220.7263 H   0  0  0  0  0  0  0  0  0  0  0  0
  146.5450   74.0770  218.7640 H   0  0  0  0  0  0  0  0  0  0  0  0
  144.7907   72.9579  218.1167 H   0  0  0  0  0  0  0  0  0  0  0  0
  144.3494   73.3351  221.1008 H   0  0  0  0  0  0  0  0  0  0  0  0
  143.5264   74.1265  219.6849 H   0  0  0  0  0  0  0  0  0  0  0  0
  140.4235   76.0064  220.1983 H   0  0  0  0  0  0  0  0  0  0  0  0
  138.7694   76.3125  219.5788 H   0  0  0  0  0  0  0  0  0  0  0  0
  140.0028   77.2275  222.2225 H   0  0  0  0  0  0  0  0  0  0  0  0
  139.3458   78.2367  220.8656 H   0  0  0  0  0  0  0  0  0  0  0  0
  138.0667   79.4218  222.6814 H   0  0  0  0  0  0  0  0  0  0  0  0
  135.8806   79.4998  223.8720 H   0  0  0  0  0  0  0  0  0  0  0  0
  134.4450   77.4610  223.9927 H   0  0  0  0  0  0  0  0  0  0  0  0
  135.1947   75.3411  222.9129 H   0  0  0  0  0  0  0  0  0  0  0  0
  137.3079   74.0446  222.2254 H   0  0  0  0  0  0  0  0  0  0  0  0
  136.8730   74.7512  220.6197 H   0  0  0  0  0  0  0  0  0  0  0  0
  142.0562   71.3848  225.4690 H   0  0  0  0  0  0  0  0  0  0  0  0
  141.1987   72.9787  225.4389 H   0  0  0  0  0  0  0  0  0  0  0  0
  140.9760   71.7522  227.6265 H   0  0  0  0  0  0  0  0  0  0  0  0
  139.4068   72.1068  226.8229 H   0  0  0  0  0  0  0  0  0  0  0  0
  140.4127   69.7821  228.8794 H   0  0  0  0  0  0  0  0  0  0  0  0
  139.8332   67.3568  228.8539 H   0  0  0  0  0  0  0  0  0  0  0  0
  139.0744   66.2726  226.7368 H   0  0  0  0  0  0  0  0  0  0  0  0
  138.8770   67.6193  224.6423 H   0  0  0  0  0  0  0  0  0  0  0  0
  139.7529   69.6195  223.4439 H   0  0  0  0  0  0  0  0  0  0  0  0
  138.4198   70.5966  224.2166 H   0  0  0  0  0  0  0  0  0  0  0  0
  142.5384   70.1481  220.0810 H   0  0  0  0  0  0  0  0  0  0  0  0
  142.0383   71.1045  218.6093 H   0  0  0  0  0  0  0  0  0  0  0  0
  144.3042   69.5646  218.7704 H   0  0  0  0  0  0  0  0  0  0  0  0
  144.0605   70.9878  217.6658 H   0  0  0  0  0  0  0  0  0  0  0  0
  1  2  1  0
  2  3  1  0
  3  4  1  0
  4  5  1  0
  5  6  1  0
  6  7  1  0
  7  8  2  0
  8  9  1  0
  9 10  1  0
 10 11  1  0
 11 12  1  0
 12 13  1  0
 13 14  2  0
 14 15  1  0
 15 16  2  0
 16 17  1  0
 17 18  2  0
 18 19  1  0
  9 20  2  0
 20 21  1  0
 21 22  1  0
 22 23  1  0
 23 24  1  0
 24 25  1  0
 25 26  2  0
 26 27  1  0
 27 28  2  0
 28 29  1  0
 29 30  2  0
 30 31  1  0
 21 32  2  0
  6 33  1  0
 33 34  1  0
 34 35  1  0
 35  4  1  0
 32  7  1  0
 19 10  1  0
 31 22  1  0
 18 13  1  0
 30 25  1  0
  1 36  1  0
  1 37  1  0
  1 38  1  0
  2 39  1  0
  2 40  1  0
  3 41  1  0
  4 42  1  6
  5 43  1  0
  5 44  1  0
 11 45  1  0
 11 46  1  0
 12 47  1  0
 12 48  1  0
 14 49  1  0
 15 50  1  0
 16 51  1  0
 17 52  1  0
 19 53  1  0
 19 54  1  0
 23 55  1  0
 23 56  1  0
 24 57  1  0
 24 58  1  0
 26 59  1  0
 27 60  1  0
 28 61  1  0
 29 62  1  0
 31 63  1  0
 31 64  1  0
 33 65  1  0
 33 66  1  0
 34 67  1  0
 34 68  1  0
M  END
>  <meeko>  (9) 
{"free_energy": -9.07, "intermolecular_energy": -10.56, "internal_energy": -1.0, "cluster_size": 2, "cluster_id": 2, "rank_in_cluster": 1}

$$$$

     RDKit          3D

 68 73  0  0  0  0  0  0  0  0999 V2000
  145.6820   75.3410  215.2380 C   0  0  0  0  0  0  0  0  0  0  0  0
  144.9100   74.6480  216.3530 C   0  0  0  0  0  0  0  0  0  0  0  0
  145.7930   73.7170  217.0730 N   0  0  0  0  0  0  0  0  0  0  0  0
  145.0310   72.6420  217.7320 C   0  0  2  0  0  0  0  0  0  0  0  0
  143.9220   73.2550  218.6020 C   0  0  0  0  0  0  0  0  0  0  0  0
  143.4880   72.3540  219.6770 N   0  0  0  0  0  0  0  0  0  0  0  0
  142.4660   72.8160  220.5800 C   0  0  0  0  0  0  0  0  0  0  0  0
  142.0060   74.0920  220.4930 N   0  0  0  0  0  0  0  0  0  0  0  0
  141.0560   74.5510  221.3520 C   0  0  0  0  0  0  0  0  0  0  0  0
  140.6040   75.9220  221.2790 N   0  0  0  0  0  0  0  0  0  0  0  0
  140.5090   76.6350  220.0000 C   0  0  0  0  0  0  0  0  0  0  0  0
  141.5610   77.7450  219.9710 C   0  0  0  0  0  0  0  0  0  0  0  0
  141.5580   78.5570  221.2460 C   0  0  0  0  0  0  0  0  0  0  0  0
  142.1840   79.8140  221.2570 C   0  0  0  0  0  0  0  0  0  0  0  0
  142.2500   80.5630  222.4330 C   0  0  0  0  0  0  0  0  0  0  0  0
  141.6990   80.0640  223.6150 C   0  0  0  0  0  0  0  0  0  0  0  0
  141.0820   78.8100  223.6220 C   0  0  0  0  0  0  0  0  0  0  0  0
  141.0230   78.0390  222.4510 C   0  0  0  0  0  0  0  0  0  0  0  0
  140.3140   76.7020  222.4880 C   0  0  0  0  0  0  0  0  0  0  0  0
  140.5590   73.7090  222.2970 N   0  0  0  0  0  0  0  0  0  0  0  0
  141.0050   72.4290  222.3980 C   0  0  0  0  0  0  0  0  0  0  0  0
  140.4700   71.5490  223.4110 N   0  0  0  0  0  0  0  0  0  0  0  0
  139.0510   71.1500  223.3480 C   0  0  0  0  0  0  0  0  0  0  0  0
  138.8210   69.7980  224.0230 C   0  0  0  0  0  0  0  0  0  0  0  0
  139.3610   69.8320  225.4200 C   0  0  0  0  0  0  0  0  0  0  0  0
  138.6820   69.1870  226.4700 C   0  0  0  0  0  0  0  0  0  0  0  0
  139.2070   69.2110  227.7630 C   0  0  0  0  0  0  0  0  0  0  0  0
  140.4160   69.8650  228.0160 C   0  0  0  0  0  0  0  0  0  0  0  0
  141.1050   70.4960  226.9720 C   0  0  0  0  0  0  0  0  0  0  0  0
  140.5740   70.4990  225.6730 C   0  0  0  0  0  0  0  0  0  0  0  0
  141.3300   71.1720  224.5520 C   0  0  0  0  0  0  0  0  0  0  0  0
  141.9670   71.9900  221.5380 N   0  0  0  0  0  0  0  0  0  0  0  0
  144.0280   70.9940  219.8510 C   0  0  0  0  0  0  0  0  0  0  0  0
  145.2690   70.7150  218.9800 C   0  0  0  0  0  0  0  0  0  0  0  0
  145.9100   71.9040  218.5610 O   0  0  0  0  0  0  0  0  0  0  0  0
  146.4329   76.0150  215.6760 H   0  0  0  0  0  0  0  0  0  0  0  0
  146.1853   74.5859  214.6163 H   0  0  0  0  0  0  0  0  0  0  0  0
  144.9854   75.9226  214.6163 H   0  0  0  0  0  0  0  0  0  0  0  0
  144.5271   75.4034  217.0550 H   0  0  0  0  0  0  0  0  0  0  0  0
  144.0716   74.0857  215.9162 H   0  0  0  0  0  0  0  0  0  0  0  0
  146.4300   73.2790  216.3650 H   0  0  0  0  0  0  0  0  0  0  0  0
  144.5813   71.9865  216.9717 H   0  0  0  0  0  0  0  0  0  0  0  0
  144.3001   74.1848  219.0521 H   0  0  0  0  0  0  0  0  0  0  0  0
  143.0540   73.4436  217.9532 H   0  0  0  0  0  0  0  0  0  0  0  0
  140.6897   75.9336  219.1721 H   0  0  0  0  0  0  0  0  0  0  0  0
  139.5050   77.0708  219.8904 H   0  0  0  0  0  0  0  0  0  0  0  0
  142.5542   77.2905  219.8410 H   0  0  0  0  0  0  0  0  0  0  0  0
  141.3218   78.4200  219.1360 H   0  0  0  0  0  0  0  0  0  0  0  0
  142.6259   80.2116  220.3314 H   0  0  0  0  0  0  0  0  0  0  0  0
  142.7374   81.5491  222.4286 H   0  0  0  0  0  0  0  0  0  0  0  0
  141.7505   80.6573  224.5398 H   0  0  0  0  0  0  0  0  0  0  0  0
  140.6394   78.4245  224.5523 H   0  0  0  0  0  0  0  0  0  0  0  0
  140.6530   76.1388  223.3700 H   0  0  0  0  0  0  0  0  0  0  0  0
  139.2298   76.8803  222.5396 H   0  0  0  0  0  0  0  0  0  0  0  0
  138.4421   71.9120  223.8565 H   0  0  0  0  0  0  0  0  0  0  0  0
  138.7629   71.0621  222.2901 H   0  0  0  0  0  0  0  0  0  0  0  0
  137.7426   69.5832  224.0531 H   0  0  0  0  0  0  0  0  0  0  0  0
  139.3385   69.0132  223.4517 H   0  0  0  0  0  0  0  0  0  0  0  0
  137.7355   68.6628  226.2715 H   0  0  0  0  0  0  0  0  0  0  0  0
  138.6686   68.7146  228.5838 H   0  0  0  0  0  0  0  0  0  0  0  0
  140.8271   69.8843  229.0361 H   0  0  0  0  0  0  0  0  0  0  0  0
  142.0667   70.9914  227.1714 H   0  0  0  0  0  0  0  0  0  0  0  0
  141.8040   72.0823  224.9477 H   0  0  0  0  0  0  0  0  0  0  0  0
  142.0696   70.4489  224.1776 H   0  0  0  0  0  0  0  0  0  0  0  0
  144.3055   70.8609  220.9071 H   0  0  0  0  0  0  0  0  0  0  0  0
  143.2440   70.2893  219.5367 H   0  0  0  0  0  0  0  0  0  0  0  0
  145.9829   70.1152  219.5635 H   0  0  0  0  0  0  0  0  0  0  0  0
  144.9342   70.1785  218.0799 H   0  0  0  0  0  0  0  0  0  0  0  0
  1  2  1  0
  2  3  1  0
  3  4  1  0
  4  5  1  0
  5  6  1  0
  6  7  1  0
  7  8  2  0
  8  9  1  0
  9 10  1  0
 10 11  1  0
 11 12  1  0
 12 13  1  0
 13 14  2  0
 14 15  1  0
 15 16  2  0
 16 17  1  0
 17 18  2  0
 18 19  1  0
  9 20  2  0
 20 21  1  0
 21 22  1  0
 22 23  1  0
 23 24  1  0
 24 25  1  0
 25 26  2  0
 26 27  1  0
 27 28  2  0
 28 29  1  0
 29 30  2  0
 30 31  1  0
 21 32  2  0
  6 33  1  0
 33 34  1  0
 34 35  1  0
 35  4  1  0
 32  7  1  0
 19 10  1  0
 31 22  1  0
 18 13  1  0
 30 25  1  0
  1 36  1  0
  1 37  1  0
  1 38  1  0
  2 39  1  0
  2 40  1  0
  3 41  1  0
  4 42  1  6
  5 43  1  0
  5 44  1  0
 11 45  1  0
 11 46  1  0
 12 47  1  0
 12 48  1  0
 14 49  1  0
 15 50  1  0
 16 51  1  0
 17 52  1  0
 19 53  1  0
 19 54  1  0
 23 55  1  0
 23 56  1  0
 24 57  1  0
 24 58  1  0
 26 59  1  0
 27 60  1  0
 28 61  1  0
 29 62  1  0
 31 63  1  0
 31 64  1  0
 33 65  1  0
 33 66  1  0
 34 67  1  0
 34 68  1  0
M  END
>  <meeko>  (10) 
{"free_energy": -8.93, "intermolecular_energy": -10.43, "internal_energy": -0.94, "cluster_size": 16, "cluster_id": 1, "rank_in_cluster": 15}

$$$$

     RDKit          3D

 68 73  0  0  0  0  0  0  0  0999 V2000
  145.3490   68.0490  219.5210 C   0  0  0  0  0  0  0  0  0  0  0  0
  146.0050   69.0880  218.6210 C   0  0  0  0  0  0  0  0  0  0  0  0
  145.0610   70.1810  218.3420 N   0  0  0  0  0  0  0  0  0  0  0  0
  145.1770   71.2670  219.3300 C   0  0  2  0  0  0  0  0  0  0  0  0
  143.7850   71.6120  219.8830 C   0  0  0  0  0  0  0  0  0  0  0  0
  143.7160   72.9750  220.4240 N   0  0  0  0  0  0  0  0  0  0  0  0
  142.4580   73.4330  220.9560 C   0  0  0  0  0  0  0  0  0  0  0  0
  142.0890   74.7320  220.8110 N   0  0  0  0  0  0  0  0  0  0  0  0
  140.9150   75.1860  221.3250 C   0  0  0  0  0  0  0  0  0  0  0  0
  140.5510   76.5790  221.2020 N   0  0  0  0  0  0  0  0  0  0  0  0
  140.7530   77.3210  219.9530 C   0  0  0  0  0  0  0  0  0  0  0  0
  141.8380   78.3760  220.1720 C   0  0  0  0  0  0  0  0  0  0  0  0
  141.6110   79.1620  221.4430 C   0  0  0  0  0  0  0  0  0  0  0  0
  142.2780   80.3850  221.6190 C   0  0  0  0  0  0  0  0  0  0  0  0
  142.1360   81.1070  222.8050 C   0  0  0  0  0  0  0  0  0  0  0  0
  141.3310   80.6130  223.8350 C   0  0  0  0  0  0  0  0  0  0  0  0
  140.6690   79.3920  223.6790 C   0  0  0  0  0  0  0  0  0  0  0  0
  140.8160   78.6480  222.4970 C   0  0  0  0  0  0  0  0  0  0  0  0
  140.0550   77.3490  222.3500 C   0  0  0  0  0  0  0  0  0  0  0  0
  140.1020   74.3140  221.9820 N   0  0  0  0  0  0  0  0  0  0  0  0
  140.4540   73.0100  222.1350 C   0  0  0  0  0  0  0  0  0  0  0  0
  139.5810   72.0990  222.8400 N   0  0  0  0  0  0  0  0  0  0  0  0
  140.1680   71.0070  223.6390 C   0  0  0  0  0  0  0  0  0  0  0  0
  139.2360   70.5860  224.7760 C   0  0  0  0  0  0  0  0  0  0  0  0
  137.8850   70.2510  224.2250 C   0  0  0  0  0  0  0  0  0  0  0  0
  137.1410   69.1770  224.7450 C   0  0  0  0  0  0  0  0  0  0  0  0
  135.8740   68.8880  224.2340 C   0  0  0  0  0  0  0  0  0  0  0  0
  135.3350   69.6740  223.2120 C   0  0  0  0  0  0  0  0  0  0  0  0
  136.0640   70.7550  222.7000 C   0  0  0  0  0  0  0  0  0  0  0  0
  137.3490   71.0400  223.1900 C   0  0  0  0  0  0  0  0  0  0  0  0
  138.1220   72.2150  222.6390 C   0  0  0  0  0  0  0  0  0  0  0  0
  141.6400   72.5770  221.6250 N   0  0  0  0  0  0  0  0  0  0  0  0
  144.8790   73.8780  220.4740 C   0  0  0  0  0  0  0  0  0  0  0  0
  146.0860   73.3620  219.6660 C   0  0  0  0  0  0  0  0  0  0  0  0
  145.7120   72.4100  218.6890 O   0  0  0  0  0  0  0  0  0  0  0  0
  145.5182   68.3171  220.5743 H   0  0  0  0  0  0  0  0  0  0  0  0
  144.2681   68.0193  219.3193 H   0  0  0  0  0  0  0  0  0  0  0  0
  145.7869   67.0603  219.3193 H   0  0  0  0  0  0  0  0  0  0  0  0
  146.8950   69.4949  219.1233 H   0  0  0  0  0  0  0  0  0  0  0  0
  146.2960   68.6119  217.6730 H   0  0  0  0  0  0  0  0  0  0  0  0
  145.3030   70.5700  217.4000 H   0  0  0  0  0  0  0  0  0  0  0  0
  145.8317   70.9490  220.1548 H   0  0  0  0  0  0  0  0  0  0  0  0
  143.0495   71.5175  219.0705 H   0  0  0  0  0  0  0  0  0  0  0  0
  143.5707   70.9148  220.7064 H   0  0  0  0  0  0  0  0  0  0  0  0
  141.0672   76.6279  219.1587 H   0  0  0  0  0  0  0  0  0  0  0  0
  139.8138   77.8095  219.6543 H   0  0  0  0  0  0  0  0  0  0  0  0
  142.8149   77.8741  220.2338 H   0  0  0  0  0  0  0  0  0  0  0  0
  141.8062   79.0786  219.3262 H   0  0  0  0  0  0  0  0  0  0  0  0
  142.9181   80.7775  220.8151 H   0  0  0  0  0  0  0  0  0  0  0  0
  142.6588   82.0668  222.9292 H   0  0  0  0  0  0  0  0  0  0  0  0
  141.2184   81.1848  224.7680 H   0  0  0  0  0  0  0  0  0  0  0  0
  140.0282   79.0110  224.4879 H   0  0  0  0  0  0  0  0  0  0  0  0
  140.1806   76.7522  223.2655 H   0  0  0  0  0  0  0  0  0  0  0  0
  138.9923   77.5805  222.1856 H   0  0  0  0  0  0  0  0  0  0  0  0
  140.3483   70.1414  222.9846 H   0  0  0  0  0  0  0  0  0  0  0  0
  141.1103   71.3665  224.0782 H   0  0  0  0  0  0  0  0  0  0  0  0
  139.6532   69.7032  225.2825 H   0  0  0  0  0  0  0  0  0  0  0  0
  139.1409   71.4141  225.4938 H   0  0  0  0  0  0  0  0  0  0  0  0
  137.5583   68.5628  225.5566 H   0  0  0  0  0  0  0  0  0  0  0  0
  135.2995   68.0406  224.6364 H   0  0  0  0  0  0  0  0  0  0  0  0
  134.3376   69.4437  222.8093 H   0  0  0  0  0  0  0  0  0  0  0  0
  135.6278   71.3840  221.9100 H   0  0  0  0  0  0  0  0  0  0  0  0
  137.9228   72.2891  221.5597 H   0  0  0  0  0  0  0  0  0  0  0  0
  137.7876   73.1101  223.1839 H   0  0  0  0  0  0  0  0  0  0  0  0
  144.5796   74.8558  220.0686 H   0  0  0  0  0  0  0  0  0  0  0  0
  145.1950   73.9447  221.5255 H   0  0  0  0  0  0  0  0  0  0  0  0
  146.5655   74.2148  219.1632 H   0  0  0  0  0  0  0  0  0  0  0  0
  146.7748   72.8698  220.3683 H   0  0  0  0  0  0  0  0  0  0  0  0
  1  2  1  0
  2  3  1  0
  3  4  1  0
  4  5  1  0
  5  6  1  0
  6  7  1  0
  7  8  2  0
  8  9  1  0
  9 10  1  0
 10 11  1  0
 11 12  1  0
 12 13  1  0
 13 14  2  0
 14 15  1  0
 15 16  2  0
 16 17  1  0
 17 18  2  0
 18 19  1  0
  9 20  2  0
 20 21  1  0
 21 22  1  0
 22 23  1  0
 23 24  1  0
 24 25  1  0
 25 26  2  0
 26 27  1  0
 27 28  2  0
 28 29  1  0
 29 30  2  0
 30 31  1  0
 21 32  2  0
  6 33  1  0
 33 34  1  0
 34 35  1  0
 35  4  1  0
 32  7  1  0
 19 10  1  0
 31 22  1  0
 18 13  1  0
 30 25  1  0
  1 36  1  0
  1 37  1  0
  1 38  1  0
  2 39  1  0
  2 40  1  0
  3 41  1  0
  4 42  1  1
  5 43  1  0
  5 44  1  0
 11 45  1  0
 11 46  1  0
 12 47  1  0
 12 48  1  0
 14 49  1  0
 15 50  1  0
 16 51  1  0
 17 52  1  0
 19 53  1  0
 19 54  1  0
 23 55  1  0
 23 56  1  0
 24 57  1  0
 24 58  1  0
 26 59  1  0
 27 60  1  0
 28 61  1  0
 29 62  1  0
 31 63  1  0
 31 64  1  0
 33 65  1  0
 33 66  1  0
 34 67  1  0
 34 68  1  0
M  END
>  <meeko>  (11) 
{"free_energy": -8.82, "intermolecular_energy": -10.31, "internal_energy": -0.91, "cluster_size": 16, "cluster_id": 1, "rank_in_cluster": 16}

$$$$

     RDKit          3D

 68 73  0  0  0  0  0  0  0  0999 V2000
  146.3450   73.7690  220.9970 C   0  0  0  0  0  0  0  0  0  0  0  0
  146.3250   72.5690  220.0600 C   0  0  0  0  0  0  0  0  0  0  0  0
  146.0540   73.0110  218.6830 N   0  0  0  0  0  0  0  0  0  0  0  0
  144.6350   72.8400  218.3250 C   0  0  2  0  0  0  0  0  0  0  0  0
  143.7490   73.3490  219.4730 C   0  0  0  0  0  0  0  0  0  0  0  0
  142.4090   72.7470  219.4580 N   0  0  0  0  0  0  0  0  0  0  0  0
  141.4840   73.1240  220.4960 C   0  0  0  0  0  0  0  0  0  0  0  0
  140.9010   74.3520  220.4750 N   0  0  0  0  0  0  0  0  0  0  0  0
  140.0420   74.7320  221.4580 C   0  0  0  0  0  0  0  0  0  0  0  0
  139.4590   76.0550  221.4510 N   0  0  0  0  0  0  0  0  0  0  0  0
  139.0410   76.7060  220.2050 C   0  0  0  0  0  0  0  0  0  0  0  0
  139.9570   77.9000  219.9350 C   0  0  0  0  0  0  0  0  0  0  0  0
  140.1400   78.7580  221.1660 C   0  0  0  0  0  0  0  0  0  0  0  0
  140.6360   80.0640  221.0210 C   0  0  0  0  0  0  0  0  0  0  0  0
  140.8710   80.8630  222.1410 C   0  0  0  0  0  0  0  0  0  0  0  0
  140.6200   80.3650  223.4220 C   0  0  0  0  0  0  0  0  0  0  0  0
  140.1370   79.0640  223.5840 C   0  0  0  0  0  0  0  0  0  0  0  0
  139.9110   78.2450  222.4660 C   0  0  0  0  0  0  0  0  0  0  0  0
  139.3520   76.8550  222.6780 C   0  0  0  0  0  0  0  0  0  0  0  0
  139.7600   73.8590  222.4630 N   0  0  0  0  0  0  0  0  0  0  0  0
  140.3310   72.6260  222.4980 C   0  0  0  0  0  0  0  0  0  0  0  0
  140.0250   71.7120  223.5750 N   0  0  0  0  0  0  0  0  0  0  0  0
  138.6990   71.0680  223.6220 C   0  0  0  0  0  0  0  0  0  0  0  0
  138.7570   69.7280  224.3570 C   0  0  0  0  0  0  0  0  0  0  0  0
  139.3660   69.9200  225.7110 C   0  0  0  0  0  0  0  0  0  0  0  0
  138.8790   69.2140  226.8260 C   0  0  0  0  0  0  0  0  0  0  0  0
  139.4690   69.3880  228.0790 C   0  0  0  0  0  0  0  0  0  0  0  0
  140.5550   70.2560  228.2270 C   0  0  0  0  0  0  0  0  0  0  0  0
  141.0550   70.9500  227.1170 C   0  0  0  0  0  0  0  0  0  0  0  0
  140.4530   70.8000  225.8580 C   0  0  0  0  0  0  0  0  0  0  0  0
  141.0070   71.5450  224.6660 C   0  0  0  0  0  0  0  0  0  0  0  0
  141.2010   72.2670  221.5120 N   0  0  0  0  0  0  0  0  0  0  0  0
  141.9640   71.8040  218.4180 C   0  0  0  0  0  0  0  0  0  0  0  0
  143.1120   71.3060  217.5160 C   0  0  0  0  0  0  0  0  0  0  0  0
  144.3790   71.4620  218.1240 O   0  0  0  0  0  0  0  0  0  0  0  0
  146.3392   73.4198  222.0401 H   0  0  0  0  0  0  0  0  0  0  0  0
  147.2532   74.3621  220.8139 H   0  0  0  0  0  0  0  0  0  0  0  0
  145.4571   74.3920  220.8139 H   0  0  0  0  0  0  0  0  0  0  0  0
  147.3012   72.0631  220.0949 H   0  0  0  0  0  0  0  0  0  0  0  0
  145.5337   71.8746  220.3790 H   0  0  0  0  0  0  0  0  0  0  0  0
  146.2820   74.0320  218.6310 H   0  0  0  0  0  0  0  0  0  0  0  0
  144.4128   73.4079  217.4095 H   0  0  0  0  0  0  0  0  0  0  0  0
  144.2350   73.1044  220.4290 H   0  0  0  0  0  0  0  0  0  0  0  0
  143.6292   74.4352  219.3468 H   0  0  0  0  0  0  0  0  0  0  0  0
  139.1132   75.9903  219.3728 H   0  0  0  0  0  0  0  0  0  0  0  0
  138.0001   77.0497  220.2966 H   0  0  0  0  0  0  0  0  0  0  0  0
  140.9402   77.5281  219.6110 H   0  0  0  0  0  0  0  0  0  0  0  0
  139.4907   78.5184  219.1539 H   0  0  0  0  0  0  0  0  0  0  0  0
  140.8411   80.4607  220.0157 H   0  0  0  0  0  0  0  0  0  0  0  0
  141.2544   81.8863  222.0150 H   0  0  0  0  0  0  0  0  0  0  0  0
  140.8027   80.9974  224.3033 H   0  0  0  0  0  0  0  0  0  0  0  0
  139.9324   78.6788  224.5939 H   0  0  0  0  0  0  0  0  0  0  0  0
  139.9155   76.3588  223.4819 H   0  0  0  0  0  0  0  0  0  0  0  0
  138.2897   76.9409  222.9504 H   0  0  0  0  0  0  0  0  0  0  0  0
  137.9961   71.7332  224.1449 H   0  0  0  0  0  0  0  0  0  0  0  0
  138.3662   70.8834  222.5899 H   0  0  0  0  0  0  0  0  0  0  0  0
  137.7385   69.3276  224.4678 H   0  0  0  0  0  0  0  0  0  0  0  0
  139.3711   69.0220  223.7786 H   0  0  0  0  0  0  0  0  0  0  0  0
  138.0310   68.5230  226.7102 H   0  0  0  0  0  0  0  0  0  0  0  0
  139.0792   68.8418  228.9506 H   0  0  0  0  0  0  0  0  0  0  0  0
  141.0173   70.3943  229.2155 H   0  0  0  0  0  0  0  0  0  0  0  0
  141.9232   71.6154  227.2329 H   0  0  0  0  0  0  0  0  0  0  0  0
  141.3335   72.5416  224.9978 H   0  0  0  0  0  0  0  0  0  0  0  0
  141.8403   70.9483  224.2666 H   0  0  0  0  0  0  0  0  0  0  0  0
  141.5031   70.9343  218.9091 H   0  0  0  0  0  0  0  0  0  0  0  0
  141.2522   72.3408  217.7737 H   0  0  0  0  0  0  0  0  0  0  0  0
  142.9533   70.2396  217.2980 H   0  0  0  0  0  0  0  0  0  0  0  0
  143.1035   71.9099  216.5966 H   0  0  0  0  0  0  0  0  0  0  0  0
  1  2  1  0
  2  3  1  0
  3  4  1  0
  4  5  1  0
  5  6  1  0
  6  7  1  0
  7  8  2  0
  8  9  1  0
  9 10  1  0
 10 11  1  0
 11 12  1  0
 12 13  1  0
 13 14  2  0
 14 15  1  0
 15 16  2  0
 16 17  1  0
 17 18  2  0
 18 19  1  0
  9 20  2  0
 20 21  1  0
 21 22  1  0
 22 23  1  0
 23 24  1  0
 24 25  1  0
 25 26  2  0
 26 27  1  0
 27 28  2  0
 28 29  1  0
 29 30  2  0
 30 31  1  0
 21 32  2  0
  6 33  1  0
 33 34  1  0
 34 35  1  0
 35  4  1  0
 32  7  1  0
 19 10  1  0
 31 22  1  0
 18 13  1  0
 30 25  1  0
  1 36  1  0
  1 37  1  0
  1 38  1  0
  2 39  1  0
  2 40  1  0
  3 41  1  0
  4 42  1  6
  5 43  1  0
  5 44  1  0
 11 45  1  0
 11 46  1  0
 12 47  1  0
 12 48  1  0
 14 49  1  0
 15 50  1  0
 16 51  1  0
 17 52  1  0
 19 53  1  0
 19 54  1  0
 23 55  1  0
 23 56  1  0
 24 57  1  0
 24 58  1  0
 26 59  1  0
 27 60  1  0
 28 61  1  0
 29 62  1  0
 31 63  1  0
 31 64  1  0
 33 65  1  0
 33 66  1  0
 34 67  1  0
 34 68  1  0
M  END
>  <meeko>  (12) 
{"free_energy": -9.36, "intermolecular_energy": -10.85, "internal_energy": -0.88, "cluster_size": 16, "cluster_id": 1, "rank_in_cluster": 7}

$$$$

     RDKit          3D

 68 73  0  0  0  0  0  0  0  0999 V2000
  147.4650   75.0480  215.9040 C   0  0  0  0  0  0  0  0  0  0  0  0
  146.7200   73.7910  216.3310 C   0  0  0  0  0  0  0  0  0  0  0  0
  145.3570   74.1360  216.7630 N   0  0  0  0  0  0  0  0  0  0  0  0
  144.7320   73.0400  217.5250 C   0  0  2  0  0  0  0  0  0  0  0  0
  143.6200   73.6060  218.4220 C   0  0  0  0  0  0  0  0  0  0  0  0
  143.3270   72.7380  219.5690 N   0  0  0  0  0  0  0  0  0  0  0  0
  142.3150   73.1630  220.5020 C   0  0  0  0  0  0  0  0  0  0  0  0
  141.8780   74.4500  220.4940 N   0  0  0  0  0  0  0  0  0  0  0  0
  140.9390   74.8730  221.3820 C   0  0  0  0  0  0  0  0  0  0  0  0
  140.5110   76.2540  221.3930 N   0  0  0  0  0  0  0  0  0  0  0  0
  140.3670   77.0260  220.1540 C   0  0  0  0  0  0  0  0  0  0  0  0
  141.4380   78.1170  220.1210 C   0  0  0  0  0  0  0  0  0  0  0  0
  141.5160   78.8700  221.4290 C   0  0  0  0  0  0  0  0  0  0  0  0
  142.1670   80.1140  221.4640 C   0  0  0  0  0  0  0  0  0  0  0  0
  142.3070   80.8080  222.6670 C   0  0  0  0  0  0  0  0  0  0  0  0
  141.8050   80.2650  223.8530 C   0  0  0  0  0  0  0  0  0  0  0  0
  141.1650   79.0230  223.8360 C   0  0  0  0  0  0  0  0  0  0  0  0
  141.0310   78.3070  222.6350 C   0  0  0  0  0  0  0  0  0  0  0  0
  140.2990   76.9830  222.6500 C   0  0  0  0  0  0  0  0  0  0  0  0
  140.4290   73.9850  222.2770 N   0  0  0  0  0  0  0  0  0  0  0  0
  140.8520   72.6930  222.2990 C   0  0  0  0  0  0  0  0  0  0  0  0
  140.3030   71.7640  223.2590 N   0  0  0  0  0  0  0  0  0  0  0  0
  138.9380   71.2400  223.0620 C   0  0  0  0  0  0  0  0  0  0  0  0
  138.7680   69.8690  223.7170 C   0  0  0  0  0  0  0  0  0  0  0  0
  139.1660   69.9440  225.1580 C   0  0  0  0  0  0  0  0  0  0  0  0
  138.4500   69.2350  226.1410 C   0  0  0  0  0  0  0  0  0  0  0  0
  138.8450   69.2990  227.4780 C   0  0  0  0  0  0  0  0  0  0  0  0
  139.9610   70.0580  227.8440 C   0  0  0  0  0  0  0  0  0  0  0  0
  140.6870   70.7530  226.8680 C   0  0  0  0  0  0  0  0  0  0  0  0
  140.2840   70.7150  225.5240 C   0  0  0  0  0  0  0  0  0  0  0  0
  141.0810   71.4590  224.4780 C   0  0  0  0  0  0  0  0  0  0  0  0
  141.8030   72.2900  221.4100 N   0  0  0  0  0  0  0  0  0  0  0  0
  143.9970   71.4450  219.7890 C   0  0  0  0  0  0  0  0  0  0  0  0
  145.2110   71.2230  218.8650 C   0  0  0  0  0  0  0  0  0  0  0  0
  145.7170   72.4350  218.3430 O   0  0  0  0  0  0  0  0  0  0  0  0
  147.7928   75.6010  216.7966 H   0  0  0  0  0  0  0  0  0  0  0  0
  148.3429   74.7677  215.3034 H   0  0  0  0  0  0  0  0  0  0  0  0
  146.7976   75.6836  215.3034 H   0  0  0  0  0  0  0  0  0  0  0  0
  146.6674   73.0929  215.4826 H   0  0  0  0  0  0  0  0  0  0  0  0
  147.2560   73.3207  217.1686 H   0  0  0  0  0  0  0  0  0  0  0  0
  145.4300   74.9710  217.3930 H   0  0  0  0  0  0  0  0  0  0  0  0
  144.3050   72.3018  216.8302 H   0  0  0  0  0  0  0  0  0  0  0  0
  143.9358   74.5909  218.7965 H   0  0  0  0  0  0  0  0  0  0  0  0
  142.7053   73.6784  217.8152 H   0  0  0  0  0  0  0  0  0  0  0  0
  140.4920   76.3599  219.2876 H   0  0  0  0  0  0  0  0  0  0  0  0
  139.3678   77.4843  220.1152 H   0  0  0  0  0  0  0  0  0  0  0  0
  142.4140   77.6512  219.9201 H   0  0  0  0  0  0  0  0  0  0  0  0
  141.1703   78.8336  219.3306 H   0  0  0  0  0  0  0  0  0  0  0  0
  142.5699   80.5450  220.5356 H   0  0  0  0  0  0  0  0  0  0  0  0
  142.8135   81.7843  222.6816 H   0  0  0  0  0  0  0  0  0  0  0  0
  141.9137   80.8151  224.7993 H   0  0  0  0  0  0  0  0  0  0  0  0
  140.7632   78.6030  224.7699 H   0  0  0  0  0  0  0  0  0  0  0  0
  140.6721   76.3744  223.4869 H   0  0  0  0  0  0  0  0  0  0  0  0
  139.2226   77.1773  222.7669 H   0  0  0  0  0  0  0  0  0  0  0  0
  138.2174   71.9415  223.5075 H   0  0  0  0  0  0  0  0  0  0  0  0
  138.7605   71.1325  221.9817 H   0  0  0  0  0  0  0  0  0  0  0  0
  137.7156   69.5573  223.6443 H   0  0  0  0  0  0  0  0  0  0  0  0
  139.4071   69.1375  223.2008 H   0  0  0  0  0  0  0  0  0  0  0  0
  137.5775   68.6294  225.8548 H   0  0  0  0  0  0  0  0  0  0  0  0
  138.2776   68.7516  228.2451 H   0  0  0  0  0  0  0  0  0  0  0  0
  140.2690   70.1094  228.8987 H   0  0  0  0  0  0  0  0  0  0  0  0
  141.5772   71.3313  227.1563 H   0  0  0  0  0  0  0  0  0  0  0  0
  141.4321   72.4058  224.9143 H   0  0  0  0  0  0  0  0  0  0  0  0
  141.9147   70.8070  224.1783 H   0  0  0  0  0  0  0  0  0  0  0  0
  144.3405   71.4028  220.8332 H   0  0  0  0  0  0  0  0  0  0  0  0
  143.2654   70.6557  219.5615 H   0  0  0  0  0  0  0  0  0  0  0  0
  146.0065   70.7259  219.4395 H   0  0  0  0  0  0  0  0  0  0  0  0
  144.8802   70.6041  218.0179 H   0  0  0  0  0  0  0  0  0  0  0  0
  1  2  1  0
  2  3  1  0
  3  4  1  0
  4  5  1  0
  5  6  1  0
  6  7  1  0
  7  8  2  0
  8  9  1  0
  9 10  1  0
 10 11  1  0
 11 12  1  0
 12 13  1  0
 13 14  2  0
 14 15  1  0
 15 16  2  0
 16 17  1  0
 17 18  2  0
 18 19  1  0
  9 20  2  0
 20 21  1  0
 21 22  1  0
 22 23  1  0
 23 24  1  0
 24 25  1  0
 25 26  2  0
 26 27  1  0
 27 28  2  0
 28 29  1  0
 29 30  2  0
 30 31  1  0
 21 32  2  0
  6 33  1  0
 33 34  1  0
 34 35  1  0
 35  4  1  0
 32  7  1  0
 19 10  1  0
 31 22  1  0
 18 13  1  0
 30 25  1  0
  1 36  1  0
  1 37  1  0
  1 38  1  0
  2 39  1  0
  2 40  1  0
  3 41  1  0
  4 42  1  6
  5 43  1  0
  5 44  1  0
 11 45  1  0
 11 46  1  0
 12 47  1  0
 12 48  1  0
 14 49  1  0
 15 50  1  0
 16 51  1  0
 17 52  1  0
 19 53  1  0
 19 54  1  0
 23 55  1  0
 23 56  1  0
 24 57  1  0
 24 58  1  0
 26 59  1  0
 27 60  1  0
 28 61  1  0
 29 62  1  0
 31 63  1  0
 31 64  1  0
 33 65  1  0
 33 66  1  0
 34 67  1  0
 34 68  1  0
M  END
>  <meeko>  (13) 
{"free_energy": -9.71, "intermolecular_energy": -11.2, "internal_energy": -0.9, "cluster_size": 16, "cluster_id": 1, "rank_in_cluster": 1}

$$$$

     RDKit          3D

 68 73  0  0  0  0  0  0  0  0999 V2000
  146.7450   73.3710  214.8990 C   0  0  0  0  0  0  0  0  0  0  0  0
  146.6860   73.8400  216.3470 C   0  0  0  0  0  0  0  0  0  0  0  0
  145.2980   74.1510  216.7190 N   0  0  0  0  0  0  0  0  0  0  0  0
  144.6780   73.0510  217.4790 C   0  0  2  0  0  0  0  0  0  0  0  0
  143.5780   73.6130  218.3940 C   0  0  0  0  0  0  0  0  0  0  0  0
  143.2950   72.7370  219.5370 N   0  0  0  0  0  0  0  0  0  0  0  0
  142.2950   73.1580  220.4850 C   0  0  0  0  0  0  0  0  0  0  0  0
  141.8570   74.4450  220.4870 N   0  0  0  0  0  0  0  0  0  0  0  0
  140.9300   74.8640  221.3890 C   0  0  0  0  0  0  0  0  0  0  0  0
  140.5020   76.2440  221.4120 N   0  0  0  0  0  0  0  0  0  0  0  0
  140.3220   77.0150  220.1770 C   0  0  0  0  0  0  0  0  0  0  0  0
  141.3910   78.1070  220.1110 C   0  0  0  0  0  0  0  0  0  0  0  0
  141.5050   78.8610  221.4160 C   0  0  0  0  0  0  0  0  0  0  0  0
  142.1560   80.1060  221.4320 C   0  0  0  0  0  0  0  0  0  0  0  0
  142.3300   80.8010  222.6300 C   0  0  0  0  0  0  0  0  0  0  0  0
  141.8630   80.2590  223.8290 C   0  0  0  0  0  0  0  0  0  0  0  0
  141.2230   79.0160  223.8320 C   0  0  0  0  0  0  0  0  0  0  0  0
  141.0550   78.2990  222.6370 C   0  0  0  0  0  0  0  0  0  0  0  0
  140.3250   76.9750  222.6730 C   0  0  0  0  0  0  0  0  0  0  0  0
  140.4330   73.9720  222.2880 N   0  0  0  0  0  0  0  0  0  0  0  0
  140.8570   72.6800  222.2990 C   0  0  0  0  0  0  0  0  0  0  0  0
  140.3210   71.7470  223.2630 N   0  0  0  0  0  0  0  0  0  0  0  0
  138.9880   71.1570  223.0370 C   0  0  0  0  0  0  0  0  0  0  0  0
  138.8600   69.7940  223.7170 C   0  0  0  0  0  0  0  0  0  0  0  0
  139.2100   69.9170  225.1680 C   0  0  0  0  0  0  0  0  0  0  0  0
  138.4970   69.1970  226.1440 C   0  0  0  0  0  0  0  0  0  0  0  0
  138.8480   69.3070  227.4910 C   0  0  0  0  0  0  0  0  0  0  0  0
  139.9170   70.1220  227.8720 C   0  0  0  0  0  0  0  0  0  0  0  0
  140.6400   70.8300  226.9030 C   0  0  0  0  0  0  0  0  0  0  0  0
  140.2810   70.7460  225.5490 C   0  0  0  0  0  0  0  0  0  0  0  0
  141.0750   71.5040  224.5110 C   0  0  0  0  0  0  0  0  0  0  0  0
  141.7960   72.2810  221.3970 N   0  0  0  0  0  0  0  0  0  0  0  0
  143.9630   71.4400  219.7390 C   0  0  0  0  0  0  0  0  0  0  0  0
  145.1650   71.2210  218.7990 C   0  0  0  0  0  0  0  0  0  0  0  0
  145.6700   72.4360  218.2810 O   0  0  0  0  0  0  0  0  0  0  0  0
  146.8822   72.2799  214.8723 H   0  0  0  0  0  0  0  0  0  0  0  0
  145.8066   73.6351  214.3895 H   0  0  0  0  0  0  0  0  0  0  0  0
  147.5888   73.8593  214.3895 H   0  0  0  0  0  0  0  0  0  0  0  0
  147.0695   73.0449  217.0033 H   0  0  0  0  0  0  0  0  0  0  0  0
  147.3011   74.7451  216.4586 H   0  0  0  0  0  0  0  0  0  0  0  0
  145.3210   75.0000  217.3340 H   0  0  0  0  0  0  0  0  0  0  0  0
  144.2407   72.3203  216.7827 H   0  0  0  0  0  0  0  0  0  0  0  0
  143.9014   74.5937  218.7729 H   0  0  0  0  0  0  0  0  0  0  0  0
  142.6567   73.6930  217.7984 H   0  0  0  0  0  0  0  0  0  0  0  0
  140.4221   76.3480  219.3080 H   0  0  0  0  0  0  0  0  0  0  0  0
  139.3220   77.4731  220.1674 H   0  0  0  0  0  0  0  0  0  0  0  0
  142.3613   77.6419  219.8826 H   0  0  0  0  0  0  0  0  0  0  0  0
  141.1010   78.8223  219.3272 H   0  0  0  0  0  0  0  0  0  0  0  0
  142.5319   80.5368  220.4923 H   0  0  0  0  0  0  0  0  0  0  0  0
  142.8361   81.7777  222.6294 H   0  0  0  0  0  0  0  0  0  0  0  0
  141.9986   80.8100  224.7713 H   0  0  0  0  0  0  0  0  0  0  0  0
  140.8485   78.5969  224.7776 H   0  0  0  0  0  0  0  0  0  0  0  0
  140.7215   76.3676  223.5000 H   0  0  0  0  0  0  0  0  0  0  0  0
  139.2521   77.1693  222.8187 H   0  0  0  0  0  0  0  0  0  0  0  0
  138.2229   71.8340  223.4449 H   0  0  0  0  0  0  0  0  0  0  0  0
  138.8491   71.0188  221.9546 H   0  0  0  0  0  0  0  0  0  0  0  0
  137.8254   69.4331  223.6201 H   0  0  0  0  0  0  0  0  0  0  0  0
  139.5471   69.0820  223.2364 H   0  0  0  0  0  0  0  0  0  0  0  0
  137.6617   68.5464  225.8455 H   0  0  0  0  0  0  0  0  0  0  0  0
  138.2822   68.7513  228.2532 H   0  0  0  0  0  0  0  0  0  0  0  0
  140.1913   70.2079  228.9338 H   0  0  0  0  0  0  0  0  0  0  0  0
  141.4934   71.4549  227.2051 H   0  0  0  0  0  0  0  0  0  0  0  0
  141.3690   72.4749  224.9363 H   0  0  0  0  0  0  0  0  0  0  0  0
  141.9466   70.8854  224.2507 H   0  0  0  0  0  0  0  0  0  0  0  0
  144.3187   71.3885  220.7786 H   0  0  0  0  0  0  0  0  0  0  0  0
  143.2259   70.6551  219.5141 H   0  0  0  0  0  0  0  0  0  0  0  0
  145.9652   70.7159  219.3599 H   0  0  0  0  0  0  0  0  0  0  0  0
  144.8218   70.6106  217.9507 H   0  0  0  0  0  0  0  0  0  0  0  0
  1  2  1  0
  2  3  1  0
  3  4  1  0
  4  5  1  0
  5  6  1  0
  6  7  1  0
  7  8  2  0
  8  9  1  0
  9 10  1  0
 10 11  1  0
 11 12  1  0
 12 13  1  0
 13 14  2  0
 14 15  1  0
 15 16  2  0
 16 17  1  0
 17 18  2  0
 18 19  1  0
  9 20  2  0
 20 21  1  0
 21 22  1  0
 22 23  1  0
 23 24  1  0
 24 25  1  0
 25 26  2  0
 26 27  1  0
 27 28  2  0
 28 29  1  0
 29 30  2  0
 30 31  1  0
 21 32  2  0
  6 33  1  0
 33 34  1  0
 34 35  1  0
 35  4  1  0
 32  7  1  0
 19 10  1  0
 31 22  1  0
 18 13  1  0
 30 25  1  0
  1 36  1  0
  1 37  1  0
  1 38  1  0
  2 39  1  0
  2 40  1  0
  3 41  1  0
  4 42  1  6
  5 43  1  0
  5 44  1  0
 11 45  1  0
 11 46  1  0
 12 47  1  0
 12 48  1  0
 14 49  1  0
 15 50  1  0
 16 51  1  0
 17 52  1  0
 19 53  1  0
 19 54  1  0
 23 55  1  0
 23 56  1  0
 24 57  1  0
 24 58  1  0
 26 59  1  0
 27 60  1  0
 28 61  1  0
 29 62  1  0
 31 63  1  0
 31 64  1  0
 33 65  1  0
 33 66  1  0
 34 67  1  0
 34 68  1  0
M  END
>  <meeko>  (14) 
{"free_energy": -9.54, "intermolecular_energy": -11.03, "internal_energy": -0.91, "cluster_size": 16, "cluster_id": 1, "rank_in_cluster": 6}

$$$$

     RDKit          3D

 68 73  0  0  0  0  0  0  0  0999 V2000
  146.8640   74.5650  214.8960 C   0  0  0  0  0  0  0  0  0  0  0  0
  146.6120   73.9250  216.2540 C   0  0  0  0  0  0  0  0  0  0  0  0
  145.2270   74.1770  216.6810 N   0  0  0  0  0  0  0  0  0  0  0  0
  144.7190   73.1010  217.5490 C   0  0  2  0  0  0  0  0  0  0  0  0
  143.5720   73.6390  218.4200 C   0  0  0  0  0  0  0  0  0  0  0  0
  143.3800   72.8530  219.6450 N   0  0  0  0  0  0  0  0  0  0  0  0
  142.3470   73.2650  220.5610 C   0  0  0  0  0  0  0  0  0  0  0  0
  141.9030   74.5490  220.5550 N   0  0  0  0  0  0  0  0  0  0  0  0
  140.9440   74.9600  221.4270 C   0  0  0  0  0  0  0  0  0  0  0  0
  140.5080   76.3380  221.4420 N   0  0  0  0  0  0  0  0  0  0  0  0
  140.3360   77.1040  220.2030 C   0  0  0  0  0  0  0  0  0  0  0  0
  141.4000   78.2020  220.1450 C   0  0  0  0  0  0  0  0  0  0  0  0
  141.4970   78.9600  221.4490 C   0  0  0  0  0  0  0  0  0  0  0  0
  142.1410   80.2080  221.4680 C   0  0  0  0  0  0  0  0  0  0  0  0
  142.3000   80.9070  222.6650 C   0  0  0  0  0  0  0  0  0  0  0  0
  141.8240   80.3660  223.8620 C   0  0  0  0  0  0  0  0  0  0  0  0
  141.1910   79.1200  223.8610 C   0  0  0  0  0  0  0  0  0  0  0  0
  141.0390   78.3990  222.6670 C   0  0  0  0  0  0  0  0  0  0  0  0
  140.3150   77.0710  222.6990 C   0  0  0  0  0  0  0  0  0  0  0  0
  140.4220   74.0610  222.3050 N   0  0  0  0  0  0  0  0  0  0  0  0
  140.8520   72.7710  222.3240 C   0  0  0  0  0  0  0  0  0  0  0  0
  140.2900   71.8310  223.2660 N   0  0  0  0  0  0  0  0  0  0  0  0
  138.9050   71.3580  223.0780 C   0  0  0  0  0  0  0  0  0  0  0  0
  138.7010   69.9730  223.6940 C   0  0  0  0  0  0  0  0  0  0  0  0
  139.1260   69.9910  225.1300 C   0  0  0  0  0  0  0  0  0  0  0  0
  138.4050   69.2760  226.1030 C   0  0  0  0  0  0  0  0  0  0  0  0
  138.8250   69.2860  227.4350 C   0  0  0  0  0  0  0  0  0  0  0  0
  139.9710   69.9960  227.8020 C   0  0  0  0  0  0  0  0  0  0  0  0
  140.7030   70.6980  226.8350 C   0  0  0  0  0  0  0  0  0  0  0  0
  140.2760   70.7140  225.4980 C   0  0  0  0  0  0  0  0  0  0  0  0
  141.0780   71.4640  224.4610 C   0  0  0  0  0  0  0  0  0  0  0  0
  141.8230   72.3810  221.4520 N   0  0  0  0  0  0  0  0  0  0  0  0
  144.1710   71.6510  219.9600 C   0  0  0  0  0  0  0  0  0  0  0  0
  145.3860   71.4600  219.0300 C   0  0  0  0  0  0  0  0  0  0  0  0
  145.7680   72.6630  218.3930 O   0  0  0  0  0  0  0  0  0  0  0  0
  147.2637   75.5800  215.0375 H   0  0  0  0  0  0  0  0  0  0  0  0
  147.5909   73.9597  214.3346 H   0  0  0  0  0  0  0  0  0  0  0  0
  145.9195   74.6178  214.3346 H   0  0  0  0  0  0  0  0  0  0  0  0
  146.7790   72.8402  216.1818 H   0  0  0  0  0  0  0  0  0  0  0  0
  147.3017   74.3610  216.9917 H   0  0  0  0  0  0  0  0  0  0  0  0
  145.2260   75.0680  217.2320 H   0  0  0  0  0  0  0  0  0  0  0  0
  144.3523   72.2687  216.9302 H   0  0  0  0  0  0  0  0  0  0  0  0
  143.7991   74.6783  218.6997 H   0  0  0  0  0  0  0  0  0  0  0  0
  142.6453   73.5719  217.8311 H   0  0  0  0  0  0  0  0  0  0  0  0
  140.4487   76.4350  219.3371 H   0  0  0  0  0  0  0  0  0  0  0  0
  139.3335   77.5562  220.1815 H   0  0  0  0  0  0  0  0  0  0  0  0
  142.3751   77.7416  219.9275 H   0  0  0  0  0  0  0  0  0  0  0  0
  141.1138   78.9137  219.3566 H   0  0  0  0  0  0  0  0  0  0  0  0
  142.5235   80.6382  220.5307 H   0  0  0  0  0  0  0  0  0  0  0  0
  142.8012   81.8862  222.6663 H   0  0  0  0  0  0  0  0  0  0  0  0
  141.9473   80.9202  224.8042 H   0  0  0  0  0  0  0  0  0  0  0  0
  140.8089   78.7013  224.8037 H   0  0  0  0  0  0  0  0  0  0  0  0
  140.7063   76.4676  223.5313 H   0  0  0  0  0  0  0  0  0  0  0  0
  139.2398   77.2604  222.8335 H   0  0  0  0  0  0  0  0  0  0  0  0
  138.2157   72.0684  223.5579 H   0  0  0  0  0  0  0  0  0  0  0  0
  138.7054   71.2901  221.9984 H   0  0  0  0  0  0  0  0  0  0  0  0
  137.6378   69.6978  223.6309 H   0  0  0  0  0  0  0  0  0  0  0  0
  139.3065   69.2373  223.1443 H   0  0  0  0  0  0  0  0  0  0  0  0
  137.5085   68.7077  225.8144 H   0  0  0  0  0  0  0  0  0  0  0  0
  138.2531   68.7345  228.1957 H   0  0  0  0  0  0  0  0  0  0  0  0
  140.2992   70.0040  228.8519 H   0  0  0  0  0  0  0  0  0  0  0  0
  141.6160   71.2387  227.1249 H   0  0  0  0  0  0  0  0  0  0  0  0
  141.4667   72.3853  224.9194 H   0  0  0  0  0  0  0  0  0  0  0  0
  141.8848   70.7952  224.1266 H   0  0  0  0  0  0  0  0  0  0  0  0
  144.5332   71.7327  220.9954 H   0  0  0  0  0  0  0  0  0  0  0  0
  143.5126   70.7812  219.8189 H   0  0  0  0  0  0  0  0  0  0  0  0
  146.2334   71.0908  219.6263 H   0  0  0  0  0  0  0  0  0  0  0  0
  145.1016   70.7405  218.2480 H   0  0  0  0  0  0  0  0  0  0  0  0
  1  2  1  0
  2  3  1  0
  3  4  1  0
  4  5  1  0
  5  6  1  0
  6  7  1  0
  7  8  2  0
  8  9  1  0
  9 10  1  0
 10 11  1  0
 11 12  1  0
 12 13  1  0
 13 14  2  0
 14 15  1  0
 15 16  2  0
 16 17  1  0
 17 18  2  0
 18 19  1  0
  9 20  2  0
 20 21  1  0
 21 22  1  0
 22 23  1  0
 23 24  1  0
 24 25  1  0
 25 26  2  0
 26 27  1  0
 27 28  2  0
 28 29  1  0
 29 30  2  0
 30 31  1  0
 21 32  2  0
  6 33  1  0
 33 34  1  0
 34 35  1  0
 35  4  1  0
 32  7  1  0
 19 10  1  0
 31 22  1  0
 18 13  1  0
 30 25  1  0
  1 36  1  0
  1 37  1  0
  1 38  1  0
  2 39  1  0
  2 40  1  0
  3 41  1  0
  4 42  1  6
  5 43  1  0
  5 44  1  0
 11 45  1  0
 11 46  1  0
 12 47  1  0
 12 48  1  0
 14 49  1  0
 15 50  1  0
 16 51  1  0
 17 52  1  0
 19 53  1  0
 19 54  1  0
 23 55  1  0
 23 56  1  0
 24 57  1  0
 24 58  1  0
 26 59  1  0
 27 60  1  0
 28 61  1  0
 29 62  1  0
 31 63  1  0
 31 64  1  0
 33 65  1  0
 33 66  1  0
 34 67  1  0
 34 68  1  0
M  END
>  <meeko>  (15) 
{"free_energy": -9.61, "intermolecular_energy": -11.1, "internal_energy": -0.89, "cluster_size": 16, "cluster_id": 1, "rank_in_cluster": 4}

$$$$

     RDKit          3D

 68 73  0  0  0  0  0  0  0  0999 V2000
  142.5750   80.2750  223.1760 C   0  0  0  0  0  0  0  0  0  0  0  0
  141.7620   78.9920  223.0700 C   0  0  0  0  0  0  0  0  0  0  0  0
  141.3160   78.7910  221.6830 N   0  0  0  0  0  0  0  0  0  0  0  0
  140.2400   77.7880  221.5960 C   0  0  2  0  0  0  0  0  0  0  0  0
  140.8070   76.3950  221.9090 C   0  0  0  0  0  0  0  0  0  0  0  0
  139.9940   75.3150  221.3370 N   0  0  0  0  0  0  0  0  0  0  0  0
  140.4280   73.9560  221.5410 C   0  0  0  0  0  0  0  0  0  0  0  0
  141.0430   73.2790  220.5350 N   0  0  0  0  0  0  0  0  0  0  0  0
  141.4400   71.9900  220.7040 C   0  0  0  0  0  0  0  0  0  0  0  0
  142.0550   71.2640  219.6160 N   0  0  0  0  0  0  0  0  0  0  0  0
  141.3270   70.2330  218.8680 C   0  0  0  0  0  0  0  0  0  0  0  0
  141.9520   68.8690  219.1670 C   0  0  0  0  0  0  0  0  0  0  0  0
  143.4590   68.9040  219.0580 C   0  0  0  0  0  0  0  0  0  0  0  0
  144.1630   67.6950  218.9400 C   0  0  0  0  0  0  0  0  0  0  0  0
  145.5590   67.6880  218.8950 C   0  0  0  0  0  0  0  0  0  0  0  0
  146.2690   68.8880  218.9760 C   0  0  0  0  0  0  0  0  0  0  0  0
  145.5820   70.0980  219.1050 C   0  0  0  0  0  0  0  0  0  0  0  0
  144.1800   70.1180  219.1670 C   0  0  0  0  0  0  0  0  0  0  0  0
  143.4700   71.4500  219.2690 C   0  0  0  0  0  0  0  0  0  0  0  0
  141.2230   71.3840  221.9030 N   0  0  0  0  0  0  0  0  0  0  0  0
  140.6120   72.0460  222.9200 C   0  0  0  0  0  0  0  0  0  0  0  0
  140.3850   71.3860  224.1850 N   0  0  0  0  0  0  0  0  0  0  0  0
  141.0700   71.8830  225.3940 C   0  0  0  0  0  0  0  0  0  0  0  0
  140.2760   71.5540  226.6590 C   0  0  0  0  0  0  0  0  0  0  0  0
  139.9890   70.0850  226.7080 C   0  0  0  0  0  0  0  0  0  0  0  0
  140.0330   69.3830  227.9260 C   0  0  0  0  0  0  0  0  0  0  0  0
  139.7440   68.0180  227.9600 C   0  0  0  0  0  0  0  0  0  0  0  0
  139.3980   67.3460  226.7840 C   0  0  0  0  0  0  0  0  0  0  0  0
  139.3370   68.0430  225.5700 C   0  0  0  0  0  0  0  0  0  0  0  0
  139.6490   69.4100  225.5210 C   0  0  0  0  0  0  0  0  0  0  0  0
  139.5690   70.1540  224.2090 C   0  0  0  0  0  0  0  0  0  0  0  0
  140.2090   73.3330  222.7290 N   0  0  0  0  0  0  0  0  0  0  0  0
  138.7450   75.5580  220.5950 C   0  0  0  0  0  0  0  0  0  0  0  0
  138.5230   77.0430  220.2450 C   0  0  0  0  0  0  0  0  0  0  0  0
  139.7250   77.7880  220.2770 O   0  0  0  0  0  0  0  0  0  0  0  0
  142.7321   80.5230  224.2361 H   0  0  0  0  0  0  0  0  0  0  0  0
  143.5488   80.1337  222.6842 H   0  0  0  0  0  0  0  0  0  0  0  0
  142.0314   81.0952  222.6842 H   0  0  0  0  0  0  0  0  0  0  0  0
  142.3848   78.1397  223.3793 H   0  0  0  0  0  0  0  0  0  0  0  0
  140.8812   79.0681  223.7246 H   0  0  0  0  0  0  0  0  0  0  0  0
  140.9370   79.7060  221.3400 H   0  0  0  0  0  0  0  0  0  0  0  0
  139.4463   78.0320  222.3175 H   0  0  0  0  0  0  0  0  0  0  0  0
  141.8242   76.3273  221.4959 H   0  0  0  0  0  0  0  0  0  0  0  0
  140.8050   76.2715  223.0020 H   0  0  0  0  0  0  0  0  0  0  0  0
  140.2708   70.2305  219.1753 H   0  0  0  0  0  0  0  0  0  0  0  0
  141.3877   70.4423  217.7898 H   0  0  0  0  0  0  0  0  0  0  0  0
  141.6761   68.5675  220.1883 H   0  0  0  0  0  0  0  0  0  0  0  0
  141.5730   68.1502  218.4256 H   0  0  0  0  0  0  0  0  0  0  0  0
  143.6106   66.7455  218.8825 H   0  0  0  0  0  0  0  0  0  0  0  0
  146.1003   66.7356  218.7956 H   0  0  0  0  0  0  0  0  0  0  0  0
  147.3683   68.8806  218.9383 H   0  0  0  0  0  0  0  0  0  0  0  0
  146.1443   71.0419  219.1583 H   0  0  0  0  0  0  0  0  0  0  0  0
  143.9548   72.0580  220.0470 H   0  0  0  0  0  0  0  0  0  0  0  0
  143.5294   71.9557  218.2939 H   0  0  0  0  0  0  0  0  0  0  0  0
  142.0624   71.4134  225.4619 H   0  0  0  0  0  0  0  0  0  0  0  0
  141.1607   72.9765  225.3162 H   0  0  0  0  0  0  0  0  0  0  0  0
  140.8627   71.8415  227.5439 H   0  0  0  0  0  0  0  0  0  0  0  0
  139.3270   72.1101  226.6479 H   0  0  0  0  0  0  0  0  0  0  0  0
  140.2959   69.9113  228.8543 H   0  0  0  0  0  0  0  0  0  0  0  0
  139.7885   67.4705  228.9130 H   0  0  0  0  0  0  0  0  0  0  0  0
  139.1735   66.2695  226.8117 H   0  0  0  0  0  0  0  0  0  0  0  0
  139.0430   67.5156  224.6505 H   0  0  0  0  0  0  0  0  0  0  0  0
  139.9198   69.4872  223.4075 H   0  0  0  0  0  0  0  0  0  0  0  0
  138.5203   70.4549  224.0685 H   0  0  0  0  0  0  0  0  0  0  0  0
  138.7763   74.9797  219.6598 H   0  0  0  0  0  0  0  0  0  0  0  0
  137.9138   75.2487  221.2458 H   0  0  0  0  0  0  0  0  0  0  0  0
  138.0936   77.1078  219.2344 H   0  0  0  0  0  0  0  0  0  0  0  0
  137.8436   77.4682  220.9984 H   0  0  0  0  0  0  0  0  0  0  0  0
  1  2  1  0
  2  3  1  0
  3  4  1  0
  4  5  1  0
  5  6  1  0
  6  7  1  0
  7  8  2  0
  8  9  1  0
  9 10  1  0
 10 11  1  0
 11 12  1  0
 12 13  1  0
 13 14  2  0
 14 15  1  0
 15 16  2  0
 16 17  1  0
 17 18  2  0
 18 19  1  0
  9 20  2  0
 20 21  1  0
 21 22  1  0
 22 23  1  0
 23 24  1  0
 24 25  1  0
 25 26  2  0
 26 27  1  0
 27 28  2  0
 28 29  1  0
 29 30  2  0
 30 31  1  0
 21 32  2  0
  6 33  1  0
 33 34  1  0
 34 35  1  0
 35  4  1  0
 32  7  1  0
 19 10  1  0
 31 22  1  0
 18 13  1  0
 30 25  1  0
  1 36  1  0
  1 37  1  0
  1 38  1  0
  2 39  1  0
  2 40  1  0
  3 41  1  0
  4 42  1  1
  5 43  1  0
  5 44  1  0
 11 45  1  0
 11 46  1  0
 12 47  1  0
 12 48  1  0
 14 49  1  0
 15 50  1  0
 16 51  1  0
 17 52  1  0
 19 53  1  0
 19 54  1  0
 23 55  1  0
 23 56  1  0
 24 57  1  0
 24 58  1  0
 26 59  1  0
 27 60  1  0
 28 61  1  0
 29 62  1  0
 31 63  1  0
 31 64  1  0
 33 65  1  0
 33 66  1  0
 34 67  1  0
 34 68  1  0
M  END
>  <meeko>  (16) 
{"free_energy": -8.3, "intermolecular_energy": -9.79, "internal_energy": -0.89, "cluster_size": 1, "cluster_id": 4, "rank_in_cluster": 1}

$$$$

     RDKit          3D

 68 73  0  0  0  0  0  0  0  0999 V2000
  146.3430   73.7530  221.0490 C   0  0  0  0  0  0  0  0  0  0  0  0
  146.3220   72.5580  220.1050 C   0  0  0  0  0  0  0  0  0  0  0  0
  146.0690   73.0090  218.7280 N   0  0  0  0  0  0  0  0  0  0  0  0
  144.6500   72.8650  218.3580 C   0  0  2  0  0  0  0  0  0  0  0  0
  143.7640   73.3670  219.5090 C   0  0  0  0  0  0  0  0  0  0  0  0
  142.4160   72.7850  219.4770 N   0  0  0  0  0  0  0  0  0  0  0  0
  141.4900   73.1580  220.5150 C   0  0  0  0  0  0  0  0  0  0  0  0
  140.8950   74.3800  220.4900 N   0  0  0  0  0  0  0  0  0  0  0  0
  140.0350   74.7560  221.4740 C   0  0  0  0  0  0  0  0  0  0  0  0
  139.4400   76.0730  221.4620 N   0  0  0  0  0  0  0  0  0  0  0  0
  139.0230   76.7190  220.2130 C   0  0  0  0  0  0  0  0  0  0  0  0
  139.9300   77.9220  219.9490 C   0  0  0  0  0  0  0  0  0  0  0  0
  140.0960   78.7830  221.1800 C   0  0  0  0  0  0  0  0  0  0  0  0
  140.5810   80.0930  221.0370 C   0  0  0  0  0  0  0  0  0  0  0  0
  140.8010   80.8950  222.1590 C   0  0  0  0  0  0  0  0  0  0  0  0
  140.5470   80.3960  223.4380 C   0  0  0  0  0  0  0  0  0  0  0  0
  140.0750   79.0900  223.5970 C   0  0  0  0  0  0  0  0  0  0  0  0
  139.8640   78.2680  222.4790 C   0  0  0  0  0  0  0  0  0  0  0  0
  139.3170   76.8730  222.6880 C   0  0  0  0  0  0  0  0  0  0  0  0
  139.7640   73.8850  222.4830 N   0  0  0  0  0  0  0  0  0  0  0  0
  140.3470   72.6570  222.5230 C   0  0  0  0  0  0  0  0  0  0  0  0
  140.0520   71.7460  223.6040 N   0  0  0  0  0  0  0  0  0  0  0  0
  138.8220   70.9330  223.5510 C   0  0  0  0  0  0  0  0  0  0  0  0
  138.9760   69.6370  224.3470 C   0  0  0  0  0  0  0  0  0  0  0  0
  139.4130   69.9500  225.7440 C   0  0  0  0  0  0  0  0  0  0  0  0
  138.9100   69.2220  226.8370 C   0  0  0  0  0  0  0  0  0  0  0  0
  139.3410   69.5130  228.1320 C   0  0  0  0  0  0  0  0  0  0  0  0
  140.2850   70.5210  228.3460 C   0  0  0  0  0  0  0  0  0  0  0  0
  140.8030   71.2390  227.2610 C   0  0  0  0  0  0  0  0  0  0  0  0
  140.3580   70.9720  225.9570 C   0  0  0  0  0  0  0  0  0  0  0  0
  140.9310   71.7450  224.7920 C   0  0  0  0  0  0  0  0  0  0  0  0
  141.2170   72.3030  221.5360 N   0  0  0  0  0  0  0  0  0  0  0  0
  141.9640   71.8660  218.4180 C   0  0  0  0  0  0  0  0  0  0  0  0
  143.1100   71.3660  217.5150 C   0  0  0  0  0  0  0  0  0  0  0  0
  144.3760   71.4940  218.1330 O   0  0  0  0  0  0  0  0  0  0  0  0
  146.3368   73.3980  222.0901 H   0  0  0  0  0  0  0  0  0  0  0  0
  147.2517   74.3463  220.8693 H   0  0  0  0  0  0  0  0  0  0  0  0
  145.4557   74.3778  220.8693 H   0  0  0  0  0  0  0  0  0  0  0  0
  147.2933   72.0434  220.1471 H   0  0  0  0  0  0  0  0  0  0  0  0
  145.5213   71.8692  220.4122 H   0  0  0  0  0  0  0  0  0  0  0  0
  146.3160   74.0270  218.6810 H   0  0  0  0  0  0  0  0  0  0  0  0
  144.4418   73.4514  217.4509 H   0  0  0  0  0  0  0  0  0  0  0  0
  144.2409   73.0997  220.4635 H   0  0  0  0  0  0  0  0  0  0  0  0
  143.6600   74.4566  219.3996 H   0  0  0  0  0  0  0  0  0  0  0  0
  139.1074   76.0037  219.3816 H   0  0  0  0  0  0  0  0  0  0  0  0
  137.9781   77.0522  220.2972 H   0  0  0  0  0  0  0  0  0  0  0  0
  140.9191   77.5591  219.6327 H   0  0  0  0  0  0  0  0  0  0  0  0
  139.4633   78.5353  219.1642 H   0  0  0  0  0  0  0  0  0  0  0  0
  140.7894   80.4909  220.0329 H   0  0  0  0  0  0  0  0  0  0  0  0
  141.1752   81.9219  222.0348 H   0  0  0  0  0  0  0  0  0  0  0  0
  140.7183   81.0304  224.3202 H   0  0  0  0  0  0  0  0  0  0  0  0
  139.8674   78.7035  224.6057 H   0  0  0  0  0  0  0  0  0  0  0  0
  139.8798   76.3827  223.4960 H   0  0  0  0  0  0  0  0  0  0  0  0
  138.2521   76.9489  222.9530 H   0  0  0  0  0  0  0  0  0  0  0  0
  137.9895   71.5153  223.9727 H   0  0  0  0  0  0  0  0  0  0  0  0
  138.6236   70.6730  222.5007 H   0  0  0  0  0  0  0  0  0  0  0  0
  138.0114   69.1090  224.3756 H   0  0  0  0  0  0  0  0  0  0  0  0
  139.7320   69.0009  223.8634 H   0  0  0  0  0  0  0  0  0  0  0  0
  138.1747   68.4209  226.6707 H   0  0  0  0  0  0  0  0  0  0  0  0
  138.9372   68.9483  228.9853 H   0  0  0  0  0  0  0  0  0  0  0  0
  140.6215   70.7507  229.3678 H   0  0  0  0  0  0  0  0  0  0  0  0
  141.5625   72.0162  227.4316 H   0  0  0  0  0  0  0  0  0  0  0  0
  141.0917   72.7861  225.1087 H   0  0  0  0  0  0  0  0  0  0  0  0
  141.8702   71.2509  224.5027 H   0  0  0  0  0  0  0  0  0  0  0  0
  141.4871   70.9951  218.8914 H   0  0  0  0  0  0  0  0  0  0  0  0
  141.2647   72.4244  217.7783 H   0  0  0  0  0  0  0  0  0  0  0  0
  142.9373   70.3056  217.2790 H   0  0  0  0  0  0  0  0  0  0  0  0
  143.1157   71.9846  216.6054 H   0  0  0  0  0  0  0  0  0  0  0  0
  1  2  1  0
  2  3  1  0
  3  4  1  0
  4  5  1  0
  5  6  1  0
  6  7  1  0
  7  8  2  0
  8  9  1  0
  9 10  1  0
 10 11  1  0
 11 12  1  0
 12 13  1  0
 13 14  2  0
 14 15  1  0
 15 16  2  0
 16 17  1  0
 17 18  2  0
 18 19  1  0
  9 20  2  0
 20 21  1  0
 21 22  1  0
 22 23  1  0
 23 24  1  0
 24 25  1  0
 25 26  2  0
 26 27  1  0
 27 28  2  0
 28 29  1  0
 29 30  2  0
 30 31  1  0
 21 32  2  0
  6 33  1  0
 33 34  1  0
 34 35  1  0
 35  4  1  0
 32  7  1  0
 19 10  1  0
 31 22  1  0
 18 13  1  0
 30 25  1  0
  1 36  1  0
  1 37  1  0
  1 38  1  0
  2 39  1  0
  2 40  1  0
  3 41  1  0
  4 42  1  6
  5 43  1  0
  5 44  1  0
 11 45  1  0
 11 46  1  0
 12 47  1  0
 12 48  1  0
 14 49  1  0
 15 50  1  0
 16 51  1  0
 17 52  1  0
 19 53  1  0
 19 54  1  0
 23 55  1  0
 23 56  1  0
 24 57  1  0
 24 58  1  0
 26 59  1  0
 27 60  1  0
 28 61  1  0
 29 62  1  0
 31 63  1  0
 31 64  1  0
 33 65  1  0
 33 66  1  0
 34 67  1  0
 34 68  1  0
M  END
>  <meeko>  (17) 
{"free_energy": -9.33, "intermolecular_energy": -10.82, "internal_energy": -0.87, "cluster_size": 16, "cluster_id": 1, "rank_in_cluster": 8}

$$$$

     RDKit          3D

 68 73  0  0  0  0  0  0  0  0999 V2000
  146.0290   68.0790  219.3340 C   0  0  0  0  0  0  0  0  0  0  0  0
  145.1240   69.3040  219.3180 C   0  0  0  0  0  0  0  0  0  0  0  0
  145.9320   70.5240  219.1680 N   0  0  0  0  0  0  0  0  0  0  0  0
  145.1090   71.6770  218.7660 C   0  0  2  0  0  0  0  0  0  0  0  0
  144.1850   72.0810  219.9260 C   0  0  0  0  0  0  0  0  0  0  0  0
  142.9980   72.8160  219.4720 N   0  0  0  0  0  0  0  0  0  0  0  0
  142.0390   73.2350  220.4610 C   0  0  0  0  0  0  0  0  0  0  0  0
  141.5890   74.5180  220.4720 N   0  0  0  0  0  0  0  0  0  0  0  0
  140.6990   74.9360  221.4120 C   0  0  0  0  0  0  0  0  0  0  0  0
  140.2590   76.3120  221.4430 N   0  0  0  0  0  0  0  0  0  0  0  0
  140.0450   77.0800  220.2120 C   0  0  0  0  0  0  0  0  0  0  0  0
  141.1030   78.1820  220.1230 C   0  0  0  0  0  0  0  0  0  0  0  0
  141.2380   78.9380  221.4250 C   0  0  0  0  0  0  0  0  0  0  0  0
  141.8780   80.1880  221.4260 C   0  0  0  0  0  0  0  0  0  0  0  0
  142.0710   80.8860  222.6190 C   0  0  0  0  0  0  0  0  0  0  0  0
  141.6340   80.3410  223.8290 C   0  0  0  0  0  0  0  0  0  0  0  0
  141.0060   79.0920  223.8460 C   0  0  0  0  0  0  0  0  0  0  0  0
  140.8200   78.3730  222.6550 C   0  0  0  0  0  0  0  0  0  0  0  0
  140.1020   77.0420  222.7070 C   0  0  0  0  0  0  0  0  0  0  0  0
  140.2520   74.0470  222.3390 N   0  0  0  0  0  0  0  0  0  0  0  0
  140.6880   72.7590  222.3410 C   0  0  0  0  0  0  0  0  0  0  0  0
  140.2060   71.8290  223.3360 N   0  0  0  0  0  0  0  0  0  0  0  0
  138.8210   71.3300  223.2500 C   0  0  0  0  0  0  0  0  0  0  0  0
  138.6820   69.9550  223.9040 C   0  0  0  0  0  0  0  0  0  0  0  0
  139.2010   70.0080  225.3080 C   0  0  0  0  0  0  0  0  0  0  0  0
  138.5590   69.3010  226.3400 C   0  0  0  0  0  0  0  0  0  0  0  0
  139.0660   69.3450  227.6400 C   0  0  0  0  0  0  0  0  0  0  0  0
  140.2210   70.0810  227.9180 C   0  0  0  0  0  0  0  0  0  0  0  0
  140.8750   70.7740  226.8900 C   0  0  0  0  0  0  0  0  0  0  0  0
  140.3600   70.7570  225.5850 C   0  0  0  0  0  0  0  0  0  0  0  0
  141.0790   71.4990  224.4820 C   0  0  0  0  0  0  0  0  0  0  0  0
  141.5900   72.3620  221.4010 N   0  0  0  0  0  0  0  0  0  0  0  0
  142.7640   73.1670  218.0610 C   0  0  0  0  0  0  0  0  0  0  0  0
  143.7300   72.4610  217.0890 C   0  0  0  0  0  0  0  0  0  0  0  0
  144.3130   71.3040  217.6560 O   0  0  0  0  0  0  0  0  0  0  0  0
  146.2404   67.7929  220.3749 H   0  0  0  0  0  0  0  0  0  0  0  0
  145.5277   67.2460  218.8193 H   0  0  0  0  0  0  0  0  0  0  0  0
  146.9725   68.3134  218.8193 H   0  0  0  0  0  0  0  0  0  0  0  0
  144.4210   69.2267  218.4755 H   0  0  0  0  0  0  0  0  0  0  0  0
  144.5668   69.3539  220.2651 H   0  0  0  0  0  0  0  0  0  0  0  0
  146.3560   70.7360  220.1020 H   0  0  0  0  0  0  0  0  0  0  0  0
  145.7613   72.5227  218.5029 H   0  0  0  0  0  0  0  0  0  0  0  0
  143.8570   71.1705  220.4488 H   0  0  0  0  0  0  0  0  0  0  0  0
  144.7555   72.7468  220.5903 H   0  0  0  0  0  0  0  0  0  0  0  0
  140.1324   76.4134  219.3414 H   0  0  0  0  0  0  0  0  0  0  0  0
  139.0407   77.5286  220.2233 H   0  0  0  0  0  0  0  0  0  0  0  0
  142.0724   77.7255  219.8743 H   0  0  0  0  0  0  0  0  0  0  0  0
  140.7899   78.8942  219.3453 H   0  0  0  0  0  0  0  0  0  0  0  0
  142.2303   80.6208  220.4781 H   0  0  0  0  0  0  0  0  0  0  0  0
  142.5681   81.8672  222.6067 H   0  0  0  0  0  0  0  0  0  0  0  0
  141.7840   80.8943  224.7678 H   0  0  0  0  0  0  0  0  0  0  0  0
  140.6552   78.6699  224.7993 H   0  0  0  0  0  0  0  0  0  0  0  0
  140.5210   76.4386  223.5258 H   0  0  0  0  0  0  0  0  0  0  0  0
  139.0308   77.2270  222.8751 H   0  0  0  0  0  0  0  0  0  0  0  0
  138.1528   72.0387  223.7612 H   0  0  0  0  0  0  0  0  0  0  0  0
  138.5518   71.2369  222.1875 H   0  0  0  0  0  0  0  0  0  0  0  0
  137.6218   69.6620  223.9171 H   0  0  0  0  0  0  0  0  0  0  0  0
  139.2623   69.2183  223.3291 H   0  0  0  0  0  0  0  0  0  0  0  0
  137.6557   68.7122  226.1226 H   0  0  0  0  0  0  0  0  0  0  0  0
  138.5553   68.7993  228.4471 H   0  0  0  0  0  0  0  0  0  0  0  0
  140.6169   70.1165  228.9437 H   0  0  0  0  0  0  0  0  0  0  0  0
  141.7965   71.3339  227.1075 H   0  0  0  0  0  0  0  0  0  0  0  0
  141.4816   72.4354  224.8956 H   0  0  0  0  0  0  0  0  0  0  0  0
  141.8735   70.8370  224.1072 H   0  0  0  0  0  0  0  0  0  0  0  0
  141.7343   72.8841  217.7969 H   0  0  0  0  0  0  0  0  0  0  0  0
  142.9349   74.2491  217.9617 H   0  0  0  0  0  0  0  0  0  0  0  0
  143.1731   72.1700  216.1861 H   0  0  0  0  0  0  0  0  0  0  0  0
  144.5417   73.1645  216.8517 H   0  0  0  0  0  0  0  0  0  0  0  0
  1  2  1  0
  2  3  1  0
  3  4  1  0
  4  5  1  0
  5  6  1  0
  6  7  1  0
  7  8  2  0
  8  9  1  0
  9 10  1  0
 10 11  1  0
 11 12  1  0
 12 13  1  0
 13 14  2  0
 14 15  1  0
 15 16  2  0
 16 17  1  0
 17 18  2  0
 18 19  1  0
  9 20  2  0
 20 21  1  0
 21 22  1  0
 22 23  1  0
 23 24  1  0
 24 25  1  0
 25 26  2  0
 26 27  1  0
 27 28  2  0
 28 29  1  0
 29 30  2  0
 30 31  1  0
 21 32  2  0
  6 33  1  0
 33 34  1  0
 34 35  1  0
 35  4  1  0
 32  7  1  0
 19 10  1  0
 31 22  1  0
 18 13  1  0
 30 25  1  0
  1 36  1  0
  1 37  1  0
  1 38  1  0
  2 39  1  0
  2 40  1  0
  3 41  1  0
  4 42  1  6
  5 43  1  0
  5 44  1  0
 11 45  1  0
 11 46  1  0
 12 47  1  0
 12 48  1  0
 14 49  1  0
 15 50  1  0
 16 51  1  0
 17 52  1  0
 19 53  1  0
 19 54  1  0
 23 55  1  0
 23 56  1  0
 24 57  1  0
 24 58  1  0
 26 59  1  0
 27 60  1  0
 28 61  1  0
 29 62  1  0
 31 63  1  0
 31 64  1  0
 33 65  1  0
 33 66  1  0
 34 67  1  0
 34 68  1  0
M  END
>  <meeko>  (18) 
{"free_energy": -9.07, "intermolecular_energy": -10.56, "internal_energy": -0.94, "cluster_size": 16, "cluster_id": 1, "rank_in_cluster": 13}

$$$$

     RDKit          3D

 68 73  0  0  0  0  0  0  0  0999 V2000
  147.5170   74.9960  215.9610 C   0  0  0  0  0  0  0  0  0  0  0  0
  146.7050   73.7210  216.1460 C   0  0  0  0  0  0  0  0  0  0  0  0
  145.3930   74.0390  216.7300 N   0  0  0  0  0  0  0  0  0  0  0  0
  144.8840   72.9360  217.5630 C   0  0  2  0  0  0  0  0  0  0  0  0
  143.7330   73.4460  218.4450 C   0  0  0  0  0  0  0  0  0  0  0  0
  143.5380   72.6220  219.6450 N   0  0  0  0  0  0  0  0  0  0  0  0
  142.5010   73.0040  220.5700 C   0  0  0  0  0  0  0  0  0  0  0  0
  142.0140   74.2730  220.5620 N   0  0  0  0  0  0  0  0  0  0  0  0
  141.0510   74.6560  221.4420 C   0  0  0  0  0  0  0  0  0  0  0  0
  140.5700   76.0190  221.4550 N   0  0  0  0  0  0  0  0  0  0  0  0
  140.3270   76.7610  220.2130 C   0  0  0  0  0  0  0  0  0  0  0  0
  141.3500   77.8920  220.1020 C   0  0  0  0  0  0  0  0  0  0  0  0
  141.4700   78.6720  221.3910 C   0  0  0  0  0  0  0  0  0  0  0  0
  142.0710   79.9410  221.3690 C   0  0  0  0  0  0  0  0  0  0  0  0
  142.2500   80.6620  222.5510 C   0  0  0  0  0  0  0  0  0  0  0  0
  141.8360   80.1230  223.7710 C   0  0  0  0  0  0  0  0  0  0  0  0
  141.2460   78.8560  223.8100 C   0  0  0  0  0  0  0  0  0  0  0  0
  141.0750   78.1140  222.6320 C   0  0  0  0  0  0  0  0  0  0  0  0
  140.3980   76.7630  222.7090 C   0  0  0  0  0  0  0  0  0  0  0  0
  140.5680   73.7440  222.3290 N   0  0  0  0  0  0  0  0  0  0  0  0
  141.0410   72.4700  222.3500 C   0  0  0  0  0  0  0  0  0  0  0  0
  140.5200   71.5160  223.3020 N   0  0  0  0  0  0  0  0  0  0  0  0
  139.1290   71.0420  223.1650 C   0  0  0  0  0  0  0  0  0  0  0  0
  138.9540   69.6490  223.7710 C   0  0  0  0  0  0  0  0  0  0  0  0
  139.4370   69.6490  225.1880 C   0  0  0  0  0  0  0  0  0  0  0  0
  138.7580   68.9200  226.1800 C   0  0  0  0  0  0  0  0  0  0  0  0
  139.2330   68.9140  227.4930 C   0  0  0  0  0  0  0  0  0  0  0  0
  140.3910   69.6220  227.8230 C   0  0  0  0  0  0  0  0  0  0  0  0
  141.0810   70.3380  226.8360 C   0  0  0  0  0  0  0  0  0  0  0  0
  140.6000   70.3710  225.5170 C   0  0  0  0  0  0  0  0  0  0  0  0
  141.3570   71.1360  224.4580 C   0  0  0  0  0  0  0  0  0  0  0  0
  142.0150   72.1080  221.4690 N   0  0  0  0  0  0  0  0  0  0  0  0
  144.3300   71.4120  219.9260 C   0  0  0  0  0  0  0  0  0  0  0  0
  145.5480   71.2520  218.9950 C   0  0  0  0  0  0  0  0  0  0  0  0
  145.9310   72.4750  218.3960 O   0  0  0  0  0  0  0  0  0  0  0  0
  147.7802   75.4092  216.9459 H   0  0  0  0  0  0  0  0  0  0  0  0
  148.4362   74.7674  215.4018 H   0  0  0  0  0  0  0  0  0  0  0  0
  146.9211   75.7323  215.4018 H   0  0  0  0  0  0  0  0  0  0  0  0
  146.5608   73.2363  215.1691 H   0  0  0  0  0  0  0  0  0  0  0  0
  147.2464   73.0438  216.8229 H   0  0  0  0  0  0  0  0  0  0  0  0
  145.5190   74.8800  217.3430 H   0  0  0  0  0  0  0  0  0  0  0  0
  144.5208   72.1215  216.9190 H   0  0  0  0  0  0  0  0  0  0  0  0
  143.9574   74.4766  218.7571 H   0  0  0  0  0  0  0  0  0  0  0  0
  142.8086   73.3963  217.8509 H   0  0  0  0  0  0  0  0  0  0  0  0
  140.4306   76.0839  219.3523 H   0  0  0  0  0  0  0  0  0  0  0  0
  139.3096   77.1790  220.2222 H   0  0  0  0  0  0  0  0  0  0  0  0
  142.3313   77.4609  219.8546 H   0  0  0  0  0  0  0  0  0  0  0  0
  141.0107   78.5827  219.3160 H   0  0  0  0  0  0  0  0  0  0  0  0
  142.4035   80.3705  220.4125 H   0  0  0  0  0  0  0  0  0  0  0  0
  142.7182   81.6569  222.5213 H   0  0  0  0  0  0  0  0  0  0  0  0
  141.9740   80.6948  224.7005 H   0  0  0  0  0  0  0  0  0  0  0  0
  140.9135   78.4380  224.7716 H   0  0  0  0  0  0  0  0  0  0  0  0
  140.8398   76.1852  223.5342 H   0  0  0  0  0  0  0  0  0  0  0  0
  139.3227   76.9179  222.8813 H   0  0  0  0  0  0  0  0  0  0  0  0
  138.4586   71.7444  223.6820 H   0  0  0  0  0  0  0  0  0  0  0  0
  138.8849   70.9876  222.0938 H   0  0  0  0  0  0  0  0  0  0  0  0
  137.8898   69.3715  223.7478 H   0  0  0  0  0  0  0  0  0  0  0  0
  139.5388   68.9226  223.1876 H   0  0  0  0  0  0  0  0  0  0  0  0
  137.8512   68.3535  225.9214 H   0  0  0  0  0  0  0  0  0  0  0  0
  138.6942   68.3506  228.2691 H   0  0  0  0  0  0  0  0  0  0  0  0
  140.7615   69.6174  228.8587 H   0  0  0  0  0  0  0  0  0  0  0  0
  142.0041   70.8770  227.0955 H   0  0  0  0  0  0  0  0  0  0  0  0
  141.7625   72.0523  224.9118 H   0  0  0  0  0  0  0  0  0  0  0  0
  142.1507   70.4737  224.0821 H   0  0  0  0  0  0  0  0  0  0  0  0
  144.6885   71.4626  220.9647 H   0  0  0  0  0  0  0  0  0  0  0  0
  143.6736   70.5458  219.7563 H   0  0  0  0  0  0  0  0  0  0  0  0
  146.3939   70.8659  219.5826 H   0  0  0  0  0  0  0  0  0  0  0  0
  145.2670   70.5569  218.1901 H   0  0  0  0  0  0  0  0  0  0  0  0
  1  2  1  0
  2  3  1  0
  3  4  1  0
  4  5  1  0
  5  6  1  0
  6  7  1  0
  7  8  2  0
  8  9  1  0
  9 10  1  0
 10 11  1  0
 11 12  1  0
 12 13  1  0
 13 14  2  0
 14 15  1  0
 15 16  2  0
 16 17  1  0
 17 18  2  0
 18 19  1  0
  9 20  2  0
 20 21  1  0
 21 22  1  0
 22 23  1  0
 23 24  1  0
 24 25  1  0
 25 26  2  0
 26 27  1  0
 27 28  2  0
 28 29  1  0
 29 30  2  0
 30 31  1  0
 21 32  2  0
  6 33  1  0
 33 34  1  0
 34 35  1  0
 35  4  1  0
 32  7  1  0
 19 10  1  0
 31 22  1  0
 18 13  1  0
 30 25  1  0
  1 36  1  0
  1 37  1  0
  1 38  1  0
  2 39  1  0
  2 40  1  0
  3 41  1  0
  4 42  1  6
  5 43  1  0
  5 44  1  0
 11 45  1  0
 11 46  1  0
 12 47  1  0
 12 48  1  0
 14 49  1  0
 15 50  1  0
 16 51  1  0
 17 52  1  0
 19 53  1  0
 19 54  1  0
 23 55  1  0
 23 56  1  0
 24 57  1  0
 24 58  1  0
 26 59  1  0
 27 60  1  0
 28 61  1  0
 29 62  1  0
 31 63  1  0
 31 64  1  0
 33 65  1  0
 33 66  1  0
 34 67  1  0
 34 68  1  0
M  END
>  <meeko>  (19) 
{"free_energy": -9.64, "intermolecular_energy": -11.13, "internal_energy": -0.9, "cluster_size": 16, "cluster_id": 1, "rank_in_cluster": 3}

$$$$

     RDKit          3D

 68 73  0  0  0  0  0  0  0  0999 V2000
  146.7000   73.2770  221.9730 C   0  0  0  0  0  0  0  0  0  0  0  0
  146.2120   74.1320  220.8120 C   0  0  0  0  0  0  0  0  0  0  0  0
  146.3350   73.3870  219.5500 N   0  0  0  0  0  0  0  0  0  0  0  0
  145.0740   72.7170  219.1870 C   0  0  2  0  0  0  0  0  0  0  0  0
  143.9500   73.1920  220.1220 C   0  0  0  0  0  0  0  0  0  0  0  0
  142.8440   72.2300  220.2060 N   0  0  0  0  0  0  0  0  0  0  0  0
  141.7330   72.5450  221.0670 C   0  0  0  0  0  0  0  0  0  0  0  0
  140.8530   73.5190  220.7150 N   0  0  0  0  0  0  0  0  0  0  0  0
  139.8110   73.8440  221.5260 C   0  0  0  0  0  0  0  0  0  0  0  0
  138.9050   74.9090  221.1640 N   0  0  0  0  0  0  0  0  0  0  0  0
  139.3720   76.1170  220.4750 C   0  0  0  0  0  0  0  0  0  0  0  0
  139.2410   77.3120  221.4220 C   0  0  0  0  0  0  0  0  0  0  0  0
  137.8890   77.3490  222.0960 C   0  0  0  0  0  0  0  0  0  0  0  0
  137.4600   78.5410  222.7020 C   0  0  0  0  0  0  0  0  0  0  0  0
  136.2430   78.5940  223.3830 C   0  0  0  0  0  0  0  0  0  0  0  0
  135.4410   77.4530  223.4750 C   0  0  0  0  0  0  0  0  0  0  0  0
  135.8590   76.2570  222.8870 C   0  0  0  0  0  0  0  0  0  0  0  0
  137.0880   76.1860  222.2120 C   0  0  0  0  0  0  0  0  0  0  0  0
  137.4900   74.8830  221.5560 C   0  0  0  0  0  0  0  0  0  0  0  0
  139.6510   73.1690  222.6970 N   0  0  0  0  0  0  0  0  0  0  0  0
  140.5200   72.1910  223.0650 C   0  0  0  0  0  0  0  0  0  0  0  0
  140.3390   71.4880  224.3140 N   0  0  0  0  0  0  0  0  0  0  0  0
  141.1170   71.9020  225.4970 C   0  0  0  0  0  0  0  0  0  0  0  0
  140.3850   71.5550  226.7940 C   0  0  0  0  0  0  0  0  0  0  0  0
  140.0330   70.0990  226.8020 C   0  0  0  0  0  0  0  0  0  0  0  0
  140.1170   69.3450  227.9860 C   0  0  0  0  0  0  0  0  0  0  0  0
  139.7670   67.9930  227.9830 C   0  0  0  0  0  0  0  0  0  0  0  0
  139.3190   67.3890  226.8050 C   0  0  0  0  0  0  0  0  0  0  0  0
  139.2190   68.1390  225.6250 C   0  0  0  0  0  0  0  0  0  0  0  0
  139.5910   69.4920  225.6120 C   0  0  0  0  0  0  0  0  0  0  0  0
  139.4680   70.2950  224.3380 C   0  0  0  0  0  0  0  0  0  0  0  0
  141.5660   71.8890  222.2460 N   0  0  0  0  0  0  0  0  0  0  0  0
  142.8080   70.9790  219.4290 C   0  0  0  0  0  0  0  0  0  0  0  0
  144.1480   70.6510  218.7410 C   0  0  0  0  0  0  0  0  0  0  0  0
  145.2390   71.3200  219.3410 O   0  0  0  0  0  0  0  0  0  0  0  0
  146.4254   73.7580  222.9234 H   0  0  0  0  0  0  0  0  0  0  0  0
  146.2336   72.2823  221.9173 H   0  0  0  0  0  0  0  0  0  0  0  0
  147.7936   73.1728  221.9173 H   0  0  0  0  0  0  0  0  0  0  0  0
  145.1577   74.3999  220.9752 H   0  0  0  0  0  0  0  0  0  0  0  0
  146.8247   75.0437  220.7534 H   0  0  0  0  0  0  0  0  0  0  0  0
  146.5650   74.0800  218.7980 H   0  0  0  0  0  0  0  0  0  0  0  0
  144.8133   72.9585  218.1460 H   0  0  0  0  0  0  0  0  0  0  0  0
  144.3673   73.3385  221.1292 H   0  0  0  0  0  0  0  0  0  0  0  0
  143.5471   74.1293  219.7108 H   0  0  0  0  0  0  0  0  0  0  0  0
  140.4251   75.9914  220.1830 H   0  0  0  0  0  0  0  0  0  0  0  0
  138.7657   76.2888  219.5734 H   0  0  0  0  0  0  0  0  0  0  0  0
  140.0217   77.2418  222.1938 H   0  0  0  0  0  0  0  0  0  0  0  0
  139.3524   78.2317  220.8290 H   0  0  0  0  0  0  0  0  0  0  0  0
  138.0890   79.4412  222.6393 H   0  0  0  0  0  0  0  0  0  0  0  0
  135.9144   79.5352  223.8480 H   0  0  0  0  0  0  0  0  0  0  0  0
  134.4810   77.4969  224.0103 H   0  0  0  0  0  0  0  0  0  0  0  0
  135.2203   75.3638  222.9533 H   0  0  0  0  0  0  0  0  0  0  0  0
  137.3277   74.0577  222.2649 H   0  0  0  0  0  0  0  0  0  0  0  0
  136.8776   74.7400  220.6535 H   0  0  0  0  0  0  0  0  0  0  0  0
  142.0886   71.3863  225.4851 H   0  0  0  0  0  0  0  0  0  0  0  0
  141.2542   72.9927  225.4574 H   0  0  0  0  0  0  0  0  0  0  0  0
  141.0360   71.7784  227.6521 H   0  0  0  0  0  0  0  0  0  0  0  0
  139.4640   72.1525  226.8632 H   0  0  0  0  0  0  0  0  0  0  0  0
  140.4592   69.8212  228.9167 H   0  0  0  0  0  0  0  0  0  0  0  0
  139.8440   67.4032  228.9083 H   0  0  0  0  0  0  0  0  0  0  0  0
  139.0445   66.3238  226.8038 H   0  0  0  0  0  0  0  0  0  0  0  0
  138.8471   67.6647  224.7048 H   0  0  0  0  0  0  0  0  0  0  0  0
  139.7378   69.6483  223.4900 H   0  0  0  0  0  0  0  0  0  0  0  0
  138.4284   70.6487  224.2744 H   0  0  0  0  0  0  0  0  0  0  0  0
  142.5529   70.1527  220.1089 H   0  0  0  0  0  0  0  0  0  0  0  0
  142.0572   71.1091  218.6357 H   0  0  0  0  0  0  0  0  0  0  0  0
  144.3210   69.5665  218.8032 H   0  0  0  0  0  0  0  0  0  0  0  0
  144.0805   70.9888  217.6963 H   0  0  0  0  0  0  0  0  0  0  0  0
  1  2  1  0
  2  3  1  0
  3  4  1  0
  4  5  1  0
  5  6  1  0
  6  7  1  0
  7  8  2  0
  8  9  1  0
  9 10  1  0
 10 11  1  0
 11 12  1  0
 12 13  1  0
 13 14  2  0
 14 15  1  0
 15 16  2  0
 16 17  1  0
 17 18  2  0
 18 19  1  0
  9 20  2  0
 20 21  1  0
 21 22  1  0
 22 23  1  0
 23 24  1  0
 24 25  1  0
 25 26  2  0
 26 27  1  0
 27 28  2  0
 28 29  1  0
 29 30  2  0
 30 31  1  0
 21 32  2  0
  6 33  1  0
 33 34  1  0
 34 35  1  0
 35  4  1  0
 32  7  1  0
 19 10  1  0
 31 22  1  0
 18 13  1  0
 30 25  1  0
  1 36  1  0
  1 37  1  0
  1 38  1  0
  2 39  1  0
  2 40  1  0
  3 41  1  0
  4 42  1  6
  5 43  1  0
  5 44  1  0
 11 45  1  0
 11 46  1  0
 12 47  1  0
 12 48  1  0
 14 49  1  0
 15 50  1  0
 16 51  1  0
 17 52  1  0
 19 53  1  0
 19 54  1  0
 23 55  1  0
 23 56  1  0
 24 57  1  0
 24 58  1  0
 26 59  1  0
 27 60  1  0
 28 61  1  0
 29 62  1  0
 31 63  1  0
 31 64  1  0
 33 65  1  0
 33 66  1  0
 34 67  1  0
 34 68  1  0
M  END
>  <meeko>  (20) 
{"free_energy": -9.04, "intermolecular_energy": -10.54, "internal_energy": -1.0, "cluster_size": 2, "cluster_id": 2, "rank_in_cluster": 2}

$$$$
