
     RDKit          3D

 69 74  0  0  0  0  0  0  0  0999 V2000
  142.3180   79.9120  223.1430 C   0  0  0  0  0  0  0  0  0  0  0  0
  141.7610   79.7490  221.7300 C   0  0  0  0  0  0  0  0  0  0  0  0
  142.2000   78.4720  221.1360 N   0  0  0  0  0  0  0  0  0  0  0  0
  141.1140   77.4810  220.9770 C   0  0  1  0  0  0  0  0  0  0  0  0
  141.4470   76.1350  221.6540 C   0  0  0  0  0  0  0  0  0  0  0  0
  140.3010   75.2260  221.5350 N   0  0  0  0  0  0  0  0  0  0  0  0
  140.5050   73.8000  221.5950 C   0  0  0  0  0  0  0  0  0  0  0  0
  141.0570   73.1400  220.5430 N   0  0  0  0  0  0  0  0  0  0  0  0
  141.2830   71.8020  220.6020 C   0  0  0  0  0  0  0  0  0  0  0  0
  141.8870   71.1110  219.4880 N   0  0  0  0  0  0  0  0  0  0  0  0
  141.2610   69.9260  218.8940 C   0  0  0  0  0  0  0  0  0  0  0  0
  142.0200   68.6810  219.3550 C   0  0  0  0  0  0  0  0  0  0  0  0
  143.5220   68.8590  219.2690 C   0  0  0  0  0  0  0  0  0  0  0  0
  144.3460   67.7260  219.3560 C   0  0  0  0  0  0  0  0  0  0  0  0
  145.7360   67.8580  219.3410 C   0  0  0  0  0  0  0  0  0  0  0  0
  146.3180   69.1240  219.2460 C   0  0  0  0  0  0  0  0  0  0  0  0
  145.5130   70.2630  219.1730 C   0  0  0  0  0  0  0  0  0  0  0  0
  144.1130   70.1460  219.2020 C   0  0  0  0  0  0  0  0  0  0  0  0
  143.2670   71.3860  219.0650 C   0  0  0  0  0  0  0  0  0  0  0  0
  140.9370   71.1210  221.7270 N   0  0  0  0  0  0  0  0  0  0  0  0
  140.3690   71.7620  222.7840 C   0  0  0  0  0  0  0  0  0  0  0  0
  139.9810   71.0230  223.9620 N   0  0  0  0  0  0  0  0  0  0  0  0
  138.8170   70.1270  223.9400 C   0  0  0  0  0  0  0  0  0  0  0  0
  139.1850   68.7970  224.5890 C   0  0  0  0  0  0  0  0  0  0  0  0
  139.7850   69.0090  225.9510 C   0  0  0  0  0  0  0  0  0  0  0  0
  139.7130   67.9820  226.9050 C   0  0  0  0  0  0  0  0  0  0  0  0
  140.3020   68.1420  228.1610 C   0  0  0  0  0  0  0  0  0  0  0  0
  140.9800   69.3220  228.4690 C   0  0  0  0  0  0  0  0  0  0  0  0
  141.0740   70.3460  227.5230 C   0  0  0  0  0  0  0  0  0  0  0  0
  140.4880   70.1980  226.2540 C   0  0  0  0  0  0  0  0  0  0  0  0
  140.6150   71.3270  225.2570 C   0  0  0  0  0  0  0  0  0  0  0  0
  140.1650   73.1040  222.7100 N   0  0  0  0  0  0  0  0  0  0  0  0
  138.9670   75.7790  221.7950 C   0  0  0  0  0  0  0  0  0  0  0  0
  138.8190   77.1520  221.1300 C   0  0  0  0  0  0  0  0  0  0  0  0
  139.8930   78.0050  221.4810 O   0  0  0  0  0  0  0  0  0  0  0  0
  141.5310   79.6817  223.8762 H   0  0  0  0  0  0  0  0  0  0  0  0
  143.1643   79.2239  223.2852 H   0  0  0  0  0  0  0  0  0  0  0  0
  142.6598   80.9478  223.2852 H   0  0  0  0  0  0  0  0  0  0  0  0
  140.6620   79.7681  221.7715 H   0  0  0  0  0  0  0  0  0  0  0  0
  142.1359   80.5742  221.1067 H   0  0  0  0  0  0  0  0  0  0  0  0
  142.9590   78.0610  221.7270 H   0  0  0  0  0  0  0  0  0  0  0  0
  142.5980   78.6570  220.1850 H   0  0  0  0  0  0  0  0  0  0  0  0
  141.0053   77.2820  219.9006 H   0  0  0  0  0  0  0  0  0  0  0  0
  142.3230   75.6856  221.1635 H   0  0  0  0  0  0  0  0  0  0  0  0
  141.6677   76.3065  222.7179 H   0  0  0  0  0  0  0  0  0  0  0  0
  140.2121   69.8604  219.2190 H   0  0  0  0  0  0  0  0  0  0  0  0
  141.2940   69.9976  217.7968 H   0  0  0  0  0  0  0  0  0  0  0  0
  141.7483   68.4674  220.3993 H   0  0  0  0  0  0  0  0  0  0  0  0
  141.7407   67.8508  218.6895 H   0  0  0  0  0  0  0  0  0  0  0  0
  143.8934   66.7267  219.4366 H   0  0  0  0  0  0  0  0  0  0  0  0
  146.3734   66.9637  219.4041 H   0  0  0  0  0  0  0  0  0  0  0  0
  147.4133   69.2243  219.2286 H   0  0  0  0  0  0  0  0  0  0  0  0
  145.9774   71.2569  219.0924 H   0  0  0  0  0  0  0  0  0  0  0  0
  143.6875   72.1837  219.6950 H   0  0  0  0  0  0  0  0  0  0  0  0
  143.2622   71.7013  218.0112 H   0  0  0  0  0  0  0  0  0  0  0  0
  137.9882   70.5893  224.4963 H   0  0  0  0  0  0  0  0  0  0  0  0
  138.5086   69.9531  222.8985 H   0  0  0  0  0  0  0  0  0  0  0  0
  138.2784   68.1818  224.6873 H   0  0  0  0  0  0  0  0  0  0  0  0
  139.9275   68.2912  223.9542 H   0  0  0  0  0  0  0  0  0  0  0  0
  139.1895   67.0456  226.6619 H   0  0  0  0  0  0  0  0  0  0  0  0
  140.2315   67.3375  228.9078 H   0  0  0  0  0  0  0  0  0  0  0  0
  141.4419   69.4465  229.4595 H   0  0  0  0  0  0  0  0  0  0  0  0
  141.6099   71.2736  227.7729 H   0  0  0  0  0  0  0  0  0  0  0  0
  140.1378   72.2236  225.6795 H   0  0  0  0  0  0  0  0  0  0  0  0
  141.6877   71.4833  225.0705 H   0  0  0  0  0  0  0  0  0  0  0  0
  138.2061   75.0959  221.3895 H   0  0  0  0  0  0  0  0  0  0  0  0
  138.8330   75.8921  222.8809 H   0  0  0  0  0  0  0  0  0  0  0  0
  138.8046   77.0228  220.0377 H   0  0  0  0  0  0  0  0  0  0  0  0
  137.8807   77.6096  221.4767 H   0  0  0  0  0  0  0  0  0  0  0  0
  1  2  1  0
  2  3  1  0
  3  4  1  0
  4  5  1  0
  5  6  1  0
  6  7  1  0
  7  8  2  0
  8  9  1  0
  9 10  1  0
 10 11  1  0
 11 12  1  0
 12 13  1  0
 13 14  2  0
 14 15  1  0
 15 16  2  0
 16 17  1  0
 17 18  2  0
 18 19  1  0
  9 20  2  0
 20 21  1  0
 21 22  1  0
 22 23  1  0
 23 24  1  0
 24 25  1  0
 25 26  2  0
 26 27  1  0
 27 28  2  0
 28 29  1  0
 29 30  2  0
 30 31  1  0
 21 32  2  0
  6 33  1  0
 33 34  1  0
 34 35  1  0
 35  4  1  0
 32  7  1  0
 19 10  1  0
 31 22  1  0
 18 13  1  0
 30 25  1  0
  1 36  1  0
  1 37  1  0
  1 38  1  0
  2 39  1  0
  2 40  1  0
  3 41  1  0
  3 42  1  0
  4 43  1  6
  5 44  1  0
  5 45  1  0
 11 46  1  0
 11 47  1  0
 12 48  1  0
 12 49  1  0
 14 50  1  0
 15 51  1  0
 16 52  1  0
 17 53  1  0
 19 54  1  0
 19 55  1  0
 23 56  1  0
 23 57  1  0
 24 58  1  0
 24 59  1  0
 26 60  1  0
 27 61  1  0
 28 62  1  0
 29 63  1  0
 31 64  1  0
 31 65  1  0
 33 66  1  0
 33 67  1  0
 34 68  1  0
 34 69  1  0
M  CHG  1   3   1
M  END
>  <meeko>  (1) 
{"free_energy": -9.95, "intermolecular_energy": -11.44, "internal_energy": -0.86, "cluster_size": 9, "cluster_id": 2, "rank_in_cluster": 3}

$$$$

     RDKit          3D

 69 74  0  0  0  0  0  0  0  0999 V2000
  143.3200   76.4430  217.0440 C   0  0  0  0  0  0  0  0  0  0  0  0
  142.7490   77.7780  217.5220 C   0  0  0  0  0  0  0  0  0  0  0  0
  142.9030   77.9220  218.9830 N   0  0  0  0  0  0  0  0  0  0  0  0
  141.8650   77.2200  219.7660 C   0  0  1  0  0  0  0  0  0  0  0  0
  142.3270   75.8230  220.2310 C   0  0  0  0  0  0  0  0  0  0  0  0
  141.2900   75.2150  221.0720 N   0  0  0  0  0  0  0  0  0  0  0  0
  141.2160   73.7800  221.1970 C   0  0  0  0  0  0  0  0  0  0  0  0
  141.6540   72.9790  220.1910 N   0  0  0  0  0  0  0  0  0  0  0  0
  141.6190   71.6260  220.3130 C   0  0  0  0  0  0  0  0  0  0  0  0
  142.1040   70.7820  219.2480 N   0  0  0  0  0  0  0  0  0  0  0  0
  141.3120   69.6550  218.7460 C   0  0  0  0  0  0  0  0  0  0  0  0
  141.9020   68.3530  219.2910 C   0  0  0  0  0  0  0  0  0  0  0  0
  143.4130   68.3170  219.1810 C   0  0  0  0  0  0  0  0  0  0  0  0
  144.0760   67.0910  219.3440 C   0  0  0  0  0  0  0  0  0  0  0  0
  145.4710   67.0300  219.3100 C   0  0  0  0  0  0  0  0  0  0  0  0
  146.2180   68.1940  219.1180 C   0  0  0  0  0  0  0  0  0  0  0  0
  145.5740   69.4240  218.9690 C   0  0  0  0  0  0  0  0  0  0  0  0
  144.1730   69.5020  219.0160 C   0  0  0  0  0  0  0  0  0  0  0  0
  143.5010   70.8340  218.7960 C   0  0  0  0  0  0  0  0  0  0  0  0
  141.1240   71.0770  221.4540 N   0  0  0  0  0  0  0  0  0  0  0  0
  140.6660   71.8630  222.4650 C   0  0  0  0  0  0  0  0  0  0  0  0
  140.1180   71.2670  223.6610 N   0  0  0  0  0  0  0  0  0  0  0  0
  138.8700   70.4930  223.6140 C   0  0  0  0  0  0  0  0  0  0  0  0
  139.0470   69.1920  224.3880 C   0  0  0  0  0  0  0  0  0  0  0  0
  139.5670   69.4560  225.7740 C   0  0  0  0  0  0  0  0  0  0  0  0
  139.3170   68.5240  226.7940 C   0  0  0  0  0  0  0  0  0  0  0  0
  139.8280   68.7280  228.0770 C   0  0  0  0  0  0  0  0  0  0  0  0
  140.6040   69.8560  228.3490 C   0  0  0  0  0  0  0  0  0  0  0  0
  140.8730   70.7830  227.3390 C   0  0  0  0  0  0  0  0  0  0  0  0
  140.3680   70.5890  226.0420 C   0  0  0  0  0  0  0  0  0  0  0  0
  140.6860   71.6130  224.9760 C   0  0  0  0  0  0  0  0  0  0  0  0
  140.7240   73.2140  222.3290 N   0  0  0  0  0  0  0  0  0  0  0  0
  140.6510   76.0650  222.0830 C   0  0  0  0  0  0  0  0  0  0  0  0
  140.3290   77.4430  221.4960 C   0  0  0  0  0  0  0  0  0  0  0  0
  141.4700   78.0110  220.8780 O   0  0  0  0  0  0  0  0  0  0  0  0
  143.5845   75.8246  217.9144 H   0  0  0  0  0  0  0  0  0  0  0  0
  142.5674   75.9187  216.4368 H   0  0  0  0  0  0  0  0  0  0  0  0
  144.2190   76.6251  216.4368 H   0  0  0  0  0  0  0  0  0  0  0  0
  143.2830   78.5987  217.0206 H   0  0  0  0  0  0  0  0  0  0  0  0
  141.6774   77.8111  217.2759 H   0  0  0  0  0  0  0  0  0  0  0  0
  142.8950   78.9390  219.2300 H   0  0  0  0  0  0  0  0  0  0  0  0
  143.8320   77.5310  219.2690 H   0  0  0  0  0  0  0  0  0  0  0  0
  140.9999   77.0687  219.1037 H   0  0  0  0  0  0  0  0  0  0  0  0
  142.5058   75.1856  219.3525 H   0  0  0  0  0  0  0  0  0  0  0  0
  143.2564   75.9206  220.8113 H   0  0  0  0  0  0  0  0  0  0  0  0
  140.2697   69.7573  219.0823 H   0  0  0  0  0  0  0  0  0  0  0  0
  141.3357   69.6433  217.6463 H   0  0  0  0  0  0  0  0  0  0  0  0
  141.6218   68.2535  220.3500 H   0  0  0  0  0  0  0  0  0  0  0  0
  141.5006   67.5237  218.6901 H   0  0  0  0  0  0  0  0  0  0  0  0
  143.4929   66.1714  219.4997 H   0  0  0  0  0  0  0  0  0  0  0  0
  145.9818   66.0638  219.4346 H   0  0  0  0  0  0  0  0  0  0  0  0
  147.3162   68.1419  219.0840 H   0  0  0  0  0  0  0  0  0  0  0  0
  146.1677   70.3370  218.8139 H   0  0  0  0  0  0  0  0  0  0  0  0
  144.0372   71.6089  219.3634 H   0  0  0  0  0  0  0  0  0  0  0  0
  143.5207   71.0713  217.7221 H   0  0  0  0  0  0  0  0  0  0  0  0
  138.0574   71.0805  224.0662 H   0  0  0  0  0  0  0  0  0  0  0  0
  138.6204   70.2648  222.5673 H   0  0  0  0  0  0  0  0  0  0  0  0
  138.0755   68.6810  224.4596 H   0  0  0  0  0  0  0  0  0  0  0  0
  139.7749   68.5631  223.8545 H   0  0  0  0  0  0  0  0  0  0  0  0
  138.7152   67.6282  226.5810 H   0  0  0  0  0  0  0  0  0  0  0  0
  139.6190   67.9994  228.8741 H   0  0  0  0  0  0  0  0  0  0  0  0
  141.0047   70.0154  229.3610 H   0  0  0  0  0  0  0  0  0  0  0  0
  141.4840   71.6705  227.5604 H   0  0  0  0  0  0  0  0  0  0  0  0
  140.2777   72.5849  225.2900 H   0  0  0  0  0  0  0  0  0  0  0  0
  141.7799   71.6452  224.8650 H   0  0  0  0  0  0  0  0  0  0  0  0
  139.7191   75.5882  222.4209 H   0  0  0  0  0  0  0  0  0  0  0  0
  141.3403   76.1906  222.9310 H   0  0  0  0  0  0  0  0  0  0  0  0
  139.5298   77.3373  220.7476 H   0  0  0  0  0  0  0  0  0  0  0  0
  140.0069   78.1053  222.3131 H   0  0  0  0  0  0  0  0  0  0  0  0
  1  2  1  0
  2  3  1  0
  3  4  1  0
  4  5  1  0
  5  6  1  0
  6  7  1  0
  7  8  2  0
  8  9  1  0
  9 10  1  0
 10 11  1  0
 11 12  1  0
 12 13  1  0
 13 14  2  0
 14 15  1  0
 15 16  2  0
 16 17  1  0
 17 18  2  0
 18 19  1  0
  9 20  2  0
 20 21  1  0
 21 22  1  0
 22 23  1  0
 23 24  1  0
 24 25  1  0
 25 26  2  0
 26 27  1  0
 27 28  2  0
 28 29  1  0
 29 30  2  0
 30 31  1  0
 21 32  2  0
  6 33  1  0
 33 34  1  0
 34 35  1  0
 35  4  1  0
 32  7  1  0
 19 10  1  0
 31 22  1  0
 18 13  1  0
 30 25  1  0
  1 36  1  0
  1 37  1  0
  1 38  1  0
  2 39  1  0
  2 40  1  0
  3 41  1  0
  3 42  1  0
  4 43  1  6
  5 44  1  0
  5 45  1  0
 11 46  1  0
 11 47  1  0
 12 48  1  0
 12 49  1  0
 14 50  1  0
 15 51  1  0
 16 52  1  0
 17 53  1  0
 19 54  1  0
 19 55  1  0
 23 56  1  0
 23 57  1  0
 24 58  1  0
 24 59  1  0
 26 60  1  0
 27 61  1  0
 28 62  1  0
 29 63  1  0
 31 64  1  0
 31 65  1  0
 33 66  1  0
 33 67  1  0
 34 68  1  0
 34 69  1  0
M  CHG  1   3   1
M  END
>  <meeko>  (2) 
{"free_energy": -9.55, "intermolecular_energy": -11.04, "internal_energy": -0.88, "cluster_size": 9, "cluster_id": 2, "rank_in_cluster": 9}

$$$$

     RDKit          3D

 69 74  0  0  0  0  0  0  0  0999 V2000
  144.3700   72.6540  215.2420 C   0  0  0  0  0  0  0  0  0  0  0  0
  144.3140   73.9970  215.9690 C   0  0  0  0  0  0  0  0  0  0  0  0
  145.4310   74.1240  216.9240 N   0  0  0  0  0  0  0  0  0  0  0  0
  145.1670   73.5050  218.2400 C   0  0  1  0  0  0  0  0  0  0  0  0
  143.6850   73.6170  218.6540 C   0  0  0  0  0  0  0  0  0  0  0  0
  143.4710   72.9120  219.9220 N   0  0  0  0  0  0  0  0  0  0  0  0
  142.3690   73.2830  220.7750 C   0  0  0  0  0  0  0  0  0  0  0  0
  141.8720   74.5480  220.7440 N   0  0  0  0  0  0  0  0  0  0  0  0
  140.8130   74.8980  221.5190 C   0  0  0  0  0  0  0  0  0  0  0  0
  140.2780   76.2380  221.4670 N   0  0  0  0  0  0  0  0  0  0  0  0
  140.1690   76.9680  220.2000 C   0  0  0  0  0  0  0  0  0  0  0  0
  141.2860   78.0110  220.1320 C   0  0  0  0  0  0  0  0  0  0  0  0
  141.4350   78.7780  221.4290 C   0  0  0  0  0  0  0  0  0  0  0  0
  142.1900   79.9620  221.4350 C   0  0  0  0  0  0  0  0  0  0  0  0
  142.4000   80.6630  222.6250 C   0  0  0  0  0  0  0  0  0  0  0  0
  141.8640   80.1860  223.8220 C   0  0  0  0  0  0  0  0  0  0  0  0
  141.1230   79.0010  223.8370 C   0  0  0  0  0  0  0  0  0  0  0  0
  140.9170   78.2780  222.6500 C   0  0  0  0  0  0  0  0  0  0  0  0
  140.0670   77.0330  222.6840 C   0  0  0  0  0  0  0  0  0  0  0  0
  140.2590   73.9690  222.3430 N   0  0  0  0  0  0  0  0  0  0  0  0
  140.7530   72.7030  222.3980 C   0  0  0  0  0  0  0  0  0  0  0  0
  140.1730   71.7330  223.2970 N   0  0  0  0  0  0  0  0  0  0  0  0
  138.9350   71.0240  222.9430 C   0  0  0  0  0  0  0  0  0  0  0  0
  139.1010   69.5350  223.2280 C   0  0  0  0  0  0  0  0  0  0  0  0
  139.5730   69.3050  224.6370 C   0  0  0  0  0  0  0  0  0  0  0  0
  139.3010   68.0790  225.2650 C   0  0  0  0  0  0  0  0  0  0  0  0
  139.7680   67.8280  226.5560 C   0  0  0  0  0  0  0  0  0  0  0  0
  140.5220   68.7930  227.2260 C   0  0  0  0  0  0  0  0  0  0  0  0
  140.8140   70.0100  226.6060 C   0  0  0  0  0  0  0  0  0  0  0  0
  140.3530   70.2760  225.3060 C   0  0  0  0  0  0  0  0  0  0  0  0
  140.6940   71.6030  224.6680 C   0  0  0  0  0  0  0  0  0  0  0  0
  141.8040   72.3690  221.6040 N   0  0  0  0  0  0  0  0  0  0  0  0
  144.0990   71.5950  220.0810 C   0  0  0  0  0  0  0  0  0  0  0  0
  145.5360   71.6210  219.5490 C   0  0  0  0  0  0  0  0  0  0  0  0
  145.5820   72.1460  218.2360 O   0  0  0  0  0  0  0  0  0  0  0  0
  144.4040   71.8388  215.9798 H   0  0  0  0  0  0  0  0  0  0  0  0
  143.4758   72.5408  214.6115 H   0  0  0  0  0  0  0  0  0  0  0  0
  145.2705   72.6156  214.6115 H   0  0  0  0  0  0  0  0  0  0  0  0
  144.3772   74.8096  215.2303 H   0  0  0  0  0  0  0  0  0  0  0  0
  143.3668   74.0571  216.5251 H   0  0  0  0  0  0  0  0  0  0  0  0
  145.6550   75.1380  217.0580 H   0  0  0  0  0  0  0  0  0  0  0  0
  146.2790   73.6600  216.5220 H   0  0  0  0  0  0  0  0  0  0  0  0
  145.7527   74.0609  218.9870 H   0  0  0  0  0  0  0  0  0  0  0  0
  143.4186   74.6773  218.7757 H   0  0  0  0  0  0  0  0  0  0  0  0
  143.0541   73.1645  217.8748 H   0  0  0  0  0  0  0  0  0  0  0  0
  140.2679   76.2655  219.3593 H   0  0  0  0  0  0  0  0  0  0  0  0
  139.1899   77.4657  220.1394 H   0  0  0  0  0  0  0  0  0  0  0  0
  142.2348   77.4996  219.9124 H   0  0  0  0  0  0  0  0  0  0  0  0
  141.0262   78.7316  219.3426 H   0  0  0  0  0  0  0  0  0  0  0  0
  142.6193   80.3404  220.4956 H   0  0  0  0  0  0  0  0  0  0  0  0
  142.9886   81.5922  222.6185 H   0  0  0  0  0  0  0  0  0  0  0  0
  142.0251   80.7441  224.7561 H   0  0  0  0  0  0  0  0  0  0  0  0
  140.6990   78.6326  224.7828 H   0  0  0  0  0  0  0  0  0  0  0  0
  140.3407   76.4307  223.5628 H   0  0  0  0  0  0  0  0  0  0  0  0
  139.0079   77.3244  222.7418 H   0  0  0  0  0  0  0  0  0  0  0  0
  138.1016   71.4209  223.5412 H   0  0  0  0  0  0  0  0  0  0  0  0
  138.7221   71.1706  221.8738 H   0  0  0  0  0  0  0  0  0  0  0  0
  138.1333   69.0316  223.0862 H   0  0  0  0  0  0  0  0  0  0  0  0
  139.8526   69.1276  222.5359 H   0  0  0  0  0  0  0  0  0  0  0  0
  138.7163   67.3118  224.7363 H   0  0  0  0  0  0  0  0  0  0  0  0
  139.5418   66.8694  227.0458 H   0  0  0  0  0  0  0  0  0  0  0  0
  140.8870   68.5945  228.2445 H   0  0  0  0  0  0  0  0  0  0  0  0
  141.4093   70.7656  227.1396 H   0  0  0  0  0  0  0  0  0  0  0  0
  140.2661   72.4081  225.2834 H   0  0  0  0  0  0  0  0  0  0  0  0
  141.7906   71.6685  224.6109 H   0  0  0  0  0  0  0  0  0  0  0  0
  144.1121   71.3260  221.1475 H   0  0  0  0  0  0  0  0  0  0  0  0
  143.5208   70.8527  219.5112 H   0  0  0  0  0  0  0  0  0  0  0  0
  146.1525   72.2489  220.2091 H   0  0  0  0  0  0  0  0  0  0  0  0
  145.9201   70.5905  219.5276 H   0  0  0  0  0  0  0  0  0  0  0  0
  1  2  1  0
  2  3  1  0
  3  4  1  0
  4  5  1  0
  5  6  1  0
  6  7  1  0
  7  8  2  0
  8  9  1  0
  9 10  1  0
 10 11  1  0
 11 12  1  0
 12 13  1  0
 13 14  2  0
 14 15  1  0
 15 16  2  0
 16 17  1  0
 17 18  2  0
 18 19  1  0
  9 20  2  0
 20 21  1  0
 21 22  1  0
 22 23  1  0
 23 24  1  0
 24 25  1  0
 25 26  2  0
 26 27  1  0
 27 28  2  0
 28 29  1  0
 29 30  2  0
 30 31  1  0
 21 32  2  0
  6 33  1  0
 33 34  1  0
 34 35  1  0
 35  4  1  0
 32  7  1  0
 19 10  1  0
 31 22  1  0
 18 13  1  0
 30 25  1  0
  1 36  1  0
  1 37  1  0
  1 38  1  0
  2 39  1  0
  2 40  1  0
  3 41  1  0
  3 42  1  0
  4 43  1  1
  5 44  1  0
  5 45  1  0
 11 46  1  0
 11 47  1  0
 12 48  1  0
 12 49  1  0
 14 50  1  0
 15 51  1  0
 16 52  1  0
 17 53  1  0
 19 54  1  0
 19 55  1  0
 23 56  1  0
 23 57  1  0
 24 58  1  0
 24 59  1  0
 26 60  1  0
 27 61  1  0
 28 62  1  0
 29 63  1  0
 31 64  1  0
 31 65  1  0
 33 66  1  0
 33 67  1  0
 34 68  1  0
 34 69  1  0
M  CHG  1   3   1
M  END
>  <meeko>  (3) 
{"free_energy": -9.97, "intermolecular_energy": -11.46, "internal_energy": -0.89, "cluster_size": 11, "cluster_id": 1, "rank_in_cluster": 5}

$$$$

     RDKit          3D

 69 74  0  0  0  0  0  0  0  0999 V2000
  142.9530   77.0660  217.1400 C   0  0  0  0  0  0  0  0  0  0  0  0
  142.4500   78.3040  217.8800 C   0  0  0  0  0  0  0  0  0  0  0  0
  142.5730   78.1290  219.3400 N   0  0  0  0  0  0  0  0  0  0  0  0
  141.4960   77.3110  219.9380 C   0  0  1  0  0  0  0  0  0  0  0  0
  142.0170   75.9600  220.4740 C   0  0  0  0  0  0  0  0  0  0  0  0
  140.9230   75.2340  221.1280 N   0  0  0  0  0  0  0  0  0  0  0  0
  140.9790   73.7970  221.2390 C   0  0  0  0  0  0  0  0  0  0  0  0
  141.4750   73.0480  220.2200 N   0  0  0  0  0  0  0  0  0  0  0  0
  141.5620   71.6960  220.3270 C   0  0  0  0  0  0  0  0  0  0  0  0
  142.1080   70.9090  219.2480 N   0  0  0  0  0  0  0  0  0  0  0  0
  141.3780   69.7660  218.6920 C   0  0  0  0  0  0  0  0  0  0  0  0
  142.0130   68.4730  219.2090 C   0  0  0  0  0  0  0  0  0  0  0  0
  143.5250   68.5070  219.1340 C   0  0  0  0  0  0  0  0  0  0  0  0
  144.2390   67.3060  219.2750 C   0  0  0  0  0  0  0  0  0  0  0  0
  145.6350   67.3070  219.2710 C   0  0  0  0  0  0  0  0  0  0  0  0
  146.3340   68.5080  219.1340 C   0  0  0  0  0  0  0  0  0  0  0  0
  145.6400   69.7140  219.0080 C   0  0  0  0  0  0  0  0  0  0  0  0
  144.2360   69.7290  219.0250 C   0  0  0  0  0  0  0  0  0  0  0  0
  143.5100   71.0370  218.8310 C   0  0  0  0  0  0  0  0  0  0  0  0
  141.1320   71.0940  221.4680 N   0  0  0  0  0  0  0  0  0  0  0  0
  140.6180   71.8270  222.4920 C   0  0  0  0  0  0  0  0  0  0  0  0
  140.1400   71.1730  223.6880 N   0  0  0  0  0  0  0  0  0  0  0  0
  138.9280   70.3420  223.6590 C   0  0  0  0  0  0  0  0  0  0  0  0
  139.1930   69.0300  224.3900 C   0  0  0  0  0  0  0  0  0  0  0  0
  139.7470   69.2800  225.7650 C   0  0  0  0  0  0  0  0  0  0  0  0
  139.5770   68.3090  226.7650 C   0  0  0  0  0  0  0  0  0  0  0  0
  140.1210   68.5030  228.0360 C   0  0  0  0  0  0  0  0  0  0  0  0
  140.8510   69.6590  228.3140 C   0  0  0  0  0  0  0  0  0  0  0  0
  141.0430   70.6250  227.3230 C   0  0  0  0  0  0  0  0  0  0  0  0
  140.5030   70.4420  226.0390 C   0  0  0  0  0  0  0  0  0  0  0  0
  140.7360   71.5090  224.9930 C   0  0  0  0  0  0  0  0  0  0  0  0
  140.5530   73.1790  222.3700 N   0  0  0  0  0  0  0  0  0  0  0  0
  140.0390   75.9960  222.0170 C   0  0  0  0  0  0  0  0  0  0  0  0
  139.6790   77.3440  221.3850 C   0  0  0  0  0  0  0  0  0  0  0  0
  140.8410   78.0360  220.9680 O   0  0  0  0  0  0  0  0  0  0  0  0
  143.2629   76.3034  217.8696 H   0  0  0  0  0  0  0  0  0  0  0  0
  142.1471   76.6635  216.5087 H   0  0  0  0  0  0  0  0  0  0  0  0
  143.8113   77.3396  216.5087 H   0  0  0  0  0  0  0  0  0  0  0  0
  143.0450   79.1757  217.5701 H   0  0  0  0  0  0  0  0  0  0  0  0
  141.3892   78.4559  217.6317 H   0  0  0  0  0  0  0  0  0  0  0  0
  142.5870   79.0700  219.7990 H   0  0  0  0  0  0  0  0  0  0  0  0
  143.4830   77.6560  219.5530 H   0  0  0  0  0  0  0  0  0  0  0  0
  140.7738   77.0853  219.1395 H   0  0  0  0  0  0  0  0  0  0  0  0
  142.4059   75.3601  219.6380 H   0  0  0  0  0  0  0  0  0  0  0  0
  142.8208   76.1421  221.2025 H   0  0  0  0  0  0  0  0  0  0  0  0
  140.3250   69.8118  219.0069 H   0  0  0  0  0  0  0  0  0  0  0  0
  141.4265   69.7916  217.5934 H   0  0  0  0  0  0  0  0  0  0  0  0
  141.7138   68.3262  220.2573 H   0  0  0  0  0  0  0  0  0  0  0  0
  141.6624   67.6472  218.5725 H   0  0  0  0  0  0  0  0  0  0  0  0
  143.6942   66.3573  219.3894 H   0  0  0  0  0  0  0  0  0  0  0  0
  146.1852   66.3603  219.3759 H   0  0  0  0  0  0  0  0  0  0  0  0
  147.4340   68.5046  219.1253 H   0  0  0  0  0  0  0  0  0  0  0  0
  146.1961   70.6563  218.8949 H   0  0  0  0  0  0  0  0  0  0  0  0
  143.9984   71.8160  219.4348 H   0  0  0  0  0  0  0  0  0  0  0  0
  143.5428   71.3096  217.7658 H   0  0  0  0  0  0  0  0  0  0  0  0
  138.1044   70.8775  224.1539 H   0  0  0  0  0  0  0  0  0  0  0  0
  138.6533   70.1308  222.6150 H   0  0  0  0  0  0  0  0  0  0  0  0
  138.2497   68.4711  224.4787 H   0  0  0  0  0  0  0  0  0  0  0  0
  139.9316   68.4522  223.8150 H   0  0  0  0  0  0  0  0  0  0  0  0
  139.0123   67.3908  226.5458 H   0  0  0  0  0  0  0  0  0  0  0  0
  139.9740   67.7441  228.8186 H   0  0  0  0  0  0  0  0  0  0  0  0
  141.2769   69.8104  229.3169 H   0  0  0  0  0  0  0  0  0  0  0  0
  141.6201   71.5337  227.5493 H   0  0  0  0  0  0  0  0  0  0  0  0
  140.2938   72.4514  225.3485 H   0  0  0  0  0  0  0  0  0  0  0  0
  141.8228   71.5960  224.8468 H   0  0  0  0  0  0  0  0  0  0  0  0
  139.1181   75.4206  222.1926 H   0  0  0  0  0  0  0  0  0  0  0  0
  140.5596   76.1761  222.9691 H   0  0  0  0  0  0  0  0  0  0  0  0
  139.0313   77.1707  220.5129 H   0  0  0  0  0  0  0  0  0  0  0  0
  139.1584   77.9553  222.1369 H   0  0  0  0  0  0  0  0  0  0  0  0
  1  2  1  0
  2  3  1  0
  3  4  1  0
  4  5  1  0
  5  6  1  0
  6  7  1  0
  7  8  2  0
  8  9  1  0
  9 10  1  0
 10 11  1  0
 11 12  1  0
 12 13  1  0
 13 14  2  0
 14 15  1  0
 15 16  2  0
 16 17  1  0
 17 18  2  0
 18 19  1  0
  9 20  2  0
 20 21  1  0
 21 22  1  0
 22 23  1  0
 23 24  1  0
 24 25  1  0
 25 26  2  0
 26 27  1  0
 27 28  2  0
 28 29  1  0
 29 30  2  0
 30 31  1  0
 21 32  2  0
  6 33  1  0
 33 34  1  0
 34 35  1  0
 35  4  1  0
 32  7  1  0
 19 10  1  0
 31 22  1  0
 18 13  1  0
 30 25  1  0
  1 36  1  0
  1 37  1  0
  1 38  1  0
  2 39  1  0
  2 40  1  0
  3 41  1  0
  3 42  1  0
  4 43  1  6
  5 44  1  0
  5 45  1  0
 11 46  1  0
 11 47  1  0
 12 48  1  0
 12 49  1  0
 14 50  1  0
 15 51  1  0
 16 52  1  0
 17 53  1  0
 19 54  1  0
 19 55  1  0
 23 56  1  0
 23 57  1  0
 24 58  1  0
 24 59  1  0
 26 60  1  0
 27 61  1  0
 28 62  1  0
 29 63  1  0
 31 64  1  0
 31 65  1  0
 33 66  1  0
 33 67  1  0
 34 68  1  0
 34 69  1  0
M  CHG  1   3   1
M  END
>  <meeko>  (4) 
{"free_energy": -9.61, "intermolecular_energy": -11.1, "internal_energy": -0.88, "cluster_size": 9, "cluster_id": 2, "rank_in_cluster": 8}

$$$$

     RDKit          3D

 69 74  0  0  0  0  0  0  0  0999 V2000
  145.5660   67.6700  219.3970 C   0  0  0  0  0  0  0  0  0  0  0  0
  145.9260   68.9560  218.6530 C   0  0  0  0  0  0  0  0  0  0  0  0
  144.7280   69.5610  218.0400 N   0  0  0  0  0  0  0  0  0  0  0  0
  144.5070   70.9720  218.4220 C   0  0  1  0  0  0  0  0  0  0  0  0
  143.6480   71.1050  219.6980 C   0  0  0  0  0  0  0  0  0  0  0  0
  143.5360   72.5190  220.0720 N   0  0  0  0  0  0  0  0  0  0  0  0
  142.4160   72.9680  220.8620 C   0  0  0  0  0  0  0  0  0  0  0  0
  141.9270   74.2260  220.7070 N   0  0  0  0  0  0  0  0  0  0  0  0
  140.8520   74.6480  221.4230 C   0  0  0  0  0  0  0  0  0  0  0  0
  140.3270   75.9800  221.2400 N   0  0  0  0  0  0  0  0  0  0  0  0
  140.4230   76.6670  219.9490 C   0  0  0  0  0  0  0  0  0  0  0  0
  141.5300   77.7200  220.0290 C   0  0  0  0  0  0  0  0  0  0  0  0
  141.4620   78.5290  221.3070 C   0  0  0  0  0  0  0  0  0  0  0  0
  142.1990   79.7210  221.3960 C   0  0  0  0  0  0  0  0  0  0  0  0
  142.2080   80.4610  222.5800 C   0  0  0  0  0  0  0  0  0  0  0  0
  141.4860   80.0170  223.6900 C   0  0  0  0  0  0  0  0  0  0  0  0
  140.7590   78.8250  223.6230 C   0  0  0  0  0  0  0  0  0  0  0  0
  140.7530   78.0630  222.4430 C   0  0  0  0  0  0  0  0  0  0  0  0
  139.9150   76.8110  222.3790 C   0  0  0  0  0  0  0  0  0  0  0  0
  140.2740   73.7970  222.3120 N   0  0  0  0  0  0  0  0  0  0  0  0
  140.7600   72.5390  222.4910 C   0  0  0  0  0  0  0  0  0  0  0  0
  140.1530   71.6540  223.4580 N   0  0  0  0  0  0  0  0  0  0  0  0
  138.8910   70.9620  223.1580 C   0  0  0  0  0  0  0  0  0  0  0  0
  139.0110   69.4930  223.5480 C   0  0  0  0  0  0  0  0  0  0  0  0
  139.4830   69.3480  224.9680 C   0  0  0  0  0  0  0  0  0  0  0  0
  139.1740   68.1790  225.6820 C   0  0  0  0  0  0  0  0  0  0  0  0
  139.6390   68.0060  226.9870 C   0  0  0  0  0  0  0  0  0  0  0  0
  140.4260   68.9910  227.5850 C   0  0  0  0  0  0  0  0  0  0  0  0
  140.7550   70.1510  226.8790 C   0  0  0  0  0  0  0  0  0  0  0  0
  140.2960   70.3380  225.5650 C   0  0  0  0  0  0  0  0  0  0  0  0
  140.6770   71.6060  224.8330 C   0  0  0  0  0  0  0  0  0  0  0  0
  141.8270   72.1320  221.7540 N   0  0  0  0  0  0  0  0  0  0  0  0
  144.7550   73.3350  220.0120 C   0  0  0  0  0  0  0  0  0  0  0  0
  145.5410   73.0290  218.7330 C   0  0  0  0  0  0  0  0  0  0  0  0
  145.7510   71.6370  218.5870 O   0  0  0  0  0  0  0  0  0  0  0  0
  145.6157   67.8476  220.4814 H   0  0  0  0  0  0  0  0  0  0  0  0
  144.5467   67.3606  219.1225 H   0  0  0  0  0  0  0  0  0  0  0  0
  146.2765   66.8764  219.1225 H   0  0  0  0  0  0  0  0  0  0  0  0
  146.3680   69.6711  219.3624 H   0  0  0  0  0  0  0  0  0  0  0  0
  146.6443   68.7125  217.8563 H   0  0  0  0  0  0  0  0  0  0  0  0
  143.8860   68.9960  218.3010 H   0  0  0  0  0  0  0  0  0  0  0  0
  144.8240   69.5290  216.9970 H   0  0  0  0  0  0  0  0  0  0  0  0
  143.9468   71.4498  217.6047 H   0  0  0  0  0  0  0  0  0  0  0  0
  142.6446   70.6963  219.5078 H   0  0  0  0  0  0  0  0  0  0  0  0
  144.1240   70.5474  220.5180 H   0  0  0  0  0  0  0  0  0  0  0  0
  140.6624   75.9388  219.1601 H   0  0  0  0  0  0  0  0  0  0  0  0
  139.4642   77.1515  219.7125 H   0  0  0  0  0  0  0  0  0  0  0  0
  142.5049   77.2126  219.9829 H   0  0  0  0  0  0  0  0  0  0  0  0
  141.3974   78.4126  219.1848 H   0  0  0  0  0  0  0  0  0  0  0  0
  142.7733   80.0742  220.5268 H   0  0  0  0  0  0  0  0  0  0  0  0
  142.7850   81.3957  222.6386 H   0  0  0  0  0  0  0  0  0  0  0  0
  141.4894   80.6064  224.6187 H   0  0  0  0  0  0  0  0  0  0  0  0
  140.1887   78.4819  224.4988 H   0  0  0  0  0  0  0  0  0  0  0  0
  140.0439   76.2400  223.3103 H   0  0  0  0  0  0  0  0  0  0  0  0
  138.8592   77.0929  222.2531 H   0  0  0  0  0  0  0  0  0  0  0  0
  138.0734   71.4271  223.7283 H   0  0  0  0  0  0  0  0  0  0  0  0
  138.6778   71.0391  222.0816 H   0  0  0  0  0  0  0  0  0  0  0  0
  138.0269   69.0123  223.4454 H   0  0  0  0  0  0  0  0  0  0  0  0
  139.7458   69.0137  222.8844 H   0  0  0  0  0  0  0  0  0  0  0  0
  138.5624   67.3955  225.2107 H   0  0  0  0  0  0  0  0  0  0  0  0
  139.3848   67.0923  227.5443 H   0  0  0  0  0  0  0  0  0  0  0  0
  140.7882   68.8539  228.6146 H   0  0  0  0  0  0  0  0  0  0  0  0
  141.3775   70.9227  227.3554 H   0  0  0  0  0  0  0  0  0  0  0  0
  140.2784   72.4663  225.3906 H   0  0  0  0  0  0  0  0  0  0  0  0
  141.7748   71.6325  224.7687 H   0  0  0  0  0  0  0  0  0  0  0  0
  144.4791   74.3998  220.0217 H   0  0  0  0  0  0  0  0  0  0  0  0
  145.3849   73.0995  220.8825 H   0  0  0  0  0  0  0  0  0  0  0  0
  144.9753   73.4003  217.8657 H   0  0  0  0  0  0  0  0  0  0  0  0
  146.5202   73.5262  218.7962 H   0  0  0  0  0  0  0  0  0  0  0  0
  1  2  1  0
  2  3  1  0
  3  4  1  0
  4  5  1  0
  5  6  1  0
  6  7  1  0
  7  8  2  0
  8  9  1  0
  9 10  1  0
 10 11  1  0
 11 12  1  0
 12 13  1  0
 13 14  2  0
 14 15  1  0
 15 16  2  0
 16 17  1  0
 17 18  2  0
 18 19  1  0
  9 20  2  0
 20 21  1  0
 21 22  1  0
 22 23  1  0
 23 24  1  0
 24 25  1  0
 25 26  2  0
 26 27  1  0
 27 28  2  0
 28 29  1  0
 29 30  2  0
 30 31  1  0
 21 32  2  0
  6 33  1  0
 33 34  1  0
 34 35  1  0
 35  4  1  0
 32  7  1  0
 19 10  1  0
 31 22  1  0
 18 13  1  0
 30 25  1  0
  1 36  1  0
  1 37  1  0
  1 38  1  0
  2 39  1  0
  2 40  1  0
  3 41  1  0
  3 42  1  0
  4 43  1  6
  5 44  1  0
  5 45  1  0
 11 46  1  0
 11 47  1  0
 12 48  1  0
 12 49  1  0
 14 50  1  0
 15 51  1  0
 16 52  1  0
 17 53  1  0
 19 54  1  0
 19 55  1  0
 23 56  1  0
 23 57  1  0
 24 58  1  0
 24 59  1  0
 26 60  1  0
 27 61  1  0
 28 62  1  0
 29 63  1  0
 31 64  1  0
 31 65  1  0
 33 66  1  0
 33 67  1  0
 34 68  1  0
 34 69  1  0
M  CHG  1   3   1
M  END
>  <meeko>  (5) 
{"free_energy": -9.96, "intermolecular_energy": -11.45, "internal_energy": -0.84, "cluster_size": 11, "cluster_id": 1, "rank_in_cluster": 6}

$$$$

     RDKit          3D

 69 74  0  0  0  0  0  0  0  0999 V2000
  142.1920   80.8120  222.2930 C   0  0  0  0  0  0  0  0  0  0  0  0
  141.8730   79.3460  222.5830 C   0  0  0  0  0  0  0  0  0  0  0  0
  142.1760   78.5010  221.4120 N   0  0  0  0  0  0  0  0  0  0  0  0
  141.1250   77.5080  221.1030 C   0  0  1  0  0  0  0  0  0  0  0  0
  141.3830   76.1500  221.7890 C   0  0  0  0  0  0  0  0  0  0  0  0
  140.2680   75.2380  221.5140 N   0  0  0  0  0  0  0  0  0  0  0  0
  140.4740   73.8120  221.5710 C   0  0  0  0  0  0  0  0  0  0  0  0
  141.0180   73.1540  220.5140 N   0  0  0  0  0  0  0  0  0  0  0  0
  141.2470   71.8160  220.5700 C   0  0  0  0  0  0  0  0  0  0  0  0
  141.8430   71.1270  219.4500 N   0  0  0  0  0  0  0  0  0  0  0  0
  141.2400   69.9120  218.8930 C   0  0  0  0  0  0  0  0  0  0  0  0
  142.0530   68.7000  219.3520 C   0  0  0  0  0  0  0  0  0  0  0  0
  143.5450   68.9260  219.2210 C   0  0  0  0  0  0  0  0  0  0  0  0
  144.4080   67.8220  219.3030 C   0  0  0  0  0  0  0  0  0  0  0  0
  145.7930   68.0000  219.2470 C   0  0  0  0  0  0  0  0  0  0  0  0
  146.3290   69.2820  219.1160 C   0  0  0  0  0  0  0  0  0  0  0  0
  145.4840   70.3930  219.0470 C   0  0  0  0  0  0  0  0  0  0  0  0
  144.0910   70.2300  219.1170 C   0  0  0  0  0  0  0  0  0  0  0  0
  143.2000   71.4400  218.9840 C   0  0  0  0  0  0  0  0  0  0  0  0
  140.9100   71.1330  221.6970 N   0  0  0  0  0  0  0  0  0  0  0  0
  140.3500   71.7730  222.7580 C   0  0  0  0  0  0  0  0  0  0  0  0
  139.9720   71.0320  223.9390 N   0  0  0  0  0  0  0  0  0  0  0  0
  138.8170   70.1240  223.9220 C   0  0  0  0  0  0  0  0  0  0  0  0
  139.2000   68.7990  224.5720 C   0  0  0  0  0  0  0  0  0  0  0  0
  139.8010   69.0200  225.9320 C   0  0  0  0  0  0  0  0  0  0  0  0
  139.7410   67.9940  226.8880 C   0  0  0  0  0  0  0  0  0  0  0  0
  140.3310   68.1620  228.1420 C   0  0  0  0  0  0  0  0  0  0  0  0
  140.9980   69.3500  228.4470 C   0  0  0  0  0  0  0  0  0  0  0  0
  141.0790   70.3720  227.4980 C   0  0  0  0  0  0  0  0  0  0  0  0
  140.4920   70.2160  226.2320 C   0  0  0  0  0  0  0  0  0  0  0  0
  140.6060   71.3440  225.2320 C   0  0  0  0  0  0  0  0  0  0  0  0
  140.1430   73.1140  222.6870 N   0  0  0  0  0  0  0  0  0  0  0  0
  138.9080   75.7790  221.6200 C   0  0  0  0  0  0  0  0  0  0  0  0
  138.8310   77.1640  220.9680 C   0  0  0  0  0  0  0  0  0  0  0  0
  139.8480   78.0150  221.4640 O   0  0  0  0  0  0  0  0  0  0  0  0
  142.3104   81.3561  223.2417 H   0  0  0  0  0  0  0  0  0  0  0  0
  143.1252   80.8766  221.7143 H   0  0  0  0  0  0  0  0  0  0  0  0
  141.3700   81.2586  221.7143 H   0  0  0  0  0  0  0  0  0  0  0  0
  142.4775   79.0078  223.4375 H   0  0  0  0  0  0  0  0  0  0  0  0
  140.8009   79.2578  222.8128 H   0  0  0  0  0  0  0  0  0  0  0  0
  143.0840   78.0060  221.5700 H   0  0  0  0  0  0  0  0  0  0  0  0
  142.2880   79.1130  220.5690 H   0  0  0  0  0  0  0  0  0  0  0  0
  141.1500   77.3305  220.0177 H   0  0  0  0  0  0  0  0  0  0  0  0
  142.3156   75.7152  221.4001 H   0  0  0  0  0  0  0  0  0  0  0  0
  141.4708   76.3012  222.8750 H   0  0  0  0  0  0  0  0  0  0  0  0
  140.2035   69.8176  219.2490 H   0  0  0  0  0  0  0  0  0  0  0  0
  141.2396   69.9661  217.7943 H   0  0  0  0  0  0  0  0  0  0  0  0
  141.8175   68.4949  220.4067 H   0  0  0  0  0  0  0  0  0  0  0  0
  141.7834   67.8502  218.7077 H   0  0  0  0  0  0  0  0  0  0  0  0
  143.9913   66.8098  219.4121 H   0  0  0  0  0  0  0  0  0  0  0  0
  146.4616   67.1285  219.3062 H   0  0  0  0  0  0  0  0  0  0  0  0
  147.4194   69.4183  219.0669 H   0  0  0  0  0  0  0  0  0  0  0  0
  145.9123   71.4003  218.9373 H   0  0  0  0  0  0  0  0  0  0  0  0
  143.6110   72.2616  219.5890 H   0  0  0  0  0  0  0  0  0  0  0  0
  143.1554   71.7371  217.9258 H   0  0  0  0  0  0  0  0  0  0  0  0
  137.9852   70.5788  224.4800 H   0  0  0  0  0  0  0  0  0  0  0  0
  138.5075   69.9452  222.8817 H   0  0  0  0  0  0  0  0  0  0  0  0
  138.3000   68.1747  224.6736 H   0  0  0  0  0  0  0  0  0  0  0  0
  139.9458   68.2994  223.9363 H   0  0  0  0  0  0  0  0  0  0  0  0
  139.2261   67.0521  226.6477 H   0  0  0  0  0  0  0  0  0  0  0  0
  140.2703   67.3579  228.8902 H   0  0  0  0  0  0  0  0  0  0  0  0
  141.4606   69.4815  229.4363 H   0  0  0  0  0  0  0  0  0  0  0  0
  141.6063   71.3054  227.7443 H   0  0  0  0  0  0  0  0  0  0  0  0
  140.1215   72.2369  225.6538 H   0  0  0  0  0  0  0  0  0  0  0  0
  141.6769   71.5094  225.0425 H   0  0  0  0  0  0  0  0  0  0  0  0
  138.2073   75.1000  221.1121 H   0  0  0  0  0  0  0  0  0  0  0  0
  138.6425   75.8703  222.6835 H   0  0  0  0  0  0  0  0  0  0  0  0
  138.9507   77.0566  219.8798 H   0  0  0  0  0  0  0  0  0  0  0  0
  137.8539   77.6097  221.2058 H   0  0  0  0  0  0  0  0  0  0  0  0
  1  2  1  0
  2  3  1  0
  3  4  1  0
  4  5  1  0
  5  6  1  0
  6  7  1  0
  7  8  2  0
  8  9  1  0
  9 10  1  0
 10 11  1  0
 11 12  1  0
 12 13  1  0
 13 14  2  0
 14 15  1  0
 15 16  2  0
 16 17  1  0
 17 18  2  0
 18 19  1  0
  9 20  2  0
 20 21  1  0
 21 22  1  0
 22 23  1  0
 23 24  1  0
 24 25  1  0
 25 26  2  0
 26 27  1  0
 27 28  2  0
 28 29  1  0
 29 30  2  0
 30 31  1  0
 21 32  2  0
  6 33  1  0
 33 34  1  0
 34 35  1  0
 35  4  1  0
 32  7  1  0
 19 10  1  0
 31 22  1  0
 18 13  1  0
 30 25  1  0
  1 36  1  0
  1 37  1  0
  1 38  1  0
  2 39  1  0
  2 40  1  0
  3 41  1  0
  3 42  1  0
  4 43  1  6
  5 44  1  0
  5 45  1  0
 11 46  1  0
 11 47  1  0
 12 48  1  0
 12 49  1  0
 14 50  1  0
 15 51  1  0
 16 52  1  0
 17 53  1  0
 19 54  1  0
 19 55  1  0
 23 56  1  0
 23 57  1  0
 24 58  1  0
 24 59  1  0
 26 60  1  0
 27 61  1  0
 28 62  1  0
 29 63  1  0
 31 64  1  0
 31 65  1  0
 33 66  1  0
 33 67  1  0
 34 68  1  0
 34 69  1  0
M  CHG  1   3   1
M  END
>  <meeko>  (6) 
{"free_energy": -9.71, "intermolecular_energy": -11.2, "internal_energy": -0.85, "cluster_size": 9, "cluster_id": 2, "rank_in_cluster": 7}

$$$$

     RDKit          3D

 69 74  0  0  0  0  0  0  0  0999 V2000
  145.8010   67.5600  218.9610 C   0  0  0  0  0  0  0  0  0  0  0  0
  145.9140   69.0840  218.9750 C   0  0  0  0  0  0  0  0  0  0  0  0
  144.8820   69.6950  218.1160 N   0  0  0  0  0  0  0  0  0  0  0  0
  144.5810   71.1030  218.4520 C   0  0  1  0  0  0  0  0  0  0  0  0
  143.7400   71.2310  219.7400 C   0  0  0  0  0  0  0  0  0  0  0  0
  143.5480   72.6480  220.0650 N   0  0  0  0  0  0  0  0  0  0  0  0
  142.4170   73.0560  220.8630 C   0  0  0  0  0  0  0  0  0  0  0  0
  141.9200   74.3160  220.7560 N   0  0  0  0  0  0  0  0  0  0  0  0
  140.8360   74.7010  221.4780 C   0  0  0  0  0  0  0  0  0  0  0  0
  140.3020   76.0350  221.3450 N   0  0  0  0  0  0  0  0  0  0  0  0
  140.3060   76.7340  220.0570 C   0  0  0  0  0  0  0  0  0  0  0  0
  141.4190   77.7830  220.0640 C   0  0  0  0  0  0  0  0  0  0  0  0
  141.4460   78.5810  221.3510 C   0  0  0  0  0  0  0  0  0  0  0  0
  142.1910   79.7710  221.3970 C   0  0  0  0  0  0  0  0  0  0  0  0
  142.2880   80.5010  222.5840 C   0  0  0  0  0  0  0  0  0  0  0  0
  141.6480   80.0480  223.7390 C   0  0  0  0  0  0  0  0  0  0  0  0
  140.9140   78.8590  223.7140 C   0  0  0  0  0  0  0  0  0  0  0  0
  140.8210   78.1070  222.5320 C   0  0  0  0  0  0  0  0  0  0  0  0
  139.9770   76.8570  222.5180 C   0  0  0  0  0  0  0  0  0  0  0  0
  140.2560   73.8100  222.3260 N   0  0  0  0  0  0  0  0  0  0  0  0
  140.7490   72.5490  222.4570 C   0  0  0  0  0  0  0  0  0  0  0  0
  140.1410   71.6210  223.3810 N   0  0  0  0  0  0  0  0  0  0  0  0
  138.9250   70.8800  223.0150 C   0  0  0  0  0  0  0  0  0  0  0  0
  139.0920   69.4110  223.3850 C   0  0  0  0  0  0  0  0  0  0  0  0
  139.5070   69.2600  224.8220 C   0  0  0  0  0  0  0  0  0  0  0  0
  139.2200   68.0660  225.5020 C   0  0  0  0  0  0  0  0  0  0  0  0
  139.6340   67.8880  226.8230 C   0  0  0  0  0  0  0  0  0  0  0  0
  140.3510   68.8950  227.4720 C   0  0  0  0  0  0  0  0  0  0  0  0
  140.6580   70.0820  226.8010 C   0  0  0  0  0  0  0  0  0  0  0  0
  140.2500   70.2730  225.4700 C   0  0  0  0  0  0  0  0  0  0  0  0
  140.6050   71.5690  224.7780 C   0  0  0  0  0  0  0  0  0  0  0  0
  141.8260   72.1810  221.7150 N   0  0  0  0  0  0  0  0  0  0  0  0
  144.7110   73.5350  219.9500 C   0  0  0  0  0  0  0  0  0  0  0  0
  145.4900   73.2310  218.6660 C   0  0  0  0  0  0  0  0  0  0  0  0
  145.7840   71.8500  218.5650 O   0  0  0  0  0  0  0  0  0  0  0  0
  145.7732   67.1849  219.9947 H   0  0  0  0  0  0  0  0  0  0  0  0
  144.8785   67.2655  218.4391 H   0  0  0  0  0  0  0  0  0  0  0  0
  146.6699   67.1327  218.4391 H   0  0  0  0  0  0  0  0  0  0  0  0
  145.7851   69.4455  220.0059 H   0  0  0  0  0  0  0  0  0  0  0  0
  146.9049   69.3671  218.5904 H   0  0  0  0  0  0  0  0  0  0  0  0
  144.0030   69.1290  218.1780 H   0  0  0  0  0  0  0  0  0  0  0  0
  145.2080   69.6720  217.1210 H   0  0  0  0  0  0  0  0  0  0  0  0
  143.9761   71.5140  217.6304 H   0  0  0  0  0  0  0  0  0  0  0  0
  142.7604   70.7550  219.5861 H   0  0  0  0  0  0  0  0  0  0  0  0
  144.2652   70.7345  220.5693 H   0  0  0  0  0  0  0  0  0  0  0  0
  140.4843   76.0124  219.2462 H   0  0  0  0  0  0  0  0  0  0  0  0
  139.3342   77.2239  219.8967 H   0  0  0  0  0  0  0  0  0  0  0  0
  142.3864   77.2737  219.9428 H   0  0  0  0  0  0  0  0  0  0  0  0
  141.2282   78.4828  219.2370 H   0  0  0  0  0  0  0  0  0  0  0  0
  142.7018   80.1307  220.4916 H   0  0  0  0  0  0  0  0  0  0  0  0
  142.8696   81.4343  222.6087 H   0  0  0  0  0  0  0  0  0  0  0  0
  141.7216   80.6281  224.6707 H   0  0  0  0  0  0  0  0  0  0  0  0
  140.4063   78.5104  224.6254 H   0  0  0  0  0  0  0  0  0  0  0  0
  140.1719   76.2774  223.4324 H   0  0  0  0  0  0  0  0  0  0  0  0
  138.9157   77.1426  222.4716 H   0  0  0  0  0  0  0  0  0  0  0  0
  138.0640   71.2986  223.5567 H   0  0  0  0  0  0  0  0  0  0  0  0
  138.7556   70.9674  221.9316 H   0  0  0  0  0  0  0  0  0  0  0  0
  138.1354   68.8904  223.2304 H   0  0  0  0  0  0  0  0  0  0  0  0
  139.8755   68.9763  222.7469 H   0  0  0  0  0  0  0  0  0  0  0  0
  138.6653   67.2656  224.9905 H   0  0  0  0  0  0  0  0  0  0  0  0
  139.3953   66.9541  227.3529 H   0  0  0  0  0  0  0  0  0  0  0  0
  140.6750   68.7539  228.5137 H   0  0  0  0  0  0  0  0  0  0  0  0
  141.2227   70.8718  227.3182 H   0  0  0  0  0  0  0  0  0  0  0  0
  140.1437   72.3999  225.3318 H   0  0  0  0  0  0  0  0  0  0  0  0
  141.7023   71.6446  224.7634 H   0  0  0  0  0  0  0  0  0  0  0  0
  144.3688   74.5802  219.9274 H   0  0  0  0  0  0  0  0  0  0  0  0
  145.3710   73.3718  220.8148 H   0  0  0  0  0  0  0  0  0  0  0  0
  144.8856   73.5343  217.7984 H   0  0  0  0  0  0  0  0  0  0  0  0
  146.4372   73.7897  218.6906 H   0  0  0  0  0  0  0  0  0  0  0  0
  1  2  1  0
  2  3  1  0
  3  4  1  0
  4  5  1  0
  5  6  1  0
  6  7  1  0
  7  8  2  0
  8  9  1  0
  9 10  1  0
 10 11  1  0
 11 12  1  0
 12 13  1  0
 13 14  2  0
 14 15  1  0
 15 16  2  0
 16 17  1  0
 17 18  2  0
 18 19  1  0
  9 20  2  0
 20 21  1  0
 21 22  1  0
 22 23  1  0
 23 24  1  0
 24 25  1  0
 25 26  2  0
 26 27  1  0
 27 28  2  0
 28 29  1  0
 29 30  2  0
 30 31  1  0
 21 32  2  0
  6 33  1  0
 33 34  1  0
 34 35  1  0
 35  4  1  0
 32  7  1  0
 19 10  1  0
 31 22  1  0
 18 13  1  0
 30 25  1  0
  1 36  1  0
  1 37  1  0
  1 38  1  0
  2 39  1  0
  2 40  1  0
  3 41  1  0
  3 42  1  0
  4 43  1  6
  5 44  1  0
  5 45  1  0
 11 46  1  0
 11 47  1  0
 12 48  1  0
 12 49  1  0
 14 50  1  0
 15 51  1  0
 16 52  1  0
 17 53  1  0
 19 54  1  0
 19 55  1  0
 23 56  1  0
 23 57  1  0
 24 58  1  0
 24 59  1  0
 26 60  1  0
 27 61  1  0
 28 62  1  0
 29 63  1  0
 31 64  1  0
 31 65  1  0
 33 66  1  0
 33 67  1  0
 34 68  1  0
 34 69  1  0
M  CHG  1   3   1
M  END
>  <meeko>  (7) 
{"free_energy": -9.99, "intermolecular_energy": -11.48, "internal_energy": -0.84, "cluster_size": 11, "cluster_id": 1, "rank_in_cluster": 4}

$$$$

     RDKit          3D

 69 74  0  0  0  0  0  0  0  0999 V2000
  142.5200   80.0330  223.1180 C   0  0  0  0  0  0  0  0  0  0  0  0
  141.7270   79.7480  221.8440 C   0  0  0  0  0  0  0  0  0  0  0  0
  142.1780   78.4930  221.2130 N   0  0  0  0  0  0  0  0  0  0  0  0
  141.1000   77.5000  221.0180 C   0  0  1  0  0  0  0  0  0  0  0  0
  141.4170   76.1500  221.6940 C   0  0  0  0  0  0  0  0  0  0  0  0
  140.2780   75.2390  221.5380 N   0  0  0  0  0  0  0  0  0  0  0  0
  140.4840   73.8130  221.5940 C   0  0  0  0  0  0  0  0  0  0  0  0
  141.0340   73.1560  220.5390 N   0  0  0  0  0  0  0  0  0  0  0  0
  141.2630   71.8180  220.5940 C   0  0  0  0  0  0  0  0  0  0  0  0
  141.8650   71.1310  219.4760 N   0  0  0  0  0  0  0  0  0  0  0  0
  141.2590   69.9240  218.9070 C   0  0  0  0  0  0  0  0  0  0  0  0
  142.0590   68.7040  219.3680 C   0  0  0  0  0  0  0  0  0  0  0  0
  143.5540   68.9200  219.2520 C   0  0  0  0  0  0  0  0  0  0  0  0
  144.4090   67.8100  219.3360 C   0  0  0  0  0  0  0  0  0  0  0  0
  145.7950   67.9790  219.2940 C   0  0  0  0  0  0  0  0  0  0  0  0
  146.3410   69.2580  219.1750 C   0  0  0  0  0  0  0  0  0  0  0  0
  145.5050   70.3750  219.1040 C   0  0  0  0  0  0  0  0  0  0  0  0
  144.1100   70.2210  219.1600 C   0  0  0  0  0  0  0  0  0  0  0  0
  143.2280   71.4370  219.0250 C   0  0  0  0  0  0  0  0  0  0  0  0
  140.9200   71.1340  221.7180 N   0  0  0  0  0  0  0  0  0  0  0  0
  140.3550   71.7720  222.7780 C   0  0  0  0  0  0  0  0  0  0  0  0
  139.9710   71.0300  223.9560 N   0  0  0  0  0  0  0  0  0  0  0  0
  138.8140   70.1240  223.9320 C   0  0  0  0  0  0  0  0  0  0  0  0
  139.1930   68.7970  224.5810 C   0  0  0  0  0  0  0  0  0  0  0  0
  139.7890   69.0150  225.9440 C   0  0  0  0  0  0  0  0  0  0  0  0
  139.7240   67.9860  226.8980 C   0  0  0  0  0  0  0  0  0  0  0  0
  140.3100   68.1510  228.1550 C   0  0  0  0  0  0  0  0  0  0  0  0
  140.9770   69.3370  228.4640 C   0  0  0  0  0  0  0  0  0  0  0  0
  141.0630   70.3620  227.5180 C   0  0  0  0  0  0  0  0  0  0  0  0
  140.4810   70.2090  226.2490 C   0  0  0  0  0  0  0  0  0  0  0  0
  140.6000   71.3390  225.2510 C   0  0  0  0  0  0  0  0  0  0  0  0
  140.1480   73.1140  222.7080 N   0  0  0  0  0  0  0  0  0  0  0  0
  138.9360   75.7870  221.7640 C   0  0  0  0  0  0  0  0  0  0  0  0
  138.8030   77.1640  221.1040 C   0  0  0  0  0  0  0  0  0  0  0  0
  139.8640   78.0170  221.4910 O   0  0  0  0  0  0  0  0  0  0  0  0
  141.8963   79.8089  223.9959 H   0  0  0  0  0  0  0  0  0  0  0  0
  143.4211   79.4025  223.1378 H   0  0  0  0  0  0  0  0  0  0  0  0
  142.8136   81.0929  223.1378 H   0  0  0  0  0  0  0  0  0  0  0  0
  140.6598   79.6612  222.0959 H   0  0  0  0  0  0  0  0  0  0  0  0
  141.8888   80.5749  221.1369 H   0  0  0  0  0  0  0  0  0  0  0  0
  142.9370   78.0690  221.7960 H   0  0  0  0  0  0  0  0  0  0  0  0
  142.5810   78.7090  220.2710 H   0  0  0  0  0  0  0  0  0  0  0  0
  141.0227   77.3081  219.9376 H   0  0  0  0  0  0  0  0  0  0  0  0
  142.3072   75.7061  221.2243 H   0  0  0  0  0  0  0  0  0  0  0  0
  141.6074   76.3148  222.7648 H   0  0  0  0  0  0  0  0  0  0  0  0
  140.2184   69.8353  219.2522 H   0  0  0  0  0  0  0  0  0  0  0  0
  141.2696   69.9836  217.8087 H   0  0  0  0  0  0  0  0  0  0  0  0
  141.8121   68.4957  220.4195 H   0  0  0  0  0  0  0  0  0  0  0  0
  141.7894   67.8591  218.7173 H   0  0  0  0  0  0  0  0  0  0  0  0
  143.9847   66.8000  219.4356 H   0  0  0  0  0  0  0  0  0  0  0  0
  146.4571   67.1027  219.3548 H   0  0  0  0  0  0  0  0  0  0  0  0
  147.4328   69.3868  219.1370 H   0  0  0  0  0  0  0  0  0  0  0  0
  145.9413   71.3798  219.0038 H   0  0  0  0  0  0  0  0  0  0  0  0
  143.6385   72.2528  219.6382 H   0  0  0  0  0  0  0  0  0  0  0  0
  143.1954   71.7395  217.9679 H   0  0  0  0  0  0  0  0  0  0  0  0
  137.9807   70.5789  224.4875 H   0  0  0  0  0  0  0  0  0  0  0  0
  138.5079   69.9481  222.8902 H   0  0  0  0  0  0  0  0  0  0  0  0
  138.2919   68.1735  224.6779 H   0  0  0  0  0  0  0  0  0  0  0  0
  139.9406   68.2976  223.9472 H   0  0  0  0  0  0  0  0  0  0  0  0
  139.2088   67.0453  226.6538 H   0  0  0  0  0  0  0  0  0  0  0  0
  140.2457   67.3458  228.9016 H   0  0  0  0  0  0  0  0  0  0  0  0
  141.4365   69.4655  229.4551 H   0  0  0  0  0  0  0  0  0  0  0  0
  141.5898   71.2945  227.7689 H   0  0  0  0  0  0  0  0  0  0  0  0
  140.1148   72.2317  225.6725 H   0  0  0  0  0  0  0  0  0  0  0  0
  141.6717   71.5037  225.0659 H   0  0  0  0  0  0  0  0  0  0  0  0
  138.1886   75.1047  221.3329 H   0  0  0  0  0  0  0  0  0  0  0  0
  138.7714   75.8928  222.8465 H   0  0  0  0  0  0  0  0  0  0  0  0
  138.8200   77.0420  220.0109 H   0  0  0  0  0  0  0  0  0  0  0  0
  137.8539   77.6169  221.4267 H   0  0  0  0  0  0  0  0  0  0  0  0
  1  2  1  0
  2  3  1  0
  3  4  1  0
  4  5  1  0
  5  6  1  0
  6  7  1  0
  7  8  2  0
  8  9  1  0
  9 10  1  0
 10 11  1  0
 11 12  1  0
 12 13  1  0
 13 14  2  0
 14 15  1  0
 15 16  2  0
 16 17  1  0
 17 18  2  0
 18 19  1  0
  9 20  2  0
 20 21  1  0
 21 22  1  0
 22 23  1  0
 23 24  1  0
 24 25  1  0
 25 26  2  0
 26 27  1  0
 27 28  2  0
 28 29  1  0
 29 30  2  0
 30 31  1  0
 21 32  2  0
  6 33  1  0
 33 34  1  0
 34 35  1  0
 35  4  1  0
 32  7  1  0
 19 10  1  0
 31 22  1  0
 18 13  1  0
 30 25  1  0
  1 36  1  0
  1 37  1  0
  1 38  1  0
  2 39  1  0
  2 40  1  0
  3 41  1  0
  3 42  1  0
  4 43  1  6
  5 44  1  0
  5 45  1  0
 11 46  1  0
 11 47  1  0
 12 48  1  0
 12 49  1  0
 14 50  1  0
 15 51  1  0
 16 52  1  0
 17 53  1  0
 19 54  1  0
 19 55  1  0
 23 56  1  0
 23 57  1  0
 24 58  1  0
 24 59  1  0
 26 60  1  0
 27 61  1  0
 28 62  1  0
 29 63  1  0
 31 64  1  0
 31 65  1  0
 33 66  1  0
 33 67  1  0
 34 68  1  0
 34 69  1  0
M  CHG  1   3   1
M  END
>  <meeko>  (8) 
{"free_energy": -9.95, "intermolecular_energy": -11.44, "internal_energy": -0.85, "cluster_size": 9, "cluster_id": 2, "rank_in_cluster": 2}

$$$$

     RDKit          3D

 69 74  0  0  0  0  0  0  0  0999 V2000
  142.5730   80.0580  223.0790 C   0  0  0  0  0  0  0  0  0  0  0  0
  141.7270   79.7410  221.8460 C   0  0  0  0  0  0  0  0  0  0  0  0
  142.1840   78.4940  221.2020 N   0  0  0  0  0  0  0  0  0  0  0  0
  141.1110   77.4980  220.9980 C   0  0  1  0  0  0  0  0  0  0  0  0
  141.4260   76.1510  221.6820 C   0  0  0  0  0  0  0  0  0  0  0  0
  140.2920   75.2360  221.5160 N   0  0  0  0  0  0  0  0  0  0  0  0
  140.5020   73.8100  221.5770 C   0  0  0  0  0  0  0  0  0  0  0  0
  141.0600   73.1520  220.5280 N   0  0  0  0  0  0  0  0  0  0  0  0
  141.2920   71.8150  220.5880 C   0  0  0  0  0  0  0  0  0  0  0  0
  141.9030   71.1260  219.4760 N   0  0  0  0  0  0  0  0  0  0  0  0
  141.2690   69.9560  218.8630 C   0  0  0  0  0  0  0  0  0  0  0  0
  142.0040   68.6950  219.3230 C   0  0  0  0  0  0  0  0  0  0  0  0
  143.5090   68.8540  219.2600 C   0  0  0  0  0  0  0  0  0  0  0  0
  144.3170   67.7090  219.3490 C   0  0  0  0  0  0  0  0  0  0  0  0
  145.7090   67.8220  219.3550 C   0  0  0  0  0  0  0  0  0  0  0  0
  146.3090   69.0800  219.2800 C   0  0  0  0  0  0  0  0  0  0  0  0
  145.5200   70.2310  219.2060 C   0  0  0  0  0  0  0  0  0  0  0  0
  144.1190   70.1330  219.2130 C   0  0  0  0  0  0  0  0  0  0  0  0
  143.2920   71.3860  219.0760 C   0  0  0  0  0  0  0  0  0  0  0  0
  140.9450   71.1330  221.7130 N   0  0  0  0  0  0  0  0  0  0  0  0
  140.3710   71.7730  222.7670 C   0  0  0  0  0  0  0  0  0  0  0  0
  139.9820   71.0330  223.9450 N   0  0  0  0  0  0  0  0  0  0  0  0
  138.8220   70.1310  223.9200 C   0  0  0  0  0  0  0  0  0  0  0  0
  139.1950   68.8040  224.5710 C   0  0  0  0  0  0  0  0  0  0  0  0
  139.7900   69.0200  225.9350 C   0  0  0  0  0  0  0  0  0  0  0  0
  139.7190   67.9930  226.8890 C   0  0  0  0  0  0  0  0  0  0  0  0
  140.3030   68.1570  228.1470 C   0  0  0  0  0  0  0  0  0  0  0  0
  140.9740   69.3410  228.4560 C   0  0  0  0  0  0  0  0  0  0  0  0
  141.0660   70.3640  227.5090 C   0  0  0  0  0  0  0  0  0  0  0  0
  140.4850   70.2120  226.2390 C   0  0  0  0  0  0  0  0  0  0  0  0
  140.6110   71.3410  225.2410 C   0  0  0  0  0  0  0  0  0  0  0  0
  140.1610   73.1130  222.6910 N   0  0  0  0  0  0  0  0  0  0  0  0
  138.9450   75.7800  221.7260 C   0  0  0  0  0  0  0  0  0  0  0  0
  138.8140   77.1540  221.0620 C   0  0  0  0  0  0  0  0  0  0  0  0
  139.8690   78.0120  221.4570 O   0  0  0  0  0  0  0  0  0  0  0  0
  141.9926   79.8405  223.9877 H   0  0  0  0  0  0  0  0  0  0  0  0
  143.4828   79.4398  223.0683 H   0  0  0  0  0  0  0  0  0  0  0  0
  142.8525   81.1218  223.0683 H   0  0  0  0  0  0  0  0  0  0  0  0
  140.6761   79.6256  222.1499 H   0  0  0  0  0  0  0  0  0  0  0  0
  141.8296   80.5669  221.1267 H   0  0  0  0  0  0  0  0  0  0  0  0
  142.9460   78.0690  221.7800 H   0  0  0  0  0  0  0  0  0  0  0  0
  142.5850   78.7220  220.2620 H   0  0  0  0  0  0  0  0  0  0  0  0
  141.0446   77.3034  219.9174 H   0  0  0  0  0  0  0  0  0  0  0  0
  142.3229   75.7089  221.2236 H   0  0  0  0  0  0  0  0  0  0  0  0
  141.6045   76.3196  222.7543 H   0  0  0  0  0  0  0  0  0  0  0  0
  140.2149   69.9026  219.1729 H   0  0  0  0  0  0  0  0  0  0  0  0
  141.3186   70.0370  217.7671 H   0  0  0  0  0  0  0  0  0  0  0  0
  141.7143   68.4751  220.3611 H   0  0  0  0  0  0  0  0  0  0  0  0
  141.7228   67.8747  218.6462 H   0  0  0  0  0  0  0  0  0  0  0  0
  143.8499   66.7153  219.4145 H   0  0  0  0  0  0  0  0  0  0  0  0
  146.3332   66.9185  219.4189 H   0  0  0  0  0  0  0  0  0  0  0  0
  147.4057   69.1656  219.2791 H   0  0  0  0  0  0  0  0  0  0  0  0
  145.9989   71.2192  219.1419 H   0  0  0  0  0  0  0  0  0  0  0  0
  143.7141   72.1716  219.7199 H   0  0  0  0  0  0  0  0  0  0  0  0
  143.3069   71.7116  218.0254 H   0  0  0  0  0  0  0  0  0  0  0  0
  137.9892   70.5895  224.4734 H   0  0  0  0  0  0  0  0  0  0  0  0
  138.5173   69.9549  222.8778 H   0  0  0  0  0  0  0  0  0  0  0  0
  138.2914   68.1841  224.6670 H   0  0  0  0  0  0  0  0  0  0  0  0
  139.9421   68.3019  223.9388 H   0  0  0  0  0  0  0  0  0  0  0  0
  139.2007   67.0540  226.6446 H   0  0  0  0  0  0  0  0  0  0  0  0
  140.2341   67.3528  228.8944 H   0  0  0  0  0  0  0  0  0  0  0  0
  141.4318   69.4691  229.4480 H   0  0  0  0  0  0  0  0  0  0  0  0
  141.5967   71.2944  227.7594 H   0  0  0  0  0  0  0  0  0  0  0  0
  140.1292   72.2363  225.6611 H   0  0  0  0  0  0  0  0  0  0  0  0
  141.6837   71.5015  225.0576 H   0  0  0  0  0  0  0  0  0  0  0  0
  138.2049   75.0940  221.2883 H   0  0  0  0  0  0  0  0  0  0  0  0
  138.7684   75.8878  222.8064 H   0  0  0  0  0  0  0  0  0  0  0  0
  138.8417   77.0295  219.9694 H   0  0  0  0  0  0  0  0  0  0  0  0
  137.8605   77.6046  221.3748 H   0  0  0  0  0  0  0  0  0  0  0  0
  1  2  1  0
  2  3  1  0
  3  4  1  0
  4  5  1  0
  5  6  1  0
  6  7  1  0
  7  8  2  0
  8  9  1  0
  9 10  1  0
 10 11  1  0
 11 12  1  0
 12 13  1  0
 13 14  2  0
 14 15  1  0
 15 16  2  0
 16 17  1  0
 17 18  2  0
 18 19  1  0
  9 20  2  0
 20 21  1  0
 21 22  1  0
 22 23  1  0
 23 24  1  0
 24 25  1  0
 25 26  2  0
 26 27  1  0
 27 28  2  0
 28 29  1  0
 29 30  2  0
 30 31  1  0
 21 32  2  0
  6 33  1  0
 33 34  1  0
 34 35  1  0
 35  4  1  0
 32  7  1  0
 19 10  1  0
 31 22  1  0
 18 13  1  0
 30 25  1  0
  1 36  1  0
  1 37  1  0
  1 38  1  0
  2 39  1  0
  2 40  1  0
  3 41  1  0
  3 42  1  0
  4 43  1  6
  5 44  1  0
  5 45  1  0
 11 46  1  0
 11 47  1  0
 12 48  1  0
 12 49  1  0
 14 50  1  0
 15 51  1  0
 16 52  1  0
 17 53  1  0
 19 54  1  0
 19 55  1  0
 23 56  1  0
 23 57  1  0
 24 58  1  0
 24 59  1  0
 26 60  1  0
 27 61  1  0
 28 62  1  0
 29 63  1  0
 31 64  1  0
 31 65  1  0
 33 66  1  0
 33 67  1  0
 34 68  1  0
 34 69  1  0
M  CHG  1   3   1
M  END
>  <meeko>  (9) 
{"free_energy": -9.95, "intermolecular_energy": -11.44, "internal_energy": -0.85, "cluster_size": 9, "cluster_id": 2, "rank_in_cluster": 1}

$$$$

     RDKit          3D

 69 74  0  0  0  0  0  0  0  0999 V2000
  144.0710   75.8250  216.3500 C   0  0  0  0  0  0  0  0  0  0  0  0
  145.1100   74.8120  215.8740 C   0  0  0  0  0  0  0  0  0  0  0  0
  144.8340   73.4740  216.4330 N   0  0  0  0  0  0  0  0  0  0  0  0
  144.8520   73.4270  217.9110 C   0  0  1  0  0  0  0  0  0  0  0  0
  143.4400   73.2550  218.5080 C   0  0  0  0  0  0  0  0  0  0  0  0
  143.5330   73.1300  219.9670 N   0  0  0  0  0  0  0  0  0  0  0  0
  142.4030   73.4790  220.7930 C   0  0  0  0  0  0  0  0  0  0  0  0
  141.9020   74.7420  220.7720 N   0  0  0  0  0  0  0  0  0  0  0  0
  140.8170   75.0720  221.5210 C   0  0  0  0  0  0  0  0  0  0  0  0
  140.2790   76.4110  221.4800 N   0  0  0  0  0  0  0  0  0  0  0  0
  140.1540   77.1440  220.2170 C   0  0  0  0  0  0  0  0  0  0  0  0
  141.2670   78.1910  220.1400 C   0  0  0  0  0  0  0  0  0  0  0  0
  141.4280   78.9540  221.4390 C   0  0  0  0  0  0  0  0  0  0  0  0
  142.1790   80.1400  221.4410 C   0  0  0  0  0  0  0  0  0  0  0  0
  142.3990   80.8380  222.6310 C   0  0  0  0  0  0  0  0  0  0  0  0
  141.8780   80.3540  223.8330 C   0  0  0  0  0  0  0  0  0  0  0  0
  141.1410   79.1670  223.8510 C   0  0  0  0  0  0  0  0  0  0  0  0
  140.9240   78.4480  222.6640 C   0  0  0  0  0  0  0  0  0  0  0  0
  140.0780   77.2000  222.7020 C   0  0  0  0  0  0  0  0  0  0  0  0
  140.2430   74.1240  222.3090 N   0  0  0  0  0  0  0  0  0  0  0  0
  140.7410   72.8590  222.3530 C   0  0  0  0  0  0  0  0  0  0  0  0
  140.1380   71.8680  223.2140 N   0  0  0  0  0  0  0  0  0  0  0  0
  138.9050   71.1740  222.8160 C   0  0  0  0  0  0  0  0  0  0  0  0
  139.0590   69.6780  223.0660 C   0  0  0  0  0  0  0  0  0  0  0  0
  139.5010   69.4090  224.4780 C   0  0  0  0  0  0  0  0  0  0  0  0
  139.2100   68.1690  225.0670 C   0  0  0  0  0  0  0  0  0  0  0  0
  139.6490   67.8820  226.3610 C   0  0  0  0  0  0  0  0  0  0  0  0
  140.3920   68.8260  227.0720 C   0  0  0  0  0  0  0  0  0  0  0  0
  140.7020   70.0580  226.4900 C   0  0  0  0  0  0  0  0  0  0  0  0
  140.2700   70.3590  225.1880 C   0  0  0  0  0  0  0  0  0  0  0  0
  140.6300   71.7010  224.5920 C   0  0  0  0  0  0  0  0  0  0  0  0
  141.8180   72.5460  221.5850 N   0  0  0  0  0  0  0  0  0  0  0  0
  144.5850   72.2620  220.5080 C   0  0  0  0  0  0  0  0  0  0  0  0
  145.9030   72.4880  219.7580 C   0  0  0  0  0  0  0  0  0  0  0  0
  145.7140   72.3910  218.3590 O   0  0  0  0  0  0  0  0  0  0  0  0
  144.0530   75.8425  217.4497 H   0  0  0  0  0  0  0  0  0  0  0  0
  144.3328   76.8241  215.9716 H   0  0  0  0  0  0  0  0  0  0  0  0
  143.0788   75.5380  215.9716 H   0  0  0  0  0  0  0  0  0  0  0  0
  145.0824   74.7564  214.7757 H   0  0  0  0  0  0  0  0  0  0  0  0
  146.1029   75.1387  216.2167 H   0  0  0  0  0  0  0  0  0  0  0  0
  145.5340   72.7930  216.0570 H   0  0  0  0  0  0  0  0  0  0  0  0
  143.8840   73.1630  216.1200 H   0  0  0  0  0  0  0  0  0  0  0  0
  145.2354   74.3949  218.2662 H   0  0  0  0  0  0  0  0  0  0  0  0
  142.8262   74.1319  218.2543 H   0  0  0  0  0  0  0  0  0  0  0  0
  142.9765   72.3478  218.0930 H   0  0  0  0  0  0  0  0  0  0  0  0
  140.2461   76.4443  219.3732 H   0  0  0  0  0  0  0  0  0  0  0  0
  139.1727   77.6386  220.1685 H   0  0  0  0  0  0  0  0  0  0  0  0
  142.2149   77.6835  219.9078 H   0  0  0  0  0  0  0  0  0  0  0  0
  140.9963   78.9136  219.3561 H   0  0  0  0  0  0  0  0  0  0  0  0
  142.5974   80.5227  220.4984 H   0  0  0  0  0  0  0  0  0  0  0  0
  142.9833   81.7699  222.6212 H   0  0  0  0  0  0  0  0  0  0  0  0
  142.0482   80.9085  224.7676 H   0  0  0  0  0  0  0  0  0  0  0  0
  140.7285   78.7936  224.7999 H   0  0  0  0  0  0  0  0  0  0  0  0
  140.3626   76.5951  223.5755 H   0  0  0  0  0  0  0  0  0  0  0  0
  139.0186   77.4877  222.7721 H   0  0  0  0  0  0  0  0  0  0  0  0
  138.0607   71.5592  223.4066 H   0  0  0  0  0  0  0  0  0  0  0  0
  138.7153   71.3489  221.7467 H   0  0  0  0  0  0  0  0  0  0  0  0
  138.0923   69.1830  222.8914 H   0  0  0  0  0  0  0  0  0  0  0  0
  139.8233   69.2853  222.3793 H   0  0  0  0  0  0  0  0  0  0  0  0
  138.6329   67.4190  224.5062 H   0  0  0  0  0  0  0  0  0  0  0  0
  139.4093   66.9117  226.8203 H   0  0  0  0  0  0  0  0  0  0  0  0
  140.7342   68.5995  228.0926 H   0  0  0  0  0  0  0  0  0  0  0  0
  141.2884   70.7971  227.0555 H   0  0  0  0  0  0  0  0  0  0  0  0
  140.1925   72.4919  225.2189 H   0  0  0  0  0  0  0  0  0  0  0  0
  141.7278   71.7635  224.5598 H   0  0  0  0  0  0  0  0  0  0  0  0
  144.7309   72.4906  221.5740 H   0  0  0  0  0  0  0  0  0  0  0  0
  144.2799   71.2124  220.3847 H   0  0  0  0  0  0  0  0  0  0  0  0
  146.2875   73.4897  220.0003 H   0  0  0  0  0  0  0  0  0  0  0  0
  146.6201   71.7140  220.0690 H   0  0  0  0  0  0  0  0  0  0  0  0
  1  2  1  0
  2  3  1  0
  3  4  1  0
  4  5  1  0
  5  6  1  0
  6  7  1  0
  7  8  2  0
  8  9  1  0
  9 10  1  0
 10 11  1  0
 11 12  1  0
 12 13  1  0
 13 14  2  0
 14 15  1  0
 15 16  2  0
 16 17  1  0
 17 18  2  0
 18 19  1  0
  9 20  2  0
 20 21  1  0
 21 22  1  0
 22 23  1  0
 23 24  1  0
 24 25  1  0
 25 26  2  0
 26 27  1  0
 27 28  2  0
 28 29  1  0
 29 30  2  0
 30 31  1  0
 21 32  2  0
  6 33  1  0
 33 34  1  0
 34 35  1  0
 35  4  1  0
 32  7  1  0
 19 10  1  0
 31 22  1  0
 18 13  1  0
 30 25  1  0
  1 36  1  0
  1 37  1  0
  1 38  1  0
  2 39  1  0
  2 40  1  0
  3 41  1  0
  3 42  1  0
  4 43  1  1
  5 44  1  0
  5 45  1  0
 11 46  1  0
 11 47  1  0
 12 48  1  0
 12 49  1  0
 14 50  1  0
 15 51  1  0
 16 52  1  0
 17 53  1  0
 19 54  1  0
 19 55  1  0
 23 56  1  0
 23 57  1  0
 24 58  1  0
 24 59  1  0
 26 60  1  0
 27 61  1  0
 28 62  1  0
 29 63  1  0
 31 64  1  0
 31 65  1  0
 33 66  1  0
 33 67  1  0
 34 68  1  0
 34 69  1  0
M  CHG  1   3   1
M  END
>  <meeko>  (10) 
{"free_energy": -9.83, "intermolecular_energy": -11.32, "internal_energy": -0.87, "cluster_size": 11, "cluster_id": 1, "rank_in_cluster": 9}

$$$$

     RDKit          3D

 69 74  0  0  0  0  0  0  0  0999 V2000
  145.4050   67.4670  219.6800 C   0  0  0  0  0  0  0  0  0  0  0  0
  144.5890   68.7460  219.4980 C   0  0  0  0  0  0  0  0  0  0  0  0
  145.3010   69.7040  218.6310 N   0  0  0  0  0  0  0  0  0  0  0  0
  144.7550   71.0770  218.6790 C   0  0  1  0  0  0  0  0  0  0  0  0
  144.0020   71.3600  219.9960 C   0  0  0  0  0  0  0  0  0  0  0  0
  143.5590   72.7580  220.0200 N   0  0  0  0  0  0  0  0  0  0  0  0
  142.4310   73.1420  220.8340 C   0  0  0  0  0  0  0  0  0  0  0  0
  141.9280   74.4020  220.7610 N   0  0  0  0  0  0  0  0  0  0  0  0
  140.8460   74.7640  221.4980 C   0  0  0  0  0  0  0  0  0  0  0  0
  140.3060   76.0990  221.4010 N   0  0  0  0  0  0  0  0  0  0  0  0
  140.2570   76.8110  220.1210 C   0  0  0  0  0  0  0  0  0  0  0  0
  141.3680   77.8620  220.0950 C   0  0  0  0  0  0  0  0  0  0  0  0
  141.4460   78.6460  221.3880 C   0  0  0  0  0  0  0  0  0  0  0  0
  142.1910   79.8360  221.4170 C   0  0  0  0  0  0  0  0  0  0  0  0
  142.3340   80.5540  222.6060 C   0  0  0  0  0  0  0  0  0  0  0  0
  141.7420   80.0880  223.7810 C   0  0  0  0  0  0  0  0  0  0  0  0
  141.0090   78.8980  223.7730 C   0  0  0  0  0  0  0  0  0  0  0  0
  140.8690   78.1590  222.5880 C   0  0  0  0  0  0  0  0  0  0  0  0
  140.0270   76.9080  222.5950 C   0  0  0  0  0  0  0  0  0  0  0  0
  140.2750   73.8500  222.3280 N   0  0  0  0  0  0  0  0  0  0  0  0
  140.7750   72.5890  222.4250 C   0  0  0  0  0  0  0  0  0  0  0  0
  140.1750   71.6350  223.3300 N   0  0  0  0  0  0  0  0  0  0  0  0
  138.9530   70.9080  222.9580 C   0  0  0  0  0  0  0  0  0  0  0  0
  139.1220   69.4280  223.2830 C   0  0  0  0  0  0  0  0  0  0  0  0
  139.5540   69.2360  224.7100 C   0  0  0  0  0  0  0  0  0  0  0  0
  139.2720   68.0230  225.3590 C   0  0  0  0  0  0  0  0  0  0  0  0
  139.7030   67.8060  226.6690 C   0  0  0  0  0  0  0  0  0  0  0  0
  140.4300   68.7930  227.3370 C   0  0  0  0  0  0  0  0  0  0  0  0
  140.7320   69.9970  226.6970 C   0  0  0  0  0  0  0  0  0  0  0  0
  140.3070   70.2280  225.3770 C   0  0  0  0  0  0  0  0  0  0  0  0
  140.6570   71.5430  224.7180 C   0  0  0  0  0  0  0  0  0  0  0  0
  141.8490   72.2430  221.6680 N   0  0  0  0  0  0  0  0  0  0  0  0
  144.5140   73.7810  219.5770 C   0  0  0  0  0  0  0  0  0  0  0  0
  145.2410   73.3190  218.3100 C   0  0  0  0  0  0  0  0  0  0  0  0
  145.7930   72.0260  218.4840 O   0  0  0  0  0  0  0  0  0  0  0  0
  145.5344   67.2642  220.7534 H   0  0  0  0  0  0  0  0  0  0  0  0
  144.8769   66.6250  219.2088 H   0  0  0  0  0  0  0  0  0  0  0  0
  146.3912   67.5911  219.2088 H   0  0  0  0  0  0  0  0  0  0  0  0
  143.6217   68.4941  219.0387 H   0  0  0  0  0  0  0  0  0  0  0  0
  144.4362   69.2095  220.4838 H   0  0  0  0  0  0  0  0  0  0  0  0
  145.2770   69.3570  217.6430 H   0  0  0  0  0  0  0  0  0  0  0  0
  146.3050   69.7540  218.9280 H   0  0  0  0  0  0  0  0  0  0  0  0
  144.0236   71.1690  217.8626 H   0  0  0  0  0  0  0  0  0  0  0  0
  143.1267   70.6975  220.0666 H   0  0  0  0  0  0  0  0  0  0  0  0
  144.6737   71.1754  220.8473 H   0  0  0  0  0  0  0  0  0  0  0  0
  140.4039   76.0981  219.2962 H   0  0  0  0  0  0  0  0  0  0  0  0
  139.2787   77.3003  220.0042 H   0  0  0  0  0  0  0  0  0  0  0  0
  142.3304   77.3557  219.9294 H   0  0  0  0  0  0  0  0  0  0  0  0
  141.1428   78.5705  219.2843 H   0  0  0  0  0  0  0  0  0  0  0  0
  142.6656   80.2054  220.4960 H   0  0  0  0  0  0  0  0  0  0  0  0
  142.9142   81.4885  222.6167 H   0  0  0  0  0  0  0  0  0  0  0  0
  141.8526   80.6584  224.7151 H   0  0  0  0  0  0  0  0  0  0  0  0
  140.5393   78.5387  224.7005 H   0  0  0  0  0  0  0  0  0  0  0  0
  140.2593   76.3192  223.4947 H   0  0  0  0  0  0  0  0  0  0  0  0
  138.9643   77.1919  222.5945 H   0  0  0  0  0  0  0  0  0  0  0  0
  138.0999   71.3121  223.5227 H   0  0  0  0  0  0  0  0  0  0  0  0
  138.7696   71.0276  221.8800 H   0  0  0  0  0  0  0  0  0  0  0  0
  138.1628   68.9132  223.1251 H   0  0  0  0  0  0  0  0  0  0  0  0
  139.8966   69.0104  222.6230 H   0  0  0  0  0  0  0  0  0  0  0  0
  138.7082   67.2392  224.8320 H   0  0  0  0  0  0  0  0  0  0  0  0
  139.4698   66.8574  227.1748 H   0  0  0  0  0  0  0  0  0  0  0  0
  140.7659   68.6219  228.3704 H   0  0  0  0  0  0  0  0  0  0  0  0
  141.3062   70.7697  227.2293 H   0  0  0  0  0  0  0  0  0  0  0  0
  140.2051   72.3589  225.3012 H   0  0  0  0  0  0  0  0  0  0  0  0
  141.7542   71.6171  224.6918 H   0  0  0  0  0  0  0  0  0  0  0  0
  143.9726   74.7146  219.3643 H   0  0  0  0  0  0  0  0  0  0  0  0
  145.2546   73.9469  220.3733 H   0  0  0  0  0  0  0  0  0  0  0  0
  144.5267   73.2956  217.4738 H   0  0  0  0  0  0  0  0  0  0  0  0
  146.0589   74.0236  218.0988 H   0  0  0  0  0  0  0  0  0  0  0  0
  1  2  1  0
  2  3  1  0
  3  4  1  0
  4  5  1  0
  5  6  1  0
  6  7  1  0
  7  8  2  0
  8  9  1  0
  9 10  1  0
 10 11  1  0
 11 12  1  0
 12 13  1  0
 13 14  2  0
 14 15  1  0
 15 16  2  0
 16 17  1  0
 17 18  2  0
 18 19  1  0
  9 20  2  0
 20 21  1  0
 21 22  1  0
 22 23  1  0
 23 24  1  0
 24 25  1  0
 25 26  2  0
 26 27  1  0
 27 28  2  0
 28 29  1  0
 29 30  2  0
 30 31  1  0
 21 32  2  0
  6 33  1  0
 33 34  1  0
 34 35  1  0
 35  4  1  0
 32  7  1  0
 19 10  1  0
 31 22  1  0
 18 13  1  0
 30 25  1  0
  1 36  1  0
  1 37  1  0
  1 38  1  0
  2 39  1  0
  2 40  1  0
  3 41  1  0
  3 42  1  0
  4 43  1  6
  5 44  1  0
  5 45  1  0
 11 46  1  0
 11 47  1  0
 12 48  1  0
 12 49  1  0
 14 50  1  0
 15 51  1  0
 16 52  1  0
 17 53  1  0
 19 54  1  0
 19 55  1  0
 23 56  1  0
 23 57  1  0
 24 58  1  0
 24 59  1  0
 26 60  1  0
 27 61  1  0
 28 62  1  0
 29 63  1  0
 31 64  1  0
 31 65  1  0
 33 66  1  0
 33 67  1  0
 34 68  1  0
 34 69  1  0
M  CHG  1   3   1
M  END
>  <meeko>  (11) 
{"free_energy": -9.8, "intermolecular_energy": -11.29, "internal_energy": -0.86, "cluster_size": 11, "cluster_id": 1, "rank_in_cluster": 11}

$$$$

     RDKit          3D

 69 74  0  0  0  0  0  0  0  0999 V2000
  143.8520   76.1330  216.3610 C   0  0  0  0  0  0  0  0  0  0  0  0
  143.9970   74.6250  216.1550 C   0  0  0  0  0  0  0  0  0  0  0  0
  145.2410   74.1280  216.7750 N   0  0  0  0  0  0  0  0  0  0  0  0
  145.0630   73.6240  218.1530 C   0  0  1  0  0  0  0  0  0  0  0  0
  143.5870   73.6540  218.6020 C   0  0  0  0  0  0  0  0  0  0  0  0
  143.4650   73.0660  219.9400 N   0  0  0  0  0  0  0  0  0  0  0  0
  142.3550   73.4280  220.7870 C   0  0  0  0  0  0  0  0  0  0  0  0
  141.8600   74.6930  220.7670 N   0  0  0  0  0  0  0  0  0  0  0  0
  140.7940   75.0350  221.5370 C   0  0  0  0  0  0  0  0  0  0  0  0
  140.2620   76.3770  221.4970 N   0  0  0  0  0  0  0  0  0  0  0  0
  140.1340   77.1090  220.2340 C   0  0  0  0  0  0  0  0  0  0  0  0
  141.2520   78.1500  220.1490 C   0  0  0  0  0  0  0  0  0  0  0  0
  141.4250   78.9140  221.4460 C   0  0  0  0  0  0  0  0  0  0  0  0
  142.1810   80.0960  221.4420 C   0  0  0  0  0  0  0  0  0  0  0  0
  142.4130   80.7940  222.6300 C   0  0  0  0  0  0  0  0  0  0  0  0
  141.8960   80.3150  223.8350 C   0  0  0  0  0  0  0  0  0  0  0  0
  141.1520   79.1320  223.8590 C   0  0  0  0  0  0  0  0  0  0  0  0
  140.9250   78.4120  222.6740 C   0  0  0  0  0  0  0  0  0  0  0  0
  140.0730   77.1690  222.7190 C   0  0  0  0  0  0  0  0  0  0  0  0
  140.2320   74.0960  222.3440 N   0  0  0  0  0  0  0  0  0  0  0  0
  140.7240   72.8290  222.3880 C   0  0  0  0  0  0  0  0  0  0  0  0
  140.1340   71.8480  223.2690 N   0  0  0  0  0  0  0  0  0  0  0  0
  138.9030   71.1400  222.8920 C   0  0  0  0  0  0  0  0  0  0  0  0
  139.0680   69.6490  223.1640 C   0  0  0  0  0  0  0  0  0  0  0  0
  139.5220   69.4060  224.5760 C   0  0  0  0  0  0  0  0  0  0  0  0
  139.2440   68.1730  225.1880 C   0  0  0  0  0  0  0  0  0  0  0  0
  139.6950   67.9100  226.4830 C   0  0  0  0  0  0  0  0  0  0  0  0
  140.4380   68.8700  227.1720 C   0  0  0  0  0  0  0  0  0  0  0  0
  140.7350   70.0940  226.5690 C   0  0  0  0  0  0  0  0  0  0  0  0
  140.2910   70.3710  225.2650 C   0  0  0  0  0  0  0  0  0  0  0  0
  140.6380   71.7060  224.6450 C   0  0  0  0  0  0  0  0  0  0  0  0
  141.7820   72.5040  221.5990 N   0  0  0  0  0  0  0  0  0  0  0  0
  144.2070   71.8280  220.2070 C   0  0  0  0  0  0  0  0  0  0  0  0
  145.6240   71.9200  219.6290 C   0  0  0  0  0  0  0  0  0  0  0  0
  145.5930   72.3120  218.2700 O   0  0  0  0  0  0  0  0  0  0  0  0
  143.8306   76.3556  217.4380 H   0  0  0  0  0  0  0  0  0  0  0  0
  144.7046   76.6502  215.8966 H   0  0  0  0  0  0  0  0  0  0  0  0
  142.9165   76.4782  215.8966 H   0  0  0  0  0  0  0  0  0  0  0  0
  143.1370   74.1142  216.6127 H   0  0  0  0  0  0  0  0  0  0  0  0
  144.0347   74.4189  215.0751 H   0  0  0  0  0  0  0  0  0  0  0  0
  145.9550   74.8940  216.7750 H   0  0  0  0  0  0  0  0  0  0  0  0
  145.6180   73.3390  216.1980 H   0  0  0  0  0  0  0  0  0  0  0  0
  145.6171   74.2987  218.8221 H   0  0  0  0  0  0  0  0  0  0  0  0
  143.2335   74.6953  218.6267 H   0  0  0  0  0  0  0  0  0  0  0  0
  142.9787   73.0739  217.8925 H   0  0  0  0  0  0  0  0  0  0  0  0
  140.2176   76.4077  219.3907 H   0  0  0  0  0  0  0  0  0  0  0  0
  139.1552   77.6090  220.1906 H   0  0  0  0  0  0  0  0  0  0  0  0
  142.1958   77.6372  219.9118 H   0  0  0  0  0  0  0  0  0  0  0  0
  140.9803   78.8730  219.3658 H   0  0  0  0  0  0  0  0  0  0  0  0
  142.5943   80.4762  220.4961 H   0  0  0  0  0  0  0  0  0  0  0  0
  143.0036   81.7219  222.6157 H   0  0  0  0  0  0  0  0  0  0  0  0
  142.0746   80.8699  224.7679 H   0  0  0  0  0  0  0  0  0  0  0  0
  140.7420   78.7627  224.8106 H   0  0  0  0  0  0  0  0  0  0  0  0
  140.3599   76.5638  223.5916 H   0  0  0  0  0  0  0  0  0  0  0  0
  139.0156   77.4626  222.7951 H   0  0  0  0  0  0  0  0  0  0  0  0
  138.0610   71.5292  223.4832 H   0  0  0  0  0  0  0  0  0  0  0  0
  138.7042   71.2967  221.8215 H   0  0  0  0  0  0  0  0  0  0  0  0
  138.1031   69.1454  223.0047 H   0  0  0  0  0  0  0  0  0  0  0  0
  139.8291   69.2497  222.4776 H   0  0  0  0  0  0  0  0  0  0  0  0
  138.6677   67.4101  224.6441 H   0  0  0  0  0  0  0  0  0  0  0  0
  139.4647   66.9461  226.9603 H   0  0  0  0  0  0  0  0  0  0  0  0
  140.7906   68.6618  228.1929 H   0  0  0  0  0  0  0  0  0  0  0  0
  141.3203   70.8461  227.1184 H   0  0  0  0  0  0  0  0  0  0  0  0
  140.2006   72.5041  225.2629 H   0  0  0  0  0  0  0  0  0  0  0  0
  141.7350   71.7748  224.6030 H   0  0  0  0  0  0  0  0  0  0  0  0
  144.2683   71.6692  221.2938 H   0  0  0  0  0  0  0  0  0  0  0  0
  143.6812   70.9869  219.7316 H   0  0  0  0  0  0  0  0  0  0  0  0
  146.1996   72.6604  220.2039 H   0  0  0  0  0  0  0  0  0  0  0  0
  146.0951   70.9283  219.6969 H   0  0  0  0  0  0  0  0  0  0  0  0
  1  2  1  0
  2  3  1  0
  3  4  1  0
  4  5  1  0
  5  6  1  0
  6  7  1  0
  7  8  2  0
  8  9  1  0
  9 10  1  0
 10 11  1  0
 11 12  1  0
 12 13  1  0
 13 14  2  0
 14 15  1  0
 15 16  2  0
 16 17  1  0
 17 18  2  0
 18 19  1  0
  9 20  2  0
 20 21  1  0
 21 22  1  0
 22 23  1  0
 23 24  1  0
 24 25  1  0
 25 26  2  0
 26 27  1  0
 27 28  2  0
 28 29  1  0
 29 30  2  0
 30 31  1  0
 21 32  2  0
  6 33  1  0
 33 34  1  0
 34 35  1  0
 35  4  1  0
 32  7  1  0
 19 10  1  0
 31 22  1  0
 18 13  1  0
 30 25  1  0
  1 36  1  0
  1 37  1  0
  1 38  1  0
  2 39  1  0
  2 40  1  0
  3 41  1  0
  3 42  1  0
  4 43  1  1
  5 44  1  0
  5 45  1  0
 11 46  1  0
 11 47  1  0
 12 48  1  0
 12 49  1  0
 14 50  1  0
 15 51  1  0
 16 52  1  0
 17 53  1  0
 19 54  1  0
 19 55  1  0
 23 56  1  0
 23 57  1  0
 24 58  1  0
 24 59  1  0
 26 60  1  0
 27 61  1  0
 28 62  1  0
 29 63  1  0
 31 64  1  0
 31 65  1  0
 33 66  1  0
 33 67  1  0
 34 68  1  0
 34 69  1  0
M  CHG  1   3   1
M  END
>  <meeko>  (12) 
{"free_energy": -10.19, "intermolecular_energy": -11.68, "internal_energy": -0.89, "cluster_size": 11, "cluster_id": 1, "rank_in_cluster": 1}

$$$$

     RDKit          3D

 69 74  0  0  0  0  0  0  0  0999 V2000
  142.1920   80.8790  222.3850 C   0  0  0  0  0  0  0  0  0  0  0  0
  141.5520   79.4970  222.5130 C   0  0  0  0  0  0  0  0  0  0  0  0
  142.1450   78.5520  221.5480 N   0  0  0  0  0  0  0  0  0  0  0  0
  141.1920   77.5450  221.0350 C   0  0  1  0  0  0  0  0  0  0  0  0
  141.3210   76.1910  221.7650 C   0  0  0  0  0  0  0  0  0  0  0  0
  140.2970   75.2640  221.2720 N   0  0  0  0  0  0  0  0  0  0  0  0
  140.5050   73.8410  221.3750 C   0  0  0  0  0  0  0  0  0  0  0  0
  141.0730   73.1530  220.3510 N   0  0  0  0  0  0  0  0  0  0  0  0
  141.3030   71.8180  220.4520 C   0  0  0  0  0  0  0  0  0  0  0  0
  141.9250   71.0970  219.3660 N   0  0  0  0  0  0  0  0  0  0  0  0
  141.2960   69.9110  218.7780 C   0  0  0  0  0  0  0  0  0  0  0  0
  142.0240   68.6630  219.2810 C   0  0  0  0  0  0  0  0  0  0  0  0
  143.5290   68.8180  219.2310 C   0  0  0  0  0  0  0  0  0  0  0  0
  144.3340   67.6740  219.3600 C   0  0  0  0  0  0  0  0  0  0  0  0
  145.7260   67.7850  219.3780 C   0  0  0  0  0  0  0  0  0  0  0  0
  146.3300   69.0400  219.2740 C   0  0  0  0  0  0  0  0  0  0  0  0
  145.5430   70.1900  219.1600 C   0  0  0  0  0  0  0  0  0  0  0  0
  144.1420   70.0940  219.1550 C   0  0  0  0  0  0  0  0  0  0  0  0
  143.3190   71.3440  218.9730 C   0  0  0  0  0  0  0  0  0  0  0  0
  140.9440   71.1680  221.5910 N   0  0  0  0  0  0  0  0  0  0  0  0
  140.3600   71.8380  222.6210 C   0  0  0  0  0  0  0  0  0  0  0  0
  139.9580   71.1320  223.8150 N   0  0  0  0  0  0  0  0  0  0  0  0
  138.7840   70.2470  223.8090 C   0  0  0  0  0  0  0  0  0  0  0  0
  139.1360   68.9300  224.4910 C   0  0  0  0  0  0  0  0  0  0  0  0
  139.7320   69.1690  225.8510 C   0  0  0  0  0  0  0  0  0  0  0  0
  139.6440   68.1660  226.8290 C   0  0  0  0  0  0  0  0  0  0  0  0
  140.2280   68.3510  228.0840 C   0  0  0  0  0  0  0  0  0  0  0  0
  140.9160   69.5310  228.3670 C   0  0  0  0  0  0  0  0  0  0  0  0
  141.0260   70.5300  227.3960 C   0  0  0  0  0  0  0  0  0  0  0  0
  140.4450   70.3570  226.1290 C   0  0  0  0  0  0  0  0  0  0  0  0
  140.5890   71.4600  225.1050 C   0  0  0  0  0  0  0  0  0  0  0  0
  140.1520   73.1760  222.5050 N   0  0  0  0  0  0  0  0  0  0  0  0
  138.9370   75.7870  221.0940 C   0  0  0  0  0  0  0  0  0  0  0  0
  138.9790   77.1700  220.4350 C   0  0  0  0  0  0  0  0  0  0  0  0
  139.8620   78.0350  221.1240 O   0  0  0  0  0  0  0  0  0  0  0  0
  142.3820   81.2894  223.3877 H   0  0  0  0  0  0  0  0  0  0  0  0
  143.1423   80.7937  221.8376 H   0  0  0  0  0  0  0  0  0  0  0  0
  141.5123   81.5486  221.8376 H   0  0  0  0  0  0  0  0  0  0  0  0
  141.7128   79.1185  223.5332 H   0  0  0  0  0  0  0  0  0  0  0  0
  140.4761   79.5865  222.3021 H   0  0  0  0  0  0  0  0  0  0  0  0
  142.9550   78.0650  221.9970 H   0  0  0  0  0  0  0  0  0  0  0  0
  142.5100   79.0880  220.7250 H   0  0  0  0  0  0  0  0  0  0  0  0
  141.4413   77.3666  219.9786 H   0  0  0  0  0  0  0  0  0  0  0  0
  142.3186   75.7676  221.5766 H   0  0  0  0  0  0  0  0  0  0  0  0
  141.1831   76.3451  222.8454 H   0  0  0  0  0  0  0  0  0  0  0  0
  140.2384   69.8673  219.0772 H   0  0  0  0  0  0  0  0  0  0  0  0
  141.3578   69.9617  217.6809 H   0  0  0  0  0  0  0  0  0  0  0  0
  141.7222   68.4724  220.3215 H   0  0  0  0  0  0  0  0  0  0  0  0
  141.7495   67.8248  218.6237 H   0  0  0  0  0  0  0  0  0  0  0  0
  143.8643   66.6832  219.4475 H   0  0  0  0  0  0  0  0  0  0  0  0
  146.3477   66.8826  219.4742 H   0  0  0  0  0  0  0  0  0  0  0  0
  147.4268   69.1238  219.2818 H   0  0  0  0  0  0  0  0  0  0  0  0
  146.0240   71.1755  219.0738 H   0  0  0  0  0  0  0  0  0  0  0  0
  143.7357   72.1473  219.5984 H   0  0  0  0  0  0  0  0  0  0  0  0
  143.3457   71.6396  217.9138 H   0  0  0  0  0  0  0  0  0  0  0  0
  137.9576   70.7307  224.3504 H   0  0  0  0  0  0  0  0  0  0  0  0
  138.4779   70.0515  222.7707 H   0  0  0  0  0  0  0  0  0  0  0  0
  138.2231   68.3260  224.5995 H   0  0  0  0  0  0  0  0  0  0  0  0
  139.8764   68.4021  223.8721 H   0  0  0  0  0  0  0  0  0  0  0  0
  139.1122   67.2293  226.6057 H   0  0  0  0  0  0  0  0  0  0  0  0
  140.1454   67.5657  228.8498 H   0  0  0  0  0  0  0  0  0  0  0  0
  141.3731   69.6755  229.3570 H   0  0  0  0  0  0  0  0  0  0  0  0
  141.5710   71.4576  227.6254 H   0  0  0  0  0  0  0  0  0  0  0  0
  140.1198   72.3718  225.5032 H   0  0  0  0  0  0  0  0  0  0  0  0
  141.6643   71.5996  224.9199 H   0  0  0  0  0  0  0  0  0  0  0  0
  138.3644   75.0983  220.4553 H   0  0  0  0  0  0  0  0  0  0  0  0
  138.4567   75.8756  222.0796 H   0  0  0  0  0  0  0  0  0  0  0  0
  139.3201   77.0623  219.3948 H   0  0  0  0  0  0  0  0  0  0  0  0
  137.9686   77.6036  220.4671 H   0  0  0  0  0  0  0  0  0  0  0  0
  1  2  1  0
  2  3  1  0
  3  4  1  0
  4  5  1  0
  5  6  1  0
  6  7  1  0
  7  8  2  0
  8  9  1  0
  9 10  1  0
 10 11  1  0
 11 12  1  0
 12 13  1  0
 13 14  2  0
 14 15  1  0
 15 16  2  0
 16 17  1  0
 17 18  2  0
 18 19  1  0
  9 20  2  0
 20 21  1  0
 21 22  1  0
 22 23  1  0
 23 24  1  0
 24 25  1  0
 25 26  2  0
 26 27  1  0
 27 28  2  0
 28 29  1  0
 29 30  2  0
 30 31  1  0
 21 32  2  0
  6 33  1  0
 33 34  1  0
 34 35  1  0
 35  4  1  0
 32  7  1  0
 19 10  1  0
 31 22  1  0
 18 13  1  0
 30 25  1  0
  1 36  1  0
  1 37  1  0
  1 38  1  0
  2 39  1  0
  2 40  1  0
  3 41  1  0
  3 42  1  0
  4 43  1  6
  5 44  1  0
  5 45  1  0
 11 46  1  0
 11 47  1  0
 12 48  1  0
 12 49  1  0
 14 50  1  0
 15 51  1  0
 16 52  1  0
 17 53  1  0
 19 54  1  0
 19 55  1  0
 23 56  1  0
 23 57  1  0
 24 58  1  0
 24 59  1  0
 26 60  1  0
 27 61  1  0
 28 62  1  0
 29 63  1  0
 31 64  1  0
 31 65  1  0
 33 66  1  0
 33 67  1  0
 34 68  1  0
 34 69  1  0
M  CHG  1   3   1
M  END
>  <meeko>  (13) 
{"free_energy": -9.73, "intermolecular_energy": -11.22, "internal_energy": -0.84, "cluster_size": 9, "cluster_id": 2, "rank_in_cluster": 6}

$$$$

     RDKit          3D

 69 74  0  0  0  0  0  0  0  0999 V2000
  145.9180   67.4900  218.9760 C   0  0  0  0  0  0  0  0  0  0  0  0
  145.0450   68.6920  219.3370 C   0  0  0  0  0  0  0  0  0  0  0  0
  144.8160   69.5470  218.1560 N   0  0  0  0  0  0  0  0  0  0  0  0
  144.5480   70.9630  218.4860 C   0  0  1  0  0  0  0  0  0  0  0  0
  143.7030   71.1160  219.7690 C   0  0  0  0  0  0  0  0  0  0  0  0
  143.5440   72.5390  220.0890 N   0  0  0  0  0  0  0  0  0  0  0  0
  142.4190   72.9770  220.8780 C   0  0  0  0  0  0  0  0  0  0  0  0
  141.9270   74.2350  220.7330 N   0  0  0  0  0  0  0  0  0  0  0  0
  140.8480   74.6480  221.4470 C   0  0  0  0  0  0  0  0  0  0  0  0
  140.3200   75.9800  221.2740 N   0  0  0  0  0  0  0  0  0  0  0  0
  140.3970   76.6700  219.9830 C   0  0  0  0  0  0  0  0  0  0  0  0
  141.5050   77.7220  220.0500 C   0  0  0  0  0  0  0  0  0  0  0  0
  141.4550   78.5290  221.3310 C   0  0  0  0  0  0  0  0  0  0  0  0
  142.1920   79.7210  221.4120 C   0  0  0  0  0  0  0  0  0  0  0  0
  142.2180   80.4590  222.5980 C   0  0  0  0  0  0  0  0  0  0  0  0
  141.5110   80.0120  223.7160 C   0  0  0  0  0  0  0  0  0  0  0  0
  140.7840   78.8200  223.6570 C   0  0  0  0  0  0  0  0  0  0  0  0
  140.7620   78.0600  222.4760 C   0  0  0  0  0  0  0  0  0  0  0  0
  139.9230   76.8080  222.4210 C   0  0  0  0  0  0  0  0  0  0  0  0
  140.2680   73.7870  222.3260 N   0  0  0  0  0  0  0  0  0  0  0  0
  140.7560   72.5290  222.4950 C   0  0  0  0  0  0  0  0  0  0  0  0
  140.1480   71.6330  223.4510 N   0  0  0  0  0  0  0  0  0  0  0  0
  138.8960   70.9310  223.1350 C   0  0  0  0  0  0  0  0  0  0  0  0
  139.0250   69.4610  223.5180 C   0  0  0  0  0  0  0  0  0  0  0  0
  139.4830   69.3130  224.9430 C   0  0  0  0  0  0  0  0  0  0  0  0
  139.1770   68.1380  225.6470 C   0  0  0  0  0  0  0  0  0  0  0  0
  139.6300   67.9620  226.9560 C   0  0  0  0  0  0  0  0  0  0  0  0
  140.4020   68.9510  227.5670 C   0  0  0  0  0  0  0  0  0  0  0  0
  140.7270   70.1180  226.8710 C   0  0  0  0  0  0  0  0  0  0  0  0
  140.2810   70.3070  225.5530 C   0  0  0  0  0  0  0  0  0  0  0  0
  140.6570   71.5820  224.8320 C   0  0  0  0  0  0  0  0  0  0  0  0
  141.8280   72.1320  221.7600 N   0  0  0  0  0  0  0  0  0  0  0  0
  144.7300   73.3960  219.9780 C   0  0  0  0  0  0  0  0  0  0  0  0
  145.5090   73.0680  218.7000 C   0  0  0  0  0  0  0  0  0  0  0  0
  145.7690   71.6800  218.6050 O   0  0  0  0  0  0  0  0  0  0  0  0
  146.2713   67.0036  219.8972 H   0  0  0  0  0  0  0  0  0  0  0  0
  145.3287   66.7730  218.3855 H   0  0  0  0  0  0  0  0  0  0  0  0
  146.7821   67.8286  218.3855 H   0  0  0  0  0  0  0  0  0  0  0  0
  144.0765   68.3335  219.7159 H   0  0  0  0  0  0  0  0  0  0  0  0
  145.5616   69.2846  220.1064 H   0  0  0  0  0  0  0  0  0  0  0  0
  144.0140   69.1630  217.6040 H   0  0  0  0  0  0  0  0  0  0  0  0
  145.6660   69.5220  217.5450 H   0  0  0  0  0  0  0  0  0  0  0  0
  143.9585   71.3862  217.6594 H   0  0  0  0  0  0  0  0  0  0  0  0
  142.7128   70.6638  219.6109 H   0  0  0  0  0  0  0  0  0  0  0  0
  144.2112   70.6095  220.6027 H   0  0  0  0  0  0  0  0  0  0  0  0
  140.6247   75.9437  219.1889 H   0  0  0  0  0  0  0  0  0  0  0  0
  139.4349   77.1550  219.7612 H   0  0  0  0  0  0  0  0  0  0  0  0
  142.4789   77.2143  219.9896 H   0  0  0  0  0  0  0  0  0  0  0  0
  141.3610   78.4163  219.2091 H   0  0  0  0  0  0  0  0  0  0  0  0
  142.7532   80.0766  220.5353 H   0  0  0  0  0  0  0  0  0  0  0  0
  142.7961   81.3933  222.6511 H   0  0  0  0  0  0  0  0  0  0  0  0
  141.5263   80.5997  224.6457 H   0  0  0  0  0  0  0  0  0  0  0  0
  140.2261   78.4751  224.5400 H   0  0  0  0  0  0  0  0  0  0  0  0
  140.0648   76.2348  223.3491 H   0  0  0  0  0  0  0  0  0  0  0  0
  138.8654   77.0897  222.3108 H   0  0  0  0  0  0  0  0  0  0  0  0
  138.0686   71.3855  223.6996 H   0  0  0  0  0  0  0  0  0  0  0  0
  138.6932   71.0118  222.0569 H   0  0  0  0  0  0  0  0  0  0  0  0
  138.0465   68.9720  223.4021 H   0  0  0  0  0  0  0  0  0  0  0  0
  139.7710   68.9917  222.8598 H   0  0  0  0  0  0  0  0  0  0  0  0
  138.5773   67.3518  225.1651 H   0  0  0  0  0  0  0  0  0  0  0  0
  139.3782   67.0432  227.5059 H   0  0  0  0  0  0  0  0  0  0  0  0
  140.7555   68.8114  228.5992 H   0  0  0  0  0  0  0  0  0  0  0  0
  141.3360   70.8935  227.3585 H   0  0  0  0  0  0  0  0  0  0  0  0
  140.2436   72.4352  225.3898 H   0  0  0  0  0  0  0  0  0  0  0  0
  141.7551   71.6192  224.7798 H   0  0  0  0  0  0  0  0  0  0  0  0
  144.4145   74.4494  219.9497 H   0  0  0  0  0  0  0  0  0  0  0  0
  145.3804   73.2191  220.8473 H   0  0  0  0  0  0  0  0  0  0  0  0
  144.9178   73.3835  217.8277 H   0  0  0  0  0  0  0  0  0  0  0  0
  146.4699   73.6027  218.7290 H   0  0  0  0  0  0  0  0  0  0  0  0
  1  2  1  0
  2  3  1  0
  3  4  1  0
  4  5  1  0
  5  6  1  0
  6  7  1  0
  7  8  2  0
  8  9  1  0
  9 10  1  0
 10 11  1  0
 11 12  1  0
 12 13  1  0
 13 14  2  0
 14 15  1  0
 15 16  2  0
 16 17  1  0
 17 18  2  0
 18 19  1  0
  9 20  2  0
 20 21  1  0
 21 22  1  0
 22 23  1  0
 23 24  1  0
 24 25  1  0
 25 26  2  0
 26 27  1  0
 27 28  2  0
 28 29  1  0
 29 30  2  0
 30 31  1  0
 21 32  2  0
  6 33  1  0
 33 34  1  0
 34 35  1  0
 35  4  1  0
 32  7  1  0
 19 10  1  0
 31 22  1  0
 18 13  1  0
 30 25  1  0
  1 36  1  0
  1 37  1  0
  1 38  1  0
  2 39  1  0
  2 40  1  0
  3 41  1  0
  3 42  1  0
  4 43  1  6
  5 44  1  0
  5 45  1  0
 11 46  1  0
 11 47  1  0
 12 48  1  0
 12 49  1  0
 14 50  1  0
 15 51  1  0
 16 52  1  0
 17 53  1  0
 19 54  1  0
 19 55  1  0
 23 56  1  0
 23 57  1  0
 24 58  1  0
 24 59  1  0
 26 60  1  0
 27 61  1  0
 28 62  1  0
 29 63  1  0
 31 64  1  0
 31 65  1  0
 33 66  1  0
 33 67  1  0
 34 68  1  0
 34 69  1  0
M  CHG  1   3   1
M  END
>  <meeko>  (14) 
{"free_energy": -9.96, "intermolecular_energy": -11.45, "internal_energy": -0.85, "cluster_size": 11, "cluster_id": 1, "rank_in_cluster": 7}

$$$$

     RDKit          3D

 69 74  0  0  0  0  0  0  0  0999 V2000
  144.1090   75.7730  216.3610 C   0  0  0  0  0  0  0  0  0  0  0  0
  145.0920   74.7280  215.8360 C   0  0  0  0  0  0  0  0  0  0  0  0
  144.8250   73.4060  216.4330 N   0  0  0  0  0  0  0  0  0  0  0  0
  144.8490   73.4020  217.9120 C   0  0  1  0  0  0  0  0  0  0  0  0
  143.4430   73.2160  218.5200 C   0  0  0  0  0  0  0  0  0  0  0  0
  143.5440   73.1350  219.9810 N   0  0  0  0  0  0  0  0  0  0  0  0
  142.4090   73.4830  220.8010 C   0  0  0  0  0  0  0  0  0  0  0  0
  141.9080   74.7460  220.7790 N   0  0  0  0  0  0  0  0  0  0  0  0
  140.8190   75.0750  221.5230 C   0  0  0  0  0  0  0  0  0  0  0  0
  140.2810   76.4140  221.4800 N   0  0  0  0  0  0  0  0  0  0  0  0
  140.1680   77.1510  220.2180 C   0  0  0  0  0  0  0  0  0  0  0  0
  141.2810   78.1980  220.1550 C   0  0  0  0  0  0  0  0  0  0  0  0
  141.4290   78.9570  221.4570 C   0  0  0  0  0  0  0  0  0  0  0  0
  142.1800   80.1440  221.4700 C   0  0  0  0  0  0  0  0  0  0  0  0
  142.3880   80.8380  222.6640 C   0  0  0  0  0  0  0  0  0  0  0  0
  141.8560   80.3510  223.8590 C   0  0  0  0  0  0  0  0  0  0  0  0
  141.1190   79.1640  223.8660 C   0  0  0  0  0  0  0  0  0  0  0  0
  140.9140   78.4480  222.6750 C   0  0  0  0  0  0  0  0  0  0  0  0
  140.0680   77.2000  222.7020 C   0  0  0  0  0  0  0  0  0  0  0  0
  140.2410   74.1260  222.3060 N   0  0  0  0  0  0  0  0  0  0  0  0
  140.7390   72.8610  222.3520 C   0  0  0  0  0  0  0  0  0  0  0  0
  140.1320   71.8690  223.2080 N   0  0  0  0  0  0  0  0  0  0  0  0
  138.9060   71.1690  222.7990 C   0  0  0  0  0  0  0  0  0  0  0  0
  139.0650   69.6740  223.0540 C   0  0  0  0  0  0  0  0  0  0  0  0
  139.4930   69.4100  224.4710 C   0  0  0  0  0  0  0  0  0  0  0  0
  139.2020   68.1690  225.0600 C   0  0  0  0  0  0  0  0  0  0  0  0
  139.6280   67.8880  226.3590 C   0  0  0  0  0  0  0  0  0  0  0  0
  140.3590   68.8370  227.0750 C   0  0  0  0  0  0  0  0  0  0  0  0
  140.6700   70.0690  226.4940 C   0  0  0  0  0  0  0  0  0  0  0  0
  140.2500   70.3650  225.1870 C   0  0  0  0  0  0  0  0  0  0  0  0
  140.6100   71.7070  224.5920 C   0  0  0  0  0  0  0  0  0  0  0  0
  141.8200   72.5490  221.5890 N   0  0  0  0  0  0  0  0  0  0  0  0
  144.6160   72.3050  220.5420 C   0  0  0  0  0  0  0  0  0  0  0  0
  145.9260   72.5390  219.7810 C   0  0  0  0  0  0  0  0  0  0  0  0
  145.7340   72.3970  218.3850 O   0  0  0  0  0  0  0  0  0  0  0  0
  144.1173   75.7642  217.4609 H   0  0  0  0  0  0  0  0  0  0  0  0
  144.4052   76.7690  216.0000 H   0  0  0  0  0  0  0  0  0  0  0  0
  143.0968   75.5382  216.0000 H   0  0  0  0  0  0  0  0  0  0  0  0
  144.9914   74.6563  214.7430 H   0  0  0  0  0  0  0  0  0  0  0  0
  146.1118   75.0370  216.1091 H   0  0  0  0  0  0  0  0  0  0  0  0
  145.5260   72.7180  216.0740 H   0  0  0  0  0  0  0  0  0  0  0  0
  143.8750   73.0820  216.1340 H   0  0  0  0  0  0  0  0  0  0  0  0
  145.2123   74.3878  218.2378 H   0  0  0  0  0  0  0  0  0  0  0  0
  142.8090   74.0715  218.2440 H   0  0  0  0  0  0  0  0  0  0  0  0
  142.9983   72.2873  218.1331 H   0  0  0  0  0  0  0  0  0  0  0  0
  140.2683   76.4540  219.3730 H   0  0  0  0  0  0  0  0  0  0  0  0
  139.1871   77.6456  220.1616 H   0  0  0  0  0  0  0  0  0  0  0  0
  142.2313   77.6913  219.9307 H   0  0  0  0  0  0  0  0  0  0  0  0
  141.0178   78.9228  219.3705 H   0  0  0  0  0  0  0  0  0  0  0  0
  142.6075   80.5298  220.5328 H   0  0  0  0  0  0  0  0  0  0  0  0
  142.9721   81.7701  222.6627 H   0  0  0  0  0  0  0  0  0  0  0  0
  142.0173   80.9027  224.7969 H   0  0  0  0  0  0  0  0  0  0  0  0
  140.6969   78.7880  224.8096 H   0  0  0  0  0  0  0  0  0  0  0  0
  140.3443   76.5930  223.5768 H   0  0  0  0  0  0  0  0  0  0  0  0
  139.0079   77.4873  222.7627 H   0  0  0  0  0  0  0  0  0  0  0  0
  138.0541   71.5515  223.3803 H   0  0  0  0  0  0  0  0  0  0  0  0
  138.7257   71.3410  221.7276 H   0  0  0  0  0  0  0  0  0  0  0  0
  138.1028   69.1737  222.8700 H   0  0  0  0  0  0  0  0  0  0  0  0
  139.8388   69.2840  222.3765 H   0  0  0  0  0  0  0  0  0  0  0  0
  138.6354   67.4144  224.4947 H   0  0  0  0  0  0  0  0  0  0  0  0
  139.3875   66.9180  226.8187 H   0  0  0  0  0  0  0  0  0  0  0  0
  140.6913   68.6144  228.0997 H   0  0  0  0  0  0  0  0  0  0  0  0
  141.2475   70.8118  227.0639 H   0  0  0  0  0  0  0  0  0  0  0  0
  140.1621   72.4972  225.2125 H   0  0  0  0  0  0  0  0  0  0  0  0
  141.7077   71.7744  224.5714 H   0  0  0  0  0  0  0  0  0  0  0  0
  144.7602   72.5660  221.6008 H   0  0  0  0  0  0  0  0  0  0  0  0
  144.3334   71.2460  220.4492 H   0  0  0  0  0  0  0  0  0  0  0  0
  146.2884   73.5558  219.9927 H   0  0  0  0  0  0  0  0  0  0  0  0
  146.6618   71.7912  220.1115 H   0  0  0  0  0  0  0  0  0  0  0  0
  1  2  1  0
  2  3  1  0
  3  4  1  0
  4  5  1  0
  5  6  1  0
  6  7  1  0
  7  8  2  0
  8  9  1  0
  9 10  1  0
 10 11  1  0
 11 12  1  0
 12 13  1  0
 13 14  2  0
 14 15  1  0
 15 16  2  0
 16 17  1  0
 17 18  2  0
 18 19  1  0
  9 20  2  0
 20 21  1  0
 21 22  1  0
 22 23  1  0
 23 24  1  0
 24 25  1  0
 25 26  2  0
 26 27  1  0
 27 28  2  0
 28 29  1  0
 29 30  2  0
 30 31  1  0
 21 32  2  0
  6 33  1  0
 33 34  1  0
 34 35  1  0
 35  4  1  0
 32  7  1  0
 19 10  1  0
 31 22  1  0
 18 13  1  0
 30 25  1  0
  1 36  1  0
  1 37  1  0
  1 38  1  0
  2 39  1  0
  2 40  1  0
  3 41  1  0
  3 42  1  0
  4 43  1  1
  5 44  1  0
  5 45  1  0
 11 46  1  0
 11 47  1  0
 12 48  1  0
 12 49  1  0
 14 50  1  0
 15 51  1  0
 16 52  1  0
 17 53  1  0
 19 54  1  0
 19 55  1  0
 23 56  1  0
 23 57  1  0
 24 58  1  0
 24 59  1  0
 26 60  1  0
 27 61  1  0
 28 62  1  0
 29 63  1  0
 31 64  1  0
 31 65  1  0
 33 66  1  0
 33 67  1  0
 34 68  1  0
 34 69  1  0
M  CHG  1   3   1
M  END
>  <meeko>  (15) 
{"free_energy": -9.82, "intermolecular_energy": -11.32, "internal_energy": -0.87, "cluster_size": 11, "cluster_id": 1, "rank_in_cluster": 10}

$$$$

     RDKit          3D

 69 74  0  0  0  0  0  0  0  0999 V2000
  142.4050   80.0130  223.1060 C   0  0  0  0  0  0  0  0  0  0  0  0
  141.7310   79.7670  221.7560 C   0  0  0  0  0  0  0  0  0  0  0  0
  142.1880   78.4940  221.1650 N   0  0  0  0  0  0  0  0  0  0  0  0
  141.1100   77.5000  220.9790 C   0  0  1  0  0  0  0  0  0  0  0  0
  141.4310   76.1540  221.6610 C   0  0  0  0  0  0  0  0  0  0  0  0
  140.2910   75.2410  221.5130 N   0  0  0  0  0  0  0  0  0  0  0  0
  140.4990   73.8150  221.5750 C   0  0  0  0  0  0  0  0  0  0  0  0
  141.0550   73.1560  220.5260 N   0  0  0  0  0  0  0  0  0  0  0  0
  141.2840   71.8180  220.5870 C   0  0  0  0  0  0  0  0  0  0  0  0
  141.8920   71.1270  219.4750 N   0  0  0  0  0  0  0  0  0  0  0  0
  141.2680   69.9430  218.8780 C   0  0  0  0  0  0  0  0  0  0  0  0
  142.0250   68.6970  219.3420 C   0  0  0  0  0  0  0  0  0  0  0  0
  143.5270   68.8750  219.2620 C   0  0  0  0  0  0  0  0  0  0  0  0
  144.3500   67.7410  219.3520 C   0  0  0  0  0  0  0  0  0  0  0  0
  145.7410   67.8730  219.3420 C   0  0  0  0  0  0  0  0  0  0  0  0
  146.3230   69.1380  219.2490 C   0  0  0  0  0  0  0  0  0  0  0  0
  145.5180   70.2780  219.1730 C   0  0  0  0  0  0  0  0  0  0  0  0
  144.1190   70.1610  219.1970 C   0  0  0  0  0  0  0  0  0  0  0  0
  143.2730   71.4020  219.0570 C   0  0  0  0  0  0  0  0  0  0  0  0
  140.9370   71.1380  221.7120 N   0  0  0  0  0  0  0  0  0  0  0  0
  140.3660   71.7790  222.7660 C   0  0  0  0  0  0  0  0  0  0  0  0
  139.9770   71.0410  223.9450 N   0  0  0  0  0  0  0  0  0  0  0  0
  138.8120   70.1440  223.9230 C   0  0  0  0  0  0  0  0  0  0  0  0
  139.1800   68.8150  224.5730 C   0  0  0  0  0  0  0  0  0  0  0  0
  139.7800   69.0280  225.9350 C   0  0  0  0  0  0  0  0  0  0  0  0
  139.7070   68.0010  226.8900 C   0  0  0  0  0  0  0  0  0  0  0  0
  140.2950   68.1620  228.1460 C   0  0  0  0  0  0  0  0  0  0  0  0
  140.9730   69.3430  228.4540 C   0  0  0  0  0  0  0  0  0  0  0  0
  141.0670   70.3660  227.5070 C   0  0  0  0  0  0  0  0  0  0  0  0
  140.4820   70.2170  226.2380 C   0  0  0  0  0  0  0  0  0  0  0  0
  140.6100   71.3450  225.2400 C   0  0  0  0  0  0  0  0  0  0  0  0
  140.1580   73.1200  222.6900 N   0  0  0  0  0  0  0  0  0  0  0  0
  138.9490   75.7890  221.7410 C   0  0  0  0  0  0  0  0  0  0  0  0
  138.8130   77.1630  221.0750 C   0  0  0  0  0  0  0  0  0  0  0  0
  139.8750   78.0180  221.4530 O   0  0  0  0  0  0  0  0  0  0  0  0
  141.7064   79.7580  223.9165 H   0  0  0  0  0  0  0  0  0  0  0  0
  143.3047   79.3853  223.1864 H   0  0  0  0  0  0  0  0  0  0  0  0
  142.6888   81.0727  223.1864 H   0  0  0  0  0  0  0  0  0  0  0  0
  140.6411   79.7271  221.8992 H   0  0  0  0  0  0  0  0  0  0  0  0
  141.9984   80.5878  221.0742 H   0  0  0  0  0  0  0  0  0  0  0  0
  142.9360   78.0830  221.7710 H   0  0  0  0  0  0  0  0  0  0  0  0
  142.6060   78.6850  220.2240 H   0  0  0  0  0  0  0  0  0  0  0  0
  141.0285   77.3030  219.8999 H   0  0  0  0  0  0  0  0  0  0  0  0
  142.3200   75.7084  221.1906 H   0  0  0  0  0  0  0  0  0  0  0  0
  141.6254   76.3242  222.7302 H   0  0  0  0  0  0  0  0  0  0  0  0
  140.2178   69.8778  219.1986 H   0  0  0  0  0  0  0  0  0  0  0  0
  141.3054   70.0150  217.7810 H   0  0  0  0  0  0  0  0  0  0  0  0
  141.7490   68.4832  220.3851 H   0  0  0  0  0  0  0  0  0  0  0  0
  141.7481   67.8669  218.6755 H   0  0  0  0  0  0  0  0  0  0  0  0
  143.8967   66.7419  219.4309 H   0  0  0  0  0  0  0  0  0  0  0  0
  146.3781   66.9787  219.4075 H   0  0  0  0  0  0  0  0  0  0  0  0
  147.4183   69.2381  219.2355 H   0  0  0  0  0  0  0  0  0  0  0  0
  145.9828   71.2719  219.0940 H   0  0  0  0  0  0  0  0  0  0  0  0
  143.6913   72.1996  219.6886 H   0  0  0  0  0  0  0  0  0  0  0  0
  143.2719   71.7175  218.0032 H   0  0  0  0  0  0  0  0  0  0  0  0
  137.9829   70.6065  224.4786 H   0  0  0  0  0  0  0  0  0  0  0  0
  138.5040   69.9694  222.8815 H   0  0  0  0  0  0  0  0  0  0  0  0
  138.2734   68.1998  224.6717 H   0  0  0  0  0  0  0  0  0  0  0  0
  139.9226   68.3089  223.9387 H   0  0  0  0  0  0  0  0  0  0  0  0
  139.1836   67.0645  226.6471 H   0  0  0  0  0  0  0  0  0  0  0  0
  140.2241   67.3580  228.8933 H   0  0  0  0  0  0  0  0  0  0  0  0
  141.4343   69.4684  229.4447 H   0  0  0  0  0  0  0  0  0  0  0  0
  141.6024   71.2940  227.7564 H   0  0  0  0  0  0  0  0  0  0  0  0
  140.1330   72.2421  225.6616 H   0  0  0  0  0  0  0  0  0  0  0  0
  141.6830   71.5002  225.0539 H   0  0  0  0  0  0  0  0  0  0  0  0
  138.2007   75.1042  221.3154 H   0  0  0  0  0  0  0  0  0  0  0  0
  138.7877   75.8995  222.8235 H   0  0  0  0  0  0  0  0  0  0  0  0
  138.8253   77.0358  219.9824 H   0  0  0  0  0  0  0  0  0  0  0  0
  137.8653   77.6172  221.3999 H   0  0  0  0  0  0  0  0  0  0  0  0
  1  2  1  0
  2  3  1  0
  3  4  1  0
  4  5  1  0
  5  6  1  0
  6  7  1  0
  7  8  2  0
  8  9  1  0
  9 10  1  0
 10 11  1  0
 11 12  1  0
 12 13  1  0
 13 14  2  0
 14 15  1  0
 15 16  2  0
 16 17  1  0
 17 18  2  0
 18 19  1  0
  9 20  2  0
 20 21  1  0
 21 22  1  0
 22 23  1  0
 23 24  1  0
 24 25  1  0
 25 26  2  0
 26 27  1  0
 27 28  2  0
 28 29  1  0
 29 30  2  0
 30 31  1  0
 21 32  2  0
  6 33  1  0
 33 34  1  0
 34 35  1  0
 35  4  1  0
 32  7  1  0
 19 10  1  0
 31 22  1  0
 18 13  1  0
 30 25  1  0
  1 36  1  0
  1 37  1  0
  1 38  1  0
  2 39  1  0
  2 40  1  0
  3 41  1  0
  3 42  1  0
  4 43  1  6
  5 44  1  0
  5 45  1  0
 11 46  1  0
 11 47  1  0
 12 48  1  0
 12 49  1  0
 14 50  1  0
 15 51  1  0
 16 52  1  0
 17 53  1  0
 19 54  1  0
 19 55  1  0
 23 56  1  0
 23 57  1  0
 24 58  1  0
 24 59  1  0
 26 60  1  0
 27 61  1  0
 28 62  1  0
 29 63  1  0
 31 64  1  0
 31 65  1  0
 33 66  1  0
 33 67  1  0
 34 68  1  0
 34 69  1  0
M  CHG  1   3   1
M  END
>  <meeko>  (16) 
{"free_energy": -9.95, "intermolecular_energy": -11.44, "internal_energy": -0.86, "cluster_size": 9, "cluster_id": 2, "rank_in_cluster": 4}

$$$$

     RDKit          3D

 69 74  0  0  0  0  0  0  0  0999 V2000
  145.9160   67.6360  219.3110 C   0  0  0  0  0  0  0  0  0  0  0  0
  144.7480   68.6200  219.3270 C   0  0  0  0  0  0  0  0  0  0  0  0
  144.8060   69.5240  218.1620 N   0  0  0  0  0  0  0  0  0  0  0  0
  144.5360   70.9400  218.4880 C   0  0  1  0  0  0  0  0  0  0  0  0
  143.6980   71.0950  219.7750 C   0  0  0  0  0  0  0  0  0  0  0  0
  143.5370   72.5180  220.0910 N   0  0  0  0  0  0  0  0  0  0  0  0
  142.4160   72.9570  220.8850 C   0  0  0  0  0  0  0  0  0  0  0  0
  141.9240   74.2160  220.7430 N   0  0  0  0  0  0  0  0  0  0  0  0
  140.8480   74.6280  221.4630 C   0  0  0  0  0  0  0  0  0  0  0  0
  140.3200   75.9600  221.2930 N   0  0  0  0  0  0  0  0  0  0  0  0
  140.3820   76.6470  220.0000 C   0  0  0  0  0  0  0  0  0  0  0  0
  141.4930   77.6980  220.0500 C   0  0  0  0  0  0  0  0  0  0  0  0
  141.4600   78.5080  221.3290 C   0  0  0  0  0  0  0  0  0  0  0  0
  142.2010   79.6980  221.3980 C   0  0  0  0  0  0  0  0  0  0  0  0
  142.2430   80.4390  222.5810 C   0  0  0  0  0  0  0  0  0  0  0  0
  141.5500   79.9960  223.7100 C   0  0  0  0  0  0  0  0  0  0  0  0
  140.8200   78.8060  223.6630 C   0  0  0  0  0  0  0  0  0  0  0  0
  140.7810   78.0430  222.4840 C   0  0  0  0  0  0  0  0  0  0  0  0
  139.9400   76.7920  222.4430 C   0  0  0  0  0  0  0  0  0  0  0  0
  140.2710   73.7660  222.3430 N   0  0  0  0  0  0  0  0  0  0  0  0
  140.7590   72.5080  222.5090 C   0  0  0  0  0  0  0  0  0  0  0  0
  140.1540   71.6110  223.4660 N   0  0  0  0  0  0  0  0  0  0  0  0
  138.8990   70.9130  223.1560 C   0  0  0  0  0  0  0  0  0  0  0  0
  139.0270   69.4420  223.5360 C   0  0  0  0  0  0  0  0  0  0  0  0
  139.4930   69.2900  224.9570 C   0  0  0  0  0  0  0  0  0  0  0  0
  139.1890   68.1140  225.6610 C   0  0  0  0  0  0  0  0  0  0  0  0
  139.6480   67.9350  226.9670 C   0  0  0  0  0  0  0  0  0  0  0  0
  140.4260   68.9210  227.5760 C   0  0  0  0  0  0  0  0  0  0  0  0
  140.7500   70.0890  226.8800 C   0  0  0  0  0  0  0  0  0  0  0  0
  140.2960   70.2820  225.5650 C   0  0  0  0  0  0  0  0  0  0  0  0
  140.6710   71.5570  224.8440 C   0  0  0  0  0  0  0  0  0  0  0  0
  141.8280   72.1110  221.7690 N   0  0  0  0  0  0  0  0  0  0  0  0
  144.7200   73.3780  219.9700 C   0  0  0  0  0  0  0  0  0  0  0  0
  145.4920   73.0480  218.6890 C   0  0  0  0  0  0  0  0  0  0  0  0
  145.7550   71.6600  218.5970 O   0  0  0  0  0  0  0  0  0  0  0  0
  146.2047   67.3928  220.3442 H   0  0  0  0  0  0  0  0  0  0  0  0
  145.6136   66.7164  218.7886 H   0  0  0  0  0  0  0  0  0  0  0  0
  146.7709   68.0901  218.7886 H   0  0  0  0  0  0  0  0  0  0  0  0
  143.8029   68.0578  219.3001 H   0  0  0  0  0  0  0  0  0  0  0  0
  144.8094   69.2240  220.2443 H   0  0  0  0  0  0  0  0  0  0  0  0
  144.1200   69.1980  217.4410 H   0  0  0  0  0  0  0  0  0  0  0  0
  145.7630   69.4750  217.7390 H   0  0  0  0  0  0  0  0  0  0  0  0
  143.9405   71.3590  217.6635 H   0  0  0  0  0  0  0  0  0  0  0  0
  142.7081   70.6396  219.6240 H   0  0  0  0  0  0  0  0  0  0  0  0
  144.2123   70.5926  220.6075 H   0  0  0  0  0  0  0  0  0  0  0  0
  140.5984   75.9185  219.2048 H   0  0  0  0  0  0  0  0  0  0  0  0
  139.4180   77.1334  219.7898 H   0  0  0  0  0  0  0  0  0  0  0  0
  142.4654   77.1887  219.9787 H   0  0  0  0  0  0  0  0  0  0  0  0
  141.3398   78.3902  219.2090 H   0  0  0  0  0  0  0  0  0  0  0  0
  142.7528   80.0496  220.5137 H   0  0  0  0  0  0  0  0  0  0  0  0
  142.8227   81.3729  222.6238 H   0  0  0  0  0  0  0  0  0  0  0  0
  141.5792   80.5856  224.6382 H   0  0  0  0  0  0  0  0  0  0  0  0
  140.2727   78.4644  224.5540 H   0  0  0  0  0  0  0  0  0  0  0  0
  140.0934   76.2210  223.3706 H   0  0  0  0  0  0  0  0  0  0  0  0
  138.8815   77.0752  222.3458 H   0  0  0  0  0  0  0  0  0  0  0  0
  138.0759   71.3685  223.7261 H   0  0  0  0  0  0  0  0  0  0  0  0
  138.6900   70.9962  222.0792 H   0  0  0  0  0  0  0  0  0  0  0  0
  138.0467   68.9555  223.4252 H   0  0  0  0  0  0  0  0  0  0  0  0
  139.7682   68.9724  222.8726 H   0  0  0  0  0  0  0  0  0  0  0  0
  138.5858   67.3294  225.1808 H   0  0  0  0  0  0  0  0  0  0  0  0
  139.3964   67.0161  227.5168 H   0  0  0  0  0  0  0  0  0  0  0  0
  140.7849   68.7785  228.6060 H   0  0  0  0  0  0  0  0  0  0  0  0
  141.3643   70.8618  227.3652 H   0  0  0  0  0  0  0  0  0  0  0  0
  140.2629   72.4104  225.4054 H   0  0  0  0  0  0  0  0  0  0  0  0
  141.7689   71.5918  224.7856 H   0  0  0  0  0  0  0  0  0  0  0  0
  144.4014   74.4304  219.9401 H   0  0  0  0  0  0  0  0  0  0  0  0
  145.3760   73.2059  220.8360 H   0  0  0  0  0  0  0  0  0  0  0  0
  144.8949   73.3591  217.8192 H   0  0  0  0  0  0  0  0  0  0  0  0
  146.4516   73.5853  218.7106 H   0  0  0  0  0  0  0  0  0  0  0  0
  1  2  1  0
  2  3  1  0
  3  4  1  0
  4  5  1  0
  5  6  1  0
  6  7  1  0
  7  8  2  0
  8  9  1  0
  9 10  1  0
 10 11  1  0
 11 12  1  0
 12 13  1  0
 13 14  2  0
 14 15  1  0
 15 16  2  0
 16 17  1  0
 17 18  2  0
 18 19  1  0
  9 20  2  0
 20 21  1  0
 21 22  1  0
 22 23  1  0
 23 24  1  0
 24 25  1  0
 25 26  2  0
 26 27  1  0
 27 28  2  0
 28 29  1  0
 29 30  2  0
 30 31  1  0
 21 32  2  0
  6 33  1  0
 33 34  1  0
 34 35  1  0
 35  4  1  0
 32  7  1  0
 19 10  1  0
 31 22  1  0
 18 13  1  0
 30 25  1  0
  1 36  1  0
  1 37  1  0
  1 38  1  0
  2 39  1  0
  2 40  1  0
  3 41  1  0
  3 42  1  0
  4 43  1  6
  5 44  1  0
  5 45  1  0
 11 46  1  0
 11 47  1  0
 12 48  1  0
 12 49  1  0
 14 50  1  0
 15 51  1  0
 16 52  1  0
 17 53  1  0
 19 54  1  0
 19 55  1  0
 23 56  1  0
 23 57  1  0
 24 58  1  0
 24 59  1  0
 26 60  1  0
 27 61  1  0
 28 62  1  0
 29 63  1  0
 31 64  1  0
 31 65  1  0
 33 66  1  0
 33 67  1  0
 34 68  1  0
 34 69  1  0
M  CHG  1   3   1
M  END
>  <meeko>  (17) 
{"free_energy": -9.95, "intermolecular_energy": -11.44, "internal_energy": -0.87, "cluster_size": 11, "cluster_id": 1, "rank_in_cluster": 8}

$$$$

     RDKit          3D

 69 74  0  0  0  0  0  0  0  0999 V2000
  145.5350   67.6180  219.2980 C   0  0  0  0  0  0  0  0  0  0  0  0
  145.9100   69.0590  218.9530 C   0  0  0  0  0  0  0  0  0  0  0  0
  144.8690   69.6870  218.1180 N   0  0  0  0  0  0  0  0  0  0  0  0
  144.5870   71.0950  218.4710 C   0  0  1  0  0  0  0  0  0  0  0  0
  143.7350   71.2180  219.7510 C   0  0  0  0  0  0  0  0  0  0  0  0
  143.5620   72.6330  220.0950 N   0  0  0  0  0  0  0  0  0  0  0  0
  142.4290   73.0480  220.8860 C   0  0  0  0  0  0  0  0  0  0  0  0
  141.9330   74.3080  220.7670 N   0  0  0  0  0  0  0  0  0  0  0  0
  140.8470   74.6980  221.4840 C   0  0  0  0  0  0  0  0  0  0  0  0
  140.3140   76.0320  221.3380 N   0  0  0  0  0  0  0  0  0  0  0  0
  140.3350   76.7250  220.0470 C   0  0  0  0  0  0  0  0  0  0  0  0
  141.4470   77.7760  220.0660 C   0  0  0  0  0  0  0  0  0  0  0  0
  141.4560   78.5790  221.3500 C   0  0  0  0  0  0  0  0  0  0  0  0
  142.1990   79.7690  221.4020 C   0  0  0  0  0  0  0  0  0  0  0  0
  142.2800   80.5040  222.5870 C   0  0  0  0  0  0  0  0  0  0  0  0
  141.6240   80.0550  223.7350 C   0  0  0  0  0  0  0  0  0  0  0  0
  140.8920   78.8650  223.7050 C   0  0  0  0  0  0  0  0  0  0  0  0
  140.8150   78.1090  222.5240 C   0  0  0  0  0  0  0  0  0  0  0  0
  139.9720   76.8580  222.5040 C   0  0  0  0  0  0  0  0  0  0  0  0
  140.2650   73.8150  222.3380 N   0  0  0  0  0  0  0  0  0  0  0  0
  140.7570   72.5550  222.4800 C   0  0  0  0  0  0  0  0  0  0  0  0
  140.1460   71.6340  223.4100 N   0  0  0  0  0  0  0  0  0  0  0  0
  138.9110   70.9190  223.0610 C   0  0  0  0  0  0  0  0  0  0  0  0
  139.0560   69.4450  223.4220 C   0  0  0  0  0  0  0  0  0  0  0  0
  139.4910   69.2810  224.8520 C   0  0  0  0  0  0  0  0  0  0  0  0
  139.1910   68.0890  225.5320 C   0  0  0  0  0  0  0  0  0  0  0  0
  139.6230   67.8990  226.8460 C   0  0  0  0  0  0  0  0  0  0  0  0
  140.3690   68.8890  227.4870 C   0  0  0  0  0  0  0  0  0  0  0  0
  140.6880   70.0730  226.8160 C   0  0  0  0  0  0  0  0  0  0  0  0
  140.2620   70.2770  225.4920 C   0  0  0  0  0  0  0  0  0  0  0  0
  140.6310   71.5690  224.7990 C   0  0  0  0  0  0  0  0  0  0  0  0
  141.8360   72.1800  221.7440 N   0  0  0  0  0  0  0  0  0  0  0  0
  144.7400   73.5030  220.0050 C   0  0  0  0  0  0  0  0  0  0  0  0
  145.5280   73.2040  218.7250 C   0  0  0  0  0  0  0  0  0  0  0  0
  145.8000   71.8200  218.6070 O   0  0  0  0  0  0  0  0  0  0  0  0
  145.5040   67.4989  220.3911 H   0  0  0  0  0  0  0  0  0  0  0  0
  144.5464   67.3852  218.8756 H   0  0  0  0  0  0  0  0  0  0  0  0
  146.2848   66.9328  218.8756 H   0  0  0  0  0  0  0  0  0  0  0  0
  146.0217   69.6350  219.8835 H   0  0  0  0  0  0  0  0  0  0  0  0
  146.8553   69.0517  218.3906 H   0  0  0  0  0  0  0  0  0  0  0  0
  143.9870   69.1290  218.1910 H   0  0  0  0  0  0  0  0  0  0  0  0
  145.1770   69.6690  217.1170 H   0  0  0  0  0  0  0  0  0  0  0  0
  143.9975   71.5278  217.6493 H   0  0  0  0  0  0  0  0  0  0  0  0
  142.7496   70.7601  219.5798 H   0  0  0  0  0  0  0  0  0  0  0  0
  144.2435   70.7013  220.5783 H   0  0  0  0  0  0  0  0  0  0  0  0
  140.5259   76.0001  219.2420 H   0  0  0  0  0  0  0  0  0  0  0  0
  139.3649   77.2124  219.8701 H   0  0  0  0  0  0  0  0  0  0  0  0
  142.4165   77.2673  219.9599 H   0  0  0  0  0  0  0  0  0  0  0  0
  141.2662   78.4728  219.2342 H   0  0  0  0  0  0  0  0  0  0  0  0
  142.7217   80.1255  220.5022 H   0  0  0  0  0  0  0  0  0  0  0  0
  142.8612   81.4375  222.6159 H   0  0  0  0  0  0  0  0  0  0  0  0
  141.6835   80.6393  224.6651 H   0  0  0  0  0  0  0  0  0  0  0  0
  140.3734   78.5186  224.6111 H   0  0  0  0  0  0  0  0  0  0  0  0
  140.1552   76.2821  223.4231 H   0  0  0  0  0  0  0  0  0  0  0  0
  138.9111   77.1421  222.4428 H   0  0  0  0  0  0  0  0  0  0  0  0
  138.0672   71.3515  223.6186 H   0  0  0  0  0  0  0  0  0  0  0  0
  138.7254   71.0148  221.9810 H   0  0  0  0  0  0  0  0  0  0  0  0
  138.0875   68.9430  223.2807 H   0  0  0  0  0  0  0  0  0  0  0  0
  139.8204   68.9978  222.7695 H   0  0  0  0  0  0  0  0  0  0  0  0
  138.6128   67.3013  225.0267 H   0  0  0  0  0  0  0  0  0  0  0  0
  139.3751   66.9679  227.3766 H   0  0  0  0  0  0  0  0  0  0  0  0
  140.7068   68.7372  228.5228 H   0  0  0  0  0  0  0  0  0  0  0  0
  141.2759   70.8497  227.3270 H   0  0  0  0  0  0  0  0  0  0  0  0
  140.1943   72.4066  225.3627 H   0  0  0  0  0  0  0  0  0  0  0  0
  141.7292   71.6244  224.7677 H   0  0  0  0  0  0  0  0  0  0  0  0
  144.4146   74.5537  219.9933 H   0  0  0  0  0  0  0  0  0  0  0  0
  145.3878   73.3178  220.8745 H   0  0  0  0  0  0  0  0  0  0  0  0
  144.9383   73.5299  217.8555 H   0  0  0  0  0  0  0  0  0  0  0  0
  146.4842   73.7461  218.7681 H   0  0  0  0  0  0  0  0  0  0  0  0
  1  2  1  0
  2  3  1  0
  3  4  1  0
  4  5  1  0
  5  6  1  0
  6  7  1  0
  7  8  2  0
  8  9  1  0
  9 10  1  0
 10 11  1  0
 11 12  1  0
 12 13  1  0
 13 14  2  0
 14 15  1  0
 15 16  2  0
 16 17  1  0
 17 18  2  0
 18 19  1  0
  9 20  2  0
 20 21  1  0
 21 22  1  0
 22 23  1  0
 23 24  1  0
 24 25  1  0
 25 26  2  0
 26 27  1  0
 27 28  2  0
 28 29  1  0
 29 30  2  0
 30 31  1  0
 21 32  2  0
  6 33  1  0
 33 34  1  0
 34 35  1  0
 35  4  1  0
 32  7  1  0
 19 10  1  0
 31 22  1  0
 18 13  1  0
 30 25  1  0
  1 36  1  0
  1 37  1  0
  1 38  1  0
  2 39  1  0
  2 40  1  0
  3 41  1  0
  3 42  1  0
  4 43  1  6
  5 44  1  0
  5 45  1  0
 11 46  1  0
 11 47  1  0
 12 48  1  0
 12 49  1  0
 14 50  1  0
 15 51  1  0
 16 52  1  0
 17 53  1  0
 19 54  1  0
 19 55  1  0
 23 56  1  0
 23 57  1  0
 24 58  1  0
 24 59  1  0
 26 60  1  0
 27 61  1  0
 28 62  1  0
 29 63  1  0
 31 64  1  0
 31 65  1  0
 33 66  1  0
 33 67  1  0
 34 68  1  0
 34 69  1  0
M  CHG  1   3   1
M  END
>  <meeko>  (18) 
{"free_energy": -9.99, "intermolecular_energy": -11.49, "internal_energy": -0.84, "cluster_size": 11, "cluster_id": 1, "rank_in_cluster": 3}

$$$$

     RDKit          3D

 69 74  0  0  0  0  0  0  0  0999 V2000
  143.9560   76.0220  216.3170 C   0  0  0  0  0  0  0  0  0  0  0  0
  144.1310   74.5090  216.1970 C   0  0  0  0  0  0  0  0  0  0  0  0
  145.3580   74.0660  216.8860 N   0  0  0  0  0  0  0  0  0  0  0  0
  145.1180   73.4870  218.2250 C   0  0  1  0  0  0  0  0  0  0  0  0
  143.6350   73.5750  218.6420 C   0  0  0  0  0  0  0  0  0  0  0  0
  143.4460   72.9110  219.9370 N   0  0  0  0  0  0  0  0  0  0  0  0
  142.3380   73.2830  220.7820 C   0  0  0  0  0  0  0  0  0  0  0  0
  141.8500   74.5510  220.7560 N   0  0  0  0  0  0  0  0  0  0  0  0
  140.7850   74.9020  221.5230 C   0  0  0  0  0  0  0  0  0  0  0  0
  140.2600   76.2460  221.4760 N   0  0  0  0  0  0  0  0  0  0  0  0
  140.1450   76.9760  220.2100 C   0  0  0  0  0  0  0  0  0  0  0  0
  141.2680   78.0120  220.1320 C   0  0  0  0  0  0  0  0  0  0  0  0
  141.4350   78.7770  221.4280 C   0  0  0  0  0  0  0  0  0  0  0  0
  142.1970   79.9560  221.4280 C   0  0  0  0  0  0  0  0  0  0  0  0
  142.4230   80.6560  222.6160 C   0  0  0  0  0  0  0  0  0  0  0  0
  141.8940   80.1810  223.8180 C   0  0  0  0  0  0  0  0  0  0  0  0
  141.1450   79.0020  223.8390 C   0  0  0  0  0  0  0  0  0  0  0  0
  140.9230   78.2810  222.6540 C   0  0  0  0  0  0  0  0  0  0  0  0
  140.0650   77.0420  222.6950 C   0  0  0  0  0  0  0  0  0  0  0  0
  140.2180   73.9700  222.3350 N   0  0  0  0  0  0  0  0  0  0  0  0
  140.7030   72.7010  222.3850 C   0  0  0  0  0  0  0  0  0  0  0  0
  140.1080   71.7280  223.2710 N   0  0  0  0  0  0  0  0  0  0  0  0
  138.9450   70.9350  222.8470 C   0  0  0  0  0  0  0  0  0  0  0  0
  139.1710   69.4690  223.2000 C   0  0  0  0  0  0  0  0  0  0  0  0
  139.5400   69.3140  224.6490 C   0  0  0  0  0  0  0  0  0  0  0  0
  139.2880   68.0950  225.2990 C   0  0  0  0  0  0  0  0  0  0  0  0
  139.6620   67.9150  226.6320 C   0  0  0  0  0  0  0  0  0  0  0  0
  140.3030   68.9440  227.3220 C   0  0  0  0  0  0  0  0  0  0  0  0
  140.5750   70.1560  226.6820 C   0  0  0  0  0  0  0  0  0  0  0  0
  140.2070   70.3500  225.3410 C   0  0  0  0  0  0  0  0  0  0  0  0
  140.5230   71.6750  224.6830 C   0  0  0  0  0  0  0  0  0  0  0  0
  141.7600   72.3660  221.5980 N   0  0  0  0  0  0  0  0  0  0  0  0
  144.1100   71.6180  220.1400 C   0  0  0  0  0  0  0  0  0  0  0  0
  145.5440   71.6630  219.6000 C   0  0  0  0  0  0  0  0  0  0  0  0
  145.5700   72.1420  218.2670 O   0  0  0  0  0  0  0  0  0  0  0  0
  143.9234   76.3042  217.3797 H   0  0  0  0  0  0  0  0  0  0  0  0
  144.8015   76.5288  215.8289 H   0  0  0  0  0  0  0  0  0  0  0  0
  143.0171   76.3224  215.8289 H   0  0  0  0  0  0  0  0  0  0  0  0
  143.2625   74.0087  216.6503 H   0  0  0  0  0  0  0  0  0  0  0  0
  144.2115   74.2473  215.1316 H   0  0  0  0  0  0  0  0  0  0  0  0
  146.0160   74.8760  216.9720 H   0  0  0  0  0  0  0  0  0  0  0  0
  145.8300   73.3320  216.3060 H   0  0  0  0  0  0  0  0  0  0  0  0
  145.6922   74.0833  218.9493 H   0  0  0  0  0  0  0  0  0  0  0  0
  143.3408   74.6316  218.7263 H   0  0  0  0  0  0  0  0  0  0  0  0
  143.0127   73.0781  217.8832 H   0  0  0  0  0  0  0  0  0  0  0  0
  140.2324   76.2726  219.3688 H   0  0  0  0  0  0  0  0  0  0  0  0
  139.1686   77.4799  220.1575 H   0  0  0  0  0  0  0  0  0  0  0  0
  142.2112   77.4947  219.9025 H   0  0  0  0  0  0  0  0  0  0  0  0
  141.0049   78.7350  219.3459 H   0  0  0  0  0  0  0  0  0  0  0  0
  142.6198   80.3320  220.4847 H   0  0  0  0  0  0  0  0  0  0  0  0
  143.0177   81.5813  222.6045 H   0  0  0  0  0  0  0  0  0  0  0  0
  142.0676   80.7370  224.7511 H   0  0  0  0  0  0  0  0  0  0  0  0
  140.7269   78.6363  224.7884 H   0  0  0  0  0  0  0  0  0  0  0  0
  140.3422   76.4375  223.5712 H   0  0  0  0  0  0  0  0  0  0  0  0
  139.0084   77.3406  222.7620 H   0  0  0  0  0  0  0  0  0  0  0  0
  138.0446   71.3012  223.3619 H   0  0  0  0  0  0  0  0  0  0  0  0
  138.8121   71.0332  221.7595 H   0  0  0  0  0  0  0  0  0  0  0  0
  138.2477   68.9049  223.0017 H   0  0  0  0  0  0  0  0  0  0  0  0
  139.9978   69.0841  222.5849 H   0  0  0  0  0  0  0  0  0  0  0  0
  138.7930   67.2772  224.7547 H   0  0  0  0  0  0  0  0  0  0  0  0
  139.4512   66.9615  227.1383 H   0  0  0  0  0  0  0  0  0  0  0  0
  140.5951   68.8009  228.3728 H   0  0  0  0  0  0  0  0  0  0  0  0
  141.0806   70.9632  227.2323 H   0  0  0  0  0  0  0  0  0  0  0  0
  140.0013   72.4727  225.2322 H   0  0  0  0  0  0  0  0  0  0  0  0
  141.6149   71.8049  224.7108 H   0  0  0  0  0  0  0  0  0  0  0  0
  144.1347   71.3882  221.2154 H   0  0  0  0  0  0  0  0  0  0  0  0
  143.5497   70.8405  219.6001 H   0  0  0  0  0  0  0  0  0  0  0  0
  146.1462   72.3305  220.2339 H   0  0  0  0  0  0  0  0  0  0  0  0
  145.9558   70.6431  219.6139 H   0  0  0  0  0  0  0  0  0  0  0  0
  1  2  1  0
  2  3  1  0
  3  4  1  0
  4  5  1  0
  5  6  1  0
  6  7  1  0
  7  8  2  0
  8  9  1  0
  9 10  1  0
 10 11  1  0
 11 12  1  0
 12 13  1  0
 13 14  2  0
 14 15  1  0
 15 16  2  0
 16 17  1  0
 17 18  2  0
 18 19  1  0
  9 20  2  0
 20 21  1  0
 21 22  1  0
 22 23  1  0
 23 24  1  0
 24 25  1  0
 25 26  2  0
 26 27  1  0
 27 28  2  0
 28 29  1  0
 29 30  2  0
 30 31  1  0
 21 32  2  0
  6 33  1  0
 33 34  1  0
 34 35  1  0
 35  4  1  0
 32  7  1  0
 19 10  1  0
 31 22  1  0
 18 13  1  0
 30 25  1  0
  1 36  1  0
  1 37  1  0
  1 38  1  0
  2 39  1  0
  2 40  1  0
  3 41  1  0
  3 42  1  0
  4 43  1  1
  5 44  1  0
  5 45  1  0
 11 46  1  0
 11 47  1  0
 12 48  1  0
 12 49  1  0
 14 50  1  0
 15 51  1  0
 16 52  1  0
 17 53  1  0
 19 54  1  0
 19 55  1  0
 23 56  1  0
 23 57  1  0
 24 58  1  0
 24 59  1  0
 26 60  1  0
 27 61  1  0
 28 62  1  0
 29 63  1  0
 31 64  1  0
 31 65  1  0
 33 66  1  0
 33 67  1  0
 34 68  1  0
 34 69  1  0
M  CHG  1   3   1
M  END
>  <meeko>  (19) 
{"free_energy": -10.17, "intermolecular_energy": -11.66, "internal_energy": -0.89, "cluster_size": 11, "cluster_id": 1, "rank_in_cluster": 2}

$$$$

     RDKit          3D

 69 74  0  0  0  0  0  0  0  0999 V2000
  142.2020   80.6410  223.2690 C   0  0  0  0  0  0  0  0  0  0  0  0
  141.2550   79.7610  222.4550 C   0  0  0  0  0  0  0  0  0  0  0  0
  141.9830   78.6360  221.8380 N   0  0  0  0  0  0  0  0  0  0  0  0
  141.1050   77.6260  221.2110 C   0  0  1  0  0  0  0  0  0  0  0  0
  141.1830   76.2590  221.9230 C   0  0  0  0  0  0  0  0  0  0  0  0
  140.2300   75.3270  221.3100 N   0  0  0  0  0  0  0  0  0  0  0  0
  140.4510   73.9050  221.4050 C   0  0  0  0  0  0  0  0  0  0  0  0
  141.0160   73.2270  220.3720 N   0  0  0  0  0  0  0  0  0  0  0  0
  141.2590   71.8930  220.4650 C   0  0  0  0  0  0  0  0  0  0  0  0
  141.8770   71.1830  219.3710 N   0  0  0  0  0  0  0  0  0  0  0  0
  141.2670   69.9780  218.8020 C   0  0  0  0  0  0  0  0  0  0  0  0
  142.0360   68.7520  219.2960 C   0  0  0  0  0  0  0  0  0  0  0  0
  143.5370   68.9450  219.2140 C   0  0  0  0  0  0  0  0  0  0  0  0
  144.3730   67.8230  219.3330 C   0  0  0  0  0  0  0  0  0  0  0  0
  145.7620   67.9700  219.3230 C   0  0  0  0  0  0  0  0  0  0  0  0
  146.3300   69.2390  219.2010 C   0  0  0  0  0  0  0  0  0  0  0  0
  145.5130   70.3680  219.0960 C   0  0  0  0  0  0  0  0  0  0  0  0
  144.1150   70.2360  219.1200 C   0  0  0  0  0  0  0  0  0  0  0  0
  143.2560   71.4630  218.9490 C   0  0  0  0  0  0  0  0  0  0  0  0
  140.9140   71.2360  221.6040 N   0  0  0  0  0  0  0  0  0  0  0  0
  140.3340   71.8960  222.6420 C   0  0  0  0  0  0  0  0  0  0  0  0
  139.9490   71.1810  223.8370 N   0  0  0  0  0  0  0  0  0  0  0  0
  138.7720   70.3000  223.8420 C   0  0  0  0  0  0  0  0  0  0  0  0
  139.1290   68.9760  224.5070 C   0  0  0  0  0  0  0  0  0  0  0  0
  139.7470   69.2010  225.8590 C   0  0  0  0  0  0  0  0  0  0  0  0
  139.6710   68.1900  226.8300 C   0  0  0  0  0  0  0  0  0  0  0  0
  140.2760   68.3620  228.0770 C   0  0  0  0  0  0  0  0  0  0  0  0
  140.9740   69.5370  228.3590 C   0  0  0  0  0  0  0  0  0  0  0  0
  141.0710   70.5440  227.3950 C   0  0  0  0  0  0  0  0  0  0  0  0
  140.4690   70.3840  226.1360 C   0  0  0  0  0  0  0  0  0  0  0  0
  140.6010   71.4960  225.1190 C   0  0  0  0  0  0  0  0  0  0  0  0
  140.1130   73.2320  222.5350 N   0  0  0  0  0  0  0  0  0  0  0  0
  138.8870   75.8330  221.0060 C   0  0  0  0  0  0  0  0  0  0  0  0
  138.9700   77.2310  220.3830 C   0  0  0  0  0  0  0  0  0  0  0  0
  139.7650   78.0940  221.1750 O   0  0  0  0  0  0  0  0  0  0  0  0
  142.0245   80.4760  224.3420 H   0  0  0  0  0  0  0  0  0  0  0  0
  143.2431   80.3824  223.0256 H   0  0  0  0  0  0  0  0  0  0  0  0
  142.0203   81.6982  223.0256 H   0  0  0  0  0  0  0  0  0  0  0  0
  140.4729   79.3635  223.1185 H   0  0  0  0  0  0  0  0  0  0  0  0
  140.8073   80.3707  221.6563 H   0  0  0  0  0  0  0  0  0  0  0  0
  142.5800   78.1730  222.5630 H   0  0  0  0  0  0  0  0  0  0  0  0
  142.6180   79.0070  221.0920 H   0  0  0  0  0  0  0  0  0  0  0  0
  141.4628   77.4738  220.1820 H   0  0  0  0  0  0  0  0  0  0  0  0
  142.2018   75.8551  221.8284 H   0  0  0  0  0  0  0  0  0  0  0  0
  140.9339   76.3876  222.9867 H   0  0  0  0  0  0  0  0  0  0  0  0
  140.2171   69.9091  219.1228 H   0  0  0  0  0  0  0  0  0  0  0  0
  141.3057   70.0242  217.7037 H   0  0  0  0  0  0  0  0  0  0  0  0
  141.7605   68.5596  220.3434 H   0  0  0  0  0  0  0  0  0  0  0  0
  141.7693   67.9034  218.6489 H   0  0  0  0  0  0  0  0  0  0  0  0
  143.9308   66.8210  219.4348 H   0  0  0  0  0  0  0  0  0  0  0  0
  146.4088   67.0847  219.4114 H   0  0  0  0  0  0  0  0  0  0  0  0
  147.4242   69.3509  219.1875 H   0  0  0  0  0  0  0  0  0  0  0  0
  145.9671   71.3647  218.9941 H   0  0  0  0  0  0  0  0  0  0  0  0
  143.6642   72.2800  219.5620 H   0  0  0  0  0  0  0  0  0  0  0  0
  143.2535   71.7529  217.8879 H   0  0  0  0  0  0  0  0  0  0  0  0
  137.9560   70.7821  224.4003 H   0  0  0  0  0  0  0  0  0  0  0  0
  138.4496   70.1143  222.8068 H   0  0  0  0  0  0  0  0  0  0  0  0
  138.2154   68.3748  224.6247 H   0  0  0  0  0  0  0  0  0  0  0  0
  139.8573   68.4503  223.8721 H   0  0  0  0  0  0  0  0  0  0  0  0
  139.1320   67.2573  226.6075 H   0  0  0  0  0  0  0  0  0  0  0  0
  140.2022   67.5706  228.8375 H   0  0  0  0  0  0  0  0  0  0  0  0
  141.4488   69.6708  229.3422 H   0  0  0  0  0  0  0  0  0  0  0  0
  141.6224   71.4680  227.6236 H   0  0  0  0  0  0  0  0  0  0  0  0
  140.1412   72.4059  225.5323 H   0  0  0  0  0  0  0  0  0  0  0  0
  141.6737   71.6339  224.9184 H   0  0  0  0  0  0  0  0  0  0  0  0
  138.3940   75.1499  220.2987 H   0  0  0  0  0  0  0  0  0  0  0  0
  138.3088   75.8927  221.9399 H   0  0  0  0  0  0  0  0  0  0  0  0
  139.4149   77.1518  219.3801 H   0  0  0  0  0  0  0  0  0  0  0  0
  137.9540   77.6482  220.3226 H   0  0  0  0  0  0  0  0  0  0  0  0
  1  2  1  0
  2  3  1  0
  3  4  1  0
  4  5  1  0
  5  6  1  0
  6  7  1  0
  7  8  2  0
  8  9  1  0
  9 10  1  0
 10 11  1  0
 11 12  1  0
 12 13  1  0
 13 14  2  0
 14 15  1  0
 15 16  2  0
 16 17  1  0
 17 18  2  0
 18 19  1  0
  9 20  2  0
 20 21  1  0
 21 22  1  0
 22 23  1  0
 23 24  1  0
 24 25  1  0
 25 26  2  0
 26 27  1  0
 27 28  2  0
 28 29  1  0
 29 30  2  0
 30 31  1  0
 21 32  2  0
  6 33  1  0
 33 34  1  0
 34 35  1  0
 35  4  1  0
 32  7  1  0
 19 10  1  0
 31 22  1  0
 18 13  1  0
 30 25  1  0
  1 36  1  0
  1 37  1  0
  1 38  1  0
  2 39  1  0
  2 40  1  0
  3 41  1  0
  3 42  1  0
  4 43  1  6
  5 44  1  0
  5 45  1  0
 11 46  1  0
 11 47  1  0
 12 48  1  0
 12 49  1  0
 14 50  1  0
 15 51  1  0
 16 52  1  0
 17 53  1  0
 19 54  1  0
 19 55  1  0
 23 56  1  0
 23 57  1  0
 24 58  1  0
 24 59  1  0
 26 60  1  0
 27 61  1  0
 28 62  1  0
 29 63  1  0
 31 64  1  0
 31 65  1  0
 33 66  1  0
 33 67  1  0
 34 68  1  0
 34 69  1  0
M  CHG  1   3   1
M  END
>  <meeko>  (20) 
{"free_energy": -9.81, "intermolecular_energy": -11.3, "internal_energy": -0.84, "cluster_size": 9, "cluster_id": 2, "rank_in_cluster": 5}

$$$$
