
     RDKit          3D

 43 46  0  0  0  0  0  0  0  0999 V2000
  138.3630   75.7220  221.8520 O   0  0  0  0  0  0  0  0  0  0  0  0
  139.4760   75.2080  221.5550 C   0  0  0  0  0  0  0  0  0  0  0  0
  139.6830   73.8360  221.7810 C   0  0  0  0  0  0  0  0  0  0  0  0
  138.6930   73.0080  222.3450 C   0  0  0  0  0  0  0  0  0  0  0  0
  138.9510   71.6490  222.5540 C   0  0  0  0  0  0  0  0  0  0  0  0
  140.1910   71.1080  222.2030 C   0  0  0  0  0  0  0  0  0  0  0  0
  141.1770   71.9220  221.6390 C   0  0  0  0  0  0  0  0  0  0  0  0
  140.9250   73.2810  221.4260 C   0  0  0  0  0  0  0  0  0  0  0  0
  141.8780   74.0690  220.8760 N   0  0  0  0  0  0  0  0  0  0  0  0
  141.6760   75.3960  220.6660 C   0  0  0  0  0  0  0  0  0  0  0  0
  142.7660   76.1650  220.0530 C   0  0  0  0  0  0  0  0  0  0  0  0
  143.6100   75.5820  219.1960 C   0  0  0  0  0  0  0  0  0  0  0  0
  144.4560   74.4310  219.5550 C   0  0  0  0  0  0  0  0  0  0  0  0
  145.0270   74.3650  220.8340 C   0  0  0  0  0  0  0  0  0  0  0  0
  145.8730   73.3070  221.1680 C   0  0  0  0  0  0  0  0  0  0  0  0
  146.1540   72.3290  220.2130 C   0  0  0  0  0  0  0  0  0  0  0  0
  145.5950   72.4020  218.9770 N   0  0  0  0  0  0  0  0  0  0  0  0
  144.7590   73.4150  218.6300 C   0  0  0  0  0  0  0  0  0  0  0  0
  140.4770   75.9810  221.0100 N   0  0  0  0  0  0  0  0  0  0  0  0
  140.2540   77.4230  220.7630 C   0  0  0  0  0  0  0  0  0  0  0  0
  141.0480   78.2730  221.7250 C   0  0  0  0  0  0  0  0  0  0  0  0
  141.7330   79.4090  221.2710 C   0  0  0  0  0  0  0  0  0  0  0  0
  142.4640   80.1950  222.1660 C   0  0  0  0  0  0  0  0  0  0  0  0
  142.4960   79.8710  223.5240 C   0  0  0  0  0  0  0  0  0  0  0  0
  141.8030   78.7530  223.9880 C   0  0  0  0  0  0  0  0  0  0  0  0
  141.0740   77.9620  223.0960 C   0  0  0  0  0  0  0  0  0  0  0  0
  137.7157   73.4304  222.6215 H   0  0  0  0  0  0  0  0  0  0  0  0
  138.1763   71.0049  222.9955 H   0  0  0  0  0  0  0  0  0  0  0  0
  140.3911   70.0395  222.3710 H   0  0  0  0  0  0  0  0  0  0  0  0
  142.1517   71.4936  221.3625 H   0  0  0  0  0  0  0  0  0  0  0  0
  142.8892   77.2296  220.3010 H   0  0  0  0  0  0  0  0  0  0  0  0
  143.6759   75.9812  218.1731 H   0  0  0  0  0  0  0  0  0  0  0  0
  144.8077   75.1481  221.5747 H   0  0  0  0  0  0  0  0  0  0  0  0
  146.3140   73.2444  222.1738 H   0  0  0  0  0  0  0  0  0  0  0  0
  146.8296   71.4972  220.4616 H   0  0  0  0  0  0  0  0  0  0  0  0
  144.3176   73.4410  217.6228 H   0  0  0  0  0  0  0  0  0  0  0  0
  140.5624   77.6624  219.7346 H   0  0  0  0  0  0  0  0  0  0  0  0
  139.1854   77.6392  220.9089 H   0  0  0  0  0  0  0  0  0  0  0  0
  141.6949   79.6826  220.2063 H   0  0  0  0  0  0  0  0  0  0  0  0
  143.0165   81.0726  221.7992 H   0  0  0  0  0  0  0  0  0  0  0  0
  143.0666   80.4963  224.2264 H   0  0  0  0  0  0  0  0  0  0  0  0
  141.8303   78.4938  225.0567 H   0  0  0  0  0  0  0  0  0  0  0  0
  140.5167   77.0901  223.4690 H   0  0  0  0  0  0  0  0  0  0  0  0
  1  2  2  0
  2  3  1  0
  3  4  2  0
  4  5  1  0
  5  6  2  0
  6  7  1  0
  7  8  2  0
  8  9  1  0
  9 10  2  0
 10 11  1  0
 11 12  2  0
 12 13  1  0
 13 14  2  0
 14 15  1  0
 15 16  2  0
 16 17  1  0
 17 18  2  0
 10 19  1  0
 19 20  1  0
 20 21  1  0
 21 22  2  0
 22 23  1  0
 23 24  2  0
 24 25  1  0
 25 26  2  0
 19  2  1  0
 26 21  1  0
  8  3  1  0
 18 13  1  0
  4 27  1  0
  5 28  1  0
  6 29  1  0
  7 30  1  0
 11 31  1  0
 12 32  1  0
 14 33  1  0
 15 34  1  0
 16 35  1  0
 18 36  1  0
 20 37  1  0
 20 38  1  0
 22 39  1  0
 23 40  1  0
 24 41  1  0
 25 42  1  0
 26 43  1  0
M  END
>  <meeko>  (1) 
{"free_energy": -7.2, "intermolecular_energy": -8.69, "internal_energy": -1.33, "cluster_size": 3, "cluster_id": 2, "rank_in_cluster": 2}

$$$$

     RDKit          3D

 43 46  0  0  0  0  0  0  0  0999 V2000
  138.8360   67.7170  225.4400 O   0  0  0  0  0  0  0  0  0  0  0  0
  139.1620   68.9170  225.2230 C   0  0  0  0  0  0  0  0  0  0  0  0
  139.9150   69.6100  226.1860 C   0  0  0  0  0  0  0  0  0  0  0  0
  140.3120   69.0180  227.4000 C   0  0  0  0  0  0  0  0  0  0  0  0
  141.0580   69.7520  228.3280 C   0  0  0  0  0  0  0  0  0  0  0  0
  141.4120   71.0760  228.0530 C   0  0  0  0  0  0  0  0  0  0  0  0
  141.0260   71.6700  226.8480 C   0  0  0  0  0  0  0  0  0  0  0  0
  140.2810   70.9390  225.9150 C   0  0  0  0  0  0  0  0  0  0  0  0
  139.9110   71.5120  224.7460 N   0  0  0  0  0  0  0  0  0  0  0  0
  139.1760   70.8400  223.8220 C   0  0  0  0  0  0  0  0  0  0  0  0
  138.8330   71.5430  222.5790 C   0  0  0  0  0  0  0  0  0  0  0  0
  139.3460   72.7490  222.3170 C   0  0  0  0  0  0  0  0  0  0  0  0
  140.6440   72.9460  221.6480 C   0  0  0  0  0  0  0  0  0  0  0  0
  141.4790   71.8420  221.4240 C   0  0  0  0  0  0  0  0  0  0  0  0
  142.7330   72.0220  220.8400 C   0  0  0  0  0  0  0  0  0  0  0  0
  143.1500   73.3100  220.4980 C   0  0  0  0  0  0  0  0  0  0  0  0
  142.3320   74.3720  220.7190 N   0  0  0  0  0  0  0  0  0  0  0  0
  141.1010   74.2220  221.2760 C   0  0  0  0  0  0  0  0  0  0  0  0
  138.7870   69.5390  224.0530 N   0  0  0  0  0  0  0  0  0  0  0  0
  138.0020   68.8050  223.0360 C   0  0  0  0  0  0  0  0  0  0  0  0
  138.9020   68.0210  222.1100 C   0  0  0  0  0  0  0  0  0  0  0  0
  138.9810   66.6250  222.2100 C   0  0  0  0  0  0  0  0  0  0  0  0
  139.8120   65.9030  221.3490 C   0  0  0  0  0  0  0  0  0  0  0  0
  140.5490   66.5650  220.3640 C   0  0  0  0  0  0  0  0  0  0  0  0
  140.4630   67.9520  220.2450 C   0  0  0  0  0  0  0  0  0  0  0  0
  139.6360   68.6780  221.1070 C   0  0  0  0  0  0  0  0  0  0  0  0
  140.0350   67.9762  227.6192 H   0  0  0  0  0  0  0  0  0  0  0  0
  141.3666   69.2866  229.2757 H   0  0  0  0  0  0  0  0  0  0  0  0
  141.9956   71.6517  228.7864 H   0  0  0  0  0  0  0  0  0  0  0  0
  141.3075   72.7114  226.6329 H   0  0  0  0  0  0  0  0  0  0  0  0
  138.1482   71.0731  221.8577 H   0  0  0  0  0  0  0  0  0  0  0  0
  138.7711   73.6381  222.6154 H   0  0  0  0  0  0  0  0  0  0  0  0
  141.1450   70.8334  221.7090 H   0  0  0  0  0  0  0  0  0  0  0  0
  143.3868   71.1579  220.6508 H   0  0  0  0  0  0  0  0  0  0  0  0
  144.1422   73.4650  220.0490 H   0  0  0  0  0  0  0  0  0  0  0  0
  140.4607   75.1020  221.4361 H   0  0  0  0  0  0  0  0  0  0  0  0
  137.3177   68.1098  223.5444 H   0  0  0  0  0  0  0  0  0  0  0  0
  137.4391   69.5361  222.4371 H   0  0  0  0  0  0  0  0  0  0  0  0
  138.3865   66.0957  222.9692 H   0  0  0  0  0  0  0  0  0  0  0  0
  139.8860   64.8099  221.4472 H   0  0  0  0  0  0  0  0  0  0  0  0
  141.1964   65.9930  219.6830 H   0  0  0  0  0  0  0  0  0  0  0  0
  141.0461   68.4748  219.4726 H   0  0  0  0  0  0  0  0  0  0  0  0
  139.5591   69.7701  220.9999 H   0  0  0  0  0  0  0  0  0  0  0  0
  1  2  2  0
  2  3  1  0
  3  4  2  0
  4  5  1  0
  5  6  2  0
  6  7  1  0
  7  8  2  0
  8  9  1  0
  9 10  2  0
 10 11  1  0
 11 12  2  0
 12 13  1  0
 13 14  2  0
 14 15  1  0
 15 16  2  0
 16 17  1  0
 17 18  2  0
 10 19  1  0
 19 20  1  0
 20 21  1  0
 21 22  2  0
 22 23  1  0
 23 24  2  0
 24 25  1  0
 25 26  2  0
 19  2  1  0
 26 21  1  0
  8  3  1  0
 18 13  1  0
  4 27  1  0
  5 28  1  0
  6 29  1  0
  7 30  1  0
 11 31  1  0
 12 32  1  0
 14 33  1  0
 15 34  1  0
 16 35  1  0
 18 36  1  0
 20 37  1  0
 20 38  1  0
 22 39  1  0
 23 40  1  0
 24 41  1  0
 25 42  1  0
 26 43  1  0
M  END
>  <meeko>  (2) 
{"free_energy": -6.94, "intermolecular_energy": -8.43, "internal_energy": -1.43, "cluster_size": 14, "cluster_id": 1, "rank_in_cluster": 11}

$$$$

     RDKit          3D

 43 46  0  0  0  0  0  0  0  0999 V2000
  139.2150   67.4660  225.6000 O   0  0  0  0  0  0  0  0  0  0  0  0
  139.5100   68.6280  225.2060 C   0  0  0  0  0  0  0  0  0  0  0  0
  140.0530   69.5480  226.1200 C   0  0  0  0  0  0  0  0  0  0  0  0
  140.2700   69.2260  227.4730 C   0  0  0  0  0  0  0  0  0  0  0  0
  140.8090   70.1780  228.3440 C   0  0  0  0  0  0  0  0  0  0  0  0
  141.1350   71.4530  227.8730 C   0  0  0  0  0  0  0  0  0  0  0  0
  140.9270   71.7800  226.5310 C   0  0  0  0  0  0  0  0  0  0  0  0
  140.3890   70.8310  225.6550 C   0  0  0  0  0  0  0  0  0  0  0  0
  140.1910   71.1450  224.3540 N   0  0  0  0  0  0  0  0  0  0  0  0
  139.6590   70.2550  223.4760 C   0  0  0  0  0  0  0  0  0  0  0  0
  139.4940   70.6850  222.0810 C   0  0  0  0  0  0  0  0  0  0  0  0
  138.6670   71.6890  221.7740 C   0  0  0  0  0  0  0  0  0  0  0  0
  139.0410   73.1090  221.8950 C   0  0  0  0  0  0  0  0  0  0  0  0
  138.0370   74.0870  221.9230 C   0  0  0  0  0  0  0  0  0  0  0  0
  138.3790   75.4380  221.9840 C   0  0  0  0  0  0  0  0  0  0  0  0
  139.7270   75.8020  221.9990 C   0  0  0  0  0  0  0  0  0  0  0  0
  140.6920   74.8450  221.9710 N   0  0  0  0  0  0  0  0  0  0  0  0
  140.3850   73.5230  221.9240 C   0  0  0  0  0  0  0  0  0  0  0  0
  139.3060   68.9910  223.8940 N   0  0  0  0  0  0  0  0  0  0  0  0
  138.7430   68.0180  222.9300 C   0  0  0  0  0  0  0  0  0  0  0  0
  137.2420   68.1520  222.8290 C   0  0  0  0  0  0  0  0  0  0  0  0
  136.5120   67.3270  221.9630 C   0  0  0  0  0  0  0  0  0  0  0  0
  135.1230   67.4520  221.8750 C   0  0  0  0  0  0  0  0  0  0  0  0
  134.4490   68.3810  222.6700 C   0  0  0  0  0  0  0  0  0  0  0  0
  135.1640   69.1940  223.5480 C   0  0  0  0  0  0  0  0  0  0  0  0
  136.5550   69.0760  223.6370 C   0  0  0  0  0  0  0  0  0  0  0  0
  140.0150   68.2231  227.8461 H   0  0  0  0  0  0  0  0  0  0  0  0
  140.9766   69.9232  229.4009 H   0  0  0  0  0  0  0  0  0  0  0  0
  141.5564   72.2008  228.5609 H   0  0  0  0  0  0  0  0  0  0  0  0
  141.1862   72.7837  226.1629 H   0  0  0  0  0  0  0  0  0  0  0  0
  140.0554   70.1768  221.2831 H   0  0  0  0  0  0  0  0  0  0  0  0
  137.6574   71.4431  221.4132 H   0  0  0  0  0  0  0  0  0  0  0  0
  136.9785   73.7888  221.8969 H   0  0  0  0  0  0  0  0  0  0  0  0
  137.5949   76.2086  222.0199 H   0  0  0  0  0  0  0  0  0  0  0  0
  140.0085   76.8648  222.0335 H   0  0  0  0  0  0  0  0  0  0  0  0
  141.1900   72.7735  221.9085 H   0  0  0  0  0  0  0  0  0  0  0  0
  139.1863   68.1975  221.9394 H   0  0  0  0  0  0  0  0  0  0  0  0
  138.9782   67.0032  223.2833 H   0  0  0  0  0  0  0  0  0  0  0  0
  137.0345   66.5779  221.3499 H   0  0  0  0  0  0  0  0  0  0  0  0
  134.5586   66.8162  221.1769 H   0  0  0  0  0  0  0  0  0  0  0  0
  133.3547   68.4713  222.6035 H   0  0  0  0  0  0  0  0  0  0  0  0
  134.6339   69.9290  224.1715 H   0  0  0  0  0  0  0  0  0  0  0  0
  137.1141   69.7087  224.3420 H   0  0  0  0  0  0  0  0  0  0  0  0
  1  2  2  0
  2  3  1  0
  3  4  2  0
  4  5  1  0
  5  6  2  0
  6  7  1  0
  7  8  2  0
  8  9  1  0
  9 10  2  0
 10 11  1  0
 11 12  2  0
 12 13  1  0
 13 14  2  0
 14 15  1  0
 15 16  2  0
 16 17  1  0
 17 18  2  0
 10 19  1  0
 19 20  1  0
 20 21  1  0
 21 22  2  0
 22 23  1  0
 23 24  2  0
 24 25  1  0
 25 26  2  0
 19  2  1  0
 26 21  1  0
  8  3  1  0
 18 13  1  0
  4 27  1  0
  5 28  1  0
  6 29  1  0
  7 30  1  0
 11 31  1  0
 12 32  1  0
 14 33  1  0
 15 34  1  0
 16 35  1  0
 18 36  1  0
 20 37  1  0
 20 38  1  0
 22 39  1  0
 23 40  1  0
 24 41  1  0
 25 42  1  0
 26 43  1  0
M  END
>  <meeko>  (3) 
{"free_energy": -7.14, "intermolecular_energy": -8.63, "internal_energy": -1.34, "cluster_size": 14, "cluster_id": 1, "rank_in_cluster": 7}

$$$$

     RDKit          3D

 43 46  0  0  0  0  0  0  0  0999 V2000
  139.1900   67.6040  225.5660 O   0  0  0  0  0  0  0  0  0  0  0  0
  139.5300   68.7540  225.1720 C   0  0  0  0  0  0  0  0  0  0  0  0
  140.0600   69.6710  226.0970 C   0  0  0  0  0  0  0  0  0  0  0  0
  140.2140   69.3590  227.4610 C   0  0  0  0  0  0  0  0  0  0  0  0
  140.7430   70.3080  228.3420 C   0  0  0  0  0  0  0  0  0  0  0  0
  141.1190   71.5690  227.8710 C   0  0  0  0  0  0  0  0  0  0  0  0
  140.9730   71.8850  226.5180 C   0  0  0  0  0  0  0  0  0  0  0  0
  140.4460   70.9390  225.6310 C   0  0  0  0  0  0  0  0  0  0  0  0
  140.3080   71.2430  224.3200 N   0  0  0  0  0  0  0  0  0  0  0  0
  139.7880   70.3560  223.4310 C   0  0  0  0  0  0  0  0  0  0  0  0
  139.6890   70.7740  222.0260 C   0  0  0  0  0  0  0  0  0  0  0  0
  140.6940   71.4340  221.4420 C   0  0  0  0  0  0  0  0  0  0  0  0
  140.7870   72.9040  221.4180 C   0  0  0  0  0  0  0  0  0  0  0  0
  141.8940   73.5160  220.8140 C   0  0  0  0  0  0  0  0  0  0  0  0
  142.0200   74.9060  220.8310 C   0  0  0  0  0  0  0  0  0  0  0  0
  141.0440   75.6730  221.4680 C   0  0  0  0  0  0  0  0  0  0  0  0
  139.9750   75.0690  222.0500 N   0  0  0  0  0  0  0  0  0  0  0  0
  139.8220   73.7190  222.0370 C   0  0  0  0  0  0  0  0  0  0  0  0
  139.3870   69.1070  223.8480 N   0  0  0  0  0  0  0  0  0  0  0  0
  138.8380   68.1370  222.8740 C   0  0  0  0  0  0  0  0  0  0  0  0
  137.3290   68.1770  222.8500 C   0  0  0  0  0  0  0  0  0  0  0  0
  136.6290   69.0820  223.6610 C   0  0  0  0  0  0  0  0  0  0  0  0
  135.2330   69.1180  223.6330 C   0  0  0  0  0  0  0  0  0  0  0  0
  134.5240   68.2720  222.7770 C   0  0  0  0  0  0  0  0  0  0  0  0
  135.2120   67.3810  221.9540 C   0  0  0  0  0  0  0  0  0  0  0  0
  136.6090   67.3390  221.9810 C   0  0  0  0  0  0  0  0  0  0  0  0
  139.9180   68.3676  227.8345 H   0  0  0  0  0  0  0  0  0  0  0  0
  140.8633   70.0614  229.4072 H   0  0  0  0  0  0  0  0  0  0  0  0
  141.5309   72.3144  228.5672 H   0  0  0  0  0  0  0  0  0  0  0  0
  141.2722   72.8774  226.1497 H   0  0  0  0  0  0  0  0  0  0  0  0
  138.7809   70.5420  221.4503 H   0  0  0  0  0  0  0  0  0  0  0  0
  141.4902   70.8512  220.9558 H   0  0  0  0  0  0  0  0  0  0  0  0
  142.6641   72.9003  220.3262 H   0  0  0  0  0  0  0  0  0  0  0  0
  142.8801   75.3918  220.3471 H   0  0  0  0  0  0  0  0  0  0  0  0
  141.1401   76.7684  221.4991 H   0  0  0  0  0  0  0  0  0  0  0  0
  138.9412   73.2622  222.5118 H   0  0  0  0  0  0  0  0  0  0  0  0
  139.2188   68.3816  221.8714 H   0  0  0  0  0  0  0  0  0  0  0  0
  139.1535   67.1271  223.1748 H   0  0  0  0  0  0  0  0  0  0  0  0
  137.1815   69.7662  224.3218 H   0  0  0  0  0  0  0  0  0  0  0  0
  134.6898   69.8153  224.2877 H   0  0  0  0  0  0  0  0  0  0  0  0
  133.4249   68.3086  222.7521 H   0  0  0  0  0  0  0  0  0  0  0  0
  134.6549   66.7106  221.2830 H   0  0  0  0  0  0  0  0  0  0  0  0
  137.1481   66.6460  221.3183 H   0  0  0  0  0  0  0  0  0  0  0  0
  1  2  2  0
  2  3  1  0
  3  4  2  0
  4  5  1  0
  5  6  2  0
  6  7  1  0
  7  8  2  0
  8  9  1  0
  9 10  2  0
 10 11  1  0
 11 12  2  0
 12 13  1  0
 13 14  2  0
 14 15  1  0
 15 16  2  0
 16 17  1  0
 17 18  2  0
 10 19  1  0
 19 20  1  0
 20 21  1  0
 21 22  2  0
 22 23  1  0
 23 24  2  0
 24 25  1  0
 25 26  2  0
 19  2  1  0
 26 21  1  0
  8  3  1  0
 18 13  1  0
  4 27  1  0
  5 28  1  0
  6 29  1  0
  7 30  1  0
 11 31  1  0
 12 32  1  0
 14 33  1  0
 15 34  1  0
 16 35  1  0
 18 36  1  0
 20 37  1  0
 20 38  1  0
 22 39  1  0
 23 40  1  0
 24 41  1  0
 25 42  1  0
 26 43  1  0
M  END
>  <meeko>  (4) 
{"free_energy": -7.33, "intermolecular_energy": -8.82, "internal_energy": -1.19, "cluster_size": 14, "cluster_id": 1, "rank_in_cluster": 3}

$$$$

     RDKit          3D

 43 46  0  0  0  0  0  0  0  0999 V2000
  139.2130   67.4690  225.6260 O   0  0  0  0  0  0  0  0  0  0  0  0
  139.4890   68.6340  225.2250 C   0  0  0  0  0  0  0  0  0  0  0  0
  140.0310   69.5630  226.1310 C   0  0  0  0  0  0  0  0  0  0  0  0
  140.2670   69.2480  227.4820 C   0  0  0  0  0  0  0  0  0  0  0  0
  140.8040   70.2100  228.3440 C   0  0  0  0  0  0  0  0  0  0  0  0
  141.1080   71.4870  227.8660 C   0  0  0  0  0  0  0  0  0  0  0  0
  140.8810   71.8070  226.5250 C   0  0  0  0  0  0  0  0  0  0  0  0
  140.3460   70.8480  225.6580 C   0  0  0  0  0  0  0  0  0  0  0  0
  140.1290   71.1560  224.3580 N   0  0  0  0  0  0  0  0  0  0  0  0
  139.5990   70.2560  223.4890 C   0  0  0  0  0  0  0  0  0  0  0  0
  139.4130   70.6810  222.0950 C   0  0  0  0  0  0  0  0  0  0  0  0
  138.6020   71.7010  221.7980 C   0  0  0  0  0  0  0  0  0  0  0  0
  139.0080   73.1120  221.9080 C   0  0  0  0  0  0  0  0  0  0  0  0
  138.0250   74.1120  221.9450 C   0  0  0  0  0  0  0  0  0  0  0  0
  138.3970   75.4560  221.9960 C   0  0  0  0  0  0  0  0  0  0  0  0
  139.7530   75.7910  221.9940 C   0  0  0  0  0  0  0  0  0  0  0  0
  140.6960   74.8130  221.9590 N   0  0  0  0  0  0  0  0  0  0  0  0
  140.3600   73.4970  221.9210 C   0  0  0  0  0  0  0  0  0  0  0  0
  139.2660   68.9900  223.9140 N   0  0  0  0  0  0  0  0  0  0  0  0
  138.7050   68.0070  222.9600 C   0  0  0  0  0  0  0  0  0  0  0  0
  137.2040   68.1380  222.8570 C   0  0  0  0  0  0  0  0  0  0  0  0
  136.5170   69.0770  223.6390 C   0  0  0  0  0  0  0  0  0  0  0  0
  135.1290   69.1970  223.5370 C   0  0  0  0  0  0  0  0  0  0  0  0
  134.4170   68.4010  222.6370 C   0  0  0  0  0  0  0  0  0  0  0  0
  135.0940   67.4760  221.8420 C   0  0  0  0  0  0  0  0  0  0  0  0
  136.4830   67.3500  221.9430 C   0  0  0  0  0  0  0  0  0  0  0  0
  140.0287   68.2432  227.8610 H   0  0  0  0  0  0  0  0  0  0  0  0
  140.9871   69.9606  229.3996 H   0  0  0  0  0  0  0  0  0  0  0  0
  141.5271   72.2424  228.5470 H   0  0  0  0  0  0  0  0  0  0  0  0
  141.1229   72.8128  226.1509 H   0  0  0  0  0  0  0  0  0  0  0  0
  139.9457   70.1553  221.2889 H   0  0  0  0  0  0  0  0  0  0  0  0
  137.5816   71.4754  221.4547 H   0  0  0  0  0  0  0  0  0  0  0  0
  136.9601   73.8365  221.9338 H   0  0  0  0  0  0  0  0  0  0  0  0
  137.6302   76.2436  222.0374 H   0  0  0  0  0  0  0  0  0  0  0  0
  140.0580   76.8475  222.0208 H   0  0  0  0  0  0  0  0  0  0  0  0
  141.1485   72.7303  221.9003 H   0  0  0  0  0  0  0  0  0  0  0  0
  139.1485   68.1770  221.9679 H   0  0  0  0  0  0  0  0  0  0  0  0
  138.9413   66.9961  223.3236 H   0  0  0  0  0  0  0  0  0  0  0  0
  137.0730   69.7217  224.3356 H   0  0  0  0  0  0  0  0  0  0  0  0
  134.5943   69.9218  224.1685 H   0  0  0  0  0  0  0  0  0  0  0  0
  133.3248   68.5032  222.5552 H   0  0  0  0  0  0  0  0  0  0  0  0
  134.5348   66.8453  221.1352 H   0  0  0  0  0  0  0  0  0  0  0  0
  137.0146   66.6300  221.3035 H   0  0  0  0  0  0  0  0  0  0  0  0
  1  2  2  0
  2  3  1  0
  3  4  2  0
  4  5  1  0
  5  6  2  0
  6  7  1  0
  7  8  2  0
  8  9  1  0
  9 10  2  0
 10 11  1  0
 11 12  2  0
 12 13  1  0
 13 14  2  0
 14 15  1  0
 15 16  2  0
 16 17  1  0
 17 18  2  0
 10 19  1  0
 19 20  1  0
 20 21  1  0
 21 22  2  0
 22 23  1  0
 23 24  2  0
 24 25  1  0
 25 26  2  0
 19  2  1  0
 26 21  1  0
  8  3  1  0
 18 13  1  0
  4 27  1  0
  5 28  1  0
  6 29  1  0
  7 30  1  0
 11 31  1  0
 12 32  1  0
 14 33  1  0
 15 34  1  0
 16 35  1  0
 18 36  1  0
 20 37  1  0
 20 38  1  0
 22 39  1  0
 23 40  1  0
 24 41  1  0
 25 42  1  0
 26 43  1  0
M  END
>  <meeko>  (5) 
{"free_energy": -7.14, "intermolecular_energy": -8.63, "internal_energy": -1.34, "cluster_size": 14, "cluster_id": 1, "rank_in_cluster": 6}

$$$$

     RDKit          3D

 43 46  0  0  0  0  0  0  0  0999 V2000
  139.2730   67.3870  225.4690 O   0  0  0  0  0  0  0  0  0  0  0  0
  139.5200   68.5790  225.1360 C   0  0  0  0  0  0  0  0  0  0  0  0
  140.0480   69.4650  226.0910 C   0  0  0  0  0  0  0  0  0  0  0  0
  140.3010   69.0760  227.4200 C   0  0  0  0  0  0  0  0  0  0  0  0
  140.8230   69.9970  228.3340 C   0  0  0  0  0  0  0  0  0  0  0  0
  141.0960   71.3080  227.9300 C   0  0  0  0  0  0  0  0  0  0  0  0
  140.8520   71.7010  226.6120 C   0  0  0  0  0  0  0  0  0  0  0  0
  140.3310   70.7830  225.6930 C   0  0  0  0  0  0  0  0  0  0  0  0
  140.0980   71.1620  224.4150 N   0  0  0  0  0  0  0  0  0  0  0  0
  139.5800   70.3030  223.4970 C   0  0  0  0  0  0  0  0  0  0  0  0
  139.3740   70.8050  222.1320 C   0  0  0  0  0  0  0  0  0  0  0  0
  138.5720   71.8500  221.9060 C   0  0  0  0  0  0  0  0  0  0  0  0
  139.0320   73.2480  221.9690 C   0  0  0  0  0  0  0  0  0  0  0  0
  138.0890   74.2860  221.9700 C   0  0  0  0  0  0  0  0  0  0  0  0
  138.5120   75.6150  221.9750 C   0  0  0  0  0  0  0  0  0  0  0  0
  139.8790   75.8970  221.9630 C   0  0  0  0  0  0  0  0  0  0  0  0
  140.7840   74.8840  221.9620 N   0  0  0  0  0  0  0  0  0  0  0  0
  140.3980   73.5810  221.9690 C   0  0  0  0  0  0  0  0  0  0  0  0
  139.2790   69.0070  223.8490 N   0  0  0  0  0  0  0  0  0  0  0  0
  138.7320   68.0700  222.8420 C   0  0  0  0  0  0  0  0  0  0  0  0
  137.2250   68.1360  222.7930 C   0  0  0  0  0  0  0  0  0  0  0  0
  136.5020   67.2730  221.9580 C   0  0  0  0  0  0  0  0  0  0  0  0
  135.1070   67.3350  221.9180 C   0  0  0  0  0  0  0  0  0  0  0  0
  134.4200   68.2410  222.7290 C   0  0  0  0  0  0  0  0  0  0  0  0
  135.1280   69.0920  223.5770 C   0  0  0  0  0  0  0  0  0  0  0  0
  136.5250   69.0350  223.6170 C   0  0  0  0  0  0  0  0  0  0  0  0
  140.0877   68.0455  227.7403 H   0  0  0  0  0  0  0  0  0  0  0  0
  141.0191   69.6900  229.3719 H   0  0  0  0  0  0  0  0  0  0  0  0
  141.5037   72.0311  228.6518 H   0  0  0  0  0  0  0  0  0  0  0  0
  141.0694   72.7321  226.2964 H   0  0  0  0  0  0  0  0  0  0  0  0
  139.8841   70.3167  221.2886 H   0  0  0  0  0  0  0  0  0  0  0  0
  137.5172   71.6567  221.6611 H   0  0  0  0  0  0  0  0  0  0  0  0
  137.0143   74.0517  221.9668 H   0  0  0  0  0  0  0  0  0  0  0  0
  137.7760   76.4324  221.9883 H   0  0  0  0  0  0  0  0  0  0  0  0
  140.2240   76.9415  221.9543 H   0  0  0  0  0  0  0  0  0  0  0  0
  141.1566   72.7844  221.9747 H   0  0  0  0  0  0  0  0  0  0  0  0
  139.1345   68.3324  221.8525 H   0  0  0  0  0  0  0  0  0  0  0  0
  139.0258   67.0479  223.1231 H   0  0  0  0  0  0  0  0  0  0  0  0
  137.0357   66.5434  221.3312 H   0  0  0  0  0  0  0  0  0  0  0  0
  134.5477   66.6680  221.2455 H   0  0  0  0  0  0  0  0  0  0  0  0
  133.3212   68.2833  222.6989 H   0  0  0  0  0  0  0  0  0  0  0  0
  134.5881   69.8078  224.2142 H   0  0  0  0  0  0  0  0  0  0  0  0
  137.0796   69.6978  224.2975 H   0  0  0  0  0  0  0  0  0  0  0  0
  1  2  2  0
  2  3  1  0
  3  4  2  0
  4  5  1  0
  5  6  2  0
  6  7  1  0
  7  8  2  0
  8  9  1  0
  9 10  2  0
 10 11  1  0
 11 12  2  0
 12 13  1  0
 13 14  2  0
 14 15  1  0
 15 16  2  0
 16 17  1  0
 17 18  2  0
 10 19  1  0
 19 20  1  0
 20 21  1  0
 21 22  2  0
 22 23  1  0
 23 24  2  0
 24 25  1  0
 25 26  2  0
 19  2  1  0
 26 21  1  0
  8  3  1  0
 18 13  1  0
  4 27  1  0
  5 28  1  0
  6 29  1  0
  7 30  1  0
 11 31  1  0
 12 32  1  0
 14 33  1  0
 15 34  1  0
 16 35  1  0
 18 36  1  0
 20 37  1  0
 20 38  1  0
 22 39  1  0
 23 40  1  0
 24 41  1  0
 25 42  1  0
 26 43  1  0
M  END
>  <meeko>  (6) 
{"free_energy": -7.18, "intermolecular_energy": -8.67, "internal_energy": -1.3, "cluster_size": 14, "cluster_id": 1, "rank_in_cluster": 5}

$$$$

     RDKit          3D

 43 46  0  0  0  0  0  0  0  0999 V2000
  139.1750   67.5550  225.7220 O   0  0  0  0  0  0  0  0  0  0  0  0
  139.5010   68.6870  225.2690 C   0  0  0  0  0  0  0  0  0  0  0  0
  140.0560   69.6420  226.1390 C   0  0  0  0  0  0  0  0  0  0  0  0
  140.2520   69.3890  227.5090 C   0  0  0  0  0  0  0  0  0  0  0  0
  140.8050   70.3750  228.3330 C   0  0  0  0  0  0  0  0  0  0  0  0
  141.1640   71.6150  227.7980 C   0  0  0  0  0  0  0  0  0  0  0  0
  140.9770   71.8730  226.4380 C   0  0  0  0  0  0  0  0  0  0  0  0
  140.4260   70.8900  225.6090 C   0  0  0  0  0  0  0  0  0  0  0  0
  140.2480   71.1380  224.2900 N   0  0  0  0  0  0  0  0  0  0  0  0
  139.7040   70.2140  223.4560 C   0  0  0  0  0  0  0  0  0  0  0  0
  139.5620   70.5720  222.0380 C   0  0  0  0  0  0  0  0  0  0  0  0
  140.5500   71.2000  221.3940 C   0  0  0  0  0  0  0  0  0  0  0  0
  140.7040   72.6650  221.3860 C   0  0  0  0  0  0  0  0  0  0  0  0
  141.8630   73.2350  220.8400 C   0  0  0  0  0  0  0  0  0  0  0  0
  142.0450   74.6180  220.8740 C   0  0  0  0  0  0  0  0  0  0  0  0
  141.0700   75.4210  221.4680 C   0  0  0  0  0  0  0  0  0  0  0  0
  139.9500   74.8590  221.9930 N   0  0  0  0  0  0  0  0  0  0  0  0
  139.7440   73.5160  221.9630 C   0  0  0  0  0  0  0  0  0  0  0  0
  139.3170   68.9830  223.9370 N   0  0  0  0  0  0  0  0  0  0  0  0
  138.7420   67.9720  223.0210 C   0  0  0  0  0  0  0  0  0  0  0  0
  137.2480   68.1430  222.8850 C   0  0  0  0  0  0  0  0  0  0  0  0
  136.5650   69.0830  223.6700 C   0  0  0  0  0  0  0  0  0  0  0  0
  135.1830   69.2400  223.5380 C   0  0  0  0  0  0  0  0  0  0  0  0
  134.4750   68.4810  222.6040 C   0  0  0  0  0  0  0  0  0  0  0  0
  135.1470   67.5560  221.8060 C   0  0  0  0  0  0  0  0  0  0  0  0
  136.5300   67.3930  221.9370 C   0  0  0  0  0  0  0  0  0  0  0  0
  139.9699   68.4140  227.9330 H   0  0  0  0  0  0  0  0  0  0  0  0
  140.9574   70.1739  229.4037 H   0  0  0  0  0  0  0  0  0  0  0  0
  141.5948   72.3897  228.4493 H   0  0  0  0  0  0  0  0  0  0  0  0
  141.2630   72.8490  226.0189 H   0  0  0  0  0  0  0  0  0  0  0  0
  138.6347   70.3209  221.5022 H   0  0  0  0  0  0  0  0  0  0  0  0
  141.2840   70.5936  220.8431 H   0  0  0  0  0  0  0  0  0  0  0  0
  142.6296   72.5911  220.3843 H   0  0  0  0  0  0  0  0  0  0  0  0
  142.9474   75.0707  220.4372 H   0  0  0  0  0  0  0  0  0  0  0  0
  141.2088   76.5114  221.5112 H   0  0  0  0  0  0  0  0  0  0  0  0
  138.8234   73.0930  222.3914 H   0  0  0  0  0  0  0  0  0  0  0  0
  139.2069   68.0805  222.0300 H   0  0  0  0  0  0  0  0  0  0  0  0
  138.9412   66.9732  223.4366 H   0  0  0  0  0  0  0  0  0  0  0  0
  137.1197   69.6994  224.3928 H   0  0  0  0  0  0  0  0  0  0  0  0
  134.6507   69.9642  224.1722 H   0  0  0  0  0  0  0  0  0  0  0  0
  133.3881   68.6127  222.4979 H   0  0  0  0  0  0  0  0  0  0  0  0
  134.5894   66.9543  221.0732 H   0  0  0  0  0  0  0  0  0  0  0  0
  137.0590   66.6737  221.2945 H   0  0  0  0  0  0  0  0  0  0  0  0
  1  2  2  0
  2  3  1  0
  3  4  2  0
  4  5  1  0
  5  6  2  0
  6  7  1  0
  7  8  2  0
  8  9  1  0
  9 10  2  0
 10 11  1  0
 11 12  2  0
 12 13  1  0
 13 14  2  0
 14 15  1  0
 15 16  2  0
 16 17  1  0
 17 18  2  0
 10 19  1  0
 19 20  1  0
 20 21  1  0
 21 22  2  0
 22 23  1  0
 23 24  2  0
 24 25  1  0
 25 26  2  0
 19  2  1  0
 26 21  1  0
  8  3  1  0
 18 13  1  0
  4 27  1  0
  5 28  1  0
  6 29  1  0
  7 30  1  0
 11 31  1  0
 12 32  1  0
 14 33  1  0
 15 34  1  0
 16 35  1  0
 18 36  1  0
 20 37  1  0
 20 38  1  0
 22 39  1  0
 23 40  1  0
 24 41  1  0
 25 42  1  0
 26 43  1  0
M  END
>  <meeko>  (7) 
{"free_energy": -7.3, "intermolecular_energy": -8.79, "internal_energy": -1.23, "cluster_size": 14, "cluster_id": 1, "rank_in_cluster": 4}

$$$$

     RDKit          3D

 43 46  0  0  0  0  0  0  0  0999 V2000
  139.2410   67.4320  225.6940 O   0  0  0  0  0  0  0  0  0  0  0  0
  139.4980   68.5920  225.2680 C   0  0  0  0  0  0  0  0  0  0  0  0
  140.0440   69.5430  226.1480 C   0  0  0  0  0  0  0  0  0  0  0  0
  140.3050   69.2550  227.5010 C   0  0  0  0  0  0  0  0  0  0  0  0
  140.8450   70.2380  228.3370 C   0  0  0  0  0  0  0  0  0  0  0  0
  141.1280   71.5100  227.8310 C   0  0  0  0  0  0  0  0  0  0  0  0
  140.8770   71.8030  226.4880 C   0  0  0  0  0  0  0  0  0  0  0  0
  140.3380   70.8230  225.6470 C   0  0  0  0  0  0  0  0  0  0  0  0
  140.0980   71.1040  224.3450 N   0  0  0  0  0  0  0  0  0  0  0  0
  139.5640   70.1840  223.5010 C   0  0  0  0  0  0  0  0  0  0  0  0
  139.3520   70.5810  222.1030 C   0  0  0  0  0  0  0  0  0  0  0  0
  138.5570   71.6130  221.8030 C   0  0  0  0  0  0  0  0  0  0  0  0
  138.9860   73.0180  221.9110 C   0  0  0  0  0  0  0  0  0  0  0  0
  138.0200   74.0350  221.9300 C   0  0  0  0  0  0  0  0  0  0  0  0
  138.4150   75.3720  221.9780 C   0  0  0  0  0  0  0  0  0  0  0  0
  139.7750   75.6840  221.9920 C   0  0  0  0  0  0  0  0  0  0  0  0
  140.7020   74.6910  221.9740 N   0  0  0  0  0  0  0  0  0  0  0  0
  140.3450   73.3800  221.9390 C   0  0  0  0  0  0  0  0  0  0  0  0
  139.2510   68.9220  223.9550 N   0  0  0  0  0  0  0  0  0  0  0  0
  138.6860   67.9160  223.0270 C   0  0  0  0  0  0  0  0  0  0  0  0
  137.2070   68.1370  222.8140 C   0  0  0  0  0  0  0  0  0  0  0  0
  136.5110   67.4000  221.8450 C   0  0  0  0  0  0  0  0  0  0  0  0
  135.1420   67.6050  221.6540 C   0  0  0  0  0  0  0  0  0  0  0  0
  134.4520   68.5270  222.4440 C   0  0  0  0  0  0  0  0  0  0  0  0
  135.1320   69.2520  223.4220 C   0  0  0  0  0  0  0  0  0  0  0  0
  136.5020   69.0520  223.6150 C   0  0  0  0  0  0  0  0  0  0  0  0
  140.0838   68.2548  227.9017 H   0  0  0  0  0  0  0  0  0  0  0  0
  141.0472   70.0098  229.3939 H   0  0  0  0  0  0  0  0  0  0  0  0
  141.5493   72.2821  228.4916 H   0  0  0  0  0  0  0  0  0  0  0  0
  141.1031   72.8040  226.0919 H   0  0  0  0  0  0  0  0  0  0  0  0
  139.8515   70.0246  221.2962 H   0  0  0  0  0  0  0  0  0  0  0  0
  137.5335   71.4029  221.4590 H   0  0  0  0  0  0  0  0  0  0  0  0
  136.9507   73.7781  221.9070 H   0  0  0  0  0  0  0  0  0  0  0  0
  137.6614   76.1729  222.0046 H   0  0  0  0  0  0  0  0  0  0  0  0
  140.0970   76.7355  222.0177 H   0  0  0  0  0  0  0  0  0  0  0  0
  141.1207   72.6001  221.9325 H   0  0  0  0  0  0  0  0  0  0  0  0
  139.2028   67.9911  222.0589 H   0  0  0  0  0  0  0  0  0  0  0  0
  138.8286   66.9181  223.4672 H   0  0  0  0  0  0  0  0  0  0  0  0
  137.0446   66.6579  221.2331 H   0  0  0  0  0  0  0  0  0  0  0  0
  134.6059   67.0381  220.8786 H   0  0  0  0  0  0  0  0  0  0  0  0
  133.3731   68.6812  222.2949 H   0  0  0  0  0  0  0  0  0  0  0  0
  134.5902   69.9815  224.0418 H   0  0  0  0  0  0  0  0  0  0  0  0
  137.0315   69.6140  224.3984 H   0  0  0  0  0  0  0  0  0  0  0  0
  1  2  2  0
  2  3  1  0
  3  4  2  0
  4  5  1  0
  5  6  2  0
  6  7  1  0
  7  8  2  0
  8  9  1  0
  9 10  2  0
 10 11  1  0
 11 12  2  0
 12 13  1  0
 13 14  2  0
 14 15  1  0
 15 16  2  0
 16 17  1  0
 17 18  2  0
 10 19  1  0
 19 20  1  0
 20 21  1  0
 21 22  2  0
 22 23  1  0
 23 24  2  0
 24 25  1  0
 25 26  2  0
 19  2  1  0
 26 21  1  0
  8  3  1  0
 18 13  1  0
  4 27  1  0
  5 28  1  0
  6 29  1  0
  7 30  1  0
 11 31  1  0
 12 32  1  0
 14 33  1  0
 15 34  1  0
 16 35  1  0
 18 36  1  0
 20 37  1  0
 20 38  1  0
 22 39  1  0
 23 40  1  0
 24 41  1  0
 25 42  1  0
 26 43  1  0
M  END
>  <meeko>  (8) 
{"free_energy": -7.13, "intermolecular_energy": -8.62, "internal_energy": -1.36, "cluster_size": 14, "cluster_id": 1, "rank_in_cluster": 8}

$$$$

     RDKit          3D

 43 46  0  0  0  0  0  0  0  0999 V2000
  139.1780   67.5130  225.5370 O   0  0  0  0  0  0  0  0  0  0  0  0
  139.4750   68.6810  225.1620 C   0  0  0  0  0  0  0  0  0  0  0  0
  140.0040   69.5900  226.0960 C   0  0  0  0  0  0  0  0  0  0  0  0
  140.2040   69.2500  227.4470 C   0  0  0  0  0  0  0  0  0  0  0  0
  140.7290   70.1920  228.3370 C   0  0  0  0  0  0  0  0  0  0  0  0
  141.0580   71.4740  227.8880 C   0  0  0  0  0  0  0  0  0  0  0  0
  140.8660   71.8190  226.5470 C   0  0  0  0  0  0  0  0  0  0  0  0
  140.3430   70.8790  225.6520 C   0  0  0  0  0  0  0  0  0  0  0  0
  140.1610   71.2100  224.3520 N   0  0  0  0  0  0  0  0  0  0  0  0
  139.6420   70.3300  223.4560 C   0  0  0  0  0  0  0  0  0  0  0  0
  139.4940   70.7790  222.0650 C   0  0  0  0  0  0  0  0  0  0  0  0
  140.5030   71.3910  221.4380 C   0  0  0  0  0  0  0  0  0  0  0  0
  140.6660   72.8550  221.4090 C   0  0  0  0  0  0  0  0  0  0  0  0
  141.8110   73.4110  220.8230 C   0  0  0  0  0  0  0  0  0  0  0  0
  142.0030   74.7930  220.8370 C   0  0  0  0  0  0  0  0  0  0  0  0
  141.0530   75.6090  221.4530 C   0  0  0  0  0  0  0  0  0  0  0  0
  139.9460   75.0590  222.0170 N   0  0  0  0  0  0  0  0  0  0  0  0
  139.7290   73.7180  222.0070 C   0  0  0  0  0  0  0  0  0  0  0  0
  139.2870   69.0610  223.8520 N   0  0  0  0  0  0  0  0  0  0  0  0
  138.7390   68.0990  222.8690 C   0  0  0  0  0  0  0  0  0  0  0  0
  137.2340   68.1830  222.7990 C   0  0  0  0  0  0  0  0  0  0  0  0
  136.5370   69.1120  223.5850 C   0  0  0  0  0  0  0  0  0  0  0  0
  135.1430   69.1890  223.5140 C   0  0  0  0  0  0  0  0  0  0  0  0
  134.4360   68.3590  222.6410 C   0  0  0  0  0  0  0  0  0  0  0  0
  135.1220   67.4450  221.8420 C   0  0  0  0  0  0  0  0  0  0  0  0
  136.5160   67.3620  221.9120 C   0  0  0  0  0  0  0  0  0  0  0  0
  139.9469   68.2416  227.8033 H   0  0  0  0  0  0  0  0  0  0  0  0
  140.8834   69.9236  229.3925 H   0  0  0  0  0  0  0  0  0  0  0  0
  141.4689   72.2132  228.5914 H   0  0  0  0  0  0  0  0  0  0  0  0
  141.1258   72.8285  226.1956 H   0  0  0  0  0  0  0  0  0  0  0  0
  138.5449   70.6100  221.5353 H   0  0  0  0  0  0  0  0  0  0  0  0
  141.2484   70.7713  220.9180 H   0  0  0  0  0  0  0  0  0  0  0  0
  142.5594   72.7572  220.3514 H   0  0  0  0  0  0  0  0  0  0  0  0
  142.8941   75.2349  220.3673 H   0  0  0  0  0  0  0  0  0  0  0  0
  141.2006   76.6987  221.4819 H   0  0  0  0  0  0  0  0  0  0  0  0
  138.8189   73.3059  222.4673 H   0  0  0  0  0  0  0  0  0  0  0  0
  139.1568   68.3238  221.8766 H   0  0  0  0  0  0  0  0  0  0  0  0
  139.0153   67.0828  223.1869 H   0  0  0  0  0  0  0  0  0  0  0  0
  137.0892   69.7825  224.2599 H   0  0  0  0  0  0  0  0  0  0  0  0
  134.6008   69.9060  224.1481 H   0  0  0  0  0  0  0  0  0  0  0  0
  133.3396   68.4263  222.5839 H   0  0  0  0  0  0  0  0  0  0  0  0
  134.5661   66.7888  221.1561 H   0  0  0  0  0  0  0  0  0  0  0  0
  137.0542   66.6499  221.2691 H   0  0  0  0  0  0  0  0  0  0  0  0
  1  2  2  0
  2  3  1  0
  3  4  2  0
  4  5  1  0
  5  6  2  0
  6  7  1  0
  7  8  2  0
  8  9  1  0
  9 10  2  0
 10 11  1  0
 11 12  2  0
 12 13  1  0
 13 14  2  0
 14 15  1  0
 15 16  2  0
 16 17  1  0
 17 18  2  0
 10 19  1  0
 19 20  1  0
 20 21  1  0
 21 22  2  0
 22 23  1  0
 23 24  2  0
 24 25  1  0
 25 26  2  0
 19  2  1  0
 26 21  1  0
  8  3  1  0
 18 13  1  0
  4 27  1  0
  5 28  1  0
  6 29  1  0
  7 30  1  0
 11 31  1  0
 12 32  1  0
 14 33  1  0
 15 34  1  0
 16 35  1  0
 18 36  1  0
 20 37  1  0
 20 38  1  0
 22 39  1  0
 23 40  1  0
 24 41  1  0
 25 42  1  0
 26 43  1  0
M  END
>  <meeko>  (9) 
{"free_energy": -7.34, "intermolecular_energy": -8.83, "internal_energy": -1.2, "cluster_size": 14, "cluster_id": 1, "rank_in_cluster": 2}

$$$$

     RDKit          3D

 43 46  0  0  0  0  0  0  0  0999 V2000
  138.8500   67.6470  225.3750 O   0  0  0  0  0  0  0  0  0  0  0  0
  139.1620   68.8540  225.1830 C   0  0  0  0  0  0  0  0  0  0  0  0
  139.9130   69.5340  226.1590 C   0  0  0  0  0  0  0  0  0  0  0  0
  140.3210   68.9200  227.3580 C   0  0  0  0  0  0  0  0  0  0  0  0
  141.0620   69.6410  228.2990 C   0  0  0  0  0  0  0  0  0  0  0  0
  141.4020   70.9740  228.0520 C   0  0  0  0  0  0  0  0  0  0  0  0
  141.0050   71.5900  226.8620 C   0  0  0  0  0  0  0  0  0  0  0  0
  140.2640   70.8730  225.9170 C   0  0  0  0  0  0  0  0  0  0  0  0
  139.8820   71.4670  224.7620 N   0  0  0  0  0  0  0  0  0  0  0  0
  139.1510   70.8080  223.8260 C   0  0  0  0  0  0  0  0  0  0  0  0
  138.7950   71.5350  222.6000 C   0  0  0  0  0  0  0  0  0  0  0  0
  139.3500   72.7210  222.3290 C   0  0  0  0  0  0  0  0  0  0  0  0
  140.6450   72.8670  221.6430 C   0  0  0  0  0  0  0  0  0  0  0  0
  141.4420   71.7350  221.4240 C   0  0  0  0  0  0  0  0  0  0  0  0
  142.6950   71.8670  220.8240 C   0  0  0  0  0  0  0  0  0  0  0  0
  143.1490   73.1360  220.4620 C   0  0  0  0  0  0  0  0  0  0  0  0
  142.3690   74.2270  220.6800 N   0  0  0  0  0  0  0  0  0  0  0  0
  141.1400   74.1240  221.2510 C   0  0  0  0  0  0  0  0  0  0  0  0
  138.7770   69.4990  224.0300 N   0  0  0  0  0  0  0  0  0  0  0  0
  137.9950   68.7790  222.9990 C   0  0  0  0  0  0  0  0  0  0  0  0
  138.8980   68.0170  222.0600 C   0  0  0  0  0  0  0  0  0  0  0  0
  139.6420   68.6930  221.0820 C   0  0  0  0  0  0  0  0  0  0  0  0
  140.4790   67.9840  220.2180 C   0  0  0  0  0  0  0  0  0  0  0  0
  140.6020   66.5980  220.3370 C   0  0  0  0  0  0  0  0  0  0  0  0
  139.8810   65.9180  221.3170 C   0  0  0  0  0  0  0  0  0  0  0  0
  139.0390   66.6230  222.1830 C   0  0  0  0  0  0  0  0  0  0  0  0
  140.0563   67.8707  227.5550 H   0  0  0  0  0  0  0  0  0  0  0  0
  141.3780   69.1583  229.2355 H   0  0  0  0  0  0  0  0  0  0  0  0
  141.9831   71.5392  228.7955 H   0  0  0  0  0  0  0  0  0  0  0  0
  141.2753   72.6386  226.6686 H   0  0  0  0  0  0  0  0  0  0  0  0
  138.0664   71.1005  221.8997 H   0  0  0  0  0  0  0  0  0  0  0  0
  138.8133   73.6317  222.6332 H   0  0  0  0  0  0  0  0  0  0  0  0
  141.0793   70.7412  221.7255 H   0  0  0  0  0  0  0  0  0  0  0  0
  143.3184   70.9799  220.6383 H   0  0  0  0  0  0  0  0  0  0  0  0
  144.1401   73.2532  219.9994 H   0  0  0  0  0  0  0  0  0  0  0  0
  140.5305   75.0263  221.4071 H   0  0  0  0  0  0  0  0  0  0  0  0
  137.3141   68.0714  223.4947 H   0  0  0  0  0  0  0  0  0  0  0  0
  137.4285   69.5180  222.4133 H   0  0  0  0  0  0  0  0  0  0  0  0
  139.5658   69.7869  220.9952 H   0  0  0  0  0  0  0  0  0  0  0  0
  141.0438   68.5193  219.4405 H   0  0  0  0  0  0  0  0  0  0  0  0
  141.2670   66.0438  219.6583 H   0  0  0  0  0  0  0  0  0  0  0  0
  139.9743   64.8259  221.4094 H   0  0  0  0  0  0  0  0  0  0  0  0
  138.4838   66.0841  222.9649 H   0  0  0  0  0  0  0  0  0  0  0  0
  1  2  2  0
  2  3  1  0
  3  4  2  0
  4  5  1  0
  5  6  2  0
  6  7  1  0
  7  8  2  0
  8  9  1  0
  9 10  2  0
 10 11  1  0
 11 12  2  0
 12 13  1  0
 13 14  2  0
 14 15  1  0
 15 16  2  0
 16 17  1  0
 17 18  2  0
 10 19  1  0
 19 20  1  0
 20 21  1  0
 21 22  2  0
 22 23  1  0
 23 24  2  0
 24 25  1  0
 25 26  2  0
 19  2  1  0
 26 21  1  0
  8  3  1  0
 18 13  1  0
  4 27  1  0
  5 28  1  0
  6 29  1  0
  7 30  1  0
 11 31  1  0
 12 32  1  0
 14 33  1  0
 15 34  1  0
 16 35  1  0
 18 36  1  0
 20 37  1  0
 20 38  1  0
 22 39  1  0
 23 40  1  0
 24 41  1  0
 25 42  1  0
 26 43  1  0
M  END
>  <meeko>  (10) 
{"free_energy": -6.86, "intermolecular_energy": -8.35, "internal_energy": -1.47, "cluster_size": 14, "cluster_id": 1, "rank_in_cluster": 14}

$$$$

     RDKit          3D

 43 46  0  0  0  0  0  0  0  0999 V2000
  138.3190   75.7170  221.8480 O   0  0  0  0  0  0  0  0  0  0  0  0
  139.4350   75.2060  221.5560 C   0  0  0  0  0  0  0  0  0  0  0  0
  139.6440   73.8340  221.7830 C   0  0  0  0  0  0  0  0  0  0  0  0
  138.6530   73.0040  222.3400 C   0  0  0  0  0  0  0  0  0  0  0  0
  138.9130   71.6460  222.5500 C   0  0  0  0  0  0  0  0  0  0  0  0
  140.1560   71.1080  222.2060 C   0  0  0  0  0  0  0  0  0  0  0  0
  141.1440   71.9240  221.6490 C   0  0  0  0  0  0  0  0  0  0  0  0
  140.8890   73.2840  221.4350 C   0  0  0  0  0  0  0  0  0  0  0  0
  141.8440   74.0750  220.8920 N   0  0  0  0  0  0  0  0  0  0  0  0
  141.6390   75.4010  220.6810 C   0  0  0  0  0  0  0  0  0  0  0  0
  142.7320   76.1740  220.0750 C   0  0  0  0  0  0  0  0  0  0  0  0
  143.5600   75.6030  219.1950 C   0  0  0  0  0  0  0  0  0  0  0  0
  144.4550   74.4850  219.5380 C   0  0  0  0  0  0  0  0  0  0  0  0
  145.0190   74.4200  220.8210 C   0  0  0  0  0  0  0  0  0  0  0  0
  145.9100   73.3960  221.1420 C   0  0  0  0  0  0  0  0  0  0  0  0
  146.2450   72.4510  220.1710 C   0  0  0  0  0  0  0  0  0  0  0  0
  145.6930   72.5230  218.9310 N   0  0  0  0  0  0  0  0  0  0  0  0
  144.8130   73.5030  218.5970 C   0  0  0  0  0  0  0  0  0  0  0  0
  140.4370   75.9820  221.0180 N   0  0  0  0  0  0  0  0  0  0  0  0
  140.2120   77.4240  220.7710 C   0  0  0  0  0  0  0  0  0  0  0  0
  141.0340   78.2760  221.7080 C   0  0  0  0  0  0  0  0  0  0  0  0
  141.7350   79.3900  221.2260 C   0  0  0  0  0  0  0  0  0  0  0  0
  142.4910   80.1780  222.0980 C   0  0  0  0  0  0  0  0  0  0  0  0
  142.5330   79.8770  223.4610 C   0  0  0  0  0  0  0  0  0  0  0  0
  141.8240   78.7820  223.9540 C   0  0  0  0  0  0  0  0  0  0  0  0
  141.0690   77.9880  223.0850 C   0  0  0  0  0  0  0  0  0  0  0  0
  137.6729   73.4240  222.6104 H   0  0  0  0  0  0  0  0  0  0  0  0
  138.1373   70.9999  222.9869 H   0  0  0  0  0  0  0  0  0  0  0  0
  140.3571   70.0397  222.3741 H   0  0  0  0  0  0  0  0  0  0  0  0
  142.1216   71.4982  221.3788 H   0  0  0  0  0  0  0  0  0  0  0  0
  142.8697   77.2307  220.3478 H   0  0  0  0  0  0  0  0  0  0  0  0
  143.5736   75.9868  218.1642 H   0  0  0  0  0  0  0  0  0  0  0  0
  144.7582   75.1776  221.5747 H   0  0  0  0  0  0  0  0  0  0  0  0
  146.3445   73.3338  222.1506 H   0  0  0  0  0  0  0  0  0  0  0  0
  146.9567   71.6469  220.4096 H   0  0  0  0  0  0  0  0  0  0  0  0
  144.3789   73.5284  217.5866 H   0  0  0  0  0  0  0  0  0  0  0  0
  140.4937   77.6581  219.7337 H   0  0  0  0  0  0  0  0  0  0  0  0
  139.1483   77.6441  220.9446 H   0  0  0  0  0  0  0  0  0  0  0  0
  141.6899   79.6450  220.1569 H   0  0  0  0  0  0  0  0  0  0  0  0
  143.0551   81.0386  221.7093 H   0  0  0  0  0  0  0  0  0  0  0  0
  143.1248   80.5030  224.1451 H   0  0  0  0  0  0  0  0  0  0  0  0
  141.8587   78.5427  225.0271 H   0  0  0  0  0  0  0  0  0  0  0  0
  140.4995   77.1338  223.4799 H   0  0  0  0  0  0  0  0  0  0  0  0
  1  2  2  0
  2  3  1  0
  3  4  2  0
  4  5  1  0
  5  6  2  0
  6  7  1  0
  7  8  2  0
  8  9  1  0
  9 10  2  0
 10 11  1  0
 11 12  2  0
 12 13  1  0
 13 14  2  0
 14 15  1  0
 15 16  2  0
 16 17  1  0
 17 18  2  0
 10 19  1  0
 19 20  1  0
 20 21  1  0
 21 22  2  0
 22 23  1  0
 23 24  2  0
 24 25  1  0
 25 26  2  0
 19  2  1  0
 26 21  1  0
  8  3  1  0
 18 13  1  0
  4 27  1  0
  5 28  1  0
  6 29  1  0
  7 30  1  0
 11 31  1  0
 12 32  1  0
 14 33  1  0
 15 34  1  0
 16 35  1  0
 18 36  1  0
 20 37  1  0
 20 38  1  0
 22 39  1  0
 23 40  1  0
 24 41  1  0
 25 42  1  0
 26 43  1  0
M  END
>  <meeko>  (11) 
{"free_energy": -7.2, "intermolecular_energy": -8.69, "internal_energy": -1.33, "cluster_size": 3, "cluster_id": 2, "rank_in_cluster": 1}

$$$$

     RDKit          3D

 43 46  0  0  0  0  0  0  0  0999 V2000
  143.3420   77.1330  219.3580 O   0  0  0  0  0  0  0  0  0  0  0  0
  142.5030   76.4170  219.9720 C   0  0  0  0  0  0  0  0  0  0  0  0
  142.8110   75.0720  220.2400 C   0  0  0  0  0  0  0  0  0  0  0  0
  144.0230   74.4820  219.8340 C   0  0  0  0  0  0  0  0  0  0  0  0
  144.2790   73.1370  220.1220 C   0  0  0  0  0  0  0  0  0  0  0  0
  143.3330   72.3750  220.8130 C   0  0  0  0  0  0  0  0  0  0  0  0
  142.1300   72.9540  221.2230 C   0  0  0  0  0  0  0  0  0  0  0  0
  141.8680   74.2990  220.9400 C   0  0  0  0  0  0  0  0  0  0  0  0
  140.7040   74.8620  221.3400 N   0  0  0  0  0  0  0  0  0  0  0  0
  140.4090   76.1610  221.0720 C   0  0  0  0  0  0  0  0  0  0  0  0
  139.1250   76.6840  221.5590 C   0  0  0  0  0  0  0  0  0  0  0  0
  139.0550   77.3360  222.7230 C   0  0  0  0  0  0  0  0  0  0  0  0
  138.7100   78.7640  222.8280 C   0  0  0  0  0  0  0  0  0  0  0  0
  139.1820   79.5100  223.9180 C   0  0  0  0  0  0  0  0  0  0  0  0
  138.8190   80.8500  224.0570 C   0  0  0  0  0  0  0  0  0  0  0  0
  137.9710   81.4300  223.1120 C   0  0  0  0  0  0  0  0  0  0  0  0
  137.5200   80.6980  222.0600 N   0  0  0  0  0  0  0  0  0  0  0  0
  137.8680   79.3960  221.8950 C   0  0  0  0  0  0  0  0  0  0  0  0
  141.3000   76.9490  220.3790 N   0  0  0  0  0  0  0  0  0  0  0  0
  140.9810   78.3680  220.1050 C   0  0  0  0  0  0  0  0  0  0  0  0
  141.4960   79.2680  221.2030 C   0  0  0  0  0  0  0  0  0  0  0  0
  141.3570   80.6590  221.1060 C   0  0  0  0  0  0  0  0  0  0  0  0
  141.8310   81.4870  222.1270 C   0  0  0  0  0  0  0  0  0  0  0  0
  142.4230   80.9340  223.2640 C   0  0  0  0  0  0  0  0  0  0  0  0
  142.5500   79.5500  223.3780 C   0  0  0  0  0  0  0  0  0  0  0  0
  142.0800   78.7170  222.3580 C   0  0  0  0  0  0  0  0  0  0  0  0
  144.7695   75.0791  219.2898 H   0  0  0  0  0  0  0  0  0  0  0  0
  145.2269   72.6784  219.8039 H   0  0  0  0  0  0  0  0  0  0  0  0
  143.5363   71.3169  221.0345 H   0  0  0  0  0  0  0  0  0  0  0  0
  141.3882   72.3524  221.7687 H   0  0  0  0  0  0  0  0  0  0  0  0
  138.2140   76.5375  220.9602 H   0  0  0  0  0  0  0  0  0  0  0  0
  139.2653   76.7792  223.6481 H   0  0  0  0  0  0  0  0  0  0  0  0
  139.8388   79.0383  224.6637 H   0  0  0  0  0  0  0  0  0  0  0  0
  139.1972   81.4433  224.9026 H   0  0  0  0  0  0  0  0  0  0  0  0
  137.6673   82.4818  223.2193 H   0  0  0  0  0  0  0  0  0  0  0  0
  137.4901   78.8333  221.0286 H   0  0  0  0  0  0  0  0  0  0  0  0
  141.4461   78.6624  219.1526 H   0  0  0  0  0  0  0  0  0  0  0  0
  139.8874   78.4743  220.0532 H   0  0  0  0  0  0  0  0  0  0  0  0
  140.8728   81.1009  220.2226 H   0  0  0  0  0  0  0  0  0  0  0  0
  141.7373   82.5791  222.0345 H   0  0  0  0  0  0  0  0  0  0  0  0
  142.7887   81.5889  224.0686 H   0  0  0  0  0  0  0  0  0  0  0  0
  143.0204   79.1131  224.2712 H   0  0  0  0  0  0  0  0  0  0  0  0
  142.1674   77.6252  222.4593 H   0  0  0  0  0  0  0  0  0  0  0  0
  1  2  2  0
  2  3  1  0
  3  4  2  0
  4  5  1  0
  5  6  2  0
  6  7  1  0
  7  8  2  0
  8  9  1  0
  9 10  2  0
 10 11  1  0
 11 12  2  0
 12 13  1  0
 13 14  2  0
 14 15  1  0
 15 16  2  0
 16 17  1  0
 17 18  2  0
 10 19  1  0
 19 20  1  0
 20 21  1  0
 21 22  2  0
 22 23  1  0
 23 24  2  0
 24 25  1  0
 25 26  2  0
 19  2  1  0
 26 21  1  0
  8  3  1  0
 18 13  1  0
  4 27  1  0
  5 28  1  0
  6 29  1  0
  7 30  1  0
 11 31  1  0
 12 32  1  0
 14 33  1  0
 15 34  1  0
 16 35  1  0
 18 36  1  0
 20 37  1  0
 20 38  1  0
 22 39  1  0
 23 40  1  0
 24 41  1  0
 25 42  1  0
 26 43  1  0
M  END
>  <meeko>  (12) 
{"free_energy": -6.31, "intermolecular_energy": -7.8, "internal_energy": -1.89, "cluster_size": 2, "cluster_id": 4, "rank_in_cluster": 2}

$$$$

     RDKit          3D

 43 46  0  0  0  0  0  0  0  0999 V2000
  139.2160   67.4610  225.7170 O   0  0  0  0  0  0  0  0  0  0  0  0
  139.4920   68.6120  225.2780 C   0  0  0  0  0  0  0  0  0  0  0  0
  140.0430   69.5670  226.1510 C   0  0  0  0  0  0  0  0  0  0  0  0
  140.2890   69.2930  227.5090 C   0  0  0  0  0  0  0  0  0  0  0  0
  140.8350   70.2790  228.3370 C   0  0  0  0  0  0  0  0  0  0  0  0
  141.1390   71.5400  227.8170 C   0  0  0  0  0  0  0  0  0  0  0  0
  140.9030   71.8200  226.4690 C   0  0  0  0  0  0  0  0  0  0  0  0
  140.3580   70.8360  225.6360 C   0  0  0  0  0  0  0  0  0  0  0  0
  140.1320   71.1040  224.3290 N   0  0  0  0  0  0  0  0  0  0  0  0
  139.5920   70.1800  223.4920 C   0  0  0  0  0  0  0  0  0  0  0  0
  139.3970   70.5620  222.0870 C   0  0  0  0  0  0  0  0  0  0  0  0
  138.5880   71.5760  221.7650 C   0  0  0  0  0  0  0  0  0  0  0  0
  138.9810   72.9910  221.8880 C   0  0  0  0  0  0  0  0  0  0  0  0
  137.9910   73.9830  221.9140 C   0  0  0  0  0  0  0  0  0  0  0  0
  138.3510   75.3290  221.9760 C   0  0  0  0  0  0  0  0  0  0  0  0
  139.7040   75.6740  221.9960 C   0  0  0  0  0  0  0  0  0  0  0  0
  140.6550   74.7050  221.9720 N   0  0  0  0  0  0  0  0  0  0  0  0
  140.3310   73.3860  221.9230 C   0  0  0  0  0  0  0  0  0  0  0  0
  139.2590   68.9280  223.9590 N   0  0  0  0  0  0  0  0  0  0  0  0
  138.6880   67.9180  223.0400 C   0  0  0  0  0  0  0  0  0  0  0  0
  137.2100   68.1430  222.8280 C   0  0  0  0  0  0  0  0  0  0  0  0
  136.5090   67.4040  221.8650 C   0  0  0  0  0  0  0  0  0  0  0  0
  135.1410   67.6120  221.6760 C   0  0  0  0  0  0  0  0  0  0  0  0
  134.4550   68.5410  222.4630 C   0  0  0  0  0  0  0  0  0  0  0  0
  135.1390   69.2680  223.4360 C   0  0  0  0  0  0  0  0  0  0  0  0
  136.5090   69.0650  223.6270 C   0  0  0  0  0  0  0  0  0  0  0  0
  140.0513   68.3009  227.9204 H   0  0  0  0  0  0  0  0  0  0  0  0
  141.0253   70.0618  229.3984 H   0  0  0  0  0  0  0  0  0  0  0  0
  141.5655   72.3146  228.4713 H   0  0  0  0  0  0  0  0  0  0  0  0
  141.1453   72.8130  226.0624 H   0  0  0  0  0  0  0  0  0  0  0  0
  139.9211   70.0090  221.2935 H   0  0  0  0  0  0  0  0  0  0  0  0
  137.5804   71.3432  221.3902 H   0  0  0  0  0  0  0  0  0  0  0  0
  136.9286   73.6994  221.8855 H   0  0  0  0  0  0  0  0  0  0  0  0
  137.5775   76.1104  222.0088 H   0  0  0  0  0  0  0  0  0  0  0  0
  140.0000   76.7328  222.0313 H   0  0  0  0  0  0  0  0  0  0  0  0
  141.1258   72.6257  221.9107 H   0  0  0  0  0  0  0  0  0  0  0  0
  139.2032   67.9838  222.0704 H   0  0  0  0  0  0  0  0  0  0  0  0
  138.8272   66.9229  223.4877 H   0  0  0  0  0  0  0  0  0  0  0  0
  137.0387   66.6570  221.2555 H   0  0  0  0  0  0  0  0  0  0  0  0
  134.6015   67.0425  220.9049 H   0  0  0  0  0  0  0  0  0  0  0  0
  133.3765   68.6984  222.3148 H   0  0  0  0  0  0  0  0  0  0  0  0
  134.6006   70.0017  224.0538 H   0  0  0  0  0  0  0  0  0  0  0  0
  137.0420   69.6293  224.4064 H   0  0  0  0  0  0  0  0  0  0  0  0
  1  2  2  0
  2  3  1  0
  3  4  2  0
  4  5  1  0
  5  6  2  0
  6  7  1  0
  7  8  2  0
  8  9  1  0
  9 10  2  0
 10 11  1  0
 11 12  2  0
 12 13  1  0
 13 14  2  0
 14 15  1  0
 15 16  2  0
 16 17  1  0
 17 18  2  0
 10 19  1  0
 19 20  1  0
 20 21  1  0
 21 22  2  0
 22 23  1  0
 23 24  2  0
 24 25  1  0
 25 26  2  0
 19  2  1  0
 26 21  1  0
  8  3  1  0
 18 13  1  0
  4 27  1  0
  5 28  1  0
  6 29  1  0
  7 30  1  0
 11 31  1  0
 12 32  1  0
 14 33  1  0
 15 34  1  0
 16 35  1  0
 18 36  1  0
 20 37  1  0
 20 38  1  0
 22 39  1  0
 23 40  1  0
 24 41  1  0
 25 42  1  0
 26 43  1  0
M  END
>  <meeko>  (13) 
{"free_energy": -7.12, "intermolecular_energy": -8.61, "internal_energy": -1.37, "cluster_size": 14, "cluster_id": 1, "rank_in_cluster": 9}

$$$$

     RDKit          3D

 43 46  0  0  0  0  0  0  0  0999 V2000
  138.6100   68.0180  225.3660 O   0  0  0  0  0  0  0  0  0  0  0  0
  139.0560   69.1790  225.1510 C   0  0  0  0  0  0  0  0  0  0  0  0
  139.8320   69.8120  226.1380 C   0  0  0  0  0  0  0  0  0  0  0  0
  140.1220   69.2030  227.3730 C   0  0  0  0  0  0  0  0  0  0  0  0
  140.8960   69.8770  228.3240 C   0  0  0  0  0  0  0  0  0  0  0  0
  141.3830   71.1580  228.0500 C   0  0  0  0  0  0  0  0  0  0  0  0
  141.1040   71.7680  226.8250 C   0  0  0  0  0  0  0  0  0  0  0  0
  140.3320   71.0980  225.8700 C   0  0  0  0  0  0  0  0  0  0  0  0
  140.0640   71.6870  224.6810 N   0  0  0  0  0  0  0  0  0  0  0  0
  139.3070   71.0730  223.7340 C   0  0  0  0  0  0  0  0  0  0  0  0
  139.0810   71.7890  222.4700 C   0  0  0  0  0  0  0  0  0  0  0  0
  139.6920   72.9530  222.2310 C   0  0  0  0  0  0  0  0  0  0  0  0
  141.0060   73.0540  221.5730 C   0  0  0  0  0  0  0  0  0  0  0  0
  141.8050   71.9080  221.4450 C   0  0  0  0  0  0  0  0  0  0  0  0
  143.0730   72.0000  220.8720 C   0  0  0  0  0  0  0  0  0  0  0  0
  143.5410   73.2440  220.4440 C   0  0  0  0  0  0  0  0  0  0  0  0
  142.7590   74.3480  220.5720 N   0  0  0  0  0  0  0  0  0  0  0  0
  141.5160   74.2830  221.1160 C   0  0  0  0  0  0  0  0  0  0  0  0
  138.7890   69.8180  223.9610 N   0  0  0  0  0  0  0  0  0  0  0  0
  137.9800   69.1460  222.9200 C   0  0  0  0  0  0  0  0  0  0  0  0
  138.8150   68.1790  222.1160 C   0  0  0  0  0  0  0  0  0  0  0  0
  138.7870   66.8070  222.4030 C   0  0  0  0  0  0  0  0  0  0  0  0
  139.5580   65.9150  221.6540 C   0  0  0  0  0  0  0  0  0  0  0  0
  140.3440   66.3790  220.5970 C   0  0  0  0  0  0  0  0  0  0  0  0
  140.3650   67.7400  220.2920 C   0  0  0  0  0  0  0  0  0  0  0  0
  139.5970   68.6370  221.0410 C   0  0  0  0  0  0  0  0  0  0  0  0
  139.7394   68.1950  227.5912 H   0  0  0  0  0  0  0  0  0  0  0  0
  141.1214   69.3981  229.2883 H   0  0  0  0  0  0  0  0  0  0  0  0
  141.9877   71.6872  228.8012 H   0  0  0  0  0  0  0  0  0  0  0  0
  141.4913   72.7751  226.6112 H   0  0  0  0  0  0  0  0  0  0  0  0
  138.4036   71.3631  221.7152 H   0  0  0  0  0  0  0  0  0  0  0  0
  139.1893   73.8811  222.5407 H   0  0  0  0  0  0  0  0  0  0  0  0
  141.4307   70.9354  221.7972 H   0  0  0  0  0  0  0  0  0  0  0  0
  143.6980   71.1020  220.7583 H   0  0  0  0  0  0  0  0  0  0  0  0
  144.5447   73.3305  220.0023 H   0  0  0  0  0  0  0  0  0  0  0  0
  140.9060   75.1945  221.1995 H   0  0  0  0  0  0  0  0  0  0  0  0
  137.1598   68.5951  223.4036 H   0  0  0  0  0  0  0  0  0  0  0  0
  137.5845   69.9134  222.2383 H   0  0  0  0  0  0  0  0  0  0  0  0
  138.1552   66.4314  223.2214 H   0  0  0  0  0  0  0  0  0  0  0  0
  139.5460   64.8424  221.8978 H   0  0  0  0  0  0  0  0  0  0  0  0
  140.9454   65.6725  220.0061 H   0  0  0  0  0  0  0  0  0  0  0  0
  140.9860   68.1078  219.4619 H   0  0  0  0  0  0  0  0  0  0  0  0
  139.6047   69.7074  220.7876 H   0  0  0  0  0  0  0  0  0  0  0  0
  1  2  2  0
  2  3  1  0
  3  4  2  0
  4  5  1  0
  5  6  2  0
  6  7  1  0
  7  8  2  0
  8  9  1  0
  9 10  2  0
 10 11  1  0
 11 12  2  0
 12 13  1  0
 13 14  2  0
 14 15  1  0
 15 16  2  0
 16 17  1  0
 17 18  2  0
 10 19  1  0
 19 20  1  0
 20 21  1  0
 21 22  2  0
 22 23  1  0
 23 24  2  0
 24 25  1  0
 25 26  2  0
 19  2  1  0
 26 21  1  0
  8  3  1  0
 18 13  1  0
  4 27  1  0
  5 28  1  0
  6 29  1  0
  7 30  1  0
 11 31  1  0
 12 32  1  0
 14 33  1  0
 15 34  1  0
 16 35  1  0
 18 36  1  0
 20 37  1  0
 20 38  1  0
 22 39  1  0
 23 40  1  0
 24 41  1  0
 25 42  1  0
 26 43  1  0
M  END
>  <meeko>  (14) 
{"free_energy": -6.91, "intermolecular_energy": -8.4, "internal_energy": -1.39, "cluster_size": 14, "cluster_id": 1, "rank_in_cluster": 13}

$$$$

     RDKit          3D

 43 46  0  0  0  0  0  0  0  0999 V2000
  139.1960   67.4730  225.7290 O   0  0  0  0  0  0  0  0  0  0  0  0
  139.4800   68.6210  225.2860 C   0  0  0  0  0  0  0  0  0  0  0  0
  140.0360   69.5750  226.1550 C   0  0  0  0  0  0  0  0  0  0  0  0
  140.2770   69.3050  227.5160 C   0  0  0  0  0  0  0  0  0  0  0  0
  140.8280   70.2910  228.3400 C   0  0  0  0  0  0  0  0  0  0  0  0
  141.1420   71.5490  227.8160 C   0  0  0  0  0  0  0  0  0  0  0  0
  140.9100   71.8240  226.4660 C   0  0  0  0  0  0  0  0  0  0  0  0
  140.3600   70.8410  225.6360 C   0  0  0  0  0  0  0  0  0  0  0  0
  140.1380   71.1050  224.3270 N   0  0  0  0  0  0  0  0  0  0  0  0
  139.5940   70.1810  223.4930 C   0  0  0  0  0  0  0  0  0  0  0  0
  139.4030   70.5580  222.0860 C   0  0  0  0  0  0  0  0  0  0  0  0
  138.6060   71.5800  221.7590 C   0  0  0  0  0  0  0  0  0  0  0  0
  139.0120   72.9910  221.8830 C   0  0  0  0  0  0  0  0  0  0  0  0
  138.0310   73.9920  221.9040 C   0  0  0  0  0  0  0  0  0  0  0  0
  138.4030   75.3350  221.9680 C   0  0  0  0  0  0  0  0  0  0  0  0
  139.7590   75.6680  221.9930 C   0  0  0  0  0  0  0  0  0  0  0  0
  140.7010   74.6890  221.9730 N   0  0  0  0  0  0  0  0  0  0  0  0
  140.3650   73.3740  221.9240 C   0  0  0  0  0  0  0  0  0  0  0  0
  139.2520   68.9330  223.9650 N   0  0  0  0  0  0  0  0  0  0  0  0
  138.6760   67.9230  223.0490 C   0  0  0  0  0  0  0  0  0  0  0  0
  137.1960   68.1460  222.8470 C   0  0  0  0  0  0  0  0  0  0  0  0
  136.5110   69.1030  223.6090 C   0  0  0  0  0  0  0  0  0  0  0  0
  135.1430   69.3090  223.4160 C   0  0  0  0  0  0  0  0  0  0  0  0
  134.4520   68.5810  222.4450 C   0  0  0  0  0  0  0  0  0  0  0  0
  135.1280   67.6410  221.6690 C   0  0  0  0  0  0  0  0  0  0  0  0
  136.4970   67.4290  221.8600 C   0  0  0  0  0  0  0  0  0  0  0  0
  140.0313   68.3166  227.9315 H   0  0  0  0  0  0  0  0  0  0  0  0
  141.0149   70.0768  229.4026 H   0  0  0  0  0  0  0  0  0  0  0  0
  141.5724   72.3234  228.4679 H   0  0  0  0  0  0  0  0  0  0  0  0
  141.1598   72.8135  226.0556 H   0  0  0  0  0  0  0  0  0  0  0  0
  139.9201   69.9947  221.2952 H   0  0  0  0  0  0  0  0  0  0  0  0
  137.5982   71.3569  221.3789 H   0  0  0  0  0  0  0  0  0  0  0  0
  136.9662   73.7181  221.8700 H   0  0  0  0  0  0  0  0  0  0  0  0
  137.6364   76.1233  221.9985 H   0  0  0  0  0  0  0  0  0  0  0  0
  140.0648   76.7240  222.0289 H   0  0  0  0  0  0  0  0  0  0  0  0
  141.1529   72.6064  221.9163 H   0  0  0  0  0  0  0  0  0  0  0  0
  139.1846   67.9903  222.0760 H   0  0  0  0  0  0  0  0  0  0  0  0
  138.8194   66.9278  223.4951 H   0  0  0  0  0  0  0  0  0  0  0  0
  137.0531   69.6940  224.3619 H   0  0  0  0  0  0  0  0  0  0  0  0
  134.6080   70.0474  224.0312 H   0  0  0  0  0  0  0  0  0  0  0  0
  133.3756   68.7492  222.2928 H   0  0  0  0  0  0  0  0  0  0  0  0
  134.5841   67.0653  220.9056 H   0  0  0  0  0  0  0  0  0  0  0  0
  137.0298   66.6974  221.2348 H   0  0  0  0  0  0  0  0  0  0  0  0
  1  2  2  0
  2  3  1  0
  3  4  2  0
  4  5  1  0
  5  6  2  0
  6  7  1  0
  7  8  2  0
  8  9  1  0
  9 10  2  0
 10 11  1  0
 11 12  2  0
 12 13  1  0
 13 14  2  0
 14 15  1  0
 15 16  2  0
 16 17  1  0
 17 18  2  0
 10 19  1  0
 19 20  1  0
 20 21  1  0
 21 22  2  0
 22 23  1  0
 23 24  2  0
 24 25  1  0
 25 26  2  0
 19  2  1  0
 26 21  1  0
  8  3  1  0
 18 13  1  0
  4 27  1  0
  5 28  1  0
  6 29  1  0
  7 30  1  0
 11 31  1  0
 12 32  1  0
 14 33  1  0
 15 34  1  0
 16 35  1  0
 18 36  1  0
 20 37  1  0
 20 38  1  0
 22 39  1  0
 23 40  1  0
 24 41  1  0
 25 42  1  0
 26 43  1  0
M  END
>  <meeko>  (15) 
{"free_energy": -7.11, "intermolecular_energy": -8.6, "internal_energy": -1.38, "cluster_size": 14, "cluster_id": 1, "rank_in_cluster": 10}

$$$$

     RDKit          3D

 43 46  0  0  0  0  0  0  0  0999 V2000
  138.8250   67.7250  225.4660 O   0  0  0  0  0  0  0  0  0  0  0  0
  139.1550   68.9210  225.2340 C   0  0  0  0  0  0  0  0  0  0  0  0
  139.9090   69.6240  226.1910 C   0  0  0  0  0  0  0  0  0  0  0  0
  140.3000   69.0470  227.4130 C   0  0  0  0  0  0  0  0  0  0  0  0
  141.0460   69.7900  228.3340 C   0  0  0  0  0  0  0  0  0  0  0  0
  141.4050   71.1090  228.0430 C   0  0  0  0  0  0  0  0  0  0  0  0
  141.0240   71.6890  226.8290 C   0  0  0  0  0  0  0  0  0  0  0  0
  140.2800   70.9490  225.9040 C   0  0  0  0  0  0  0  0  0  0  0  0
  139.9140   71.5080  224.7270 N   0  0  0  0  0  0  0  0  0  0  0  0
  139.1790   70.8270  223.8100 C   0  0  0  0  0  0  0  0  0  0  0  0
  138.8410   71.5150  222.5570 C   0  0  0  0  0  0  0  0  0  0  0  0
  139.3220   72.7360  222.3020 C   0  0  0  0  0  0  0  0  0  0  0  0
  140.6250   72.9710  221.6570 C   0  0  0  0  0  0  0  0  0  0  0  0
  141.4850   71.8880  221.4220 C   0  0  0  0  0  0  0  0  0  0  0  0
  142.7440   72.1040  220.8600 C   0  0  0  0  0  0  0  0  0  0  0  0
  143.1410   73.4070  220.5530 C   0  0  0  0  0  0  0  0  0  0  0  0
  142.3000   74.4490  220.7850 N   0  0  0  0  0  0  0  0  0  0  0  0
  141.0650   74.2640  221.3200 C   0  0  0  0  0  0  0  0  0  0  0  0
  138.7860   69.5310  224.0560 N   0  0  0  0  0  0  0  0  0  0  0  0
  138.0010   68.7850  223.0460 C   0  0  0  0  0  0  0  0  0  0  0  0
  138.9020   68.0390  222.0920 C   0  0  0  0  0  0  0  0  0  0  0  0
  139.6460   68.7330  221.1270 C   0  0  0  0  0  0  0  0  0  0  0  0
  140.4820   68.0390  220.2490 C   0  0  0  0  0  0  0  0  0  0  0  0
  140.6040   66.6500  220.3430 C   0  0  0  0  0  0  0  0  0  0  0  0
  139.8830   65.9530  221.3120 C   0  0  0  0  0  0  0  0  0  0  0  0
  139.0420   66.6430  222.1900 C   0  0  0  0  0  0  0  0  0  0  0  0
  140.0185   68.0092  227.6448 H   0  0  0  0  0  0  0  0  0  0  0  0
  141.3504   69.3356  229.2884 H   0  0  0  0  0  0  0  0  0  0  0  0
  141.9886   71.6922  228.7706 H   0  0  0  0  0  0  0  0  0  0  0  0
  141.3092   72.7267  226.6015 H   0  0  0  0  0  0  0  0  0  0  0  0
  138.1870   71.0217  221.8228 H   0  0  0  0  0  0  0  0  0  0  0  0
  138.7150   73.6077  222.5879 H   0  0  0  0  0  0  0  0  0  0  0  0
  141.1667   70.8674  221.6810 H   0  0  0  0  0  0  0  0  0  0  0  0
  143.4166   71.2566  220.6610 H   0  0  0  0  0  0  0  0  0  0  0  0
  144.1365   73.5904  220.1225 H   0  0  0  0  0  0  0  0  0  0  0  0
  140.4066   75.1286  221.4903 H   0  0  0  0  0  0  0  0  0  0  0  0
  137.3485   68.0641  223.5604 H   0  0  0  0  0  0  0  0  0  0  0  0
  137.4048   69.5063  222.4679 H   0  0  0  0  0  0  0  0  0  0  0  0
  139.5710   69.8285  221.0611 H   0  0  0  0  0  0  0  0  0  0  0  0
  141.0464   68.5879  219.4807 H   0  0  0  0  0  0  0  0  0  0  0  0
  141.2677   66.1074  219.6538 H   0  0  0  0  0  0  0  0  0  0  0  0
  139.9761   64.8594  221.3855 H   0  0  0  0  0  0  0  0  0  0  0  0
  138.4864   66.0907  222.9622 H   0  0  0  0  0  0  0  0  0  0  0  0
  1  2  2  0
  2  3  1  0
  3  4  2  0
  4  5  1  0
  5  6  2  0
  6  7  1  0
  7  8  2  0
  8  9  1  0
  9 10  2  0
 10 11  1  0
 11 12  2  0
 12 13  1  0
 13 14  2  0
 14 15  1  0
 15 16  2  0
 16 17  1  0
 17 18  2  0
 10 19  1  0
 19 20  1  0
 20 21  1  0
 21 22  2  0
 22 23  1  0
 23 24  2  0
 24 25  1  0
 25 26  2  0
 19  2  1  0
 26 21  1  0
  8  3  1  0
 18 13  1  0
  4 27  1  0
  5 28  1  0
  6 29  1  0
  7 30  1  0
 11 31  1  0
 12 32  1  0
 14 33  1  0
 15 34  1  0
 16 35  1  0
 18 36  1  0
 20 37  1  0
 20 38  1  0
 22 39  1  0
 23 40  1  0
 24 41  1  0
 25 42  1  0
 26 43  1  0
M  END
>  <meeko>  (16) 
{"free_energy": -6.91, "intermolecular_energy": -8.41, "internal_energy": -1.42, "cluster_size": 14, "cluster_id": 1, "rank_in_cluster": 12}

$$$$

     RDKit          3D

 43 46  0  0  0  0  0  0  0  0999 V2000
  138.3180   75.7710  221.7950 O   0  0  0  0  0  0  0  0  0  0  0  0
  139.4250   75.2260  221.5320 C   0  0  0  0  0  0  0  0  0  0  0  0
  139.5930   73.8530  221.7860 C   0  0  0  0  0  0  0  0  0  0  0  0
  138.5710   73.0590  222.3390 C   0  0  0  0  0  0  0  0  0  0  0  0
  138.7910   71.6980  222.5770 C   0  0  0  0  0  0  0  0  0  0  0  0
  140.0250   71.1220  222.2640 C   0  0  0  0  0  0  0  0  0  0  0  0
  141.0440   71.9020  221.7100 C   0  0  0  0  0  0  0  0  0  0  0  0
  140.8290   73.2630  221.4700 C   0  0  0  0  0  0  0  0  0  0  0  0
  141.8140   74.0190  220.9290 N   0  0  0  0  0  0  0  0  0  0  0  0
  141.6480   75.3470  220.6930 C   0  0  0  0  0  0  0  0  0  0  0  0
  142.7710   76.0800  220.0930 C   0  0  0  0  0  0  0  0  0  0  0  0
  143.5710   75.4860  219.2020 C   0  0  0  0  0  0  0  0  0  0  0  0
  144.4450   74.3470  219.5350 C   0  0  0  0  0  0  0  0  0  0  0  0
  144.9800   74.2430  220.8270 C   0  0  0  0  0  0  0  0  0  0  0  0
  145.8510   73.1990  221.1410 C   0  0  0  0  0  0  0  0  0  0  0  0
  146.1940   72.2750  220.1520 C   0  0  0  0  0  0  0  0  0  0  0  0
  145.6690   72.3850  218.9040 N   0  0  0  0  0  0  0  0  0  0  0  0
  144.8090   73.3850  218.5760 C   0  0  0  0  0  0  0  0  0  0  0  0
  140.4570   75.9650  220.9990 N   0  0  0  0  0  0  0  0  0  0  0  0
  140.2740   77.4080  220.7240 C   0  0  0  0  0  0  0  0  0  0  0  0
  141.0400   78.2560  221.7100 C   0  0  0  0  0  0  0  0  0  0  0  0
  141.0810   77.9060  223.0670 C   0  0  0  0  0  0  0  0  0  0  0  0
  141.7950   78.6920  223.9760 C   0  0  0  0  0  0  0  0  0  0  0  0
  142.4950   79.8170  223.5350 C   0  0  0  0  0  0  0  0  0  0  0  0
  142.4750   80.1630  222.1850 C   0  0  0  0  0  0  0  0  0  0  0  0
  141.7600   79.3820  221.2720 C   0  0  0  0  0  0  0  0  0  0  0  0
  137.5978   73.5092  222.5845 H   0  0  0  0  0  0  0  0  0  0  0  0
  137.9911   71.0803  223.0113 H   0  0  0  0  0  0  0  0  0  0  0  0
  140.1949   70.0520  222.4541 H   0  0  0  0  0  0  0  0  0  0  0  0
  142.0140   71.4459  221.4630 H   0  0  0  0  0  0  0  0  0  0  0  0
  142.9550   77.1260  220.3793 H   0  0  0  0  0  0  0  0  0  0  0  0
  143.5773   75.8659  218.1697 H   0  0  0  0  0  0  0  0  0  0  0  0
  144.7128   74.9851  221.5937 H   0  0  0  0  0  0  0  0  0  0  0  0
  146.2629   73.1050  222.1566 H   0  0  0  0  0  0  0  0  0  0  0  0
  146.8909   71.4562  220.3840 H   0  0  0  0  0  0  0  0  0  0  0  0
  144.3966   73.4420  217.5578 H   0  0  0  0  0  0  0  0  0  0  0  0
  140.6333   77.6274  219.7078 H   0  0  0  0  0  0  0  0  0  0  0  0
  139.2043   77.6464  220.8187 H   0  0  0  0  0  0  0  0  0  0  0  0
  140.5492   77.0093  223.4178 H   0  0  0  0  0  0  0  0  0  0  0  0
  141.8055   78.4234  225.0426 H   0  0  0  0  0  0  0  0  0  0  0  0
  143.0614   80.4293  224.2521 H   0  0  0  0  0  0  0  0  0  0  0  0
  143.0224   81.0516  221.8375 H   0  0  0  0  0  0  0  0  0  0  0  0
  141.7606   79.6497  220.2051 H   0  0  0  0  0  0  0  0  0  0  0  0
  1  2  2  0
  2  3  1  0
  3  4  2  0
  4  5  1  0
  5  6  2  0
  6  7  1  0
  7  8  2  0
  8  9  1  0
  9 10  2  0
 10 11  1  0
 11 12  2  0
 12 13  1  0
 13 14  2  0
 14 15  1  0
 15 16  2  0
 16 17  1  0
 17 18  2  0
 10 19  1  0
 19 20  1  0
 20 21  1  0
 21 22  2  0
 22 23  1  0
 23 24  2  0
 24 25  1  0
 25 26  2  0
 19  2  1  0
 26 21  1  0
  8  3  1  0
 18 13  1  0
  4 27  1  0
  5 28  1  0
  6 29  1  0
  7 30  1  0
 11 31  1  0
 12 32  1  0
 14 33  1  0
 15 34  1  0
 16 35  1  0
 18 36  1  0
 20 37  1  0
 20 38  1  0
 22 39  1  0
 23 40  1  0
 24 41  1  0
 25 42  1  0
 26 43  1  0
M  END
>  <meeko>  (17) 
{"free_energy": -7.2, "intermolecular_energy": -8.69, "internal_energy": -1.34, "cluster_size": 3, "cluster_id": 2, "rank_in_cluster": 3}

$$$$

     RDKit          3D

 43 46  0  0  0  0  0  0  0  0999 V2000
  140.4230   72.2480  224.0420 O   0  0  0  0  0  0  0  0  0  0  0  0
  139.7780   71.2440  224.4520 C   0  0  0  0  0  0  0  0  0  0  0  0
  139.9940   70.7740  225.7600 C   0  0  0  0  0  0  0  0  0  0  0  0
  140.9200   71.3760  226.6320 C   0  0  0  0  0  0  0  0  0  0  0  0
  141.1020   70.8670  227.9230 C   0  0  0  0  0  0  0  0  0  0  0  0
  140.3630   69.7600  228.3500 C   0  0  0  0  0  0  0  0  0  0  0  0
  139.4380   69.1590  227.4910 C   0  0  0  0  0  0  0  0  0  0  0  0
  139.2520   69.6650  226.2000 C   0  0  0  0  0  0  0  0  0  0  0  0
  138.3530   69.0870  225.3690 N   0  0  0  0  0  0  0  0  0  0  0  0
  138.1540   69.5410  224.1040 C   0  0  0  0  0  0  0  0  0  0  0  0
  137.1480   68.8540  223.2830 C   0  0  0  0  0  0  0  0  0  0  0  0
  135.8850   69.2910  223.2490 C   0  0  0  0  0  0  0  0  0  0  0  0
  135.1310   69.6720  224.4560 C   0  0  0  0  0  0  0  0  0  0  0  0
  134.9950   71.0290  224.7850 C   0  0  0  0  0  0  0  0  0  0  0  0
  134.3290   71.4010  225.9530 C   0  0  0  0  0  0  0  0  0  0  0  0
  133.8180   70.4110  226.7940 C   0  0  0  0  0  0  0  0  0  0  0  0
  133.9560   69.0990  226.4650 N   0  0  0  0  0  0  0  0  0  0  0  0
  134.5890   68.7110  225.3280 C   0  0  0  0  0  0  0  0  0  0  0  0
  138.8680   70.6170  223.6300 N   0  0  0  0  0  0  0  0  0  0  0  0
  138.6350   71.1200  222.2570 C   0  0  0  0  0  0  0  0  0  0  0  0
  138.0610   72.5160  222.2750 C   0  0  0  0  0  0  0  0  0  0  0  0
  136.7400   72.7370  222.6900 C   0  0  0  0  0  0  0  0  0  0  0  0
  136.2150   74.0310  222.7080 C   0  0  0  0  0  0  0  0  0  0  0  0
  137.0090   75.1190  222.3380 C   0  0  0  0  0  0  0  0  0  0  0  0
  138.3300   74.9120  221.9410 C   0  0  0  0  0  0  0  0  0  0  0  0
  138.8590   73.6180  221.9180 C   0  0  0  0  0  0  0  0  0  0  0  0
  141.5017   72.2480  226.2985 H   0  0  0  0  0  0  0  0  0  0  0  0
  141.8274   71.3386  228.6023 H   0  0  0  0  0  0  0  0  0  0  0  0
  140.5096   69.3607  229.3644 H   0  0  0  0  0  0  0  0  0  0  0  0
  138.8568   68.2888  227.8300 H   0  0  0  0  0  0  0  0  0  0  0  0
  137.4363   67.9727  222.6913 H   0  0  0  0  0  0  0  0  0  0  0  0
  135.3846   69.3699  222.2726 H   0  0  0  0  0  0  0  0  0  0  0  0
  135.4137   71.8001  224.1216 H   0  0  0  0  0  0  0  0  0  0  0  0
  134.2077   72.4640  226.2087 H   0  0  0  0  0  0  0  0  0  0  0  0
  133.3029   70.6927  227.7242 H   0  0  0  0  0  0  0  0  0  0  0  0
  134.6782   67.6412  225.0882 H   0  0  0  0  0  0  0  0  0  0  0  0
  139.5909   71.1325  221.7128 H   0  0  0  0  0  0  0  0  0  0  0  0
  137.9137   70.4541  221.7608 H   0  0  0  0  0  0  0  0  0  0  0  0
  136.1147   71.8877  223.0027 H   0  0  0  0  0  0  0  0  0  0  0  0
  135.1714   74.1942  223.0150 H   0  0  0  0  0  0  0  0  0  0  0  0
  136.5933   76.1372  222.3597 H   0  0  0  0  0  0  0  0  0  0  0  0
  138.9558   75.7671  221.6459 H   0  0  0  0  0  0  0  0  0  0  0  0
  139.9058   73.4607  221.6189 H   0  0  0  0  0  0  0  0  0  0  0  0
  1  2  2  0
  2  3  1  0
  3  4  2  0
  4  5  1  0
  5  6  2  0
  6  7  1  0
  7  8  2  0
  8  9  1  0
  9 10  2  0
 10 11  1  0
 11 12  2  0
 12 13  1  0
 13 14  2  0
 14 15  1  0
 15 16  2  0
 16 17  1  0
 17 18  2  0
 10 19  1  0
 19 20  1  0
 20 21  1  0
 21 22  2  0
 22 23  1  0
 23 24  2  0
 24 25  1  0
 25 26  2  0
 19  2  1  0
 26 21  1  0
  8  3  1  0
 18 13  1  0
  4 27  1  0
  5 28  1  0
  6 29  1  0
  7 30  1  0
 11 31  1  0
 12 32  1  0
 14 33  1  0
 15 34  1  0
 16 35  1  0
 18 36  1  0
 20 37  1  0
 20 38  1  0
 22 39  1  0
 23 40  1  0
 24 41  1  0
 25 42  1  0
 26 43  1  0
M  END
>  <meeko>  (18) 
{"free_energy": -6.63, "intermolecular_energy": -8.12, "internal_energy": -1.68, "cluster_size": 1, "cluster_id": 3, "rank_in_cluster": 1}

$$$$

     RDKit          3D

 43 46  0  0  0  0  0  0  0  0999 V2000
  143.3310   77.1120  219.3970 O   0  0  0  0  0  0  0  0  0  0  0  0
  142.4980   76.3780  219.9980 C   0  0  0  0  0  0  0  0  0  0  0  0
  142.8260   75.0360  220.2600 C   0  0  0  0  0  0  0  0  0  0  0  0
  144.0520   74.4700  219.8630 C   0  0  0  0  0  0  0  0  0  0  0  0
  144.3290   73.1280  220.1450 C   0  0  0  0  0  0  0  0  0  0  0  0
  143.3890   72.3450  220.8210 C   0  0  0  0  0  0  0  0  0  0  0  0
  142.1710   72.9010  221.2220 C   0  0  0  0  0  0  0  0  0  0  0  0
  141.8900   74.2430  220.9450 C   0  0  0  0  0  0  0  0  0  0  0  0
  140.7120   74.7830  221.3360 N   0  0  0  0  0  0  0  0  0  0  0  0
  140.3970   76.0780  221.0740 C   0  0  0  0  0  0  0  0  0  0  0  0
  139.1000   76.5760  221.5500 C   0  0  0  0  0  0  0  0  0  0  0  0
  139.0080   77.2250  222.7150 C   0  0  0  0  0  0  0  0  0  0  0  0
  138.6830   78.6590  222.8160 C   0  0  0  0  0  0  0  0  0  0  0  0
  139.1890   79.4070  223.8880 C   0  0  0  0  0  0  0  0  0  0  0  0
  138.8460   80.7530  224.0250 C   0  0  0  0  0  0  0  0  0  0  0  0
  137.9840   81.3360  223.0950 C   0  0  0  0  0  0  0  0  0  0  0  0
  137.5000   80.6020  222.0590 N   0  0  0  0  0  0  0  0  0  0  0  0
  137.8280   79.2930  221.8970 C   0  0  0  0  0  0  0  0  0  0  0  0
  141.2820   76.8870  220.3960 N   0  0  0  0  0  0  0  0  0  0  0  0
  140.9420   78.3020  220.1270 C   0  0  0  0  0  0  0  0  0  0  0  0
  141.4500   79.2060  221.2250 C   0  0  0  0  0  0  0  0  0  0  0  0
  142.0570   78.6650  222.3670 C   0  0  0  0  0  0  0  0  0  0  0  0
  142.5290   79.5050  223.3790 C   0  0  0  0  0  0  0  0  0  0  0  0
  142.4240   80.8920  223.2480 C   0  0  0  0  0  0  0  0  0  0  0  0
  141.8390   81.4400  222.1070 C   0  0  0  0  0  0  0  0  0  0  0  0
  141.3620   80.6030  221.0940 C   0  0  0  0  0  0  0  0  0  0  0  0
  144.7934   75.0837  219.3303 H   0  0  0  0  0  0  0  0  0  0  0  0
  145.2882   72.6883  219.8342 H   0  0  0  0  0  0  0  0  0  0  0  0
  143.6083   71.2891  221.0378 H   0  0  0  0  0  0  0  0  0  0  0  0
  141.4335   72.2833  221.7554 H   0  0  0  0  0  0  0  0  0  0  0  0
  138.1971   76.4137  220.9431 H   0  0  0  0  0  0  0  0  0  0  0  0
  139.1833   76.6615  223.6433 H   0  0  0  0  0  0  0  0  0  0  0  0
  139.8571   78.9328  224.6220 H   0  0  0  0  0  0  0  0  0  0  0  0
  139.2507   81.3479  224.8570 H   0  0  0  0  0  0  0  0  0  0  0  0
  137.6957   82.3923  223.2010 H   0  0  0  0  0  0  0  0  0  0  0  0
  137.4234   78.7278  221.0444 H   0  0  0  0  0  0  0  0  0  0  0  0
  141.3984   78.6052  219.1732 H   0  0  0  0  0  0  0  0  0  0  0  0
  139.8468   78.3934  220.0805 H   0  0  0  0  0  0  0  0  0  0  0  0
  142.1622   77.5746  222.4668 H   0  0  0  0  0  0  0  0  0  0  0  0
  142.9848   79.0727  224.2820 H   0  0  0  0  0  0  0  0  0  0  0  0
  142.8022   81.5507  224.0437 H   0  0  0  0  0  0  0  0  0  0  0  0
  141.7528   82.5318  222.0039 H   0  0  0  0  0  0  0  0  0  0  0  0
  140.9151   81.0401  220.1889 H   0  0  0  0  0  0  0  0  0  0  0  0
  1  2  2  0
  2  3  1  0
  3  4  2  0
  4  5  1  0
  5  6  2  0
  6  7  1  0
  7  8  2  0
  8  9  1  0
  9 10  2  0
 10 11  1  0
 11 12  2  0
 12 13  1  0
 13 14  2  0
 14 15  1  0
 15 16  2  0
 16 17  1  0
 17 18  2  0
 10 19  1  0
 19 20  1  0
 20 21  1  0
 21 22  2  0
 22 23  1  0
 23 24  2  0
 24 25  1  0
 25 26  2  0
 19  2  1  0
 26 21  1  0
  8  3  1  0
 18 13  1  0
  4 27  1  0
  5 28  1  0
  6 29  1  0
  7 30  1  0
 11 31  1  0
 12 32  1  0
 14 33  1  0
 15 34  1  0
 16 35  1  0
 18 36  1  0
 20 37  1  0
 20 38  1  0
 22 39  1  0
 23 40  1  0
 24 41  1  0
 25 42  1  0
 26 43  1  0
M  END
>  <meeko>  (19) 
{"free_energy": -6.31, "intermolecular_energy": -7.8, "internal_energy": -1.88, "cluster_size": 2, "cluster_id": 4, "rank_in_cluster": 1}

$$$$

     RDKit          3D

 43 46  0  0  0  0  0  0  0  0999 V2000
  139.2040   67.4960  225.4660 O   0  0  0  0  0  0  0  0  0  0  0  0
  139.5070   68.6710  225.1230 C   0  0  0  0  0  0  0  0  0  0  0  0
  140.0260   69.5570  226.0840 C   0  0  0  0  0  0  0  0  0  0  0  0
  140.2080   69.1850  227.4300 C   0  0  0  0  0  0  0  0  0  0  0  0
  140.7230   70.1050  228.3480 C   0  0  0  0  0  0  0  0  0  0  0  0
  141.0600   71.3960  227.9330 C   0  0  0  0  0  0  0  0  0  0  0  0
  140.8870   71.7720  226.5990 C   0  0  0  0  0  0  0  0  0  0  0  0
  140.3730   70.8560  225.6750 C   0  0  0  0  0  0  0  0  0  0  0  0
  140.2080   71.2170  224.3810 N   0  0  0  0  0  0  0  0  0  0  0  0
  139.7000   70.3600  223.4580 C   0  0  0  0  0  0  0  0  0  0  0  0
  139.5700   70.8420  222.0760 C   0  0  0  0  0  0  0  0  0  0  0  0
  140.5920   71.4580  221.4730 C   0  0  0  0  0  0  0  0  0  0  0  0
  140.7350   72.9230  221.4260 C   0  0  0  0  0  0  0  0  0  0  0  0
  141.8860   73.4860  220.8560 C   0  0  0  0  0  0  0  0  0  0  0  0
  142.0590   74.8710  220.8530 C   0  0  0  0  0  0  0  0  0  0  0  0
  141.0850   75.6830  221.4360 C   0  0  0  0  0  0  0  0  0  0  0  0
  139.9730   75.1260  221.9850 N   0  0  0  0  0  0  0  0  0  0  0  0
  139.7750   73.7820  221.9910 C   0  0  0  0  0  0  0  0  0  0  0  0
  139.3370   69.0820  223.8200 N   0  0  0  0  0  0  0  0  0  0  0  0
  138.8000   68.1460  222.8070 C   0  0  0  0  0  0  0  0  0  0  0  0
  137.2910   68.1720  222.7800 C   0  0  0  0  0  0  0  0  0  0  0  0
  136.5780   67.2700  221.9790 C   0  0  0  0  0  0  0  0  0  0  0  0
  135.1810   67.2970  221.9600 C   0  0  0  0  0  0  0  0  0  0  0  0
  134.4840   68.2040  222.7600 C   0  0  0  0  0  0  0  0  0  0  0  0
  135.1830   69.0930  223.5750 C   0  0  0  0  0  0  0  0  0  0  0  0
  136.5810   69.0730  223.5950 C   0  0  0  0  0  0  0  0  0  0  0  0
  139.9445   68.1691  227.7595 H   0  0  0  0  0  0  0  0  0  0  0  0
  140.8632   69.8121  229.3990 H   0  0  0  0  0  0  0  0  0  0  0  0
  141.4625   72.1180  228.6587 H   0  0  0  0  0  0  0  0  0  0  0  0
  141.1549   72.7885  226.2749 H   0  0  0  0  0  0  0  0  0  0  0  0
  138.6245   70.6949  221.5334 H   0  0  0  0  0  0  0  0  0  0  0  0
  141.3631   70.8409  220.9887 H   0  0  0  0  0  0  0  0  0  0  0  0
  142.6532   72.8355  220.4108 H   0  0  0  0  0  0  0  0  0  0  0  0
  142.9540   75.3181  220.3957 H   0  0  0  0  0  0  0  0  0  0  0  0
  141.2173   76.7749  221.4513 H   0  0  0  0  0  0  0  0  0  0  0  0
  138.8613   73.3643  222.4390 H   0  0  0  0  0  0  0  0  0  0  0  0
  139.1809   68.4337  221.8160 H   0  0  0  0  0  0  0  0  0  0  0  0
  139.1246   67.1281  223.0688 H   0  0  0  0  0  0  0  0  0  0  0  0
  137.1202   66.5377  221.3627 H   0  0  0  0  0  0  0  0  0  0  0  0
  134.6284   66.6007  221.3121 H   0  0  0  0  0  0  0  0  0  0  0  0
  133.3841   68.2172  222.7473 H   0  0  0  0  0  0  0  0  0  0  0  0
  134.6345   69.8107  224.2028 H   0  0  0  0  0  0  0  0  0  0  0  0
  137.1287   69.7653  224.2513 H   0  0  0  0  0  0  0  0  0  0  0  0
  1  2  2  0
  2  3  1  0
  3  4  2  0
  4  5  1  0
  5  6  2  0
  6  7  1  0
  7  8  2  0
  8  9  1  0
  9 10  2  0
 10 11  1  0
 11 12  2  0
 12 13  1  0
 13 14  2  0
 14 15  1  0
 15 16  2  0
 16 17  1  0
 17 18  2  0
 10 19  1  0
 19 20  1  0
 20 21  1  0
 21 22  2  0
 22 23  1  0
 23 24  2  0
 24 25  1  0
 25 26  2  0
 19  2  1  0
 26 21  1  0
  8  3  1  0
 18 13  1  0
  4 27  1  0
  5 28  1  0
  6 29  1  0
  7 30  1  0
 11 31  1  0
 12 32  1  0
 14 33  1  0
 15 34  1  0
 16 35  1  0
 18 36  1  0
 20 37  1  0
 20 38  1  0
 22 39  1  0
 23 40  1  0
 24 41  1  0
 25 42  1  0
 26 43  1  0
M  END
>  <meeko>  (20) 
{"free_energy": -7.38, "intermolecular_energy": -8.87, "internal_energy": -1.18, "cluster_size": 14, "cluster_id": 1, "rank_in_cluster": 1}

$$$$
