
     RDKit          3D

 62 65  0  0  0  0  0  0  0  0999 V2000
  144.0180   82.7660  216.9420 C   0  0  0  0  0  0  0  0  0  0  0  0
  142.9820   82.4560  217.8700 O   0  0  0  0  0  0  0  0  0  0  0  0
  142.3810   81.1950  217.9970 C   0  0  0  0  0  0  0  0  0  0  0  0
  141.8770   80.8280  219.2470 C   0  0  0  0  0  0  0  0  0  0  0  0
  141.2660   79.5890  219.4230 C   0  0  0  0  0  0  0  0  0  0  0  0
  141.1440   78.6760  218.3540 C   0  0  0  0  0  0  0  0  0  0  0  0
  140.4630   77.3370  218.5940 C   0  0  2  0  0  0  0  0  0  0  0  0
  139.0360   77.5460  219.1070 C   0  0  0  0  0  0  0  0  0  0  0  0
  141.2300   76.5260  219.5470 N   0  0  0  0  0  0  0  0  0  0  0  0
  142.5640   76.0640  219.2660 C   0  0  0  0  0  0  0  0  0  0  0  0
  143.1570   76.4310  218.2150 O   0  0  0  0  0  0  0  0  0  0  0  0
  143.2270   75.0720  220.1910 C   0  0  2  0  0  0  0  0  0  0  0  0
  144.3820   74.3240  219.5210 C   0  0  0  0  0  0  0  0  0  0  0  0
  144.3030   72.8880  220.0460 C   0  0  1  0  0  0  0  0  0  0  0  0
  145.1870   72.7350  221.1280 O   0  0  0  0  0  0  0  0  0  0  0  0
  142.8560   72.6990  220.5060 C   0  0  0  0  0  0  0  0  0  0  0  0
  142.2990   74.0360  220.6010 N   0  0  0  0  0  0  0  0  0  0  0  0
  141.0320   74.3100  221.2110 C   0  0  0  0  0  0  0  0  0  0  0  0
  140.9920   74.8570  222.3430 O   0  0  0  0  0  0  0  0  0  0  0  0
  139.7550   73.9680  220.5070 C   0  0  0  0  0  0  0  0  0  0  0  0
  138.8520   75.1130  220.5350 N   0  0  0  0  0  0  0  0  0  0  0  0
  138.3380   75.6750  221.7470 C   0  0  0  0  0  0  0  0  0  0  0  0
  137.4840   75.0380  222.4230 O   0  0  0  0  0  0  0  0  0  0  0  0
  138.8230   76.9860  222.2100 C   0  0  0  0  0  0  0  0  0  0  0  0
  137.9400   77.9490  222.7230 C   0  0  0  0  0  0  0  0  0  0  0  0
  138.4400   79.1630  223.2040 C   0  0  0  0  0  0  0  0  0  0  0  0
  139.8170   79.4120  223.1680 C   0  0  0  0  0  0  0  0  0  0  0  0
  140.3520   80.6150  223.6500 C   0  0  0  0  0  0  0  0  0  0  0  0
  141.7350   80.8290  223.6120 C   0  0  0  0  0  0  0  0  0  0  0  0
  142.2530   81.9990  224.0690 F   0  0  0  0  0  0  0  0  0  0  0  0
  142.5860   79.8430  223.0970 C   0  0  0  0  0  0  0  0  0  0  0  0
  142.0570   78.6420  222.6050 C   0  0  0  0  0  0  0  0  0  0  0  0
  140.6750   78.4210  222.6380 C   0  0  0  0  0  0  0  0  0  0  0  0
  140.1570   77.2510  222.1760 N   0  0  0  0  0  0  0  0  0  0  0  0
  141.6520   79.0510  217.0860 C   0  0  0  0  0  0  0  0  0  0  0  0
  141.5470   78.0020  215.6750 Cl  0  0  0  0  0  0  0  0  0  0  0  0
  142.2680   80.2960  216.9180 C   0  0  0  0  0  0  0  0  0  0  0  0
  144.9316   83.0394  217.4902 H   0  0  0  0  0  0  0  0  0  0  0  0
  144.2185   81.8885  216.3097 H   0  0  0  0  0  0  0  0  0  0  0  0
  143.7036   83.6094  216.3097 H   0  0  0  0  0  0  0  0  0  0  0  0
  141.9632   81.5212  220.0967 H   0  0  0  0  0  0  0  0  0  0  0  0
  140.8714   79.3172  220.4132 H   0  0  0  0  0  0  0  0  0  0  0  0
  140.4189   76.7989  217.6356 H   0  0  0  0  0  0  0  0  0  0  0  0
  139.0381   77.5457  220.2070 H   0  0  0  0  0  0  0  0  0  0  0  0
  138.6524   78.5099  218.7413 H   0  0  0  0  0  0  0  0  0  0  0  0
  138.3921   76.7326  218.7413 H   0  0  0  0  0  0  0  0  0  0  0  0
  140.7830   76.2160  220.4390 H   0  0  0  0  0  0  0  0  0  0  0  0
  143.5852   75.6749  221.0385 H   0  0  0  0  0  0  0  0  0  0  0  0
  144.2664   74.3397  218.4272 H   0  0  0  0  0  0  0  0  0  0  0  0
  145.3533   74.7875  219.7487 H   0  0  0  0  0  0  0  0  0  0  0  0
  144.5814   72.1471  219.2821 H   0  0  0  0  0  0  0  0  0  0  0  0
  145.1040   71.7910  221.4270 H   0  0  0  0  0  0  0  0  0  0  0  0
  142.2951   72.1005  219.7730 H   0  0  0  0  0  0  0  0  0  0  0  0
  142.8005   72.1657  221.4665 H   0  0  0  0  0  0  0  0  0  0  0  0
  139.9742   73.7015  219.4625 H   0  0  0  0  0  0  0  0  0  0  0  0
  139.2775   73.1171  221.0149 H   0  0  0  0  0  0  0  0  0  0  0  0
  136.8585   77.7493  222.7466 H   0  0  0  0  0  0  0  0  0  0  0  0
  137.7531   79.9204  223.6096 H   0  0  0  0  0  0  0  0  0  0  0  0
  139.6859   81.3897  224.0575 H   0  0  0  0  0  0  0  0  0  0  0  0
  143.6728   80.0117  223.0786 H   0  0  0  0  0  0  0  0  0  0  0  0
  142.7275   77.8733  222.1931 H   0  0  0  0  0  0  0  0  0  0  0  0
  142.6686   80.5760  215.9325 H   0  0  0  0  0  0  0  0  0  0  0  0
  1  2  1  0
  2  3  1  0
  3  4  2  0
  4  5  1  0
  5  6  2  0
  6  7  1  0
  7  8  1  0
  7  9  1  0
  9 10  1  0
 10 11  2  0
 10 12  1  0
 12 13  1  0
 13 14  1  0
 14 15  1  0
 14 16  1  0
 16 17  1  0
 17 18  1  0
 18 19  2  0
 18 20  1  0
 20 21  1  0
 21 22  1  0
 22 23  2  0
 22 24  1  0
 24 25  2  0
 25 26  1  0
 26 27  2  0
 27 28  1  0
 28 29  2  0
 29 30  1  0
 29 31  1  0
 31 32  2  0
 32 33  1  0
 33 34  2  0
  6 35  1  0
 35 36  1  0
 35 37  2  0
 37  3  1  0
 17 12  1  0
 34 24  1  0
 33 27  1  0
  1 38  1  0
  1 39  1  0
  1 40  1  0
  4 41  1  0
  5 42  1  0
  7 43  1  6
  8 44  1  0
  8 45  1  0
  8 46  1  0
  9 47  1  0
 12 48  1  1
 13 49  1  0
 13 50  1  0
 14 51  1  6
 15 52  1  0
 16 53  1  0
 16 54  1  0
 20 55  1  0
 20 56  1  0
 25 57  1  0
 26 58  1  0
 28 59  1  0
 31 60  1  0
 32 61  1  0
 37 62  1  0
M  CHG  1  21  -1
M  END
>  <meeko>  (1) 
{"free_energy": -6.11, "intermolecular_energy": -9.09, "internal_energy": -4.58, "cluster_size": 4, "cluster_id": 5, "rank_in_cluster": 1}

$$$$

     RDKit          3D

 62 65  0  0  0  0  0  0  0  0999 V2000
  133.1460   72.3090  227.0880 C   0  0  0  0  0  0  0  0  0  0  0  0
  133.5980   73.6280  226.7970 O   0  0  0  0  0  0  0  0  0  0  0  0
  134.3300   73.9830  225.6550 C   0  0  0  0  0  0  0  0  0  0  0  0
  135.0160   72.9760  224.9720 C   0  0  0  0  0  0  0  0  0  0  0  0
  135.7530   73.2760  223.8280 C   0  0  0  0  0  0  0  0  0  0  0  0
  135.8300   74.5970  223.3360 C   0  0  0  0  0  0  0  0  0  0  0  0
  136.6430   74.8750  222.0800 C   0  0  2  0  0  0  0  0  0  0  0  0
  136.7010   73.6290  221.1920 C   0  0  0  0  0  0  0  0  0  0  0  0
  138.0000   75.3150  222.4250 N   0  0  0  0  0  0  0  0  0  0  0  0
  138.4510   76.6650  222.2070 C   0  0  0  0  0  0  0  0  0  0  0  0
  137.6480   77.5460  221.7960 O   0  0  0  0  0  0  0  0  0  0  0  0
  139.9080   77.0100  222.3920 C   0  0  2  0  0  0  0  0  0  0  0  0
  140.1370   78.5090  222.5900 C   0  0  0  0  0  0  0  0  0  0  0  0
  141.4310   78.8330  221.8370 C   0  0  1  0  0  0  0  0  0  0  0  0
  142.5110   78.8230  222.7350 O   0  0  0  0  0  0  0  0  0  0  0  0
  141.5880   77.7200  220.7980 C   0  0  0  0  0  0  0  0  0  0  0  0
  140.6820   76.6670  221.2150 N   0  0  0  0  0  0  0  0  0  0  0  0
  140.6910   75.3570  220.6310 C   0  0  0  0  0  0  0  0  0  0  0  0
  140.1980   75.1830  219.4870 O   0  0  0  0  0  0  0  0  0  0  0  0
  141.2950   74.1990  221.3630 C   0  0  0  0  0  0  0  0  0  0  0  0
  140.3420   73.6760  222.3350 N   0  0  0  0  0  0  0  0  0  0  0  0
  139.7530   72.3750  222.2320 C   0  0  0  0  0  0  0  0  0  0  0  0
  139.3060   71.9730  221.1240 O   0  0  0  0  0  0  0  0  0  0  0  0
  139.6900   71.5050  223.4180 C   0  0  0  0  0  0  0  0  0  0  0  0
  139.0170   70.2730  223.3820 C   0  0  0  0  0  0  0  0  0  0  0  0
  139.0220   69.4470  224.5100 C   0  0  0  0  0  0  0  0  0  0  0  0
  139.6940   69.8530  225.6680 C   0  0  0  0  0  0  0  0  0  0  0  0
  139.7270   69.0440  226.8140 C   0  0  0  0  0  0  0  0  0  0  0  0
  140.4180   69.4730  227.9520 C   0  0  0  0  0  0  0  0  0  0  0  0
  140.4400   68.6940  229.0660 F   0  0  0  0  0  0  0  0  0  0  0  0
  141.0810   70.7060  227.9500 C   0  0  0  0  0  0  0  0  0  0  0  0
  141.0450   71.5240  226.8120 C   0  0  0  0  0  0  0  0  0  0  0  0
  140.3550   71.1030  225.6700 C   0  0  0  0  0  0  0  0  0  0  0  0
  140.3300   71.8860  224.5570 N   0  0  0  0  0  0  0  0  0  0  0  0
  135.1320   75.6160  224.0280 C   0  0  0  0  0  0  0  0  0  0  0  0
  135.1440   77.2980  223.5020 Cl  0  0  0  0  0  0  0  0  0  0  0  0
  134.3970   75.3060  225.1780 C   0  0  0  0  0  0  0  0  0  0  0  0
  133.0983   72.1699  228.1781 H   0  0  0  0  0  0  0  0  0  0  0  0
  132.1457   72.1604  226.6553 H   0  0  0  0  0  0  0  0  0  0  0  0
  133.8449   71.5781  226.6553 H   0  0  0  0  0  0  0  0  0  0  0  0
  134.9742   71.9400  225.3394 H   0  0  0  0  0  0  0  0  0  0  0  0
  136.2835   72.4702  223.2996 H   0  0  0  0  0  0  0  0  0  0  0  0
  136.1464   75.6830  221.5228 H   0  0  0  0  0  0  0  0  0  0  0  0
  136.7429   72.7298  221.8242 H   0  0  0  0  0  0  0  0  0  0  0  0
  135.8037   73.5893  220.5569 H   0  0  0  0  0  0  0  0  0  0  0  0
  137.5981   73.6728  220.5569 H   0  0  0  0  0  0  0  0  0  0  0  0
  138.6920   74.6210  222.7870 H   0  0  0  0  0  0  0  0  0  0  0  0
  140.2195   76.4415  223.2807 H   0  0  0  0  0  0  0  0  0  0  0  0
  139.2966   79.0838  222.1736 H   0  0  0  0  0  0  0  0  0  0  0  0
  140.2105   78.7715  223.6557 H   0  0  0  0  0  0  0  0  0  0  0  0
  141.4030   79.8251  221.3627 H   0  0  0  0  0  0  0  0  0  0  0  0
  143.2300   78.2890  222.3040 H   0  0  0  0  0  0  0  0  0  0  0  0
  141.3154   78.0873  219.7976 H   0  0  0  0  0  0  0  0  0  0  0  0
  142.6267   77.3631  220.7374 H   0  0  0  0  0  0  0  0  0  0  0  0
  141.5542   73.4079  220.6440 H   0  0  0  0  0  0  0  0  0  0  0  0
  142.2013   74.5349  221.8883 H   0  0  0  0  0  0  0  0  0  0  0  0
  138.4880   69.9591  222.4700 H   0  0  0  0  0  0  0  0  0  0  0  0
  138.4986   68.4798  224.4871 H   0  0  0  0  0  0  0  0  0  0  0  0
  139.2099   68.0731  226.8175 H   0  0  0  0  0  0  0  0  0  0  0  0
  141.6318   71.0340  228.8439 H   0  0  0  0  0  0  0  0  0  0  0  0
  141.5591   72.4965  226.8170 H   0  0  0  0  0  0  0  0  0  0  0  0
  133.8655   76.1052  225.7154 H   0  0  0  0  0  0  0  0  0  0  0  0
  1  2  1  0
  2  3  1  0
  3  4  2  0
  4  5  1  0
  5  6  2  0
  6  7  1  0
  7  8  1  0
  7  9  1  0
  9 10  1  0
 10 11  2  0
 10 12  1  0
 12 13  1  0
 13 14  1  0
 14 15  1  0
 14 16  1  0
 16 17  1  0
 17 18  1  0
 18 19  2  0
 18 20  1  0
 20 21  1  0
 21 22  1  0
 22 23  2  0
 22 24  1  0
 24 25  2  0
 25 26  1  0
 26 27  2  0
 27 28  1  0
 28 29  2  0
 29 30  1  0
 29 31  1  0
 31 32  2  0
 32 33  1  0
 33 34  2  0
  6 35  1  0
 35 36  1  0
 35 37  2  0
 37  3  1  0
 17 12  1  0
 34 24  1  0
 33 27  1  0
  1 38  1  0
  1 39  1  0
  1 40  1  0
  4 41  1  0
  5 42  1  0
  7 43  1  6
  8 44  1  0
  8 45  1  0
  8 46  1  0
  9 47  1  0
 12 48  1  1
 13 49  1  0
 13 50  1  0
 14 51  1  6
 15 52  1  0
 16 53  1  0
 16 54  1  0
 20 55  1  0
 20 56  1  0
 25 57  1  0
 26 58  1  0
 28 59  1  0
 31 60  1  0
 32 61  1  0
 37 62  1  0
M  CHG  1  21  -1
M  END
>  <meeko>  (2) 
{"free_energy": -8.98, "intermolecular_energy": -11.96, "internal_energy": -3.27, "cluster_size": 5, "cluster_id": 1, "rank_in_cluster": 1}

$$$$

     RDKit          3D

 62 65  0  0  0  0  0  0  0  0999 V2000
  142.9380   80.8490  224.0320 C   0  0  0  0  0  0  0  0  0  0  0  0
  141.7340   80.8250  223.2710 O   0  0  0  0  0  0  0  0  0  0  0  0
  141.3490   79.7750  222.4250 C   0  0  0  0  0  0  0  0  0  0  0  0
  140.4040   78.8610  222.8970 C   0  0  0  0  0  0  0  0  0  0  0  0
  139.9850   77.8040  222.0920 C   0  0  0  0  0  0  0  0  0  0  0  0
  140.5020   77.6260  220.7910 C   0  0  0  0  0  0  0  0  0  0  0  0
  140.0090   76.4600  219.9470 C   0  0  2  0  0  0  0  0  0  0  0  0
  138.8280   75.7660  220.6310 C   0  0  0  0  0  0  0  0  0  0  0  0
  141.0920   75.4980  219.7060 N   0  0  0  0  0  0  0  0  0  0  0  0
  141.9270   74.9980  220.7660 C   0  0  0  0  0  0  0  0  0  0  0  0
  141.6850   75.3030  221.9650 O   0  0  0  0  0  0  0  0  0  0  0  0
  143.1460   74.1720  220.4360 C   0  0  2  0  0  0  0  0  0  0  0  0
  144.0830   74.8720  219.4500 C   0  0  0  0  0  0  0  0  0  0  0  0
  144.6100   73.7690  218.5270 C   0  0  1  0  0  0  0  0  0  0  0  0
  145.8630   73.3310  218.9890 O   0  0  0  0  0  0  0  0  0  0  0  0
  143.5820   72.6390  218.6120 C   0  0  0  0  0  0  0  0  0  0  0  0
  142.7780   72.9300  219.7830 N   0  0  0  0  0  0  0  0  0  0  0  0
  141.8440   71.9950  220.3390 C   0  0  0  0  0  0  0  0  0  0  0  0
  142.2100   71.2280  221.2660 O   0  0  0  0  0  0  0  0  0  0  0  0
  140.4350   71.9340  219.8380 C   0  0  0  0  0  0  0  0  0  0  0  0
  139.5170   71.7850  220.9620 N   0  0  0  0  0  0  0  0  0  0  0  0
  139.7850   72.3100  222.2670 C   0  0  0  0  0  0  0  0  0  0  0  0
  139.9680   73.5480  222.4220 O   0  0  0  0  0  0  0  0  0  0  0  0
  139.8260   71.4030  223.4260 C   0  0  0  0  0  0  0  0  0  0  0  0
  139.4040   70.0680  223.3220 C   0  0  0  0  0  0  0  0  0  0  0  0
  139.5080   69.2190  224.4280 C   0  0  0  0  0  0  0  0  0  0  0  0
  140.0280   69.7060  225.6330 C   0  0  0  0  0  0  0  0  0  0  0  0
  140.1540   68.8790  226.7590 C   0  0  0  0  0  0  0  0  0  0  0  0
  140.6900   69.3920  227.9450 C   0  0  0  0  0  0  0  0  0  0  0  0
  140.8020   68.5940  229.0400 F   0  0  0  0  0  0  0  0  0  0  0  0
  141.1040   70.7280  228.0120 C   0  0  0  0  0  0  0  0  0  0  0  0
  140.9720   71.5630  226.8930 C   0  0  0  0  0  0  0  0  0  0  0  0
  140.4360   71.0570  225.7030 C   0  0  0  0  0  0  0  0  0  0  0  0
  140.3210   71.8590  224.6090 N   0  0  0  0  0  0  0  0  0  0  0  0
  141.4580   78.5560  220.3130 C   0  0  0  0  0  0  0  0  0  0  0  0
  142.1650   78.4450  218.7030 Cl  0  0  0  0  0  0  0  0  0  0  0  0
  141.8770   79.6130  221.1290 C   0  0  0  0  0  0  0  0  0  0  0  0
  142.6940   80.8441  225.1046 H   0  0  0  0  0  0  0  0  0  0  0  0
  143.5428   79.9627  223.7895 H   0  0  0  0  0  0  0  0  0  0  0  0
  143.5070   81.7587  223.7895 H   0  0  0  0  0  0  0  0  0  0  0  0
  139.9887   78.9764  223.9091 H   0  0  0  0  0  0  0  0  0  0  0  0
  139.2374   77.0951  222.4775 H   0  0  0  0  0  0  0  0  0  0  0  0
  139.6730   76.8561  218.9774 H   0  0  0  0  0  0  0  0  0  0  0  0
  138.9446   75.8345  221.7226 H   0  0  0  0  0  0  0  0  0  0  0  0
  137.8904   76.2568  220.3309 H   0  0  0  0  0  0  0  0  0  0  0  0
  138.8005   74.7081  220.3309 H   0  0  0  0  0  0  0  0  0  0  0  0
  141.3140   75.2050  218.7280 H   0  0  0  0  0  0  0  0  0  0  0  0
  143.6421   74.0076  221.4039 H   0  0  0  0  0  0  0  0  0  0  0  0
  143.5340   75.6282  218.8697 H   0  0  0  0  0  0  0  0  0  0  0  0
  144.9011   75.3945  219.9675 H   0  0  0  0  0  0  0  0  0  0  0  0
  144.7406   74.1155  217.4912 H   0  0  0  0  0  0  0  0  0  0  0  0
  146.4330   74.1410  219.0670 H   0  0  0  0  0  0  0  0  0  0  0  0
  142.9537   72.6229  217.7093 H   0  0  0  0  0  0  0  0  0  0  0  0
  144.0656   71.6537  218.6851 H   0  0  0  0  0  0  0  0  0  0  0  0
  140.2000   72.8613  219.2950 H   0  0  0  0  0  0  0  0  0  0  0  0
  140.3263   71.0719  219.1635 H   0  0  0  0  0  0  0  0  0  0  0  0
  138.9930   69.6913  222.3737 H   0  0  0  0  0  0  0  0  0  0  0  0
  139.1821   68.1712  224.3515 H   0  0  0  0  0  0  0  0  0  0  0  0
  139.8318   67.8284  226.7095 H   0  0  0  0  0  0  0  0  0  0  0  0
  141.5337   71.1234  228.9442 H   0  0  0  0  0  0  0  0  0  0  0  0
  141.2894   72.6147  226.9504 H   0  0  0  0  0  0  0  0  0  0  0  0
  142.6269   80.3252  220.7543 H   0  0  0  0  0  0  0  0  0  0  0  0
  1  2  1  0
  2  3  1  0
  3  4  2  0
  4  5  1  0
  5  6  2  0
  6  7  1  0
  7  8  1  0
  7  9  1  0
  9 10  1  0
 10 11  2  0
 10 12  1  0
 12 13  1  0
 13 14  1  0
 14 15  1  0
 14 16  1  0
 16 17  1  0
 17 18  1  0
 18 19  2  0
 18 20  1  0
 20 21  1  0
 21 22  1  0
 22 23  2  0
 22 24  1  0
 24 25  2  0
 25 26  1  0
 26 27  2  0
 27 28  1  0
 28 29  2  0
 29 30  1  0
 29 31  1  0
 31 32  2  0
 32 33  1  0
 33 34  2  0
  6 35  1  0
 35 36  1  0
 35 37  2  0
 37  3  1  0
 17 12  1  0
 34 24  1  0
 33 27  1  0
  1 38  1  0
  1 39  1  0
  1 40  1  0
  4 41  1  0
  5 42  1  0
  7 43  1  6
  8 44  1  0
  8 45  1  0
  8 46  1  0
  9 47  1  0
 12 48  1  1
 13 49  1  0
 13 50  1  0
 14 51  1  6
 15 52  1  0
 16 53  1  0
 16 54  1  0
 20 55  1  0
 20 56  1  0
 25 57  1  0
 26 58  1  0
 28 59  1  0
 31 60  1  0
 32 61  1  0
 37 62  1  0
M  CHG  1  21  -1
M  END
>  <meeko>  (3) 
{"free_energy": -8.37, "intermolecular_energy": -11.35, "internal_energy": -2.33, "cluster_size": 6, "cluster_id": 2, "rank_in_cluster": 5}

$$$$

     RDKit          3D

 62 65  0  0  0  0  0  0  0  0999 V2000
  141.9180   81.6290  223.6910 C   0  0  0  0  0  0  0  0  0  0  0  0
  142.3400   80.2730  223.7990 O   0  0  0  0  0  0  0  0  0  0  0  0
  141.9500   79.2480  222.9250 C   0  0  0  0  0  0  0  0  0  0  0  0
  141.4200   78.0790  223.4760 C   0  0  0  0  0  0  0  0  0  0  0  0
  141.0120   77.0340  222.6500 C   0  0  0  0  0  0  0  0  0  0  0  0
  141.1290   77.1240  221.2460 C   0  0  0  0  0  0  0  0  0  0  0  0
  140.6640   75.9590  220.3850 C   0  0  2  0  0  0  0  0  0  0  0  0
  139.2160   75.5910  220.7170 C   0  0  0  0  0  0  0  0  0  0  0  0
  141.5390   74.7940  220.5710 N   0  0  0  0  0  0  0  0  0  0  0  0
  142.9520   74.8410  220.3000 C   0  0  0  0  0  0  0  0  0  0  0  0
  143.5030   75.9300  219.9830 O   0  0  0  0  0  0  0  0  0  0  0  0
  143.7630   73.5690  220.3160 C   0  0  2  0  0  0  0  0  0  0  0  0
  145.2040   73.7850  219.8510 C   0  0  0  0  0  0  0  0  0  0  0  0
  145.5630   72.5430  219.0280 C   0  0  1  0  0  0  0  0  0  0  0  0
  146.2480   71.6240  219.8420 O   0  0  0  0  0  0  0  0  0  0  0  0
  144.2270   71.9580  218.5670 C   0  0  0  0  0  0  0  0  0  0  0  0
  143.2180   72.5880  219.3980 N   0  0  0  0  0  0  0  0  0  0  0  0
  141.8540   72.1490  219.4330 C   0  0  0  0  0  0  0  0  0  0  0  0
  141.0860   72.4250  218.4750 O   0  0  0  0  0  0  0  0  0  0  0  0
  141.3380   71.3500  220.5890 C   0  0  0  0  0  0  0  0  0  0  0  0
  140.1270   71.9690  221.1180 N   0  0  0  0  0  0  0  0  0  0  0  0
  140.0190   72.4550  222.4600 C   0  0  0  0  0  0  0  0  0  0  0  0
  139.9520   73.6960  222.6760 O   0  0  0  0  0  0  0  0  0  0  0  0
  139.9670   71.5030  223.5820 C   0  0  0  0  0  0  0  0  0  0  0  0
  139.4500   70.2090  223.4150 C   0  0  0  0  0  0  0  0  0  0  0  0
  139.4660   69.3120  224.4870 C   0  0  0  0  0  0  0  0  0  0  0  0
  139.9930   69.7110  225.7210 C   0  0  0  0  0  0  0  0  0  0  0  0
  140.0320   68.8320  226.8150 C   0  0  0  0  0  0  0  0  0  0  0  0
  140.5770   69.2570  228.0310 C   0  0  0  0  0  0  0  0  0  0  0  0
  140.6040   68.4110  229.0940 F   0  0  0  0  0  0  0  0  0  0  0  0
  141.0870   70.5550  228.1600 C   0  0  0  0  0  0  0  0  0  0  0  0
  141.0430   71.4400  227.0740 C   0  0  0  0  0  0  0  0  0  0  0  0
  140.4980   71.0240  225.8540 C   0  0  0  0  0  0  0  0  0  0  0  0
  140.4670   71.8740  224.7910 N   0  0  0  0  0  0  0  0  0  0  0  0
  141.6640   78.3110  220.6900 C   0  0  0  0  0  0  0  0  0  0  0  0
  141.8450   78.5450  218.9530 Cl  0  0  0  0  0  0  0  0  0  0  0  0
  142.0740   79.3560  221.5270 C   0  0  0  0  0  0  0  0  0  0  0  0
  141.7860   82.0532  224.6973 H   0  0  0  0  0  0  0  0  0  0  0  0
  142.6786   82.2074  223.1461 H   0  0  0  0  0  0  0  0  0  0  0  0
  140.9635   81.6737  223.1461 H   0  0  0  0  0  0  0  0  0  0  0  0
  141.3243   77.9830  224.5676 H   0  0  0  0  0  0  0  0  0  0  0  0
  140.5912   76.1226  223.0997 H   0  0  0  0  0  0  0  0  0  0  0  0
  140.7159   76.2694  219.3310 H   0  0  0  0  0  0  0  0  0  0  0  0
  139.0871   75.5583  221.8089 H   0  0  0  0  0  0  0  0  0  0  0  0
  138.5388   76.3456  220.2903 H   0  0  0  0  0  0  0  0  0  0  0  0
  138.9813   74.6047  220.2903 H   0  0  0  0  0  0  0  0  0  0  0  0
  141.1250   73.8770  220.8520 H   0  0  0  0  0  0  0  0  0  0  0  0
  143.7314   73.2294  221.3618 H   0  0  0  0  0  0  0  0  0  0  0  0
  145.2754   74.6905  219.2305 H   0  0  0  0  0  0  0  0  0  0  0  0
  145.8892   73.9219  220.7005 H   0  0  0  0  0  0  0  0  0  0  0  0
  146.2139   72.7798  218.1734 H   0  0  0  0  0  0  0  0  0  0  0  0
  145.7490   71.5830  220.7000 H   0  0  0  0  0  0  0  0  0  0  0  0
  144.0513   72.1910  217.5064 H   0  0  0  0  0  0  0  0  0  0  0  0
  144.2075   70.8624  218.6630 H   0  0  0  0  0  0  0  0  0  0  0  0
  141.1086   70.3281  220.2529 H   0  0  0  0  0  0  0  0  0  0  0  0
  142.1035   71.3181  221.3783 H   0  0  0  0  0  0  0  0  0  0  0  0
  139.0338   69.9018  222.4442 H   0  0  0  0  0  0  0  0  0  0  0  0
  139.0655   68.2952  224.3612 H   0  0  0  0  0  0  0  0  0  0  0  0
  139.6347   67.8110  226.7160 H   0  0  0  0  0  0  0  0  0  0  0  0
  141.5231   70.8807  229.1159 H   0  0  0  0  0  0  0  0  0  0  0  0
  141.4368   72.4615  227.1807 H   0  0  0  0  0  0  0  0  0  0  0  0
  142.4975   80.2711  221.0874 H   0  0  0  0  0  0  0  0  0  0  0  0
  1  2  1  0
  2  3  1  0
  3  4  2  0
  4  5  1  0
  5  6  2  0
  6  7  1  0
  7  8  1  0
  7  9  1  0
  9 10  1  0
 10 11  2  0
 10 12  1  0
 12 13  1  0
 13 14  1  0
 14 15  1  0
 14 16  1  0
 16 17  1  0
 17 18  1  0
 18 19  2  0
 18 20  1  0
 20 21  1  0
 21 22  1  0
 22 23  2  0
 22 24  1  0
 24 25  2  0
 25 26  1  0
 26 27  2  0
 27 28  1  0
 28 29  2  0
 29 30  1  0
 29 31  1  0
 31 32  2  0
 32 33  1  0
 33 34  2  0
  6 35  1  0
 35 36  1  0
 35 37  2  0
 37  3  1  0
 17 12  1  0
 34 24  1  0
 33 27  1  0
  1 38  1  0
  1 39  1  0
  1 40  1  0
  4 41  1  0
  5 42  1  0
  7 43  1  6
  8 44  1  0
  8 45  1  0
  8 46  1  0
  9 47  1  0
 12 48  1  1
 13 49  1  0
 13 50  1  0
 14 51  1  6
 15 52  1  0
 16 53  1  0
 16 54  1  0
 20 55  1  0
 20 56  1  0
 25 57  1  0
 26 58  1  0
 28 59  1  0
 31 60  1  0
 32 61  1  0
 37 62  1  0
M  CHG  1  21  -1
M  END
>  <meeko>  (4) 
{"free_energy": -8.81, "intermolecular_energy": -11.79, "internal_energy": -3.62, "cluster_size": 6, "cluster_id": 2, "rank_in_cluster": 1}

$$$$

     RDKit          3D

 62 65  0  0  0  0  0  0  0  0999 V2000
  135.7390   69.6210  225.2620 C   0  0  0  0  0  0  0  0  0  0  0  0
  135.3730   70.2790  224.0530 O   0  0  0  0  0  0  0  0  0  0  0  0
  135.6430   71.6250  223.7670 C   0  0  0  0  0  0  0  0  0  0  0  0
  136.3810   71.9190  222.6180 C   0  0  0  0  0  0  0  0  0  0  0  0
  136.6710   73.2410  222.2870 C   0  0  0  0  0  0  0  0  0  0  0  0
  136.2350   74.3090  223.0990 C   0  0  0  0  0  0  0  0  0  0  0  0
  136.5710   75.7370  222.6940 C   0  0  2  0  0  0  0  0  0  0  0  0
  136.1720   75.9880  221.2370 C   0  0  0  0  0  0  0  0  0  0  0  0
  138.0020   76.0080  222.8810 N   0  0  0  0  0  0  0  0  0  0  0  0
  138.5640   77.3230  222.7190 C   0  0  0  0  0  0  0  0  0  0  0  0
  137.8140   78.3140  222.5030 O   0  0  0  0  0  0  0  0  0  0  0  0
  140.0620   77.5070  222.7250 C   0  0  2  0  0  0  0  0  0  0  0  0
  140.4740   78.9760  222.8390 C   0  0  0  0  0  0  0  0  0  0  0  0
  141.6990   79.1320  221.9330 C   0  0  1  0  0  0  0  0  0  0  0  0
  142.8680   79.0240  222.7050 O   0  0  0  0  0  0  0  0  0  0  0  0
  141.6130   77.9830  220.9270 C   0  0  0  0  0  0  0  0  0  0  0  0
  140.6520   77.0490  221.4820 N   0  0  0  0  0  0  0  0  0  0  0  0
  140.4500   75.7330  220.9520 C   0  0  0  0  0  0  0  0  0  0  0  0
  139.7370   75.5770  219.9270 O   0  0  0  0  0  0  0  0  0  0  0  0
  141.0930   74.5430  221.5960 C   0  0  0  0  0  0  0  0  0  0  0  0
  140.0910   73.7730  222.3240 N   0  0  0  0  0  0  0  0  0  0  0  0
  139.9280   72.3590  222.1720 C   0  0  0  0  0  0  0  0  0  0  0  0
  139.8900   71.8500  221.0180 O   0  0  0  0  0  0  0  0  0  0  0  0
  139.8250   71.5010  223.3640 C   0  0  0  0  0  0  0  0  0  0  0  0
  139.1660   70.2630  223.3160 C   0  0  0  0  0  0  0  0  0  0  0  0
  139.1340   69.4490  224.4520 C   0  0  0  0  0  0  0  0  0  0  0  0
  139.7540   69.8760  225.6320 C   0  0  0  0  0  0  0  0  0  0  0  0
  139.7480   69.0800  226.7880 C   0  0  0  0  0  0  0  0  0  0  0  0
  140.3890   69.5300  227.9480 C   0  0  0  0  0  0  0  0  0  0  0  0
  140.3730   68.7640  229.0710 F   0  0  0  0  0  0  0  0  0  0  0  0
  141.0390   70.7700  227.9580 C   0  0  0  0  0  0  0  0  0  0  0  0
  141.0410   71.5740  226.8100 C   0  0  0  0  0  0  0  0  0  0  0  0
  140.4020   71.1320  225.6460 C   0  0  0  0  0  0  0  0  0  0  0  0
  140.4140   71.9020  224.5230 N   0  0  0  0  0  0  0  0  0  0  0  0
  135.4850   74.0090  224.2620 C   0  0  0  0  0  0  0  0  0  0  0  0
  134.8760   75.2580  225.3460 Cl  0  0  0  0  0  0  0  0  0  0  0  0
  135.2010   72.6780  224.5890 C   0  0  0  0  0  0  0  0  0  0  0  0
  135.4053   70.2209  226.1215 H   0  0  0  0  0  0  0  0  0  0  0  0
  135.2623   68.6304  225.2991 H   0  0  0  0  0  0  0  0  0  0  0  0
  136.8321   69.5035  225.2991 H   0  0  0  0  0  0  0  0  0  0  0  0
  136.7350   71.1027  221.9712 H   0  0  0  0  0  0  0  0  0  0  0  0
  137.2500   73.4556  221.3767 H   0  0  0  0  0  0  0  0  0  0  0  0
  135.9999   76.4200  223.3401 H   0  0  0  0  0  0  0  0  0  0  0  0
  135.2412   76.5735  221.2074 H   0  0  0  0  0  0  0  0  0  0  0  0
  136.9723   76.5456  220.7285 H   0  0  0  0  0  0  0  0  0  0  0  0
  136.0158   75.0252  220.7285 H   0  0  0  0  0  0  0  0  0  0  0  0
  138.6560   75.2180  223.0790 H   0  0  0  0  0  0  0  0  0  0  0  0
  140.4115   76.9300  223.5939 H   0  0  0  0  0  0  0  0  0  0  0  0
  139.6586   79.6310  222.4983 H   0  0  0  0  0  0  0  0  0  0  0  0
  140.6986   79.2561  223.8788 H   0  0  0  0  0  0  0  0  0  0  0  0
  141.7242   80.1078  221.4259 H   0  0  0  0  0  0  0  0  0  0  0  0
  143.5060   78.4780  222.1730 H   0  0  0  0  0  0  0  0  0  0  0  0
  141.2685   78.3531  219.9501 H   0  0  0  0  0  0  0  0  0  0  0  0
  142.5929   77.5102  220.7648 H   0  0  0  0  0  0  0  0  0  0  0  0
  141.5477   73.9093  220.8203 H   0  0  0  0  0  0  0  0  0  0  0  0
  141.8684   74.8846  222.2974 H   0  0  0  0  0  0  0  0  0  0  0  0
  138.6762   69.9342  222.3875 H   0  0  0  0  0  0  0  0  0  0  0  0
  138.6229   68.4755  224.4186 H   0  0  0  0  0  0  0  0  0  0  0  0
  139.2404   68.1041  226.7823 H   0  0  0  0  0  0  0  0  0  0  0  0
  141.5496   71.1142  228.8695 H   0  0  0  0  0  0  0  0  0  0  0  0
  141.5445   72.5519  226.8239 H   0  0  0  0  0  0  0  0  0  0  0  0
  134.6257   72.4526  225.4991 H   0  0  0  0  0  0  0  0  0  0  0  0
  1  2  1  0
  2  3  1  0
  3  4  2  0
  4  5  1  0
  5  6  2  0
  6  7  1  0
  7  8  1  0
  7  9  1  0
  9 10  1  0
 10 11  2  0
 10 12  1  0
 12 13  1  0
 13 14  1  0
 14 15  1  0
 14 16  1  0
 16 17  1  0
 17 18  1  0
 18 19  2  0
 18 20  1  0
 20 21  1  0
 21 22  1  0
 22 23  2  0
 22 24  1  0
 24 25  2  0
 25 26  1  0
 26 27  2  0
 27 28  1  0
 28 29  2  0
 29 30  1  0
 29 31  1  0
 31 32  2  0
 32 33  1  0
 33 34  2  0
  6 35  1  0
 35 36  1  0
 35 37  2  0
 37  3  1  0
 17 12  1  0
 34 24  1  0
 33 27  1  0
  1 38  1  0
  1 39  1  0
  1 40  1  0
  4 41  1  0
  5 42  1  0
  7 43  1  1
  8 44  1  0
  8 45  1  0
  8 46  1  0
  9 47  1  0
 12 48  1  1
 13 49  1  0
 13 50  1  0
 14 51  1  6
 15 52  1  0
 16 53  1  0
 16 54  1  0
 20 55  1  0
 20 56  1  0
 25 57  1  0
 26 58  1  0
 28 59  1  0
 31 60  1  0
 32 61  1  0
 37 62  1  0
M  CHG  1  21  -1
M  END
>  <meeko>  (5) 
{"free_energy": -8.15, "intermolecular_energy": -11.14, "internal_energy": -3.61, "cluster_size": 5, "cluster_id": 1, "rank_in_cluster": 5}

$$$$

     RDKit          3D

 62 65  0  0  0  0  0  0  0  0999 V2000
  142.1920   81.6160  223.7720 C   0  0  0  0  0  0  0  0  0  0  0  0
  142.3780   80.2140  223.9440 O   0  0  0  0  0  0  0  0  0  0  0  0
  141.9960   79.2410  223.0090 C   0  0  0  0  0  0  0  0  0  0  0  0
  141.4700   78.0390  223.4860 C   0  0  0  0  0  0  0  0  0  0  0  0
  141.0690   77.0430  222.5980 C   0  0  0  0  0  0  0  0  0  0  0  0
  141.1890   77.2190  221.2030 C   0  0  0  0  0  0  0  0  0  0  0  0
  140.7330   76.1060  220.2710 C   0  0  2  0  0  0  0  0  0  0  0  0
  139.2590   75.7740  220.5140 C   0  0  0  0  0  0  0  0  0  0  0  0
  141.5590   74.9060  220.4520 N   0  0  0  0  0  0  0  0  0  0  0  0
  142.9810   74.9080  220.2270 C   0  0  0  0  0  0  0  0  0  0  0  0
  143.5810   75.9850  219.9580 O   0  0  0  0  0  0  0  0  0  0  0  0
  143.7460   73.6070  220.2330 C   0  0  2  0  0  0  0  0  0  0  0  0
  145.2190   73.7900  219.8620 C   0  0  0  0  0  0  0  0  0  0  0  0
  145.5830   72.5720  219.0070 C   0  0  1  0  0  0  0  0  0  0  0  0
  146.1860   71.5950  219.8170 O   0  0  0  0  0  0  0  0  0  0  0  0
  144.2570   72.0560  218.4440 C   0  0  0  0  0  0  0  0  0  0  0  0
  143.2220   72.6870  219.2420 N   0  0  0  0  0  0  0  0  0  0  0  0
  141.8440   72.2980  219.1790 C   0  0  0  0  0  0  0  0  0  0  0  0
  141.1570   72.6050  218.1710 O   0  0  0  0  0  0  0  0  0  0  0  0
  141.2200   71.5140  220.2910 C   0  0  0  0  0  0  0  0  0  0  0  0
  141.5460   72.1290  221.5730 N   0  0  0  0  0  0  0  0  0  0  0  0
  140.5560   72.4810  222.5460 C   0  0  0  0  0  0  0  0  0  0  0  0
  139.9200   73.5640  222.4320 O   0  0  0  0  0  0  0  0  0  0  0  0
  140.2720   71.5680  223.6650 C   0  0  0  0  0  0  0  0  0  0  0  0
  139.5960   70.3540  223.4610 C   0  0  0  0  0  0  0  0  0  0  0  0
  139.3920   69.4850  224.5370 C   0  0  0  0  0  0  0  0  0  0  0  0
  139.8570   69.8320  225.8110 C   0  0  0  0  0  0  0  0  0  0  0  0
  139.6750   68.9780  226.9090 C   0  0  0  0  0  0  0  0  0  0  0  0
  140.1640   69.3470  228.1670 C   0  0  0  0  0  0  0  0  0  0  0  0
  139.9780   68.5260  229.2340 F   0  0  0  0  0  0  0  0  0  0  0  0
  140.8370   70.5640  228.3330 C   0  0  0  0  0  0  0  0  0  0  0  0
  141.0130   71.4260  227.2410 C   0  0  0  0  0  0  0  0  0  0  0  0
  140.5270   71.0640  225.9790 C   0  0  0  0  0  0  0  0  0  0  0  0
  140.7090   71.8900  224.9120 N   0  0  0  0  0  0  0  0  0  0  0  0
  141.7200   78.4400  220.7200 C   0  0  0  0  0  0  0  0  0  0  0  0
  141.9050   78.7800  219.0010 Cl  0  0  0  0  0  0  0  0  0  0  0  0
  142.1220   79.4340  221.6200 C   0  0  0  0  0  0  0  0  0  0  0  0
  142.1277   82.1009  224.7572 H   0  0  0  0  0  0  0  0  0  0  0  0
  143.0427   82.0329  223.2130 H   0  0  0  0  0  0  0  0  0  0  0  0
  141.2620   81.7966  223.2130 H   0  0  0  0  0  0  0  0  0  0  0  0
  141.3715   77.8772  224.5696 H   0  0  0  0  0  0  0  0  0  0  0  0
  140.6520   76.1040  222.9908 H   0  0  0  0  0  0  0  0  0  0  0  0
  140.8498   76.4568  219.2350 H   0  0  0  0  0  0  0  0  0  0  0  0
  139.0665   75.7306  221.5962 H   0  0  0  0  0  0  0  0  0  0  0  0
  138.6282   76.5526  220.0603 H   0  0  0  0  0  0  0  0  0  0  0  0
  139.0229   74.8002  220.0603 H   0  0  0  0  0  0  0  0  0  0  0  0
  141.1040   73.9960  220.6940 H   0  0  0  0  0  0  0  0  0  0  0  0
  143.6417   73.2239  221.2589 H   0  0  0  0  0  0  0  0  0  0  0  0
  145.3578   74.7177  219.2875 H   0  0  0  0  0  0  0  0  0  0  0  0
  145.8571   73.8659  220.7547 H   0  0  0  0  0  0  0  0  0  0  0  0
  146.2910   72.8211  218.2029 H   0  0  0  0  0  0  0  0  0  0  0  0
  145.6930   71.6010  220.6790 H   0  0  0  0  0  0  0  0  0  0  0  0
  144.1527   72.3395  217.3863 H   0  0  0  0  0  0  0  0  0  0  0  0
  144.1946   70.9588  218.4906 H   0  0  0  0  0  0  0  0  0  0  0  0
  140.1279   71.5001  220.1599 H   0  0  0  0  0  0  0  0  0  0  0  0
  141.6088   70.4852  220.2725 H   0  0  0  0  0  0  0  0  0  0  0  0
  139.2286   70.0880  222.4589 H   0  0  0  0  0  0  0  0  0  0  0  0
  138.8672   68.5306  224.3829 H   0  0  0  0  0  0  0  0  0  0  0  0
  139.1490   68.0204  226.7812 H   0  0  0  0  0  0  0  0  0  0  0  0
  141.2284   70.8443  229.3221 H   0  0  0  0  0  0  0  0  0  0  0  0
  141.5326   72.3861  227.3759 H   0  0  0  0  0  0  0  0  0  0  0  0
  142.5410   80.3765  221.2377 H   0  0  0  0  0  0  0  0  0  0  0  0
  1  2  1  0
  2  3  1  0
  3  4  2  0
  4  5  1  0
  5  6  2  0
  6  7  1  0
  7  8  1  0
  7  9  1  0
  9 10  1  0
 10 11  2  0
 10 12  1  0
 12 13  1  0
 13 14  1  0
 14 15  1  0
 14 16  1  0
 16 17  1  0
 17 18  1  0
 18 19  2  0
 18 20  1  0
 20 21  1  0
 21 22  1  0
 22 23  2  0
 22 24  1  0
 24 25  2  0
 25 26  1  0
 26 27  2  0
 27 28  1  0
 28 29  2  0
 29 30  1  0
 29 31  1  0
 31 32  2  0
 32 33  1  0
 33 34  2  0
  6 35  1  0
 35 36  1  0
 35 37  2  0
 37  3  1  0
 17 12  1  0
 34 24  1  0
 33 27  1  0
  1 38  1  0
  1 39  1  0
  1 40  1  0
  4 41  1  0
  5 42  1  0
  7 43  1  6
  8 44  1  0
  8 45  1  0
  8 46  1  0
  9 47  1  0
 12 48  1  1
 13 49  1  0
 13 50  1  0
 14 51  1  6
 15 52  1  0
 16 53  1  0
 16 54  1  0
 20 55  1  0
 20 56  1  0
 25 57  1  0
 26 58  1  0
 28 59  1  0
 31 60  1  0
 32 61  1  0
 37 62  1  0
M  CHG  1  21  -1
M  END
>  <meeko>  (6) 
{"free_energy": -8.73, "intermolecular_energy": -11.71, "internal_energy": -3.69, "cluster_size": 6, "cluster_id": 2, "rank_in_cluster": 2}

$$$$

     RDKit          3D

 62 65  0  0  0  0  0  0  0  0999 V2000
  140.1670   83.3020  221.2280 C   0  0  0  0  0  0  0  0  0  0  0  0
  139.2990   82.2470  220.8250 O   0  0  0  0  0  0  0  0  0  0  0  0
  139.7260   81.0440  220.2440 C   0  0  0  0  0  0  0  0  0  0  0  0
  138.8760   79.9390  220.3170 C   0  0  0  0  0  0  0  0  0  0  0  0
  139.2520   78.7230  219.7510 C   0  0  0  0  0  0  0  0  0  0  0  0
  140.4940   78.5750  219.0970 C   0  0  0  0  0  0  0  0  0  0  0  0
  140.8580   77.2290  218.4880 C   0  0  2  0  0  0  0  0  0  0  0  0
  139.6230   76.5690  217.8700 C   0  0  0  0  0  0  0  0  0  0  0  0
  141.4530   76.3450  219.4980 N   0  0  0  0  0  0  0  0  0  0  0  0
  142.8450   75.9810  219.4790 C   0  0  0  0  0  0  0  0  0  0  0  0
  143.6270   76.4980  218.6350 O   0  0  0  0  0  0  0  0  0  0  0  0
  143.3570   74.9160  220.4170 C   0  0  2  0  0  0  0  0  0  0  0  0
  144.8160   74.5450  220.1460 C   0  0  0  0  0  0  0  0  0  0  0  0
  144.9040   73.0300  220.3600 C   0  0  1  0  0  0  0  0  0  0  0  0
  145.3600   72.7670  221.6620 O   0  0  0  0  0  0  0  0  0  0  0  0
  143.4770   72.5080  220.1760 C   0  0  0  0  0  0  0  0  0  0  0  0
  142.6210   73.6770  220.2570 N   0  0  0  0  0  0  0  0  0  0  0  0
  141.1930   73.5900  220.3540 C   0  0  0  0  0  0  0  0  0  0  0  0
  140.4830   73.8850  219.3580 O   0  0  0  0  0  0  0  0  0  0  0  0
  140.5400   73.1370  221.6220 C   0  0  0  0  0  0  0  0  0  0  0  0
  140.0000   74.2860  222.3400 N   0  0  0  0  0  0  0  0  0  0  0  0
  139.4700   75.4410  221.6810 C   0  0  0  0  0  0  0  0  0  0  0  0
  138.7490   75.3050  220.6540 O   0  0  0  0  0  0  0  0  0  0  0  0
  139.7530   76.7840  222.2150 C   0  0  0  0  0  0  0  0  0  0  0  0
  138.7760   77.5120  222.9120 C   0  0  0  0  0  0  0  0  0  0  0  0
  139.0950   78.7600  223.4530 C   0  0  0  0  0  0  0  0  0  0  0  0
  140.3850   79.2790  223.2940 C   0  0  0  0  0  0  0  0  0  0  0  0
  140.7410   80.5250  223.8330 C   0  0  0  0  0  0  0  0  0  0  0  0
  142.0430   81.0100  223.6670 C   0  0  0  0  0  0  0  0  0  0  0  0
  142.3850   82.2220  224.1790 F   0  0  0  0  0  0  0  0  0  0  0  0
  142.9930   80.2550  222.9690 C   0  0  0  0  0  0  0  0  0  0  0  0
  142.6420   79.0130  222.4210 C   0  0  0  0  0  0  0  0  0  0  0  0
  141.3410   78.5210  222.5810 C   0  0  0  0  0  0  0  0  0  0  0  0
  140.9990   77.3090  222.0640 N   0  0  0  0  0  0  0  0  0  0  0  0
  141.3540   79.6980  219.0210 C   0  0  0  0  0  0  0  0  0  0  0  0
  142.9220   79.6380  218.2210 Cl  0  0  0  0  0  0  0  0  0  0  0  0
  140.9700   80.9150  219.5960 C   0  0  0  0  0  0  0  0  0  0  0  0
  140.2040   83.3470  222.3265 H   0  0  0  0  0  0  0  0  0  0  0  0
  141.1772   83.1162  220.8344 H   0  0  0  0  0  0  0  0  0  0  0  0
  139.7901   84.2575  220.8344 H   0  0  0  0  0  0  0  0  0  0  0  0
  137.9041   80.0290  220.8242 H   0  0  0  0  0  0  0  0  0  0  0  0
  138.5690   77.8631  219.8149 H   0  0  0  0  0  0  0  0  0  0  0  0
  141.6006   77.4013  217.6950 H   0  0  0  0  0  0  0  0  0  0  0  0
  138.9578   76.2135  218.6707 H   0  0  0  0  0  0  0  0  0  0  0  0
  139.0885   77.3017  217.2475 H   0  0  0  0  0  0  0  0  0  0  0  0
  139.9351   75.7174  217.2475 H   0  0  0  0  0  0  0  0  0  0  0  0
  140.8440   75.9090  220.2270 H   0  0  0  0  0  0  0  0  0  0  0  0
  143.2389   75.3482  221.4216 H   0  0  0  0  0  0  0  0  0  0  0  0
  145.0921   74.8033  219.1130 H   0  0  0  0  0  0  0  0  0  0  0  0
  145.5039   75.0898  220.8093 H   0  0  0  0  0  0  0  0  0  0  0  0
  145.6017   72.5472  219.6600 H   0  0  0  0  0  0  0  0  0  0  0  0
  145.0120   71.8680  221.9050 H   0  0  0  0  0  0  0  0  0  0  0  0
  143.3697   72.0206  219.1957 H   0  0  0  0  0  0  0  0  0  0  0  0
  143.2161   71.7586  220.9378 H   0  0  0  0  0  0  0  0  0  0  0  0
  139.7236   72.4397  221.3829 H   0  0  0  0  0  0  0  0  0  0  0  0
  141.2862   72.6331  222.2538 H   0  0  0  0  0  0  0  0  0  0  0  0
  137.7626   77.1013  223.0319 H   0  0  0  0  0  0  0  0  0  0  0  0
  138.3340   79.3334  224.0027 H   0  0  0  0  0  0  0  0  0  0  0  0
  139.9978   81.1192  224.3849 H   0  0  0  0  0  0  0  0  0  0  0  0
  144.0176   80.6371  222.8501 H   0  0  0  0  0  0  0  0  0  0  0  0
  143.3882   78.4257  221.8658 H   0  0  0  0  0  0  0  0  0  0  0  0
  141.6471   81.7802  219.5412 H   0  0  0  0  0  0  0  0  0  0  0  0
  1  2  1  0
  2  3  1  0
  3  4  2  0
  4  5  1  0
  5  6  2  0
  6  7  1  0
  7  8  1  0
  7  9  1  0
  9 10  1  0
 10 11  2  0
 10 12  1  0
 12 13  1  0
 13 14  1  0
 14 15  1  0
 14 16  1  0
 16 17  1  0
 17 18  1  0
 18 19  2  0
 18 20  1  0
 20 21  1  0
 21 22  1  0
 22 23  2  0
 22 24  1  0
 24 25  2  0
 25 26  1  0
 26 27  2  0
 27 28  1  0
 28 29  2  0
 29 30  1  0
 29 31  1  0
 31 32  2  0
 32 33  1  0
 33 34  2  0
  6 35  1  0
 35 36  1  0
 35 37  2  0
 37  3  1  0
 17 12  1  0
 34 24  1  0
 33 27  1  0
  1 38  1  0
  1 39  1  0
  1 40  1  0
  4 41  1  0
  5 42  1  0
  7 43  1  6
  8 44  1  0
  8 45  1  0
  8 46  1  0
  9 47  1  0
 12 48  1  1
 13 49  1  0
 13 50  1  0
 14 51  1  6
 15 52  1  0
 16 53  1  0
 16 54  1  0
 20 55  1  0
 20 56  1  0
 25 57  1  0
 26 58  1  0
 28 59  1  0
 31 60  1  0
 32 61  1  0
 37 62  1  0
M  CHG  1  21  -1
M  END
>  <meeko>  (7) 
{"free_energy": -5.71, "intermolecular_energy": -8.69, "internal_energy": -5.84, "cluster_size": 4, "cluster_id": 5, "rank_in_cluster": 4}

$$$$

     RDKit          3D

 62 65  0  0  0  0  0  0  0  0999 V2000
  140.1620   83.4360  221.2180 C   0  0  0  0  0  0  0  0  0  0  0  0
  139.2570   82.3760  220.9220 O   0  0  0  0  0  0  0  0  0  0  0  0
  139.6220   81.1630  220.3220 C   0  0  0  0  0  0  0  0  0  0  0  0
  138.7340   80.0890  220.4120 C   0  0  0  0  0  0  0  0  0  0  0  0
  139.0480   78.8650  219.8260 C   0  0  0  0  0  0  0  0  0  0  0  0
  140.2650   78.6760  219.1370 C   0  0  0  0  0  0  0  0  0  0  0  0
  140.5610   77.3220  218.5080 C   0  0  2  0  0  0  0  0  0  0  0  0
  139.2820   76.7060  217.9360 C   0  0  0  0  0  0  0  0  0  0  0  0
  141.1650   76.4140  219.4910 N   0  0  0  0  0  0  0  0  0  0  0  0
  142.5780   76.1390  219.5180 C   0  0  0  0  0  0  0  0  0  0  0  0
  143.3620   76.7570  218.7470 O   0  0  0  0  0  0  0  0  0  0  0  0
  143.1150   75.0500  220.4140 C   0  0  2  0  0  0  0  0  0  0  0  0
  144.5880   74.7380  220.1420 C   0  0  0  0  0  0  0  0  0  0  0  0
  144.7230   73.2190  220.2890 C   0  0  1  0  0  0  0  0  0  0  0  0
  145.1750   72.9130  221.5840 O   0  0  0  0  0  0  0  0  0  0  0  0
  143.3160   72.6610  220.0670 C   0  0  0  0  0  0  0  0  0  0  0  0
  142.4210   73.7970  220.1900 N   0  0  0  0  0  0  0  0  0  0  0  0
  140.9970   73.6610  220.2680 C   0  0  0  0  0  0  0  0  0  0  0  0
  140.2930   73.8910  219.2500 O   0  0  0  0  0  0  0  0  0  0  0  0
  140.3390   73.2300  221.5420 C   0  0  0  0  0  0  0  0  0  0  0  0
  139.9610   74.4010  222.3250 N   0  0  0  0  0  0  0  0  0  0  0  0
  139.3360   75.5560  221.7540 C   0  0  0  0  0  0  0  0  0  0  0  0
  138.4950   75.4210  220.8240 O   0  0  0  0  0  0  0  0  0  0  0  0
  139.6630   76.8960  222.2700 C   0  0  0  0  0  0  0  0  0  0  0  0
  138.7050   77.6710  222.9420 C   0  0  0  0  0  0  0  0  0  0  0  0
  139.0650   78.9160  223.4660 C   0  0  0  0  0  0  0  0  0  0  0  0
  140.3760   79.3840  223.3140 C   0  0  0  0  0  0  0  0  0  0  0  0
  140.7710   80.6250  223.8360 C   0  0  0  0  0  0  0  0  0  0  0  0
  142.0920   81.0580  223.6790 C   0  0  0  0  0  0  0  0  0  0  0  0
  142.4730   82.2650  224.1740 F   0  0  0  0  0  0  0  0  0  0  0  0
  143.0220   80.2560  223.0050 C   0  0  0  0  0  0  0  0  0  0  0  0
  142.6300   79.0190  222.4730 C   0  0  0  0  0  0  0  0  0  0  0  0
  141.3110   78.5790  222.6250 C   0  0  0  0  0  0  0  0  0  0  0  0
  140.9290   77.3720  222.1250 N   0  0  0  0  0  0  0  0  0  0  0  0
  141.1630   79.7670  219.0430 C   0  0  0  0  0  0  0  0  0  0  0  0
  142.7050   79.6560  218.1980 Cl  0  0  0  0  0  0  0  0  0  0  0  0
  140.8410   80.9930  219.6370 C   0  0  0  0  0  0  0  0  0  0  0  0
  140.2550   83.5449  222.3086 H   0  0  0  0  0  0  0  0  0  0  0  0
  141.1479   83.2075  220.7869 H   0  0  0  0  0  0  0  0  0  0  0  0
  139.7818   84.3739  220.7869 H   0  0  0  0  0  0  0  0  0  0  0  0
  137.7814   80.2103  220.9486 H   0  0  0  0  0  0  0  0  0  0  0  0
  138.3348   78.0310  219.9016 H   0  0  0  0  0  0  0  0  0  0  0  0
  141.2773   77.4740  217.6871 H   0  0  0  0  0  0  0  0  0  0  0  0
  138.6264   76.3902  218.7609 H   0  0  0  0  0  0  0  0  0  0  0  0
  138.7605   77.4517  217.3180 H   0  0  0  0  0  0  0  0  0  0  0  0
  139.5399   75.8333  217.3180 H   0  0  0  0  0  0  0  0  0  0  0  0
  140.5540   75.8960  220.1600 H   0  0  0  0  0  0  0  0  0  0  0  0
  142.9736   75.4323  221.4357 H   0  0  0  0  0  0  0  0  0  0  0  0
  144.8650   75.0512  219.1246 H   0  0  0  0  0  0  0  0  0  0  0  0
  145.2519   75.2741  220.8362 H   0  0  0  0  0  0  0  0  0  0  0  0
  145.4423   72.7903  219.5757 H   0  0  0  0  0  0  0  0  0  0  0  0
  145.4710   71.9650  221.5610 H   0  0  0  0  0  0  0  0  0  0  0  0
  143.2339   72.2143  219.0651 H   0  0  0  0  0  0  0  0  0  0  0  0
  143.0726   71.8710  220.7926 H   0  0  0  0  0  0  0  0  0  0  0  0
  139.4395   72.6420  221.3074 H   0  0  0  0  0  0  0  0  0  0  0  0
  141.0424   72.6163  222.1239 H   0  0  0  0  0  0  0  0  0  0  0  0
  137.6756   77.3004  223.0558 H   0  0  0  0  0  0  0  0  0  0  0  0
  138.3199   79.5268  223.9967 H   0  0  0  0  0  0  0  0  0  0  0  0
  140.0436   81.2561  224.3675 H   0  0  0  0  0  0  0  0  0  0  0  0
  144.0617   80.5971  222.8928 H   0  0  0  0  0  0  0  0  0  0  0  0
  143.3597   78.3949  221.9363 H   0  0  0  0  0  0  0  0  0  0  0  0
  141.5478   81.8330  219.5680 H   0  0  0  0  0  0  0  0  0  0  0  0
  1  2  1  0
  2  3  1  0
  3  4  2  0
  4  5  1  0
  5  6  2  0
  6  7  1  0
  7  8  1  0
  7  9  1  0
  9 10  1  0
 10 11  2  0
 10 12  1  0
 12 13  1  0
 13 14  1  0
 14 15  1  0
 14 16  1  0
 16 17  1  0
 17 18  1  0
 18 19  2  0
 18 20  1  0
 20 21  1  0
 21 22  1  0
 22 23  2  0
 22 24  1  0
 24 25  2  0
 25 26  1  0
 26 27  2  0
 27 28  1  0
 28 29  2  0
 29 30  1  0
 29 31  1  0
 31 32  2  0
 32 33  1  0
 33 34  2  0
  6 35  1  0
 35 36  1  0
 35 37  2  0
 37  3  1  0
 17 12  1  0
 34 24  1  0
 33 27  1  0
  1 38  1  0
  1 39  1  0
  1 40  1  0
  4 41  1  0
  5 42  1  0
  7 43  1  6
  8 44  1  0
  8 45  1  0
  8 46  1  0
  9 47  1  0
 12 48  1  1
 13 49  1  0
 13 50  1  0
 14 51  1  6
 15 52  1  0
 16 53  1  0
 16 54  1  0
 20 55  1  0
 20 56  1  0
 25 57  1  0
 26 58  1  0
 28 59  1  0
 31 60  1  0
 32 61  1  0
 37 62  1  0
M  CHG  1  21  -1
M  END
>  <meeko>  (8) 
{"free_energy": -5.79, "intermolecular_energy": -8.78, "internal_energy": -5.75, "cluster_size": 4, "cluster_id": 5, "rank_in_cluster": 3}

$$$$

     RDKit          3D

 62 65  0  0  0  0  0  0  0  0999 V2000
  139.6090   84.9470  221.1240 C   0  0  0  0  0  0  0  0  0  0  0  0
  139.2640   83.5990  221.4270 O   0  0  0  0  0  0  0  0  0  0  0  0
  139.8370   82.4750  220.8160 C   0  0  0  0  0  0  0  0  0  0  0  0
  141.2160   82.4770  220.5920 C   0  0  0  0  0  0  0  0  0  0  0  0
  141.8340   81.3820  219.9940 C   0  0  0  0  0  0  0  0  0  0  0  0
  141.0890   80.2510  219.5950 C   0  0  0  0  0  0  0  0  0  0  0  0
  141.8100   79.0750  218.9510 C   0  0  2  0  0  0  0  0  0  0  0  0
  141.3890   78.9270  217.4870 C   0  0  0  0  0  0  0  0  0  0  0  0
  141.5370   77.8330  219.6850 N   0  0  0  0  0  0  0  0  0  0  0  0
  142.4870   76.7540  219.7500 C   0  0  0  0  0  0  0  0  0  0  0  0
  143.6380   76.8870  219.2520 O   0  0  0  0  0  0  0  0  0  0  0  0
  142.0790   75.4280  220.3450 C   0  0  2  0  0  0  0  0  0  0  0  0
  143.2460   74.4430  220.4420 C   0  0  0  0  0  0  0  0  0  0  0  0
  142.6570   73.0700  220.1030 C   0  0  1  0  0  0  0  0  0  0  0  0
  142.3360   72.3920  221.2910 O   0  0  0  0  0  0  0  0  0  0  0  0
  141.3910   73.3580  219.2920 C   0  0  0  0  0  0  0  0  0  0  0  0
  141.0960   74.7610  219.5140 N   0  0  0  0  0  0  0  0  0  0  0  0
  139.8640   75.3710  219.1080 C   0  0  0  0  0  0  0  0  0  0  0  0
  139.8870   76.3670  218.3400 O   0  0  0  0  0  0  0  0  0  0  0  0
  138.5510   74.8230  219.5730 C   0  0  0  0  0  0  0  0  0  0  0  0
  138.3080   75.2240  220.9550 N   0  0  0  0  0  0  0  0  0  0  0  0
  139.3600   75.4770  221.8920 C   0  0  0  0  0  0  0  0  0  0  0  0
  140.0650   74.5220  222.3200 O   0  0  0  0  0  0  0  0  0  0  0  0
  139.6270   76.8540  222.3390 C   0  0  0  0  0  0  0  0  0  0  0  0
  138.6050   77.6630  222.8600 C   0  0  0  0  0  0  0  0  0  0  0  0
  138.9040   78.9460  223.3250 C   0  0  0  0  0  0  0  0  0  0  0  0
  140.2190   79.4200  223.2640 C   0  0  0  0  0  0  0  0  0  0  0  0
  140.5550   80.7000  223.7310 C   0  0  0  0  0  0  0  0  0  0  0  0
  141.8820   81.1400  223.6680 C   0  0  0  0  0  0  0  0  0  0  0  0
  142.2050   82.3840  224.1090 F   0  0  0  0  0  0  0  0  0  0  0  0
  142.8770   80.3050  223.1450 C   0  0  0  0  0  0  0  0  0  0  0  0
  142.5470   79.0280  222.6690 C   0  0  0  0  0  0  0  0  0  0  0  0
  141.2220   78.5810  222.7270 C   0  0  0  0  0  0  0  0  0  0  0  0
  140.8980   77.3370  222.2810 N   0  0  0  0  0  0  0  0  0  0  0  0
  139.6920   80.2480  219.8260 C   0  0  0  0  0  0  0  0  0  0  0  0
  138.6610   78.8890  219.3850 Cl  0  0  0  0  0  0  0  0  0  0  0  0
  139.0790   81.3540  220.4250 C   0  0  0  0  0  0  0  0  0  0  0  0
  139.7525   85.5079  222.0593 H   0  0  0  0  0  0  0  0  0  0  0  0
  140.5406   84.9645  220.5393 H   0  0  0  0  0  0  0  0  0  0  0  0
  138.8004   85.4099  220.5393 H   0  0  0  0  0  0  0  0  0  0  0  0
  141.8171   83.3488  220.8898 H   0  0  0  0  0  0  0  0  0  0  0  0
  142.9215   81.3984  219.8296 H   0  0  0  0  0  0  0  0  0  0  0  0
  142.8915   79.2718  218.9899 H   0  0  0  0  0  0  0  0  0  0  0  0
  140.3523   78.5625  217.4387 H   0  0  0  0  0  0  0  0  0  0  0  0
  141.4582   79.9034  216.9851 H   0  0  0  0  0  0  0  0  0  0  0  0
  142.0540   78.2087  216.9851 H   0  0  0  0  0  0  0  0  0  0  0  0
  140.6030   77.6900  220.1290 H   0  0  0  0  0  0  0  0  0  0  0  0
  141.6874   75.6767  221.3424 H   0  0  0  0  0  0  0  0  0  0  0  0
  144.0346   74.7104  219.7233 H   0  0  0  0  0  0  0  0  0  0  0  0
  143.7045   74.4531  221.4418 H   0  0  0  0  0  0  0  0  0  0  0  0
  143.3605   72.4391  219.5399 H   0  0  0  0  0  0  0  0  0  0  0  0
  141.6020   72.9060  221.7190 H   0  0  0  0  0  0  0  0  0  0  0  0
  141.5680   73.1673  218.2232 H   0  0  0  0  0  0  0  0  0  0  0  0
  140.5550   72.7127  219.5998 H   0  0  0  0  0  0  0  0  0  0  0  0
  137.7457   75.2127  218.9330 H   0  0  0  0  0  0  0  0  0  0  0  0
  138.5746   73.7249  219.5129 H   0  0  0  0  0  0  0  0  0  0  0  0
  137.5718   77.2879  222.9020 H   0  0  0  0  0  0  0  0  0  0  0  0
  138.1074   79.5821  223.7382 H   0  0  0  0  0  0  0  0  0  0  0  0
  139.7762   81.3567  224.1461 H   0  0  0  0  0  0  0  0  0  0  0  0
  143.9202   80.6517  223.1075 H   0  0  0  0  0  0  0  0  0  0  0  0
  143.3292   78.3778  222.2502 H   0  0  0  0  0  0  0  0  0  0  0  0
  137.9919   81.3480  220.5926 H   0  0  0  0  0  0  0  0  0  0  0  0
  1  2  1  0
  2  3  1  0
  3  4  2  0
  4  5  1  0
  5  6  2  0
  6  7  1  0
  7  8  1  0
  7  9  1  0
  9 10  1  0
 10 11  2  0
 10 12  1  0
 12 13  1  0
 13 14  1  0
 14 15  1  0
 14 16  1  0
 16 17  1  0
 17 18  1  0
 18 19  2  0
 18 20  1  0
 20 21  1  0
 21 22  1  0
 22 23  2  0
 22 24  1  0
 24 25  2  0
 25 26  1  0
 26 27  2  0
 27 28  1  0
 28 29  2  0
 29 30  1  0
 29 31  1  0
 31 32  2  0
 32 33  1  0
 33 34  2  0
  6 35  1  0
 35 36  1  0
 35 37  2  0
 37  3  1  0
 17 12  1  0
 34 24  1  0
 33 27  1  0
  1 38  1  0
  1 39  1  0
  1 40  1  0
  4 41  1  0
  5 42  1  0
  7 43  1  6
  8 44  1  0
  8 45  1  0
  8 46  1  0
  9 47  1  0
 12 48  1  1
 13 49  1  0
 13 50  1  0
 14 51  1  6
 15 52  1  0
 16 53  1  0
 16 54  1  0
 20 55  1  0
 20 56  1  0
 25 57  1  0
 26 58  1  0
 28 59  1  0
 31 60  1  0
 32 61  1  0
 37 62  1  0
M  CHG  1  21  -1
M  END
>  <meeko>  (9) 
{"free_energy": -5.01, "intermolecular_energy": -7.99, "internal_energy": -6.03, "cluster_size": 2, "cluster_id": 6, "rank_in_cluster": 1}

$$$$

     RDKit          3D

 62 65  0  0  0  0  0  0  0  0999 V2000
  142.6140   81.1620  224.2440 C   0  0  0  0  0  0  0  0  0  0  0  0
  142.4050   80.9990  222.8440 O   0  0  0  0  0  0  0  0  0  0  0  0
  141.9370   79.8230  222.2410 C   0  0  0  0  0  0  0  0  0  0  0  0
  141.5150   78.7810  223.0700 C   0  0  0  0  0  0  0  0  0  0  0  0
  141.0360   77.5940  222.5200 C   0  0  0  0  0  0  0  0  0  0  0  0
  140.9690   77.4120  221.1220 C   0  0  0  0  0  0  0  0  0  0  0  0
  140.4330   76.1000  220.5680 C   0  0  2  0  0  0  0  0  0  0  0  0
  139.0730   75.7720  221.1900 C   0  0  0  0  0  0  0  0  0  0  0  0
  141.3800   75.0060  220.8130 N   0  0  0  0  0  0  0  0  0  0  0  0
  142.7730   75.1010  220.4640 C   0  0  0  0  0  0  0  0  0  0  0  0
  143.2460   76.1820  220.0190 O   0  0  0  0  0  0  0  0  0  0  0  0
  143.6560   73.8800  220.5530 C   0  0  2  0  0  0  0  0  0  0  0  0
  145.0830   74.1490  220.0720 C   0  0  0  0  0  0  0  0  0  0  0  0
  145.5130   72.8840  219.3240 C   0  0  1  0  0  0  0  0  0  0  0  0
  146.2480   72.0550  220.1890 O   0  0  0  0  0  0  0  0  0  0  0  0
  144.2120   72.1970  218.9020 C   0  0  0  0  0  0  0  0  0  0  0  0
  143.1680   72.8160  219.6960 N   0  0  0  0  0  0  0  0  0  0  0  0
  141.8310   72.3030  219.7600 C   0  0  0  0  0  0  0  0  0  0  0  0
  140.8900   72.9530  219.2370 O   0  0  0  0  0  0  0  0  0  0  0  0
  141.5470   70.9940  220.4280 C   0  0  0  0  0  0  0  0  0  0  0  0
  140.2940   71.0780  221.1700 N   0  0  0  0  0  0  0  0  0  0  0  0
  140.1800   71.7190  222.4440 C   0  0  0  0  0  0  0  0  0  0  0  0
  140.2240   72.9770  222.5230 O   0  0  0  0  0  0  0  0  0  0  0  0
  139.9940   70.9060  223.6580 C   0  0  0  0  0  0  0  0  0  0  0  0
  139.2930   69.6910  223.6200 C   0  0  0  0  0  0  0  0  0  0  0  0
  139.1820   68.9170  224.7790 C   0  0  0  0  0  0  0  0  0  0  0  0
  139.7660   69.3610  225.9720 C   0  0  0  0  0  0  0  0  0  0  0  0
  139.6800   68.6050  227.1500 C   0  0  0  0  0  0  0  0  0  0  0  0
  140.2860   69.0700  228.3230 C   0  0  0  0  0  0  0  0  0  0  0  0
  140.1940   68.3440  229.4680 F   0  0  0  0  0  0  0  0  0  0  0  0
  140.9810   70.2860  228.3230 C   0  0  0  0  0  0  0  0  0  0  0  0
  141.0620   71.0510  227.1500 C   0  0  0  0  0  0  0  0  0  0  0  0
  140.4580   70.5930  225.9740 C   0  0  0  0  0  0  0  0  0  0  0  0
  140.5470   71.3240  224.8280 N   0  0  0  0  0  0  0  0  0  0  0  0
  141.3940   78.4710  220.2830 C   0  0  0  0  0  0  0  0  0  0  0  0
  141.3450   78.3650  218.5250 Cl  0  0  0  0  0  0  0  0  0  0  0  0
  141.8770   79.6590  220.8440 C   0  0  0  0  0  0  0  0  0  0  0  0
  141.8643   80.5773  224.7972 H   0  0  0  0  0  0  0  0  0  0  0  0
  143.6219   80.8091  224.5078 H   0  0  0  0  0  0  0  0  0  0  0  0
  142.5172   82.2255  224.5078 H   0  0  0  0  0  0  0  0  0  0  0  0
  141.5611   78.8982  224.1628 H   0  0  0  0  0  0  0  0  0  0  0  0
  140.7042   76.7846  223.1869 H   0  0  0  0  0  0  0  0  0  0  0  0
  140.3063   76.2130  219.4812 H   0  0  0  0  0  0  0  0  0  0  0  0
  139.1569   75.7922  222.2866 H   0  0  0  0  0  0  0  0  0  0  0  0
  138.3319   76.5172  220.8651 H   0  0  0  0  0  0  0  0  0  0  0  0
  138.7531   74.7709  220.8651 H   0  0  0  0  0  0  0  0  0  0  0  0
  141.0330   74.0990  221.1980 H   0  0  0  0  0  0  0  0  0  0  0  0
  143.6433   73.6025  221.6173 H   0  0  0  0  0  0  0  0  0  0  0  0
  145.1033   75.0185  219.3985 H   0  0  0  0  0  0  0  0  0  0  0  0
  145.7585   74.3746  220.9104 H   0  0  0  0  0  0  0  0  0  0  0  0
  146.1504   73.1068  218.4556 H   0  0  0  0  0  0  0  0  0  0  0  0
  145.6460   71.8390  220.9500 H   0  0  0  0  0  0  0  0  0  0  0  0
  144.0242   72.3560  217.8299 H   0  0  0  0  0  0  0  0  0  0  0  0
  144.2552   71.1098  219.0634 H   0  0  0  0  0  0  0  0  0  0  0  0
  141.4675   70.2050  219.6657 H   0  0  0  0  0  0  0  0  0  0  0  0
  142.3653   70.7569  221.1238 H   0  0  0  0  0  0  0  0  0  0  0  0
  138.8324   69.3487  222.6816 H   0  0  0  0  0  0  0  0  0  0  0  0
  138.6373   67.9616  224.7539 H   0  0  0  0  0  0  0  0  0  0  0  0
  139.1372   67.6482  227.1522 H   0  0  0  0  0  0  0  0  0  0  0  0
  141.4644   70.6419  229.2448 H   0  0  0  0  0  0  0  0  0  0  0  0
  141.6001   72.0104  227.1547 H   0  0  0  0  0  0  0  0  0  0  0  0
  142.2135   80.4737  220.1859 H   0  0  0  0  0  0  0  0  0  0  0  0
  1  2  1  0
  2  3  1  0
  3  4  2  0
  4  5  1  0
  5  6  2  0
  6  7  1  0
  7  8  1  0
  7  9  1  0
  9 10  1  0
 10 11  2  0
 10 12  1  0
 12 13  1  0
 13 14  1  0
 14 15  1  0
 14 16  1  0
 16 17  1  0
 17 18  1  0
 18 19  2  0
 18 20  1  0
 20 21  1  0
 21 22  1  0
 22 23  2  0
 22 24  1  0
 24 25  2  0
 25 26  1  0
 26 27  2  0
 27 28  1  0
 28 29  2  0
 29 30  1  0
 29 31  1  0
 31 32  2  0
 32 33  1  0
 33 34  2  0
  6 35  1  0
 35 36  1  0
 35 37  2  0
 37  3  1  0
 17 12  1  0
 34 24  1  0
 33 27  1  0
  1 38  1  0
  1 39  1  0
  1 40  1  0
  4 41  1  0
  5 42  1  0
  7 43  1  6
  8 44  1  0
  8 45  1  0
  8 46  1  0
  9 47  1  0
 12 48  1  1
 13 49  1  0
 13 50  1  0
 14 51  1  6
 15 52  1  0
 16 53  1  0
 16 54  1  0
 20 55  1  0
 20 56  1  0
 25 57  1  0
 26 58  1  0
 28 59  1  0
 31 60  1  0
 32 61  1  0
 37 62  1  0
M  CHG  1  21  -1
M  END
>  <meeko>  (10) 
{"free_energy": -8.52, "intermolecular_energy": -11.5, "internal_energy": -3.25, "cluster_size": 6, "cluster_id": 2, "rank_in_cluster": 4}

$$$$

     RDKit          3D

 62 65  0  0  0  0  0  0  0  0999 V2000
  136.9670   81.0940  222.3420 C   0  0  0  0  0  0  0  0  0  0  0  0
  137.5280   81.3440  221.0570 O   0  0  0  0  0  0  0  0  0  0  0  0
  138.4140   80.4820  220.3950 C   0  0  0  0  0  0  0  0  0  0  0  0
  137.9880   79.1810  220.1220 C   0  0  0  0  0  0  0  0  0  0  0  0
  138.8290   78.2880  219.4610 C   0  0  0  0  0  0  0  0  0  0  0  0
  140.1260   78.6700  219.0570 C   0  0  0  0  0  0  0  0  0  0  0  0
  141.0060   77.6630  218.3320 C   0  0  2  0  0  0  0  0  0  0  0  0
  140.2710   77.0830  217.1210 C   0  0  0  0  0  0  0  0  0  0  0  0
  141.4170   76.5840  219.2390 N   0  0  0  0  0  0  0  0  0  0  0  0
  142.7840   76.1490  219.3490 C   0  0  0  0  0  0  0  0  0  0  0  0
  143.6980   76.7590  218.7290 O   0  0  0  0  0  0  0  0  0  0  0  0
  143.1180   74.9090  220.1420 C   0  0  2  0  0  0  0  0  0  0  0  0
  144.6130   74.7920  220.4500 C   0  0  0  0  0  0  0  0  0  0  0  0
  144.9450   73.3020  220.3240 C   0  0  1  0  0  0  0  0  0  0  0  0
  144.9110   72.7060  221.5960 O   0  0  0  0  0  0  0  0  0  0  0  0
  143.8530   72.7140  219.4270 C   0  0  0  0  0  0  0  0  0  0  0  0
  142.7950   73.7070  219.3980 N   0  0  0  0  0  0  0  0  0  0  0  0
  141.4980   73.4470  218.8470 C   0  0  0  0  0  0  0  0  0  0  0  0
  141.3150   73.5610  217.6070 O   0  0  0  0  0  0  0  0  0  0  0  0
  140.3650   73.0240  219.7280 C   0  0  0  0  0  0  0  0  0  0  0  0
  139.7080   74.2000  220.2890 N   0  0  0  0  0  0  0  0  0  0  0  0
  139.7850   74.5550  221.6730 C   0  0  0  0  0  0  0  0  0  0  0  0
  139.8600   73.6520  222.5510 O   0  0  0  0  0  0  0  0  0  0  0  0
  139.7960   75.9740  222.0660 C   0  0  0  0  0  0  0  0  0  0  0  0
  138.6800   76.5700  222.6740 C   0  0  0  0  0  0  0  0  0  0  0  0
  138.7440   77.9050  223.0840 C   0  0  0  0  0  0  0  0  0  0  0  0
  139.9170   78.6410  222.8810 C   0  0  0  0  0  0  0  0  0  0  0  0
  140.0170   79.9800  223.2880 C   0  0  0  0  0  0  0  0  0  0  0  0
  141.2080   80.6840  223.0820 C   0  0  0  0  0  0  0  0  0  0  0  0
  141.3010   81.9850  223.4660 F   0  0  0  0  0  0  0  0  0  0  0  0
  142.3020   80.0570  222.4750 C   0  0  0  0  0  0  0  0  0  0  0  0
  142.2060   78.7210  222.0580 C   0  0  0  0  0  0  0  0  0  0  0  0
  141.0180   78.0100  222.2590 C   0  0  0  0  0  0  0  0  0  0  0  0
  140.9240   76.7090  221.8700 N   0  0  0  0  0  0  0  0  0  0  0  0
  140.5560   79.9910  219.3310 C   0  0  0  0  0  0  0  0  0  0  0  0
  142.1470   80.5870  218.8640 Cl  0  0  0  0  0  0  0  0  0  0  0  0
  139.7060   80.8810  219.9990 C   0  0  0  0  0  0  0  0  0  0  0  0
  137.6772   81.4105  223.1200 H   0  0  0  0  0  0  0  0  0  0  0  0
  136.0296   81.6596  222.4492 H   0  0  0  0  0  0  0  0  0  0  0  0
  136.7608   80.0188  222.4492 H   0  0  0  0  0  0  0  0  0  0  0  0
  136.9825   78.8589  220.4305 H   0  0  0  0  0  0  0  0  0  0  0  0
  138.4758   77.2677  219.2505 H   0  0  0  0  0  0  0  0  0  0  0  0
  141.9077   78.1862  217.9809 H   0  0  0  0  0  0  0  0  0  0  0  0
  139.4509   76.4358  217.4653 H   0  0  0  0  0  0  0  0  0  0  0  0
  139.8606   77.9033  216.5138 H   0  0  0  0  0  0  0  0  0  0  0  0
  140.9734   76.4931  216.5138 H   0  0  0  0  0  0  0  0  0  0  0  0
  140.6930   76.0640  219.7860 H   0  0  0  0  0  0  0  0  0  0  0  0
  142.5298   75.0015  221.0669 H   0  0  0  0  0  0  0  0  0  0  0  0
  145.2006   75.3785  219.7284 H   0  0  0  0  0  0  0  0  0  0  0  0
  144.8535   75.1790  221.4512 H   0  0  0  0  0  0  0  0  0  0  0  0
  145.9464   73.1295  219.9028 H   0  0  0  0  0  0  0  0  0  0  0  0
  145.5960   71.9860  221.5870 H   0  0  0  0  0  0  0  0  0  0  0  0
  144.2422   72.5379  218.4133 H   0  0  0  0  0  0  0  0  0  0  0  0
  143.4926   71.7462  219.8057 H   0  0  0  0  0  0  0  0  0  0  0  0
  139.6385   72.4473  219.1367 H   0  0  0  0  0  0  0  0  0  0  0  0
  140.7550   72.4013  220.5466 H   0  0  0  0  0  0  0  0  0  0  0  0
  137.7587   75.9889  222.8272 H   0  0  0  0  0  0  0  0  0  0  0  0
  137.8742   78.3760  223.5652 H   0  0  0  0  0  0  0  0  0  0  0  0
  139.1602   80.4753  223.7683 H   0  0  0  0  0  0  0  0  0  0  0  0
  143.2392   80.6129  222.3246 H   0  0  0  0  0  0  0  0  0  0  0  0
  143.0643   78.2328  221.5733 H   0  0  0  0  0  0  0  0  0  0  0  0
  140.0506   81.9026  220.2169 H   0  0  0  0  0  0  0  0  0  0  0  0
  1  2  1  0
  2  3  1  0
  3  4  2  0
  4  5  1  0
  5  6  2  0
  6  7  1  0
  7  8  1  0
  7  9  1  0
  9 10  1  0
 10 11  2  0
 10 12  1  0
 12 13  1  0
 13 14  1  0
 14 15  1  0
 14 16  1  0
 16 17  1  0
 17 18  1  0
 18 19  2  0
 18 20  1  0
 20 21  1  0
 21 22  1  0
 22 23  2  0
 22 24  1  0
 24 25  2  0
 25 26  1  0
 26 27  2  0
 27 28  1  0
 28 29  2  0
 29 30  1  0
 29 31  1  0
 31 32  2  0
 32 33  1  0
 33 34  2  0
  6 35  1  0
 35 36  1  0
 35 37  2  0
 37  3  1  0
 17 12  1  0
 34 24  1  0
 33 27  1  0
  1 38  1  0
  1 39  1  0
  1 40  1  0
  4 41  1  0
  5 42  1  0
  7 43  1  6
  8 44  1  0
  8 45  1  0
  8 46  1  0
  9 47  1  0
 12 48  1  1
 13 49  1  0
 13 50  1  0
 14 51  1  6
 15 52  1  0
 16 53  1  0
 16 54  1  0
 20 55  1  0
 20 56  1  0
 25 57  1  0
 26 58  1  0
 28 59  1  0
 31 60  1  0
 32 61  1  0
 37 62  1  0
M  CHG  1  21  -1
M  END
>  <meeko>  (11) 
{"free_energy": -4.79, "intermolecular_energy": -7.77, "internal_energy": -5.74, "cluster_size": 2, "cluster_id": 6, "rank_in_cluster": 2}

$$$$

     RDKit          3D

 62 65  0  0  0  0  0  0  0  0999 V2000
  133.6130   71.6570  227.2400 C   0  0  0  0  0  0  0  0  0  0  0  0
  133.7750   73.0310  226.9030 O   0  0  0  0  0  0  0  0  0  0  0  0
  134.3960   73.4960  225.7340 C   0  0  0  0  0  0  0  0  0  0  0  0
  135.0510   72.5680  224.9220 C   0  0  0  0  0  0  0  0  0  0  0  0
  135.6770   72.9780  223.7470 C   0  0  0  0  0  0  0  0  0  0  0  0
  135.6710   74.3330  223.3520 C   0  0  0  0  0  0  0  0  0  0  0  0
  136.3640   74.7330  222.0580 C   0  0  2  0  0  0  0  0  0  0  0  0
  136.3280   73.5800  221.0520 C   0  0  0  0  0  0  0  0  0  0  0  0
  137.7510   75.1380  222.3140 N   0  0  0  0  0  0  0  0  0  0  0  0
  138.1710   76.5150  222.2780 C   0  0  0  0  0  0  0  0  0  0  0  0
  137.3220   77.4350  222.1200 O   0  0  0  0  0  0  0  0  0  0  0  0
  139.6390   76.8560  222.3500 C   0  0  2  0  0  0  0  0  0  0  0  0
  139.8870   78.3570  222.5160 C   0  0  0  0  0  0  0  0  0  0  0  0
  141.1210   78.6680  221.6640 C   0  0  1  0  0  0  0  0  0  0  0  0
  142.2660   78.6620  222.4800 O   0  0  0  0  0  0  0  0  0  0  0  0
  141.1960   77.5450  220.6270 C   0  0  0  0  0  0  0  0  0  0  0  0
  140.3210   76.4990  221.1210 N   0  0  0  0  0  0  0  0  0  0  0  0
  140.2810   75.1840  220.5520 C   0  0  0  0  0  0  0  0  0  0  0  0
  139.5440   74.9590  219.5570 O   0  0  0  0  0  0  0  0  0  0  0  0
  141.1210   74.0810  221.1170 C   0  0  0  0  0  0  0  0  0  0  0  0
  140.5180   73.5810  222.3470 N   0  0  0  0  0  0  0  0  0  0  0  0
  139.5740   72.5050  222.3750 C   0  0  0  0  0  0  0  0  0  0  0  0
  138.7400   72.3760  221.4380 O   0  0  0  0  0  0  0  0  0  0  0  0
  139.5940   71.5430  223.4900 C   0  0  0  0  0  0  0  0  0  0  0  0
  139.0030   70.2760  223.3680 C   0  0  0  0  0  0  0  0  0  0  0  0
  139.0880   69.3660  224.4260 C   0  0  0  0  0  0  0  0  0  0  0  0
  139.7570   69.7260  225.6020 C   0  0  0  0  0  0  0  0  0  0  0  0
  139.8670   68.8340  226.6790 C   0  0  0  0  0  0  0  0  0  0  0  0
  140.5540   69.2190  227.8360 C   0  0  0  0  0  0  0  0  0  0  0  0
  140.6520   68.3590  228.8840 F   0  0  0  0  0  0  0  0  0  0  0  0
  141.1350   70.4900  227.9210 C   0  0  0  0  0  0  0  0  0  0  0  0
  141.0200   71.3900  226.8510 C   0  0  0  0  0  0  0  0  0  0  0  0
  140.3340   71.0130  225.6910 C   0  0  0  0  0  0  0  0  0  0  0  0
  140.2330   71.8760  224.6440 N   0  0  0  0  0  0  0  0  0  0  0  0
  135.0040   75.2730  224.1760 C   0  0  0  0  0  0  0  0  0  0  0  0
  134.9180   76.9870  223.7800 Cl  0  0  0  0  0  0  0  0  0  0  0  0
  134.3800   74.8520  225.3560 C   0  0  0  0  0  0  0  0  0  0  0  0
  133.6000   71.5470  228.3344 H   0  0  0  0  0  0  0  0  0  0  0  0
  132.6650   71.2865  226.8230 H   0  0  0  0  0  0  0  0  0  0  0  0
  134.4489   71.0762  226.8230 H   0  0  0  0  0  0  0  0  0  0  0  0
  135.0728   71.5071  225.2118 H   0  0  0  0  0  0  0  0  0  0  0  0
  136.1845   72.2332  223.1164 H   0  0  0  0  0  0  0  0  0  0  0  0
  135.8236   75.5911  221.6317 H   0  0  0  0  0  0  0  0  0  0  0  0
  136.2981   72.6225  221.5926 H   0  0  0  0  0  0  0  0  0  0  0  0
  135.4323   73.6725  220.4202 H   0  0  0  0  0  0  0  0  0  0  0  0
  137.2277   73.6164  220.4202 H   0  0  0  0  0  0  0  0  0  0  0  0
  138.4830   74.4090  222.4690 H   0  0  0  0  0  0  0  0  0  0  0  0
  140.0149   76.2947  223.2182 H   0  0  0  0  0  0  0  0  0  0  0  0
  139.0194   78.9312  222.1589 H   0  0  0  0  0  0  0  0  0  0  0  0
  140.0416   78.6295  223.5704 H   0  0  0  0  0  0  0  0  0  0  0  0
  141.0606   79.6552  221.1825 H   0  0  0  0  0  0  0  0  0  0  0  0
  142.9820   78.2150  221.9550 H   0  0  0  0  0  0  0  0  0  0  0  0
  140.8499   77.9040  219.6465 H   0  0  0  0  0  0  0  0  0  0  0  0
  142.2262   77.1839  220.4918 H   0  0  0  0  0  0  0  0  0  0  0  0
  141.1896   73.2627  220.3851 H   0  0  0  0  0  0  0  0  0  0  0  0
  142.1273   74.4671  221.3368 H   0  0  0  0  0  0  0  0  0  0  0  0
  138.4749   69.9999  222.4434 H   0  0  0  0  0  0  0  0  0  0  0  0
  138.6305   68.3698  224.3347 H   0  0  0  0  0  0  0  0  0  0  0  0
  139.4141   67.8337  226.6143 H   0  0  0  0  0  0  0  0  0  0  0  0
  141.6828   70.7835  228.8286 H   0  0  0  0  0  0  0  0  0  0  0  0
  141.4689   72.3916  226.9238 H   0  0  0  0  0  0  0  0  0  0  0  0
  133.8715   75.5888  225.9951 H   0  0  0  0  0  0  0  0  0  0  0  0
  1  2  1  0
  2  3  1  0
  3  4  2  0
  4  5  1  0
  5  6  2  0
  6  7  1  0
  7  8  1  0
  7  9  1  0
  9 10  1  0
 10 11  2  0
 10 12  1  0
 12 13  1  0
 13 14  1  0
 14 15  1  0
 14 16  1  0
 16 17  1  0
 17 18  1  0
 18 19  2  0
 18 20  1  0
 20 21  1  0
 21 22  1  0
 22 23  2  0
 22 24  1  0
 24 25  2  0
 25 26  1  0
 26 27  2  0
 27 28  1  0
 28 29  2  0
 29 30  1  0
 29 31  1  0
 31 32  2  0
 32 33  1  0
 33 34  2  0
  6 35  1  0
 35 36  1  0
 35 37  2  0
 37  3  1  0
 17 12  1  0
 34 24  1  0
 33 27  1  0
  1 38  1  0
  1 39  1  0
  1 40  1  0
  4 41  1  0
  5 42  1  0
  7 43  1  6
  8 44  1  0
  8 45  1  0
  8 46  1  0
  9 47  1  0
 12 48  1  1
 13 49  1  0
 13 50  1  0
 14 51  1  6
 15 52  1  0
 16 53  1  0
 16 54  1  0
 20 55  1  0
 20 56  1  0
 25 57  1  0
 26 58  1  0
 28 59  1  0
 31 60  1  0
 32 61  1  0
 37 62  1  0
M  CHG  1  21  -1
M  END
>  <meeko>  (12) 
{"free_energy": -8.36, "intermolecular_energy": -11.34, "internal_energy": -3.68, "cluster_size": 5, "cluster_id": 1, "rank_in_cluster": 4}

$$$$

     RDKit          3D

 62 65  0  0  0  0  0  0  0  0999 V2000
  141.8320   79.6140  219.2210 C   0  0  0  0  0  0  0  0  0  0  0  0
  142.0960   78.3370  219.7930 O   0  0  0  0  0  0  0  0  0  0  0  0
  142.5170   77.2130  219.0680 C   0  0  0  0  0  0  0  0  0  0  0  0
  142.4500   75.9640  219.6890 C   0  0  0  0  0  0  0  0  0  0  0  0
  142.8500   74.8160  219.0090 C   0  0  0  0  0  0  0  0  0  0  0  0
  143.3360   74.8840  217.6860 C   0  0  0  0  0  0  0  0  0  0  0  0
  143.7560   73.6020  216.9810 C   0  0  2  0  0  0  0  0  0  0  0  0
  142.7920   73.2800  215.8360 C   0  0  0  0  0  0  0  0  0  0  0  0
  143.8090   72.4820  217.9290 N   0  0  0  0  0  0  0  0  0  0  0  0
  144.9770   72.2000  218.7220 C   0  0  0  0  0  0  0  0  0  0  0  0
  145.9680   72.9790  218.6950 O   0  0  0  0  0  0  0  0  0  0  0  0
  145.0500   70.9250  219.5260 C   0  0  2  0  0  0  0  0  0  0  0  0
  146.1130   69.9580  219.0010 C   0  0  0  0  0  0  0  0  0  0  0  0
  145.5070   68.5590  219.1480 C   0  0  1  0  0  0  0  0  0  0  0  0
  145.9570   67.9780  220.3460 O   0  0  0  0  0  0  0  0  0  0  0  0
  143.9920   68.7710  219.1910 C   0  0  0  0  0  0  0  0  0  0  0  0
  143.8040   70.1860  219.4520 N   0  0  0  0  0  0  0  0  0  0  0  0
  142.5310   70.7540  219.7860 C   0  0  0  0  0  0  0  0  0  0  0  0
  141.5470   70.5640  219.0250 O   0  0  0  0  0  0  0  0  0  0  0  0
  142.3570   71.5540  221.0390 C   0  0  0  0  0  0  0  0  0  0  0  0
  141.0360   72.1740  221.0500 N   0  0  0  0  0  0  0  0  0  0  0  0
  140.3740   72.5830  222.2520 C   0  0  0  0  0  0  0  0  0  0  0  0
  139.9330   73.7600  222.3570 O   0  0  0  0  0  0  0  0  0  0  0  0
  140.1940   71.6210  223.3520 C   0  0  0  0  0  0  0  0  0  0  0  0
  139.6020   70.3670  223.1340 C   0  0  0  0  0  0  0  0  0  0  0  0
  139.4960   69.4570  224.1900 C   0  0  0  0  0  0  0  0  0  0  0  0
  139.9760   69.8030  225.4580 C   0  0  0  0  0  0  0  0  0  0  0  0
  139.8920   68.9100  226.5370 C   0  0  0  0  0  0  0  0  0  0  0  0
  140.3930   69.2810  227.7900 C   0  0  0  0  0  0  0  0  0  0  0  0
  140.3020   68.4200  228.8380 F   0  0  0  0  0  0  0  0  0  0  0  0
  140.9800   70.5390  227.9700 C   0  0  0  0  0  0  0  0  0  0  0  0
  141.0570   71.4400  226.8990 C   0  0  0  0  0  0  0  0  0  0  0  0
  140.5580   71.0770  225.6420 C   0  0  0  0  0  0  0  0  0  0  0  0
  140.6460   71.9420  224.5940 N   0  0  0  0  0  0  0  0  0  0  0  0
  143.4010   76.1510  217.0560 C   0  0  0  0  0  0  0  0  0  0  0  0
  143.9760   76.3590  215.4030 Cl  0  0  0  0  0  0  0  0  0  0  0  0
  142.9990   77.2990  217.7470 C   0  0  0  0  0  0  0  0  0  0  0  0
  141.6797   80.3508  220.0234 H   0  0  0  0  0  0  0  0  0  0  0  0
  142.6857   79.9207  218.5988 H   0  0  0  0  0  0  0  0  0  0  0  0
  140.9266   79.5570  218.5988 H   0  0  0  0  0  0  0  0  0  0  0  0
  142.0790   75.8862  220.7216 H   0  0  0  0  0  0  0  0  0  0  0  0
  142.7859   73.8398  219.5119 H   0  0  0  0  0  0  0  0  0  0  0  0
  144.7623   73.7535  216.5633 H   0  0  0  0  0  0  0  0  0  0  0  0
  141.8255   72.9572  216.2502 H   0  0  0  0  0  0  0  0  0  0  0  0
  142.6444   74.1776  215.2175 H   0  0  0  0  0  0  0  0  0  0  0  0
  143.2135   72.4739  215.2175 H   0  0  0  0  0  0  0  0  0  0  0  0
  143.0020   71.8230  217.9960 H   0  0  0  0  0  0  0  0  0  0  0  0
  145.2847   71.2526  220.5495 H   0  0  0  0  0  0  0  0  0  0  0  0
  146.3371   70.1702  217.9452 H   0  0  0  0  0  0  0  0  0  0  0  0
  147.0581   70.0522  219.5560 H   0  0  0  0  0  0  0  0  0  0  0  0
  145.7947   67.8888  218.3245 H   0  0  0  0  0  0  0  0  0  0  0  0
  146.3140   67.0820  220.1070 H   0  0  0  0  0  0  0  0  0  0  0  0
  143.5380   68.4944  218.2280 H   0  0  0  0  0  0  0  0  0  0  0  0
  143.5152   68.1477  219.9618 H   0  0  0  0  0  0  0  0  0  0  0  0
  142.4570   70.8920  221.9118 H   0  0  0  0  0  0  0  0  0  0  0  0
  143.1269   72.3387  221.0789 H   0  0  0  0  0  0  0  0  0  0  0  0
  139.2230   70.1014  222.1361 H   0  0  0  0  0  0  0  0  0  0  0  0
  139.0364   68.4714  224.0245 H   0  0  0  0  0  0  0  0  0  0  0  0
  139.4331   67.9200  226.3983 H   0  0  0  0  0  0  0  0  0  0  0  0
  141.3818   70.8212  228.9543 H   0  0  0  0  0  0  0  0  0  0  0  0
  141.5093   72.4319  227.0459 H   0  0  0  0  0  0  0  0  0  0  0  0
  143.0599   78.2801  217.2533 H   0  0  0  0  0  0  0  0  0  0  0  0
  1  2  1  0
  2  3  1  0
  3  4  2  0
  4  5  1  0
  5  6  2  0
  6  7  1  0
  7  8  1  0
  7  9  1  0
  9 10  1  0
 10 11  2  0
 10 12  1  0
 12 13  1  0
 13 14  1  0
 14 15  1  0
 14 16  1  0
 16 17  1  0
 17 18  1  0
 18 19  2  0
 18 20  1  0
 20 21  1  0
 21 22  1  0
 22 23  2  0
 22 24  1  0
 24 25  2  0
 25 26  1  0
 26 27  2  0
 27 28  1  0
 28 29  2  0
 29 30  1  0
 29 31  1  0
 31 32  2  0
 32 33  1  0
 33 34  2  0
  6 35  1  0
 35 36  1  0
 35 37  2  0
 37  3  1  0
 17 12  1  0
 34 24  1  0
 33 27  1  0
  1 38  1  0
  1 39  1  0
  1 40  1  0
  4 41  1  0
  5 42  1  0
  7 43  1  6
  8 44  1  0
  8 45  1  0
  8 46  1  0
  9 47  1  0
 12 48  1  1
 13 49  1  0
 13 50  1  0
 14 51  1  6
 15 52  1  0
 16 53  1  0
 16 54  1  0
 20 55  1  0
 20 56  1  0
 25 57  1  0
 26 58  1  0
 28 59  1  0
 31 60  1  0
 32 61  1  0
 37 62  1  0
M  CHG  1  21  -1
M  END
>  <meeko>  (13) 
{"free_energy": -8.2, "intermolecular_energy": -11.18, "internal_energy": -2.47, "cluster_size": 1, "cluster_id": 3, "rank_in_cluster": 1}

$$$$

     RDKit          3D

 62 65  0  0  0  0  0  0  0  0999 V2000
  143.2100   80.8940  223.8290 C   0  0  0  0  0  0  0  0  0  0  0  0
  141.8930   80.5130  223.4440 O   0  0  0  0  0  0  0  0  0  0  0  0
  141.5940   79.4520  222.5770 C   0  0  0  0  0  0  0  0  0  0  0  0
  141.0560   78.2850  223.1230 C   0  0  0  0  0  0  0  0  0  0  0  0
  140.7360   77.2050  222.3030 C   0  0  0  0  0  0  0  0  0  0  0  0
  140.9510   77.2590  220.9090 C   0  0  0  0  0  0  0  0  0  0  0  0
  140.5800   76.0570  220.0530 C   0  0  2  0  0  0  0  0  0  0  0  0
  139.1210   75.6590  220.2910 C   0  0  0  0  0  0  0  0  0  0  0  0
  141.4680   74.9230  220.3370 N   0  0  0  0  0  0  0  0  0  0  0  0
  142.8970   75.0070  220.1860 C   0  0  0  0  0  0  0  0  0  0  0  0
  143.4430   76.1060  219.8950 O   0  0  0  0  0  0  0  0  0  0  0  0
  143.7400   73.7600  220.2970 C   0  0  2  0  0  0  0  0  0  0  0  0
  145.2180   74.0220  220.0030 C   0  0  0  0  0  0  0  0  0  0  0  0
  145.7080   72.7940  219.2290 C   0  0  1  0  0  0  0  0  0  0  0  0
  146.3220   71.8940  220.1180 O   0  0  0  0  0  0  0  0  0  0  0  0
  144.4530   72.1690  218.6160 C   0  0  0  0  0  0  0  0  0  0  0  0
  143.3360   72.7650  219.3230 N   0  0  0  0  0  0  0  0  0  0  0  0
  141.9910   72.2850  219.2000 C   0  0  0  0  0  0  0  0  0  0  0  0
  141.2950   72.6300  218.2100 O   0  0  0  0  0  0  0  0  0  0  0  0
  141.4130   71.3620  220.2270 C   0  0  0  0  0  0  0  0  0  0  0  0
  140.2280   71.9680  220.8260 N   0  0  0  0  0  0  0  0  0  0  0  0
  140.2040   72.4860  222.1600 C   0  0  0  0  0  0  0  0  0  0  0  0
  140.2730   73.7310  222.3530 O   0  0  0  0  0  0  0  0  0  0  0  0
  140.0810   71.5640  223.3020 C   0  0  0  0  0  0  0  0  0  0  0  0
  139.5260   70.2840  223.1470 C   0  0  0  0  0  0  0  0  0  0  0  0
  139.4730   69.4140  224.2400 C   0  0  0  0  0  0  0  0  0  0  0  0
  139.9700   69.8250  225.4820 C   0  0  0  0  0  0  0  0  0  0  0  0
  139.9400   68.9740  226.5970 C   0  0  0  0  0  0  0  0  0  0  0  0
  140.4560   69.4100  227.8220 C   0  0  0  0  0  0  0  0  0  0  0  0
  140.4170   68.5900  228.9050 F   0  0  0  0  0  0  0  0  0  0  0  0
  141.0050   70.6930  227.9390 C   0  0  0  0  0  0  0  0  0  0  0  0
  141.0290   71.5530  226.8310 C   0  0  0  0  0  0  0  0  0  0  0  0
  140.5140   71.1240  225.6020 C   0  0  0  0  0  0  0  0  0  0  0  0
  140.5500   71.9480  224.5190 N   0  0  0  0  0  0  0  0  0  0  0  0
  141.4930   78.4450  220.3560 C   0  0  0  0  0  0  0  0  0  0  0  0
  141.7930   78.6340  218.6300 Cl  0  0  0  0  0  0  0  0  0  0  0  0
  141.8150   79.5230  221.1880 C   0  0  0  0  0  0  0  0  0  0  0  0
  143.2798   80.9142  224.9266 H   0  0  0  0  0  0  0  0  0  0  0  0
  143.9334   80.1683  223.4289 H   0  0  0  0  0  0  0  0  0  0  0  0
  143.4342   81.8938  223.4289 H   0  0  0  0  0  0  0  0  0  0  0  0
  140.8837   78.2178  224.2073 H   0  0  0  0  0  0  0  0  0  0  0  0
  140.3086   76.2950  222.7494 H   0  0  0  0  0  0  0  0  0  0  0  0
  140.7009   76.3381  218.9964 H   0  0  0  0  0  0  0  0  0  0  0  0
  138.9271   75.6061  221.3725 H   0  0  0  0  0  0  0  0  0  0  0  0
  138.4574   76.4089  219.8358 H   0  0  0  0  0  0  0  0  0  0  0  0
  138.9302   74.6760  219.8358 H   0  0  0  0  0  0  0  0  0  0  0  0
  141.0580   73.9990  220.6000 H   0  0  0  0  0  0  0  0  0  0  0  0
  143.5975   73.4164  221.3322 H   0  0  0  0  0  0  0  0  0  0  0  0
  145.3332   74.9308  219.3941 H   0  0  0  0  0  0  0  0  0  0  0  0
  145.7952   74.1782  220.9263 H   0  0  0  0  0  0  0  0  0  0  0  0
  146.4462   73.0532  218.4557 H   0  0  0  0  0  0  0  0  0  0  0  0
  145.7820   71.9120  220.9520 H   0  0  0  0  0  0  0  0  0  0  0  0
  144.3947   72.3993  217.5420 H   0  0  0  0  0  0  0  0  0  0  0  0
  144.4564   71.0730  218.7100 H   0  0  0  0  0  0  0  0  0  0  0  0
  141.1346   70.4116  219.7483 H   0  0  0  0  0  0  0  0  0  0  0  0
  142.1618   71.1769  221.0112 H   0  0  0  0  0  0  0  0  0  0  0  0
  139.1343   69.9667  222.1693 H   0  0  0  0  0  0  0  0  0  0  0  0
  139.0417   68.4088  224.1241 H   0  0  0  0  0  0  0  0  0  0  0  0
  139.5112   67.9649  226.5081 H   0  0  0  0  0  0  0  0  0  0  0  0
  141.4184   71.0272  228.9020 H   0  0  0  0  0  0  0  0  0  0  0  0
  141.4522   72.5637  226.9278 H   0  0  0  0  0  0  0  0  0  0  0  0
  142.2458   80.4365  220.7521 H   0  0  0  0  0  0  0  0  0  0  0  0
  1  2  1  0
  2  3  1  0
  3  4  2  0
  4  5  1  0
  5  6  2  0
  6  7  1  0
  7  8  1  0
  7  9  1  0
  9 10  1  0
 10 11  2  0
 10 12  1  0
 12 13  1  0
 13 14  1  0
 14 15  1  0
 14 16  1  0
 16 17  1  0
 17 18  1  0
 18 19  2  0
 18 20  1  0
 20 21  1  0
 21 22  1  0
 22 23  2  0
 22 24  1  0
 24 25  2  0
 25 26  1  0
 26 27  2  0
 27 28  1  0
 28 29  2  0
 29 30  1  0
 29 31  1  0
 31 32  2  0
 32 33  1  0
 33 34  2  0
  6 35  1  0
 35 36  1  0
 35 37  2  0
 37  3  1  0
 17 12  1  0
 34 24  1  0
 33 27  1  0
  1 38  1  0
  1 39  1  0
  1 40  1  0
  4 41  1  0
  5 42  1  0
  7 43  1  6
  8 44  1  0
  8 45  1  0
  8 46  1  0
  9 47  1  0
 12 48  1  1
 13 49  1  0
 13 50  1  0
 14 51  1  6
 15 52  1  0
 16 53  1  0
 16 54  1  0
 20 55  1  0
 20 56  1  0
 25 57  1  0
 26 58  1  0
 28 59  1  0
 31 60  1  0
 32 61  1  0
 37 62  1  0
M  CHG  1  21  -1
M  END
>  <meeko>  (14) 
{"free_energy": -8.58, "intermolecular_energy": -11.56, "internal_energy": -3.66, "cluster_size": 6, "cluster_id": 2, "rank_in_cluster": 3}

$$$$

     RDKit          3D

 62 65  0  0  0  0  0  0  0  0999 V2000
  136.8340   80.9190  224.5160 C   0  0  0  0  0  0  0  0  0  0  0  0
  138.2490   80.9360  224.6830 O   0  0  0  0  0  0  0  0  0  0  0  0
  139.1630   80.3870  223.7730 C   0  0  0  0  0  0  0  0  0  0  0  0
  138.6710   79.5580  222.7620 C   0  0  0  0  0  0  0  0  0  0  0  0
  139.5380   78.9930  221.8300 C   0  0  0  0  0  0  0  0  0  0  0  0
  140.9270   79.2360  221.8840 C   0  0  0  0  0  0  0  0  0  0  0  0
  141.8340   78.6020  220.8400 C   0  0  2  0  0  0  0  0  0  0  0  0
  141.5090   79.1450  219.4460 C   0  0  0  0  0  0  0  0  0  0  0  0
  141.7020   77.1400  220.8570 N   0  0  0  0  0  0  0  0  0  0  0  0
  142.5460   76.2820  220.0660 C   0  0  0  0  0  0  0  0  0  0  0  0
  143.5020   76.7660  219.4010 O   0  0  0  0  0  0  0  0  0  0  0  0
  142.2370   74.8080  219.9670 C   0  0  2  0  0  0  0  0  0  0  0  0
  143.0200   74.1170  218.8490 C   0  0  0  0  0  0  0  0  0  0  0  0
  142.0530   73.1000  218.2360 C   0  0  1  0  0  0  0  0  0  0  0  0
  142.2780   71.8360  218.8070 O   0  0  0  0  0  0  0  0  0  0  0  0
  140.6520   73.6050  218.5870 C   0  0  0  0  0  0  0  0  0  0  0  0
  140.8430   74.5840  219.6400 N   0  0  0  0  0  0  0  0  0  0  0  0
  139.7580   75.1320  220.4000 C   0  0  0  0  0  0  0  0  0  0  0  0
  139.2620   76.2400  220.0680 O   0  0  0  0  0  0  0  0  0  0  0  0
  139.1960   74.3900  221.5730 C   0  0  0  0  0  0  0  0  0  0  0  0
  140.2770   73.7540  222.3190 N   0  0  0  0  0  0  0  0  0  0  0  0
  140.5570   72.3520  222.2470 C   0  0  0  0  0  0  0  0  0  0  0  0
  141.0540   71.8620  221.1960 O   0  0  0  0  0  0  0  0  0  0  0  0
  140.2810   71.4900  223.4090 C   0  0  0  0  0  0  0  0  0  0  0  0
  139.5970   70.2730  223.2660 C   0  0  0  0  0  0  0  0  0  0  0  0
  139.3990   69.4530  224.3810 C   0  0  0  0  0  0  0  0  0  0  0  0
  139.8800   69.8530  225.6330 C   0  0  0  0  0  0  0  0  0  0  0  0
  139.7060   69.0500  226.7710 C   0  0  0  0  0  0  0  0  0  0  0  0
  140.2100   69.4710  228.0060 C   0  0  0  0  0  0  0  0  0  0  0  0
  140.0320   68.6990  229.1100 F   0  0  0  0  0  0  0  0  0  0  0  0
  140.8910   70.6910  228.1100 C   0  0  0  0  0  0  0  0  0  0  0  0
  141.0600   71.5030  226.9790 C   0  0  0  0  0  0  0  0  0  0  0  0
  140.5580   71.0880  225.7400 C   0  0  0  0  0  0  0  0  0  0  0  0
  140.7330   71.8650  224.6360 N   0  0  0  0  0  0  0  0  0  0  0  0
  141.4240   80.0790  222.9080 C   0  0  0  0  0  0  0  0  0  0  0  0
  143.1360   80.4660  223.0680 Cl  0  0  0  0  0  0  0  0  0  0  0  0
  140.5470   80.6400  223.8420 C   0  0  0  0  0  0  0  0  0  0  0  0
  136.3484   80.9132  225.5030 H   0  0  0  0  0  0  0  0  0  0  0  0
  136.5199   81.8134  223.9581 H   0  0  0  0  0  0  0  0  0  0  0  0
  136.5414   80.0173  223.9581 H   0  0  0  0  0  0  0  0  0  0  0  0
  137.5925   79.3503  222.7017 H   0  0  0  0  0  0  0  0  0  0  0  0
  139.1330   78.3460  221.0379 H   0  0  0  0  0  0  0  0  0  0  0  0
  142.8741   78.8619  221.0863 H   0  0  0  0  0  0  0  0  0  0  0  0
  140.9462   80.0853  219.5408 H   0  0  0  0  0  0  0  0  0  0  0  0
  142.4443   79.3312  218.8978 H   0  0  0  0  0  0  0  0  0  0  0  0
  140.9030   78.4087  218.8978 H   0  0  0  0  0  0  0  0  0  0  0  0
  140.9350   76.6960  221.4100 H   0  0  0  0  0  0  0  0  0  0  0  0
  142.5081   74.3987  220.9514 H   0  0  0  0  0  0  0  0  0  0  0  0
  143.3366   74.8500  218.0924 H   0  0  0  0  0  0  0  0  0  0  0  0
  143.9316   73.6332  219.2298 H   0  0  0  0  0  0  0  0  0  0  0  0
  142.1832   73.0007  217.1483 H   0  0  0  0  0  0  0  0  0  0  0  0
  141.8030   71.8340  219.6800 H   0  0  0  0  0  0  0  0  0  0  0  0
  140.1810   74.0719  217.7094 H   0  0  0  0  0  0  0  0  0  0  0  0
  139.9923   72.7853  218.9079 H   0  0  0  0  0  0  0  0  0  0  0  0
  138.6639   75.0940  222.2297 H   0  0  0  0  0  0  0  0  0  0  0  0
  138.4987   73.6184  221.2147 H   0  0  0  0  0  0  0  0  0  0  0  0
  139.2180   69.9653  222.2803 H   0  0  0  0  0  0  0  0  0  0  0  0
  138.8667   68.4963  224.2745 H   0  0  0  0  0  0  0  0  0  0  0  0
  139.1738   68.0906  226.6917 H   0  0  0  0  0  0  0  0  0  0  0  0
  141.2943   71.0129  229.0815 H   0  0  0  0  0  0  0  0  0  0  0  0
  141.5865   72.4649  227.0655 H   0  0  0  0  0  0  0  0  0  0  0  0
  140.9425   81.2861  224.6395 H   0  0  0  0  0  0  0  0  0  0  0  0
  1  2  1  0
  2  3  1  0
  3  4  2  0
  4  5  1  0
  5  6  2  0
  6  7  1  0
  7  8  1  0
  7  9  1  0
  9 10  1  0
 10 11  2  0
 10 12  1  0
 12 13  1  0
 13 14  1  0
 14 15  1  0
 14 16  1  0
 16 17  1  0
 17 18  1  0
 18 19  2  0
 18 20  1  0
 20 21  1  0
 21 22  1  0
 22 23  2  0
 22 24  1  0
 24 25  2  0
 25 26  1  0
 26 27  2  0
 27 28  1  0
 28 29  2  0
 29 30  1  0
 29 31  1  0
 31 32  2  0
 32 33  1  0
 33 34  2  0
  6 35  1  0
 35 36  1  0
 35 37  2  0
 37  3  1  0
 17 12  1  0
 34 24  1  0
 33 27  1  0
  1 38  1  0
  1 39  1  0
  1 40  1  0
  4 41  1  0
  5 42  1  0
  7 43  1  1
  8 44  1  0
  8 45  1  0
  8 46  1  0
  9 47  1  0
 12 48  1  1
 13 49  1  0
 13 50  1  0
 14 51  1  6
 15 52  1  0
 16 53  1  0
 16 54  1  0
 20 55  1  0
 20 56  1  0
 25 57  1  0
 26 58  1  0
 28 59  1  0
 31 60  1  0
 32 61  1  0
 37 62  1  0
M  CHG  1  21  -1
M  END
>  <meeko>  (15) 
{"free_energy": -7.55, "intermolecular_energy": -10.53, "internal_energy": -3.48, "cluster_size": 2, "cluster_id": 4, "rank_in_cluster": 1}

$$$$

     RDKit          3D

 62 65  0  0  0  0  0  0  0  0999 V2000
  135.0510   77.1710  223.4860 C   0  0  0  0  0  0  0  0  0  0  0  0
  136.0780   76.1850  223.5160 O   0  0  0  0  0  0  0  0  0  0  0  0
  137.2630   76.2490  222.7690 C   0  0  0  0  0  0  0  0  0  0  0  0
  137.3880   75.4100  221.6590 C   0  0  0  0  0  0  0  0  0  0  0  0
  138.5430   75.4400  220.8800 C   0  0  0  0  0  0  0  0  0  0  0  0
  139.6120   76.3080  221.1930 C   0  0  0  0  0  0  0  0  0  0  0  0
  140.8510   76.3090  220.3090 C   0  0  2  0  0  0  0  0  0  0  0  0
  140.4550   76.3760  218.8320 C   0  0  0  0  0  0  0  0  0  0  0  0
  141.6700   75.1170  220.5610 N   0  0  0  0  0  0  0  0  0  0  0  0
  143.0200   74.9950  220.0770 C   0  0  0  0  0  0  0  0  0  0  0  0
  143.5790   75.9650  219.4970 O   0  0  0  0  0  0  0  0  0  0  0  0
  143.7430   73.6750  220.1900 C   0  0  2  0  0  0  0  0  0  0  0  0
  145.2220   73.7800  219.8140 C   0  0  0  0  0  0  0  0  0  0  0  0
  145.5500   72.4870  219.0610 C   0  0  1  0  0  0  0  0  0  0  0  0
  146.1190   71.5590  219.9490 O   0  0  0  0  0  0  0  0  0  0  0  0
  144.2100   71.9710  218.5320 C   0  0  0  0  0  0  0  0  0  0  0  0
  143.1930   72.6960  219.2720 N   0  0  0  0  0  0  0  0  0  0  0  0
  141.8040   72.3460  219.2320 C   0  0  0  0  0  0  0  0  0  0  0  0
  141.1280   72.6030  218.2020 O   0  0  0  0  0  0  0  0  0  0  0  0
  141.1540   71.6630  220.3950 C   0  0  0  0  0  0  0  0  0  0  0  0
  141.5040   72.3530  221.6320 N   0  0  0  0  0  0  0  0  0  0  0  0
  140.5560   72.6310  222.6680 C   0  0  0  0  0  0  0  0  0  0  0  0
  139.9200   73.7200  222.6630 O   0  0  0  0  0  0  0  0  0  0  0  0
  140.3140   71.6350  223.7250 C   0  0  0  0  0  0  0  0  0  0  0  0
  139.7080   70.4020  223.4390 C   0  0  0  0  0  0  0  0  0  0  0  0
  139.5430   69.4580  224.4560 C   0  0  0  0  0  0  0  0  0  0  0  0
  139.9770   69.7490  225.7550 C   0  0  0  0  0  0  0  0  0  0  0  0
  139.8340   68.8210  226.7970 C   0  0  0  0  0  0  0  0  0  0  0  0
  140.2910   69.1380  228.0810 C   0  0  0  0  0  0  0  0  0  0  0  0
  140.1420   68.2430  229.0930 F   0  0  0  0  0  0  0  0  0  0  0  0
  140.8930   70.3770  228.3290 C   0  0  0  0  0  0  0  0  0  0  0  0
  141.0300   71.3130  227.2940 C   0  0  0  0  0  0  0  0  0  0  0  0
  140.5760   71.0050  226.0070 C   0  0  0  0  0  0  0  0  0  0  0  0
  140.7210   71.9030  224.9950 N   0  0  0  0  0  0  0  0  0  0  0  0
  139.4820   77.1590  222.3170 C   0  0  0  0  0  0  0  0  0  0  0  0
  140.7420   78.2930  222.7970 Cl  0  0  0  0  0  0  0  0  0  0  0  0
  138.3200   77.1210  223.0950 C   0  0  0  0  0  0  0  0  0  0  0  0
  134.7708   77.4400  224.5151 H   0  0  0  0  0  0  0  0  0  0  0  0
  135.4165   78.0652  222.9598 H   0  0  0  0  0  0  0  0  0  0  0  0
  134.1724   76.7694  222.9598 H   0  0  0  0  0  0  0  0  0  0  0  0
  136.5702   74.7220  221.3985 H   0  0  0  0  0  0  0  0  0  0  0  0
  138.6234   74.7763  220.0065 H   0  0  0  0  0  0  0  0  0  0  0  0
  141.4475   77.1998  220.5552 H   0  0  0  0  0  0  0  0  0  0  0  0
  139.3734   76.5590  218.7503 H   0  0  0  0  0  0  0  0  0  0  0  0
  141.0033   77.1941  218.3421 H   0  0  0  0  0  0  0  0  0  0  0  0
  140.7037   75.4230  218.3421 H   0  0  0  0  0  0  0  0  0  0  0  0
  141.2510   74.2970  221.0540 H   0  0  0  0  0  0  0  0  0  0  0  0
  143.6231   73.3789  221.2426 H   0  0  0  0  0  0  0  0  0  0  0  0
  145.3926   74.6540  219.1682 H   0  0  0  0  0  0  0  0  0  0  0  0
  145.8591   73.9060  220.7018 H   0  0  0  0  0  0  0  0  0  0  0  0
  146.2689   72.6483  218.2442 H   0  0  0  0  0  0  0  0  0  0  0  0
  145.6540   71.6810  220.8180 H   0  0  0  0  0  0  0  0  0  0  0  0
  144.1187   72.1737  217.4547 H   0  0  0  0  0  0  0  0  0  0  0  0
  144.1118   70.8834  218.6640 H   0  0  0  0  0  0  0  0  0  0  0  0
  140.0619   71.6791  220.2643 H   0  0  0  0  0  0  0  0  0  0  0  0
  141.5056   70.6220  220.4478 H   0  0  0  0  0  0  0  0  0  0  0  0
  139.3642   70.1795  222.4181 H   0  0  0  0  0  0  0  0  0  0  0  0
  139.0730   68.4880  224.2364 H   0  0  0  0  0  0  0  0  0  0  0  0
  139.3633   67.8455  226.6051 H   0  0  0  0  0  0  0  0  0  0  0  0
  141.2594   70.6170  229.3380 H   0  0  0  0  0  0  0  0  0  0  0  0
  141.4946   72.2898  227.4940 H   0  0  0  0  0  0  0  0  0  0  0  0
  138.2308   77.7797  223.9714 H   0  0  0  0  0  0  0  0  0  0  0  0
  1  2  1  0
  2  3  1  0
  3  4  2  0
  4  5  1  0
  5  6  2  0
  6  7  1  0
  7  8  1  0
  7  9  1  0
  9 10  1  0
 10 11  2  0
 10 12  1  0
 12 13  1  0
 13 14  1  0
 14 15  1  0
 14 16  1  0
 16 17  1  0
 17 18  1  0
 18 19  2  0
 18 20  1  0
 20 21  1  0
 21 22  1  0
 22 23  2  0
 22 24  1  0
 24 25  2  0
 25 26  1  0
 26 27  2  0
 27 28  1  0
 28 29  2  0
 29 30  1  0
 29 31  1  0
 31 32  2  0
 32 33  1  0
 33 34  2  0
  6 35  1  0
 35 36  1  0
 35 37  2  0
 37  3  1  0
 17 12  1  0
 34 24  1  0
 33 27  1  0
  1 38  1  0
  1 39  1  0
  1 40  1  0
  4 41  1  0
  5 42  1  0
  7 43  1  1
  8 44  1  0
  8 45  1  0
  8 46  1  0
  9 47  1  0
 12 48  1  1
 13 49  1  0
 13 50  1  0
 14 51  1  6
 15 52  1  0
 16 53  1  0
 16 54  1  0
 20 55  1  0
 20 56  1  0
 25 57  1  0
 26 58  1  0
 28 59  1  0
 31 60  1  0
 32 61  1  0
 37 62  1  0
M  CHG  1  21  -1
M  END
>  <meeko>  (16) 
{"free_energy": -7.37, "intermolecular_energy": -10.36, "internal_energy": -3.8, "cluster_size": 6, "cluster_id": 2, "rank_in_cluster": 6}

$$$$

     RDKit          3D

 62 65  0  0  0  0  0  0  0  0999 V2000
  136.7230   80.9770  224.6740 C   0  0  0  0  0  0  0  0  0  0  0  0
  138.1310   80.8370  224.8400 O   0  0  0  0  0  0  0  0  0  0  0  0
  138.9710   80.1490  223.9530 C   0  0  0  0  0  0  0  0  0  0  0  0
  138.4100   79.1520  223.1520 C   0  0  0  0  0  0  0  0  0  0  0  0
  139.2020   78.4430  222.2510 C   0  0  0  0  0  0  0  0  0  0  0  0
  140.5830   78.7080  222.1280 C   0  0  0  0  0  0  0  0  0  0  0  0
  141.4050   77.9120  221.1250 C   0  0  2  0  0  0  0  0  0  0  0  0
  141.8220   78.8000  219.9490 C   0  0  0  0  0  0  0  0  0  0  0  0
  140.6510   76.7500  220.6400 N   0  0  0  0  0  0  0  0  0  0  0  0
  141.3000   75.5550  220.1660 C   0  0  0  0  0  0  0  0  0  0  0  0
  142.5530   75.4360  220.2460 O   0  0  0  0  0  0  0  0  0  0  0  0
  140.4880   74.4750  219.4950 C   0  0  2  0  0  0  0  0  0  0  0  0
  140.7270   74.4110  217.9850 C   0  0  0  0  0  0  0  0  0  0  0  0
  139.3610   74.1040  217.3630 C   0  0  1  0  0  0  0  0  0  0  0  0
  139.2520   72.7220  217.1320 O   0  0  0  0  0  0  0  0  0  0  0  0
  138.3290   74.5570  218.3980 C   0  0  0  0  0  0  0  0  0  0  0  0
  139.0660   74.7220  219.6370 N   0  0  0  0  0  0  0  0  0  0  0  0
  138.4250   74.9250  220.9030 C   0  0  0  0  0  0  0  0  0  0  0  0
  137.7460   75.9670  221.0960 O   0  0  0  0  0  0  0  0  0  0  0  0
  138.5390   73.9010  221.9890 C   0  0  0  0  0  0  0  0  0  0  0  0
  139.9370   73.7400  222.3730 N   0  0  0  0  0  0  0  0  0  0  0  0
  140.5850   72.4670  222.4520 C   0  0  0  0  0  0  0  0  0  0  0  0
  141.4200   72.1290  221.5680 O   0  0  0  0  0  0  0  0  0  0  0  0
  140.2890   71.5630  223.5760 C   0  0  0  0  0  0  0  0  0  0  0  0
  139.5910   70.3620  223.3800 C   0  0  0  0  0  0  0  0  0  0  0  0
  139.3740   69.5010  224.4600 C   0  0  0  0  0  0  0  0  0  0  0  0
  139.8500   69.8450  225.7310 C   0  0  0  0  0  0  0  0  0  0  0  0
  139.6570   69.0000  226.8340 C   0  0  0  0  0  0  0  0  0  0  0  0
  140.1560   69.3660  228.0890 C   0  0  0  0  0  0  0  0  0  0  0  0
  139.9590   68.5530  229.1610 F   0  0  0  0  0  0  0  0  0  0  0  0
  140.8510   70.5710  228.2470 C   0  0  0  0  0  0  0  0  0  0  0  0
  141.0400   71.4240  227.1500 C   0  0  0  0  0  0  0  0  0  0  0  0
  140.5420   71.0660  225.8920 C   0  0  0  0  0  0  0  0  0  0  0  0
  140.7360   71.8830  224.8210 N   0  0  0  0  0  0  0  0  0  0  0  0
  141.1500   79.7210  222.9380 C   0  0  0  0  0  0  0  0  0  0  0  0
  142.8570   80.1500  222.8640 Cl  0  0  0  0  0  0  0  0  0  0  0  0
  140.3480   80.4260  223.8430 C   0  0  0  0  0  0  0  0  0  0  0  0
  136.2404   81.0250  225.6613 H   0  0  0  0  0  0  0  0  0  0  0  0
  136.5096   81.9008  224.1163 H   0  0  0  0  0  0  0  0  0  0  0  0
  136.3319   80.1133  224.1163 H   0  0  0  0  0  0  0  0  0  0  0  0
  137.3367   78.9251  223.2328 H   0  0  0  0  0  0  0  0  0  0  0  0
  138.7432   77.6635  221.6250 H   0  0  0  0  0  0  0  0  0  0  0  0
  142.3110   77.5513  221.6340 H   0  0  0  0  0  0  0  0  0  0  0  0
  142.2604   79.7334  220.3318 H   0  0  0  0  0  0  0  0  0  0  0  0
  142.5656   78.2704  219.3353 H   0  0  0  0  0  0  0  0  0  0  0  0
  140.9396   79.0340  219.3353 H   0  0  0  0  0  0  0  0  0  0  0  0
  139.6100   76.7990  220.5750 H   0  0  0  0  0  0  0  0  0  0  0  0
  140.8040   73.5425  219.9855 H   0  0  0  0  0  0  0  0  0  0  0  0
  141.1090   75.3742  217.6158 H   0  0  0  0  0  0  0  0  0  0  0  0
  141.4737   73.6467  217.7237 H   0  0  0  0  0  0  0  0  0  0  0  0
  139.2145   74.6148  216.3999 H   0  0  0  0  0  0  0  0  0  0  0  0
  139.0670   72.3040  218.0150 H   0  0  0  0  0  0  0  0  0  0  0  0
  137.8721   75.5100  218.0931 H   0  0  0  0  0  0  0  0  0  0  0  0
  137.5119   73.8283  218.5042 H   0  0  0  0  0  0  0  0  0  0  0  0
  137.9560   74.2288  222.8623 H   0  0  0  0  0  0  0  0  0  0  0  0
  138.1503   72.9393  221.6230 H   0  0  0  0  0  0  0  0  0  0  0  0
  139.2157   70.0986  222.3801 H   0  0  0  0  0  0  0  0  0  0  0  0
  138.8308   68.5560  224.3116 H   0  0  0  0  0  0  0  0  0  0  0  0
  139.1141   68.0510  226.7125 H   0  0  0  0  0  0  0  0  0  0  0  0
  141.2497   70.8493  229.2337 H   0  0  0  0  0  0  0  0  0  0  0  0
  141.5794   72.3740  227.2782 H   0  0  0  0  0  0  0  0  0  0  0  0
  140.7980   81.2053  224.4756 H   0  0  0  0  0  0  0  0  0  0  0  0
  1  2  1  0
  2  3  1  0
  3  4  2  0
  4  5  1  0
  5  6  2  0
  6  7  1  0
  7  8  1  0
  7  9  1  0
  9 10  1  0
 10 11  2  0
 10 12  1  0
 12 13  1  0
 13 14  1  0
 14 15  1  0
 14 16  1  0
 16 17  1  0
 17 18  1  0
 18 19  2  0
 18 20  1  0
 20 21  1  0
 21 22  1  0
 22 23  2  0
 22 24  1  0
 24 25  2  0
 25 26  1  0
 26 27  2  0
 27 28  1  0
 28 29  2  0
 29 30  1  0
 29 31  1  0
 31 32  2  0
 32 33  1  0
 33 34  2  0
  6 35  1  0
 35 36  1  0
 35 37  2  0
 37  3  1  0
 17 12  1  0
 34 24  1  0
 33 27  1  0
  1 38  1  0
  1 39  1  0
  1 40  1  0
  4 41  1  0
  5 42  1  0
  7 43  1  1
  8 44  1  0
  8 45  1  0
  8 46  1  0
  9 47  1  0
 12 48  1  1
 13 49  1  0
 13 50  1  0
 14 51  1  6
 15 52  1  0
 16 53  1  0
 16 54  1  0
 20 55  1  0
 20 56  1  0
 25 57  1  0
 26 58  1  0
 28 59  1  0
 31 60  1  0
 32 61  1  0
 37 62  1  0
M  CHG  1  21  -1
M  END
>  <meeko>  (17) 
{"free_energy": -7.17, "intermolecular_energy": -10.15, "internal_energy": -2.73, "cluster_size": 2, "cluster_id": 4, "rank_in_cluster": 2}

$$$$

     RDKit          3D

 62 65  0  0  0  0  0  0  0  0999 V2000
  132.2820   74.2010  227.0980 C   0  0  0  0  0  0  0  0  0  0  0  0
  133.5970   73.7370  226.8070 O   0  0  0  0  0  0  0  0  0  0  0  0
  134.3240   74.0790  225.6580 C   0  0  0  0  0  0  0  0  0  0  0  0
  134.9930   73.0620  224.9730 C   0  0  0  0  0  0  0  0  0  0  0  0
  135.7240   73.3490  223.8230 C   0  0  0  0  0  0  0  0  0  0  0  0
  135.8130   74.6670  223.3250 C   0  0  0  0  0  0  0  0  0  0  0  0
  136.6180   74.9310  222.0610 C   0  0  2  0  0  0  0  0  0  0  0  0
  136.6570   73.6810  221.1790 C   0  0  0  0  0  0  0  0  0  0  0  0
  137.9830   75.3580  222.3950 N   0  0  0  0  0  0  0  0  0  0  0  0
  138.4360   76.7100  222.1990 C   0  0  0  0  0  0  0  0  0  0  0  0
  137.6290   77.6030  221.8210 O   0  0  0  0  0  0  0  0  0  0  0  0
  139.8970   77.0460  222.3680 C   0  0  2  0  0  0  0  0  0  0  0  0
  140.1380   78.5440  222.5640 C   0  0  0  0  0  0  0  0  0  0  0  0
  141.4260   78.8590  221.7970 C   0  0  1  0  0  0  0  0  0  0  0  0
  142.5160   78.8420  222.6840 O   0  0  0  0  0  0  0  0  0  0  0  0
  141.5640   77.7460  220.7560 C   0  0  0  0  0  0  0  0  0  0  0  0
  140.6560   76.6980  221.1820 N   0  0  0  0  0  0  0  0  0  0  0  0
  140.6490   75.3890  220.5980 C   0  0  0  0  0  0  0  0  0  0  0  0
  140.0380   75.1940  219.5160 O   0  0  0  0  0  0  0  0  0  0  0  0
  141.3770   74.2570  221.2540 C   0  0  0  0  0  0  0  0  0  0  0  0
  140.5670   73.7080  222.3360 N   0  0  0  0  0  0  0  0  0  0  0  0
  139.8560   72.4700  222.2310 C   0  0  0  0  0  0  0  0  0  0  0  0
  139.3460   72.1290  221.1290 O   0  0  0  0  0  0  0  0  0  0  0  0
  139.7410   71.5910  223.4060 C   0  0  0  0  0  0  0  0  0  0  0  0
  139.0120   70.3920  223.3500 C   0  0  0  0  0  0  0  0  0  0  0  0
  138.9680   69.5540  224.4680 C   0  0  0  0  0  0  0  0  0  0  0  0
  139.6460   69.9170  225.6380 C   0  0  0  0  0  0  0  0  0  0  0  0
  139.6290   69.0950  226.7740 C   0  0  0  0  0  0  0  0  0  0  0  0
  140.3270   69.4800  227.9240 C   0  0  0  0  0  0  0  0  0  0  0  0
  140.3010   68.6890  229.0290 F   0  0  0  0  0  0  0  0  0  0  0  0
  141.0460   70.6810  227.9430 C   0  0  0  0  0  0  0  0  0  0  0  0
  141.0590   71.5120  226.8140 C   0  0  0  0  0  0  0  0  0  0  0  0
  140.3620   71.1350  225.6600 C   0  0  0  0  0  0  0  0  0  0  0  0
  140.3850   71.9300  224.5550 N   0  0  0  0  0  0  0  0  0  0  0  0
  135.1310   75.6970  224.0180 C   0  0  0  0  0  0  0  0  0  0  0  0
  135.1580   77.3760  223.4840 Cl  0  0  0  0  0  0  0  0  0  0  0  0
  134.4020   75.4000  225.1740 C   0  0  0  0  0  0  0  0  0  0  0  0
  132.1433   74.2499  228.1881 H   0  0  0  0  0  0  0  0  0  0  0  0
  132.1425   75.2026  226.6653 H   0  0  0  0  0  0  0  0  0  0  0  0
  131.5448   73.5087  226.6653 H   0  0  0  0  0  0  0  0  0  0  0  0
  134.9421   72.0278  225.3443 H   0  0  0  0  0  0  0  0  0  0  0  0
  136.2408   72.5350  223.2937 H   0  0  0  0  0  0  0  0  0  0  0  0
  136.1250   75.7409  221.5033 H   0  0  0  0  0  0  0  0  0  0  0  0
  136.6850   72.7841  221.8152 H   0  0  0  0  0  0  0  0  0  0  0  0
  135.7593   73.6522  220.5439 H   0  0  0  0  0  0  0  0  0  0  0  0
  137.5547   73.7082  220.5439 H   0  0  0  0  0  0  0  0  0  0  0  0
  138.6780   74.6530  222.7290 H   0  0  0  0  0  0  0  0  0  0  0  0
  140.2146   76.4755  223.2533 H   0  0  0  0  0  0  0  0  0  0  0  0
  139.2971   79.1245  222.1567 H   0  0  0  0  0  0  0  0  0  0  0  0
  140.2245   78.8060  223.6288 H   0  0  0  0  0  0  0  0  0  0  0  0
  141.3998   79.8513  221.3229 H   0  0  0  0  0  0  0  0  0  0  0  0
  143.2110   78.2690  222.2630 H   0  0  0  0  0  0  0  0  0  0  0  0
  141.2826   78.1159  219.7590 H   0  0  0  0  0  0  0  0  0  0  0  0
  142.5997   77.3825  220.6840 H   0  0  0  0  0  0  0  0  0  0  0  0
  141.5745   73.4705  220.5107 H   0  0  0  0  0  0  0  0  0  0  0  0
  142.3281   74.6269  221.6647 H   0  0  0  0  0  0  0  0  0  0  0  0
  138.4776   70.1133  222.4298 H   0  0  0  0  0  0  0  0  0  0  0  0
  138.4020   68.6116  224.4286 H   0  0  0  0  0  0  0  0  0  0  0  0
  139.0678   68.1490  226.7611 H   0  0  0  0  0  0  0  0  0  0  0  0
  141.6021   70.9734  228.8459 H   0  0  0  0  0  0  0  0  0  0  0  0
  141.6167   72.4599  226.8349 H   0  0  0  0  0  0  0  0  0  0  0  0
  133.8833   76.2073  225.7118 H   0  0  0  0  0  0  0  0  0  0  0  0
  1  2  1  0
  2  3  1  0
  3  4  2  0
  4  5  1  0
  5  6  2  0
  6  7  1  0
  7  8  1  0
  7  9  1  0
  9 10  1  0
 10 11  2  0
 10 12  1  0
 12 13  1  0
 13 14  1  0
 14 15  1  0
 14 16  1  0
 16 17  1  0
 17 18  1  0
 18 19  2  0
 18 20  1  0
 20 21  1  0
 21 22  1  0
 22 23  2  0
 22 24  1  0
 24 25  2  0
 25 26  1  0
 26 27  2  0
 27 28  1  0
 28 29  2  0
 29 30  1  0
 29 31  1  0
 31 32  2  0
 32 33  1  0
 33 34  2  0
  6 35  1  0
 35 36  1  0
 35 37  2  0
 37  3  1  0
 17 12  1  0
 34 24  1  0
 33 27  1  0
  1 38  1  0
  1 39  1  0
  1 40  1  0
  4 41  1  0
  5 42  1  0
  7 43  1  6
  8 44  1  0
  8 45  1  0
  8 46  1  0
  9 47  1  0
 12 48  1  1
 13 49  1  0
 13 50  1  0
 14 51  1  6
 15 52  1  0
 16 53  1  0
 16 54  1  0
 20 55  1  0
 20 56  1  0
 25 57  1  0
 26 58  1  0
 28 59  1  0
 31 60  1  0
 32 61  1  0
 37 62  1  0
M  CHG  1  21  -1
M  END
>  <meeko>  (18) 
{"free_energy": -8.93, "intermolecular_energy": -11.91, "internal_energy": -3.28, "cluster_size": 5, "cluster_id": 1, "rank_in_cluster": 2}

$$$$

     RDKit          3D

 62 65  0  0  0  0  0  0  0  0999 V2000
  140.7450   83.2100  220.7850 C   0  0  0  0  0  0  0  0  0  0  0  0
  139.7690   82.3170  220.2550 O   0  0  0  0  0  0  0  0  0  0  0  0
  140.0350   81.0050  219.8390 C   0  0  0  0  0  0  0  0  0  0  0  0
  139.0800   80.0220  220.1070 C   0  0  0  0  0  0  0  0  0  0  0  0
  139.2940   78.7040  219.7080 C   0  0  0  0  0  0  0  0  0  0  0  0
  140.4750   78.3290  219.0330 C   0  0  0  0  0  0  0  0  0  0  0  0
  140.6620   76.8790  218.6120 C   0  0  2  0  0  0  0  0  0  0  0  0
  139.3070   76.2230  218.3330 C   0  0  0  0  0  0  0  0  0  0  0  0
  141.3860   76.1270  219.6440 N   0  0  0  0  0  0  0  0  0  0  0  0
  142.7150   75.6150  219.4340 C   0  0  0  0  0  0  0  0  0  0  0  0
  143.3420   75.8880  218.3740 O   0  0  0  0  0  0  0  0  0  0  0  0
  143.3310   74.6830  220.4480 C   0  0  2  0  0  0  0  0  0  0  0  0
  144.8570   74.6320  220.3500 C   0  0  0  0  0  0  0  0  0  0  0  0
  145.2390   73.1700  220.6070 C   0  0  1  0  0  0  0  0  0  0  0  0
  145.5890   73.0080  221.9580 O   0  0  0  0  0  0  0  0  0  0  0  0
  143.9850   72.3570  220.2770 C   0  0  0  0  0  0  0  0  0  0  0  0
  142.8970   73.3160  220.2350 N   0  0  0  0  0  0  0  0  0  0  0  0
  141.5190   72.9270  220.1740 C   0  0  0  0  0  0  0  0  0  0  0  0
  141.0330   72.5260  219.0850 O   0  0  0  0  0  0  0  0  0  0  0  0
  140.6570   72.9760  221.3970 C   0  0  0  0  0  0  0  0  0  0  0  0
  140.7080   74.3110  221.9840 N   0  0  0  0  0  0  0  0  0  0  0  0
  139.5830   75.1950  222.0160 C   0  0  0  0  0  0  0  0  0  0  0  0
  138.4270   74.7530  221.7670 O   0  0  0  0  0  0  0  0  0  0  0  0
  139.7770   76.6150  222.3560 C   0  0  0  0  0  0  0  0  0  0  0  0
  138.7140   77.4030  222.8240 C   0  0  0  0  0  0  0  0  0  0  0  0
  138.9450   78.7320  223.1900 C   0  0  0  0  0  0  0  0  0  0  0  0
  140.2330   79.2710  223.0830 C   0  0  0  0  0  0  0  0  0  0  0  0
  140.5000   80.5980  223.4500 C   0  0  0  0  0  0  0  0  0  0  0  0
  141.8010   81.1020  223.3430 C   0  0  0  0  0  0  0  0  0  0  0  0
  142.0580   82.3920  223.6870 F   0  0  0  0  0  0  0  0  0  0  0  0
  142.8380   80.2860  222.8750 C   0  0  0  0  0  0  0  0  0  0  0  0
  142.5750   78.9610  222.4980 C   0  0  0  0  0  0  0  0  0  0  0  0
  141.2760   78.4490  222.6000 C   0  0  0  0  0  0  0  0  0  0  0  0
  141.0190   77.1590  222.2510 N   0  0  0  0  0  0  0  0  0  0  0  0
  141.4410   79.3280  218.7590 C   0  0  0  0  0  0  0  0  0  0  0  0
  142.9470   78.9820  217.9110 Cl  0  0  0  0  0  0  0  0  0  0  0  0
  141.2190   80.6480  219.1660 C   0  0  0  0  0  0  0  0  0  0  0  0
  140.7115   83.1794  221.8841 H   0  0  0  0  0  0  0  0  0  0  0  0
  141.7447   82.9073  220.4400 H   0  0  0  0  0  0  0  0  0  0  0  0
  140.5321   84.2326  220.4400 H   0  0  0  0  0  0  0  0  0  0  0  0
  138.1535   80.2896  220.6361 H   0  0  0  0  0  0  0  0  0  0  0  0
  138.5293   77.9431  219.9229 H   0  0  0  0  0  0  0  0  0  0  0  0
  141.2584   76.8647  217.6878 H   0  0  0  0  0  0  0  0  0  0  0  0
  138.8124   75.9835  219.2859 H   0  0  0  0  0  0  0  0  0  0  0  0
  138.6762   76.9155  217.7563 H   0  0  0  0  0  0  0  0  0  0  0  0
  139.4589   75.2987  217.7563 H   0  0  0  0  0  0  0  0  0  0  0  0
  140.9100   75.8950  220.5450 H   0  0  0  0  0  0  0  0  0  0  0  0
  143.0110   75.0788  221.4232 H   0  0  0  0  0  0  0  0  0  0  0  0
  145.1879   74.9448  219.3487 H   0  0  0  0  0  0  0  0  0  0  0  0
  145.3337   75.3100  221.0732 H   0  0  0  0  0  0  0  0  0  0  0  0
  146.0983   72.8477  220.0006 H   0  0  0  0  0  0  0  0  0  0  0  0
  145.6250   72.0290  222.1230 H   0  0  0  0  0  0  0  0  0  0  0  0
  144.0957   71.8593  219.3023 H   0  0  0  0  0  0  0  0  0  0  0  0
  143.8036   71.5687  221.0224 H   0  0  0  0  0  0  0  0  0  0  0  0
  139.6190   72.7373  221.1221 H   0  0  0  0  0  0  0  0  0  0  0  0
  141.0241   72.2425  222.1299 H   0  0  0  0  0  0  0  0  0  0  0  0
  137.7032   76.9764  222.9024 H   0  0  0  0  0  0  0  0  0  0  0  0
  138.1167   79.3533  223.5614 H   0  0  0  0  0  0  0  0  0  0  0  0
  139.6885   81.2412  223.8211 H   0  0  0  0  0  0  0  0  0  0  0  0
  143.8606   80.6848  222.8029 H   0  0  0  0  0  0  0  0  0  0  0  0
  143.3893   78.3241  222.1222 H   0  0  0  0  0  0  0  0  0  0  0  0
  141.9785   81.4160  218.9577 H   0  0  0  0  0  0  0  0  0  0  0  0
  1  2  1  0
  2  3  1  0
  3  4  2  0
  4  5  1  0
  5  6  2  0
  6  7  1  0
  7  8  1  0
  7  9  1  0
  9 10  1  0
 10 11  2  0
 10 12  1  0
 12 13  1  0
 13 14  1  0
 14 15  1  0
 14 16  1  0
 16 17  1  0
 17 18  1  0
 18 19  2  0
 18 20  1  0
 20 21  1  0
 21 22  1  0
 22 23  2  0
 22 24  1  0
 24 25  2  0
 25 26  1  0
 26 27  2  0
 27 28  1  0
 28 29  2  0
 29 30  1  0
 29 31  1  0
 31 32  2  0
 32 33  1  0
 33 34  2  0
  6 35  1  0
 35 36  1  0
 35 37  2  0
 37  3  1  0
 17 12  1  0
 34 24  1  0
 33 27  1  0
  1 38  1  0
  1 39  1  0
  1 40  1  0
  4 41  1  0
  5 42  1  0
  7 43  1  6
  8 44  1  0
  8 45  1  0
  8 46  1  0
  9 47  1  0
 12 48  1  1
 13 49  1  0
 13 50  1  0
 14 51  1  6
 15 52  1  0
 16 53  1  0
 16 54  1  0
 20 55  1  0
 20 56  1  0
 25 57  1  0
 26 58  1  0
 28 59  1  0
 31 60  1  0
 32 61  1  0
 37 62  1  0
M  CHG  1  21  -1
M  END
>  <meeko>  (19) 
{"free_energy": -5.81, "intermolecular_energy": -8.79, "internal_energy": -5.54, "cluster_size": 4, "cluster_id": 5, "rank_in_cluster": 2}

$$$$

     RDKit          3D

 62 65  0  0  0  0  0  0  0  0999 V2000
  132.2350   73.1630  226.8110 C   0  0  0  0  0  0  0  0  0  0  0  0
  133.5940   73.5870  226.8190 O   0  0  0  0  0  0  0  0  0  0  0  0
  134.3180   73.9550  225.6760 C   0  0  0  0  0  0  0  0  0  0  0  0
  135.0030   72.9570  224.9790 C   0  0  0  0  0  0  0  0  0  0  0  0
  135.7320   73.2700  223.8340 C   0  0  0  0  0  0  0  0  0  0  0  0
  135.8020   74.5960  223.3540 C   0  0  0  0  0  0  0  0  0  0  0  0
  136.6050   74.8890  222.0950 C   0  0  2  0  0  0  0  0  0  0  0  0
  136.6530   73.6540  221.1910 C   0  0  0  0  0  0  0  0  0  0  0  0
  137.9660   75.3200  222.4360 N   0  0  0  0  0  0  0  0  0  0  0  0
  138.4150   76.6750  222.2460 C   0  0  0  0  0  0  0  0  0  0  0  0
  137.6070   77.5650  221.8660 O   0  0  0  0  0  0  0  0  0  0  0  0
  139.8740   77.0160  222.4230 C   0  0  2  0  0  0  0  0  0  0  0  0
  140.1070   78.5120  222.6430 C   0  0  0  0  0  0  0  0  0  0  0  0
  141.3940   78.8460  221.8830 C   0  0  1  0  0  0  0  0  0  0  0  0
  142.4820   78.8200  222.7720 O   0  0  0  0  0  0  0  0  0  0  0  0
  141.5400   77.7500  220.8250 C   0  0  0  0  0  0  0  0  0  0  0  0
  140.6370   76.6910  221.2330 N   0  0  0  0  0  0  0  0  0  0  0  0
  140.6390   75.3910  220.6290 C   0  0  0  0  0  0  0  0  0  0  0  0
  140.1030   75.2280  219.5020 O   0  0  0  0  0  0  0  0  0  0  0  0
  141.2870   74.2300  221.3170 C   0  0  0  0  0  0  0  0  0  0  0  0
  140.3940   73.7010  222.3420 N   0  0  0  0  0  0  0  0  0  0  0  0
  139.7650   72.4190  222.2460 C   0  0  0  0  0  0  0  0  0  0  0  0
  139.3120   72.0210  221.1380 O   0  0  0  0  0  0  0  0  0  0  0  0
  139.6650   71.5610  223.4400 C   0  0  0  0  0  0  0  0  0  0  0  0
  138.9210   70.3710  223.4210 C   0  0  0  0  0  0  0  0  0  0  0  0
  138.8920   69.5540  224.5550 C   0  0  0  0  0  0  0  0  0  0  0  0
  139.6020   69.9280  225.7020 C   0  0  0  0  0  0  0  0  0  0  0  0
  139.6010   69.1260  226.8530 C   0  0  0  0  0  0  0  0  0  0  0  0
  140.3310   69.5220  227.9790 C   0  0  0  0  0  0  0  0  0  0  0  0
  140.3210   68.7510  229.0990 F   0  0  0  0  0  0  0  0  0  0  0  0
  141.0650   70.7140  227.9610 C   0  0  0  0  0  0  0  0  0  0  0  0
  141.0620   71.5250  226.8170 C   0  0  0  0  0  0  0  0  0  0  0  0
  140.3340   71.1370  225.6860 C   0  0  0  0  0  0  0  0  0  0  0  0
  140.3410   71.9120  224.5670 N   0  0  0  0  0  0  0  0  0  0  0  0
  135.1040   75.6060  224.0590 C   0  0  0  0  0  0  0  0  0  0  0  0
  135.1070   77.2920  223.5480 Cl  0  0  0  0  0  0  0  0  0  0  0  0
  134.3770   75.2830  225.2110 C   0  0  0  0  0  0  0  0  0  0  0  0
  131.8794   73.0521  227.8460 H   0  0  0  0  0  0  0  0  0  0  0  0
  131.6203   73.9121  226.2904 H   0  0  0  0  0  0  0  0  0  0  0  0
  132.1553   72.1973  226.2904 H   0  0  0  0  0  0  0  0  0  0  0  0
  134.9666   71.9174  225.3365 H   0  0  0  0  0  0  0  0  0  0  0  0
  136.2619   72.4709  223.2949 H   0  0  0  0  0  0  0  0  0  0  0  0
  136.1063   75.7053  221.5519 H   0  0  0  0  0  0  0  0  0  0  0  0
  136.6883   72.7465  221.8116 H   0  0  0  0  0  0  0  0  0  0  0  0
  135.7551   73.6293  220.5560 H   0  0  0  0  0  0  0  0  0  0  0  0
  137.5501   73.6991  220.5560 H   0  0  0  0  0  0  0  0  0  0  0  0
  138.6630   74.6170  222.7720 H   0  0  0  0  0  0  0  0  0  0  0  0
  140.1928   76.4332  223.2998 H   0  0  0  0  0  0  0  0  0  0  0  0
  139.2635   79.0945  222.2439 H   0  0  0  0  0  0  0  0  0  0  0  0
  140.1909   78.7574  223.7120 H   0  0  0  0  0  0  0  0  0  0  0  0
  141.3633   79.8453  221.4241 H   0  0  0  0  0  0  0  0  0  0  0  0
  143.2030   78.3090  222.3180 H   0  0  0  0  0  0  0  0  0  0  0  0
  141.2585   78.1337  219.8333 H   0  0  0  0  0  0  0  0  0  0  0  0
  142.5778   77.3932  220.7492 H   0  0  0  0  0  0  0  0  0  0  0  0
  141.5032   73.4429  220.5796 H   0  0  0  0  0  0  0  0  0  0  0  0
  142.2231   74.5639  221.7884 H   0  0  0  0  0  0  0  0  0  0  0  0
  138.3632   70.0825  222.5179 H   0  0  0  0  0  0  0  0  0  0  0  0
  138.3124   68.6191  224.5460 H   0  0  0  0  0  0  0  0  0  0  0  0
  139.0274   68.1876  226.8702 H   0  0  0  0  0  0  0  0  0  0  0  0
  141.6451   71.0149  228.8458 H   0  0  0  0  0  0  0  0  0  0  0  0
  141.6316   72.4660  226.8083 H   0  0  0  0  0  0  0  0  0  0  0  0
  133.8460   76.0753  225.7590 H   0  0  0  0  0  0  0  0  0  0  0  0
  1  2  1  0
  2  3  1  0
  3  4  2  0
  4  5  1  0
  5  6  2  0
  6  7  1  0
  7  8  1  0
  7  9  1  0
  9 10  1  0
 10 11  2  0
 10 12  1  0
 12 13  1  0
 13 14  1  0
 14 15  1  0
 14 16  1  0
 16 17  1  0
 17 18  1  0
 18 19  2  0
 18 20  1  0
 20 21  1  0
 21 22  1  0
 22 23  2  0
 22 24  1  0
 24 25  2  0
 25 26  1  0
 26 27  2  0
 27 28  1  0
 28 29  2  0
 29 30  1  0
 29 31  1  0
 31 32  2  0
 32 33  1  0
 33 34  2  0
  6 35  1  0
 35 36  1  0
 35 37  2  0
 37  3  1  0
 17 12  1  0
 34 24  1  0
 33 27  1  0
  1 38  1  0
  1 39  1  0
  1 40  1  0
  4 41  1  0
  5 42  1  0
  7 43  1  6
  8 44  1  0
  8 45  1  0
  8 46  1  0
  9 47  1  0
 12 48  1  1
 13 49  1  0
 13 50  1  0
 14 51  1  6
 15 52  1  0
 16 53  1  0
 16 54  1  0
 20 55  1  0
 20 56  1  0
 25 57  1  0
 26 58  1  0
 28 59  1  0
 31 60  1  0
 32 61  1  0
 37 62  1  0
M  CHG  1  21  -1
M  END
>  <meeko>  (20) 
{"free_energy": -8.93, "intermolecular_energy": -11.91, "internal_energy": -3.3, "cluster_size": 5, "cluster_id": 1, "rank_in_cluster": 3}

$$$$
