
     RDKit          3D

 63 66  0  0  0  0  0  0  0  0999 V2000
  142.2280   79.8260  218.9290 C   0  0  0  0  0  0  0  0  0  0  0  0
  141.6740   78.4080  218.7890 C   0  0  0  0  0  0  0  0  0  0  0  0
  142.1520   77.4690  219.8850 C   0  0  0  0  0  0  0  0  0  0  0  0
  143.3780   76.8200  219.6720 O   0  0  0  0  0  0  0  0  0  0  0  0
  141.4460   77.2920  220.9930 N   0  0  0  0  0  0  0  0  0  0  0  0
  141.3950   78.3560  221.9680 C   0  0  0  0  0  0  0  0  0  0  0  0
  142.5640   79.0450  222.3260 C   0  0  0  0  0  0  0  0  0  0  0  0
  142.5110   80.0750  223.2700 C   0  0  0  0  0  0  0  0  0  0  0  0
  141.2930   80.4250  223.8580 C   0  0  0  0  0  0  0  0  0  0  0  0
  140.1220   79.7500  223.4980 C   0  0  0  0  0  0  0  0  0  0  0  0
  140.1710   78.7200  222.5530 C   0  0  0  0  0  0  0  0  0  0  0  0
  140.8030   75.9880  221.3130 C   0  0  2  0  0  0  0  0  0  0  0  0
  141.3790   74.7820  220.5130 C   0  0  0  0  0  0  0  0  0  0  0  0
  140.3130   73.7190  220.1640 C   0  0  0  0  0  0  0  0  0  0  0  0
  139.2920   73.5310  221.2190 N   0  0  1  0  0  0  0  0  0  0  0  0
  139.8530   72.8090  222.3520 C   0  0  0  0  0  0  0  0  0  0  0  0
  141.0000   73.0290  222.7180 O   0  0  0  0  0  0  0  0  0  0  0  0
  139.0430   71.7580  223.0860 C   0  0  1  0  0  0  0  0  0  0  0  0
  138.2370   71.0180  222.1090 N   0  0  0  0  0  0  0  0  0  0  0  0
  139.9760   70.8150  223.8940 C   0  0  0  0  0  0  0  0  0  0  0  0
  140.5420   71.4830  225.1730 C   0  0  0  0  0  0  0  0  0  0  0  0
  140.4830   70.4060  226.1870 C   0  0  0  0  0  0  0  0  0  0  0  0
  141.0110   70.4390  227.4790 C   0  0  0  0  0  0  0  0  0  0  0  0
  140.8220   69.3260  228.3140 C   0  0  0  0  0  0  0  0  0  0  0  0
  140.1080   68.2060  227.8480 C   0  0  0  0  0  0  0  0  0  0  0  0
  139.5790   68.1970  226.5490 C   0  0  0  0  0  0  0  0  0  0  0  0
  139.7840   69.3140  225.7340 C   0  0  0  0  0  0  0  0  0  0  0  0
  139.2700   69.5170  224.3610 C   0  0  0  0  0  0  0  0  0  0  0  0
  138.6000   74.7880  221.6370 C   0  0  0  0  0  0  0  0  0  0  0  0
  139.2810   76.0760  221.1360 C   0  0  0  0  0  0  0  0  0  0  0  0
  142.3263   80.0776  219.9953 H   0  0  0  0  0  0  0  0  0  0  0  0
  143.2147   79.8835  218.4462 H   0  0  0  0  0  0  0  0  0  0  0  0
  141.5416   80.5372  218.4462 H   0  0  0  0  0  0  0  0  0  0  0  0
  140.5756   78.4564  218.8241 H   0  0  0  0  0  0  0  0  0  0  0  0
  142.0387   78.0069  217.8319 H   0  0  0  0  0  0  0  0  0  0  0  0
  144.2890   77.2560  219.7340 H   0  0  0  0  0  0  0  0  0  0  0  0
  143.5242   78.7741  221.8628 H   0  0  0  0  0  0  0  0  0  0  0  0
  143.4300   80.6107  223.5502 H   0  0  0  0  0  0  0  0  0  0  0  0
  141.2549   81.2320  224.6046 H   0  0  0  0  0  0  0  0  0  0  0  0
  139.1626   80.0292  223.9581 H   0  0  0  0  0  0  0  0  0  0  0  0
  139.2484   78.1936  222.2671 H   0  0  0  0  0  0  0  0  0  0  0  0
  141.0406   75.7891  222.3685 H   0  0  0  0  0  0  0  0  0  0  0  0
  141.8157   75.1599  219.5768 H   0  0  0  0  0  0  0  0  0  0  0  0
  142.1303   74.2945  221.1517 H   0  0  0  0  0  0  0  0  0  0  0  0
  139.8039   74.0284  219.2393 H   0  0  0  0  0  0  0  0  0  0  0  0
  140.8401   72.7600  220.0524 H   0  0  0  0  0  0  0  0  0  0  0  0
  138.5570   72.9210  220.7910 H   0  0  0  0  0  0  0  0  0  0  0  0
  138.3697   72.2394  223.8105 H   0  0  0  0  0  0  0  0  0  0  0  0
  138.8330   70.3090  221.6210 H   0  0  0  0  0  0  0  0  0  0  0  0
  137.4770   70.5000  222.6080 H   0  0  0  0  0  0  0  0  0  0  0  0
  140.7839   70.5807  223.1852 H   0  0  0  0  0  0  0  0  0  0  0  0
  141.5782   71.8170  225.0154 H   0  0  0  0  0  0  0  0  0  0  0  0
  139.9787   72.3798  225.4704 H   0  0  0  0  0  0  0  0  0  0  0  0
  141.5645   71.3200  227.8360 H   0  0  0  0  0  0  0  0  0  0  0  0
  141.2328   69.3293  229.3344 H   0  0  0  0  0  0  0  0  0  0  0  0
  139.9645   67.3352  228.5046 H   0  0  0  0  0  0  0  0  0  0  0  0
  139.0142   67.3285  226.1791 H   0  0  0  0  0  0  0  0  0  0  0  0
  139.5375   68.6697  223.7125 H   0  0  0  0  0  0  0  0  0  0  0  0
  138.1731   69.5902  224.3224 H   0  0  0  0  0  0  0  0  0  0  0  0
  137.5730   74.7645  221.2435 H   0  0  0  0  0  0  0  0  0  0  0  0
  138.6326   74.8182  222.7361 H   0  0  0  0  0  0  0  0  0  0  0  0
  139.0488   76.2162  220.0700 H   0  0  0  0  0  0  0  0  0  0  0  0
  138.9049   76.9267  221.7232 H   0  0  0  0  0  0  0  0  0  0  0  0
  1  2  1  0
  2  3  1  0
  3  4  1  0
  3  5  2  0
  5  6  1  0
  6  7  2  0
  7  8  1  0
  8  9  2  0
  9 10  1  0
 10 11  2  0
  5 12  1  0
 12 13  1  0
 13 14  1  0
 14 15  1  0
 15 16  1  0
 16 17  2  0
 16 18  1  0
 18 19  1  0
 18 20  1  0
 20 21  1  0
 21 22  1  0
 22 23  2  0
 23 24  1  0
 24 25  2  0
 25 26  1  0
 26 27  2  0
 27 28  1  0
 15 29  1  0
 29 30  1  0
 11  6  1  0
 30 12  1  0
 28 20  1  0
 27 22  1  0
  1 31  1  0
  1 32  1  0
  1 33  1  0
  2 34  1  0
  2 35  1  0
  4 36  1  0
  7 37  1  0
  8 38  1  0
  9 39  1  0
 10 40  1  0
 11 41  1  0
 12 42  1  6
 13 43  1  0
 13 44  1  0
 14 45  1  0
 14 46  1  0
 15 47  1  1
 18 48  1  1
 19 49  1  0
 19 50  1  0
 20 51  1  0
 21 52  1  0
 21 53  1  0
 23 54  1  0
 24 55  1  0
 25 56  1  0
 26 57  1  0
 28 58  1  0
 28 59  1  0
 29 60  1  0
 29 61  1  0
 30 62  1  0
 30 63  1  0
M  CHG  2   5   1  15   1
M  END
>  <meeko>  (1) 
{"free_energy": -8.39, "intermolecular_energy": -11.08, "internal_energy": -1.47, "cluster_size": 6, "cluster_id": 1, "rank_in_cluster": 3}

$$$$

     RDKit          3D

 63 66  0  0  0  0  0  0  0  0999 V2000
  142.5780   81.6060  217.7180 C   0  0  0  0  0  0  0  0  0  0  0  0
  141.4720   80.6400  218.1450 C   0  0  0  0  0  0  0  0  0  0  0  0
  142.0020   79.3970  218.8430 C   0  0  0  0  0  0  0  0  0  0  0  0
  143.0390   78.7040  218.2020 O   0  0  0  0  0  0  0  0  0  0  0  0
  141.5110   79.0050  220.0110 N   0  0  0  0  0  0  0  0  0  0  0  0
  141.7490   79.8200  221.1790 C   0  0  0  0  0  0  0  0  0  0  0  0
  142.2680   79.2460  222.3490 C   0  0  0  0  0  0  0  0  0  0  0  0
  142.4990   80.0380  223.4790 C   0  0  0  0  0  0  0  0  0  0  0  0
  142.2150   81.4060  223.4450 C   0  0  0  0  0  0  0  0  0  0  0  0
  141.7080   81.9870  222.2780 C   0  0  0  0  0  0  0  0  0  0  0  0
  141.4780   81.1980  221.1470 C   0  0  0  0  0  0  0  0  0  0  0  0
  140.8240   77.6940  220.1730 C   0  0  2  0  0  0  0  0  0  0  0  0
  141.7840   76.5110  220.4990 C   0  0  0  0  0  0  0  0  0  0  0  0
  141.3360   75.1730  219.8700 C   0  0  0  0  0  0  0  0  0  0  0  0
  139.8670   74.9930  219.8390 N   0  0  1  0  0  0  0  0  0  0  0  0
  139.3580   74.7050  221.1720 C   0  0  0  0  0  0  0  0  0  0  0  0
  140.1320   74.4710  222.0920 O   0  0  0  0  0  0  0  0  0  0  0  0
  137.8670   74.6660  221.4480 C   0  0  1  0  0  0  0  0  0  0  0  0
  137.5760   73.5080  222.2990 N   0  0  0  0  0  0  0  0  0  0  0  0
  137.3980   75.9930  222.1030 C   0  0  0  0  0  0  0  0  0  0  0  0
  138.4690   76.6120  223.0380 C   0  0  0  0  0  0  0  0  0  0  0  0
  138.3860   78.0620  222.7550 C   0  0  0  0  0  0  0  0  0  0  0  0
  139.0400   79.0890  223.4390 C   0  0  0  0  0  0  0  0  0  0  0  0
  138.8640   80.4120  222.9980 C   0  0  0  0  0  0  0  0  0  0  0  0
  138.0460   80.6830  221.8860 C   0  0  0  0  0  0  0  0  0  0  0  0
  137.4050   79.6350  221.2090 C   0  0  0  0  0  0  0  0  0  0  0  0
  137.5900   78.3280  221.6690 C   0  0  0  0  0  0  0  0  0  0  0  0
  137.0430   77.0900  221.0680 C   0  0  0  0  0  0  0  0  0  0  0  0
  139.1230   76.1080  219.1790 C   0  0  0  0  0  0  0  0  0  0  0  0
  139.9700   77.3730  218.9390 C   0  0  0  0  0  0  0  0  0  0  0  0
  143.0613   82.0281  218.6115 H   0  0  0  0  0  0  0  0  0  0  0  0
  143.3250   81.0659  217.1177 H   0  0  0  0  0  0  0  0  0  0  0  0
  142.1433   82.4188  217.1177 H   0  0  0  0  0  0  0  0  0  0  0  0
  140.7944   81.1660  218.8335 H   0  0  0  0  0  0  0  0  0  0  0  0
  140.9557   80.3084  217.2321 H   0  0  0  0  0  0  0  0  0  0  0  0
  143.6530   79.0910  217.4970 H   0  0  0  0  0  0  0  0  0  0  0  0
  142.4941   78.1699  222.3781 H   0  0  0  0  0  0  0  0  0  0  0  0
  142.9045   79.5836  224.3950 H   0  0  0  0  0  0  0  0  0  0  0  0
  142.3903   82.0261  224.3365 H   0  0  0  0  0  0  0  0  0  0  0  0
  141.4902   83.0649  222.2501 H   0  0  0  0  0  0  0  0  0  0  0  0
  141.0835   81.6578  220.2289 H   0  0  0  0  0  0  0  0  0  0  0  0
  140.1727   77.8040  221.0526 H   0  0  0  0  0  0  0  0  0  0  0  0
  142.7858   76.7584  220.1179 H   0  0  0  0  0  0  0  0  0  0  0  0
  141.7788   76.3770  221.5908 H   0  0  0  0  0  0  0  0  0  0  0  0
  141.7130   75.1311  218.8375 H   0  0  0  0  0  0  0  0  0  0  0  0
  141.7455   74.3688  220.4989 H   0  0  0  0  0  0  0  0  0  0  0  0
  139.7020   74.1430  219.2500 H   0  0  0  0  0  0  0  0  0  0  0  0
  137.3120   74.5616  220.5041 H   0  0  0  0  0  0  0  0  0  0  0  0
  138.4620   73.1480  222.7250 H   0  0  0  0  0  0  0  0  0  0  0  0
  136.9480   73.8020  223.0820 H   0  0  0  0  0  0  0  0  0  0  0  0
  136.5045   75.6977  222.6727 H   0  0  0  0  0  0  0  0  0  0  0  0
  138.2361   76.4043  224.0928 H   0  0  0  0  0  0  0  0  0  0  0  0
  139.4745   76.2009  222.8652 H   0  0  0  0  0  0  0  0  0  0  0  0
  139.6801   78.8670  224.3056 H   0  0  0  0  0  0  0  0  0  0  0  0
  139.3669   81.2372  223.5235 H   0  0  0  0  0  0  0  0  0  0  0  0
  137.9086   81.7202  221.5463 H   0  0  0  0  0  0  0  0  0  0  0  0
  136.7698   79.8375  220.3341 H   0  0  0  0  0  0  0  0  0  0  0  0
  135.9537   77.1664  220.9350 H   0  0  0  0  0  0  0  0  0  0  0  0
  137.4538   76.8830  220.0688 H   0  0  0  0  0  0  0  0  0  0  0  0
  138.7541   75.7495  218.2067 H   0  0  0  0  0  0  0  0  0  0  0  0
  138.3097   76.3951  219.8618 H   0  0  0  0  0  0  0  0  0  0  0  0
  140.6308   77.2070  218.0754 H   0  0  0  0  0  0  0  0  0  0  0  0
  139.2952   78.2198  218.7449 H   0  0  0  0  0  0  0  0  0  0  0  0
  1  2  1  0
  2  3  1  0
  3  4  1  0
  3  5  2  0
  5  6  1  0
  6  7  2  0
  7  8  1  0
  8  9  2  0
  9 10  1  0
 10 11  2  0
  5 12  1  0
 12 13  1  0
 13 14  1  0
 14 15  1  0
 15 16  1  0
 16 17  2  0
 16 18  1  0
 18 19  1  0
 18 20  1  0
 20 21  1  0
 21 22  1  0
 22 23  2  0
 23 24  1  0
 24 25  2  0
 25 26  1  0
 26 27  2  0
 27 28  1  0
 15 29  1  0
 29 30  1  0
 11  6  1  0
 30 12  1  0
 28 20  1  0
 27 22  1  0
  1 31  1  0
  1 32  1  0
  1 33  1  0
  2 34  1  0
  2 35  1  0
  4 36  1  0
  7 37  1  0
  8 38  1  0
  9 39  1  0
 10 40  1  0
 11 41  1  0
 12 42  1  6
 13 43  1  0
 13 44  1  0
 14 45  1  0
 14 46  1  0
 15 47  1  1
 18 48  1  6
 19 49  1  0
 19 50  1  0
 20 51  1  0
 21 52  1  0
 21 53  1  0
 23 54  1  0
 24 55  1  0
 25 56  1  0
 26 57  1  0
 28 58  1  0
 28 59  1  0
 29 60  1  0
 29 61  1  0
 30 62  1  0
 30 63  1  0
M  CHG  2   5   1  15   1
M  END
>  <meeko>  (2) 
{"free_energy": -6.52, "intermolecular_energy": -9.21, "internal_energy": -3.13, "cluster_size": 9, "cluster_id": 5, "rank_in_cluster": 6}

$$$$

     RDKit          3D

 63 66  0  0  0  0  0  0  0  0999 V2000
  142.5720   81.6330  217.7080 C   0  0  0  0  0  0  0  0  0  0  0  0
  141.4720   80.6610  218.1320 C   0  0  0  0  0  0  0  0  0  0  0  0
  142.0060   79.4230  218.8370 C   0  0  0  0  0  0  0  0  0  0  0  0
  143.0460   78.7310  218.1990 O   0  0  0  0  0  0  0  0  0  0  0  0
  141.5160   79.0350  220.0060 N   0  0  0  0  0  0  0  0  0  0  0  0
  141.7540   79.8550  221.1710 C   0  0  0  0  0  0  0  0  0  0  0  0
  141.4610   81.2270  221.1430 C   0  0  0  0  0  0  0  0  0  0  0  0
  141.6910   82.0180  222.2730 C   0  0  0  0  0  0  0  0  0  0  0  0
  142.2100   81.4440  223.4370 C   0  0  0  0  0  0  0  0  0  0  0  0
  142.4940   80.0740  223.4750 C   0  0  0  0  0  0  0  0  0  0  0  0
  142.2640   79.2810  222.3470 C   0  0  0  0  0  0  0  0  0  0  0  0
  140.8320   77.7230  220.1740 C   0  0  2  0  0  0  0  0  0  0  0  0
  141.7940   76.5440  220.5110 C   0  0  0  0  0  0  0  0  0  0  0  0
  141.3510   75.2020  219.8890 C   0  0  0  0  0  0  0  0  0  0  0  0
  139.8820   75.0180  219.8540 N   0  0  1  0  0  0  0  0  0  0  0  0
  139.3700   74.7370  221.1870 C   0  0  0  0  0  0  0  0  0  0  0  0
  140.1400   74.5100  222.1100 O   0  0  0  0  0  0  0  0  0  0  0  0
  137.8780   74.6980  221.4570 C   0  0  1  0  0  0  0  0  0  0  0  0
  137.5850   73.5420  222.3120 N   0  0  0  0  0  0  0  0  0  0  0  0
  137.4050   76.0270  222.1060 C   0  0  0  0  0  0  0  0  0  0  0  0
  138.4690   76.6450  223.0500 C   0  0  0  0  0  0  0  0  0  0  0  0
  138.3910   78.0950  222.7640 C   0  0  0  0  0  0  0  0  0  0  0  0
  139.0410   79.1220  223.4520 C   0  0  0  0  0  0  0  0  0  0  0  0
  138.8710   80.4440  223.0080 C   0  0  0  0  0  0  0  0  0  0  0  0
  138.0650   80.7150  221.8880 C   0  0  0  0  0  0  0  0  0  0  0  0
  137.4280   79.6670  221.2070 C   0  0  0  0  0  0  0  0  0  0  0  0
  137.6060   78.3600  221.6700 C   0  0  0  0  0  0  0  0  0  0  0  0
  137.0630   77.1230  221.0660 C   0  0  0  0  0  0  0  0  0  0  0  0
  139.1390   76.1270  219.1840 C   0  0  0  0  0  0  0  0  0  0  0  0
  139.9840   77.3920  218.9390 C   0  0  0  0  0  0  0  0  0  0  0  0
  143.0516   82.0568  218.6026 H   0  0  0  0  0  0  0  0  0  0  0  0
  143.3229   81.0979  217.1081 H   0  0  0  0  0  0  0  0  0  0  0  0
  142.1334   82.4440  217.1081 H   0  0  0  0  0  0  0  0  0  0  0  0
  140.7871   81.1845  218.8153 H   0  0  0  0  0  0  0  0  0  0  0  0
  140.9638   80.3228  217.2170 H   0  0  0  0  0  0  0  0  0  0  0  0
  143.6490   79.1130  217.4820 H   0  0  0  0  0  0  0  0  0  0  0  0
  141.0493   81.6815  220.2298 H   0  0  0  0  0  0  0  0  0  0  0  0
  141.4631   83.0938  222.2458 H   0  0  0  0  0  0  0  0  0  0  0  0
  142.3952   82.0689  224.3231 H   0  0  0  0  0  0  0  0  0  0  0  0
  142.8982   79.6213  224.3925 H   0  0  0  0  0  0  0  0  0  0  0  0
  142.4833   78.2036  222.3806 H   0  0  0  0  0  0  0  0  0  0  0  0
  140.1774   77.8369  221.0506 H   0  0  0  0  0  0  0  0  0  0  0  0
  142.7966   76.7912  220.1318 H   0  0  0  0  0  0  0  0  0  0  0  0
  141.7858   76.4169  221.6036 H   0  0  0  0  0  0  0  0  0  0  0  0
  141.7315   75.1547  218.8580 H   0  0  0  0  0  0  0  0  0  0  0  0
  141.7599   74.4027  220.5245 H   0  0  0  0  0  0  0  0  0  0  0  0
  139.7220   74.1640  219.2690 H   0  0  0  0  0  0  0  0  0  0  0  0
  137.3268   74.5902  220.5112 H   0  0  0  0  0  0  0  0  0  0  0  0
  138.4700   73.1850  222.7420 H   0  0  0  0  0  0  0  0  0  0  0  0
  136.9540   73.8390  223.0920 H   0  0  0  0  0  0  0  0  0  0  0  0
  136.5054   75.7348  222.6676 H   0  0  0  0  0  0  0  0  0  0  0  0
  138.2263   76.4391  224.1030 H   0  0  0  0  0  0  0  0  0  0  0  0
  139.4753   76.2316  222.8871 H   0  0  0  0  0  0  0  0  0  0  0  0
  139.6735   78.9002  224.3242 H   0  0  0  0  0  0  0  0  0  0  0  0
  139.3696   81.2691  223.5377 H   0  0  0  0  0  0  0  0  0  0  0  0
  137.9336   81.7518  221.5449 H   0  0  0  0  0  0  0  0  0  0  0  0
  136.8009   79.8696  220.3262 H   0  0  0  0  0  0  0  0  0  0  0  0
  135.9753   77.2014  220.9218 H   0  0  0  0  0  0  0  0  0  0  0  0
  137.4836   76.9136  220.0714 H   0  0  0  0  0  0  0  0  0  0  0  0
  138.7747   75.7614  218.2126 H   0  0  0  0  0  0  0  0  0  0  0  0
  138.3227   76.4170  219.8619 H   0  0  0  0  0  0  0  0  0  0  0  0
  140.6487   77.2217  218.0792 H   0  0  0  0  0  0  0  0  0  0  0  0
  139.3082   78.2360  218.7365 H   0  0  0  0  0  0  0  0  0  0  0  0
  1  2  1  0
  2  3  1  0
  3  4  1  0
  3  5  2  0
  5  6  1  0
  6  7  2  0
  7  8  1  0
  8  9  2  0
  9 10  1  0
 10 11  2  0
  5 12  1  0
 12 13  1  0
 13 14  1  0
 14 15  1  0
 15 16  1  0
 16 17  2  0
 16 18  1  0
 18 19  1  0
 18 20  1  0
 20 21  1  0
 21 22  1  0
 22 23  2  0
 23 24  1  0
 24 25  2  0
 25 26  1  0
 26 27  2  0
 27 28  1  0
 15 29  1  0
 29 30  1  0
 11  6  1  0
 30 12  1  0
 28 20  1  0
 27 22  1  0
  1 31  1  0
  1 32  1  0
  1 33  1  0
  2 34  1  0
  2 35  1  0
  4 36  1  0
  7 37  1  0
  8 38  1  0
  9 39  1  0
 10 40  1  0
 11 41  1  0
 12 42  1  6
 13 43  1  0
 13 44  1  0
 14 45  1  0
 14 46  1  0
 15 47  1  1
 18 48  1  6
 19 49  1  0
 19 50  1  0
 20 51  1  0
 21 52  1  0
 21 53  1  0
 23 54  1  0
 24 55  1  0
 25 56  1  0
 26 57  1  0
 28 58  1  0
 28 59  1  0
 29 60  1  0
 29 61  1  0
 30 62  1  0
 30 63  1  0
M  CHG  2   5   1  15   1
M  END
>  <meeko>  (3) 
{"free_energy": -6.54, "intermolecular_energy": -9.23, "internal_energy": -3.13, "cluster_size": 9, "cluster_id": 5, "rank_in_cluster": 2}

$$$$

     RDKit          3D

 63 66  0  0  0  0  0  0  0  0999 V2000
  142.5800   81.6280  217.7140 C   0  0  0  0  0  0  0  0  0  0  0  0
  141.4810   80.6620  218.1560 C   0  0  0  0  0  0  0  0  0  0  0  0
  142.0180   79.4160  218.8410 C   0  0  0  0  0  0  0  0  0  0  0  0
  143.0500   78.7280  218.1860 O   0  0  0  0  0  0  0  0  0  0  0  0
  141.5400   79.0170  220.0110 N   0  0  0  0  0  0  0  0  0  0  0  0
  141.7940   79.8240  221.1830 C   0  0  0  0  0  0  0  0  0  0  0  0
  141.5170   81.1990  221.1700 C   0  0  0  0  0  0  0  0  0  0  0  0
  141.7620   81.9760  222.3060 C   0  0  0  0  0  0  0  0  0  0  0  0
  142.2820   81.3860  223.4600 C   0  0  0  0  0  0  0  0  0  0  0  0
  142.5510   80.0130  223.4840 C   0  0  0  0  0  0  0  0  0  0  0  0
  142.3050   79.2330  222.3510 C   0  0  0  0  0  0  0  0  0  0  0  0
  140.8530   77.7070  220.1730 C   0  0  2  0  0  0  0  0  0  0  0  0
  141.8130   76.5200  220.4870 C   0  0  0  0  0  0  0  0  0  0  0  0
  141.3580   75.1860  219.8560 C   0  0  0  0  0  0  0  0  0  0  0  0
  139.8880   75.0080  219.8340 N   0  0  1  0  0  0  0  0  0  0  0  0
  139.3890   74.7150  221.1690 C   0  0  0  0  0  0  0  0  0  0  0  0
  140.1690   74.4780  222.0830 O   0  0  0  0  0  0  0  0  0  0  0  0
  137.9000   74.6750  221.4540 C   0  0  1  0  0  0  0  0  0  0  0  0
  137.6140   73.5140  222.3040 N   0  0  0  0  0  0  0  0  0  0  0  0
  137.4350   76.0000  222.1170 C   0  0  0  0  0  0  0  0  0  0  0  0
  138.5150   76.6200  223.0420 C   0  0  0  0  0  0  0  0  0  0  0  0
  138.4250   78.0710  222.7620 C   0  0  0  0  0  0  0  0  0  0  0  0
  139.0840   79.0980  223.4400 C   0  0  0  0  0  0  0  0  0  0  0  0
  138.9000   80.4210  223.0030 C   0  0  0  0  0  0  0  0  0  0  0  0
  138.0700   80.6920  221.9000 C   0  0  0  0  0  0  0  0  0  0  0  0
  137.4240   79.6430  221.2290 C   0  0  0  0  0  0  0  0  0  0  0  0
  137.6170   78.3360  221.6840 C   0  0  0  0  0  0  0  0  0  0  0  0
  137.0670   77.0980  221.0870 C   0  0  0  0  0  0  0  0  0  0  0  0
  139.1420   76.1280  219.1840 C   0  0  0  0  0  0  0  0  0  0  0  0
  139.9900   77.3920  218.9430 C   0  0  0  0  0  0  0  0  0  0  0  0
  143.0689   82.0577  218.6008 H   0  0  0  0  0  0  0  0  0  0  0  0
  143.3240   81.0861  217.1116 H   0  0  0  0  0  0  0  0  0  0  0  0
  142.1381   82.4353  217.1116 H   0  0  0  0  0  0  0  0  0  0  0  0
  140.8155   81.1869  218.8571 H   0  0  0  0  0  0  0  0  0  0  0  0
  140.9509   80.3337  217.2498 H   0  0  0  0  0  0  0  0  0  0  0  0
  143.6540   79.1180  217.4730 H   0  0  0  0  0  0  0  0  0  0  0  0
  141.1059   81.6672  220.2635 H   0  0  0  0  0  0  0  0  0  0  0  0
  141.5448   83.0542  222.2909 H   0  0  0  0  0  0  0  0  0  0  0  0
  142.4802   82.0008  224.3504 H   0  0  0  0  0  0  0  0  0  0  0  0
  142.9561   79.5477  224.3947 H   0  0  0  0  0  0  0  0  0  0  0  0
  142.5120   78.1529  222.3735 H   0  0  0  0  0  0  0  0  0  0  0  0
  140.2090   77.8150  221.0582 H   0  0  0  0  0  0  0  0  0  0  0  0
  142.8125   76.7669  220.0997 H   0  0  0  0  0  0  0  0  0  0  0  0
  141.8152   76.3814  221.5782 H   0  0  0  0  0  0  0  0  0  0  0  0
  141.7279   75.1476  218.8208 H   0  0  0  0  0  0  0  0  0  0  0  0
  141.7700   74.3788  220.4794 H   0  0  0  0  0  0  0  0  0  0  0  0
  139.7180   74.1610  219.2420 H   0  0  0  0  0  0  0  0  0  0  0  0
  137.3395   74.5735  220.5129 H   0  0  0  0  0  0  0  0  0  0  0  0
  138.5020   73.1600  222.7320 H   0  0  0  0  0  0  0  0  0  0  0  0
  136.9820   73.8040  223.0860 H   0  0  0  0  0  0  0  0  0  0  0  0
  136.5485   75.7020  222.6961 H   0  0  0  0  0  0  0  0  0  0  0  0
  138.2940   76.4099  224.0989 H   0  0  0  0  0  0  0  0  0  0  0  0
  139.5197   76.2116  222.8581 H   0  0  0  0  0  0  0  0  0  0  0  0
  139.7343   78.8762  224.2991 H   0  0  0  0  0  0  0  0  0  0  0  0
  139.4062   81.2466  223.5247 H   0  0  0  0  0  0  0  0  0  0  0  0
  137.9272   81.7292  221.5627 H   0  0  0  0  0  0  0  0  0  0  0  0
  136.7782   79.8453  220.3618 H   0  0  0  0  0  0  0  0  0  0  0  0
  135.9763   77.1720  220.9651 H   0  0  0  0  0  0  0  0  0  0  0  0
  137.4682   76.8934  220.0834 H   0  0  0  0  0  0  0  0  0  0  0  0
  138.7651   75.7744  218.2129 H   0  0  0  0  0  0  0  0  0  0  0  0
  138.3347   76.4143  219.8741 H   0  0  0  0  0  0  0  0  0  0  0  0
  140.6448   77.2277  218.0745 H   0  0  0  0  0  0  0  0  0  0  0  0
  139.3158   78.2408  218.7563 H   0  0  0  0  0  0  0  0  0  0  0  0
  1  2  1  0
  2  3  1  0
  3  4  1  0
  3  5  2  0
  5  6  1  0
  6  7  2  0
  7  8  1  0
  8  9  2  0
  9 10  1  0
 10 11  2  0
  5 12  1  0
 12 13  1  0
 13 14  1  0
 14 15  1  0
 15 16  1  0
 16 17  2  0
 16 18  1  0
 18 19  1  0
 18 20  1  0
 20 21  1  0
 21 22  1  0
 22 23  2  0
 23 24  1  0
 24 25  2  0
 25 26  1  0
 26 27  2  0
 27 28  1  0
 15 29  1  0
 29 30  1  0
 11  6  1  0
 30 12  1  0
 28 20  1  0
 27 22  1  0
  1 31  1  0
  1 32  1  0
  1 33  1  0
  2 34  1  0
  2 35  1  0
  4 36  1  0
  7 37  1  0
  8 38  1  0
  9 39  1  0
 10 40  1  0
 11 41  1  0
 12 42  1  6
 13 43  1  0
 13 44  1  0
 14 45  1  0
 14 46  1  0
 15 47  1  1
 18 48  1  6
 19 49  1  0
 19 50  1  0
 20 51  1  0
 21 52  1  0
 21 53  1  0
 23 54  1  0
 24 55  1  0
 25 56  1  0
 26 57  1  0
 28 58  1  0
 28 59  1  0
 29 60  1  0
 29 61  1  0
 30 62  1  0
 30 63  1  0
M  CHG  2   5   1  15   1
M  END
>  <meeko>  (4) 
{"free_energy": -6.53, "intermolecular_energy": -9.21, "internal_energy": -3.13, "cluster_size": 9, "cluster_id": 5, "rank_in_cluster": 4}

$$$$

     RDKit          3D

 63 66  0  0  0  0  0  0  0  0999 V2000
  139.6610   80.7570  218.5230 C   0  0  0  0  0  0  0  0  0  0  0  0
  141.1600   80.6870  218.2290 C   0  0  0  0  0  0  0  0  0  0  0  0
  141.8460   79.5080  218.9020 C   0  0  0  0  0  0  0  0  0  0  0  0
  142.9350   78.9390  218.2250 O   0  0  0  0  0  0  0  0  0  0  0  0
  141.4390   79.0590  220.0810 N   0  0  0  0  0  0  0  0  0  0  0  0
  141.7420   79.8280  221.2650 C   0  0  0  0  0  0  0  0  0  0  0  0
  142.2800   79.2000  222.3990 C   0  0  0  0  0  0  0  0  0  0  0  0
  142.5730   79.9470  223.5440 C   0  0  0  0  0  0  0  0  0  0  0  0
  142.3340   81.3240  223.5620 C   0  0  0  0  0  0  0  0  0  0  0  0
  141.8090   81.9580  222.4320 C   0  0  0  0  0  0  0  0  0  0  0  0
  141.5160   81.2140  221.2850 C   0  0  0  0  0  0  0  0  0  0  0  0
  140.7830   77.7310  220.2310 C   0  0  2  0  0  0  0  0  0  0  0  0
  141.7700   76.5670  220.5420 C   0  0  0  0  0  0  0  0  0  0  0  0
  141.3520   75.2260  219.9000 C   0  0  0  0  0  0  0  0  0  0  0  0
  139.8870   75.0120  219.8700 N   0  0  1  0  0  0  0  0  0  0  0  0
  139.3890   74.6980  221.2010 C   0  0  0  0  0  0  0  0  0  0  0  0
  140.1690   74.4460  222.1100 O   0  0  0  0  0  0  0  0  0  0  0  0
  137.9000   74.6550  221.4870 C   0  0  1  0  0  0  0  0  0  0  0  0
  137.6160   73.4890  222.3310 N   0  0  0  0  0  0  0  0  0  0  0  0
  137.4340   75.9750  222.1580 C   0  0  0  0  0  0  0  0  0  0  0  0
  138.5230   76.6040  223.0660 C   0  0  0  0  0  0  0  0  0  0  0  0
  138.4170   78.0540  222.7880 C   0  0  0  0  0  0  0  0  0  0  0  0
  139.0780   79.0870  223.4570 C   0  0  0  0  0  0  0  0  0  0  0  0
  138.8760   80.4080  223.0240 C   0  0  0  0  0  0  0  0  0  0  0  0
  138.0260   80.6720  221.9350 C   0  0  0  0  0  0  0  0  0  0  0  0
  137.3780   79.6190  221.2730 C   0  0  0  0  0  0  0  0  0  0  0  0
  137.5890   78.3130  221.7240 C   0  0  0  0  0  0  0  0  0  0  0  0
  137.0400   77.0710  221.1350 C   0  0  0  0  0  0  0  0  0  0  0  0
  139.1160   76.1170  219.2240 C   0  0  0  0  0  0  0  0  0  0  0  0
  139.9340   77.4030  218.9950 C   0  0  0  0  0  0  0  0  0  0  0  0
  139.5007   80.7645  219.6112 H   0  0  0  0  0  0  0  0  0  0  0  0
  139.2439   81.6756  218.0846 H   0  0  0  0  0  0  0  0  0  0  0  0
  139.1601   79.8813  218.0846 H   0  0  0  0  0  0  0  0  0  0  0  0
  141.2997   80.5990  217.1415 H   0  0  0  0  0  0  0  0  0  0  0  0
  141.6159   81.6042  218.6301 H   0  0  0  0  0  0  0  0  0  0  0  0
  143.4460   79.3740  217.4670 H   0  0  0  0  0  0  0  0  0  0  0  0
  142.4717   78.1169  222.3869 H   0  0  0  0  0  0  0  0  0  0  0  0
  142.9921   79.4505  224.4316 H   0  0  0  0  0  0  0  0  0  0  0  0
  142.5591   81.9092  224.4658 H   0  0  0  0  0  0  0  0  0  0  0  0
  141.6264   83.0426  222.4453 H   0  0  0  0  0  0  0  0  0  0  0  0
  141.1072   81.7158  220.3956 H   0  0  0  0  0  0  0  0  0  0  0  0
  140.1319   77.8172  221.1134 H   0  0  0  0  0  0  0  0  0  0  0  0
  142.7650   76.8414  220.1616 H   0  0  0  0  0  0  0  0  0  0  0  0
  141.7698   76.4212  221.6323 H   0  0  0  0  0  0  0  0  0  0  0  0
  141.7276   75.2038  218.8663 H   0  0  0  0  0  0  0  0  0  0  0  0
  141.7815   74.4250  220.5196 H   0  0  0  0  0  0  0  0  0  0  0  0
  139.7400   74.1650  219.2720 H   0  0  0  0  0  0  0  0  0  0  0  0
  137.3392   74.5585  220.5456 H   0  0  0  0  0  0  0  0  0  0  0  0
  138.5010   73.1490  222.7760 H   0  0  0  0  0  0  0  0  0  0  0  0
  136.9640   73.7670  223.1000 H   0  0  0  0  0  0  0  0  0  0  0  0
  136.5594   75.6684  222.7505 H   0  0  0  0  0  0  0  0  0  0  0  0
  138.3202   76.3920  224.1262 H   0  0  0  0  0  0  0  0  0  0  0  0
  139.5280   76.2039  222.8661 H   0  0  0  0  0  0  0  0  0  0  0  0
  139.7433   78.8703  224.3058 H   0  0  0  0  0  0  0  0  0  0  0  0
  139.3837   81.2377  223.5377 H   0  0  0  0  0  0  0  0  0  0  0  0
  137.8689   81.7083  221.6012 H   0  0  0  0  0  0  0  0  0  0  0  0
  136.7171   79.8169  220.4162 H   0  0  0  0  0  0  0  0  0  0  0  0
  135.9469   77.1359  221.0309 H   0  0  0  0  0  0  0  0  0  0  0  0
  137.4266   76.8706  220.1249 H   0  0  0  0  0  0  0  0  0  0  0  0
  138.7521   75.7606  218.2491 H   0  0  0  0  0  0  0  0  0  0  0  0
  138.2986   76.3786  219.9120 H   0  0  0  0  0  0  0  0  0  0  0  0
  140.5968   77.2603  218.1287 H   0  0  0  0  0  0  0  0  0  0  0  0
  139.2401   78.2363  218.8103 H   0  0  0  0  0  0  0  0  0  0  0  0
  1  2  1  0
  2  3  1  0
  3  4  1  0
  3  5  2  0
  5  6  1  0
  6  7  2  0
  7  8  1  0
  8  9  2  0
  9 10  1  0
 10 11  2  0
  5 12  1  0
 12 13  1  0
 13 14  1  0
 14 15  1  0
 15 16  1  0
 16 17  2  0
 16 18  1  0
 18 19  1  0
 18 20  1  0
 20 21  1  0
 21 22  1  0
 22 23  2  0
 23 24  1  0
 24 25  2  0
 25 26  1  0
 26 27  2  0
 27 28  1  0
 15 29  1  0
 29 30  1  0
 11  6  1  0
 30 12  1  0
 28 20  1  0
 27 22  1  0
  1 31  1  0
  1 32  1  0
  1 33  1  0
  2 34  1  0
  2 35  1  0
  4 36  1  0
  7 37  1  0
  8 38  1  0
  9 39  1  0
 10 40  1  0
 11 41  1  0
 12 42  1  6
 13 43  1  0
 13 44  1  0
 14 45  1  0
 14 46  1  0
 15 47  1  1
 18 48  1  6
 19 49  1  0
 19 50  1  0
 20 51  1  0
 21 52  1  0
 21 53  1  0
 23 54  1  0
 24 55  1  0
 25 56  1  0
 26 57  1  0
 28 58  1  0
 28 59  1  0
 29 60  1  0
 29 61  1  0
 30 62  1  0
 30 63  1  0
M  CHG  2   5   1  15   1
M  END
>  <meeko>  (5) 
{"free_energy": -6.23, "intermolecular_energy": -8.92, "internal_energy": -3.33, "cluster_size": 9, "cluster_id": 5, "rank_in_cluster": 9}

$$$$

     RDKit          3D

 63 66  0  0  0  0  0  0  0  0999 V2000
  142.4470   79.7550  218.0770 C   0  0  0  0  0  0  0  0  0  0  0  0
  141.4650   78.7310  218.6450 C   0  0  0  0  0  0  0  0  0  0  0  0
  142.0960   77.8030  219.6720 C   0  0  0  0  0  0  0  0  0  0  0  0
  143.2960   77.1750  219.3060 O   0  0  0  0  0  0  0  0  0  0  0  0
  141.5390   77.6180  220.8600 N   0  0  0  0  0  0  0  0  0  0  0  0
  141.7010   78.6320  221.8760 C   0  0  0  0  0  0  0  0  0  0  0  0
  141.9330   79.9680  221.5120 C   0  0  0  0  0  0  0  0  0  0  0  0
  142.0880   80.9480  222.4970 C   0  0  0  0  0  0  0  0  0  0  0  0
  142.0110   80.6010  223.8490 C   0  0  0  0  0  0  0  0  0  0  0  0
  141.7690   79.2740  224.2180 C   0  0  0  0  0  0  0  0  0  0  0  0
  141.6110   78.2920  223.2360 C   0  0  0  0  0  0  0  0  0  0  0  0
  140.8540   76.3450  221.2160 C   0  0  2  0  0  0  0  0  0  0  0  0
  140.7630   75.3230  220.0430 C   0  0  0  0  0  0  0  0  0  0  0  0
  139.4630   74.4890  220.0610 C   0  0  0  0  0  0  0  0  0  0  0  0
  138.9950   74.1480  221.4240 N   0  0  1  0  0  0  0  0  0  0  0  0
  139.8370   73.1170  222.0110 C   0  0  0  0  0  0  0  0  0  0  0  0
  140.9850   73.3750  222.3500 O   0  0  0  0  0  0  0  0  0  0  0  0
  139.3240   71.7010  222.1970 C   0  0  1  0  0  0  0  0  0  0  0  0
  140.2920   70.7700  221.6080 N   0  0  0  0  0  0  0  0  0  0  0  0
  139.0800   71.4010  223.7000 C   0  0  0  0  0  0  0  0  0  0  0  0
  138.5930   69.9510  223.9520 C   0  0  0  0  0  0  0  0  0  0  0  0
  139.3240   69.5420  225.1710 C   0  0  0  0  0  0  0  0  0  0  0  0
  139.1380   68.3700  225.9080 C   0  0  0  0  0  0  0  0  0  0  0  0
  139.9580   68.1370  227.0240 C   0  0  0  0  0  0  0  0  0  0  0  0
  140.9480   69.0710  227.3800 C   0  0  0  0  0  0  0  0  0  0  0  0
  141.1230   70.2380  226.6210 C   0  0  0  0  0  0  0  0  0  0  0  0
  140.2920   70.4510  225.5180 C   0  0  0  0  0  0  0  0  0  0  0  0
  140.3490   71.5870  224.5700 C   0  0  0  0  0  0  0  0  0  0  0  0
  138.8250   75.3240  222.3290 C   0  0  0  0  0  0  0  0  0  0  0  0
  139.4610   76.6230  221.7980 C   0  0  0  0  0  0  0  0  0  0  0  0
  142.9494   80.2789  218.9035 H   0  0  0  0  0  0  0  0  0  0  0  0
  143.1975   79.2399  217.4593 H   0  0  0  0  0  0  0  0  0  0  0  0
  141.9010   80.4832  217.4593 H   0  0  0  0  0  0  0  0  0  0  0  0
  140.6351   79.2708  219.1245 H   0  0  0  0  0  0  0  0  0  0  0  0
  141.1216   78.1067  217.8069 H   0  0  0  0  0  0  0  0  0  0  0  0
  144.2090   77.3940  219.6820 H   0  0  0  0  0  0  0  0  0  0  0  0
  141.9930   80.2444  220.4490 H   0  0  0  0  0  0  0  0  0  0  0  0
  142.2708   81.9934  222.2078 H   0  0  0  0  0  0  0  0  0  0  0  0
  142.1408   81.3720  224.6228 H   0  0  0  0  0  0  0  0  0  0  0  0
  141.7029   79.0028  225.2820 H   0  0  0  0  0  0  0  0  0  0  0  0
  141.4156   77.2499  223.5290 H   0  0  0  0  0  0  0  0  0  0  0  0
  141.4856   75.8700  221.9811 H   0  0  0  0  0  0  0  0  0  0  0  0
  140.8103   75.8760  219.0933 H   0  0  0  0  0  0  0  0  0  0  0  0
  141.6027   74.6213  220.1554 H   0  0  0  0  0  0  0  0  0  0  0  0
  138.6734   75.0652  219.5564 H   0  0  0  0  0  0  0  0  0  0  0  0
  139.6817   73.5404  219.5488 H   0  0  0  0  0  0  0  0  0  0  0  0
  138.0390   73.7380  221.2960 H   0  0  0  0  0  0  0  0  0  0  0  0
  138.3573   71.5803  221.6863 H   0  0  0  0  0  0  0  0  0  0  0  0
  139.9860   70.5020  220.6430 H   0  0  0  0  0  0  0  0  0  0  0  0
  141.2210   71.2440  221.5220 H   0  0  0  0  0  0  0  0  0  0  0  0
  138.3060   72.1284  223.9860 H   0  0  0  0  0  0  0  0  0  0  0  0
  137.5061   69.9259  224.1195 H   0  0  0  0  0  0  0  0  0  0  0  0
  138.7815   69.2837  223.0981 H   0  0  0  0  0  0  0  0  0  0  0  0
  138.3640   67.6435  225.6197 H   0  0  0  0  0  0  0  0  0  0  0  0
  139.8260   67.2225  227.6209 H   0  0  0  0  0  0  0  0  0  0  0  0
  141.5868   68.8858  228.2561 H   0  0  0  0  0  0  0  0  0  0  0  0
  141.8987   70.9705  226.8888 H   0  0  0  0  0  0  0  0  0  0  0  0
  140.3203   72.5473  225.1058 H   0  0  0  0  0  0  0  0  0  0  0  0
  141.2751   71.6020  223.9766 H   0  0  0  0  0  0  0  0  0  0  0  0
  137.7481   75.4989  222.4697 H   0  0  0  0  0  0  0  0  0  0  0  0
  139.3417   75.0787  223.2686 H   0  0  0  0  0  0  0  0  0  0  0  0
  138.8182   77.0447  221.0112 H   0  0  0  0  0  0  0  0  0  0  0  0
  139.5606   77.3348  222.6307 H   0  0  0  0  0  0  0  0  0  0  0  0
  1  2  1  0
  2  3  1  0
  3  4  1  0
  3  5  2  0
  5  6  1  0
  6  7  2  0
  7  8  1  0
  8  9  2  0
  9 10  1  0
 10 11  2  0
  5 12  1  0
 12 13  1  0
 13 14  1  0
 14 15  1  0
 15 16  1  0
 16 17  2  0
 16 18  1  0
 18 19  1  0
 18 20  1  0
 20 21  1  0
 21 22  1  0
 22 23  2  0
 23 24  1  0
 24 25  2  0
 25 26  1  0
 26 27  2  0
 27 28  1  0
 15 29  1  0
 29 30  1  0
 11  6  1  0
 30 12  1  0
 28 20  1  0
 27 22  1  0
  1 31  1  0
  1 32  1  0
  1 33  1  0
  2 34  1  0
  2 35  1  0
  4 36  1  0
  7 37  1  0
  8 38  1  0
  9 39  1  0
 10 40  1  0
 11 41  1  0
 12 42  1  6
 13 43  1  0
 13 44  1  0
 14 45  1  0
 14 46  1  0
 15 47  1  1
 18 48  1  6
 19 49  1  0
 19 50  1  0
 20 51  1  0
 21 52  1  0
 21 53  1  0
 23 54  1  0
 24 55  1  0
 25 56  1  0
 26 57  1  0
 28 58  1  0
 28 59  1  0
 29 60  1  0
 29 61  1  0
 30 62  1  0
 30 63  1  0
M  CHG  2   5   1  15   1
M  END
>  <meeko>  (6) 
{"free_energy": -8.34, "intermolecular_energy": -11.02, "internal_energy": -1.37, "cluster_size": 6, "cluster_id": 1, "rank_in_cluster": 4}

$$$$

     RDKit          3D

 63 66  0  0  0  0  0  0  0  0999 V2000
  141.4410   80.4440  220.0360 C   0  0  0  0  0  0  0  0  0  0  0  0
  141.1510   79.1780  219.2310 C   0  0  0  0  0  0  0  0  0  0  0  0
  142.3250   78.7320  218.3740 C   0  0  0  0  0  0  0  0  0  0  0  0
  143.2810   79.7070  218.0520 O   0  0  0  0  0  0  0  0  0  0  0  0
  142.4390   77.4750  217.9690 N   0  0  0  0  0  0  0  0  0  0  0  0
  143.0360   77.2050  216.6810 C   0  0  0  0  0  0  0  0  0  0  0  0
  144.0500   76.2430  216.5580 C   0  0  0  0  0  0  0  0  0  0  0  0
  144.6250   75.9840  215.3100 C   0  0  0  0  0  0  0  0  0  0  0  0
  144.1900   76.6800  214.1800 C   0  0  0  0  0  0  0  0  0  0  0  0
  143.1720   77.6330  214.2930 C   0  0  0  0  0  0  0  0  0  0  0  0
  142.5940   77.8930  215.5390 C   0  0  0  0  0  0  0  0  0  0  0  0
  141.8650   76.3440  218.7490 C   0  0  2  0  0  0  0  0  0  0  0  0
  142.8940   75.6220  219.6710 C   0  0  0  0  0  0  0  0  0  0  0  0
  142.6400   74.1040  219.7940 C   0  0  0  0  0  0  0  0  0  0  0  0
  141.2050   73.7390  219.8000 N   0  0  1  0  0  0  0  0  0  0  0  0
  140.5920   74.0930  221.0720 C   0  0  0  0  0  0  0  0  0  0  0  0
  141.0540   73.6640  222.1210 O   0  0  0  0  0  0  0  0  0  0  0  0
  139.3610   74.9770  221.1260 C   0  0  1  0  0  0  0  0  0  0  0  0
  138.6090   74.6620  222.3460 N   0  0  0  0  0  0  0  0  0  0  0  0
  139.7630   76.4760  221.0700 C   0  0  0  0  0  0  0  0  0  0  0  0
  138.6690   77.4120  221.6460 C   0  0  0  0  0  0  0  0  0  0  0  0
  139.4370   78.4210  222.4090 C   0  0  0  0  0  0  0  0  0  0  0  0
  138.9380   79.5810  223.0050 C   0  0  0  0  0  0  0  0  0  0  0  0
  139.8210   80.4040  223.7240 C   0  0  0  0  0  0  0  0  0  0  0  0
  141.1790   80.0540  223.8370 C   0  0  0  0  0  0  0  0  0  0  0  0
  141.6570   78.8800  223.2370 C   0  0  0  0  0  0  0  0  0  0  0  0
  140.7610   78.0790  222.5220 C   0  0  0  0  0  0  0  0  0  0  0  0
  141.0580   76.7880  221.8620 C   0  0  0  0  0  0  0  0  0  0  0  0
  140.4320   74.2630  218.6340 C   0  0  0  0  0  0  0  0  0  0  0  0
  141.1770   75.3370  217.8170 C   0  0  0  0  0  0  0  0  0  0  0  0
  141.3886   80.2152  221.1107 H   0  0  0  0  0  0  0  0  0  0  0  0
  142.4470   80.8135  219.7884 H   0  0  0  0  0  0  0  0  0  0  0  0
  140.6961   81.2146  219.7884 H   0  0  0  0  0  0  0  0  0  0  0  0
  140.9016   78.3675  219.9316 H   0  0  0  0  0  0  0  0  0  0  0  0
  140.3174   79.4066  218.5506 H   0  0  0  0  0  0  0  0  0  0  0  0
  143.5920   79.9360  217.1170 H   0  0  0  0  0  0  0  0  0  0  0  0
  144.3934   75.6912  217.4455 H   0  0  0  0  0  0  0  0  0  0  0  0
  145.4213   75.2308  215.2181 H   0  0  0  0  0  0  0  0  0  0  0  0
  144.6481   76.4787  213.2004 H   0  0  0  0  0  0  0  0  0  0  0  0
  142.8266   78.1775  213.4018 H   0  0  0  0  0  0  0  0  0  0  0  0
  141.7902   78.6390  215.6254 H   0  0  0  0  0  0  0  0  0  0  0  0
  141.1197   76.7927  219.4222 H   0  0  0  0  0  0  0  0  0  0  0  0
  143.9018   75.7755  219.2577 H   0  0  0  0  0  0  0  0  0  0  0  0
  142.7902   76.0535  220.6775 H   0  0  0  0  0  0  0  0  0  0  0  0
  143.1227   73.6011  218.9431 H   0  0  0  0  0  0  0  0  0  0  0  0
  143.0566   73.7858  220.7610 H   0  0  0  0  0  0  0  0  0  0  0  0
  141.1820   72.6950  219.7200 H   0  0  0  0  0  0  0  0  0  0  0  0
  138.7198   74.7844  220.2532 H   0  0  0  0  0  0  0  0  0  0  0  0
  138.9380   73.7490  222.7400 H   0  0  0  0  0  0  0  0  0  0  0  0
  138.7910   75.3990  223.0650 H   0  0  0  0  0  0  0  0  0  0  0  0
  139.9134   76.6633  219.9966 H   0  0  0  0  0  0  0  0  0  0  0  0
  138.0931   77.8863  220.8376 H   0  0  0  0  0  0  0  0  0  0  0  0
  137.9338   76.8777  222.2656 H   0  0  0  0  0  0  0  0  0  0  0  0
  137.8742   79.8453  222.9134 H   0  0  0  0  0  0  0  0  0  0  0  0
  139.4498   81.3238  224.1995 H   0  0  0  0  0  0  0  0  0  0  0  0
  141.8678   80.7031  224.3976 H   0  0  0  0  0  0  0  0  0  0  0  0
  142.7156   78.5949  223.3270 H   0  0  0  0  0  0  0  0  0  0  0  0
  141.9194   76.8825  221.1844 H   0  0  0  0  0  0  0  0  0  0  0  0
  141.3235   75.9945  222.5760 H   0  0  0  0  0  0  0  0  0  0  0  0
  140.2000   73.4201  217.9663 H   0  0  0  0  0  0  0  0  0  0  0  0
  139.5299   74.7430  219.0411 H   0  0  0  0  0  0  0  0  0  0  0  0
  141.9362   74.8502  217.1872 H   0  0  0  0  0  0  0  0  0  0  0  0
  140.4497   75.8736  217.1900 H   0  0  0  0  0  0  0  0  0  0  0  0
  1  2  1  0
  2  3  1  0
  3  4  1  0
  3  5  2  0
  5  6  1  0
  6  7  2  0
  7  8  1  0
  8  9  2  0
  9 10  1  0
 10 11  2  0
  5 12  1  0
 12 13  1  0
 13 14  1  0
 14 15  1  0
 15 16  1  0
 16 17  2  0
 16 18  1  0
 18 19  1  0
 18 20  1  0
 20 21  1  0
 21 22  1  0
 22 23  2  0
 23 24  1  0
 24 25  2  0
 25 26  1  0
 26 27  2  0
 27 28  1  0
 15 29  1  0
 29 30  1  0
 11  6  1  0
 30 12  1  0
 28 20  1  0
 27 22  1  0
  1 31  1  0
  1 32  1  0
  1 33  1  0
  2 34  1  0
  2 35  1  0
  4 36  1  0
  7 37  1  0
  8 38  1  0
  9 39  1  0
 10 40  1  0
 11 41  1  0
 12 42  1  6
 13 43  1  0
 13 44  1  0
 14 45  1  0
 14 46  1  0
 15 47  1  1
 18 48  1  6
 19 49  1  0
 19 50  1  0
 20 51  1  0
 21 52  1  0
 21 53  1  0
 23 54  1  0
 24 55  1  0
 25 56  1  0
 26 57  1  0
 28 58  1  0
 28 59  1  0
 29 60  1  0
 29 61  1  0
 30 62  1  0
 30 63  1  0
M  CHG  2   5   1  15   1
M  END
>  <meeko>  (7) 
{"free_energy": -6.81, "intermolecular_energy": -9.5, "internal_energy": -2.36, "cluster_size": 9, "cluster_id": 5, "rank_in_cluster": 1}

$$$$

     RDKit          3D

 63 66  0  0  0  0  0  0  0  0999 V2000
  143.9880   76.7950  214.7950 C   0  0  0  0  0  0  0  0  0  0  0  0
  142.8170   77.2990  215.6390 C   0  0  0  0  0  0  0  0  0  0  0  0
  142.9870   77.0200  217.1240 C   0  0  0  0  0  0  0  0  0  0  0  0
  144.0760   76.2170  217.4970 O   0  0  0  0  0  0  0  0  0  0  0  0
  142.1510   77.5300  218.0170 N   0  0  0  0  0  0  0  0  0  0  0  0
  142.1570   78.9560  218.2480 C   0  0  0  0  0  0  0  0  0  0  0  0
  142.5000   79.8390  217.2130 C   0  0  0  0  0  0  0  0  0  0  0  0
  142.5040   81.2190  217.4390 C   0  0  0  0  0  0  0  0  0  0  0  0
  142.1620   81.7240  218.6960 C   0  0  0  0  0  0  0  0  0  0  0  0
  141.8070   80.8500  219.7290 C   0  0  0  0  0  0  0  0  0  0  0  0
  141.8010   79.4700  219.5060 C   0  0  0  0  0  0  0  0  0  0  0  0
  141.2920   76.6640  218.8720 C   0  0  2  0  0  0  0  0  0  0  0  0
  142.0490   75.4770  219.5380 C   0  0  0  0  0  0  0  0  0  0  0  0
  141.1860   74.2040  219.6740 C   0  0  0  0  0  0  0  0  0  0  0  0
  139.7620   74.4790  219.9720 N   0  0  1  0  0  0  0  0  0  0  0  0
  139.6030   74.9100  221.3530 C   0  0  0  0  0  0  0  0  0  0  0  0
  140.1090   74.2670  222.2640 O   0  0  0  0  0  0  0  0  0  0  0  0
  138.7940   76.1460  221.6960 C   0  0  1  0  0  0  0  0  0  0  0  0
  138.3230   76.0300  223.0810 N   0  0  0  0  0  0  0  0  0  0  0  0
  139.6400   77.4300  221.4830 C   0  0  0  0  0  0  0  0  0  0  0  0
  139.0020   78.6850  222.1340 C   0  0  0  0  0  0  0  0  0  0  0  0
  140.1570   79.4040  222.7150 C   0  0  0  0  0  0  0  0  0  0  0  0
  140.1500   80.6760  223.2910 C   0  0  0  0  0  0  0  0  0  0  0  0
  141.3460   81.1820  223.8250 C   0  0  0  0  0  0  0  0  0  0  0  0
  142.5220   80.4100  223.7800 C   0  0  0  0  0  0  0  0  0  0  0  0
  142.5050   79.1320  223.2040 C   0  0  0  0  0  0  0  0  0  0  0  0
  141.3040   78.6510  222.6730 C   0  0  0  0  0  0  0  0  0  0  0  0
  141.0700   77.3200  222.0710 C   0  0  0  0  0  0  0  0  0  0  0  0
  139.1000   75.4090  219.0090 C   0  0  0  0  0  0  0  0  0  0  0  0
  140.0790   76.1550  218.0810 C   0  0  0  0  0  0  0  0  0  0  0  0
  144.7947   76.4478  215.4573 H   0  0  0  0  0  0  0  0  0  0  0  0
  143.6508   75.9623  214.1602 H   0  0  0  0  0  0  0  0  0  0  0  0
  144.3610   77.6123  214.1602 H   0  0  0  0  0  0  0  0  0  0  0  0
  142.7245   78.3857  215.4955 H   0  0  0  0  0  0  0  0  0  0  0  0
  141.9174   76.7609  215.3055 H   0  0  0  0  0  0  0  0  0  0  0  0
  145.0210   76.3150  217.1490 H   0  0  0  0  0  0  0  0  0  0  0  0
  142.7664   79.4447  216.2213 H   0  0  0  0  0  0  0  0  0  0  0  0
  142.7768   81.9079  216.6260 H   0  0  0  0  0  0  0  0  0  0  0  0
  142.1719   82.8095  218.8735 H   0  0  0  0  0  0  0  0  0  0  0  0
  141.5326   81.2487  220.7168 H   0  0  0  0  0  0  0  0  0  0  0  0
  141.5167   78.7845  220.3180 H   0  0  0  0  0  0  0  0  0  0  0  0
  140.9515   77.3044  219.6990 H   0  0  0  0  0  0  0  0  0  0  0  0
  142.9310   75.2375  218.9259 H   0  0  0  0  0  0  0  0  0  0  0  0
  142.3248   75.7947  220.5544 H   0  0  0  0  0  0  0  0  0  0  0  0
  141.2411   73.6445  218.7285 H   0  0  0  0  0  0  0  0  0  0  0  0
  141.5877   73.6328  220.5239 H   0  0  0  0  0  0  0  0  0  0  0  0
  139.2730   73.5580  219.8720 H   0  0  0  0  0  0  0  0  0  0  0  0
  137.9230   76.2230  221.0286 H   0  0  0  0  0  0  0  0  0  0  0  0
  137.5060   75.3770  223.1250 H   0  0  0  0  0  0  0  0  0  0  0  0
  139.0840   75.6230  223.6720 H   0  0  0  0  0  0  0  0  0  0  0  0
  139.6795   77.5340  220.3886 H   0  0  0  0  0  0  0  0  0  0  0  0
  138.4944   79.3034  221.3791 H   0  0  0  0  0  0  0  0  0  0  0  0
  138.2356   78.4342  222.8822 H   0  0  0  0  0  0  0  0  0  0  0  0
  139.2251   81.2704  223.3258 H   0  0  0  0  0  0  0  0  0  0  0  0
  141.3639   82.1836  224.2793 H   0  0  0  0  0  0  0  0  0  0  0  0
  143.4573   80.8106  224.1981 H   0  0  0  0  0  0  0  0  0  0  0  0
  143.4182   78.5197  223.1704 H   0  0  0  0  0  0  0  0  0  0  0  0
  141.8050   77.1127  221.2793 H   0  0  0  0  0  0  0  0  0  0  0  0
  141.1709   76.4997  222.7969 H   0  0  0  0  0  0  0  0  0  0  0  0
  138.4088   74.8246  218.3839 H   0  0  0  0  0  0  0  0  0  0  0  0
  138.5861   76.1743  219.6092 H   0  0  0  0  0  0  0  0  0  0  0  0
  140.4233   75.4694  217.2927 H   0  0  0  0  0  0  0  0  0  0  0  0
  139.5591   77.0163  217.6360 H   0  0  0  0  0  0  0  0  0  0  0  0
  1  2  1  0
  2  3  1  0
  3  4  1  0
  3  5  2  0
  5  6  1  0
  6  7  2  0
  7  8  1  0
  8  9  2  0
  9 10  1  0
 10 11  2  0
  5 12  1  0
 12 13  1  0
 13 14  1  0
 14 15  1  0
 15 16  1  0
 16 17  2  0
 16 18  1  0
 18 19  1  0
 18 20  1  0
 20 21  1  0
 21 22  1  0
 22 23  2  0
 23 24  1  0
 24 25  2  0
 25 26  1  0
 26 27  2  0
 27 28  1  0
 15 29  1  0
 29 30  1  0
 11  6  1  0
 30 12  1  0
 28 20  1  0
 27 22  1  0
  1 31  1  0
  1 32  1  0
  1 33  1  0
  2 34  1  0
  2 35  1  0
  4 36  1  0
  7 37  1  0
  8 38  1  0
  9 39  1  0
 10 40  1  0
 11 41  1  0
 12 42  1  6
 13 43  1  0
 13 44  1  0
 14 45  1  0
 14 46  1  0
 15 47  1  6
 18 48  1  6
 19 49  1  0
 19 50  1  0
 20 51  1  0
 21 52  1  0
 21 53  1  0
 23 54  1  0
 24 55  1  0
 25 56  1  0
 26 57  1  0
 28 58  1  0
 28 59  1  0
 29 60  1  0
 29 61  1  0
 30 62  1  0
 30 63  1  0
M  CHG  2   5   1  15   1
M  END
>  <meeko>  (8) 
{"free_energy": -6.93, "intermolecular_energy": -9.62, "internal_energy": -2.56, "cluster_size": 3, "cluster_id": 4, "rank_in_cluster": 1}

$$$$

     RDKit          3D

 63 66  0  0  0  0  0  0  0  0999 V2000
  142.5790   81.6550  217.7310 C   0  0  0  0  0  0  0  0  0  0  0  0
  141.4740   80.6880  218.1580 C   0  0  0  0  0  0  0  0  0  0  0  0
  142.0040   79.4460  218.8570 C   0  0  0  0  0  0  0  0  0  0  0  0
  143.0450   78.7560  218.2180 O   0  0  0  0  0  0  0  0  0  0  0  0
  141.5110   79.0520  220.0220 N   0  0  0  0  0  0  0  0  0  0  0  0
  141.7530   79.8600  221.1940 C   0  0  0  0  0  0  0  0  0  0  0  0
  141.4600   81.2320  221.1810 C   0  0  0  0  0  0  0  0  0  0  0  0
  141.6950   82.0120  222.3180 C   0  0  0  0  0  0  0  0  0  0  0  0
  142.2200   81.4260  223.4730 C   0  0  0  0  0  0  0  0  0  0  0  0
  142.5030   80.0570  223.4970 C   0  0  0  0  0  0  0  0  0  0  0  0
  142.2680   79.2740  222.3630 C   0  0  0  0  0  0  0  0  0  0  0  0
  140.8160   77.7440  220.1790 C   0  0  2  0  0  0  0  0  0  0  0  0
  141.7720   76.5490  220.4710 C   0  0  0  0  0  0  0  0  0  0  0  0
  141.3020   75.2230  219.8320 C   0  0  0  0  0  0  0  0  0  0  0  0
  139.8310   75.0550  219.8250 N   0  0  1  0  0  0  0  0  0  0  0  0
  139.3440   74.7520  221.1630 C   0  0  0  0  0  0  0  0  0  0  0  0
  140.1320   74.5110  222.0680 O   0  0  0  0  0  0  0  0  0  0  0  0
  137.8570   74.7080  221.4610 C   0  0  1  0  0  0  0  0  0  0  0  0
  137.5820   73.5410  222.3060 N   0  0  0  0  0  0  0  0  0  0  0  0
  137.3960   76.0280  222.1360 C   0  0  0  0  0  0  0  0  0  0  0  0
  138.4880   76.6520  223.0430 C   0  0  0  0  0  0  0  0  0  0  0  0
  138.3840   78.1020  222.7700 C   0  0  0  0  0  0  0  0  0  0  0  0
  139.0480   79.1320  223.4390 C   0  0  0  0  0  0  0  0  0  0  0  0
  138.8480   80.4550  223.0100 C   0  0  0  0  0  0  0  0  0  0  0  0
  137.9960   80.7240  221.9240 C   0  0  0  0  0  0  0  0  0  0  0  0
  137.3450   79.6730  221.2610 C   0  0  0  0  0  0  0  0  0  0  0  0
  137.5550   78.3660  221.7080 C   0  0  0  0  0  0  0  0  0  0  0  0
  137.0020   77.1260  221.1170 C   0  0  0  0  0  0  0  0  0  0  0  0
  139.0850   76.1860  219.1940 C   0  0  0  0  0  0  0  0  0  0  0  0
  139.9380   77.4460  218.9560 C   0  0  0  0  0  0  0  0  0  0  0  0
  143.0619   82.0776  218.6245 H   0  0  0  0  0  0  0  0  0  0  0  0
  143.3265   81.1156  217.1307 H   0  0  0  0  0  0  0  0  0  0  0  0
  142.1435   82.4674  217.1307 H   0  0  0  0  0  0  0  0  0  0  0  0
  140.7954   81.2138  218.8458 H   0  0  0  0  0  0  0  0  0  0  0  0
  140.9591   80.3552  217.2447 H   0  0  0  0  0  0  0  0  0  0  0  0
  143.6420   79.1360  217.4950 H   0  0  0  0  0  0  0  0  0  0  0  0
  141.0443   81.6955  220.2742 H   0  0  0  0  0  0  0  0  0  0  0  0
  141.4663   83.0879  222.3030 H   0  0  0  0  0  0  0  0  0  0  0  0
  142.4107   82.0423  224.3640 H   0  0  0  0  0  0  0  0  0  0  0  0
  142.9108   79.5958  224.4086 H   0  0  0  0  0  0  0  0  0  0  0  0
  142.4868   78.1962  222.3857 H   0  0  0  0  0  0  0  0  0  0  0  0
  140.1815   77.8477  221.0716 H   0  0  0  0  0  0  0  0  0  0  0  0
  142.7687   76.7939  220.0751 H   0  0  0  0  0  0  0  0  0  0  0  0
  141.7853   76.3999  221.5608 H   0  0  0  0  0  0  0  0  0  0  0  0
  141.6601   75.1922  218.7924 H   0  0  0  0  0  0  0  0  0  0  0  0
  141.7161   74.4071  220.4425 H   0  0  0  0  0  0  0  0  0  0  0  0
  139.6480   74.2150  219.2270 H   0  0  0  0  0  0  0  0  0  0  0  0
  137.2873   74.6119  220.5249 H   0  0  0  0  0  0  0  0  0  0  0  0
  138.4730   73.1920  222.7310 H   0  0  0  0  0  0  0  0  0  0  0  0
  136.9490   73.8220  223.0890 H   0  0  0  0  0  0  0  0  0  0  0  0
  136.5221   75.7225  222.7301 H   0  0  0  0  0  0  0  0  0  0  0  0
  138.2875   76.4370  224.1030 H   0  0  0  0  0  0  0  0  0  0  0  0
  139.4918   76.2508  222.8393 H   0  0  0  0  0  0  0  0  0  0  0  0
  139.7149   78.9120  224.2857 H   0  0  0  0  0  0  0  0  0  0  0  0
  139.3590   81.2820  223.5247 H   0  0  0  0  0  0  0  0  0  0  0  0
  137.8396   81.7614  221.5935 H   0  0  0  0  0  0  0  0  0  0  0  0
  136.6824   79.8739  220.4062 H   0  0  0  0  0  0  0  0  0  0  0  0
  135.9088   77.1932  221.0155 H   0  0  0  0  0  0  0  0  0  0  0  0
  137.3858   76.9272  220.1055 H   0  0  0  0  0  0  0  0  0  0  0  0
  138.6952   75.8443  218.2238 H   0  0  0  0  0  0  0  0  0  0  0  0
  138.2871   76.4707  219.8956 H   0  0  0  0  0  0  0  0  0  0  0  0
  140.5824   77.2858  218.0790 H   0  0  0  0  0  0  0  0  0  0  0  0
  139.2672   78.3008  218.7848 H   0  0  0  0  0  0  0  0  0  0  0  0
  1  2  1  0
  2  3  1  0
  3  4  1  0
  3  5  2  0
  5  6  1  0
  6  7  2  0
  7  8  1  0
  8  9  2  0
  9 10  1  0
 10 11  2  0
  5 12  1  0
 12 13  1  0
 13 14  1  0
 14 15  1  0
 15 16  1  0
 16 17  2  0
 16 18  1  0
 18 19  1  0
 18 20  1  0
 20 21  1  0
 21 22  1  0
 22 23  2  0
 23 24  1  0
 24 25  2  0
 25 26  1  0
 26 27  2  0
 27 28  1  0
 15 29  1  0
 29 30  1  0
 11  6  1  0
 30 12  1  0
 28 20  1  0
 27 22  1  0
  1 31  1  0
  1 32  1  0
  1 33  1  0
  2 34  1  0
  2 35  1  0
  4 36  1  0
  7 37  1  0
  8 38  1  0
  9 39  1  0
 10 40  1  0
 11 41  1  0
 12 42  1  6
 13 43  1  0
 13 44  1  0
 14 45  1  0
 14 46  1  0
 15 47  1  1
 18 48  1  6
 19 49  1  0
 19 50  1  0
 20 51  1  0
 21 52  1  0
 21 53  1  0
 23 54  1  0
 24 55  1  0
 25 56  1  0
 26 57  1  0
 28 58  1  0
 28 59  1  0
 29 60  1  0
 29 61  1  0
 30 62  1  0
 30 63  1  0
M  CHG  2   5   1  15   1
M  END
>  <meeko>  (9) 
{"free_energy": -6.54, "intermolecular_energy": -9.22, "internal_energy": -3.13, "cluster_size": 9, "cluster_id": 5, "rank_in_cluster": 3}

$$$$

     RDKit          3D

 63 66  0  0  0  0  0  0  0  0999 V2000
  142.9490   77.2600  215.5630 C   0  0  0  0  0  0  0  0  0  0  0  0
  142.9690   77.5030  217.0720 C   0  0  0  0  0  0  0  0  0  0  0  0
  142.2040   78.7510  217.4870 C   0  0  0  0  0  0  0  0  0  0  0  0
  142.4160   79.9070  216.7210 O   0  0  0  0  0  0  0  0  0  0  0  0
  141.3660   78.7310  218.5130 N   0  0  0  0  0  0  0  0  0  0  0  0
  140.9260   79.9840  219.0830 C   0  0  0  0  0  0  0  0  0  0  0  0
  139.5610   80.2210  219.3030 C   0  0  0  0  0  0  0  0  0  0  0  0
  139.1390   81.4340  219.8560 C   0  0  0  0  0  0  0  0  0  0  0  0
  140.0760   82.4140  220.1930 C   0  0  0  0  0  0  0  0  0  0  0  0
  141.4400   82.1800  219.9860 C   0  0  0  0  0  0  0  0  0  0  0  0
  141.8650   80.9670  219.4360 C   0  0  0  0  0  0  0  0  0  0  0  0
  140.9580   77.4580  219.1690 C   0  0  2  0  0  0  0  0  0  0  0  0
  142.1450   76.6400  219.7610 C   0  0  0  0  0  0  0  0  0  0  0  0
  141.9420   75.1120  219.6580 C   0  0  0  0  0  0  0  0  0  0  0  0
  140.5370   74.6840  219.8440 N   0  0  1  0  0  0  0  0  0  0  0  0
  140.1520   74.7880  221.2440 C   0  0  0  0  0  0  0  0  0  0  0  0
  140.7220   74.1140  222.0930 O   0  0  0  0  0  0  0  0  0  0  0  0
  139.0300   75.7100  221.6790 C   0  0  1  0  0  0  0  0  0  0  0  0
  137.9340   74.8970  222.2170 N   0  0  0  0  0  0  0  0  0  0  0  0
  139.5430   76.7420  222.7200 C   0  0  0  0  0  0  0  0  0  0  0  0
  141.0680   77.0000  222.6070 C   0  0  0  0  0  0  0  0  0  0  0  0
  141.1920   78.4610  222.8060 C   0  0  0  0  0  0  0  0  0  0  0  0
  142.3740   79.1920  222.9440 C   0  0  0  0  0  0  0  0  0  0  0  0
  142.2920   80.5870  223.0900 C   0  0  0  0  0  0  0  0  0  0  0  0
  141.0370   81.2240  223.0900 C   0  0  0  0  0  0  0  0  0  0  0  0
  139.8630   80.4710  222.9420 C   0  0  0  0  0  0  0  0  0  0  0  0
  139.9690   79.0850  222.8040 C   0  0  0  0  0  0  0  0  0  0  0  0
  138.8600   78.1270  222.5900 C   0  0  0  0  0  0  0  0  0  0  0  0
  139.5620   75.3620  218.9380 C   0  0  0  0  0  0  0  0  0  0  0  0
  140.1330   76.5920  218.2070 C   0  0  0  0  0  0  0  0  0  0  0  0
  142.8603   76.1813  215.3665 H   0  0  0  0  0  0  0  0  0  0  0  0
  142.0911   77.7855  215.1183 H   0  0  0  0  0  0  0  0  0  0  0  0
  143.8813   77.6383  215.1183 H   0  0  0  0  0  0  0  0  0  0  0  0
  142.5178   76.6335  217.5724 H   0  0  0  0  0  0  0  0  0  0  0  0
  144.0188   77.6494  217.3662 H   0  0  0  0  0  0  0  0  0  0  0  0
  143.3010   80.1900  216.3200 H   0  0  0  0  0  0  0  0  0  0  0  0
  138.8209   79.4509  219.0399 H   0  0  0  0  0  0  0  0  0  0  0  0
  138.0677   81.6169  220.0260 H   0  0  0  0  0  0  0  0  0  0  0  0
  139.7412   83.3703  220.6214 H   0  0  0  0  0  0  0  0  0  0  0  0
  142.1776   82.9502  220.2559 H   0  0  0  0  0  0  0  0  0  0  0  0
  142.9379   80.7819  219.2793 H   0  0  0  0  0  0  0  0  0  0  0  0
  140.3357   77.7505  220.0276 H   0  0  0  0  0  0  0  0  0  0  0  0
  143.0614   76.9086  219.2151 H   0  0  0  0  0  0  0  0  0  0  0  0
  142.2130   76.8895  220.8302 H   0  0  0  0  0  0  0  0  0  0  0  0
  142.2761   74.7837  218.6627 H   0  0  0  0  0  0  0  0  0  0  0  0
  142.5272   74.6547  220.4694 H   0  0  0  0  0  0  0  0  0  0  0  0
  140.5180   73.6690  219.5880 H   0  0  0  0  0  0  0  0  0  0  0  0
  138.6583   76.2826  220.8164 H   0  0  0  0  0  0  0  0  0  0  0  0
  138.3140   74.0020  222.6070 H   0  0  0  0  0  0  0  0  0  0  0  0
  137.4730   75.4120  223.0020 H   0  0  0  0  0  0  0  0  0  0  0  0
  139.2948   76.2796  223.6868 H   0  0  0  0  0  0  0  0  0  0  0  0
  141.6176   76.4500  223.3851 H   0  0  0  0  0  0  0  0  0  0  0  0
  141.4875   76.6633  221.6475 H   0  0  0  0  0  0  0  0  0  0  0  0
  143.3503   78.6853  222.9385 H   0  0  0  0  0  0  0  0  0  0  0  0
  143.2100   81.1821  223.2045 H   0  0  0  0  0  0  0  0  0  0  0  0
  140.9767   82.3162  223.2065 H   0  0  0  0  0  0  0  0  0  0  0  0
  138.8787   80.9620  222.9347 H   0  0  0  0  0  0  0  0  0  0  0  0
  138.0794   78.2530  223.3547 H   0  0  0  0  0  0  0  0  0  0  0  0
  138.3569   78.2657  221.6217 H   0  0  0  0  0  0  0  0  0  0  0  0
  139.2291   74.6350  218.1826 H   0  0  0  0  0  0  0  0  0  0  0  0
  138.7387   75.7235  219.5716 H   0  0  0  0  0  0  0  0  0  0  0  0
  140.7770   76.2550  217.3814 H   0  0  0  0  0  0  0  0  0  0  0  0
  139.2975   77.1923  217.8176 H   0  0  0  0  0  0  0  0  0  0  0  0
  1  2  1  0
  2  3  1  0
  3  4  1  0
  3  5  2  0
  5  6  1  0
  6  7  2  0
  7  8  1  0
  8  9  2  0
  9 10  1  0
 10 11  2  0
  5 12  1  0
 12 13  1  0
 13 14  1  0
 14 15  1  0
 15 16  1  0
 16 17  2  0
 16 18  1  0
 18 19  1  0
 18 20  1  0
 20 21  1  0
 21 22  1  0
 22 23  2  0
 23 24  1  0
 24 25  2  0
 25 26  1  0
 26 27  2  0
 27 28  1  0
 15 29  1  0
 29 30  1  0
 11  6  1  0
 30 12  1  0
 28 20  1  0
 27 22  1  0
  1 31  1  0
  1 32  1  0
  1 33  1  0
  2 34  1  0
  2 35  1  0
  4 36  1  0
  7 37  1  0
  8 38  1  0
  9 39  1  0
 10 40  1  0
 11 41  1  0
 12 42  1  6
 13 43  1  0
 13 44  1  0
 14 45  1  0
 14 46  1  0
 15 47  1  1
 18 48  1  6
 19 49  1  0
 19 50  1  0
 20 51  1  0
 21 52  1  0
 21 53  1  0
 23 54  1  0
 24 55  1  0
 25 56  1  0
 26 57  1  0
 28 58  1  0
 28 59  1  0
 29 60  1  0
 29 61  1  0
 30 62  1  0
 30 63  1  0
M  CHG  2   5   1  15   1
M  END
>  <meeko>  (10) 
{"free_energy": -6.71, "intermolecular_energy": -9.4, "internal_energy": -2.58, "cluster_size": 3, "cluster_id": 4, "rank_in_cluster": 3}

$$$$

     RDKit          3D

 63 66  0  0  0  0  0  0  0  0999 V2000
  142.5650   79.2080  218.0050 C   0  0  0  0  0  0  0  0  0  0  0  0
  141.6050   78.1560  218.5610 C   0  0  0  0  0  0  0  0  0  0  0  0
  142.2030   77.3450  219.7000 C   0  0  0  0  0  0  0  0  0  0  0  0
  143.4610   76.7680  219.4740 O   0  0  0  0  0  0  0  0  0  0  0  0
  141.5650   77.2100  220.8540 N   0  0  0  0  0  0  0  0  0  0  0  0
  141.6420   78.2760  221.8250 C   0  0  0  0  0  0  0  0  0  0  0  0
  141.8910   79.5940  221.4120 C   0  0  0  0  0  0  0  0  0  0  0  0
  141.9640   80.6240  222.3550 C   0  0  0  0  0  0  0  0  0  0  0  0
  141.7850   80.3460  223.7130 C   0  0  0  0  0  0  0  0  0  0  0  0
  141.5250   79.0360  224.1300 C   0  0  0  0  0  0  0  0  0  0  0  0
  141.4500   78.0050  223.1900 C   0  0  0  0  0  0  0  0  0  0  0  0
  140.8710   75.9460  221.2240 C   0  0  2  0  0  0  0  0  0  0  0  0
  141.3370   74.7030  220.4080 C   0  0  0  0  0  0  0  0  0  0  0  0
  140.1990   73.6960  220.1300 C   0  0  0  0  0  0  0  0  0  0  0  0
  139.2290   73.5730  221.2410 N   0  0  1  0  0  0  0  0  0  0  0  0
  139.8110   72.8320  222.3500 C   0  0  0  0  0  0  0  0  0  0  0  0
  140.9710   73.0330  222.6870 O   0  0  0  0  0  0  0  0  0  0  0  0
  139.0080   71.7840  223.0960 C   0  0  1  0  0  0  0  0  0  0  0  0
  138.1760   71.0560  222.1320 N   0  0  0  0  0  0  0  0  0  0  0  0
  139.9490   70.8290  223.8790 C   0  0  0  0  0  0  0  0  0  0  0  0
  140.5440   71.4830  225.1530 C   0  0  0  0  0  0  0  0  0  0  0  0
  140.4960   70.3980  226.1590 C   0  0  0  0  0  0  0  0  0  0  0  0
  141.0480   70.4190  227.4410 C   0  0  0  0  0  0  0  0  0  0  0  0
  140.8680   69.3000  228.2710 C   0  0  0  0  0  0  0  0  0  0  0  0
  140.1390   68.1880  227.8100 C   0  0  0  0  0  0  0  0  0  0  0  0
  139.5860   68.1930  226.5210 C   0  0  0  0  0  0  0  0  0  0  0  0
  139.7830   69.3150  225.7110 C   0  0  0  0  0  0  0  0  0  0  0  0
  139.2440   69.5320  224.3490 C   0  0  0  0  0  0  0  0  0  0  0  0
  138.6290   74.8690  221.6810 C   0  0  0  0  0  0  0  0  0  0  0  0
  139.3490   76.1150  221.1290 C   0  0  0  0  0  0  0  0  0  0  0  0
  143.0495   79.7389  218.8377 H   0  0  0  0  0  0  0  0  0  0  0  0
  143.3316   78.7156  217.3886 H   0  0  0  0  0  0  0  0  0  0  0  0
  142.0047   79.9264  217.3886 H   0  0  0  0  0  0  0  0  0  0  0  0
  140.7028   78.6657  218.9302 H   0  0  0  0  0  0  0  0  0  0  0  0
  141.3772   77.4555  217.7440 H   0  0  0  0  0  0  0  0  0  0  0  0
  144.3500   77.1840  219.7230 H   0  0  0  0  0  0  0  0  0  0  0  0
  142.0291   79.8174  220.3438 H   0  0  0  0  0  0  0  0  0  0  0  0
  142.1627   81.6551  222.0273 H   0  0  0  0  0  0  0  0  0  0  0  0
  141.8485   81.1568  224.4536 H   0  0  0  0  0  0  0  0  0  0  0  0
  141.3796   78.8177  225.1983 H   0  0  0  0  0  0  0  0  0  0  0  0
  141.2398   76.9770  223.5201 H   0  0  0  0  0  0  0  0  0  0  0  0
  141.1546   75.7440  222.2674 H   0  0  0  0  0  0  0  0  0  0  0  0
  141.7412   75.0484  219.4450 H   0  0  0  0  0  0  0  0  0  0  0  0
  142.0949   74.1815  221.0110 H   0  0  0  0  0  0  0  0  0  0  0  0
  139.6572   74.0238  219.2306 H   0  0  0  0  0  0  0  0  0  0  0  0
  140.6673   72.7090  220.0013 H   0  0  0  0  0  0  0  0  0  0  0  0
  138.4390   73.0000  220.8610 H   0  0  0  0  0  0  0  0  0  0  0  0
  138.3546   72.2672  223.8373 H   0  0  0  0  0  0  0  0  0  0  0  0
  137.3060   71.6020  221.9300 H   0  0  0  0  0  0  0  0  0  0  0  0
  138.6980   70.9520  221.2320 H   0  0  0  0  0  0  0  0  0  0  0  0
  140.7416   70.5954  223.1529 H   0  0  0  0  0  0  0  0  0  0  0  0
  141.5794   71.8109  224.9787 H   0  0  0  0  0  0  0  0  0  0  0  0
  139.9931   72.3815  225.4682 H   0  0  0  0  0  0  0  0  0  0  0  0
  141.6127   71.2944  227.7943 H   0  0  0  0  0  0  0  0  0  0  0  0
  141.2978   69.2930  229.2835 H   0  0  0  0  0  0  0  0  0  0  0  0
  140.0026   67.3127  228.4622 H   0  0  0  0  0  0  0  0  0  0  0  0
  139.0088   67.3312  226.1549 H   0  0  0  0  0  0  0  0  0  0  0  0
  139.4938   68.6882  223.6890 H   0  0  0  0  0  0  0  0  0  0  0  0
  138.1471   69.6121  224.3318 H   0  0  0  0  0  0  0  0  0  0  0  0
  137.5823   74.8972  221.3440 H   0  0  0  0  0  0  0  0  0  0  0  0
  138.7237   74.9069  222.7763 H   0  0  0  0  0  0  0  0  0  0  0  0
  139.0663   76.2588  220.0757 H   0  0  0  0  0  0  0  0  0  0  0  0
  139.0515   76.9898  221.7258 H   0  0  0  0  0  0  0  0  0  0  0  0
  1  2  1  0
  2  3  1  0
  3  4  1  0
  3  5  2  0
  5  6  1  0
  6  7  2  0
  7  8  1  0
  8  9  2  0
  9 10  1  0
 10 11  2  0
  5 12  1  0
 12 13  1  0
 13 14  1  0
 14 15  1  0
 15 16  1  0
 16 17  2  0
 16 18  1  0
 18 19  1  0
 18 20  1  0
 20 21  1  0
 21 22  1  0
 22 23  2  0
 23 24  1  0
 24 25  2  0
 25 26  1  0
 26 27  2  0
 27 28  1  0
 15 29  1  0
 29 30  1  0
 11  6  1  0
 30 12  1  0
 28 20  1  0
 27 22  1  0
  1 31  1  0
  1 32  1  0
  1 33  1  0
  2 34  1  0
  2 35  1  0
  4 36  1  0
  7 37  1  0
  8 38  1  0
  9 39  1  0
 10 40  1  0
 11 41  1  0
 12 42  1  6
 13 43  1  0
 13 44  1  0
 14 45  1  0
 14 46  1  0
 15 47  1  1
 18 48  1  1
 19 49  1  0
 19 50  1  0
 20 51  1  0
 21 52  1  0
 21 53  1  0
 23 54  1  0
 24 55  1  0
 25 56  1  0
 26 57  1  0
 28 58  1  0
 28 59  1  0
 29 60  1  0
 29 61  1  0
 30 62  1  0
 30 63  1  0
M  CHG  2   5   1  15   1
M  END
>  <meeko>  (11) 
{"free_energy": -8.56, "intermolecular_energy": -11.25, "internal_energy": -1.37, "cluster_size": 6, "cluster_id": 1, "rank_in_cluster": 1}

$$$$

     RDKit          3D

 63 66  0  0  0  0  0  0  0  0999 V2000
  142.5730   81.5860  217.7440 C   0  0  0  0  0  0  0  0  0  0  0  0
  141.4880   80.5810  218.1320 C   0  0  0  0  0  0  0  0  0  0  0  0
  142.0390   79.3450  218.8260 C   0  0  0  0  0  0  0  0  0  0  0  0
  143.0770   78.6630  218.1750 O   0  0  0  0  0  0  0  0  0  0  0  0
  141.5650   78.9490  219.9990 N   0  0  0  0  0  0  0  0  0  0  0  0
  141.8260   79.7570  221.1680 C   0  0  0  0  0  0  0  0  0  0  0  0
  141.5700   81.1360  221.1470 C   0  0  0  0  0  0  0  0  0  0  0  0
  141.8230   81.9150  222.2810 C   0  0  0  0  0  0  0  0  0  0  0  0
  142.3270   81.3210  223.4410 C   0  0  0  0  0  0  0  0  0  0  0  0
  142.5730   79.9450  223.4720 C   0  0  0  0  0  0  0  0  0  0  0  0
  142.3210   79.1630  222.3410 C   0  0  0  0  0  0  0  0  0  0  0  0
  140.8750   77.6400  220.1660 C   0  0  2  0  0  0  0  0  0  0  0  0
  141.8320   76.4550  220.4910 C   0  0  0  0  0  0  0  0  0  0  0  0
  141.3780   75.1170  219.8660 C   0  0  0  0  0  0  0  0  0  0  0  0
  139.9080   74.9410  219.8390 N   0  0  1  0  0  0  0  0  0  0  0  0
  139.4030   74.6570  221.1740 C   0  0  0  0  0  0  0  0  0  0  0  0
  140.1780   74.4200  222.0910 O   0  0  0  0  0  0  0  0  0  0  0  0
  137.9120   74.6280  221.4540 C   0  0  1  0  0  0  0  0  0  0  0  0
  137.6190   73.4770  222.3160 N   0  0  0  0  0  0  0  0  0  0  0  0
  137.4520   75.9620  222.1010 C   0  0  0  0  0  0  0  0  0  0  0  0
  138.5320   76.5870  223.0210 C   0  0  0  0  0  0  0  0  0  0  0  0
  138.4490   78.0350  222.7250 C   0  0  0  0  0  0  0  0  0  0  0  0
  139.1110   79.0670  223.3930 C   0  0  0  0  0  0  0  0  0  0  0  0
  138.9340   80.3850  222.9420 C   0  0  0  0  0  0  0  0  0  0  0  0
  138.1090   80.6480  221.8330 C   0  0  0  0  0  0  0  0  0  0  0  0
  137.4600   79.5950  221.1720 C   0  0  0  0  0  0  0  0  0  0  0  0
  137.6460   78.2920  221.6420 C   0  0  0  0  0  0  0  0  0  0  0  0
  137.0910   77.0490  221.0580 C   0  0  0  0  0  0  0  0  0  0  0  0
  139.1670   76.0580  219.1790 C   0  0  0  0  0  0  0  0  0  0  0  0
  140.0170   77.3190  218.9340 C   0  0  0  0  0  0  0  0  0  0  0  0
  143.0263   82.0058  218.6541 H   0  0  0  0  0  0  0  0  0  0  0  0
  143.3470   81.0787  217.1494 H   0  0  0  0  0  0  0  0  0  0  0  0
  142.1263   82.3965  217.1494 H   0  0  0  0  0  0  0  0  0  0  0  0
  140.7787   81.0766  218.8111 H   0  0  0  0  0  0  0  0  0  0  0  0
  141.0039   80.2464  217.2026 H   0  0  0  0  0  0  0  0  0  0  0  0
  143.6830   79.0570  217.4660 H   0  0  0  0  0  0  0  0  0  0  0  0
  141.1694   81.6059  220.2367 H   0  0  0  0  0  0  0  0  0  0  0  0
  141.6249   82.9968  222.2595 H   0  0  0  0  0  0  0  0  0  0  0  0
  142.5303   81.9361  224.3300 H   0  0  0  0  0  0  0  0  0  0  0  0
  142.9652   79.4774  224.3872 H   0  0  0  0  0  0  0  0  0  0  0  0
  142.5107   78.0799  222.3695 H   0  0  0  0  0  0  0  0  0  0  0  0
  140.2269   77.7535  221.0476 H   0  0  0  0  0  0  0  0  0  0  0  0
  142.8333   76.6986  220.1063 H   0  0  0  0  0  0  0  0  0  0  0  0
  141.8298   76.3231  221.5831 H   0  0  0  0  0  0  0  0  0  0  0  0
  141.7522   75.0718  218.8326 H   0  0  0  0  0  0  0  0  0  0  0  0
  141.7865   74.3130  220.4959 H   0  0  0  0  0  0  0  0  0  0  0  0
  139.7390   74.0910  219.2520 H   0  0  0  0  0  0  0  0  0  0  0  0
  137.3531   74.5199  220.5127 H   0  0  0  0  0  0  0  0  0  0  0  0
  138.5060   73.1120  222.7360 H   0  0  0  0  0  0  0  0  0  0  0  0
  137.0010   73.7820  223.1030 H   0  0  0  0  0  0  0  0  0  0  0  0
  136.5631   75.6748  222.6819 H   0  0  0  0  0  0  0  0  0  0  0  0
  138.3078   76.3894  224.0796 H   0  0  0  0  0  0  0  0  0  0  0  0
  139.5353   76.1722  222.8437 H   0  0  0  0  0  0  0  0  0  0  0  0
  139.7586   78.8518  224.2558 H   0  0  0  0  0  0  0  0  0  0  0  0
  139.4416   81.2139  223.4570 H   0  0  0  0  0  0  0  0  0  0  0  0
  137.9727   81.6821  221.4836 H   0  0  0  0  0  0  0  0  0  0  0  0
  136.8174   79.7907  220.3010 H   0  0  0  0  0  0  0  0  0  0  0  0
  136.0009   77.1266  220.9332 H   0  0  0  0  0  0  0  0  0  0  0  0
  137.4929   76.8309  220.0576 H   0  0  0  0  0  0  0  0  0  0  0  0
  138.7940   75.6990  218.2084 H   0  0  0  0  0  0  0  0  0  0  0  0
  138.3573   76.3497  219.8641 H   0  0  0  0  0  0  0  0  0  0  0  0
  140.6753   77.1489  218.0693 H   0  0  0  0  0  0  0  0  0  0  0  0
  139.3447   78.1675  218.7392 H   0  0  0  0  0  0  0  0  0  0  0  0
  1  2  1  0
  2  3  1  0
  3  4  1  0
  3  5  2  0
  5  6  1  0
  6  7  2  0
  7  8  1  0
  8  9  2  0
  9 10  1  0
 10 11  2  0
  5 12  1  0
 12 13  1  0
 13 14  1  0
 14 15  1  0
 15 16  1  0
 16 17  2  0
 16 18  1  0
 18 19  1  0
 18 20  1  0
 20 21  1  0
 21 22  1  0
 22 23  2  0
 23 24  1  0
 24 25  2  0
 25 26  1  0
 26 27  2  0
 27 28  1  0
 15 29  1  0
 29 30  1  0
 11  6  1  0
 30 12  1  0
 28 20  1  0
 27 22  1  0
  1 31  1  0
  1 32  1  0
  1 33  1  0
  2 34  1  0
  2 35  1  0
  4 36  1  0
  7 37  1  0
  8 38  1  0
  9 39  1  0
 10 40  1  0
 11 41  1  0
 12 42  1  6
 13 43  1  0
 13 44  1  0
 14 45  1  0
 14 46  1  0
 15 47  1  1
 18 48  1  6
 19 49  1  0
 19 50  1  0
 20 51  1  0
 21 52  1  0
 21 53  1  0
 23 54  1  0
 24 55  1  0
 25 56  1  0
 26 57  1  0
 28 58  1  0
 28 59  1  0
 29 60  1  0
 29 61  1  0
 30 62  1  0
 30 63  1  0
M  CHG  2   5   1  15   1
M  END
>  <meeko>  (12) 
{"free_energy": -6.53, "intermolecular_energy": -9.21, "internal_energy": -3.14, "cluster_size": 9, "cluster_id": 5, "rank_in_cluster": 5}

$$$$

     RDKit          3D

 63 66  0  0  0  0  0  0  0  0999 V2000
  142.5100   79.3280  218.0840 C   0  0  0  0  0  0  0  0  0  0  0  0
  141.5550   78.2730  218.6420 C   0  0  0  0  0  0  0  0  0  0  0  0
  142.1790   77.4210  219.7370 C   0  0  0  0  0  0  0  0  0  0  0  0
  143.4230   76.8380  219.4540 O   0  0  0  0  0  0  0  0  0  0  0  0
  141.5760   77.2590  220.9060 N   0  0  0  0  0  0  0  0  0  0  0  0
  141.6950   78.2970  221.9050 C   0  0  0  0  0  0  0  0  0  0  0  0
  141.4410   78.0120  223.2550 C   0  0  0  0  0  0  0  0  0  0  0  0
  141.5580   79.0180  224.2190 C   0  0  0  0  0  0  0  0  0  0  0  0
  141.9320   80.3110  223.8420 C   0  0  0  0  0  0  0  0  0  0  0  0
  142.1980   80.5980  222.4990 C   0  0  0  0  0  0  0  0  0  0  0  0
  142.0830   79.5940  221.5330 C   0  0  0  0  0  0  0  0  0  0  0  0
  140.8810   75.9920  221.2620 C   0  0  2  0  0  0  0  0  0  0  0  0
  141.3460   74.7580  220.4330 C   0  0  0  0  0  0  0  0  0  0  0  0
  140.2080   73.7550  220.1420 C   0  0  0  0  0  0  0  0  0  0  0  0
  139.2360   73.6210  221.2510 N   0  0  1  0  0  0  0  0  0  0  0  0
  139.8160   72.8670  222.3520 C   0  0  0  0  0  0  0  0  0  0  0  0
  140.9750   73.0650  222.6940 O   0  0  0  0  0  0  0  0  0  0  0  0
  139.0110   71.8110  223.0850 C   0  0  1  0  0  0  0  0  0  0  0  0
  138.1810   71.0930  222.1110 N   0  0  0  0  0  0  0  0  0  0  0  0
  139.9510   70.8480  223.8590 C   0  0  0  0  0  0  0  0  0  0  0  0
  140.5450   71.4890  225.1400 C   0  0  0  0  0  0  0  0  0  0  0  0
  140.4950   70.3950  226.1360 C   0  0  0  0  0  0  0  0  0  0  0  0
  141.0470   70.4020  227.4180 C   0  0  0  0  0  0  0  0  0  0  0  0
  140.8640   69.2760  228.2380 C   0  0  0  0  0  0  0  0  0  0  0  0
  140.1340   68.1700  227.7650 C   0  0  0  0  0  0  0  0  0  0  0  0
  139.5820   68.1870  226.4760 C   0  0  0  0  0  0  0  0  0  0  0  0
  139.7810   69.3160  225.6770 C   0  0  0  0  0  0  0  0  0  0  0  0
  139.2440   69.5470  224.3160 C   0  0  0  0  0  0  0  0  0  0  0  0
  138.6370   74.9130  221.7040 C   0  0  0  0  0  0  0  0  0  0  0  0
  139.3580   76.1640  221.1660 C   0  0  0  0  0  0  0  0  0  0  0  0
  142.9932   79.8618  218.9157 H   0  0  0  0  0  0  0  0  0  0  0  0
  143.2779   78.8380  217.4674 H   0  0  0  0  0  0  0  0  0  0  0  0
  141.9462   80.0435  217.4674 H   0  0  0  0  0  0  0  0  0  0  0  0
  140.6729   78.7835  219.0558 H   0  0  0  0  0  0  0  0  0  0  0  0
  141.2908   77.5994  217.8134 H   0  0  0  0  0  0  0  0  0  0  0  0
  144.3210   77.2090  219.7350 H   0  0  0  0  0  0  0  0  0  0  0  0
  141.1492   76.9950  223.5557 H   0  0  0  0  0  0  0  0  0  0  0  0
  141.3553   78.7915  225.2762 H   0  0  0  0  0  0  0  0  0  0  0  0
  142.0171   81.1025  224.6011 H   0  0  0  0  0  0  0  0  0  0  0  0
  142.4978   81.6141  222.2029 H   0  0  0  0  0  0  0  0  0  0  0  0
  142.2972   79.8209  220.4782 H   0  0  0  0  0  0  0  0  0  0  0  0
  141.1635   75.7783  222.3034 H   0  0  0  0  0  0  0  0  0  0  0  0
  141.7517   75.1138  219.4745 H   0  0  0  0  0  0  0  0  0  0  0  0
  142.1022   74.2289  221.0316 H   0  0  0  0  0  0  0  0  0  0  0  0
  139.6678   74.0930  219.2454 H   0  0  0  0  0  0  0  0  0  0  0  0
  140.6756   72.7691  220.0028 H   0  0  0  0  0  0  0  0  0  0  0  0
  138.4460   73.0530  220.8630 H   0  0  0  0  0  0  0  0  0  0  0  0
  138.3556   72.2859  223.8299 H   0  0  0  0  0  0  0  0  0  0  0  0
  138.7900   70.5320  221.4710 H   0  0  0  0  0  0  0  0  0  0  0  0
  137.5550   70.4240  222.6160 H   0  0  0  0  0  0  0  0  0  0  0  0
  140.7443   70.6211  223.1315 H   0  0  0  0  0  0  0  0  0  0  0  0
  141.5809   71.8175  224.9700 H   0  0  0  0  0  0  0  0  0  0  0  0
  139.9942   72.3847  225.4630 H   0  0  0  0  0  0  0  0  0  0  0  0
  141.6144   71.2724  227.7793 H   0  0  0  0  0  0  0  0  0  0  0  0
  141.2920   69.2590  229.2512 H   0  0  0  0  0  0  0  0  0  0  0  0
  139.9958   67.2888  228.4087 H   0  0  0  0  0  0  0  0  0  0  0  0
  139.0042   67.3292  226.1015 H   0  0  0  0  0  0  0  0  0  0  0  0
  139.4938   68.7093  223.6482 H   0  0  0  0  0  0  0  0  0  0  0  0
  138.1472   69.6287  224.2983 H   0  0  0  0  0  0  0  0  0  0  0  0
  137.5905   74.9456  221.3666 H   0  0  0  0  0  0  0  0  0  0  0  0
  138.7313   74.9393  222.7996 H   0  0  0  0  0  0  0  0  0  0  0  0
  139.0771   76.3189  220.1138 H   0  0  0  0  0  0  0  0  0  0  0  0
  139.0600   77.0332  221.7708 H   0  0  0  0  0  0  0  0  0  0  0  0
  1  2  1  0
  2  3  1  0
  3  4  1  0
  3  5  2  0
  5  6  1  0
  6  7  2  0
  7  8  1  0
  8  9  2  0
  9 10  1  0
 10 11  2  0
  5 12  1  0
 12 13  1  0
 13 14  1  0
 14 15  1  0
 15 16  1  0
 16 17  2  0
 16 18  1  0
 18 19  1  0
 18 20  1  0
 20 21  1  0
 21 22  1  0
 22 23  2  0
 23 24  1  0
 24 25  2  0
 25 26  1  0
 26 27  2  0
 27 28  1  0
 15 29  1  0
 29 30  1  0
 11  6  1  0
 30 12  1  0
 28 20  1  0
 27 22  1  0
  1 31  1  0
  1 32  1  0
  1 33  1  0
  2 34  1  0
  2 35  1  0
  4 36  1  0
  7 37  1  0
  8 38  1  0
  9 39  1  0
 10 40  1  0
 11 41  1  0
 12 42  1  6
 13 43  1  0
 13 44  1  0
 14 45  1  0
 14 46  1  0
 15 47  1  1
 18 48  1  1
 19 49  1  0
 19 50  1  0
 20 51  1  0
 21 52  1  0
 21 53  1  0
 23 54  1  0
 24 55  1  0
 25 56  1  0
 26 57  1  0
 28 58  1  0
 28 59  1  0
 29 60  1  0
 29 61  1  0
 30 62  1  0
 30 63  1  0
M  CHG  2   5   1  15   1
M  END
>  <meeko>  (13) 
{"free_energy": -8.53, "intermolecular_energy": -11.22, "internal_energy": -1.46, "cluster_size": 6, "cluster_id": 1, "rank_in_cluster": 2}

$$$$

     RDKit          3D

 63 66  0  0  0  0  0  0  0  0999 V2000
  142.2010   80.0640  218.7830 C   0  0  0  0  0  0  0  0  0  0  0  0
  141.5720   78.6840  218.5870 C   0  0  0  0  0  0  0  0  0  0  0  0
  142.0800   77.6500  219.5790 C   0  0  0  0  0  0  0  0  0  0  0  0
  143.3390   77.0870  219.3200 O   0  0  0  0  0  0  0  0  0  0  0  0
  141.3670   77.3150  220.6460 N   0  0  0  0  0  0  0  0  0  0  0  0
  141.2210   78.2710  221.7190 C   0  0  0  0  0  0  0  0  0  0  0  0
  140.0220   78.3430  222.4450 C   0  0  0  0  0  0  0  0  0  0  0  0
  139.8850   79.2690  223.4840 C   0  0  0  0  0  0  0  0  0  0  0  0
  140.9420   80.1240  223.8050 C   0  0  0  0  0  0  0  0  0  0  0  0
  142.1440   80.0490  223.0930 C   0  0  0  0  0  0  0  0  0  0  0  0
  142.2850   79.1240  222.0550 C   0  0  0  0  0  0  0  0  0  0  0  0
  140.8130   75.9440  220.8200 C   0  0  2  0  0  0  0  0  0  0  0  0
  141.8730   74.8770  221.2250 C   0  0  0  0  0  0  0  0  0  0  0  0
  141.5960   73.4830  220.6210 C   0  0  0  0  0  0  0  0  0  0  0  0
  140.1560   73.1490  220.5320 N   0  0  1  0  0  0  0  0  0  0  0  0
  139.6180   72.8460  221.8500 C   0  0  0  0  0  0  0  0  0  0  0  0
  139.5590   73.7170  222.7090 O   0  0  0  0  0  0  0  0  0  0  0  0
  139.1420   71.4480  222.1970 C   0  0  1  0  0  0  0  0  0  0  0  0
  139.1420   70.6350  220.9750 N   0  0  0  0  0  0  0  0  0  0  0  0
  140.0360   70.8240  223.3020 C   0  0  0  0  0  0  0  0  0  0  0  0
  140.6560   71.8890  224.2440 C   0  0  0  0  0  0  0  0  0  0  0  0
  140.5560   71.2700  225.5850 C   0  0  0  0  0  0  0  0  0  0  0  0
  141.1050   71.7530  226.7750 C   0  0  0  0  0  0  0  0  0  0  0  0
  140.8710   71.0420  227.9630 C   0  0  0  0  0  0  0  0  0  0  0  0
  140.0930   69.8700  227.9440 C   0  0  0  0  0  0  0  0  0  0  0  0
  139.5450   69.4070  226.7380 C   0  0  0  0  0  0  0  0  0  0  0  0
  139.7950   70.1280  225.5670 C   0  0  0  0  0  0  0  0  0  0  0  0
  139.2710   69.8330  224.2150 C   0  0  0  0  0  0  0  0  0  0  0  0
  139.3330   74.1620  219.8050 C   0  0  0  0  0  0  0  0  0  0  0  0
  140.0550   75.5010  219.5610 C   0  0  0  0  0  0  0  0  0  0  0  0
  142.2967   80.2739  219.8585 H   0  0  0  0  0  0  0  0  0  0  0  0
  143.1966   80.0829  218.3157 H   0  0  0  0  0  0  0  0  0  0  0  0
  141.5621   80.8279  218.3157 H   0  0  0  0  0  0  0  0  0  0  0  0
  140.4822   78.7762  218.7048 H   0  0  0  0  0  0  0  0  0  0  0  0
  141.8499   78.3371  217.5808 H   0  0  0  0  0  0  0  0  0  0  0  0
  144.2270   77.4900  219.5890 H   0  0  0  0  0  0  0  0  0  0  0  0
  139.1884   77.6697  222.1963 H   0  0  0  0  0  0  0  0  0  0  0  0
  138.9431   79.3242  224.0495 H   0  0  0  0  0  0  0  0  0  0  0  0
  140.8292   80.8565  224.6178 H   0  0  0  0  0  0  0  0  0  0  0  0
  142.9782   80.7182  223.3503 H   0  0  0  0  0  0  0  0  0  0  0  0
  143.2324   79.0638  221.4993 H   0  0  0  0  0  0  0  0  0  0  0  0
  140.1141   76.0101  221.6669 H   0  0  0  0  0  0  0  0  0  0  0  0
  142.8606   75.2172  220.8802 H   0  0  0  0  0  0  0  0  0  0  0  0
  141.8300   74.7731  222.3192 H   0  0  0  0  0  0  0  0  0  0  0  0
  142.0230   73.4523  219.6077 H   0  0  0  0  0  0  0  0  0  0  0  0
  142.0568   72.7439  221.2928 H   0  0  0  0  0  0  0  0  0  0  0  0
  140.1070   72.2710  219.9640 H   0  0  0  0  0  0  0  0  0  0  0  0
  138.1188   71.4875  222.5989 H   0  0  0  0  0  0  0  0  0  0  0  0
  139.4420   69.6580  221.1990 H   0  0  0  0  0  0  0  0  0  0  0  0
  138.1700   70.5860  220.5920 H   0  0  0  0  0  0  0  0  0  0  0  0
  140.8192   70.2991  222.7354 H   0  0  0  0  0  0  0  0  0  0  0  0
  141.7056   72.0840  223.9790 H   0  0  0  0  0  0  0  0  0  0  0  0
  140.1454   72.8615  224.1836 H   0  0  0  0  0  0  0  0  0  0  0  0
  141.7089   72.6724  226.7814 H   0  0  0  0  0  0  0  0  0  0  0  0
  141.2971   71.4023  228.9110 H   0  0  0  0  0  0  0  0  0  0  0  0
  139.9138   69.3152  228.8768 H   0  0  0  0  0  0  0  0  0  0  0  0
  138.9308   68.4947  226.7147 H   0  0  0  0  0  0  0  0  0  0  0  0
  139.4841   68.7922  223.9299 H   0  0  0  0  0  0  0  0  0  0  0  0
  138.1789   69.9455  224.1465 H   0  0  0  0  0  0  0  0  0  0  0  0
  139.0483   73.7403  218.8297 H   0  0  0  0  0  0  0  0  0  0  0  0
  138.4641   74.3817  220.4428 H   0  0  0  0  0  0  0  0  0  0  0  0
  140.7689   75.3810  218.7328 H   0  0  0  0  0  0  0  0  0  0  0  0
  139.3062   76.2668  219.3103 H   0  0  0  0  0  0  0  0  0  0  0  0
  1  2  1  0
  2  3  1  0
  3  4  1  0
  3  5  2  0
  5  6  1  0
  6  7  2  0
  7  8  1  0
  8  9  2  0
  9 10  1  0
 10 11  2  0
  5 12  1  0
 12 13  1  0
 13 14  1  0
 14 15  1  0
 15 16  1  0
 16 17  2  0
 16 18  1  0
 18 19  1  0
 18 20  1  0
 20 21  1  0
 21 22  1  0
 22 23  2  0
 23 24  1  0
 24 25  2  0
 25 26  1  0
 26 27  2  0
 27 28  1  0
 15 29  1  0
 29 30  1  0
 11  6  1  0
 30 12  1  0
 28 20  1  0
 27 22  1  0
  1 31  1  0
  1 32  1  0
  1 33  1  0
  2 34  1  0
  2 35  1  0
  4 36  1  0
  7 37  1  0
  8 38  1  0
  9 39  1  0
 10 40  1  0
 11 41  1  0
 12 42  1  6
 13 43  1  0
 13 44  1  0
 14 45  1  0
 14 46  1  0
 15 47  1  1
 18 48  1  1
 19 49  1  0
 19 50  1  0
 20 51  1  0
 21 52  1  0
 21 53  1  0
 23 54  1  0
 24 55  1  0
 25 56  1  0
 26 57  1  0
 28 58  1  0
 28 59  1  0
 29 60  1  0
 29 61  1  0
 30 62  1  0
 30 63  1  0
M  CHG  2   5   1  15   1
M  END
>  <meeko>  (14) 
{"free_energy": -7.9, "intermolecular_energy": -10.58, "internal_energy": -1.76, "cluster_size": 6, "cluster_id": 1, "rank_in_cluster": 6}

$$$$

     RDKit          3D

 63 66  0  0  0  0  0  0  0  0999 V2000
  143.1230   81.9610  217.1340 C   0  0  0  0  0  0  0  0  0  0  0  0
  142.0490   80.9100  216.8540 C   0  0  0  0  0  0  0  0  0  0  0  0
  142.1050   79.7280  217.8090 C   0  0  0  0  0  0  0  0  0  0  0  0
  143.1490   78.8100  217.6200 O   0  0  0  0  0  0  0  0  0  0  0  0
  141.2160   79.5900  218.7830 N   0  0  0  0  0  0  0  0  0  0  0  0
  140.6860   80.7740  219.4190 C   0  0  0  0  0  0  0  0  0  0  0  0
  139.3010   80.9310  219.5800 C   0  0  0  0  0  0  0  0  0  0  0  0
  138.7910   82.0780  220.1980 C   0  0  0  0  0  0  0  0  0  0  0  0
  139.6600   83.0700  220.6600 C   0  0  0  0  0  0  0  0  0  0  0  0
  141.0420   82.9140  220.5130 C   0  0  0  0  0  0  0  0  0  0  0  0
  141.5550   81.7690  219.8970 C   0  0  0  0  0  0  0  0  0  0  0  0
  140.8370   78.2530  219.3160 C   0  0  2  0  0  0  0  0  0  0  0  0
  142.0370   77.4260  219.8680 C   0  0  0  0  0  0  0  0  0  0  0  0
  141.8900   75.9070  219.6290 C   0  0  0  0  0  0  0  0  0  0  0  0
  140.4960   75.4190  219.7410 N   0  0  1  0  0  0  0  0  0  0  0  0
  140.0750   75.3890  221.1340 C   0  0  0  0  0  0  0  0  0  0  0  0
  140.5970   74.6090  221.9200 O   0  0  0  0  0  0  0  0  0  0  0  0
  138.9730   76.3020  221.6360 C   0  0  1  0  0  0  0  0  0  0  0  0
  137.8660   75.4760  222.1280 N   0  0  0  0  0  0  0  0  0  0  0  0
  139.5130   77.2540  222.7380 C   0  0  0  0  0  0  0  0  0  0  0  0
  141.0610   77.3420  222.7500 C   0  0  0  0  0  0  0  0  0  0  0  0
  141.3290   78.7770  222.9930 C   0  0  0  0  0  0  0  0  0  0  0  0
  142.5700   79.3680  223.2390 C   0  0  0  0  0  0  0  0  0  0  0  0
  142.6310   80.7610  223.4110 C   0  0  0  0  0  0  0  0  0  0  0  0
  141.4590   81.5350  223.3290 C   0  0  0  0  0  0  0  0  0  0  0  0
  140.2240   80.9210  223.0720 C   0  0  0  0  0  0  0  0  0  0  0  0
  140.1870   79.5330  222.9100 C   0  0  0  0  0  0  0  0  0  0  0  0
  139.0000   78.7090  222.5870 C   0  0  0  0  0  0  0  0  0  0  0  0
  139.5200   76.1410  218.8700 C   0  0  0  0  0  0  0  0  0  0  0  0
  140.0650   77.4470  218.2620 C   0  0  0  0  0  0  0  0  0  0  0  0
  143.2449   82.0802  218.2207 H   0  0  0  0  0  0  0  0  0  0  0  0
  144.0767   81.6376  216.6914 H   0  0  0  0  0  0  0  0  0  0  0  0
  142.8204   82.9215  216.6914 H   0  0  0  0  0  0  0  0  0  0  0  0
  141.0616   81.3863  216.9445 H   0  0  0  0  0  0  0  0  0  0  0  0
  142.2284   80.5208  215.8409 H   0  0  0  0  0  0  0  0  0  0  0  0
  144.0220   79.0050  217.1470 H   0  0  0  0  0  0  0  0  0  0  0  0
  138.6147   80.1506  219.2196 H   0  0  0  0  0  0  0  0  0  0  0  0
  137.7045   82.1990  220.3203 H   0  0  0  0  0  0  0  0  0  0  0  0
  139.2568   83.9741  221.1396 H   0  0  0  0  0  0  0  0  0  0  0  0
  141.7256   83.6927  220.8823 H   0  0  0  0  0  0  0  0  0  0  0  0
  142.6425   81.6466  219.7861 H   0  0  0  0  0  0  0  0  0  0  0  0
  140.1846   78.4499  220.1794 H   0  0  0  0  0  0  0  0  0  0  0  0
  142.9566   77.7706  219.3723 H   0  0  0  0  0  0  0  0  0  0  0  0
  142.0701   77.5841  220.9561 H   0  0  0  0  0  0  0  0  0  0  0  0
  142.2583   75.6772  218.6183 H   0  0  0  0  0  0  0  0  0  0  0  0
  142.4720   75.4003  220.4129 H   0  0  0  0  0  0  0  0  0  0  0  0
  140.5180   74.4300  219.3980 H   0  0  0  0  0  0  0  0  0  0  0  0
  138.6062   76.9366  220.8158 H   0  0  0  0  0  0  0  0  0  0  0  0
  137.3530   75.0520  221.3200 H   0  0  0  0  0  0  0  0  0  0  0  0
  138.2490   74.6910  222.7040 H   0  0  0  0  0  0  0  0  0  0  0  0
  139.1396   76.8074  223.6713 H   0  0  0  0  0  0  0  0  0  0  0  0
  141.4829   76.7224  223.5550 H   0  0  0  0  0  0  0  0  0  0  0  0
  141.5160   76.9752  221.8181 H   0  0  0  0  0  0  0  0  0  0  0  0
  143.4816   78.7551  223.2970 H   0  0  0  0  0  0  0  0  0  0  0  0
  143.5972   81.2476  223.6102 H   0  0  0  0  0  0  0  0  0  0  0  0
  141.5111   82.6251  223.4668 H   0  0  0  0  0  0  0  0  0  0  0  0
  139.3039   81.5194  222.9995 H   0  0  0  0  0  0  0  0  0  0  0  0
  138.1788   78.9107  223.2906 H   0  0  0  0  0  0  0  0  0  0  0  0
  138.5952   78.9173  221.5856 H   0  0  0  0  0  0  0  0  0  0  0  0
  139.2306   75.4713  218.0468 H   0  0  0  0  0  0  0  0  0  0  0  0
  138.6700   76.4199  219.5101 H   0  0  0  0  0  0  0  0  0  0  0  0
  140.7394   77.2035  217.4278 H   0  0  0  0  0  0  0  0  0  0  0  0
  139.2187   78.0513  217.9034 H   0  0  0  0  0  0  0  0  0  0  0  0
  1  2  1  0
  2  3  1  0
  3  4  1  0
  3  5  2  0
  5  6  1  0
  6  7  2  0
  7  8  1  0
  8  9  2  0
  9 10  1  0
 10 11  2  0
  5 12  1  0
 12 13  1  0
 13 14  1  0
 14 15  1  0
 15 16  1  0
 16 17  2  0
 16 18  1  0
 18 19  1  0
 18 20  1  0
 20 21  1  0
 21 22  1  0
 22 23  2  0
 23 24  1  0
 24 25  2  0
 25 26  1  0
 26 27  2  0
 27 28  1  0
 15 29  1  0
 29 30  1  0
 11  6  1  0
 30 12  1  0
 28 20  1  0
 27 22  1  0
  1 31  1  0
  1 32  1  0
  1 33  1  0
  2 34  1  0
  2 35  1  0
  4 36  1  0
  7 37  1  0
  8 38  1  0
  9 39  1  0
 10 40  1  0
 11 41  1  0
 12 42  1  6
 13 43  1  0
 13 44  1  0
 14 45  1  0
 14 46  1  0
 15 47  1  1
 18 48  1  6
 19 49  1  0
 19 50  1  0
 20 51  1  0
 21 52  1  0
 21 53  1  0
 23 54  1  0
 24 55  1  0
 25 56  1  0
 26 57  1  0
 28 58  1  0
 28 59  1  0
 29 60  1  0
 29 61  1  0
 30 62  1  0
 30 63  1  0
M  CHG  2   5   1  15   1
M  END
>  <meeko>  (15) 
{"free_energy": -6.78, "intermolecular_energy": -9.47, "internal_energy": -2.79, "cluster_size": 3, "cluster_id": 4, "rank_in_cluster": 2}

$$$$

     RDKit          3D

 63 66  0  0  0  0  0  0  0  0999 V2000
  139.7210   80.8510  218.4390 C   0  0  0  0  0  0  0  0  0  0  0  0
  141.2360   80.7890  218.2490 C   0  0  0  0  0  0  0  0  0  0  0  0
  141.8720   79.5730  218.9050 C   0  0  0  0  0  0  0  0  0  0  0  0
  142.9340   78.9660  218.2180 O   0  0  0  0  0  0  0  0  0  0  0  0
  141.4460   79.1260  220.0780 N   0  0  0  0  0  0  0  0  0  0  0  0
  141.7410   79.8900  221.2670 C   0  0  0  0  0  0  0  0  0  0  0  0
  142.2940   79.2630  222.3940 C   0  0  0  0  0  0  0  0  0  0  0  0
  142.5790   80.0060  223.5430 C   0  0  0  0  0  0  0  0  0  0  0  0
  142.3180   81.3780  223.5730 C   0  0  0  0  0  0  0  0  0  0  0  0
  141.7770   82.0130  222.4500 C   0  0  0  0  0  0  0  0  0  0  0  0
  141.4920   81.2730  221.2990 C   0  0  0  0  0  0  0  0  0  0  0  0
  140.7770   77.8030  220.2180 C   0  0  2  0  0  0  0  0  0  0  0  0
  141.7570   76.6210  220.4810 C   0  0  0  0  0  0  0  0  0  0  0  0
  141.3050   75.2980  219.8230 C   0  0  0  0  0  0  0  0  0  0  0  0
  139.8370   75.1030  219.8260 N   0  0  1  0  0  0  0  0  0  0  0  0
  139.3680   74.7690  221.1630 C   0  0  0  0  0  0  0  0  0  0  0  0
  140.1690   74.5060  222.0510 O   0  0  0  0  0  0  0  0  0  0  0  0
  137.8860   74.7170  221.4800 C   0  0  1  0  0  0  0  0  0  0  0  0
  137.6250   73.5400  222.3150 N   0  0  0  0  0  0  0  0  0  0  0  0
  137.4310   76.0280  222.1770 C   0  0  0  0  0  0  0  0  0  0  0  0
  138.5460   76.6620  223.0490 C   0  0  0  0  0  0  0  0  0  0  0  0
  138.4130   78.1130  222.7860 C   0  0  0  0  0  0  0  0  0  0  0  0
  139.0860   79.1480  223.4370 C   0  0  0  0  0  0  0  0  0  0  0  0
  138.8540   80.4700  223.0220 C   0  0  0  0  0  0  0  0  0  0  0  0
  137.9620   80.7320  221.9660 C   0  0  0  0  0  0  0  0  0  0  0  0
  137.3020   79.6760  221.3210 C   0  0  0  0  0  0  0  0  0  0  0  0
  137.5450   78.3700  221.7550 C   0  0  0  0  0  0  0  0  0  0  0  0
  136.9880   77.1250  221.1770 C   0  0  0  0  0  0  0  0  0  0  0  0
  139.0650   76.2300  219.2220 C   0  0  0  0  0  0  0  0  0  0  0  0
  139.8930   77.5110  218.9980 C   0  0  0  0  0  0  0  0  0  0  0  0
  139.4863   80.8606  219.5136 H   0  0  0  0  0  0  0  0  0  0  0  0
  139.3298   81.7659  217.9701 H   0  0  0  0  0  0  0  0  0  0  0  0
  139.2563   79.9711  217.9701 H   0  0  0  0  0  0  0  0  0  0  0  0
  141.4523   80.7581  217.1709 H   0  0  0  0  0  0  0  0  0  0  0  0
  141.6630   81.6813  218.7302 H   0  0  0  0  0  0  0  0  0  0  0  0
  143.4650   79.3900  217.4680 H   0  0  0  0  0  0  0  0  0  0  0  0
  142.5039   78.1834  222.3731 H   0  0  0  0  0  0  0  0  0  0  0  0
  143.0095   79.5096  224.4251 H   0  0  0  0  0  0  0  0  0  0  0  0
  142.5380   81.9595  224.4804 H   0  0  0  0  0  0  0  0  0  0  0  0
  141.5760   83.0942  222.4728 H   0  0  0  0  0  0  0  0  0  0  0  0
  141.0714   81.7747  220.4151 H   0  0  0  0  0  0  0  0  0  0  0  0
  140.1492   77.8787  221.1181 H   0  0  0  0  0  0  0  0  0  0  0  0
  142.7455   76.8907  220.0808 H   0  0  0  0  0  0  0  0  0  0  0  0
  141.7831   76.4535  221.5679 H   0  0  0  0  0  0  0  0  0  0  0  0
  141.6540   75.2919  218.7799 H   0  0  0  0  0  0  0  0  0  0  0  0
  141.7393   74.4793  220.4156 H   0  0  0  0  0  0  0  0  0  0  0  0
  139.6650   74.2700  219.2160 H   0  0  0  0  0  0  0  0  0  0  0  0
  137.3043   74.6298  220.5504 H   0  0  0  0  0  0  0  0  0  0  0  0
  138.5190   73.1980  222.7380 H   0  0  0  0  0  0  0  0  0  0  0  0
  136.9870   73.8060  223.1000 H   0  0  0  0  0  0  0  0  0  0  0  0
  136.5820   75.7090  222.7994 H   0  0  0  0  0  0  0  0  0  0  0  0
  138.3852   76.4398  224.1143 H   0  0  0  0  0  0  0  0  0  0  0  0
  139.5473   76.2748  222.8093 H   0  0  0  0  0  0  0  0  0  0  0  0
  139.7845   78.9328  224.2591 H   0  0  0  0  0  0  0  0  0  0  0  0
  139.3706   81.3016  223.5235 H   0  0  0  0  0  0  0  0  0  0  0  0
  137.7817   81.7686  221.6452 H   0  0  0  0  0  0  0  0  0  0  0  0
  136.6075   79.8716  220.4907 H   0  0  0  0  0  0  0  0  0  0  0  0
  135.8912   77.1782  221.1132 H   0  0  0  0  0  0  0  0  0  0  0  0
  137.3394   76.9356  220.1520 H   0  0  0  0  0  0  0  0  0  0  0  0
  138.6725   75.8979  218.2496 H   0  0  0  0  0  0  0  0  0  0  0  0
  138.2687   76.4876  219.9358 H   0  0  0  0  0  0  0  0  0  0  0  0
  140.5317   77.3784  218.1123 H   0  0  0  0  0  0  0  0  0  0  0  0
  139.2051   78.3562  218.8480 H   0  0  0  0  0  0  0  0  0  0  0  0
  1  2  1  0
  2  3  1  0
  3  4  1  0
  3  5  2  0
  5  6  1  0
  6  7  2  0
  7  8  1  0
  8  9  2  0
  9 10  1  0
 10 11  2  0
  5 12  1  0
 12 13  1  0
 13 14  1  0
 14 15  1  0
 15 16  1  0
 16 17  2  0
 16 18  1  0
 18 19  1  0
 18 20  1  0
 20 21  1  0
 21 22  1  0
 22 23  2  0
 23 24  1  0
 24 25  2  0
 25 26  1  0
 26 27  2  0
 27 28  1  0
 15 29  1  0
 29 30  1  0
 11  6  1  0
 30 12  1  0
 28 20  1  0
 27 22  1  0
  1 31  1  0
  1 32  1  0
  1 33  1  0
  2 34  1  0
  2 35  1  0
  4 36  1  0
  7 37  1  0
  8 38  1  0
  9 39  1  0
 10 40  1  0
 11 41  1  0
 12 42  1  6
 13 43  1  0
 13 44  1  0
 14 45  1  0
 14 46  1  0
 15 47  1  1
 18 48  1  6
 19 49  1  0
 19 50  1  0
 20 51  1  0
 21 52  1  0
 21 53  1  0
 23 54  1  0
 24 55  1  0
 25 56  1  0
 26 57  1  0
 28 58  1  0
 28 59  1  0
 29 60  1  0
 29 61  1  0
 30 62  1  0
 30 63  1  0
M  CHG  2   5   1  15   1
M  END
>  <meeko>  (16) 
{"free_energy": -6.26, "intermolecular_energy": -8.94, "internal_energy": -3.31, "cluster_size": 9, "cluster_id": 5, "rank_in_cluster": 8}

$$$$

     RDKit          3D

 63 66  0  0  0  0  0  0  0  0999 V2000
  142.3850   81.5000  217.3340 C   0  0  0  0  0  0  0  0  0  0  0  0
  141.3940   80.8100  218.2710 C   0  0  0  0  0  0  0  0  0  0  0  0
  141.9520   79.5450  218.9050 C   0  0  0  0  0  0  0  0  0  0  0  0
  142.9700   78.8820  218.2050 O   0  0  0  0  0  0  0  0  0  0  0  0
  141.5040   79.1100  220.0740 N   0  0  0  0  0  0  0  0  0  0  0  0
  141.7860   79.8790  221.2640 C   0  0  0  0  0  0  0  0  0  0  0  0
  142.3280   79.2560  222.3980 C   0  0  0  0  0  0  0  0  0  0  0  0
  142.6010   80.0050  223.5480 C   0  0  0  0  0  0  0  0  0  0  0  0
  142.3380   81.3770  223.5690 C   0  0  0  0  0  0  0  0  0  0  0  0
  141.8090   82.0060  222.4380 C   0  0  0  0  0  0  0  0  0  0  0  0
  141.5360   81.2610  221.2870 C   0  0  0  0  0  0  0  0  0  0  0  0
  140.8210   77.7930  220.2120 C   0  0  2  0  0  0  0  0  0  0  0  0
  141.7890   76.6010  220.4750 C   0  0  0  0  0  0  0  0  0  0  0  0
  141.3250   75.2840  219.8150 C   0  0  0  0  0  0  0  0  0  0  0  0
  139.8560   75.1030  219.8160 N   0  0  1  0  0  0  0  0  0  0  0  0
  139.3810   74.7720  221.1510 C   0  0  0  0  0  0  0  0  0  0  0  0
  140.1770   74.5070  222.0420 O   0  0  0  0  0  0  0  0  0  0  0  0
  137.8970   74.7280  221.4640 C   0  0  1  0  0  0  0  0  0  0  0  0
  137.6280   73.5510  222.2970 N   0  0  0  0  0  0  0  0  0  0  0  0
  137.4460   76.0400  222.1600 C   0  0  0  0  0  0  0  0  0  0  0  0
  138.5600   76.6690  223.0360 C   0  0  0  0  0  0  0  0  0  0  0  0
  138.4350   78.1200  222.7730 C   0  0  0  0  0  0  0  0  0  0  0  0
  139.1110   79.1520  223.4270 C   0  0  0  0  0  0  0  0  0  0  0  0
  138.8870   80.4750  223.0120 C   0  0  0  0  0  0  0  0  0  0  0  0
  138.0000   80.7420  221.9530 C   0  0  0  0  0  0  0  0  0  0  0  0
  137.3370   79.6890  221.3050 C   0  0  0  0  0  0  0  0  0  0  0  0
  137.5720   78.3810  221.7390 C   0  0  0  0  0  0  0  0  0  0  0  0
  137.0120   77.1400  221.1590 C   0  0  0  0  0  0  0  0  0  0  0  0
  139.0960   76.2390  219.2110 C   0  0  0  0  0  0  0  0  0  0  0  0
  139.9370   77.5110  218.9900 C   0  0  0  0  0  0  0  0  0  0  0  0
  143.1445   82.0288  217.9286 H   0  0  0  0  0  0  0  0  0  0  0  0
  142.8751   80.7468  216.6995 H   0  0  0  0  0  0  0  0  0  0  0  0
  141.8486   82.2210  216.6995 H   0  0  0  0  0  0  0  0  0  0  0  0
  141.1230   81.5128  219.0726 H   0  0  0  0  0  0  0  0  0  0  0  0
  140.5224   80.5167  217.6674 H   0  0  0  0  0  0  0  0  0  0  0  0
  143.5260   79.2830  217.4600 H   0  0  0  0  0  0  0  0  0  0  0  0
  142.5388   78.1765  222.3832 H   0  0  0  0  0  0  0  0  0  0  0  0
  143.0232   79.5130  224.4366 H   0  0  0  0  0  0  0  0  0  0  0  0
  142.5473   81.9628  224.4762 H   0  0  0  0  0  0  0  0  0  0  0  0
  141.6076   83.0873  222.4538 H   0  0  0  0  0  0  0  0  0  0  0  0
  141.1241   81.7586  220.3966 H   0  0  0  0  0  0  0  0  0  0  0  0
  140.1924   77.8741  221.1110 H   0  0  0  0  0  0  0  0  0  0  0  0
  142.7807   76.8614  220.0766 H   0  0  0  0  0  0  0  0  0  0  0  0
  141.8120   76.4319  221.5617 H   0  0  0  0  0  0  0  0  0  0  0  0
  141.6751   75.2760  218.7722 H   0  0  0  0  0  0  0  0  0  0  0  0
  141.7506   74.4605  220.4071 H   0  0  0  0  0  0  0  0  0  0  0  0
  139.6760   74.2730  219.2040 H   0  0  0  0  0  0  0  0  0  0  0  0
  137.3174   74.6454  220.5327 H   0  0  0  0  0  0  0  0  0  0  0  0
  138.5200   73.2010  222.7180 H   0  0  0  0  0  0  0  0  0  0  0  0
  136.9940   73.8210  223.0840 H   0  0  0  0  0  0  0  0  0  0  0  0
  136.5936   75.7238  222.7792 H   0  0  0  0  0  0  0  0  0  0  0  0
  138.3940   76.4475  224.1006 H   0  0  0  0  0  0  0  0  0  0  0  0
  139.5604   76.2774  222.7999 H   0  0  0  0  0  0  0  0  0  0  0  0
  139.8056   78.9331  224.2514 H   0  0  0  0  0  0  0  0  0  0  0  0
  139.4059   81.3038  223.5158 H   0  0  0  0  0  0  0  0  0  0  0  0
  137.8258   81.7796  221.6321 H   0  0  0  0  0  0  0  0  0  0  0  0
  136.6464   79.8885  220.4724 H   0  0  0  0  0  0  0  0  0  0  0  0
  135.9156   77.1984  221.0911 H   0  0  0  0  0  0  0  0  0  0  0  0
  137.3666   76.9495  220.1353 H   0  0  0  0  0  0  0  0  0  0  0  0
  138.7022   75.9117  218.2375 H   0  0  0  0  0  0  0  0  0  0  0  0
  138.3008   76.5040  219.9233 H   0  0  0  0  0  0  0  0  0  0  0  0
  140.5763   77.3726  218.1056 H   0  0  0  0  0  0  0  0  0  0  0  0
  139.2581   78.3632  218.8392 H   0  0  0  0  0  0  0  0  0  0  0  0
  1  2  1  0
  2  3  1  0
  3  4  1  0
  3  5  2  0
  5  6  1  0
  6  7  2  0
  7  8  1  0
  8  9  2  0
  9 10  1  0
 10 11  2  0
  5 12  1  0
 12 13  1  0
 13 14  1  0
 14 15  1  0
 15 16  1  0
 16 17  2  0
 16 18  1  0
 18 19  1  0
 18 20  1  0
 20 21  1  0
 21 22  1  0
 22 23  2  0
 23 24  1  0
 24 25  2  0
 25 26  1  0
 26 27  2  0
 27 28  1  0
 15 29  1  0
 29 30  1  0
 11  6  1  0
 30 12  1  0
 28 20  1  0
 27 22  1  0
  1 31  1  0
  1 32  1  0
  1 33  1  0
  2 34  1  0
  2 35  1  0
  4 36  1  0
  7 37  1  0
  8 38  1  0
  9 39  1  0
 10 40  1  0
 11 41  1  0
 12 42  1  6
 13 43  1  0
 13 44  1  0
 14 45  1  0
 14 46  1  0
 15 47  1  1
 18 48  1  6
 19 49  1  0
 19 50  1  0
 20 51  1  0
 21 52  1  0
 21 53  1  0
 23 54  1  0
 24 55  1  0
 25 56  1  0
 26 57  1  0
 28 58  1  0
 28 59  1  0
 29 60  1  0
 29 61  1  0
 30 62  1  0
 30 63  1  0
M  CHG  2   5   1  15   1
M  END
>  <meeko>  (17) 
{"free_energy": -6.49, "intermolecular_energy": -9.17, "internal_energy": -3.1, "cluster_size": 9, "cluster_id": 5, "rank_in_cluster": 7}

$$$$

     RDKit          3D

 63 66  0  0  0  0  0  0  0  0999 V2000
  142.5050   79.6560  218.0480 C   0  0  0  0  0  0  0  0  0  0  0  0
  141.4990   78.6740  218.6490 C   0  0  0  0  0  0  0  0  0  0  0  0
  142.1110   77.7540  219.6930 C   0  0  0  0  0  0  0  0  0  0  0  0
  143.3150   77.1210  219.3510 O   0  0  0  0  0  0  0  0  0  0  0  0
  141.5360   77.5780  220.8740 N   0  0  0  0  0  0  0  0  0  0  0  0
  141.6800   78.6030  221.8830 C   0  0  0  0  0  0  0  0  0  0  0  0
  141.8570   79.9440  221.5100 C   0  0  0  0  0  0  0  0  0  0  0  0
  141.9960   80.9330  222.4880 C   0  0  0  0  0  0  0  0  0  0  0  0
  141.9550   80.5900  223.8420 C   0  0  0  0  0  0  0  0  0  0  0  0
  141.7680   79.2560  224.2210 C   0  0  0  0  0  0  0  0  0  0  0  0
  141.6280   78.2650  223.2450 C   0  0  0  0  0  0  0  0  0  0  0  0
  140.8460   76.3080  221.2300 C   0  0  2  0  0  0  0  0  0  0  0  0
  140.7510   75.2860  220.0580 C   0  0  0  0  0  0  0  0  0  0  0  0
  139.4490   74.4570  220.0760 C   0  0  0  0  0  0  0  0  0  0  0  0
  138.9790   74.1180  221.4390 N   0  0  1  0  0  0  0  0  0  0  0  0
  139.8180   73.0840  222.0270 C   0  0  0  0  0  0  0  0  0  0  0  0
  140.9700   73.3360  222.3560 O   0  0  0  0  0  0  0  0  0  0  0  0
  139.2960   71.6740  222.2260 C   0  0  1  0  0  0  0  0  0  0  0  0
  140.2540   70.7310  221.6400 N   0  0  0  0  0  0  0  0  0  0  0  0
  139.0560   71.3870  223.7330 C   0  0  0  0  0  0  0  0  0  0  0  0
  138.5600   69.9420  223.9970 C   0  0  0  0  0  0  0  0  0  0  0  0
  139.2940   69.5380  225.2170 C   0  0  0  0  0  0  0  0  0  0  0  0
  139.1030   68.3730  225.9640 C   0  0  0  0  0  0  0  0  0  0  0  0
  139.9270   68.1440  227.0790 C   0  0  0  0  0  0  0  0  0  0  0  0
  140.9240   69.0750  227.4240 C   0  0  0  0  0  0  0  0  0  0  0  0
  141.1030   70.2340  226.6550 C   0  0  0  0  0  0  0  0  0  0  0  0
  140.2690   70.4440  225.5530 C   0  0  0  0  0  0  0  0  0  0  0  0
  140.3290   71.5720  224.5960 C   0  0  0  0  0  0  0  0  0  0  0  0
  138.8140   75.2950  222.3440 C   0  0  0  0  0  0  0  0  0  0  0  0
  139.4540   76.5920  221.8120 C   0  0  0  0  0  0  0  0  0  0  0  0
  143.0380   80.1763  218.8575 H   0  0  0  0  0  0  0  0  0  0  0  0
  143.2278   79.1064  217.4271 H   0  0  0  0  0  0  0  0  0  0  0  0
  141.9730   80.3918  217.4271 H   0  0  0  0  0  0  0  0  0  0  0  0
  140.6887   79.2488  219.1214 H   0  0  0  0  0  0  0  0  0  0  0  0
  141.1316   78.0394  217.8290 H   0  0  0  0  0  0  0  0  0  0  0  0
  144.2410   77.4690  219.5650 H   0  0  0  0  0  0  0  0  0  0  0  0
  141.8865   80.2178  220.4450 H   0  0  0  0  0  0  0  0  0  0  0  0
  142.1379   81.9827  222.1914 H   0  0  0  0  0  0  0  0  0  0  0  0
  142.0698   81.3689  224.6102 H   0  0  0  0  0  0  0  0  0  0  0  0
  141.7312   78.9871  225.2870 H   0  0  0  0  0  0  0  0  0  0  0  0
  141.4767   77.2175  223.5447 H   0  0  0  0  0  0  0  0  0  0  0  0
  141.4758   75.8305  221.9951 H   0  0  0  0  0  0  0  0  0  0  0  0
  140.8003   75.8384  219.1080 H   0  0  0  0  0  0  0  0  0  0  0  0
  141.5880   74.5813  220.1711 H   0  0  0  0  0  0  0  0  0  0  0  0
  138.6616   75.0357  219.5708 H   0  0  0  0  0  0  0  0  0  0  0  0
  139.6649   73.5074  219.5645 H   0  0  0  0  0  0  0  0  0  0  0  0
  138.0220   73.7110  221.3110 H   0  0  0  0  0  0  0  0  0  0  0  0
  138.3263   71.5569  221.7201 H   0  0  0  0  0  0  0  0  0  0  0  0
  141.1980   71.1800  221.5710 H   0  0  0  0  0  0  0  0  0  0  0  0
  140.3480   69.8980  222.2660 H   0  0  0  0  0  0  0  0  0  0  0  0
  138.2880   72.1214  224.0175 H   0  0  0  0  0  0  0  0  0  0  0  0
  137.4736   69.9252  224.1689 H   0  0  0  0  0  0  0  0  0  0  0  0
  138.7401   69.2670  223.1473 H   0  0  0  0  0  0  0  0  0  0  0  0
  138.3230   67.6493  225.6849 H   0  0  0  0  0  0  0  0  0  0  0  0
  139.7923   67.2349  227.6834 H   0  0  0  0  0  0  0  0  0  0  0  0
  141.5648   68.8932  228.2994 H   0  0  0  0  0  0  0  0  0  0  0  0
  141.8844   70.9636  226.9139 H   0  0  0  0  0  0  0  0  0  0  0  0
  140.3083   72.5366  225.1243 H   0  0  0  0  0  0  0  0  0  0  0  0
  141.2528   71.5767  223.9988 H   0  0  0  0  0  0  0  0  0  0  0  0
  137.7379   75.4736  222.4857 H   0  0  0  0  0  0  0  0  0  0  0  0
  139.3309   75.0481  223.2831 H   0  0  0  0  0  0  0  0  0  0  0  0
  138.8125   77.0153  221.0250 H   0  0  0  0  0  0  0  0  0  0  0  0
  139.5559   77.3045  222.6439 H   0  0  0  0  0  0  0  0  0  0  0  0
  1  2  1  0
  2  3  1  0
  3  4  1  0
  3  5  2  0
  5  6  1  0
  6  7  2  0
  7  8  1  0
  8  9  2  0
  9 10  1  0
 10 11  2  0
  5 12  1  0
 12 13  1  0
 13 14  1  0
 14 15  1  0
 15 16  1  0
 16 17  2  0
 16 18  1  0
 18 19  1  0
 18 20  1  0
 20 21  1  0
 21 22  1  0
 22 23  2  0
 23 24  1  0
 24 25  2  0
 25 26  1  0
 26 27  2  0
 27 28  1  0
 15 29  1  0
 29 30  1  0
 11  6  1  0
 30 12  1  0
 28 20  1  0
 27 22  1  0
  1 31  1  0
  1 32  1  0
  1 33  1  0
  2 34  1  0
  2 35  1  0
  4 36  1  0
  7 37  1  0
  8 38  1  0
  9 39  1  0
 10 40  1  0
 11 41  1  0
 12 42  1  6
 13 43  1  0
 13 44  1  0
 14 45  1  0
 14 46  1  0
 15 47  1  1
 18 48  1  6
 19 49  1  0
 19 50  1  0
 20 51  1  0
 21 52  1  0
 21 53  1  0
 23 54  1  0
 24 55  1  0
 25 56  1  0
 26 57  1  0
 28 58  1  0
 28 59  1  0
 29 60  1  0
 29 61  1  0
 30 62  1  0
 30 63  1  0
M  CHG  2   5   1  15   1
M  END
>  <meeko>  (18) 
{"free_energy": -8.33, "intermolecular_energy": -11.01, "internal_energy": -1.4, "cluster_size": 6, "cluster_id": 1, "rank_in_cluster": 5}

$$$$

     RDKit          3D

 63 66  0  0  0  0  0  0  0  0999 V2000
  139.5020   71.9330  219.9400 C   0  0  0  0  0  0  0  0  0  0  0  0
  139.5480   73.4600  219.9360 C   0  0  0  0  0  0  0  0  0  0  0  0
  140.4370   74.0350  221.0280 C   0  0  0  0  0  0  0  0  0  0  0  0
  140.0600   73.7740  222.3540 O   0  0  0  0  0  0  0  0  0  0  0  0
  141.5250   74.7320  220.7310 N   0  0  0  0  0  0  0  0  0  0  0  0
  142.7960   74.0490  220.6590 C   0  0  0  0  0  0  0  0  0  0  0  0
  142.8580   72.6530  220.7830 C   0  0  0  0  0  0  0  0  0  0  0  0
  144.0900   71.9950  220.7120 C   0  0  0  0  0  0  0  0  0  0  0  0
  145.2640   72.7260  220.5120 C   0  0  0  0  0  0  0  0  0  0  0  0
  145.2080   74.1170  220.3750 C   0  0  0  0  0  0  0  0  0  0  0  0
  143.9780   74.7780  220.4450 C   0  0  0  0  0  0  0  0  0  0  0  0
  141.4920   76.2130  220.5860 C   0  0  2  0  0  0  0  0  0  0  0  0
  140.4670   76.9200  221.5230 C   0  0  0  0  0  0  0  0  0  0  0  0
  139.8160   78.1660  220.8820 C   0  0  0  0  0  0  0  0  0  0  0  0
  140.7350   78.9390  220.0160 N   0  0  1  0  0  0  0  0  0  0  0  0
  141.6980   79.6760  220.8210 C   0  0  0  0  0  0  0  0  0  0  0  0
  142.4340   80.5040  220.2990 O   0  0  0  0  0  0  0  0  0  0  0  0
  141.8280   79.4220  222.3100 C   0  0  1  0  0  0  0  0  0  0  0  0
  143.2410   79.5450  222.6860 N   0  0  0  0  0  0  0  0  0  0  0  0
  140.9330   80.4040  223.1120 C   0  0  0  0  0  0  0  0  0  0  0  0
  140.2670   81.4790  222.2140 C   0  0  0  0  0  0  0  0  0  0  0  0
  138.8960   81.5930  222.7610 C   0  0  0  0  0  0  0  0  0  0  0  0
  137.9260   82.5300  222.4030 C   0  0  0  0  0  0  0  0  0  0  0  0
  136.6610   82.4580  223.0110 C   0  0  0  0  0  0  0  0  0  0  0  0
  136.3880   81.4520  223.9560 C   0  0  0  0  0  0  0  0  0  0  0  0
  137.3760   80.5150  224.2940 C   0  0  0  0  0  0  0  0  0  0  0  0
  138.6280   80.6100  223.6810 C   0  0  0  0  0  0  0  0  0  0  0  0
  139.7790   79.6970  223.8660 C   0  0  0  0  0  0  0  0  0  0  0  0
  141.3930   78.1330  218.9430 C   0  0  0  0  0  0  0  0  0  0  0  0
  141.2490   76.6100  219.1230 C   0  0  0  0  0  0  0  0  0  0  0  0
  139.4910   71.5692  220.9780 H   0  0  0  0  0  0  0  0  0  0  0  0
  138.5932   71.5922  219.4224 H   0  0  0  0  0  0  0  0  0  0  0  0
  140.3887   71.5381  219.4224 H   0  0  0  0  0  0  0  0  0  0  0  0
  139.9304   73.7958  218.9608 H   0  0  0  0  0  0  0  0  0  0  0  0
  138.5253   73.8186  220.1242 H   0  0  0  0  0  0  0  0  0  0  0  0
  139.1230   73.8630  222.7250 H   0  0  0  0  0  0  0  0  0  0  0  0
  141.9351   72.0744  220.9365 H   0  0  0  0  0  0  0  0  0  0  0  0
  144.1349   70.9006  220.8137 H   0  0  0  0  0  0  0  0  0  0  0  0
  146.2328   72.2073  220.4622 H   0  0  0  0  0  0  0  0  0  0  0  0
  146.1321   74.6910  220.2121 H   0  0  0  0  0  0  0  0  0  0  0  0
  143.9355   75.8714  220.3323 H   0  0  0  0  0  0  0  0  0  0  0  0
  142.4841   76.5663  220.9037 H   0  0  0  0  0  0  0  0  0  0  0  0
  139.6730   76.2025  221.7775 H   0  0  0  0  0  0  0  0  0  0  0  0
  141.0173   77.2596  222.4128 H   0  0  0  0  0  0  0  0  0  0  0  0
  138.9605   77.8368  220.2739 H   0  0  0  0  0  0  0  0  0  0  0  0
  139.5150   78.8306  221.7052 H   0  0  0  0  0  0  0  0  0  0  0  0
  140.1320   79.6410  219.5260 H   0  0  0  0  0  0  0  0  0  0  0  0
  141.4825   78.4057  222.5504 H   0  0  0  0  0  0  0  0  0  0  0  0
  143.6950   78.6010  222.6770 H   0  0  0  0  0  0  0  0  0  0  0  0
  143.7360   80.1390  221.9820 H   0  0  0  0  0  0  0  0  0  0  0  0
  141.6318   80.8671  223.8242 H   0  0  0  0  0  0  0  0  0  0  0  0
  140.8003   82.4381  222.2892 H   0  0  0  0  0  0  0  0  0  0  0  0
  140.2794   81.2106  221.1473 H   0  0  0  0  0  0  0  0  0  0  0  0
  138.1471   83.3098  221.6594 H   0  0  0  0  0  0  0  0  0  0  0  0
  135.8829   83.1895  222.7476 H   0  0  0  0  0  0  0  0  0  0  0  0
  135.3972   81.4000  224.4311 H   0  0  0  0  0  0  0  0  0  0  0  0
  137.1691   79.7214  225.0270 H   0  0  0  0  0  0  0  0  0  0  0  0
  140.0204   79.5812  224.9329 H   0  0  0  0  0  0  0  0  0  0  0  0
  139.5829   78.6820  223.4902 H   0  0  0  0  0  0  0  0  0  0  0  0
  140.9442   78.4108  217.9779 H   0  0  0  0  0  0  0  0  0  0  0  0
  142.4687   78.3580  218.9917 H   0  0  0  0  0  0  0  0  0  0  0  0
  140.2333   76.3058  218.8299 H   0  0  0  0  0  0  0  0  0  0  0  0
  141.9947   76.1062  218.4905 H   0  0  0  0  0  0  0  0  0  0  0  0
  1  2  1  0
  2  3  1  0
  3  4  1  0
  3  5  2  0
  5  6  1  0
  6  7  2  0
  7  8  1  0
  8  9  2  0
  9 10  1  0
 10 11  2  0
  5 12  1  0
 12 13  1  0
 13 14  1  0
 14 15  1  0
 15 16  1  0
 16 17  2  0
 16 18  1  0
 18 19  1  0
 18 20  1  0
 20 21  1  0
 21 22  1  0
 22 23  2  0
 23 24  1  0
 24 25  2  0
 25 26  1  0
 26 27  2  0
 27 28  1  0
 15 29  1  0
 29 30  1  0
 11  6  1  0
 30 12  1  0
 28 20  1  0
 27 22  1  0
  1 31  1  0
  1 32  1  0
  1 33  1  0
  2 34  1  0
  2 35  1  0
  4 36  1  0
  7 37  1  0
  8 38  1  0
  9 39  1  0
 10 40  1  0
 11 41  1  0
 12 42  1  6
 13 43  1  0
 13 44  1  0
 14 45  1  0
 14 46  1  0
 15 47  1  1
 18 48  1  6
 19 49  1  0
 19 50  1  0
 20 51  1  0
 21 52  1  0
 21 53  1  0
 23 54  1  0
 24 55  1  0
 25 56  1  0
 26 57  1  0
 28 58  1  0
 28 59  1  0
 29 60  1  0
 29 61  1  0
 30 62  1  0
 30 63  1  0
M  CHG  2   5   1  15   1
M  END
>  <meeko>  (19) 
{"free_energy": -7.28, "intermolecular_energy": -9.97, "internal_energy": -1.69, "cluster_size": 1, "cluster_id": 3, "rank_in_cluster": 1}

$$$$

     RDKit          3D

 63 66  0  0  0  0  0  0  0  0999 V2000
  145.8980   73.1230  220.4210 C   0  0  0  0  0  0  0  0  0  0  0  0
  145.0610   74.3980  220.5230 C   0  0  0  0  0  0  0  0  0  0  0  0
  144.0840   74.5660  219.3710 C   0  0  0  0  0  0  0  0  0  0  0  0
  144.5220   74.1540  218.1030 O   0  0  0  0  0  0  0  0  0  0  0  0
  142.8700   75.0610  219.5680 N   0  0  0  0  0  0  0  0  0  0  0  0
  142.6340   76.4610  219.3000 C   0  0  0  0  0  0  0  0  0  0  0  0
  142.0270   77.2750  220.2690 C   0  0  0  0  0  0  0  0  0  0  0  0
  141.8010   78.6300  220.0060 C   0  0  0  0  0  0  0  0  0  0  0  0
  142.1810   79.1790  218.7790 C   0  0  0  0  0  0  0  0  0  0  0  0
  142.7970   78.3760  217.8140 C   0  0  0  0  0  0  0  0  0  0  0  0
  143.0260   77.0220  218.0730 C   0  0  0  0  0  0  0  0  0  0  0  0
  141.7770   74.2470  220.1670 C   0  0  2  0  0  0  0  0  0  0  0  0
  142.2190   72.8210  220.6120 C   0  0  0  0  0  0  0  0  0  0  0  0
  141.1160   71.7560  220.4230 C   0  0  0  0  0  0  0  0  0  0  0  0
  139.7500   72.2610  220.6870 N   0  0  1  0  0  0  0  0  0  0  0  0
  139.5370   72.4390  222.1160 C   0  0  0  0  0  0  0  0  0  0  0  0
  139.9110   73.4630  222.6730 O   0  0  0  0  0  0  0  0  0  0  0  0
  138.8710   71.3590  222.9460 C   0  0  1  0  0  0  0  0  0  0  0  0
  138.1710   70.4370  222.0450 N   0  0  0  0  0  0  0  0  0  0  0  0
  139.9180   70.6200  223.8230 C   0  0  0  0  0  0  0  0  0  0  0  0
  140.4450   71.4910  224.9920 C   0  0  0  0  0  0  0  0  0  0  0  0
  140.5250   70.5440  226.1270 C   0  0  0  0  0  0  0  0  0  0  0  0
  141.0810   70.7880  227.3850 C   0  0  0  0  0  0  0  0  0  0  0  0
  141.0320   69.7700  228.3520 C   0  0  0  0  0  0  0  0  0  0  0  0
  140.4280   68.5360  228.0490 C   0  0  0  0  0  0  0  0  0  0  0  0
  139.8690   68.3160  226.7810 C   0  0  0  0  0  0  0  0  0  0  0  0
  139.9340   69.3410  225.8330 C   0  0  0  0  0  0  0  0  0  0  0  0
  139.3650   69.3230  224.4660 C   0  0  0  0  0  0  0  0  0  0  0  0
  139.3820   73.4790  219.9040 C   0  0  0  0  0  0  0  0  0  0  0  0
  140.5760   74.1680  219.2150 C   0  0  0  0  0  0  0  0  0  0  0  0
  146.1367   72.7593  221.4313 H   0  0  0  0  0  0  0  0  0  0  0  0
  145.3290   72.3532  219.8792 H   0  0  0  0  0  0  0  0  0  0  0  0
  146.8306   73.3390  219.8792 H   0  0  0  0  0  0  0  0  0  0  0  0
  144.4910   74.3679  221.4633 H   0  0  0  0  0  0  0  0  0  0  0  0
  145.7566   75.2495  220.4888 H   0  0  0  0  0  0  0  0  0  0  0  0
  145.2070   74.6370  217.5350 H   0  0  0  0  0  0  0  0  0  0  0  0
  141.7284   76.8465  221.2371 H   0  0  0  0  0  0  0  0  0  0  0  0
  141.3231   79.2646  220.7669 H   0  0  0  0  0  0  0  0  0  0  0  0
  141.9956   80.2433  218.5718 H   0  0  0  0  0  0  0  0  0  0  0  0
  143.1015   78.8104  216.8504 H   0  0  0  0  0  0  0  0  0  0  0  0
  143.5147   76.3935  217.3139 H   0  0  0  0  0  0  0  0  0  0  0  0
  141.4830   74.7718  221.0879 H   0  0  0  0  0  0  0  0  0  0  0  0
  143.0961   72.5253  220.0177 H   0  0  0  0  0  0  0  0  0  0  0  0
  142.4461   72.8695  221.6872 H   0  0  0  0  0  0  0  0  0  0  0  0
  141.1577   71.3932  219.3854 H   0  0  0  0  0  0  0  0  0  0  0  0
  141.3108   70.9581  221.1547 H   0  0  0  0  0  0  0  0  0  0  0  0
  139.1040   71.5010  220.3660 H   0  0  0  0  0  0  0  0  0  0  0  0
  138.1392   71.8099  223.6324 H   0  0  0  0  0  0  0  0  0  0  0  0
  138.3770   69.4480  222.3170 H   0  0  0  0  0  0  0  0  0  0  0  0
  137.1380   70.5800  222.1380 H   0  0  0  0  0  0  0  0  0  0  0  0
  140.7269   70.3849  223.1156 H   0  0  0  0  0  0  0  0  0  0  0  0
  141.4363   71.9055  224.7564 H   0  0  0  0  0  0  0  0  0  0  0  0
  139.7996   72.3563  225.2035 H   0  0  0  0  0  0  0  0  0  0  0  0
  141.5477   71.7574  227.6139 H   0  0  0  0  0  0  0  0  0  0  0  0
  141.4669   69.9381  229.3483 H   0  0  0  0  0  0  0  0  0  0  0  0
  140.3939   67.7411  228.8086 H   0  0  0  0  0  0  0  0  0  0  0  0
  139.3894   67.3564  226.5380 H   0  0  0  0  0  0  0  0  0  0  0  0
  139.7030   68.4350  223.9117 H   0  0  0  0  0  0  0  0  0  0  0  0
  138.2659   69.2791  224.4615 H   0  0  0  0  0  0  0  0  0  0  0  0
  138.6580   73.1861  219.1294 H   0  0  0  0  0  0  0  0  0  0  0  0
  138.9675   74.2036  220.6203 H   0  0  0  0  0  0  0  0  0  0  0  0
  140.8598   73.5918  218.3220 H   0  0  0  0  0  0  0  0  0  0  0  0
  140.2808   75.1889  218.9311 H   0  0  0  0  0  0  0  0  0  0  0  0
  1  2  1  0
  2  3  1  0
  3  4  1  0
  3  5  2  0
  5  6  1  0
  6  7  2  0
  7  8  1  0
  8  9  2  0
  9 10  1  0
 10 11  2  0
  5 12  1  0
 12 13  1  0
 13 14  1  0
 14 15  1  0
 15 16  1  0
 16 17  2  0
 16 18  1  0
 18 19  1  0
 18 20  1  0
 20 21  1  0
 21 22  1  0
 22 23  2  0
 23 24  1  0
 24 25  2  0
 25 26  1  0
 26 27  2  0
 27 28  1  0
 15 29  1  0
 29 30  1  0
 11  6  1  0
 30 12  1  0
 28 20  1  0
 27 22  1  0
  1 31  1  0
  1 32  1  0
  1 33  1  0
  2 34  1  0
  2 35  1  0
  4 36  1  0
  7 37  1  0
  8 38  1  0
  9 39  1  0
 10 40  1  0
 11 41  1  0
 12 42  1  6
 13 43  1  0
 13 44  1  0
 14 45  1  0
 14 46  1  0
 15 47  1  1
 18 48  1  1
 19 49  1  0
 19 50  1  0
 20 51  1  0
 21 52  1  0
 21 53  1  0
 23 54  1  0
 24 55  1  0
 25 56  1  0
 26 57  1  0
 28 58  1  0
 28 59  1  0
 29 60  1  0
 29 61  1  0
 30 62  1  0
 30 63  1  0
M  CHG  2   5   1  15   1
M  END
>  <meeko>  (20) 
{"free_energy": -7.69, "intermolecular_energy": -10.38, "internal_energy": -1.8, "cluster_size": 1, "cluster_id": 2, "rank_in_cluster": 1}

$$$$
