
     RDKit          3D

 63 66  0  0  0  0  0  0  0  0999 V2000
  138.6670   76.0440  222.3350 C   0  0  0  0  0  0  0  0  0  0  0  0
  140.1320   75.8450  221.9570 C   0  0  0  0  0  0  0  0  0  0  0  0
  140.4030   74.4260  221.5590 C   0  0  0  0  0  0  0  0  0  0  0  0
  140.0900   73.4940  222.3470 O   0  0  0  0  0  0  0  0  0  0  0  0
  141.1200   74.1200  220.3510 N   0  0  0  0  0  0  0  0  0  0  0  0
  142.5390   73.9220  220.4610 C   0  0  0  0  0  0  0  0  0  0  0  0
  143.4150   75.0120  220.3410 C   0  0  0  0  0  0  0  0  0  0  0  0
  144.7940   74.8220  220.4630 C   0  0  0  0  0  0  0  0  0  0  0  0
  145.3070   73.5420  220.6970 C   0  0  0  0  0  0  0  0  0  0  0  0
  144.4400   72.4500  220.8050 C   0  0  0  0  0  0  0  0  0  0  0  0
  143.0600   72.6380  220.6840 C   0  0  0  0  0  0  0  0  0  0  0  0
  140.4620   73.8930  219.0430 C   0  0  0  0  0  0  0  0  0  0  0  0
  139.3540   74.8900  218.7240 C   0  0  0  0  0  0  0  0  0  0  0  0
  139.8550   76.2910  218.3700 C   0  0  0  0  0  0  0  0  0  0  0  0
  141.1540   76.3590  217.6570 N   0  0  0  0  0  0  0  0  0  0  0  0
  141.6460   77.5430  217.3070 C   0  0  0  0  0  0  0  0  0  0  0  0
  141.4810   78.0530  216.0090 O   0  0  0  0  0  0  0  0  0  0  0  0
  142.4640   78.4350  218.2450 C   0  0  1  0  0  0  0  0  0  0  0  0
  142.9500   79.6010  217.4930 N   0  0  0  0  0  0  0  0  0  0  0  0
  141.6020   78.8760  219.4610 C   0  0  0  0  0  0  0  0  0  0  0  0
  141.8820   80.3320  219.9180 C   0  0  0  0  0  0  0  0  0  0  0  0
  141.8470   80.2460  221.3970 C   0  0  0  0  0  0  0  0  0  0  0  0
  141.8620   81.3120  222.3000 C   0  0  0  0  0  0  0  0  0  0  0  0
  141.8390   81.0310  223.6750 C   0  0  0  0  0  0  0  0  0  0  0  0
  141.8100   79.6970  224.1230 C   0  0  0  0  0  0  0  0  0  0  0  0
  141.8030   78.6420  223.1990 C   0  0  0  0  0  0  0  0  0  0  0  0
  141.8200   78.9460  221.8350 C   0  0  0  0  0  0  0  0  0  0  0  0
  141.8290   77.9840  220.7090 C   0  0  0  0  0  0  0  0  0  0  0  0
  141.9490   75.1490  217.3320 C   0  0  0  0  0  0  0  0  0  0  0  0
  141.4370   73.8040  217.8750 C   0  0  0  0  0  0  0  0  0  0  0  0
  138.5696   76.0572  223.4306 H   0  0  0  0  0  0  0  0  0  0  0  0
  138.3086   76.9991  221.9234 H   0  0  0  0  0  0  0  0  0  0  0  0
  138.0668   75.2191  221.9234 H   0  0  0  0  0  0  0  0  0  0  0  0
  140.3777   76.5070  221.1136 H   0  0  0  0  0  0  0  0  0  0  0  0
  140.7526   76.0848  222.8330 H   0  0  0  0  0  0  0  0  0  0  0  0
  143.0148   76.0188  220.1504 H   0  0  0  0  0  0  0  0  0  0  0  0
  145.4768   75.6799  220.3749 H   0  0  0  0  0  0  0  0  0  0  0  0
  146.3925   73.3942  220.7961 H   0  0  0  0  0  0  0  0  0  0  0  0
  144.8440   71.4429  220.9852 H   0  0  0  0  0  0  0  0  0  0  0  0
  142.3803   71.7768  220.7638 H   0  0  0  0  0  0  0  0  0  0  0  0
  139.9917   72.9062  219.1654 H   0  0  0  0  0  0  0  0  0  0  0  0
  138.7775   74.5038  217.8705 H   0  0  0  0  0  0  0  0  0  0  0  0
  138.7478   74.9919  219.6362 H   0  0  0  0  0  0  0  0  0  0  0  0
  139.0962   76.7680  217.7322 H   0  0  0  0  0  0  0  0  0  0  0  0
  140.0194   76.7978  219.3324 H   0  0  0  0  0  0  0  0  0  0  0  0
  141.3640   77.5010  215.1710 H   0  0  0  0  0  0  0  0  0  0  0  0
  143.3260   77.8730  218.6336 H   0  0  0  0  0  0  0  0  0  0  0  0
  143.8770   79.9160  217.8570 H   0  0  0  0  0  0  0  0  0  0  0  0
  143.0730   79.3430  216.4860 H   0  0  0  0  0  0  0  0  0  0  0  0
  142.2670   80.3920  217.5580 H   0  0  0  0  0  0  0  0  0  0  0  0
  140.5706   78.7830  219.0900 H   0  0  0  0  0  0  0  0  0  0  0  0
  142.8681   80.6708  219.5676 H   0  0  0  0  0  0  0  0  0  0  0  0
  141.1563   81.0536  219.5146 H   0  0  0  0  0  0  0  0  0  0  0  0
  141.8913   82.3512  221.9404 H   0  0  0  0  0  0  0  0  0  0  0  0
  141.8437   81.8549  224.4038 H   0  0  0  0  0  0  0  0  0  0  0  0
  141.7928   79.4812  225.2015 H   0  0  0  0  0  0  0  0  0  0  0  0
  141.7845   77.5966  223.5409 H   0  0  0  0  0  0  0  0  0  0  0  0
  142.7951   77.4616  220.6472 H   0  0  0  0  0  0  0  0  0  0  0  0
  141.0675   77.1973  220.8146 H   0  0  0  0  0  0  0  0  0  0  0  0
  141.9944   75.0675  216.2360 H   0  0  0  0  0  0  0  0  0  0  0  0
  142.9179   75.3047  217.8290 H   0  0  0  0  0  0  0  0  0  0  0  0
  140.9319   73.2771  217.0520 H   0  0  0  0  0  0  0  0  0  0  0  0
  142.3228   73.2792  218.2621 H   0  0  0  0  0  0  0  0  0  0  0  0
  1  2  1  0
  2  3  1  0
  3  4  2  0
  3  5  1  0
  5  6  1  0
  6  7  2  0
  7  8  1  0
  8  9  2  0
  9 10  1  0
 10 11  2  0
  5 12  1  0
 12 13  1  0
 13 14  1  0
 14 15  1  0
 15 16  2  3
 16 17  1  0
 16 18  1  0
 18 19  1  0
 18 20  1  0
 20 21  1  0
 21 22  1  0
 22 23  2  0
 23 24  1  0
 24 25  2  0
 25 26  1  0
 26 27  2  0
 27 28  1  0
 15 29  1  0
 29 30  1  0
 11  6  1  0
 30 12  1  0
 28 20  1  0
 27 22  1  0
  1 31  1  0
  1 32  1  0
  1 33  1  0
  2 34  1  0
  2 35  1  0
  7 36  1  0
  8 37  1  0
  9 38  1  0
 10 39  1  0
 11 40  1  0
 12 41  1  0
 13 42  1  0
 13 43  1  0
 14 44  1  0
 14 45  1  0
 17 46  1  0
 18 47  1  1
 19 48  1  0
 19 49  1  0
 19 50  1  0
 20 51  1  0
 21 52  1  0
 21 53  1  0
 23 54  1  0
 24 55  1  0
 25 56  1  0
 26 57  1  0
 28 58  1  0
 28 59  1  0
 29 60  1  0
 29 61  1  0
 30 62  1  0
 30 63  1  0
M  CHG  2  15   1  19   1
M  END
>  <meeko>  (1) 
{"free_energy": -7.98, "intermolecular_energy": -10.67, "internal_energy": -2.66, "cluster_size": 13, "cluster_id": 1, "rank_in_cluster": 1}

$$$$

     RDKit          3D

 63 66  0  0  0  0  0  0  0  0999 V2000
  138.5510   75.7050  222.0140 C   0  0  0  0  0  0  0  0  0  0  0  0
  140.0330   75.7160  221.6500 C   0  0  0  0  0  0  0  0  0  0  0  0
  140.5400   74.3290  221.3930 C   0  0  0  0  0  0  0  0  0  0  0  0
  140.3680   73.4380  222.2660 O   0  0  0  0  0  0  0  0  0  0  0  0
  141.3210   74.0320  220.2230 N   0  0  0  0  0  0  0  0  0  0  0  0
  142.7360   73.8620  220.4030 C   0  0  0  0  0  0  0  0  0  0  0  0
  143.2660   72.5890  220.6680 C   0  0  0  0  0  0  0  0  0  0  0  0
  144.6430   72.4210  220.8290 C   0  0  0  0  0  0  0  0  0  0  0  0
  145.4990   73.5220  220.7340 C   0  0  0  0  0  0  0  0  0  0  0  0
  144.9770   74.7950  220.4820 C   0  0  0  0  0  0  0  0  0  0  0  0
  143.5990   74.9650  220.3210 C   0  0  0  0  0  0  0  0  0  0  0  0
  140.7320   73.7880  218.8850 C   0  0  0  0  0  0  0  0  0  0  0  0
  139.5290   74.6670  218.5660 C   0  0  0  0  0  0  0  0  0  0  0  0
  139.8790   76.1280  218.2830 C   0  0  0  0  0  0  0  0  0  0  0  0
  141.1830   76.3710  217.6180 N   0  0  0  0  0  0  0  0  0  0  0  0
  141.5480   77.6150  217.3300 C   0  0  0  0  0  0  0  0  0  0  0  0
  141.1770   78.2300  216.1230 O   0  0  0  0  0  0  0  0  0  0  0  0
  142.4300   78.4750  218.2410 C   0  0  1  0  0  0  0  0  0  0  0  0
  142.9450   79.6150  217.4700 N   0  0  0  0  0  0  0  0  0  0  0  0
  141.6210   78.9590  219.4770 C   0  0  0  0  0  0  0  0  0  0  0  0
  142.0490   80.3620  219.9820 C   0  0  0  0  0  0  0  0  0  0  0  0
  142.0100   80.2280  221.4570 C   0  0  0  0  0  0  0  0  0  0  0  0
  142.1370   81.2560  222.3960 C   0  0  0  0  0  0  0  0  0  0  0  0
  142.0900   80.9310  223.7600 C   0  0  0  0  0  0  0  0  0  0  0  0
  141.9290   79.5920  224.1630 C   0  0  0  0  0  0  0  0  0  0  0  0
  141.8120   78.5760  223.2030 C   0  0  0  0  0  0  0  0  0  0  0  0
  141.8540   78.9230  221.8500 C   0  0  0  0  0  0  0  0  0  0  0  0
  141.7620   78.0050  220.6920 C   0  0  0  0  0  0  0  0  0  0  0  0
  142.1190   75.2710  217.2760 C   0  0  0  0  0  0  0  0  0  0  0  0
  141.7460   73.8560  217.7490 C   0  0  0  0  0  0  0  0  0  0  0  0
  138.4423   75.7042  223.1086 H   0  0  0  0  0  0  0  0  0  0  0  0
  138.0646   76.5996  221.5979 H   0  0  0  0  0  0  0  0  0  0  0  0
  138.0779   74.8033  221.5979 H   0  0  0  0  0  0  0  0  0  0  0  0
  140.1751   76.3233  220.7439 H   0  0  0  0  0  0  0  0  0  0  0  0
  140.5953   76.1407  222.4947 H   0  0  0  0  0  0  0  0  0  0  0  0
  142.5946   71.7215  220.7490 H   0  0  0  0  0  0  0  0  0  0  0  0
  145.0545   71.4210  221.0308 H   0  0  0  0  0  0  0  0  0  0  0  0
  146.5837   73.3872  220.8575 H   0  0  0  0  0  0  0  0  0  0  0  0
  145.6505   75.6618  220.4106 H   0  0  0  0  0  0  0  0  0  0  0  0
  143.1895   75.9678  220.1292 H   0  0  0  0  0  0  0  0  0  0  0  0
  140.3717   72.7509  218.9534 H   0  0  0  0  0  0  0  0  0  0  0  0
  139.0257   74.2546  217.6791 H   0  0  0  0  0  0  0  0  0  0  0  0
  138.8879   74.6626  219.4598 H   0  0  0  0  0  0  0  0  0  0  0  0
  139.0906   76.5434  217.6382 H   0  0  0  0  0  0  0  0  0  0  0  0
  139.9567   76.6090  219.2692 H   0  0  0  0  0  0  0  0  0  0  0  0
  141.0410   77.7580  215.2410 H   0  0  0  0  0  0  0  0  0  0  0  0
  143.2770   77.8776  218.6093 H   0  0  0  0  0  0  0  0  0  0  0  0
  143.9130   79.8610  217.7740 H   0  0  0  0  0  0  0  0  0  0  0  0
  142.9840   79.3640  216.4540 H   0  0  0  0  0  0  0  0  0  0  0  0
  142.3250   80.4510  217.5870 H   0  0  0  0  0  0  0  0  0  0  0  0
  140.5842   78.9847  219.1104 H   0  0  0  0  0  0  0  0  0  0  0  0
  143.0633   80.6111  219.6369 H   0  0  0  0  0  0  0  0  0  0  0  0
  141.3993   81.1673  219.6086 H   0  0  0  0  0  0  0  0  0  0  0  0
  142.2711   82.2986  222.0719 H   0  0  0  0  0  0  0  0  0  0  0  0
  142.1792   81.7246  224.5164 H   0  0  0  0  0  0  0  0  0  0  0  0
  141.8948   79.3417  225.2336 H   0  0  0  0  0  0  0  0  0  0  0  0
  141.6896   77.5266  223.5092 H   0  0  0  0  0  0  0  0  0  0  0  0
  142.6704   77.3908  220.6052 H   0  0  0  0  0  0  0  0  0  0  0  0
  140.9259   77.2952  220.7760 H   0  0  0  0  0  0  0  0  0  0  0  0
  142.2071   75.2407  216.1800 H   0  0  0  0  0  0  0  0  0  0  0  0
  143.0480   75.5130  217.8130 H   0  0  0  0  0  0  0  0  0  0  0  0
  141.3287   73.3108  216.8896 H   0  0  0  0  0  0  0  0  0  0  0  0
  142.6731   73.4170  218.1461 H   0  0  0  0  0  0  0  0  0  0  0  0
  1  2  1  0
  2  3  1  0
  3  4  2  0
  3  5  1  0
  5  6  1  0
  6  7  2  0
  7  8  1  0
  8  9  2  0
  9 10  1  0
 10 11  2  0
  5 12  1  0
 12 13  1  0
 13 14  1  0
 14 15  1  0
 15 16  2  3
 16 17  1  0
 16 18  1  0
 18 19  1  0
 18 20  1  0
 20 21  1  0
 21 22  1  0
 22 23  2  0
 23 24  1  0
 24 25  2  0
 25 26  1  0
 26 27  2  0
 27 28  1  0
 15 29  1  0
 29 30  1  0
 11  6  1  0
 30 12  1  0
 28 20  1  0
 27 22  1  0
  1 31  1  0
  1 32  1  0
  1 33  1  0
  2 34  1  0
  2 35  1  0
  7 36  1  0
  8 37  1  0
  9 38  1  0
 10 39  1  0
 11 40  1  0
 12 41  1  0
 13 42  1  0
 13 43  1  0
 14 44  1  0
 14 45  1  0
 17 46  1  0
 18 47  1  1
 19 48  1  0
 19 49  1  0
 19 50  1  0
 20 51  1  0
 21 52  1  0
 21 53  1  0
 23 54  1  0
 24 55  1  0
 25 56  1  0
 26 57  1  0
 28 58  1  0
 28 59  1  0
 29 60  1  0
 29 61  1  0
 30 62  1  0
 30 63  1  0
M  CHG  2  15   1  19   1
M  END
>  <meeko>  (2) 
{"free_energy": -7.9, "intermolecular_energy": -10.59, "internal_energy": -2.58, "cluster_size": 13, "cluster_id": 1, "rank_in_cluster": 11}

$$$$

     RDKit          3D

 63 66  0  0  0  0  0  0  0  0999 V2000
  138.1980   76.6340  222.6740 C   0  0  0  0  0  0  0  0  0  0  0  0
  139.1440   77.6870  222.1030 C   0  0  0  0  0  0  0  0  0  0  0  0
  138.7900   79.0590  222.5920 C   0  0  0  0  0  0  0  0  0  0  0  0
  137.7410   79.2190  223.2710 O   0  0  0  0  0  0  0  0  0  0  0  0
  139.5620   80.2060  222.1990 N   0  0  0  0  0  0  0  0  0  0  0  0
  140.8970   80.3090  222.7180 C   0  0  0  0  0  0  0  0  0  0  0  0
  141.9050   79.4510  222.2510 C   0  0  0  0  0  0  0  0  0  0  0  0
  143.2070   79.5610  222.7450 C   0  0  0  0  0  0  0  0  0  0  0  0
  143.5100   80.5220  223.7150 C   0  0  0  0  0  0  0  0  0  0  0  0
  142.5080   81.3720  224.1940 C   0  0  0  0  0  0  0  0  0  0  0  0
  141.2040   81.2640  223.7000 C   0  0  0  0  0  0  0  0  0  0  0  0
  139.0940   81.2100  221.2140 C   0  0  0  0  0  0  0  0  0  0  0  0
  140.1330   82.2670  220.8650 C   0  0  0  0  0  0  0  0  0  0  0  0
  141.2780   81.7560  219.9880 C   0  0  0  0  0  0  0  0  0  0  0  0
  140.9290   80.6960  219.0110 N   0  0  0  0  0  0  0  0  0  0  0  0
  141.8700   80.2120  218.2080 C   0  0  0  0  0  0  0  0  0  0  0  0
  142.8190   81.0490  217.5980 O   0  0  0  0  0  0  0  0  0  0  0  0
  141.9900   78.7310  217.8340 C   0  0  1  0  0  0  0  0  0  0  0  0
  142.9710   78.5900  216.7490 N   0  0  0  0  0  0  0  0  0  0  0  0
  142.4060   77.8930  219.0750 C   0  0  0  0  0  0  0  0  0  0  0  0
  143.3720   76.7270  218.7340 C   0  0  0  0  0  0  0  0  0  0  0  0
  142.8900   75.6150  219.5870 C   0  0  0  0  0  0  0  0  0  0  0  0
  143.5210   74.3860  219.7980 C   0  0  0  0  0  0  0  0  0  0  0  0
  142.9010   73.4440  220.6330 C   0  0  0  0  0  0  0  0  0  0  0  0
  141.6620   73.7400  221.2340 C   0  0  0  0  0  0  0  0  0  0  0  0
  141.0430   74.9770  221.0010 C   0  0  0  0  0  0  0  0  0  0  0  0
  141.6830   75.9020  220.1720 C   0  0  0  0  0  0  0  0  0  0  0  0
  141.1930   77.2470  219.7940 C   0  0  0  0  0  0  0  0  0  0  0  0
  139.5610   80.1300  218.9050 C   0  0  0  0  0  0  0  0  0  0  0  0
  138.5230   80.5960  219.9400 C   0  0  0  0  0  0  0  0  0  0  0  0
  138.2300   76.6697  223.7730 H   0  0  0  0  0  0  0  0  0  0  0  0
  137.1730   76.8370  222.3303 H   0  0  0  0  0  0  0  0  0  0  0  0
  138.5092   75.6365  222.3303 H   0  0  0  0  0  0  0  0  0  0  0  0
  140.1726   77.4504  222.4128 H   0  0  0  0  0  0  0  0  0  0  0  0
  139.0556   77.6754  221.0066 H   0  0  0  0  0  0  0  0  0  0  0  0
  141.6688   78.6893  221.4934 H   0  0  0  0  0  0  0  0  0  0  0  0
  143.9950   78.8910  222.3706 H   0  0  0  0  0  0  0  0  0  0  0  0
  144.5363   80.6092  224.1011 H   0  0  0  0  0  0  0  0  0  0  0  0
  142.7455   82.1256  224.9593 H   0  0  0  0  0  0  0  0  0  0  0  0
  140.4162   81.9297  224.0823 H   0  0  0  0  0  0  0  0  0  0  0  0
  138.2727   81.7179  221.7408 H   0  0  0  0  0  0  0  0  0  0  0  0
  139.6272   83.0844  220.3302 H   0  0  0  0  0  0  0  0  0  0  0  0
  140.5833   82.5929  221.8142 H   0  0  0  0  0  0  0  0  0  0  0  0
  141.6787   82.6124  219.4258 H   0  0  0  0  0  0  0  0  0  0  0  0
  141.9970   81.2941  220.6806 H   0  0  0  0  0  0  0  0  0  0  0  0
  143.7480   80.7730  217.3130 H   0  0  0  0  0  0  0  0  0  0  0  0
  141.0161   78.3543  217.4882 H   0  0  0  0  0  0  0  0  0  0  0  0
  142.7520   77.7570  216.1580 H   0  0  0  0  0  0  0  0  0  0  0  0
  142.9380   79.4360  216.1340 H   0  0  0  0  0  0  0  0  0  0  0  0
  143.9390   78.4920  217.1370 H   0  0  0  0  0  0  0  0  0  0  0  0
  142.9056   78.6278  219.7234 H   0  0  0  0  0  0  0  0  0  0  0  0
  143.3066   76.4616  217.6685 H   0  0  0  0  0  0  0  0  0  0  0  0
  144.4272   76.9789  218.9157 H   0  0  0  0  0  0  0  0  0  0  0  0
  144.4853   74.1614  219.3187 H   0  0  0  0  0  0  0  0  0  0  0  0
  143.3833   72.4729  220.8185 H   0  0  0  0  0  0  0  0  0  0  0  0
  141.1785   72.9992  221.8878 H   0  0  0  0  0  0  0  0  0  0  0  0
  140.0728   75.2142  221.4619 H   0  0  0  0  0  0  0  0  0  0  0  0
  140.3294   77.1736  219.1167 H   0  0  0  0  0  0  0  0  0  0  0  0
  140.8489   77.8333  220.6587 H   0  0  0  0  0  0  0  0  0  0  0  0
  139.1729   80.3879  217.9086 H   0  0  0  0  0  0  0  0  0  0  0  0
  139.6852   79.0535  219.0943 H   0  0  0  0  0  0  0  0  0  0  0  0
  137.8804   81.3487  219.4599 H   0  0  0  0  0  0  0  0  0  0  0  0
  137.9855   79.6900  220.2567 H   0  0  0  0  0  0  0  0  0  0  0  0
  1  2  1  0
  2  3  1  0
  3  4  2  0
  3  5  1  0
  5  6  1  0
  6  7  2  0
  7  8  1  0
  8  9  2  0
  9 10  1  0
 10 11  2  0
  5 12  1  0
 12 13  1  0
 13 14  1  0
 14 15  1  0
 15 16  2  3
 16 17  1  0
 16 18  1  0
 18 19  1  0
 18 20  1  0
 20 21  1  0
 21 22  1  0
 22 23  2  0
 23 24  1  0
 24 25  2  0
 25 26  1  0
 26 27  2  0
 27 28  1  0
 15 29  1  0
 29 30  1  0
 11  6  1  0
 30 12  1  0
 28 20  1  0
 27 22  1  0
  1 31  1  0
  1 32  1  0
  1 33  1  0
  2 34  1  0
  2 35  1  0
  7 36  1  0
  8 37  1  0
  9 38  1  0
 10 39  1  0
 11 40  1  0
 12 41  1  0
 13 42  1  0
 13 43  1  0
 14 44  1  0
 14 45  1  0
 17 46  1  0
 18 47  1  6
 19 48  1  0
 19 49  1  0
 19 50  1  0
 20 51  1  0
 21 52  1  0
 21 53  1  0
 23 54  1  0
 24 55  1  0
 25 56  1  0
 26 57  1  0
 28 58  1  0
 28 59  1  0
 29 60  1  0
 29 61  1  0
 30 62  1  0
 30 63  1  0
M  CHG  2  15   1  19   1
M  END
>  <meeko>  (3) 
{"free_energy": -7.83, "intermolecular_energy": -10.51, "internal_energy": -2.56, "cluster_size": 6, "cluster_id": 2, "rank_in_cluster": 4}

$$$$

     RDKit          3D

 63 66  0  0  0  0  0  0  0  0999 V2000
  138.4480   77.2930  222.6830 C   0  0  0  0  0  0  0  0  0  0  0  0
  138.5050   78.8110  222.8250 C   0  0  0  0  0  0  0  0  0  0  0  0
  138.8900   79.4640  221.5320 C   0  0  0  0  0  0  0  0  0  0  0  0
  138.5520   78.9250  220.4450 O   0  0  0  0  0  0  0  0  0  0  0  0
  139.7360   80.6260  221.5140 N   0  0  0  0  0  0  0  0  0  0  0  0
  140.9300   80.5810  222.3120 C   0  0  0  0  0  0  0  0  0  0  0  0
  141.9260   79.6300  222.0400 C   0  0  0  0  0  0  0  0  0  0  0  0
  143.0940   79.5960  222.8070 C   0  0  0  0  0  0  0  0  0  0  0  0
  143.2710   80.5060  223.8540 C   0  0  0  0  0  0  0  0  0  0  0  0
  142.2770   81.4490  224.1380 C   0  0  0  0  0  0  0  0  0  0  0  0
  141.1090   81.4840  223.3720 C   0  0  0  0  0  0  0  0  0  0  0  0
  139.4990   81.7990  220.6410 C   0  0  0  0  0  0  0  0  0  0  0  0
  140.7540   82.6030  220.3250 C   0  0  0  0  0  0  0  0  0  0  0  0
  141.7100   81.9140  219.3510 C   0  0  0  0  0  0  0  0  0  0  0  0
  141.0820   81.0650  218.3090 N   0  0  0  0  0  0  0  0  0  0  0  0
  141.8500   80.4450  217.4200 C   0  0  0  0  0  0  0  0  0  0  0  0
  142.6270   81.1590  216.4940 O   0  0  0  0  0  0  0  0  0  0  0  0
  141.9330   78.9210  217.2840 C   0  0  1  0  0  0  0  0  0  0  0  0
  142.9510   78.5860  216.2780 N   0  0  0  0  0  0  0  0  0  0  0  0
  142.2710   78.2730  218.6560 C   0  0  0  0  0  0  0  0  0  0  0  0
  143.2720   77.0920  218.5490 C   0  0  0  0  0  0  0  0  0  0  0  0
  142.7450   76.1000  219.5150 C   0  0  0  0  0  0  0  0  0  0  0  0
  143.3740   74.9260  219.9390 C   0  0  0  0  0  0  0  0  0  0  0  0
  142.7080   74.0980  220.8550 C   0  0  0  0  0  0  0  0  0  0  0  0
  141.4260   74.4470  221.3220 C   0  0  0  0  0  0  0  0  0  0  0  0
  140.8100   75.6260  220.8760 C   0  0  0  0  0  0  0  0  0  0  0  0
  141.4960   76.4400  219.9700 C   0  0  0  0  0  0  0  0  0  0  0  0
  141.0170   77.7080  219.3740 C   0  0  0  0  0  0  0  0  0  0  0  0
  139.6140   80.8580  218.2290 C   0  0  0  0  0  0  0  0  0  0  0  0
  138.7550   81.4630  219.3530 C   0  0  0  0  0  0  0  0  0  0  0  0
  138.4307   76.8317  223.6815 H   0  0  0  0  0  0  0  0  0  0  0  0
  137.5386   77.0101  222.1326 H   0  0  0  0  0  0  0  0  0  0  0  0
  139.3336   76.9427  222.1326 H   0  0  0  0  0  0  0  0  0  0  0  0
  137.5152   79.1797  223.1320 H   0  0  0  0  0  0  0  0  0  0  0  0
  139.2645   79.0611  223.5804 H   0  0  0  0  0  0  0  0  0  0  0  0
  141.7869   78.9093  221.2207 H   0  0  0  0  0  0  0  0  0  0  0  0
  143.8746   78.8529  222.5869 H   0  0  0  0  0  0  0  0  0  0  0  0
  144.1922   80.4805  224.4547 H   0  0  0  0  0  0  0  0  0  0  0  0
  142.4150   82.1624  224.9639 H   0  0  0  0  0  0  0  0  0  0  0  0
  140.3263   82.2223  223.6005 H   0  0  0  0  0  0  0  0  0  0  0  0
  138.8446   82.4385  221.2517 H   0  0  0  0  0  0  0  0  0  0  0  0
  140.4470   83.5636  219.8858 H   0  0  0  0  0  0  0  0  0  0  0  0
  141.2998   82.7231  221.2725 H   0  0  0  0  0  0  0  0  0  0  0  0
  142.2916   82.6963  218.8413 H   0  0  0  0  0  0  0  0  0  0  0  0
  142.3137   81.2294  219.9649 H   0  0  0  0  0  0  0  0  0  0  0  0
  143.6140   81.0200  216.3240 H   0  0  0  0  0  0  0  0  0  0  0  0
  140.9605   78.5235  216.9579 H   0  0  0  0  0  0  0  0  0  0  0  0
  142.9520   79.2870  215.5040 H   0  0  0  0  0  0  0  0  0  0  0  0
  143.8990   78.5970  216.7210 H   0  0  0  0  0  0  0  0  0  0  0  0
  142.7760   77.6330  215.8800 H   0  0  0  0  0  0  0  0  0  0  0  0
  142.7159   79.1010  219.2274 H   0  0  0  0  0  0  0  0  0  0  0  0
  143.2847   76.6791  217.5295 H   0  0  0  0  0  0  0  0  0  0  0  0
  144.3088   77.3896  218.7647 H   0  0  0  0  0  0  0  0  0  0  0  0
  144.3716   74.6566  219.5619 H   0  0  0  0  0  0  0  0  0  0  0  0
  143.1883   73.1740  221.2093 H   0  0  0  0  0  0  0  0  0  0  0  0
  140.9063   73.7936  222.0382 H   0  0  0  0  0  0  0  0  0  0  0  0
  139.8072   75.9043  221.2322 H   0  0  0  0  0  0  0  0  0  0  0  0
  140.2045   77.5219  218.6563 H   0  0  0  0  0  0  0  0  0  0  0  0
  140.6047   78.4017  220.1215 H   0  0  0  0  0  0  0  0  0  0  0  0
  139.2700   81.2933  217.2792 H   0  0  0  0  0  0  0  0  0  0  0  0
  139.4761   79.7706  218.3216 H   0  0  0  0  0  0  0  0  0  0  0  0
  138.3024   82.3902  218.9716 H   0  0  0  0  0  0  0  0  0  0  0  0
  138.0215   80.6886  219.6218 H   0  0  0  0  0  0  0  0  0  0  0  0
  1  2  1  0
  2  3  1  0
  3  4  2  0
  3  5  1  0
  5  6  1  0
  6  7  2  0
  7  8  1  0
  8  9  2  0
  9 10  1  0
 10 11  2  0
  5 12  1  0
 12 13  1  0
 13 14  1  0
 14 15  1  0
 15 16  2  3
 16 17  1  0
 16 18  1  0
 18 19  1  0
 18 20  1  0
 20 21  1  0
 21 22  1  0
 22 23  2  0
 23 24  1  0
 24 25  2  0
 25 26  1  0
 26 27  2  0
 27 28  1  0
 15 29  1  0
 29 30  1  0
 11  6  1  0
 30 12  1  0
 28 20  1  0
 27 22  1  0
  1 31  1  0
  1 32  1  0
  1 33  1  0
  2 34  1  0
  2 35  1  0
  7 36  1  0
  8 37  1  0
  9 38  1  0
 10 39  1  0
 11 40  1  0
 12 41  1  0
 13 42  1  0
 13 43  1  0
 14 44  1  0
 14 45  1  0
 17 46  1  0
 18 47  1  6
 19 48  1  0
 19 49  1  0
 19 50  1  0
 20 51  1  0
 21 52  1  0
 21 53  1  0
 23 54  1  0
 24 55  1  0
 25 56  1  0
 26 57  1  0
 28 58  1  0
 28 59  1  0
 29 60  1  0
 29 61  1  0
 30 62  1  0
 30 63  1  0
M  CHG  2  15   1  19   1
M  END
>  <meeko>  (4) 
{"free_energy": -7.3, "intermolecular_energy": -9.98, "internal_energy": -3.06, "cluster_size": 6, "cluster_id": 2, "rank_in_cluster": 6}

$$$$

     RDKit          3D

 63 66  0  0  0  0  0  0  0  0999 V2000
  145.5300   72.7700  220.1090 C   0  0  0  0  0  0  0  0  0  0  0  0
  145.2020   74.0850  220.8100 C   0  0  0  0  0  0  0  0  0  0  0  0
  144.1010   74.8180  220.1040 C   0  0  0  0  0  0  0  0  0  0  0  0
  144.1270   76.0770  220.0620 O   0  0  0  0  0  0  0  0  0  0  0  0
  142.9610   74.1160  219.5800 N   0  0  0  0  0  0  0  0  0  0  0  0
  141.9430   73.7270  220.5160 C   0  0  0  0  0  0  0  0  0  0  0  0
  141.8610   72.3970  220.9580 C   0  0  0  0  0  0  0  0  0  0  0  0
  140.8800   72.0220  221.8800 C   0  0  0  0  0  0  0  0  0  0  0  0
  139.9700   72.9700  222.3590 C   0  0  0  0  0  0  0  0  0  0  0  0
  140.0390   74.2930  221.9140 C   0  0  0  0  0  0  0  0  0  0  0  0
  141.0190   74.6710  220.9920 C   0  0  0  0  0  0  0  0  0  0  0  0
  142.7380   73.8780  218.1350 C   0  0  0  0  0  0  0  0  0  0  0  0
  141.3420   74.2510  217.6530 C   0  0  0  0  0  0  0  0  0  0  0  0
  141.0880   75.7570  217.5730 C   0  0  0  0  0  0  0  0  0  0  0  0
  142.2550   76.5970  217.2110 N   0  0  0  0  0  0  0  0  0  0  0  0
  142.1070   77.9140  217.1100 C   0  0  0  0  0  0  0  0  0  0  0  0
  141.4300   78.4970  216.0260 O   0  0  0  0  0  0  0  0  0  0  0  0
  142.6820   78.9140  218.1170 C   0  0  1  0  0  0  0  0  0  0  0  0
  142.9580   80.1820  217.4280 N   0  0  0  0  0  0  0  0  0  0  0  0
  141.6910   79.1250  219.2970 C   0  0  0  0  0  0  0  0  0  0  0  0
  141.9100   80.4620  220.0520 C   0  0  0  0  0  0  0  0  0  0  0  0
  141.7180   80.0950  221.4750 C   0  0  0  0  0  0  0  0  0  0  0  0
  141.6280   80.9680  222.5620 C   0  0  0  0  0  0  0  0  0  0  0  0
  141.4600   80.4290  223.8470 C   0  0  0  0  0  0  0  0  0  0  0  0
  141.3950   79.0340  224.0250 C   0  0  0  0  0  0  0  0  0  0  0  0
  141.4950   78.1760  222.9200 C   0  0  0  0  0  0  0  0  0  0  0  0
  141.6550   78.7350  221.6490 C   0  0  0  0  0  0  0  0  0  0  0  0
  141.7920   78.0070  220.3670 C   0  0  0  0  0  0  0  0  0  0  0  0
  143.6050   76.0270  216.9740 C   0  0  0  0  0  0  0  0  0  0  0  0
  143.7900   74.5230  217.2400 C   0  0  0  0  0  0  0  0  0  0  0  0
  145.7241   71.9917  220.8617 H   0  0  0  0  0  0  0  0  0  0  0  0
  144.6797   72.4678  219.4800 H   0  0  0  0  0  0  0  0  0  0  0  0
  146.4226   72.9025  219.4800 H   0  0  0  0  0  0  0  0  0  0  0  0
  144.8866   73.8721  221.8421 H   0  0  0  0  0  0  0  0  0  0  0  0
  146.1020   74.7174  220.8011 H   0  0  0  0  0  0  0  0  0  0  0  0
  142.5710   71.6479  220.5775 H   0  0  0  0  0  0  0  0  0  0  0  0
  140.8235   70.9805  222.2293 H   0  0  0  0  0  0  0  0  0  0  0  0
  139.1996   72.6741  223.0863 H   0  0  0  0  0  0  0  0  0  0  0  0
  139.3215   75.0374  222.2897 H   0  0  0  0  0  0  0  0  0  0  0  0
  141.0666   75.7114  220.6381 H   0  0  0  0  0  0  0  0  0  0  0  0
  142.8379   72.7866  218.0403 H   0  0  0  0  0  0  0  0  0  0  0  0
  141.1975   73.8230  216.6500 H   0  0  0  0  0  0  0  0  0  0  0  0
  140.6343   73.8500  218.3935 H   0  0  0  0  0  0  0  0  0  0  0  0
  140.3053   75.9262  216.8189 H   0  0  0  0  0  0  0  0  0  0  0  0
  140.8076   76.0639  218.5914 H   0  0  0  0  0  0  0  0  0  0  0  0
  140.7050   78.0540  215.4790 H   0  0  0  0  0  0  0  0  0  0  0  0
  143.6203   78.5209  218.5355 H   0  0  0  0  0  0  0  0  0  0  0  0
  142.2890   80.9230  217.7340 H   0  0  0  0  0  0  0  0  0  0  0  0
  143.9250   80.5080  217.6640 H   0  0  0  0  0  0  0  0  0  0  0  0
  142.8870   80.0610  216.3900 H   0  0  0  0  0  0  0  0  0  0  0  0
  140.7054   79.1186  218.8085 H   0  0  0  0  0  0  0  0  0  0  0  0
  142.9254   80.8484  219.8798 H   0  0  0  0  0  0  0  0  0  0  0  0
  141.2262   81.2570  219.7199 H   0  0  0  0  0  0  0  0  0  0  0  0
  141.6876   82.0563  222.4137 H   0  0  0  0  0  0  0  0  0  0  0  0
  141.3790   81.0978  224.7166 H   0  0  0  0  0  0  0  0  0  0  0  0
  141.2654   78.6155  225.0340 H   0  0  0  0  0  0  0  0  0  0  0  0
  141.4484   77.0848  223.0511 H   0  0  0  0  0  0  0  0  0  0  0  0
  142.7637   77.4948  220.3086 H   0  0  0  0  0  0  0  0  0  0  0  0
  141.0308   77.2235  220.2382 H   0  0  0  0  0  0  0  0  0  0  0  0
  143.8613   76.2106  215.9202 H   0  0  0  0  0  0  0  0  0  0  0  0
  144.2562   76.5266  217.7064 H   0  0  0  0  0  0  0  0  0  0  0  0
  143.7742   74.0034  216.2706 H   0  0  0  0  0  0  0  0  0  0  0  0
  144.7436   74.4281  217.7801 H   0  0  0  0  0  0  0  0  0  0  0  0
  1  2  1  0
  2  3  1  0
  3  4  2  0
  3  5  1  0
  5  6  1  0
  6  7  2  0
  7  8  1  0
  8  9  2  0
  9 10  1  0
 10 11  2  0
  5 12  1  0
 12 13  1  0
 13 14  1  0
 14 15  1  0
 15 16  2  3
 16 17  1  0
 16 18  1  0
 18 19  1  0
 18 20  1  0
 20 21  1  0
 21 22  1  0
 22 23  2  0
 23 24  1  0
 24 25  2  0
 25 26  1  0
 26 27  2  0
 27 28  1  0
 15 29  1  0
 29 30  1  0
 11  6  1  0
 30 12  1  0
 28 20  1  0
 27 22  1  0
  1 31  1  0
  1 32  1  0
  1 33  1  0
  2 34  1  0
  2 35  1  0
  7 36  1  0
  8 37  1  0
  9 38  1  0
 10 39  1  0
 11 40  1  0
 12 41  1  0
 13 42  1  0
 13 43  1  0
 14 44  1  0
 14 45  1  0
 17 46  1  0
 18 47  1  1
 19 48  1  0
 19 49  1  0
 19 50  1  0
 20 51  1  0
 21 52  1  0
 21 53  1  0
 23 54  1  0
 24 55  1  0
 25 56  1  0
 26 57  1  0
 28 58  1  0
 28 59  1  0
 29 60  1  0
 29 61  1  0
 30 62  1  0
 30 63  1  0
M  CHG  2  15   1  19   1
M  END
>  <meeko>  (5) 
{"free_energy": -7.33, "intermolecular_energy": -10.02, "internal_energy": -2.88, "cluster_size": 1, "cluster_id": 3, "rank_in_cluster": 1}

$$$$

     RDKit          3D

 63 66  0  0  0  0  0  0  0  0999 V2000
  138.6380   76.0340  222.1030 C   0  0  0  0  0  0  0  0  0  0  0  0
  140.1350   75.7850  221.9420 C   0  0  0  0  0  0  0  0  0  0  0  0
  140.4110   74.3630  221.5580 C   0  0  0  0  0  0  0  0  0  0  0  0
  140.1010   73.4380  222.3550 O   0  0  0  0  0  0  0  0  0  0  0  0
  141.1300   74.0470  220.3530 N   0  0  0  0  0  0  0  0  0  0  0  0
  142.5490   73.8540  220.4670 C   0  0  0  0  0  0  0  0  0  0  0  0
  143.4220   74.9460  220.3470 C   0  0  0  0  0  0  0  0  0  0  0  0
  144.8020   74.7600  220.4720 C   0  0  0  0  0  0  0  0  0  0  0  0
  145.3180   73.4830  220.7090 C   0  0  0  0  0  0  0  0  0  0  0  0
  144.4540   72.3880  220.8180 C   0  0  0  0  0  0  0  0  0  0  0  0
  143.0740   72.5720  220.6930 C   0  0  0  0  0  0  0  0  0  0  0  0
  140.4740   73.8070  219.0470 C   0  0  0  0  0  0  0  0  0  0  0  0
  139.3440   74.7780  218.7310 C   0  0  0  0  0  0  0  0  0  0  0  0
  139.8140   76.1900  218.3760 C   0  0  0  0  0  0  0  0  0  0  0  0
  141.1090   76.2870  217.6600 N   0  0  0  0  0  0  0  0  0  0  0  0
  141.5740   77.4810  217.3090 C   0  0  0  0  0  0  0  0  0  0  0  0
  141.3610   78.0050  216.0230 O   0  0  0  0  0  0  0  0  0  0  0  0
  142.4110   78.3730  218.2310 C   0  0  1  0  0  0  0  0  0  0  0  0
  142.9140   79.5190  217.4610 N   0  0  0  0  0  0  0  0  0  0  0  0
  141.5590   78.8470  219.4430 C   0  0  0  0  0  0  0  0  0  0  0  0
  141.8460   80.3130  219.8600 C   0  0  0  0  0  0  0  0  0  0  0  0
  141.8240   80.2660  221.3410 C   0  0  0  0  0  0  0  0  0  0  0  0
  141.8490   81.3550  222.2160 C   0  0  0  0  0  0  0  0  0  0  0  0
  141.8370   81.1100  223.5970 C   0  0  0  0  0  0  0  0  0  0  0  0
  141.8120   79.7880  224.0810 C   0  0  0  0  0  0  0  0  0  0  0  0
  141.7960   78.7090  223.1840 C   0  0  0  0  0  0  0  0  0  0  0  0
  141.8000   78.9770  221.8120 C   0  0  0  0  0  0  0  0  0  0  0  0
  141.7980   77.9870  220.7120 C   0  0  0  0  0  0  0  0  0  0  0  0
  141.9300   75.0950  217.3330 C   0  0  0  0  0  0  0  0  0  0  0  0
  141.4480   73.7380  217.8770 C   0  0  0  0  0  0  0  0  0  0  0  0
  138.3863   76.0759  223.1730 H   0  0  0  0  0  0  0  0  0  0  0  0
  138.3717   76.9888  221.6260 H   0  0  0  0  0  0  0  0  0  0  0  0
  138.0770   75.2168  221.6260 H   0  0  0  0  0  0  0  0  0  0  0  0
  140.5270   76.4505  221.1587 H   0  0  0  0  0  0  0  0  0  0  0  0
  140.6266   75.9868  222.9051 H   0  0  0  0  0  0  0  0  0  0  0  0
  143.0194   75.9513  220.1540 H   0  0  0  0  0  0  0  0  0  0  0  0
  145.4824   75.6198  220.3837 H   0  0  0  0  0  0  0  0  0  0  0  0
  146.4038   73.3388  220.8099 H   0  0  0  0  0  0  0  0  0  0  0  0
  144.8605   71.3826  221.0020 H   0  0  0  0  0  0  0  0  0  0  0  0
  142.3968   71.7088  220.7720 H   0  0  0  0  0  0  0  0  0  0  0  0
  140.0247   72.8106  219.1704 H   0  0  0  0  0  0  0  0  0  0  0  0
  138.7742   74.3792  217.8788 H   0  0  0  0  0  0  0  0  0  0  0  0
  138.7372   74.8661  219.6442 H   0  0  0  0  0  0  0  0  0  0  0  0
  139.0434   76.6506  217.7403 H   0  0  0  0  0  0  0  0  0  0  0  0
  139.9701   76.6995  219.3383 H   0  0  0  0  0  0  0  0  0  0  0  0
  141.0550   77.4770  215.2170 H   0  0  0  0  0  0  0  0  0  0  0  0
  143.2650   77.8025  218.6249 H   0  0  0  0  0  0  0  0  0  0  0  0
  143.8320   79.8440  217.8370 H   0  0  0  0  0  0  0  0  0  0  0  0
  143.0590   79.2350  216.4640 H   0  0  0  0  0  0  0  0  0  0  0  0
  142.2300   80.3120  217.4900 H   0  0  0  0  0  0  0  0  0  0  0  0
  140.5241   78.7464  219.0840 H   0  0  0  0  0  0  0  0  0  0  0  0
  142.8297   80.6403  219.4922 H   0  0  0  0  0  0  0  0  0  0  0  0
  141.1180   81.0253  219.4446 H   0  0  0  0  0  0  0  0  0  0  0  0
  141.8775   82.3844  221.8294 H   0  0  0  0  0  0  0  0  0  0  0  0
  141.8472   81.9528  224.3038 H   0  0  0  0  0  0  0  0  0  0  0  0
  141.8050   79.6006  225.1649 H   0  0  0  0  0  0  0  0  0  0  0  0
  141.7806   77.6729  223.5531 H   0  0  0  0  0  0  0  0  0  0  0  0
  142.7634   77.4628  220.6544 H   0  0  0  0  0  0  0  0  0  0  0  0
  141.0375   77.2035  220.8452 H   0  0  0  0  0  0  0  0  0  0  0  0
  141.9752   75.0149  216.2368 H   0  0  0  0  0  0  0  0  0  0  0  0
  142.8963   75.2718  217.8279 H   0  0  0  0  0  0  0  0  0  0  0  0
  140.9524   73.2004  217.0551 H   0  0  0  0  0  0  0  0  0  0  0  0
  142.3456   73.2316  218.2616 H   0  0  0  0  0  0  0  0  0  0  0  0
  1  2  1  0
  2  3  1  0
  3  4  2  0
  3  5  1  0
  5  6  1  0
  6  7  2  0
  7  8  1  0
  8  9  2  0
  9 10  1  0
 10 11  2  0
  5 12  1  0
 12 13  1  0
 13 14  1  0
 14 15  1  0
 15 16  2  3
 16 17  1  0
 16 18  1  0
 18 19  1  0
 18 20  1  0
 20 21  1  0
 21 22  1  0
 22 23  2  0
 23 24  1  0
 24 25  2  0
 25 26  1  0
 26 27  2  0
 27 28  1  0
 15 29  1  0
 29 30  1  0
 11  6  1  0
 30 12  1  0
 28 20  1  0
 27 22  1  0
  1 31  1  0
  1 32  1  0
  1 33  1  0
  2 34  1  0
  2 35  1  0
  7 36  1  0
  8 37  1  0
  9 38  1  0
 10 39  1  0
 11 40  1  0
 12 41  1  0
 13 42  1  0
 13 43  1  0
 14 44  1  0
 14 45  1  0
 17 46  1  0
 18 47  1  1
 19 48  1  0
 19 49  1  0
 19 50  1  0
 20 51  1  0
 21 52  1  0
 21 53  1  0
 23 54  1  0
 24 55  1  0
 25 56  1  0
 26 57  1  0
 28 58  1  0
 28 59  1  0
 29 60  1  0
 29 61  1  0
 30 62  1  0
 30 63  1  0
M  CHG  2  15   1  19   1
M  END
>  <meeko>  (6) 
{"free_energy": -7.93, "intermolecular_energy": -10.61, "internal_energy": -2.67, "cluster_size": 13, "cluster_id": 1, "rank_in_cluster": 6}

$$$$

     RDKit          3D

 63 66  0  0  0  0  0  0  0  0999 V2000
  138.6130   76.0070  222.3300 C   0  0  0  0  0  0  0  0  0  0  0  0
  140.0610   75.8650  221.8700 C   0  0  0  0  0  0  0  0  0  0  0  0
  140.3850   74.4420  221.5250 C   0  0  0  0  0  0  0  0  0  0  0  0
  140.1090   73.5300  222.3490 O   0  0  0  0  0  0  0  0  0  0  0  0
  141.1100   74.1180  220.3270 N   0  0  0  0  0  0  0  0  0  0  0  0
  142.5250   73.9060  220.4530 C   0  0  0  0  0  0  0  0  0  0  0  0
  143.0280   72.6180  220.6970 C   0  0  0  0  0  0  0  0  0  0  0  0
  144.4050   72.4100  220.8050 C   0  0  0  0  0  0  0  0  0  0  0  0
  145.2890   73.4870  220.6780 C   0  0  0  0  0  0  0  0  0  0  0  0
  144.7940   74.7740  220.4470 C   0  0  0  0  0  0  0  0  0  0  0  0
  143.4160   74.9850  220.3390 C   0  0  0  0  0  0  0  0  0  0  0  0
  140.4620   73.8850  219.0150 C   0  0  0  0  0  0  0  0  0  0  0  0
  139.3470   74.8700  218.6900 C   0  0  0  0  0  0  0  0  0  0  0  0
  139.8350   76.2770  218.3410 C   0  0  0  0  0  0  0  0  0  0  0  0
  141.1380   76.3600  217.6360 N   0  0  0  0  0  0  0  0  0  0  0  0
  141.6200   77.5480  217.2900 C   0  0  0  0  0  0  0  0  0  0  0  0
  141.4340   78.0700  215.9990 O   0  0  0  0  0  0  0  0  0  0  0  0
  142.4470   78.4360  218.2250 C   0  0  1  0  0  0  0  0  0  0  0  0
  142.9420   79.5950  217.4700 N   0  0  0  0  0  0  0  0  0  0  0  0
  141.5900   78.8870  219.4410 C   0  0  0  0  0  0  0  0  0  0  0  0
  141.8680   80.3490  219.8800 C   0  0  0  0  0  0  0  0  0  0  0  0
  141.8410   80.2800  221.3600 C   0  0  0  0  0  0  0  0  0  0  0  0
  141.8580   81.3560  222.2510 C   0  0  0  0  0  0  0  0  0  0  0  0
  141.8440   81.0910  223.6290 C   0  0  0  0  0  0  0  0  0  0  0  0
  141.8230   79.7610  224.0920 C   0  0  0  0  0  0  0  0  0  0  0  0
  141.8150   78.6960  223.1800 C   0  0  0  0  0  0  0  0  0  0  0  0
  141.8220   78.9840  221.8120 C   0  0  0  0  0  0  0  0  0  0  0  0
  141.8290   78.0100  220.6970 C   0  0  0  0  0  0  0  0  0  0  0  0
  141.9480   75.1580  217.3150 C   0  0  0  0  0  0  0  0  0  0  0  0
  141.4460   73.8070  217.8530 C   0  0  0  0  0  0  0  0  0  0  0  0
  138.5762   76.0106  223.4294 H   0  0  0  0  0  0  0  0  0  0  0  0
  138.1972   76.9502  221.9461 H   0  0  0  0  0  0  0  0  0  0  0  0
  138.0218   75.1625  221.9461 H   0  0  0  0  0  0  0  0  0  0  0  0
  140.2182   76.4940  220.9814 H   0  0  0  0  0  0  0  0  0  0  0  0
  140.7196   76.1820  222.6921 H   0  0  0  0  0  0  0  0  0  0  0  0
  142.3354   71.7700  220.8035 H   0  0  0  0  0  0  0  0  0  0  0  0
  144.7949   71.3982  220.9901 H   0  0  0  0  0  0  0  0  0  0  0  0
  146.3733   73.3212  220.7599 H   0  0  0  0  0  0  0  0  0  0  0  0
  145.4890   75.6211  220.3502 H   0  0  0  0  0  0  0  0  0  0  0  0
  143.0288   75.9996  220.1642 H   0  0  0  0  0  0  0  0  0  0  0  0
  140.0004   72.8936  219.1336 H   0  0  0  0  0  0  0  0  0  0  0  0
  138.7804   74.4788  217.8322 H   0  0  0  0  0  0  0  0  0  0  0  0
  138.7341   74.9644  219.5985 H   0  0  0  0  0  0  0  0  0  0  0  0
  139.0751   76.7467  217.6991 H   0  0  0  0  0  0  0  0  0  0  0  0
  139.9879   76.7842  219.3050 H   0  0  0  0  0  0  0  0  0  0  0  0
  141.3560   77.5260  215.1510 H   0  0  0  0  0  0  0  0  0  0  0  0
  143.3049   77.8680  218.6141 H   0  0  0  0  0  0  0  0  0  0  0  0
  143.0820   79.3500  216.4640 H   0  0  0  0  0  0  0  0  0  0  0  0
  142.2390   80.3700  217.5150 H   0  0  0  0  0  0  0  0  0  0  0  0
  143.8470   79.9380  217.8700 H   0  0  0  0  0  0  0  0  0  0  0  0
  140.5566   78.7860  219.0779 H   0  0  0  0  0  0  0  0  0  0  0  0
  142.8512   80.6867  219.5205 H   0  0  0  0  0  0  0  0  0  0  0  0
  141.1380   81.0637  219.4722 H   0  0  0  0  0  0  0  0  0  0  0  0
  141.8819   82.3911  221.8795 H   0  0  0  0  0  0  0  0  0  0  0  0
  141.8494   81.9231  224.3485 H   0  0  0  0  0  0  0  0  0  0  0  0
  141.8128   79.5570  225.1729 H   0  0  0  0  0  0  0  0  0  0  0  0
  141.8034   77.6545  223.5339 H   0  0  0  0  0  0  0  0  0  0  0  0
  142.7973   77.4917  220.6350 H   0  0  0  0  0  0  0  0  0  0  0  0
  141.0722   77.2207  220.8159 H   0  0  0  0  0  0  0  0  0  0  0  0
  142.0018   75.0783  216.2192 H   0  0  0  0  0  0  0  0  0  0  0  0
  142.9118   75.3231  217.8188 H   0  0  0  0  0  0  0  0  0  0  0  0
  140.9517   73.2760  217.0261 H   0  0  0  0  0  0  0  0  0  0  0  0
  142.3345   73.2906  218.2453 H   0  0  0  0  0  0  0  0  0  0  0  0
  1  2  1  0
  2  3  1  0
  3  4  2  0
  3  5  1  0
  5  6  1  0
  6  7  2  0
  7  8  1  0
  8  9  2  0
  9 10  1  0
 10 11  2  0
  5 12  1  0
 12 13  1  0
 13 14  1  0
 14 15  1  0
 15 16  2  3
 16 17  1  0
 16 18  1  0
 18 19  1  0
 18 20  1  0
 20 21  1  0
 21 22  1  0
 22 23  2  0
 23 24  1  0
 24 25  2  0
 25 26  1  0
 26 27  2  0
 27 28  1  0
 15 29  1  0
 29 30  1  0
 11  6  1  0
 30 12  1  0
 28 20  1  0
 27 22  1  0
  1 31  1  0
  1 32  1  0
  1 33  1  0
  2 34  1  0
  2 35  1  0
  7 36  1  0
  8 37  1  0
  9 38  1  0
 10 39  1  0
 11 40  1  0
 12 41  1  0
 13 42  1  0
 13 43  1  0
 14 44  1  0
 14 45  1  0
 17 46  1  0
 18 47  1  1
 19 48  1  0
 19 49  1  0
 19 50  1  0
 20 51  1  0
 21 52  1  0
 21 53  1  0
 23 54  1  0
 24 55  1  0
 25 56  1  0
 26 57  1  0
 28 58  1  0
 28 59  1  0
 29 60  1  0
 29 61  1  0
 30 62  1  0
 30 63  1  0
M  CHG  2  15   1  19   1
M  END
>  <meeko>  (7) 
{"free_energy": -7.94, "intermolecular_energy": -10.63, "internal_energy": -2.66, "cluster_size": 13, "cluster_id": 1, "rank_in_cluster": 4}

$$$$

     RDKit          3D

 63 66  0  0  0  0  0  0  0  0999 V2000
  138.6800   76.0070  222.3120 C   0  0  0  0  0  0  0  0  0  0  0  0
  140.1480   75.8020  221.9500 C   0  0  0  0  0  0  0  0  0  0  0  0
  140.4220   74.3770  221.5740 C   0  0  0  0  0  0  0  0  0  0  0  0
  140.1200   73.4580  222.3810 O   0  0  0  0  0  0  0  0  0  0  0  0
  141.1290   74.0540  220.3650 N   0  0  0  0  0  0  0  0  0  0  0  0
  142.5470   73.8520  220.4670 C   0  0  0  0  0  0  0  0  0  0  0  0
  143.0640   72.5640  220.6730 C   0  0  0  0  0  0  0  0  0  0  0  0
  144.4450   72.3660  220.7580 C   0  0  0  0  0  0  0  0  0  0  0  0
  145.3170   73.4530  220.6460 C   0  0  0  0  0  0  0  0  0  0  0  0
  144.8080   74.7410  220.4530 C   0  0  0  0  0  0  0  0  0  0  0  0
  143.4270   74.9410  220.3680 C   0  0  0  0  0  0  0  0  0  0  0  0
  140.4600   73.8130  219.0650 C   0  0  0  0  0  0  0  0  0  0  0  0
  139.3510   74.8060  218.7440 C   0  0  0  0  0  0  0  0  0  0  0  0
  139.8490   76.2030  218.3710 C   0  0  0  0  0  0  0  0  0  0  0  0
  141.1420   76.2640  217.6470 N   0  0  0  0  0  0  0  0  0  0  0  0
  141.6320   77.4430  217.2800 C   0  0  0  0  0  0  0  0  0  0  0  0
  141.4630   77.9370  215.9760 O   0  0  0  0  0  0  0  0  0  0  0  0
  142.4500   78.3500  218.2050 C   0  0  1  0  0  0  0  0  0  0  0  0
  142.9360   79.5040  217.4360 N   0  0  0  0  0  0  0  0  0  0  0  0
  141.5880   78.8080  219.4150 C   0  0  0  0  0  0  0  0  0  0  0  0
  141.8430   80.2810  219.8290 C   0  0  0  0  0  0  0  0  0  0  0  0
  141.8200   80.2360  221.3100 C   0  0  0  0  0  0  0  0  0  0  0  0
  141.8210   81.3280  222.1820 C   0  0  0  0  0  0  0  0  0  0  0  0
  141.8130   81.0860  223.5650 C   0  0  0  0  0  0  0  0  0  0  0  0
  141.8150   79.7640  224.0510 C   0  0  0  0  0  0  0  0  0  0  0  0
  141.8220   78.6840  223.1560 C   0  0  0  0  0  0  0  0  0  0  0  0
  141.8220   78.9490  221.7840 C   0  0  0  0  0  0  0  0  0  0  0  0
  141.8420   77.9560  220.6860 C   0  0  0  0  0  0  0  0  0  0  0  0
  141.9350   75.0500  217.3290 C   0  0  0  0  0  0  0  0  0  0  0  0
  141.4270   73.7110  217.8900 C   0  0  0  0  0  0  0  0  0  0  0  0
  138.5709   76.0222  223.4065 H   0  0  0  0  0  0  0  0  0  0  0  0
  138.3296   76.9628  221.8952 H   0  0  0  0  0  0  0  0  0  0  0  0
  138.0812   75.1838  221.8952 H   0  0  0  0  0  0  0  0  0  0  0  0
  140.4016   76.4521  221.0997 H   0  0  0  0  0  0  0  0  0  0  0  0
  140.7607   76.0535  222.8282 H   0  0  0  0  0  0  0  0  0  0  0  0
  142.3804   71.7075  220.7679 H   0  0  0  0  0  0  0  0  0  0  0  0
  144.8463   71.3536  220.9132 H   0  0  0  0  0  0  0  0  0  0  0  0
  146.4037   73.2950  220.7097 H   0  0  0  0  0  0  0  0  0  0  0  0
  145.4940   75.5966  220.3681 H   0  0  0  0  0  0  0  0  0  0  0  0
  143.0284   75.9559  220.2229 H   0  0  0  0  0  0  0  0  0  0  0  0
  139.9895   72.8281  219.2018 H   0  0  0  0  0  0  0  0  0  0  0  0
  138.7679   74.4107  217.8992 H   0  0  0  0  0  0  0  0  0  0  0  0
  138.7522   74.9180  219.6599 H   0  0  0  0  0  0  0  0  0  0  0  0
  139.0850   76.6731  217.7343 H   0  0  0  0  0  0  0  0  0  0  0  0
  140.0213   76.7197  219.3267 H   0  0  0  0  0  0  0  0  0  0  0  0
  141.0990   77.4130  215.1930 H   0  0  0  0  0  0  0  0  0  0  0  0
  143.3125   77.7945  218.6020 H   0  0  0  0  0  0  0  0  0  0  0  0
  143.0860   79.2460  216.4360 H   0  0  0  0  0  0  0  0  0  0  0  0
  142.2220   80.2700  217.4650 H   0  0  0  0  0  0  0  0  0  0  0  0
  143.8330   79.8640  217.8380 H   0  0  0  0  0  0  0  0  0  0  0  0
  140.5560   78.6844  219.0549 H   0  0  0  0  0  0  0  0  0  0  0  0
  142.8199   80.6286  219.4618 H   0  0  0  0  0  0  0  0  0  0  0  0
  141.1007   80.9769  219.4111 H   0  0  0  0  0  0  0  0  0  0  0  0
  141.8279   82.3568  221.7926 H   0  0  0  0  0  0  0  0  0  0  0  0
  141.8052   81.9302  224.2701 H   0  0  0  0  0  0  0  0  0  0  0  0
  141.8111   79.5780  225.1352 H   0  0  0  0  0  0  0  0  0  0  0  0
  141.8274   77.6485  223.5270 H   0  0  0  0  0  0  0  0  0  0  0  0
  142.8178   77.4513  220.6313 H   0  0  0  0  0  0  0  0  0  0  0  0
  141.0973   77.1575  220.8198 H   0  0  0  0  0  0  0  0  0  0  0  0
  141.9724   74.9569  216.2336 H   0  0  0  0  0  0  0  0  0  0  0  0
  142.9075   75.2110  217.8172 H   0  0  0  0  0  0  0  0  0  0  0  0
  140.9157   73.1754  217.0765 H   0  0  0  0  0  0  0  0  0  0  0  0
  142.3156   73.1901  218.2760 H   0  0  0  0  0  0  0  0  0  0  0  0
  1  2  1  0
  2  3  1  0
  3  4  2  0
  3  5  1  0
  5  6  1  0
  6  7  2  0
  7  8  1  0
  8  9  2  0
  9 10  1  0
 10 11  2  0
  5 12  1  0
 12 13  1  0
 13 14  1  0
 14 15  1  0
 15 16  2  3
 16 17  1  0
 16 18  1  0
 18 19  1  0
 18 20  1  0
 20 21  1  0
 21 22  1  0
 22 23  2  0
 23 24  1  0
 24 25  2  0
 25 26  1  0
 26 27  2  0
 27 28  1  0
 15 29  1  0
 29 30  1  0
 11  6  1  0
 30 12  1  0
 28 20  1  0
 27 22  1  0
  1 31  1  0
  1 32  1  0
  1 33  1  0
  2 34  1  0
  2 35  1  0
  7 36  1  0
  8 37  1  0
  9 38  1  0
 10 39  1  0
 11 40  1  0
 12 41  1  0
 13 42  1  0
 13 43  1  0
 14 44  1  0
 14 45  1  0
 17 46  1  0
 18 47  1  1
 19 48  1  0
 19 49  1  0
 19 50  1  0
 20 51  1  0
 21 52  1  0
 21 53  1  0
 23 54  1  0
 24 55  1  0
 25 56  1  0
 26 57  1  0
 28 58  1  0
 28 59  1  0
 29 60  1  0
 29 61  1  0
 30 62  1  0
 30 63  1  0
M  CHG  2  15   1  19   1
M  END
>  <meeko>  (8) 
{"free_energy": -7.92, "intermolecular_energy": -10.61, "internal_energy": -2.67, "cluster_size": 13, "cluster_id": 1, "rank_in_cluster": 7}

$$$$

     RDKit          3D

 63 66  0  0  0  0  0  0  0  0999 V2000
  140.0760   72.0930  222.7800 C   0  0  0  0  0  0  0  0  0  0  0  0
  139.4440   73.2050  221.9480 C   0  0  0  0  0  0  0  0  0  0  0  0
  140.4780   74.1760  221.4620 C   0  0  0  0  0  0  0  0  0  0  0  0
  140.6040   75.2850  222.0470 O   0  0  0  0  0  0  0  0  0  0  0  0
  141.2400   73.9110  220.2720 N   0  0  0  0  0  0  0  0  0  0  0  0
  142.6620   73.7720  220.4210 C   0  0  0  0  0  0  0  0  0  0  0  0
  143.2280   72.5090  220.6550 C   0  0  0  0  0  0  0  0  0  0  0  0
  144.6120   72.3730  220.7850 C   0  0  0  0  0  0  0  0  0  0  0  0
  145.4390   73.4960  220.6900 C   0  0  0  0  0  0  0  0  0  0  0  0
  144.8810   74.7590  220.4690 C   0  0  0  0  0  0  0  0  0  0  0  0
  143.4970   74.8980  220.3390 C   0  0  0  0  0  0  0  0  0  0  0  0
  140.6290   73.6680  218.9450 C   0  0  0  0  0  0  0  0  0  0  0  0
  139.4500   74.5790  218.6280 C   0  0  0  0  0  0  0  0  0  0  0  0
  139.8400   76.0250  218.3220 C   0  0  0  0  0  0  0  0  0  0  0  0
  141.1430   76.2190  217.6390 N   0  0  0  0  0  0  0  0  0  0  0  0
  141.5430   77.4480  217.3310 C   0  0  0  0  0  0  0  0  0  0  0  0
  141.2310   78.0350  216.0930 O   0  0  0  0  0  0  0  0  0  0  0  0
  142.4040   78.3190  218.2510 C   0  0  1  0  0  0  0  0  0  0  0  0
  142.9280   79.4560  217.4820 N   0  0  0  0  0  0  0  0  0  0  0  0
  141.5700   78.8080  219.4690 C   0  0  0  0  0  0  0  0  0  0  0  0
  142.0660   80.1570  220.0530 C   0  0  0  0  0  0  0  0  0  0  0  0
  141.9470   79.9680  221.5180 C   0  0  0  0  0  0  0  0  0  0  0  0
  142.0970   80.9460  222.5040 C   0  0  0  0  0  0  0  0  0  0  0  0
  141.9620   80.5720  223.8500 C   0  0  0  0  0  0  0  0  0  0  0  0
  141.6920   79.2320  224.1870 C   0  0  0  0  0  0  0  0  0  0  0  0
  141.5540   78.2650  223.1800 C   0  0  0  0  0  0  0  0  0  0  0  0
  141.6850   78.6620  221.8470 C   0  0  0  0  0  0  0  0  0  0  0  0
  141.5880   77.7990  220.6480 C   0  0  0  0  0  0  0  0  0  0  0  0
  142.0420   75.0880  217.3010 C   0  0  0  0  0  0  0  0  0  0  0  0
  141.6310   73.6900  217.7970 C   0  0  0  0  0  0  0  0  0  0  0  0
  139.9485   72.3174  223.8493 H   0  0  0  0  0  0  0  0  0  0  0  0
  139.5867   71.1362  222.5453 H   0  0  0  0  0  0  0  0  0  0  0  0
  141.1484   72.0238  222.5453 H   0  0  0  0  0  0  0  0  0  0  0  0
  138.9356   72.7588  221.0806 H   0  0  0  0  0  0  0  0  0  0  0  0
  138.7276   73.7485  222.5815 H   0  0  0  0  0  0  0  0  0  0  0  0
  142.5798   71.6240  220.7362 H   0  0  0  0  0  0  0  0  0  0  0  0
  145.0519   71.3805  220.9624 H   0  0  0  0  0  0  0  0  0  0  0  0
  146.5290   73.3861  220.7891 H   0  0  0  0  0  0  0  0  0  0  0  0
  145.5317   75.6430  220.3975 H   0  0  0  0  0  0  0  0  0  0  0  0
  143.0596   75.8934  220.1718 H   0  0  0  0  0  0  0  0  0  0  0  0
  140.2383   72.6433  219.0313 H   0  0  0  0  0  0  0  0  0  0  0  0
  138.9243   74.1708  217.7522 H   0  0  0  0  0  0  0  0  0  0  0  0
  138.8198   74.6055  219.5292 H   0  0  0  0  0  0  0  0  0  0  0  0
  139.0569   76.4558  217.6807 H   0  0  0  0  0  0  0  0  0  0  0  0
  139.9432   76.5167  219.3006 H   0  0  0  0  0  0  0  0  0  0  0  0
  140.4620   77.7680  215.4940 H   0  0  0  0  0  0  0  0  0  0  0  0
  143.2472   77.7282  218.6384 H   0  0  0  0  0  0  0  0  0  0  0  0
  142.3140   80.2930  217.5930 H   0  0  0  0  0  0  0  0  0  0  0  0
  143.8810   79.7090  217.8340 H   0  0  0  0  0  0  0  0  0  0  0  0
  142.9970   79.2130  216.4650 H   0  0  0  0  0  0  0  0  0  0  0  0
  140.5563   78.9191  219.0567 H   0  0  0  0  0  0  0  0  0  0  0  0
  143.1102   80.3491  219.7654 H   0  0  0  0  0  0  0  0  0  0  0  0
  141.4902   81.0191  219.6853 H   0  0  0  0  0  0  0  0  0  0  0  0
  142.3166   81.9887  222.2309 H   0  0  0  0  0  0  0  0  0  0  0  0
  142.0673   81.3271  224.6429 H   0  0  0  0  0  0  0  0  0  0  0  0
  141.5889   78.9423  225.2432 H   0  0  0  0  0  0  0  0  0  0  0  0
  141.3468   77.2152  223.4349 H   0  0  0  0  0  0  0  0  0  0  0  0
  142.4565   77.1277  220.5766 H   0  0  0  0  0  0  0  0  0  0  0  0
  140.7032   77.1457  220.6635 H   0  0  0  0  0  0  0  0  0  0  0  0
  142.1171   75.0412  216.2046 H   0  0  0  0  0  0  0  0  0  0  0  0
  142.9842   75.3087  217.8241 H   0  0  0  0  0  0  0  0  0  0  0  0
  141.1870   73.1470  216.9496 H   0  0  0  0  0  0  0  0  0  0  0  0
  142.5488   73.2275  218.1891 H   0  0  0  0  0  0  0  0  0  0  0  0
  1  2  1  0
  2  3  1  0
  3  4  2  0
  3  5  1  0
  5  6  1  0
  6  7  2  0
  7  8  1  0
  8  9  2  0
  9 10  1  0
 10 11  2  0
  5 12  1  0
 12 13  1  0
 13 14  1  0
 14 15  1  0
 15 16  2  3
 16 17  1  0
 16 18  1  0
 18 19  1  0
 18 20  1  0
 20 21  1  0
 21 22  1  0
 22 23  2  0
 23 24  1  0
 24 25  2  0
 25 26  1  0
 26 27  2  0
 27 28  1  0
 15 29  1  0
 29 30  1  0
 11  6  1  0
 30 12  1  0
 28 20  1  0
 27 22  1  0
  1 31  1  0
  1 32  1  0
  1 33  1  0
  2 34  1  0
  2 35  1  0
  7 36  1  0
  8 37  1  0
  9 38  1  0
 10 39  1  0
 11 40  1  0
 12 41  1  0
 13 42  1  0
 13 43  1  0
 14 44  1  0
 14 45  1  0
 17 46  1  0
 18 47  1  1
 19 48  1  0
 19 49  1  0
 19 50  1  0
 20 51  1  0
 21 52  1  0
 21 53  1  0
 23 54  1  0
 24 55  1  0
 25 56  1  0
 26 57  1  0
 28 58  1  0
 28 59  1  0
 29 60  1  0
 29 61  1  0
 30 62  1  0
 30 63  1  0
M  CHG  2  15   1  19   1
M  END
>  <meeko>  (9) 
{"free_energy": -7.61, "intermolecular_energy": -10.3, "internal_energy": -2.82, "cluster_size": 13, "cluster_id": 1, "rank_in_cluster": 12}

$$$$

     RDKit          3D

 63 66  0  0  0  0  0  0  0  0999 V2000
  138.6090   75.9810  222.3030 C   0  0  0  0  0  0  0  0  0  0  0  0
  140.0810   75.8400  221.9280 C   0  0  0  0  0  0  0  0  0  0  0  0
  140.4150   74.4260  221.5570 C   0  0  0  0  0  0  0  0  0  0  0  0
  140.1470   73.4970  222.3640 O   0  0  0  0  0  0  0  0  0  0  0  0
  141.1400   74.1300  220.3510 N   0  0  0  0  0  0  0  0  0  0  0  0
  142.5610   73.9510  220.4670 C   0  0  0  0  0  0  0  0  0  0  0  0
  143.0950   72.6780  220.7190 C   0  0  0  0  0  0  0  0  0  0  0  0
  144.4780   72.5020  220.8170 C   0  0  0  0  0  0  0  0  0  0  0  0
  145.3350   73.5970  220.6720 C   0  0  0  0  0  0  0  0  0  0  0  0
  144.8100   74.8710  220.4330 C   0  0  0  0  0  0  0  0  0  0  0  0
  143.4260   75.0490  220.3340 C   0  0  0  0  0  0  0  0  0  0  0  0
  140.4910   73.8930  219.0410 C   0  0  0  0  0  0  0  0  0  0  0  0
  139.3630   74.8660  218.7230 C   0  0  0  0  0  0  0  0  0  0  0  0
  139.8340   76.2780  218.3740 C   0  0  0  0  0  0  0  0  0  0  0  0
  141.1330   76.3770  217.6650 N   0  0  0  0  0  0  0  0  0  0  0  0
  141.6000   77.5720  217.3190 C   0  0  0  0  0  0  0  0  0  0  0  0
  141.3710   78.1100  216.0420 O   0  0  0  0  0  0  0  0  0  0  0  0
  142.4550   78.4490  218.2380 C   0  0  1  0  0  0  0  0  0  0  0  0
  142.9530   79.6010  217.4730 N   0  0  0  0  0  0  0  0  0  0  0  0
  141.6250   78.9140  219.4680 C   0  0  0  0  0  0  0  0  0  0  0  0
  141.9830   80.3460  219.9460 C   0  0  0  0  0  0  0  0  0  0  0  0
  141.9540   80.2380  221.4230 C   0  0  0  0  0  0  0  0  0  0  0  0
  142.0310   81.2870  222.3430 C   0  0  0  0  0  0  0  0  0  0  0  0
  142.0030   80.9860  223.7130 C   0  0  0  0  0  0  0  0  0  0  0  0
  141.9100   79.6480  224.1410 C   0  0  0  0  0  0  0  0  0  0  0  0
  141.8430   78.6090  223.2000 C   0  0  0  0  0  0  0  0  0  0  0  0
  141.8640   78.9340  221.8410 C   0  0  0  0  0  0  0  0  0  0  0  0
  141.8170   77.9910  220.7000 C   0  0  0  0  0  0  0  0  0  0  0  0
  141.9550   75.1850  217.3380 C   0  0  0  0  0  0  0  0  0  0  0  0
  141.4710   73.8270  217.8750 C   0  0  0  0  0  0  0  0  0  0  0  0
  138.5090   75.9906  223.3984 H   0  0  0  0  0  0  0  0  0  0  0  0
  138.2140   76.9211  221.8905 H   0  0  0  0  0  0  0  0  0  0  0  0
  138.0427   75.1330  221.8905 H   0  0  0  0  0  0  0  0  0  0  0  0
  140.2972   76.4958  221.0718 H   0  0  0  0  0  0  0  0  0  0  0  0
  140.6902   76.1239  222.7988 H   0  0  0  0  0  0  0  0  0  0  0  0
  142.4228   71.8157  220.8398 H   0  0  0  0  0  0  0  0  0  0  0  0
  144.8925   71.5012  221.0084 H   0  0  0  0  0  0  0  0  0  0  0  0
  146.4235   73.4563  220.7460 H   0  0  0  0  0  0  0  0  0  0  0  0
  145.4849   75.7326  220.3229 H   0  0  0  0  0  0  0  0  0  0  0  0
  143.0140   76.0525  220.1514 H   0  0  0  0  0  0  0  0  0  0  0  0
  140.0416   72.8959  219.1585 H   0  0  0  0  0  0  0  0  0  0  0  0
  138.7965   74.4698  217.8674 H   0  0  0  0  0  0  0  0  0  0  0  0
  138.7531   74.9521  219.6344 H   0  0  0  0  0  0  0  0  0  0  0  0
  139.0667   76.7398  217.7353 H   0  0  0  0  0  0  0  0  0  0  0  0
  139.9848   76.7855  219.3382 H   0  0  0  0  0  0  0  0  0  0  0  0
  141.3620   77.5870  215.1770 H   0  0  0  0  0  0  0  0  0  0  0  0
  143.3114   77.8691  218.6127 H   0  0  0  0  0  0  0  0  0  0  0  0
  143.0420   79.3620  216.4600 H   0  0  0  0  0  0  0  0  0  0  0  0
  142.2760   80.3960  217.5550 H   0  0  0  0  0  0  0  0  0  0  0  0
  143.8840   79.9110  217.8370 H   0  0  0  0  0  0  0  0  0  0  0  0
  140.5874   78.8802  219.1044 H   0  0  0  0  0  0  0  0  0  0  0  0
  142.9828   80.6392  219.5933 H   0  0  0  0  0  0  0  0  0  0  0  0
  141.2927   81.1104  219.5598 H   0  0  0  0  0  0  0  0  0  0  0  0
  142.1120   82.3289  221.9996 H   0  0  0  0  0  0  0  0  0  0  0  0
  142.0538   81.7971  224.4543 H   0  0  0  0  0  0  0  0  0  0  0  0
  141.8898   79.4163  225.2161 H   0  0  0  0  0  0  0  0  0  0  0  0
  141.7754   77.5604  223.5254 H   0  0  0  0  0  0  0  0  0  0  0  0
  142.7556   77.4226  220.6219 H   0  0  0  0  0  0  0  0  0  0  0  0
  141.0185   77.2410  220.7994 H   0  0  0  0  0  0  0  0  0  0  0  0
  142.0050   75.1084  216.2418 H   0  0  0  0  0  0  0  0  0  0  0  0
  142.9189   75.3600  217.8383 H   0  0  0  0  0  0  0  0  0  0  0  0
  140.9794   73.2919  217.0492 H   0  0  0  0  0  0  0  0  0  0  0  0
  142.3666   73.3191  218.2621 H   0  0  0  0  0  0  0  0  0  0  0  0
  1  2  1  0
  2  3  1  0
  3  4  2  0
  3  5  1  0
  5  6  1  0
  6  7  2  0
  7  8  1  0
  8  9  2  0
  9 10  1  0
 10 11  2  0
  5 12  1  0
 12 13  1  0
 13 14  1  0
 14 15  1  0
 15 16  2  3
 16 17  1  0
 16 18  1  0
 18 19  1  0
 18 20  1  0
 20 21  1  0
 21 22  1  0
 22 23  2  0
 23 24  1  0
 24 25  2  0
 25 26  1  0
 26 27  2  0
 27 28  1  0
 15 29  1  0
 29 30  1  0
 11  6  1  0
 30 12  1  0
 28 20  1  0
 27 22  1  0
  1 31  1  0
  1 32  1  0
  1 33  1  0
  2 34  1  0
  2 35  1  0
  7 36  1  0
  8 37  1  0
  9 38  1  0
 10 39  1  0
 11 40  1  0
 12 41  1  0
 13 42  1  0
 13 43  1  0
 14 44  1  0
 14 45  1  0
 17 46  1  0
 18 47  1  1
 19 48  1  0
 19 49  1  0
 19 50  1  0
 20 51  1  0
 21 52  1  0
 21 53  1  0
 23 54  1  0
 24 55  1  0
 25 56  1  0
 26 57  1  0
 28 58  1  0
 28 59  1  0
 29 60  1  0
 29 61  1  0
 30 62  1  0
 30 63  1  0
M  CHG  2  15   1  19   1
M  END
>  <meeko>  (10) 
{"free_energy": -7.91, "intermolecular_energy": -10.6, "internal_energy": -2.67, "cluster_size": 13, "cluster_id": 1, "rank_in_cluster": 9}

$$$$

     RDKit          3D

 63 66  0  0  0  0  0  0  0  0999 V2000
  139.0900   75.8450  221.8230 C   0  0  0  0  0  0  0  0  0  0  0  0
  139.9670   76.9840  222.3350 C   0  0  0  0  0  0  0  0  0  0  0  0
  139.1630   78.2270  222.5690 C   0  0  0  0  0  0  0  0  0  0  0  0
  137.9970   78.1270  223.0370 O   0  0  0  0  0  0  0  0  0  0  0  0
  139.6530   79.5140  222.1580 N   0  0  0  0  0  0  0  0  0  0  0  0
  140.9020   79.9500  222.7180 C   0  0  0  0  0  0  0  0  0  0  0  0
  142.1070   79.3630  222.3010 C   0  0  0  0  0  0  0  0  0  0  0  0
  143.3230   79.7980  222.8350 C   0  0  0  0  0  0  0  0  0  0  0  0
  143.3430   80.8150  223.7950 C   0  0  0  0  0  0  0  0  0  0  0  0
  142.1460   81.3950  224.2240 C   0  0  0  0  0  0  0  0  0  0  0  0
  140.9280   80.9620  223.6910 C   0  0  0  0  0  0  0  0  0  0  0  0
  139.0020   80.3460  221.1200 C   0  0  0  0  0  0  0  0  0  0  0  0
  139.7990   81.5820  220.7240 C   0  0  0  0  0  0  0  0  0  0  0  0
  141.0410   81.2830  219.8830 C   0  0  0  0  0  0  0  0  0  0  0  0
  140.9420   80.1270  218.9590 N   0  0  0  0  0  0  0  0  0  0  0  0
  141.9780   79.8160  218.1880 C   0  0  0  0  0  0  0  0  0  0  0  0
  142.9570   80.7650  217.8520 O   0  0  0  0  0  0  0  0  0  0  0  0
  142.1860   78.4330  217.5620 C   0  0  1  0  0  0  0  0  0  0  0  0
  142.9190   78.5870  216.2970 N   0  0  0  0  0  0  0  0  0  0  0  0
  142.9570   77.5060  218.5430 C   0  0  0  0  0  0  0  0  0  0  0  0
  143.5580   76.2490  217.8580 C   0  0  0  0  0  0  0  0  0  0  0  0
  143.3240   75.1690  218.8450 C   0  0  0  0  0  0  0  0  0  0  0  0
  143.8320   73.8680  218.8010 C   0  0  0  0  0  0  0  0  0  0  0  0
  143.4870   72.9750  219.8260 C   0  0  0  0  0  0  0  0  0  0  0  0
  142.6350   73.3890  220.8680 C   0  0  0  0  0  0  0  0  0  0  0  0
  142.1300   74.6980  220.8880 C   0  0  0  0  0  0  0  0  0  0  0  0
  142.4940   75.5730  219.8610 C   0  0  0  0  0  0  0  0  0  0  0  0
  142.0610   76.9790  219.6940 C   0  0  0  0  0  0  0  0  0  0  0  0
  139.7270   79.2790  218.8720 C   0  0  0  0  0  0  0  0  0  0  0  0
  138.5960   79.5640  219.8750 C   0  0  0  0  0  0  0  0  0  0  0  0
  138.6670   75.2956  222.6769 H   0  0  0  0  0  0  0  0  0  0  0  0
  138.2738   76.2571  221.2115 H   0  0  0  0  0  0  0  0  0  0  0  0
  139.6970   75.1612  221.2115 H   0  0  0  0  0  0  0  0  0  0  0  0
  140.4364   76.6773  223.2814 H   0  0  0  0  0  0  0  0  0  0  0  0
  140.7313   77.2027  221.5747 H   0  0  0  0  0  0  0  0  0  0  0  0
  142.0941   78.5580  221.5515 H   0  0  0  0  0  0  0  0  0  0  0  0
  144.2654   79.3401  222.5000 H   0  0  0  0  0  0  0  0  0  0  0  0
  144.3010   81.1584  224.2124 H   0  0  0  0  0  0  0  0  0  0  0  0
  142.1621   82.1926  224.9814 H   0  0  0  0  0  0  0  0  0  0  0  0
  139.9869   81.4158  224.0351 H   0  0  0  0  0  0  0  0  0  0  0  0
  138.0830   80.6929  221.6152 H   0  0  0  0  0  0  0  0  0  0  0  0
  139.1410   82.2458  220.1440 H   0  0  0  0  0  0  0  0  0  0  0  0
  140.1526   82.0432  221.6579 H   0  0  0  0  0  0  0  0  0  0  0  0
  141.2618   82.1765  219.2806 H   0  0  0  0  0  0  0  0  0  0  0  0
  141.8284   81.0178  220.6038 H   0  0  0  0  0  0  0  0  0  0  0  0
  143.8590   80.5590  217.4450 H   0  0  0  0  0  0  0  0  0  0  0  0
  141.2109   77.9664  217.3585 H   0  0  0  0  0  0  0  0  0  0  0  0
  142.9830   79.5940  216.0260 H   0  0  0  0  0  0  0  0  0  0  0  0
  143.8940   78.2230  216.4090 H   0  0  0  0  0  0  0  0  0  0  0  0
  142.4450   78.0540  215.5300 H   0  0  0  0  0  0  0  0  0  0  0  0
  143.7593   78.1522  218.9288 H   0  0  0  0  0  0  0  0  0  0  0  0
  143.0423   76.0337  216.9105 H   0  0  0  0  0  0  0  0  0  0  0  0
  144.6205   76.3696  217.6002 H   0  0  0  0  0  0  0  0  0  0  0  0
  144.4897   73.5504  217.9784 H   0  0  0  0  0  0  0  0  0  0  0  0
  143.8829   71.9488  219.8160 H   0  0  0  0  0  0  0  0  0  0  0  0
  142.3647   72.6844  221.6683 H   0  0  0  0  0  0  0  0  0  0  0  0
  141.4609   75.0288  221.6960 H   0  0  0  0  0  0  0  0  0  0  0  0
  140.9974   77.0317  219.4185 H   0  0  0  0  0  0  0  0  0  0  0  0
  142.1626   77.5686  220.6171 H   0  0  0  0  0  0  0  0  0  0  0  0
  139.3108   79.4003  217.8610 H   0  0  0  0  0  0  0  0  0  0  0  0
  140.0725   78.2636  219.1161 H   0  0  0  0  0  0  0  0  0  0  0  0
  137.8173   80.1393  219.3528 H   0  0  0  0  0  0  0  0  0  0  0  0
  138.2567   78.5811  220.2339 H   0  0  0  0  0  0  0  0  0  0  0  0
  1  2  1  0
  2  3  1  0
  3  4  2  0
  3  5  1  0
  5  6  1  0
  6  7  2  0
  7  8  1  0
  8  9  2  0
  9 10  1  0
 10 11  2  0
  5 12  1  0
 12 13  1  0
 13 14  1  0
 14 15  1  0
 15 16  2  3
 16 17  1  0
 16 18  1  0
 18 19  1  0
 18 20  1  0
 20 21  1  0
 21 22  1  0
 22 23  2  0
 23 24  1  0
 24 25  2  0
 25 26  1  0
 26 27  2  0
 27 28  1  0
 15 29  1  0
 29 30  1  0
 11  6  1  0
 30 12  1  0
 28 20  1  0
 27 22  1  0
  1 31  1  0
  1 32  1  0
  1 33  1  0
  2 34  1  0
  2 35  1  0
  7 36  1  0
  8 37  1  0
  9 38  1  0
 10 39  1  0
 11 40  1  0
 12 41  1  0
 13 42  1  0
 13 43  1  0
 14 44  1  0
 14 45  1  0
 17 46  1  0
 18 47  1  6
 19 48  1  0
 19 49  1  0
 19 50  1  0
 20 51  1  0
 21 52  1  0
 21 53  1  0
 23 54  1  0
 24 55  1  0
 25 56  1  0
 26 57  1  0
 28 58  1  0
 28 59  1  0
 29 60  1  0
 29 61  1  0
 30 62  1  0
 30 63  1  0
M  CHG  2  15   1  19   1
M  END
>  <meeko>  (11) 
{"free_energy": -7.79, "intermolecular_energy": -10.48, "internal_energy": -2.45, "cluster_size": 6, "cluster_id": 2, "rank_in_cluster": 5}

$$$$

     RDKit          3D

 63 66  0  0  0  0  0  0  0  0999 V2000
  138.6670   76.0890  222.3270 C   0  0  0  0  0  0  0  0  0  0  0  0
  140.1330   75.8710  221.9650 C   0  0  0  0  0  0  0  0  0  0  0  0
  140.3900   74.4490  221.5670 C   0  0  0  0  0  0  0  0  0  0  0  0
  140.0680   73.5210  222.3570 O   0  0  0  0  0  0  0  0  0  0  0  0
  141.1020   74.1360  220.3580 N   0  0  0  0  0  0  0  0  0  0  0  0
  142.5200   73.9310  220.4660 C   0  0  0  0  0  0  0  0  0  0  0  0
  143.4000   75.0180  220.3510 C   0  0  0  0  0  0  0  0  0  0  0  0
  144.7790   74.8220  220.4700 C   0  0  0  0  0  0  0  0  0  0  0  0
  145.2860   73.5390  220.6960 C   0  0  0  0  0  0  0  0  0  0  0  0
  144.4150   72.4490  220.7990 C   0  0  0  0  0  0  0  0  0  0  0  0
  143.0360   72.6440  220.6800 C   0  0  0  0  0  0  0  0  0  0  0  0
  140.4390   73.9070  219.0530 C   0  0  0  0  0  0  0  0  0  0  0  0
  139.3490   74.9200  218.7250 C   0  0  0  0  0  0  0  0  0  0  0  0
  139.8750   76.3080  218.3560 C   0  0  0  0  0  0  0  0  0  0  0  0
  141.1740   76.3460  217.6420 N   0  0  0  0  0  0  0  0  0  0  0  0
  141.6870   77.5170  217.2800 C   0  0  0  0  0  0  0  0  0  0  0  0
  141.5590   78.0020  215.9680 O   0  0  0  0  0  0  0  0  0  0  0  0
  142.4910   78.4210  218.2200 C   0  0  1  0  0  0  0  0  0  0  0  0
  142.9510   79.6000  217.4720 N   0  0  0  0  0  0  0  0  0  0  0  0
  141.6230   78.8400  219.4400 C   0  0  0  0  0  0  0  0  0  0  0  0
  141.8690   80.3030  219.8960 C   0  0  0  0  0  0  0  0  0  0  0  0
  141.8440   80.2160  221.3750 C   0  0  0  0  0  0  0  0  0  0  0  0
  141.8370   81.2820  222.2780 C   0  0  0  0  0  0  0  0  0  0  0  0
  141.8280   81.0010  223.6530 C   0  0  0  0  0  0  0  0  0  0  0  0
  141.8360   79.6660  224.1020 C   0  0  0  0  0  0  0  0  0  0  0  0
  141.8510   78.6110  223.1770 C   0  0  0  0  0  0  0  0  0  0  0  0
  141.8530   78.9150  221.8130 C   0  0  0  0  0  0  0  0  0  0  0  0
  141.8810   77.9540  220.6870 C   0  0  0  0  0  0  0  0  0  0  0  0
  141.9480   75.1190  217.3300 C   0  0  0  0  0  0  0  0  0  0  0  0
  141.4120   73.7880  217.8860 C   0  0  0  0  0  0  0  0  0  0  0  0
  138.5581   76.1052  223.4215 H   0  0  0  0  0  0  0  0  0  0  0  0
  138.3251   77.0479  221.9103 H   0  0  0  0  0  0  0  0  0  0  0  0
  138.0609   75.2711  221.9103 H   0  0  0  0  0  0  0  0  0  0  0  0
  140.3968   76.5313  221.1257 H   0  0  0  0  0  0  0  0  0  0  0  0
  140.7467   76.1006  222.8486 H   0  0  0  0  0  0  0  0  0  0  0  0
  143.0035   76.0274  220.1666 H   0  0  0  0  0  0  0  0  0  0  0  0
  145.4653   75.6775  220.3858 H   0  0  0  0  0  0  0  0  0  0  0  0
  146.3710   73.3863  220.7930 H   0  0  0  0  0  0  0  0  0  0  0  0
  144.8151   71.4393  220.9735 H   0  0  0  0  0  0  0  0  0  0  0  0
  142.3527   71.7851  220.7544 H   0  0  0  0  0  0  0  0  0  0  0  0
  139.9507   72.9302  219.1849 H   0  0  0  0  0  0  0  0  0  0  0  0
  138.7645   74.5355  217.8762 H   0  0  0  0  0  0  0  0  0  0  0  0
  138.7457   75.0422  219.6366 H   0  0  0  0  0  0  0  0  0  0  0  0
  139.1244   76.7918  217.7137 H   0  0  0  0  0  0  0  0  0  0  0  0
  140.0494   76.8213  219.3131 H   0  0  0  0  0  0  0  0  0  0  0  0
  141.7390   77.4730  215.1260 H   0  0  0  0  0  0  0  0  0  0  0  0
  143.3653   77.8745  218.6034 H   0  0  0  0  0  0  0  0  0  0  0  0
  143.0990   79.3650  216.4650 H   0  0  0  0  0  0  0  0  0  0  0  0
  142.2250   80.3520  217.5200 H   0  0  0  0  0  0  0  0  0  0  0  0
  143.8450   79.9660  217.8750 H   0  0  0  0  0  0  0  0  0  0  0  0
  140.5923   78.7209  219.0747 H   0  0  0  0  0  0  0  0  0  0  0  0
  142.8444   80.6664  219.5404 H   0  0  0  0  0  0  0  0  0  0  0  0
  141.1234   81.0062  219.4966 H   0  0  0  0  0  0  0  0  0  0  0  0
  141.8385   82.3215  221.9182 H   0  0  0  0  0  0  0  0  0  0  0  0
  141.8147   81.8250  224.3815 H   0  0  0  0  0  0  0  0  0  0  0  0
  141.8305   79.4499  225.1806 H   0  0  0  0  0  0  0  0  0  0  0  0
  141.8610   77.5655  223.5187 H   0  0  0  0  0  0  0  0  0  0  0  0
  142.8602   77.4575  220.6195 H   0  0  0  0  0  0  0  0  0  0  0  0
  141.1413   77.1473  220.7969 H   0  0  0  0  0  0  0  0  0  0  0  0
  141.9929   75.0258  216.2349 H   0  0  0  0  0  0  0  0  0  0  0  0
  142.9189   75.2628  217.8266 H   0  0  0  0  0  0  0  0  0  0  0  0
  140.8973   73.2622  217.0683 H   0  0  0  0  0  0  0  0  0  0  0  0
  142.2881   73.2505  218.2778 H   0  0  0  0  0  0  0  0  0  0  0  0
  1  2  1  0
  2  3  1  0
  3  4  2  0
  3  5  1  0
  5  6  1  0
  6  7  2  0
  7  8  1  0
  8  9  2  0
  9 10  1  0
 10 11  2  0
  5 12  1  0
 12 13  1  0
 13 14  1  0
 14 15  1  0
 15 16  2  3
 16 17  1  0
 16 18  1  0
 18 19  1  0
 18 20  1  0
 20 21  1  0
 21 22  1  0
 22 23  2  0
 23 24  1  0
 24 25  2  0
 25 26  1  0
 26 27  2  0
 27 28  1  0
 15 29  1  0
 29 30  1  0
 11  6  1  0
 30 12  1  0
 28 20  1  0
 27 22  1  0
  1 31  1  0
  1 32  1  0
  1 33  1  0
  2 34  1  0
  2 35  1  0
  7 36  1  0
  8 37  1  0
  9 38  1  0
 10 39  1  0
 11 40  1  0
 12 41  1  0
 13 42  1  0
 13 43  1  0
 14 44  1  0
 14 45  1  0
 17 46  1  0
 18 47  1  1
 19 48  1  0
 19 49  1  0
 19 50  1  0
 20 51  1  0
 21 52  1  0
 21 53  1  0
 23 54  1  0
 24 55  1  0
 25 56  1  0
 26 57  1  0
 28 58  1  0
 28 59  1  0
 29 60  1  0
 29 61  1  0
 30 62  1  0
 30 63  1  0
M  CHG  2  15   1  19   1
M  END
>  <meeko>  (12) 
{"free_energy": -7.93, "intermolecular_energy": -10.62, "internal_energy": -2.66, "cluster_size": 13, "cluster_id": 1, "rank_in_cluster": 5}

$$$$

     RDKit          3D

 63 66  0  0  0  0  0  0  0  0999 V2000
  138.7320   76.1600  222.1530 C   0  0  0  0  0  0  0  0  0  0  0  0
  140.2100   75.8270  221.9730 C   0  0  0  0  0  0  0  0  0  0  0  0
  140.3990   74.3970  221.5630 C   0  0  0  0  0  0  0  0  0  0  0  0
  140.0300   73.4780  222.3420 O   0  0  0  0  0  0  0  0  0  0  0  0
  141.0990   74.0610  220.3530 N   0  0  0  0  0  0  0  0  0  0  0  0
  142.5140   73.8320  220.4560 C   0  0  0  0  0  0  0  0  0  0  0  0
  143.4130   74.9050  220.3480 C   0  0  0  0  0  0  0  0  0  0  0  0
  144.7880   74.6840  220.4630 C   0  0  0  0  0  0  0  0  0  0  0  0
  145.2740   73.3910  220.6770 C   0  0  0  0  0  0  0  0  0  0  0  0
  144.3860   72.3160  220.7730 C   0  0  0  0  0  0  0  0  0  0  0  0
  143.0100   72.5340  220.6590 C   0  0  0  0  0  0  0  0  0  0  0  0
  140.4270   73.8330  219.0530 C   0  0  0  0  0  0  0  0  0  0  0  0
  139.3250   74.8370  218.7400 C   0  0  0  0  0  0  0  0  0  0  0  0
  139.8340   76.2320  218.3750 C   0  0  0  0  0  0  0  0  0  0  0  0
  141.1260   76.2860  217.6490 N   0  0  0  0  0  0  0  0  0  0  0  0
  141.6240   77.4640  217.2880 C   0  0  0  0  0  0  0  0  0  0  0  0
  141.4640   77.9630  215.9840 O   0  0  0  0  0  0  0  0  0  0  0  0
  142.4450   78.3620  218.2190 C   0  0  1  0  0  0  0  0  0  0  0  0
  142.9470   79.5120  217.4540 N   0  0  0  0  0  0  0  0  0  0  0  0
  141.5780   78.8280  219.4220 C   0  0  0  0  0  0  0  0  0  0  0  0
  141.8180   80.3100  219.8160 C   0  0  0  0  0  0  0  0  0  0  0  0
  141.7970   80.2850  221.2970 C   0  0  0  0  0  0  0  0  0  0  0  0
  141.7870   81.3890  222.1540 C   0  0  0  0  0  0  0  0  0  0  0  0
  141.7820   81.1660  223.5400 C   0  0  0  0  0  0  0  0  0  0  0  0
  141.7960   79.8520  224.0440 C   0  0  0  0  0  0  0  0  0  0  0  0
  141.8140   78.7590  223.1650 C   0  0  0  0  0  0  0  0  0  0  0  0
  141.8120   79.0050  221.7890 C   0  0  0  0  0  0  0  0  0  0  0  0
  141.8420   77.9970  220.7050 C   0  0  0  0  0  0  0  0  0  0  0  0
  141.9080   75.0680  217.3220 C   0  0  0  0  0  0  0  0  0  0  0  0
  141.3900   73.7290  217.8760 C   0  0  0  0  0  0  0  0  0  0  0  0
  138.4962   76.2131  223.2261 H   0  0  0  0  0  0  0  0  0  0  0  0
  138.5145   77.1297  221.6813 H   0  0  0  0  0  0  0  0  0  0  0  0
  138.1197   75.3773  221.6813 H   0  0  0  0  0  0  0  0  0  0  0  0
  140.6331   76.4815  221.1967 H   0  0  0  0  0  0  0  0  0  0  0  0
  140.7213   75.9837  222.9343 H   0  0  0  0  0  0  0  0  0  0  0  0
  143.0339   75.9226  220.1724 H   0  0  0  0  0  0  0  0  0  0  0  0
  145.4886   75.5284  220.3850 H   0  0  0  0  0  0  0  0  0  0  0  0
  146.3565   73.2194  220.7700 H   0  0  0  0  0  0  0  0  0  0  0  0
  144.7699   71.2985  220.9382 H   0  0  0  0  0  0  0  0  0  0  0  0
  142.3131   71.6857  220.7286 H   0  0  0  0  0  0  0  0  0  0  0  0
  139.9496   72.8508  219.1847 H   0  0  0  0  0  0  0  0  0  0  0  0
  138.7373   74.4517  217.8937 H   0  0  0  0  0  0  0  0  0  0  0  0
  138.7283   74.9480  219.6574 H   0  0  0  0  0  0  0  0  0  0  0  0
  139.0729   76.7126  217.7427 H   0  0  0  0  0  0  0  0  0  0  0  0
  140.0122   76.7415  219.3334 H   0  0  0  0  0  0  0  0  0  0  0  0
  140.5820   78.1920  215.5480 H   0  0  0  0  0  0  0  0  0  0  0  0
  143.2995   77.7982  218.6215 H   0  0  0  0  0  0  0  0  0  0  0  0
  143.1260   79.2460  216.4600 H   0  0  0  0  0  0  0  0  0  0  0  0
  142.2300   80.2750  217.4560 H   0  0  0  0  0  0  0  0  0  0  0  0
  143.8320   79.8780  217.8770 H   0  0  0  0  0  0  0  0  0  0  0  0
  140.5474   78.6887  219.0635 H   0  0  0  0  0  0  0  0  0  0  0  0
  142.7908   80.6629  219.4430 H   0  0  0  0  0  0  0  0  0  0  0  0
  141.0679   80.9923  219.3896 H   0  0  0  0  0  0  0  0  0  0  0  0
  141.7831   82.4123  221.7505 H   0  0  0  0  0  0  0  0  0  0  0  0
  141.7671   82.0198  224.2334 H   0  0  0  0  0  0  0  0  0  0  0  0
  141.7928   79.6816  225.1307 H   0  0  0  0  0  0  0  0  0  0  0  0
  141.8294   77.7290  223.5508 H   0  0  0  0  0  0  0  0  0  0  0  0
  142.8232   77.5021  220.6567 H   0  0  0  0  0  0  0  0  0  0  0  0
  141.1059   77.1927  220.8506 H   0  0  0  0  0  0  0  0  0  0  0  0
  141.9424   74.9814  216.2260 H   0  0  0  0  0  0  0  0  0  0  0  0
  142.8827   75.2180  217.8092 H   0  0  0  0  0  0  0  0  0  0  0  0
  140.8725   73.2026  217.0605 H   0  0  0  0  0  0  0  0  0  0  0  0
  142.2748   73.1976  218.2565 H   0  0  0  0  0  0  0  0  0  0  0  0
  1  2  1  0
  2  3  1  0
  3  4  2  0
  3  5  1  0
  5  6  1  0
  6  7  2  0
  7  8  1  0
  8  9  2  0
  9 10  1  0
 10 11  2  0
  5 12  1  0
 12 13  1  0
 13 14  1  0
 14 15  1  0
 15 16  2  3
 16 17  1  0
 16 18  1  0
 18 19  1  0
 18 20  1  0
 20 21  1  0
 21 22  1  0
 22 23  2  0
 23 24  1  0
 24 25  2  0
 25 26  1  0
 26 27  2  0
 27 28  1  0
 15 29  1  0
 29 30  1  0
 11  6  1  0
 30 12  1  0
 28 20  1  0
 27 22  1  0
  1 31  1  0
  1 32  1  0
  1 33  1  0
  2 34  1  0
  2 35  1  0
  7 36  1  0
  8 37  1  0
  9 38  1  0
 10 39  1  0
 11 40  1  0
 12 41  1  0
 13 42  1  0
 13 43  1  0
 14 44  1  0
 14 45  1  0
 17 46  1  0
 18 47  1  1
 19 48  1  0
 19 49  1  0
 19 50  1  0
 20 51  1  0
 21 52  1  0
 21 53  1  0
 23 54  1  0
 24 55  1  0
 25 56  1  0
 26 57  1  0
 28 58  1  0
 28 59  1  0
 29 60  1  0
 29 61  1  0
 30 62  1  0
 30 63  1  0
M  CHG  2  15   1  19   1
M  END
>  <meeko>  (13) 
{"free_energy": -7.91, "intermolecular_energy": -10.6, "internal_energy": -2.66, "cluster_size": 13, "cluster_id": 1, "rank_in_cluster": 8}

$$$$

     RDKit          3D

 63 66  0  0  0  0  0  0  0  0999 V2000
  138.7610   75.9970  222.2870 C   0  0  0  0  0  0  0  0  0  0  0  0
  140.2260   75.8080  221.9030 C   0  0  0  0  0  0  0  0  0  0  0  0
  140.5150   74.3800  221.5470 C   0  0  0  0  0  0  0  0  0  0  0  0
  140.2240   73.4700  222.3670 O   0  0  0  0  0  0  0  0  0  0  0  0
  141.2250   74.0480  220.3420 N   0  0  0  0  0  0  0  0  0  0  0  0
  142.6440   73.8490  220.4500 C   0  0  0  0  0  0  0  0  0  0  0  0
  143.1660   72.5560  220.6090 C   0  0  0  0  0  0  0  0  0  0  0  0
  144.5470   72.3620  220.6990 C   0  0  0  0  0  0  0  0  0  0  0  0
  145.4140   73.4570  220.6370 C   0  0  0  0  0  0  0  0  0  0  0  0
  144.9000   74.7490  220.4910 C   0  0  0  0  0  0  0  0  0  0  0  0
  143.5190   74.9460  220.4010 C   0  0  0  0  0  0  0  0  0  0  0  0
  140.5600   73.7950  219.0430 C   0  0  0  0  0  0  0  0  0  0  0  0
  139.4110   74.7470  218.7380 C   0  0  0  0  0  0  0  0  0  0  0  0
  139.8530   76.1660  218.3770 C   0  0  0  0  0  0  0  0  0  0  0  0
  141.1390   76.2840  217.6480 N   0  0  0  0  0  0  0  0  0  0  0  0
  141.5800   77.4850  217.2910 C   0  0  0  0  0  0  0  0  0  0  0  0
  141.3400   78.0070  216.0090 O   0  0  0  0  0  0  0  0  0  0  0  0
  142.4160   78.3900  218.2020 C   0  0  1  0  0  0  0  0  0  0  0  0
  142.9100   79.5320  217.4190 N   0  0  0  0  0  0  0  0  0  0  0  0
  141.5680   78.8690  219.4130 C   0  0  0  0  0  0  0  0  0  0  0  0
  141.8380   80.3450  219.8080 C   0  0  0  0  0  0  0  0  0  0  0  0
  141.8280   80.3180  221.2890 C   0  0  0  0  0  0  0  0  0  0  0  0
  141.8450   81.4190  222.1490 C   0  0  0  0  0  0  0  0  0  0  0  0
  141.8470   81.1930  223.5340 C   0  0  0  0  0  0  0  0  0  0  0  0
  141.8420   79.8780  224.0350 C   0  0  0  0  0  0  0  0  0  0  0  0
  141.8330   78.7870  223.1540 C   0  0  0  0  0  0  0  0  0  0  0  0
  141.8240   79.0360  221.7780 C   0  0  0  0  0  0  0  0  0  0  0  0
  141.8260   78.0300  220.6920 C   0  0  0  0  0  0  0  0  0  0  0  0
  141.9760   75.1060  217.3130 C   0  0  0  0  0  0  0  0  0  0  0  0
  141.5240   73.7420  217.8630 C   0  0  0  0  0  0  0  0  0  0  0  0
  138.6678   76.0090  223.3830 H   0  0  0  0  0  0  0  0  0  0  0  0
  138.3946   76.9499  221.8774 H   0  0  0  0  0  0  0  0  0  0  0  0
  138.1647   75.1683  221.8774 H   0  0  0  0  0  0  0  0  0  0  0  0
  140.4550   76.4467  221.0372 H   0  0  0  0  0  0  0  0  0  0  0  0
  140.8500   76.0844  222.7657 H   0  0  0  0  0  0  0  0  0  0  0  0
  142.4862   71.6929  220.6629 H   0  0  0  0  0  0  0  0  0  0  0  0
  144.9524   71.3465  220.8188 H   0  0  0  0  0  0  0  0  0  0  0  0
  146.5010   73.3020  220.7031 H   0  0  0  0  0  0  0  0  0  0  0  0
  145.5824   75.6106  220.4469 H   0  0  0  0  0  0  0  0  0  0  0  0
  143.1165   75.9638  220.2914 H   0  0  0  0  0  0  0  0  0  0  0  0
  140.1289   72.7911  219.1711 H   0  0  0  0  0  0  0  0  0  0  0  0
  138.8390   74.3379  217.8921 H   0  0  0  0  0  0  0  0  0  0  0  0
  138.8128   74.8261  219.6577 H   0  0  0  0  0  0  0  0  0  0  0  0
  139.0684   76.6126  217.7485 H   0  0  0  0  0  0  0  0  0  0  0  0
  140.0098   76.6795  219.3371 H   0  0  0  0  0  0  0  0  0  0  0  0
  140.7460   77.5880  215.3070 H   0  0  0  0  0  0  0  0  0  0  0  0
  143.2748   77.8278  218.5976 H   0  0  0  0  0  0  0  0  0  0  0  0
  143.8230   79.8700  217.7940 H   0  0  0  0  0  0  0  0  0  0  0  0
  143.0610   79.2380  216.4260 H   0  0  0  0  0  0  0  0  0  0  0  0
  142.2180   80.3180  217.4370 H   0  0  0  0  0  0  0  0  0  0  0  0
  140.5322   78.7496  219.0625 H   0  0  0  0  0  0  0  0  0  0  0  0
  142.8142   80.6807  219.4281 H   0  0  0  0  0  0  0  0  0  0  0  0
  141.0970   81.0415  219.3887 H   0  0  0  0  0  0  0  0  0  0  0  0
  141.8566   82.4433  221.7481 H   0  0  0  0  0  0  0  0  0  0  0  0
  141.8525   82.0454  224.2293 H   0  0  0  0  0  0  0  0  0  0  0  0
  141.8452   79.7053  225.1214 H   0  0  0  0  0  0  0  0  0  0  0  0
  141.8330   77.7561  223.5376 H   0  0  0  0  0  0  0  0  0  0  0  0
  142.7970   77.5164  220.6349 H   0  0  0  0  0  0  0  0  0  0  0  0
  141.0758   77.2395  220.8418 H   0  0  0  0  0  0  0  0  0  0  0  0
  142.0102   75.0256  216.2165 H   0  0  0  0  0  0  0  0  0  0  0  0
  142.9444   75.2998  217.7973 H   0  0  0  0  0  0  0  0  0  0  0  0
  141.0301   73.1946  217.0467 H   0  0  0  0  0  0  0  0  0  0  0  0
  142.4343   73.2523  218.2394 H   0  0  0  0  0  0  0  0  0  0  0  0
  1  2  1  0
  2  3  1  0
  3  4  2  0
  3  5  1  0
  5  6  1  0
  6  7  2  0
  7  8  1  0
  8  9  2  0
  9 10  1  0
 10 11  2  0
  5 12  1  0
 12 13  1  0
 13 14  1  0
 14 15  1  0
 15 16  2  3
 16 17  1  0
 16 18  1  0
 18 19  1  0
 18 20  1  0
 20 21  1  0
 21 22  1  0
 22 23  2  0
 23 24  1  0
 24 25  2  0
 25 26  1  0
 26 27  2  0
 27 28  1  0
 15 29  1  0
 29 30  1  0
 11  6  1  0
 30 12  1  0
 28 20  1  0
 27 22  1  0
  1 31  1  0
  1 32  1  0
  1 33  1  0
  2 34  1  0
  2 35  1  0
  7 36  1  0
  8 37  1  0
  9 38  1  0
 10 39  1  0
 11 40  1  0
 12 41  1  0
 13 42  1  0
 13 43  1  0
 14 44  1  0
 14 45  1  0
 17 46  1  0
 18 47  1  1
 19 48  1  0
 19 49  1  0
 19 50  1  0
 20 51  1  0
 21 52  1  0
 21 53  1  0
 23 54  1  0
 24 55  1  0
 25 56  1  0
 26 57  1  0
 28 58  1  0
 28 59  1  0
 29 60  1  0
 29 61  1  0
 30 62  1  0
 30 63  1  0
M  CHG  2  15   1  19   1
M  END
>  <meeko>  (14) 
{"free_energy": -7.9, "intermolecular_energy": -10.59, "internal_energy": -2.64, "cluster_size": 13, "cluster_id": 1, "rank_in_cluster": 10}

$$$$

     RDKit          3D

 63 66  0  0  0  0  0  0  0  0999 V2000
  138.1910   76.6820  222.3610 C   0  0  0  0  0  0  0  0  0  0  0  0
  139.3530   77.6710  222.3880 C   0  0  0  0  0  0  0  0  0  0  0  0
  138.8760   79.0620  222.6830 C   0  0  0  0  0  0  0  0  0  0  0  0
  137.7510   79.2250  223.2240 O   0  0  0  0  0  0  0  0  0  0  0  0
  139.6280   80.2080  222.2510 N   0  0  0  0  0  0  0  0  0  0  0  0
  140.9700   80.3390  222.7480 C   0  0  0  0  0  0  0  0  0  0  0  0
  141.2680   81.2880  223.7370 C   0  0  0  0  0  0  0  0  0  0  0  0
  142.5700   81.4050  224.2300 C   0  0  0  0  0  0  0  0  0  0  0  0
  143.5840   80.5800  223.7330 C   0  0  0  0  0  0  0  0  0  0  0  0
  143.2970   79.6400  222.7390 C   0  0  0  0  0  0  0  0  0  0  0  0
  141.9950   79.5210  222.2440 C   0  0  0  0  0  0  0  0  0  0  0  0
  139.1340   81.1830  221.2510 C   0  0  0  0  0  0  0  0  0  0  0  0
  140.1450   82.2610  220.8820 C   0  0  0  0  0  0  0  0  0  0  0  0
  141.3010   81.7650  220.0130 C   0  0  0  0  0  0  0  0  0  0  0  0
  140.9780   80.6800  219.0540 N   0  0  0  0  0  0  0  0  0  0  0  0
  141.9300   80.2070  218.2570 C   0  0  0  0  0  0  0  0  0  0  0  0
  142.9200   81.0440  217.7150 O   0  0  0  0  0  0  0  0  0  0  0  0
  142.0210   78.7430  217.8180 C   0  0  1  0  0  0  0  0  0  0  0  0
  142.9430   78.6420  216.6770 N   0  0  0  0  0  0  0  0  0  0  0  0
  142.4980   77.8530  219.0000 C   0  0  0  0  0  0  0  0  0  0  0  0
  143.3320   76.6240  218.5480 C   0  0  0  0  0  0  0  0  0  0  0  0
  142.8570   75.5360  219.4340 C   0  0  0  0  0  0  0  0  0  0  0  0
  143.4110   74.2590  219.5650 C   0  0  0  0  0  0  0  0  0  0  0  0
  142.8100   73.3520  220.4500 C   0  0  0  0  0  0  0  0  0  0  0  0
  141.6650   73.7280  221.1790 C   0  0  0  0  0  0  0  0  0  0  0  0
  141.1220   75.0120  221.0260 C   0  0  0  0  0  0  0  0  0  0  0  0
  141.7420   75.9020  220.1440 C   0  0  0  0  0  0  0  0  0  0  0  0
  141.3190   77.2860  219.8330 C   0  0  0  0  0  0  0  0  0  0  0  0
  139.6250   80.0770  218.9590 C   0  0  0  0  0  0  0  0  0  0  0  0
  138.5770   80.5340  219.9890 C   0  0  0  0  0  0  0  0  0  0  0  0
  137.8978   76.4325  223.3914 H   0  0  0  0  0  0  0  0  0  0  0  0
  137.3367   77.1343  221.8360 H   0  0  0  0  0  0  0  0  0  0  0  0
  138.5009   75.7664  221.8360 H   0  0  0  0  0  0  0  0  0  0  0  0
  140.0671   77.3641  223.1664 H   0  0  0  0  0  0  0  0  0  0  0  0
  139.8333   77.6705  221.3984 H   0  0  0  0  0  0  0  0  0  0  0  0
  140.4739   81.9424  224.1258 H   0  0  0  0  0  0  0  0  0  0  0  0
  142.7978   82.1467  225.0098 H   0  0  0  0  0  0  0  0  0  0  0  0
  144.6080   80.6708  224.1245 H   0  0  0  0  0  0  0  0  0  0  0  0
  144.0958   78.9938  222.3462 H   0  0  0  0  0  0  0  0  0  0  0  0
  141.7724   78.7848  221.4576 H   0  0  0  0  0  0  0  0  0  0  0  0
  138.3014   81.6787  221.7716 H   0  0  0  0  0  0  0  0  0  0  0  0
  139.6175   83.0555  220.3338 H   0  0  0  0  0  0  0  0  0  0  0  0
  140.5876   82.6152  221.8247 H   0  0  0  0  0  0  0  0  0  0  0  0
  141.6794   82.6218  219.4361 H   0  0  0  0  0  0  0  0  0  0  0  0
  142.0321   81.3332  220.7123 H   0  0  0  0  0  0  0  0  0  0  0  0
  143.7940   80.7360  217.3140 H   0  0  0  0  0  0  0  0  0  0  0  0
  141.0275   78.3851  217.5100 H   0  0  0  0  0  0  0  0  0  0  0  0
  142.9740   79.5410  216.1460 H   0  0  0  0  0  0  0  0  0  0  0  0
  143.9100   78.4420  217.0240 H   0  0  0  0  0  0  0  0  0  0  0  0
  142.6490   77.8710  216.0320 H   0  0  0  0  0  0  0  0  0  0  0  0
  143.1168   78.5358  219.6007 H   0  0  0  0  0  0  0  0  0  0  0  0
  143.1374   76.3840  217.4923 H   0  0  0  0  0  0  0  0  0  0  0  0
  144.4165   76.7927  218.6219 H   0  0  0  0  0  0  0  0  0  0  0  0
  144.3006   73.9714  218.9854 H   0  0  0  0  0  0  0  0  0  0  0  0
  143.2338   72.3447  220.5751 H   0  0  0  0  0  0  0  0  0  0  0  0
  141.1954   73.0126  221.8702 H   0  0  0  0  0  0  0  0  0  0  0  0
  140.2260   75.3128  221.5888 H   0  0  0  0  0  0  0  0  0  0  0  0
  140.3878   77.2892  219.2474 H   0  0  0  0  0  0  0  0  0  0  0  0
  141.1097   77.8803  220.7346 H   0  0  0  0  0  0  0  0  0  0  0  0
  139.2291   80.3085  217.9592 H   0  0  0  0  0  0  0  0  0  0  0  0
  139.7766   79.0071  219.1646 H   0  0  0  0  0  0  0  0  0  0  0  0
  137.9147   81.2621  219.4979 H   0  0  0  0  0  0  0  0  0  0  0  0
  138.0634   79.6200  220.3219 H   0  0  0  0  0  0  0  0  0  0  0  0
  1  2  1  0
  2  3  1  0
  3  4  2  0
  3  5  1  0
  5  6  1  0
  6  7  2  0
  7  8  1  0
  8  9  2  0
  9 10  1  0
 10 11  2  0
  5 12  1  0
 12 13  1  0
 13 14  1  0
 14 15  1  0
 15 16  2  3
 16 17  1  0
 16 18  1  0
 18 19  1  0
 18 20  1  0
 20 21  1  0
 21 22  1  0
 22 23  2  0
 23 24  1  0
 24 25  2  0
 25 26  1  0
 26 27  2  0
 27 28  1  0
 15 29  1  0
 29 30  1  0
 11  6  1  0
 30 12  1  0
 28 20  1  0
 27 22  1  0
  1 31  1  0
  1 32  1  0
  1 33  1  0
  2 34  1  0
  2 35  1  0
  7 36  1  0
  8 37  1  0
  9 38  1  0
 10 39  1  0
 11 40  1  0
 12 41  1  0
 13 42  1  0
 13 43  1  0
 14 44  1  0
 14 45  1  0
 17 46  1  0
 18 47  1  6
 19 48  1  0
 19 49  1  0
 19 50  1  0
 20 51  1  0
 21 52  1  0
 21 53  1  0
 23 54  1  0
 24 55  1  0
 25 56  1  0
 26 57  1  0
 28 58  1  0
 28 59  1  0
 29 60  1  0
 29 61  1  0
 30 62  1  0
 30 63  1  0
M  CHG  2  15   1  19   1
M  END
>  <meeko>  (15) 
{"free_energy": -7.94, "intermolecular_energy": -10.63, "internal_energy": -2.52, "cluster_size": 6, "cluster_id": 2, "rank_in_cluster": 2}

$$$$

     RDKit          3D

 63 66  0  0  0  0  0  0  0  0999 V2000
  140.3310   71.9660  222.8490 C   0  0  0  0  0  0  0  0  0  0  0  0
  139.8330   72.7470  221.6360 C   0  0  0  0  0  0  0  0  0  0  0  0
  140.8000   73.8260  221.2500 C   0  0  0  0  0  0  0  0  0  0  0  0
  140.7910   74.9170  221.8800 O   0  0  0  0  0  0  0  0  0  0  0  0
  141.6510   73.6800  220.1010 N   0  0  0  0  0  0  0  0  0  0  0  0
  143.0700   73.6830  220.3300 C   0  0  0  0  0  0  0  0  0  0  0  0
  143.7430   72.4830  220.6060 C   0  0  0  0  0  0  0  0  0  0  0  0
  145.1250   72.4840  220.8140 C   0  0  0  0  0  0  0  0  0  0  0  0
  145.8410   73.6830  220.7550 C   0  0  0  0  0  0  0  0  0  0  0  0
  145.1750   74.8840  220.4920 C   0  0  0  0  0  0  0  0  0  0  0  0
  143.7930   74.8850  220.2830 C   0  0  0  0  0  0  0  0  0  0  0  0
  141.1440   73.4180  218.7330 C   0  0  0  0  0  0  0  0  0  0  0  0
  139.8320   74.1210  218.4130 C   0  0  0  0  0  0  0  0  0  0  0  0
  139.9630   75.6310  218.2100 C   0  0  0  0  0  0  0  0  0  0  0  0
  141.2330   76.1000  217.6040 N   0  0  0  0  0  0  0  0  0  0  0  0
  141.4120   77.3990  217.3870 C   0  0  0  0  0  0  0  0  0  0  0  0
  140.7860   78.0600  216.3170 O   0  0  0  0  0  0  0  0  0  0  0  0
  142.3350   78.2830  218.2320 C   0  0  1  0  0  0  0  0  0  0  0  0
  142.8610   79.3670  217.3910 N   0  0  0  0  0  0  0  0  0  0  0  0
  141.5650   78.8510  219.4570 C   0  0  0  0  0  0  0  0  0  0  0  0
  142.1970   80.1450  220.0340 C   0  0  0  0  0  0  0  0  0  0  0  0
  142.0750   79.9690  221.5010 C   0  0  0  0  0  0  0  0  0  0  0  0
  142.3290   80.9280  222.4850 C   0  0  0  0  0  0  0  0  0  0  0  0
  142.1720   80.5690  223.8320 C   0  0  0  0  0  0  0  0  0  0  0  0
  141.7750   79.2620  224.1740 C   0  0  0  0  0  0  0  0  0  0  0  0
  141.5320   78.3130  223.1690 C   0  0  0  0  0  0  0  0  0  0  0  0
  141.6880   78.6960  221.8340 C   0  0  0  0  0  0  0  0  0  0  0  0
  141.4950   77.8460  220.6370 C   0  0  0  0  0  0  0  0  0  0  0  0
  142.3340   75.1740  217.2440 C   0  0  0  0  0  0  0  0  0  0  0  0
  142.1680   73.6960  217.6380 C   0  0  0  0  0  0  0  0  0  0  0  0
  140.0075   72.4734  223.7698 H   0  0  0  0  0  0  0  0  0  0  0  0
  139.9149   70.9480  222.8257 H   0  0  0  0  0  0  0  0  0  0  0  0
  141.4295   71.9138  222.8257 H   0  0  0  0  0  0  0  0  0  0  0  0
  139.7110   72.0552  220.7895 H   0  0  0  0  0  0  0  0  0  0  0  0
  138.8728   73.2169  221.8952 H   0  0  0  0  0  0  0  0  0  0  0  0
  143.1812   71.5388  220.6588 H   0  0  0  0  0  0  0  0  0  0  0  0
  145.6497   71.5404  221.0243 H   0  0  0  0  0  0  0  0  0  0  0  0
  146.9292   73.6818  220.9156 H   0  0  0  0  0  0  0  0  0  0  0  0
  145.7385   75.8277  220.4496 H   0  0  0  0  0  0  0  0  0  0  0  0
  143.2701   75.8314  220.0809 H   0  0  0  0  0  0  0  0  0  0  0  0
  140.9439   72.3364  218.7402 H   0  0  0  0  0  0  0  0  0  0  0  0
  139.4221   73.6833  217.4908 H   0  0  0  0  0  0  0  0  0  0  0  0
  139.1748   73.9749  219.2829 H   0  0  0  0  0  0  0  0  0  0  0  0
  139.1392   75.9551  217.5571 H   0  0  0  0  0  0  0  0  0  0  0  0
  139.9379   76.0681  219.2191 H   0  0  0  0  0  0  0  0  0  0  0  0
  139.8080   78.3090  216.2730 H   0  0  0  0  0  0  0  0  0  0  0  0
  143.1757   77.6850  218.6136 H   0  0  0  0  0  0  0  0  0  0  0  0
  143.2180   80.1520  217.9790 H   0  0  0  0  0  0  0  0  0  0  0  0
  143.6590   79.0100  216.8160 H   0  0  0  0  0  0  0  0  0  0  0  0
  142.1170   79.7290  216.7480 H   0  0  0  0  0  0  0  0  0  0  0  0
  140.5629   79.0602  219.0546 H   0  0  0  0  0  0  0  0  0  0  0  0
  143.2520   80.2335  219.7355 H   0  0  0  0  0  0  0  0  0  0  0  0
  141.7049   81.0594  219.6710 H   0  0  0  0  0  0  0  0  0  0  0  0
  142.6458   81.9445  222.2088 H   0  0  0  0  0  0  0  0  0  0  0  0
  142.3595   81.3102  224.6229 H   0  0  0  0  0  0  0  0  0  0  0  0
  141.6550   78.9841  225.2315 H   0  0  0  0  0  0  0  0  0  0  0  0
  141.2250   77.2886  223.4268 H   0  0  0  0  0  0  0  0  0  0  0  0
  142.2925   77.0925  220.5583 H   0  0  0  0  0  0  0  0  0  0  0  0
  140.5504   77.2829  220.6619 H   0  0  0  0  0  0  0  0  0  0  0  0
  142.4554   75.2134  216.1514 H   0  0  0  0  0  0  0  0  0  0  0  0
  143.2006   75.5258  217.8230 H   0  0  0  0  0  0  0  0  0  0  0  0
  141.8634   73.1384  216.7401 H   0  0  0  0  0  0  0  0  0  0  0  0
  143.1396   73.3824  218.0474 H   0  0  0  0  0  0  0  0  0  0  0  0
  1  2  1  0
  2  3  1  0
  3  4  2  0
  3  5  1  0
  5  6  1  0
  6  7  2  0
  7  8  1  0
  8  9  2  0
  9 10  1  0
 10 11  2  0
  5 12  1  0
 12 13  1  0
 13 14  1  0
 14 15  1  0
 15 16  2  3
 16 17  1  0
 16 18  1  0
 18 19  1  0
 18 20  1  0
 20 21  1  0
 21 22  1  0
 22 23  2  0
 23 24  1  0
 24 25  2  0
 25 26  1  0
 26 27  2  0
 27 28  1  0
 15 29  1  0
 29 30  1  0
 11  6  1  0
 30 12  1  0
 28 20  1  0
 27 22  1  0
  1 31  1  0
  1 32  1  0
  1 33  1  0
  2 34  1  0
  2 35  1  0
  7 36  1  0
  8 37  1  0
  9 38  1  0
 10 39  1  0
 11 40  1  0
 12 41  1  0
 13 42  1  0
 13 43  1  0
 14 44  1  0
 14 45  1  0
 17 46  1  0
 18 47  1  1
 19 48  1  0
 19 49  1  0
 19 50  1  0
 20 51  1  0
 21 52  1  0
 21 53  1  0
 23 54  1  0
 24 55  1  0
 25 56  1  0
 26 57  1  0
 28 58  1  0
 28 59  1  0
 29 60  1  0
 29 61  1  0
 30 62  1  0
 30 63  1  0
M  CHG  2  15   1  19   1
M  END
>  <meeko>  (16) 
{"free_energy": -7.33, "intermolecular_energy": -10.02, "internal_energy": -2.59, "cluster_size": 13, "cluster_id": 1, "rank_in_cluster": 13}

$$$$

     RDKit          3D

 63 66  0  0  0  0  0  0  0  0999 V2000
  137.7560   80.7970  224.4080 C   0  0  0  0  0  0  0  0  0  0  0  0
  137.5130   79.6820  223.3940 C   0  0  0  0  0  0  0  0  0  0  0  0
  138.7350   79.4260  222.5650 C   0  0  0  0  0  0  0  0  0  0  0  0
  139.0700   78.2380  222.3110 O   0  0  0  0  0  0  0  0  0  0  0  0
  139.5930   80.5050  222.1570 N   0  0  0  0  0  0  0  0  0  0  0  0
  140.9280   80.5180  222.6870 C   0  0  0  0  0  0  0  0  0  0  0  0
  141.2840   81.4400  223.6840 C   0  0  0  0  0  0  0  0  0  0  0  0
  142.5790   81.4430  224.2090 C   0  0  0  0  0  0  0  0  0  0  0  0
  143.5280   80.5310  223.7380 C   0  0  0  0  0  0  0  0  0  0  0  0
  143.1840   79.6180  222.7360 C   0  0  0  0  0  0  0  0  0  0  0  0
  141.8890   79.6130  222.2090 C   0  0  0  0  0  0  0  0  0  0  0  0
  139.2090   81.5210  221.1500 C   0  0  0  0  0  0  0  0  0  0  0  0
  140.3200   82.5050  220.8070 C   0  0  0  0  0  0  0  0  0  0  0  0
  141.4450   81.9100  219.9600 C   0  0  0  0  0  0  0  0  0  0  0  0
  141.0480   80.8600  218.9910 N   0  0  0  0  0  0  0  0  0  0  0  0
  141.9710   80.3050  218.2130 C   0  0  0  0  0  0  0  0  0  0  0  0
  142.9920   81.0690  217.6230 O   0  0  0  0  0  0  0  0  0  0  0  0
  141.9940   78.8170  217.8480 C   0  0  1  0  0  0  0  0  0  0  0  0
  142.9480   78.6090  216.7500 N   0  0  0  0  0  0  0  0  0  0  0  0
  142.3770   77.9620  219.0890 C   0  0  0  0  0  0  0  0  0  0  0  0
  143.0830   76.6300  218.7240 C   0  0  0  0  0  0  0  0  0  0  0  0
  142.5000   75.6540  219.6740 C   0  0  0  0  0  0  0  0  0  0  0  0
  142.9230   74.3400  219.8910 C   0  0  0  0  0  0  0  0  0  0  0  0
  142.2310   73.5560  220.8280 C   0  0  0  0  0  0  0  0  0  0  0  0
  141.1290   74.0910  221.5210 C   0  0  0  0  0  0  0  0  0  0  0  0
  140.7180   75.4110  221.2810 C   0  0  0  0  0  0  0  0  0  0  0  0
  141.4260   76.1750  220.3490 C   0  0  0  0  0  0  0  0  0  0  0  0
  141.1450   77.5720  219.9470 C   0  0  0  0  0  0  0  0  0  0  0  0
  139.6490   80.3800  218.8650 C   0  0  0  0  0  0  0  0  0  0  0  0
  138.6240   80.9260  219.8740 C   0  0  0  0  0  0  0  0  0  0  0  0
  137.6677   80.3917  225.4268 H   0  0  0  0  0  0  0  0  0  0  0  0
  138.7653   81.2101  224.2639 H   0  0  0  0  0  0  0  0  0  0  0  0
  137.0102   81.5926  224.2639 H   0  0  0  0  0  0  0  0  0  0  0  0
  137.2449   78.7605  223.9316 H   0  0  0  0  0  0  0  0  0  0  0  0
  136.6973   79.9924  222.7245 H   0  0  0  0  0  0  0  0  0  0  0  0
  140.5411   82.1624  224.0531 H   0  0  0  0  0  0  0  0  0  0  0  0
  142.8520   82.1638  224.9938 H   0  0  0  0  0  0  0  0  0  0  0  0
  144.5456   80.5315  224.1556 H   0  0  0  0  0  0  0  0  0  0  0  0
  143.9325   78.9037  222.3624 H   0  0  0  0  0  0  0  0  0  0  0  0
  141.6222   78.8976  221.4172 H   0  0  0  0  0  0  0  0  0  0  0  0
  138.4120   82.0878  221.6536 H   0  0  0  0  0  0  0  0  0  0  0  0
  139.8774   83.3450  220.2516 H   0  0  0  0  0  0  0  0  0  0  0  0
  140.7726   82.8154  221.7603 H   0  0  0  0  0  0  0  0  0  0  0  0
  141.9096   82.7310  219.3941 H   0  0  0  0  0  0  0  0  0  0  0  0
  142.1200   81.4136  220.6728 H   0  0  0  0  0  0  0  0  0  0  0  0
  143.8350   80.6990  217.2070 H   0  0  0  0  0  0  0  0  0  0  0  0
  140.9934   78.4992  217.5196 H   0  0  0  0  0  0  0  0  0  0  0  0
  142.6530   77.8070  216.1500 H   0  0  0  0  0  0  0  0  0  0  0  0
  142.9820   79.4640  216.1470 H   0  0  0  0  0  0  0  0  0  0  0  0
  143.9080   78.4220  217.1260 H   0  0  0  0  0  0  0  0  0  0  0  0
  143.0606   78.6163  219.6499 H   0  0  0  0  0  0  0  0  0  0  0  0
  142.8668   76.3431  217.6843 H   0  0  0  0  0  0  0  0  0  0  0  0
  144.1788   76.6938  218.7959 H   0  0  0  0  0  0  0  0  0  0  0  0
  143.7807   73.9282  219.3390 H   0  0  0  0  0  0  0  0  0  0  0  0
  142.5509   72.5214  221.0209 H   0  0  0  0  0  0  0  0  0  0  0  0
  140.5884   73.4727  222.2527 H   0  0  0  0  0  0  0  0  0  0  0  0
  139.8558   75.8361  221.8157 H   0  0  0  0  0  0  0  0  0  0  0  0
  140.2199   77.6314  219.3549 H   0  0  0  0  0  0  0  0  0  0  0  0
  140.9950   78.2413  220.8070 H   0  0  0  0  0  0  0  0  0  0  0  0
  139.2968   80.6479  217.8579 H   0  0  0  0  0  0  0  0  0  0  0  0
  139.7005   79.3004  219.0697 H   0  0  0  0  0  0  0  0  0  0  0  0
  138.0394   81.7108  219.3716 H   0  0  0  0  0  0  0  0  0  0  0  0
  138.0246   80.0604  220.1926 H   0  0  0  0  0  0  0  0  0  0  0  0
  1  2  1  0
  2  3  1  0
  3  4  2  0
  3  5  1  0
  5  6  1  0
  6  7  2  0
  7  8  1  0
  8  9  2  0
  9 10  1  0
 10 11  2  0
  5 12  1  0
 12 13  1  0
 13 14  1  0
 14 15  1  0
 15 16  2  3
 16 17  1  0
 16 18  1  0
 18 19  1  0
 18 20  1  0
 20 21  1  0
 21 22  1  0
 22 23  2  0
 23 24  1  0
 24 25  2  0
 25 26  1  0
 26 27  2  0
 27 28  1  0
 15 29  1  0
 29 30  1  0
 11  6  1  0
 30 12  1  0
 28 20  1  0
 27 22  1  0
  1 31  1  0
  1 32  1  0
  1 33  1  0
  2 34  1  0
  2 35  1  0
  7 36  1  0
  8 37  1  0
  9 38  1  0
 10 39  1  0
 11 40  1  0
 12 41  1  0
 13 42  1  0
 13 43  1  0
 14 44  1  0
 14 45  1  0
 17 46  1  0
 18 47  1  6
 19 48  1  0
 19 49  1  0
 19 50  1  0
 20 51  1  0
 21 52  1  0
 21 53  1  0
 23 54  1  0
 24 55  1  0
 25 56  1  0
 26 57  1  0
 28 58  1  0
 28 59  1  0
 29 60  1  0
 29 61  1  0
 30 62  1  0
 30 63  1  0
M  CHG  2  15   1  19   1
M  END
>  <meeko>  (17) 
{"free_energy": -7.89, "intermolecular_energy": -10.57, "internal_energy": -2.63, "cluster_size": 6, "cluster_id": 2, "rank_in_cluster": 3}

$$$$

     RDKit          3D

 63 66  0  0  0  0  0  0  0  0999 V2000
  138.5420   76.0350  222.3850 C   0  0  0  0  0  0  0  0  0  0  0  0
  139.8710   76.0240  221.6360 C   0  0  0  0  0  0  0  0  0  0  0  0
  140.3670   74.6240  221.4270 C   0  0  0  0  0  0  0  0  0  0  0  0
  140.2300   73.7780  222.3500 O   0  0  0  0  0  0  0  0  0  0  0  0
  141.0980   74.2670  220.2420 N   0  0  0  0  0  0  0  0  0  0  0  0
  142.5020   74.0000  220.3920 C   0  0  0  0  0  0  0  0  0  0  0  0
  142.9490   72.6930  220.6400 C   0  0  0  0  0  0  0  0  0  0  0  0
  144.3160   72.4310  220.7710 C   0  0  0  0  0  0  0  0  0  0  0  0
  145.2420   73.4730  220.6640 C   0  0  0  0  0  0  0  0  0  0  0  0
  144.8030   74.7790  220.4300 C   0  0  0  0  0  0  0  0  0  0  0  0
  143.4360   75.0440  220.2980 C   0  0  0  0  0  0  0  0  0  0  0  0
  140.4640   74.0560  218.9200 C   0  0  0  0  0  0  0  0  0  0  0  0
  139.4050   75.0940  218.5670 C   0  0  0  0  0  0  0  0  0  0  0  0
  139.9710   76.4700  218.2150 C   0  0  0  0  0  0  0  0  0  0  0  0
  141.2880   76.4810  217.5340 N   0  0  0  0  0  0  0  0  0  0  0  0
  141.8360   77.6410  217.1870 C   0  0  0  0  0  0  0  0  0  0  0  0
  141.8240   78.0920  215.8570 O   0  0  0  0  0  0  0  0  0  0  0  0
  142.5600   78.5670  218.1690 C   0  0  1  0  0  0  0  0  0  0  0  0
  142.9450   79.8000  217.4690 N   0  0  0  0  0  0  0  0  0  0  0  0
  141.6490   78.8800  219.3890 C   0  0  0  0  0  0  0  0  0  0  0  0
  141.8040   80.3310  219.9170 C   0  0  0  0  0  0  0  0  0  0  0  0
  141.7570   80.1730  221.3890 C   0  0  0  0  0  0  0  0  0  0  0  0
  141.6740   81.1940  222.3400 C   0  0  0  0  0  0  0  0  0  0  0  0
  141.6560   80.8490  223.7000 C   0  0  0  0  0  0  0  0  0  0  0  0
  141.7310   79.4980  224.0870 C   0  0  0  0  0  0  0  0  0  0  0  0
  141.8210   78.4900  223.1160 C   0  0  0  0  0  0  0  0  0  0  0  0
  141.8300   78.8560  221.7670 C   0  0  0  0  0  0  0  0  0  0  0  0
  141.9330   77.9520  220.6000 C   0  0  0  0  0  0  0  0  0  0  0  0
  142.0420   75.2370  217.2380 C   0  0  0  0  0  0  0  0  0  0  0  0
  141.4630   73.9180  217.7770 C   0  0  0  0  0  0  0  0  0  0  0  0
  138.7317   76.0334  223.4685 H   0  0  0  0  0  0  0  0  0  0  0  0
  137.9754   76.9379  222.1133 H   0  0  0  0  0  0  0  0  0  0  0  0
  137.9606   75.1416  222.1133 H   0  0  0  0  0  0  0  0  0  0  0  0
  139.7344   76.5057  220.6566 H   0  0  0  0  0  0  0  0  0  0  0  0
  140.6132   76.5692  222.2376 H   0  0  0  0  0  0  0  0  0  0  0  0
  142.2219   71.8726  220.7315 H   0  0  0  0  0  0  0  0  0  0  0  0
  144.6633   71.4042  220.9584 H   0  0  0  0  0  0  0  0  0  0  0  0
  146.3174   73.2646  220.7641 H   0  0  0  0  0  0  0  0  0  0  0  0
  145.5324   75.5984  220.3496 H   0  0  0  0  0  0  0  0  0  0  0  0
  143.0917   76.0734  220.1200 H   0  0  0  0  0  0  0  0  0  0  0  0
  139.9516   73.0897  219.0373 H   0  0  0  0  0  0  0  0  0  0  0  0
  138.8338   74.7243  217.7027 H   0  0  0  0  0  0  0  0  0  0  0  0
  138.7815   75.2278  219.4633 H   0  0  0  0  0  0  0  0  0  0  0  0
  139.2478   76.9717  217.5553 H   0  0  0  0  0  0  0  0  0  0  0  0
  140.1329   76.9770  219.1777 H   0  0  0  0  0  0  0  0  0  0  0  0
  142.5820   77.9910  215.1960 H   0  0  0  0  0  0  0  0  0  0  0  0
  143.4660   78.0711  218.5474 H   0  0  0  0  0  0  0  0  0  0  0  0
  143.8430   80.1760  217.8460 H   0  0  0  0  0  0  0  0  0  0  0  0
  143.0860   79.5970  216.4510 H   0  0  0  0  0  0  0  0  0  0  0  0
  142.1980   80.5280  217.5670 H   0  0  0  0  0  0  0  0  0  0  0  0
  140.6336   78.7214  218.9967 H   0  0  0  0  0  0  0  0  0  0  0  0
  142.7638   80.7642  219.5990 H   0  0  0  0  0  0  0  0  0  0  0  0
  141.0274   81.0100  219.5351 H   0  0  0  0  0  0  0  0  0  0  0  0
  141.6237   82.2477  222.0283 H   0  0  0  0  0  0  0  0  0  0  0  0
  141.5831   81.6360  224.4651 H   0  0  0  0  0  0  0  0  0  0  0  0
  141.7190   79.2318  225.1542 H   0  0  0  0  0  0  0  0  0  0  0  0
  141.8833   77.4319  223.4103 H   0  0  0  0  0  0  0  0  0  0  0  0
  142.9397   77.5140  220.5309 H   0  0  0  0  0  0  0  0  0  0  0  0
  141.2379   77.1014  220.6573 H   0  0  0  0  0  0  0  0  0  0  0  0
  142.1119   75.1450  216.1441 H   0  0  0  0  0  0  0  0  0  0  0  0
  143.0034   75.3579  217.7588 H   0  0  0  0  0  0  0  0  0  0  0  0
  140.9572   73.4055  216.9454 H   0  0  0  0  0  0  0  0  0  0  0  0
  142.3170   73.3605  218.1892 H   0  0  0  0  0  0  0  0  0  0  0  0
  1  2  1  0
  2  3  1  0
  3  4  2  0
  3  5  1  0
  5  6  1  0
  6  7  2  0
  7  8  1  0
  8  9  2  0
  9 10  1  0
 10 11  2  0
  5 12  1  0
 12 13  1  0
 13 14  1  0
 14 15  1  0
 15 16  2  3
 16 17  1  0
 16 18  1  0
 18 19  1  0
 18 20  1  0
 20 21  1  0
 21 22  1  0
 22 23  2  0
 23 24  1  0
 24 25  2  0
 25 26  1  0
 26 27  2  0
 27 28  1  0
 15 29  1  0
 29 30  1  0
 11  6  1  0
 30 12  1  0
 28 20  1  0
 27 22  1  0
  1 31  1  0
  1 32  1  0
  1 33  1  0
  2 34  1  0
  2 35  1  0
  7 36  1  0
  8 37  1  0
  9 38  1  0
 10 39  1  0
 11 40  1  0
 12 41  1  0
 13 42  1  0
 13 43  1  0
 14 44  1  0
 14 45  1  0
 17 46  1  0
 18 47  1  1
 19 48  1  0
 19 49  1  0
 19 50  1  0
 20 51  1  0
 21 52  1  0
 21 53  1  0
 23 54  1  0
 24 55  1  0
 25 56  1  0
 26 57  1  0
 28 58  1  0
 28 59  1  0
 29 60  1  0
 29 61  1  0
 30 62  1  0
 30 63  1  0
M  CHG  2  15   1  19   1
M  END
>  <meeko>  (18) 
{"free_energy": -7.98, "intermolecular_energy": -10.66, "internal_energy": -2.56, "cluster_size": 13, "cluster_id": 1, "rank_in_cluster": 2}

$$$$

     RDKit          3D

 63 66  0  0  0  0  0  0  0  0999 V2000
  138.6330   76.0280  222.3290 C   0  0  0  0  0  0  0  0  0  0  0  0
  140.0990   75.8540  221.9460 C   0  0  0  0  0  0  0  0  0  0  0  0
  140.3970   74.4340  221.5660 C   0  0  0  0  0  0  0  0  0  0  0  0
  140.1030   73.5070  222.3670 O   0  0  0  0  0  0  0  0  0  0  0  0
  141.1170   74.1260  220.3610 N   0  0  0  0  0  0  0  0  0  0  0  0
  142.5370   73.9370  220.4740 C   0  0  0  0  0  0  0  0  0  0  0  0
  143.0620   72.6580  220.7170 C   0  0  0  0  0  0  0  0  0  0  0  0
  144.4430   72.4710  220.8130 C   0  0  0  0  0  0  0  0  0  0  0  0
  145.3080   73.5610  220.6740 C   0  0  0  0  0  0  0  0  0  0  0  0
  144.7920   74.8400  220.4440 C   0  0  0  0  0  0  0  0  0  0  0  0
  143.4100   75.0290  220.3480 C   0  0  0  0  0  0  0  0  0  0  0  0
  140.4620   73.8880  219.0530 C   0  0  0  0  0  0  0  0  0  0  0  0
  139.3540   74.8800  218.7240 C   0  0  0  0  0  0  0  0  0  0  0  0
  139.8540   76.2790  218.3610 C   0  0  0  0  0  0  0  0  0  0  0  0
  141.1540   76.3450  217.6500 N   0  0  0  0  0  0  0  0  0  0  0  0
  141.6450   77.5260  217.2920 C   0  0  0  0  0  0  0  0  0  0  0  0
  141.4750   78.0300  215.9920 O   0  0  0  0  0  0  0  0  0  0  0  0
  142.4680   78.4230  218.2220 C   0  0  1  0  0  0  0  0  0  0  0  0
  142.9440   79.5890  217.4650 N   0  0  0  0  0  0  0  0  0  0  0  0
  141.6130   78.8630  219.4440 C   0  0  0  0  0  0  0  0  0  0  0  0
  141.9100   80.3120  219.9120 C   0  0  0  0  0  0  0  0  0  0  0  0
  141.8780   80.2150  221.3900 C   0  0  0  0  0  0  0  0  0  0  0  0
  141.9080   81.2740  222.3020 C   0  0  0  0  0  0  0  0  0  0  0  0
  141.8850   80.9820  223.6740 C   0  0  0  0  0  0  0  0  0  0  0  0
  141.8440   79.6450  224.1120 C   0  0  0  0  0  0  0  0  0  0  0  0
  141.8230   78.5970  223.1790 C   0  0  0  0  0  0  0  0  0  0  0  0
  141.8390   78.9120  221.8180 C   0  0  0  0  0  0  0  0  0  0  0  0
  141.8350   77.9590  220.6850 C   0  0  0  0  0  0  0  0  0  0  0  0
  141.9520   75.1330  217.3360 C   0  0  0  0  0  0  0  0  0  0  0  0
  141.4410   73.7910  217.8880 C   0  0  0  0  0  0  0  0  0  0  0  0
  138.5392   76.0391  223.4249 H   0  0  0  0  0  0  0  0  0  0  0  0
  138.2571   76.9771  221.9191 H   0  0  0  0  0  0  0  0  0  0  0  0
  138.0454   75.1933  221.9191 H   0  0  0  0  0  0  0  0  0  0  0  0
  140.3266   76.5090  221.0921 H   0  0  0  0  0  0  0  0  0  0  0  0
  140.7192   76.1188  222.8151 H   0  0  0  0  0  0  0  0  0  0  0  0
  142.3835   71.7999  220.8322 H   0  0  0  0  0  0  0  0  0  0  0  0
  144.8502   71.4660  220.9980 H   0  0  0  0  0  0  0  0  0  0  0  0
  146.3955   73.4120  220.7457 H   0  0  0  0  0  0  0  0  0  0  0  0
  145.4732   75.6973  220.3386 H   0  0  0  0  0  0  0  0  0  0  0  0
  143.0054   76.0368  220.1732 H   0  0  0  0  0  0  0  0  0  0  0  0
  139.9921   72.9018  219.1815 H   0  0  0  0  0  0  0  0  0  0  0  0
  138.7803   74.4866  217.8719 H   0  0  0  0  0  0  0  0  0  0  0  0
  138.7451   74.9876  219.6337 H   0  0  0  0  0  0  0  0  0  0  0  0
  139.0957   76.7504  217.7186 H   0  0  0  0  0  0  0  0  0  0  0  0
  140.0164   76.7920  219.3204 H   0  0  0  0  0  0  0  0  0  0  0  0
  141.8390   77.6120  215.1480 H   0  0  0  0  0  0  0  0  0  0  0  0
  143.3354   77.8650  218.6043 H   0  0  0  0  0  0  0  0  0  0  0  0
  143.0400   79.3580  216.4510 H   0  0  0  0  0  0  0  0  0  0  0  0
  142.2530   80.3700  217.5510 H   0  0  0  0  0  0  0  0  0  0  0  0
  143.8690   79.9150  217.8320 H   0  0  0  0  0  0  0  0  0  0  0  0
  140.5798   78.7832  219.0751 H   0  0  0  0  0  0  0  0  0  0  0  0
  142.8988   80.6429  219.5616 H   0  0  0  0  0  0  0  0  0  0  0  0
  141.1910   81.0444  219.5164 H   0  0  0  0  0  0  0  0  0  0  0  0
  141.9488   82.3156  221.9508 H   0  0  0  0  0  0  0  0  0  0  0  0
  141.8990   81.8000  224.4093 H   0  0  0  0  0  0  0  0  0  0  0  0
  141.8284   79.4209  225.1888 H   0  0  0  0  0  0  0  0  0  0  0  0
  141.7945   77.5491  223.5124 H   0  0  0  0  0  0  0  0  0  0  0  0
  142.7956   77.4275  220.6162 H   0  0  0  0  0  0  0  0  0  0  0  0
  141.0660   77.1791  220.7870 H   0  0  0  0  0  0  0  0  0  0  0  0
  142.0001   75.0433  216.2407 H   0  0  0  0  0  0  0  0  0  0  0  0
  142.9194   75.2941  217.8343 H   0  0  0  0  0  0  0  0  0  0  0  0
  140.9392   73.2567  217.0678 H   0  0  0  0  0  0  0  0  0  0  0  0
  142.3266   73.2706  218.2815 H   0  0  0  0  0  0  0  0  0  0  0  0
  1  2  1  0
  2  3  1  0
  3  4  2  0
  3  5  1  0
  5  6  1  0
  6  7  2  0
  7  8  1  0
  8  9  2  0
  9 10  1  0
 10 11  2  0
  5 12  1  0
 12 13  1  0
 13 14  1  0
 14 15  1  0
 15 16  2  3
 16 17  1  0
 16 18  1  0
 18 19  1  0
 18 20  1  0
 20 21  1  0
 21 22  1  0
 22 23  2  0
 23 24  1  0
 24 25  2  0
 25 26  1  0
 26 27  2  0
 27 28  1  0
 15 29  1  0
 29 30  1  0
 11  6  1  0
 30 12  1  0
 28 20  1  0
 27 22  1  0
  1 31  1  0
  1 32  1  0
  1 33  1  0
  2 34  1  0
  2 35  1  0
  7 36  1  0
  8 37  1  0
  9 38  1  0
 10 39  1  0
 11 40  1  0
 12 41  1  0
 13 42  1  0
 13 43  1  0
 14 44  1  0
 14 45  1  0
 17 46  1  0
 18 47  1  1
 19 48  1  0
 19 49  1  0
 19 50  1  0
 20 51  1  0
 21 52  1  0
 21 53  1  0
 23 54  1  0
 24 55  1  0
 25 56  1  0
 26 57  1  0
 28 58  1  0
 28 59  1  0
 29 60  1  0
 29 61  1  0
 30 62  1  0
 30 63  1  0
M  CHG  2  15   1  19   1
M  END
>  <meeko>  (19) 
{"free_energy": -7.96, "intermolecular_energy": -10.65, "internal_energy": -2.65, "cluster_size": 13, "cluster_id": 1, "rank_in_cluster": 3}

$$$$

     RDKit          3D

 63 66  0  0  0  0  0  0  0  0999 V2000
  138.1650   76.6940  222.5910 C   0  0  0  0  0  0  0  0  0  0  0  0
  139.2870   77.7000  222.3490 C   0  0  0  0  0  0  0  0  0  0  0  0
  138.8350   79.1000  222.6380 C   0  0  0  0  0  0  0  0  0  0  0  0
  137.7040   79.2860  223.1630 O   0  0  0  0  0  0  0  0  0  0  0  0
  139.6160   80.2310  222.2200 N   0  0  0  0  0  0  0  0  0  0  0  0
  140.9550   80.3300  222.7320 C   0  0  0  0  0  0  0  0  0  0  0  0
  141.9640   79.4880  222.2390 C   0  0  0  0  0  0  0  0  0  0  0  0
  143.2690   79.5940  222.7260 C   0  0  0  0  0  0  0  0  0  0  0  0
  143.5740   80.5350  223.7140 C   0  0  0  0  0  0  0  0  0  0  0  0
  142.5710   81.3690  224.2190 C   0  0  0  0  0  0  0  0  0  0  0  0
  141.2650   81.2650  223.7320 C   0  0  0  0  0  0  0  0  0  0  0  0
  139.1550   81.2200  221.2180 C   0  0  0  0  0  0  0  0  0  0  0  0
  140.1940   82.2760  220.8640 C   0  0  0  0  0  0  0  0  0  0  0  0
  141.3480   81.7570  220.0050 C   0  0  0  0  0  0  0  0  0  0  0  0
  141.0110   80.6830  219.0390 N   0  0  0  0  0  0  0  0  0  0  0  0
  141.9600   80.1920  218.2500 C   0  0  0  0  0  0  0  0  0  0  0  0
  142.9600   81.0120  217.7030 O   0  0  0  0  0  0  0  0  0  0  0  0
  142.0380   78.7210  217.8280 C   0  0  1  0  0  0  0  0  0  0  0  0
  142.9660   78.5970  216.6950 N   0  0  0  0  0  0  0  0  0  0  0  0
  142.4980   77.8390  219.0230 C   0  0  0  0  0  0  0  0  0  0  0  0
  143.3270   76.6010  218.5910 C   0  0  0  0  0  0  0  0  0  0  0  0
  142.8370   75.5240  219.4820 C   0  0  0  0  0  0  0  0  0  0  0  0
  143.3810   74.2450  219.6310 C   0  0  0  0  0  0  0  0  0  0  0  0
  142.7650   73.3500  220.5180 C   0  0  0  0  0  0  0  0  0  0  0  0
  141.6160   73.7400  221.2320 C   0  0  0  0  0  0  0  0  0  0  0  0
  141.0830   75.0270  221.0620 C   0  0  0  0  0  0  0  0  0  0  0  0
  141.7170   75.9040  220.1780 C   0  0  0  0  0  0  0  0  0  0  0  0
  141.3070   77.2880  219.8500 C   0  0  0  0  0  0  0  0  0  0  0  0
  139.6460   80.1120  218.9270 C   0  0  0  0  0  0  0  0  0  0  0  0
  138.5980   80.5890  219.9470 C   0  0  0  0  0  0  0  0  0  0  0  0
  138.0179   76.5621  223.6731 H   0  0  0  0  0  0  0  0  0  0  0  0
  137.2347   77.0661  222.1372 H   0  0  0  0  0  0  0  0  0  0  0  0
  138.4338   75.7287  222.1372 H   0  0  0  0  0  0  0  0  0  0  0  0
  140.1356   77.4549  223.0046 H   0  0  0  0  0  0  0  0  0  0  0  0
  139.5831   77.6421  221.2912 H   0  0  0  0  0  0  0  0  0  0  0  0
  141.7263   78.7420  221.4664 H   0  0  0  0  0  0  0  0  0  0  0  0
  144.0576   78.9363  222.3316 H   0  0  0  0  0  0  0  0  0  0  0  0
  144.6027   80.6195  224.0942 H   0  0  0  0  0  0  0  0  0  0  0  0
  142.8100   82.1066  224.9993 H   0  0  0  0  0  0  0  0  0  0  0  0
  140.4768   81.9186  224.1341 H   0  0  0  0  0  0  0  0  0  0  0  0
  138.3276   81.7315  221.7316 H   0  0  0  0  0  0  0  0  0  0  0  0
  139.6905   83.0843  220.3134 H   0  0  0  0  0  0  0  0  0  0  0  0
  140.6345   82.6165  221.8127 H   0  0  0  0  0  0  0  0  0  0  0  0
  141.7515   82.6070  219.4352 H   0  0  0  0  0  0  0  0  0  0  0  0
  142.0619   81.3066  220.7103 H   0  0  0  0  0  0  0  0  0  0  0  0
  143.8010   80.6870  217.2460 H   0  0  0  0  0  0  0  0  0  0  0  0
  141.0425   78.3707  217.5178 H   0  0  0  0  0  0  0  0  0  0  0  0
  143.9260   78.3570  217.0270 H   0  0  0  0  0  0  0  0  0  0  0  0
  142.6450   77.8290  216.0610 H   0  0  0  0  0  0  0  0  0  0  0  0
  143.0040   79.4910  216.1500 H   0  0  0  0  0  0  0  0  0  0  0  0
  143.1160   78.5232  219.6230 H   0  0  0  0  0  0  0  0  0  0  0  0
  143.1407   76.3526  217.5357 H   0  0  0  0  0  0  0  0  0  0  0  0
  144.4118   76.7634  218.6742 H   0  0  0  0  0  0  0  0  0  0  0  0
  144.2748   73.9463  219.0636 H   0  0  0  0  0  0  0  0  0  0  0  0
  143.1806   72.3410  220.6561 H   0  0  0  0  0  0  0  0  0  0  0  0
  141.1348   73.0341  221.9249 H   0  0  0  0  0  0  0  0  0  0  0  0
  140.1840   75.3392  221.6137 H   0  0  0  0  0  0  0  0  0  0  0  0
  140.3815   77.2923  219.2555 H   0  0  0  0  0  0  0  0  0  0  0  0
  141.0935   77.8922  220.7441 H   0  0  0  0  0  0  0  0  0  0  0  0
  139.2665   80.3564  217.9239 H   0  0  0  0  0  0  0  0  0  0  0  0
  139.7706   79.0381  219.1300 H   0  0  0  0  0  0  0  0  0  0  0  0
  137.9583   81.3342  219.4516 H   0  0  0  0  0  0  0  0  0  0  0  0
  138.0602   79.6856  220.2705 H   0  0  0  0  0  0  0  0  0  0  0  0
  1  2  1  0
  2  3  1  0
  3  4  2  0
  3  5  1  0
  5  6  1  0
  6  7  2  0
  7  8  1  0
  8  9  2  0
  9 10  1  0
 10 11  2  0
  5 12  1  0
 12 13  1  0
 13 14  1  0
 14 15  1  0
 15 16  2  3
 16 17  1  0
 16 18  1  0
 18 19  1  0
 18 20  1  0
 20 21  1  0
 21 22  1  0
 22 23  2  0
 23 24  1  0
 24 25  2  0
 25 26  1  0
 26 27  2  0
 27 28  1  0
 15 29  1  0
 29 30  1  0
 11  6  1  0
 30 12  1  0
 28 20  1  0
 27 22  1  0
  1 31  1  0
  1 32  1  0
  1 33  1  0
  2 34  1  0
  2 35  1  0
  7 36  1  0
  8 37  1  0
  9 38  1  0
 10 39  1  0
 11 40  1  0
 12 41  1  0
 13 42  1  0
 13 43  1  0
 14 44  1  0
 14 45  1  0
 17 46  1  0
 18 47  1  6
 19 48  1  0
 19 49  1  0
 19 50  1  0
 20 51  1  0
 21 52  1  0
 21 53  1  0
 23 54  1  0
 24 55  1  0
 25 56  1  0
 26 57  1  0
 28 58  1  0
 28 59  1  0
 29 60  1  0
 29 61  1  0
 30 62  1  0
 30 63  1  0
M  CHG  2  15   1  19   1
M  END
>  <meeko>  (20) 
{"free_energy": -7.96, "intermolecular_energy": -10.64, "internal_energy": -2.49, "cluster_size": 6, "cluster_id": 2, "rank_in_cluster": 1}

$$$$
