
     RDKit          3D

 58 63  0  0  0  0  0  0  0  0999 V2000
  133.4550   72.2170  227.4030 N   0  0  0  0  0  0  0  0  0  0  0  0
  132.6870   73.3900  227.1360 C   0  0  0  0  0  0  0  0  0  0  0  0
  131.5230   73.4840  227.6130 O   0  0  0  0  0  0  0  0  0  0  0  0
  133.2460   74.4830  226.3080 C   0  0  0  0  0  0  0  0  0  0  0  0
  132.6130   75.7560  226.2780 C   0  0  0  0  0  0  0  0  0  0  0  0
  133.1320   76.8020  225.4950 C   0  0  0  0  0  0  0  0  0  0  0  0
  134.2790   76.5490  224.7510 C   0  0  0  0  0  0  0  0  0  0  0  0
  135.0050   77.3710  223.9180 C   0  0  0  0  0  0  0  0  0  0  0  0
  136.0520   76.5780  223.4530 C   0  0  0  0  0  0  0  0  0  0  0  0
  137.1200   77.0380  222.5490 C   0  0  0  0  0  0  0  0  0  0  0  0
  137.5490   76.2580  221.6570 O   0  0  0  0  0  0  0  0  0  0  0  0
  137.6970   78.3460  222.6910 N   0  0  0  0  0  0  0  0  0  0  0  0
  136.9260   79.5230  223.1020 C   0  0  0  0  0  0  0  0  0  0  0  0
  137.9770   80.5750  223.6080 C   0  0  1  0  0  0  0  0  0  0  0  0
  137.8910   81.8850  222.8440 C   0  0  0  0  0  0  0  0  0  0  0  0
  136.8540   82.6680  223.6250 C   0  0  0  0  0  0  0  0  0  0  0  0
  136.9660   82.2630  225.0410 N   0  0  0  0  0  0  0  0  0  0  0  0
  135.6420   82.1430  225.6990 C   0  0  1  0  0  0  0  0  0  0  0  0
  134.8480   80.9660  225.1630 C   0  0  0  0  0  0  0  0  0  0  0  0
  133.9790   80.5320  226.3290 C   0  0  0  0  0  0  0  0  0  0  0  0
  134.6020   81.0060  227.5660 N   0  0  0  0  0  0  0  0  0  0  0  0
  135.7650   81.8080  227.1850 C   0  0  0  0  0  0  0  0  0  0  0  0
  137.7290   80.9970  225.0620 C   0  0  0  0  0  0  0  0  0  0  0  0
  139.2850   79.8650  223.4120 C   0  0  0  0  0  0  0  0  0  0  0  0
  140.5790   80.3280  223.6810 C   0  0  0  0  0  0  0  0  0  0  0  0
  141.6670   79.4850  223.4090 C   0  0  0  0  0  0  0  0  0  0  0  0
  141.4520   78.2040  222.8680 C   0  0  0  0  0  0  0  0  0  0  0  0
  140.1470   77.7580  222.6050 C   0  0  0  0  0  0  0  0  0  0  0  0
  139.0760   78.6100  222.9000 C   0  0  0  0  0  0  0  0  0  0  0  0
  135.9870   75.3320  223.9840 N   0  0  0  0  0  0  0  0  0  0  0  0
  134.8980   75.3290  224.7690 C   0  0  0  0  0  0  0  0  0  0  0  0
  134.4150   74.2730  225.5380 C   0  0  0  0  0  0  0  0  0  0  0  0
  133.3730   71.7190  228.3180 H   0  0  0  0  0  0  0  0  0  0  0  0
  131.7050   75.9246  226.8755 H   0  0  0  0  0  0  0  0  0  0  0  0
  132.6463   77.7887  225.4717 H   0  0  0  0  0  0  0  0  0  0  0  0
  134.8024   78.4241  223.6731 H   0  0  0  0  0  0  0  0  0  0  0  0
  136.3614   79.9270  222.2487 H   0  0  0  0  0  0  0  0  0  0  0  0
  136.1969   79.2728  223.8868 H   0  0  0  0  0  0  0  0  0  0  0  0
  138.8601   82.4055  222.8414 H   0  0  0  0  0  0  0  0  0  0  0  0
  137.6266   81.7523  221.7845 H   0  0  0  0  0  0  0  0  0  0  0  0
  137.0453   83.7468  223.5266 H   0  0  0  0  0  0  0  0  0  0  0  0
  135.8436   82.4624  223.2419 H   0  0  0  0  0  0  0  0  0  0  0  0
  135.1632   83.1156  225.5122 H   0  0  0  0  0  0  0  0  0  0  0  0
  134.2272   81.2726  224.3083 H   0  0  0  0  0  0  0  0  0  0  0  0
  135.4960   80.1549  224.7993 H   0  0  0  0  0  0  0  0  0  0  0  0
  132.9744   80.9684  226.2272 H   0  0  0  0  0  0  0  0  0  0  0  0
  133.8865   79.4360  226.3463 H   0  0  0  0  0  0  0  0  0  0  0  0
  134.9290   80.1790  228.1210 H   0  0  0  0  0  0  0  0  0  0  0  0
  135.7885   82.7355  227.7760 H   0  0  0  0  0  0  0  0  0  0  0  0
  136.6932   81.2490  227.3749 H   0  0  0  0  0  0  0  0  0  0  0  0
  138.6893   81.1473  225.5770 H   0  0  0  0  0  0  0  0  0  0  0  0
  137.1665   80.2181  225.5976 H   0  0  0  0  0  0  0  0  0  0  0  0
  140.7393   81.3334  224.0976 H   0  0  0  0  0  0  0  0  0  0  0  0
  142.6913   79.8265  223.6193 H   0  0  0  0  0  0  0  0  0  0  0  0
  142.3092   77.5499  222.6504 H   0  0  0  0  0  0  0  0  0  0  0  0
  139.9699   76.7606  222.1764 H   0  0  0  0  0  0  0  0  0  0  0  0
  136.6640   74.5480  223.8530 H   0  0  0  0  0  0  0  0  0  0  0  0
  134.9289   73.3005  225.5467 H   0  0  0  0  0  0  0  0  0  0  0  0
  1  2  1  0
  2  3  2  0
  2  4  1  0
  4  5  2  0
  5  6  1  0
  6  7  2  0
  7  8  1  0
  8  9  2  0
  9 10  1  0
 10 11  2  0
 10 12  1  0
 12 13  1  0
 14 13  1  6
 14 15  1  0
 15 16  1  0
 16 17  1  0
 17 18  1  0
 18 19  1  0
 19 20  1  0
 20 21  1  0
 21 22  1  0
 17 23  1  0
 14 24  1  0
 24 25  2  0
 25 26  1  0
 26 27  2  0
 27 28  1  0
 28 29  2  0
  9 30  1  0
 30 31  1  0
 31 32  2  0
 32  4  1  0
 31  7  1  0
 29 12  1  0
 23 14  1  0
 29 24  1  0
 22 18  1  0
  1 33  1  0
  5 34  1  0
  6 35  1  0
  8 36  1  0
 13 37  1  0
 13 38  1  0
 15 39  1  0
 15 40  1  0
 16 41  1  0
 16 42  1  0
 18 43  1  1
 19 44  1  0
 19 45  1  0
 20 46  1  0
 20 47  1  0
 21 48  1  0
 22 49  1  0
 22 50  1  0
 23 51  1  0
 23 52  1  0
 25 53  1  0
 26 54  1  0
 27 55  1  0
 28 56  1  0
 30 57  1  0
 32 58  1  0
M  CHG  1   1  -1
M  END
>  <meeko>  (1) 
{"free_energy": -7.87, "intermolecular_energy": -9.36, "internal_energy": -1.45, "cluster_size": 5, "cluster_id": 6, "rank_in_cluster": 5}

$$$$

     RDKit          3D

 58 63  0  0  0  0  0  0  0  0999 V2000
  145.9100   73.0160  218.7780 N   0  0  0  0  0  0  0  0  0  0  0  0
  145.3180   73.2240  220.0600 C   0  0  0  0  0  0  0  0  0  0  0  0
  145.8330   72.6740  221.0710 O   0  0  0  0  0  0  0  0  0  0  0  0
  144.1120   74.0720  220.2030 C   0  0  0  0  0  0  0  0  0  0  0  0
  144.1040   75.3990  219.6930 C   0  0  0  0  0  0  0  0  0  0  0  0
  142.9670   76.2150  219.8230 C   0  0  0  0  0  0  0  0  0  0  0  0
  141.8560   75.6840  220.4690 C   0  0  0  0  0  0  0  0  0  0  0  0
  140.6210   76.2350  220.7260 C   0  0  0  0  0  0  0  0  0  0  0  0
  139.9130   75.2390  221.3950 C   0  0  0  0  0  0  0  0  0  0  0  0
  138.5170   75.3570  221.8500 C   0  0  0  0  0  0  0  0  0  0  0  0
  137.8320   74.3120  222.0110 O   0  0  0  0  0  0  0  0  0  0  0  0
  137.9210   76.6440  222.0800 N   0  0  0  0  0  0  0  0  0  0  0  0
  138.5620   77.6960  222.8750 C   0  0  0  0  0  0  0  0  0  0  0  0
  137.8590   79.0380  222.4660 C   0  0  1  0  0  0  0  0  0  0  0  0
  137.2370   79.7470  223.6580 C   0  0  0  0  0  0  0  0  0  0  0  0
  138.3770   80.5990  224.1790 C   0  0  0  0  0  0  0  0  0  0  0  0
  139.2090   80.9860  223.0210 N   0  0  0  0  0  0  0  0  0  0  0  0
  140.6580   80.9590  223.3350 C   0  0  1  0  0  0  0  0  0  0  0  0
  141.0990   79.6030  223.8560 C   0  0  0  0  0  0  0  0  0  0  0  0
  142.5500   79.4840  223.4240 C   0  0  0  0  0  0  0  0  0  0  0  0
  142.7650   80.3840  222.2900 N   0  0  0  0  0  0  0  0  0  0  0  0
  141.5210   81.1280  222.0850 C   0  0  0  0  0  0  0  0  0  0  0  0
  138.8480   80.0740  221.9160 C   0  0  0  0  0  0  0  0  0  0  0  0
  136.8440   78.5920  221.4530 C   0  0  0  0  0  0  0  0  0  0  0  0
  135.9130   79.3660  220.7510 C   0  0  0  0  0  0  0  0  0  0  0  0
  135.0480   78.7270  219.8490 C   0  0  0  0  0  0  0  0  0  0  0  0
  135.1170   77.3340  219.6680 C   0  0  0  0  0  0  0  0  0  0  0  0
  136.0580   76.5750  220.3820 C   0  0  0  0  0  0  0  0  0  0  0  0
  136.9220   77.2360  221.2640 C   0  0  0  0  0  0  0  0  0  0  0  0
  140.6670   74.1200  221.5310 N   0  0  0  0  0  0  0  0  0  0  0  0
  141.8500   74.4080  220.9650 C   0  0  0  0  0  0  0  0  0  0  0  0
  142.9560   73.5700  220.8480 C   0  0  0  0  0  0  0  0  0  0  0  0
  146.4480   73.7770  218.3050 H   0  0  0  0  0  0  0  0  0  0  0  0
  144.9996   75.7924  219.1899 H   0  0  0  0  0  0  0  0  0  0  0  0
  142.9564   77.2409  219.4264 H   0  0  0  0  0  0  0  0  0  0  0  0
  140.2694   77.2430  220.4607 H   0  0  0  0  0  0  0  0  0  0  0  0
  138.4212   77.5028  223.9487 H   0  0  0  0  0  0  0  0  0  0  0  0
  139.6455   77.7366  222.6898 H   0  0  0  0  0  0  0  0  0  0  0  0
  136.3864   80.3714  223.3472 H   0  0  0  0  0  0  0  0  0  0  0  0
  136.8324   79.0554  224.4117 H   0  0  0  0  0  0  0  0  0  0  0  0
  137.9787   81.4980  224.6722 H   0  0  0  0  0  0  0  0  0  0  0  0
  138.9737   80.0393  224.9143 H   0  0  0  0  0  0  0  0  0  0  0  0
  140.7877   81.7717  224.0648 H   0  0  0  0  0  0  0  0  0  0  0  0
  141.0148   79.5613  224.9520 H   0  0  0  0  0  0  0  0  0  0  0  0
  140.4778   78.7828  223.4668 H   0  0  0  0  0  0  0  0  0  0  0  0
  143.2108   79.7690  224.2560 H   0  0  0  0  0  0  0  0  0  0  0  0
  142.7763   78.4472  223.1344 H   0  0  0  0  0  0  0  0  0  0  0  0
  142.9610   79.8110  221.4340 H   0  0  0  0  0  0  0  0  0  0  0  0
  141.7449   82.1934  221.9272 H   0  0  0  0  0  0  0  0  0  0  0  0
  140.9899   80.7479  221.1998 H   0  0  0  0  0  0  0  0  0  0  0  0
  138.3786   80.6427  221.0998 H   0  0  0  0  0  0  0  0  0  0  0  0
  139.7455   79.5758  221.5206 H   0  0  0  0  0  0  0  0  0  0  0  0
  135.8601   80.4541  220.9032 H   0  0  0  0  0  0  0  0  0  0  0  0
  134.3137   79.3177  219.2818 H   0  0  0  0  0  0  0  0  0  0  0  0
  134.4318   76.8377  218.9650 H   0  0  0  0  0  0  0  0  0  0  0  0
  136.1154   75.4843  220.2514 H   0  0  0  0  0  0  0  0  0  0  0  0
  140.3800   73.2050  221.9440 H   0  0  0  0  0  0  0  0  0  0  0  0
  142.9321   72.5449  221.2463 H   0  0  0  0  0  0  0  0  0  0  0  0
  1  2  1  0
  2  3  2  0
  2  4  1  0
  4  5  2  0
  5  6  1  0
  6  7  2  0
  7  8  1  0
  8  9  2  0
  9 10  1  0
 10 11  2  0
 10 12  1  0
 12 13  1  0
 14 13  1  1
 14 15  1  0
 15 16  1  0
 16 17  1  0
 17 18  1  0
 18 19  1  0
 19 20  1  0
 20 21  1  0
 21 22  1  0
 17 23  1  0
 14 24  1  0
 24 25  2  0
 25 26  1  0
 26 27  2  0
 27 28  1  0
 28 29  2  0
  9 30  1  0
 30 31  1  0
 31 32  2  0
 32  4  1  0
 31  7  1  0
 29 12  1  0
 23 14  1  0
 29 24  1  0
 22 18  1  0
  1 33  1  0
  5 34  1  0
  6 35  1  0
  8 36  1  0
 13 37  1  0
 13 38  1  0
 15 39  1  0
 15 40  1  0
 16 41  1  0
 16 42  1  0
 18 43  1  1
 19 44  1  0
 19 45  1  0
 20 46  1  0
 20 47  1  0
 21 48  1  0
 22 49  1  0
 22 50  1  0
 23 51  1  0
 23 52  1  0
 25 53  1  0
 26 54  1  0
 27 55  1  0
 28 56  1  0
 30 57  1  0
 32 58  1  0
M  CHG  1   1  -1
M  END
>  <meeko>  (2) 
{"free_energy": -7.77, "intermolecular_energy": -9.26, "internal_energy": -1.61, "cluster_size": 5, "cluster_id": 3, "rank_in_cluster": 5}

$$$$

     RDKit          3D

 58 63  0  0  0  0  0  0  0  0999 V2000
  146.6990   69.7480  217.5910 N   0  0  0  0  0  0  0  0  0  0  0  0
  146.1060   69.6850  218.8870 C   0  0  0  0  0  0  0  0  0  0  0  0
  146.2540   68.6420  219.5800 O   0  0  0  0  0  0  0  0  0  0  0  0
  145.3220   70.8270  219.4110 C   0  0  0  0  0  0  0  0  0  0  0  0
  145.9420   72.0900  219.6150 C   0  0  0  0  0  0  0  0  0  0  0  0
  145.2110   73.1820  220.1140 C   0  0  0  0  0  0  0  0  0  0  0  0
  143.8650   72.9840  220.4050 C   0  0  0  0  0  0  0  0  0  0  0  0
  142.9150   73.8570  220.8840 C   0  0  0  0  0  0  0  0  0  0  0  0
  141.7470   73.1050  220.9730 C   0  0  0  0  0  0  0  0  0  0  0  0
  140.4400   73.6260  221.4120 C   0  0  0  0  0  0  0  0  0  0  0  0
  140.2740   74.8720  221.5000 O   0  0  0  0  0  0  0  0  0  0  0  0
  139.3710   72.7360  221.7700 N   0  0  0  0  0  0  0  0  0  0  0  0
  139.5820   71.4740  222.4840 C   0  0  0  0  0  0  0  0  0  0  0  0
  138.1910   71.0860  223.1010 C   0  0  1  0  0  0  0  0  0  0  0  0
  137.7180   69.7190  222.6360 C   0  0  0  0  0  0  0  0  0  0  0  0
  138.3370   68.7810  223.6530 C   0  0  0  0  0  0  0  0  0  0  0  0
  138.4120   69.5050  224.9380 N   0  0  0  0  0  0  0  0  0  0  0  0
  139.6680   69.2200  225.6730 C   0  0  1  0  0  0  0  0  0  0  0  0
  139.5670   69.6030  227.1380 C   0  0  0  0  0  0  0  0  0  0  0  0
  140.5020   68.6400  227.8480 C   0  0  0  0  0  0  0  0  0  0  0  0
  140.6770   67.4620  226.9970 N   0  0  0  0  0  0  0  0  0  0  0  0
  139.9670   67.7230  225.7440 C   0  0  0  0  0  0  0  0  0  0  0  0
  138.2470   70.9400  224.6270 C   0  0  0  0  0  0  0  0  0  0  0  0
  137.2980   72.2030  222.6450 C   0  0  0  0  0  0  0  0  0  0  0  0
  135.9300   72.3820  222.8870 C   0  0  0  0  0  0  0  0  0  0  0  0
  135.2920   73.5100  222.3490 C   0  0  0  0  0  0  0  0  0  0  0  0
  136.0190   74.4340  221.5760 C   0  0  0  0  0  0  0  0  0  0  0  0
  137.3890   74.2360  221.3440 C   0  0  0  0  0  0  0  0  0  0  0  0
  138.0090   73.1120  221.9050 C   0  0  0  0  0  0  0  0  0  0  0  0
  141.9580   71.8330  220.5550 N   0  0  0  0  0  0  0  0  0  0  0  0
  143.2550   71.7740  220.2150 C   0  0  0  0  0  0  0  0  0  0  0  0
  143.9480   70.6730  219.7170 C   0  0  0  0  0  0  0  0  0  0  0  0
  147.7060   70.0030  217.4740 H   0  0  0  0  0  0  0  0  0  0  0  0
  147.0091   72.2145  219.3790 H   0  0  0  0  0  0  0  0  0  0  0  0
  145.6876   74.1611  220.2693 H   0  0  0  0  0  0  0  0  0  0  0  0
  143.0494   74.9182  221.1407 H   0  0  0  0  0  0  0  0  0  0  0  0
  139.9220   70.6934  221.7875 H   0  0  0  0  0  0  0  0  0  0  0  0
  140.3528   71.5761  223.2621 H   0  0  0  0  0  0  0  0  0  0  0  0
  136.6201   69.6531  222.6540 H   0  0  0  0  0  0  0  0  0  0  0  0
  138.0082   69.4887  221.6003 H   0  0  0  0  0  0  0  0  0  0  0  0
  137.7121   67.8826  223.7642 H   0  0  0  0  0  0  0  0  0  0  0  0
  139.3391   68.4645  223.3280 H   0  0  0  0  0  0  0  0  0  0  0  0
  140.4321   69.7895  225.1236 H   0  0  0  0  0  0  0  0  0  0  0  0
  139.8905   70.6431  227.2912 H   0  0  0  0  0  0  0  0  0  0  0  0
  138.5361   69.5407  227.5165 H   0  0  0  0  0  0  0  0  0  0  0  0
  141.4750   69.1237  228.0192 H   0  0  0  0  0  0  0  0  0  0  0  0
  140.0793   68.3471  228.8204 H   0  0  0  0  0  0  0  0  0  0  0  0
  140.2390   66.6340  227.4680 H   0  0  0  0  0  0  0  0  0  0  0  0
  140.5948   67.4269  224.8906 H   0  0  0  0  0  0  0  0  0  0  0  0
  139.0320   67.1446  225.7072 H   0  0  0  0  0  0  0  0  0  0  0  0
  137.3140   71.3146  225.0732 H   0  0  0  0  0  0  0  0  0  0  0  0
  139.0858   71.5210  225.0379 H   0  0  0  0  0  0  0  0  0  0  0  0
  135.3667   71.6523  223.4872 H   0  0  0  0  0  0  0  0  0  0  0  0
  134.2196   73.6725  222.5322 H   0  0  0  0  0  0  0  0  0  0  0  0
  135.5124   75.3137  221.1525 H   0  0  0  0  0  0  0  0  0  0  0  0
  137.9639   74.9486  220.7343 H   0  0  0  0  0  0  0  0  0  0  0  0
  141.2540   71.0660  220.4660 H   0  0  0  0  0  0  0  0  0  0  0  0
  143.4409   69.7087  219.5653 H   0  0  0  0  0  0  0  0  0  0  0  0
  1  2  1  0
  2  3  2  0
  2  4  1  0
  4  5  2  0
  5  6  1  0
  6  7  2  0
  7  8  1  0
  8  9  2  0
  9 10  1  0
 10 11  2  0
 10 12  1  0
 12 13  1  0
 14 13  1  6
 14 15  1  0
 15 16  1  0
 16 17  1  0
 17 18  1  0
 18 19  1  0
 19 20  1  0
 20 21  1  0
 21 22  1  0
 17 23  1  0
 14 24  1  0
 24 25  2  0
 25 26  1  0
 26 27  2  0
 27 28  1  0
 28 29  2  0
  9 30  1  0
 30 31  1  0
 31 32  2  0
 32  4  1  0
 31  7  1  0
 29 12  1  0
 23 14  1  0
 29 24  1  0
 22 18  1  0
  1 33  1  0
  5 34  1  0
  6 35  1  0
  8 36  1  0
 13 37  1  0
 13 38  1  0
 15 39  1  0
 15 40  1  0
 16 41  1  0
 16 42  1  0
 18 43  1  6
 19 44  1  0
 19 45  1  0
 20 46  1  0
 20 47  1  0
 21 48  1  0
 22 49  1  0
 22 50  1  0
 23 51  1  0
 23 52  1  0
 25 53  1  0
 26 54  1  0
 27 55  1  0
 28 56  1  0
 30 57  1  0
 32 58  1  0
M  CHG  1   1  -1
M  END
>  <meeko>  (3) 
{"free_energy": -8.56, "intermolecular_energy": -10.05, "internal_energy": -0.98, "cluster_size": 3, "cluster_id": 1, "rank_in_cluster": 3}

$$$$

     RDKit          3D

 58 63  0  0  0  0  0  0  0  0999 V2000
  146.3170   73.0110  218.8690 N   0  0  0  0  0  0  0  0  0  0  0  0
  145.8650   73.2530  220.2000 C   0  0  0  0  0  0  0  0  0  0  0  0
  146.7120   73.4970  221.1030 O   0  0  0  0  0  0  0  0  0  0  0  0
  144.4200   73.2140  220.5220 C   0  0  0  0  0  0  0  0  0  0  0  0
  143.7780   71.9750  220.7940 C   0  0  0  0  0  0  0  0  0  0  0  0
  142.4070   71.9230  221.0990 C   0  0  0  0  0  0  0  0  0  0  0  0
  141.7010   73.1210  221.1220 C   0  0  0  0  0  0  0  0  0  0  0  0
  140.3750   73.3740  221.3970 C   0  0  0  0  0  0  0  0  0  0  0  0
  140.2390   74.7550  221.2730 C   0  0  0  0  0  0  0  0  0  0  0  0
  138.9920   75.5030  221.5080 C   0  0  0  0  0  0  0  0  0  0  0  0
  137.9090   75.0540  221.0440 O   0  0  0  0  0  0  0  0  0  0  0  0
  138.9990   76.7470  222.2270 N   0  0  0  0  0  0  0  0  0  0  0  0
  140.0970   77.7150  222.1460 C   0  0  0  0  0  0  0  0  0  0  0  0
  139.5070   79.0820  222.6410 C   0  0  1  0  0  0  0  0  0  0  0  0
  140.2760   79.6460  223.8230 C   0  0  0  0  0  0  0  0  0  0  0  0
  141.3750   80.4540  223.1610 C   0  0  0  0  0  0  0  0  0  0  0  0
  140.8350   80.9790  221.8900 N   0  0  0  0  0  0  0  0  0  0  0  0
  141.8350   80.9410  220.7950 C   0  0  1  0  0  0  0  0  0  0  0  0
  141.8340   79.6060  220.0730 C   0  0  0  0  0  0  0  0  0  0  0  0
  142.2660   79.9400  218.6570 C   0  0  0  0  0  0  0  0  0  0  0  0
  141.9870   81.3570  218.4160 N   0  0  0  0  0  0  0  0  0  0  0  0
  141.4990   81.9230  219.6730 C   0  0  0  0  0  0  0  0  0  0  0  0
  139.6250   80.1880  221.5840 C   0  0  0  0  0  0  0  0  0  0  0  0
  138.0850   78.7340  222.9770 C   0  0  0  0  0  0  0  0  0  0  0  0
  137.0780   79.5650  223.4820 C   0  0  0  0  0  0  0  0  0  0  0  0
  135.8120   79.0150  223.7310 C   0  0  0  0  0  0  0  0  0  0  0  0
  135.5700   77.6520  223.4830 C   0  0  0  0  0  0  0  0  0  0  0  0
  136.5940   76.8350  222.9780 C   0  0  0  0  0  0  0  0  0  0  0  0
  137.8450   77.4090  222.7200 C   0  0  0  0  0  0  0  0  0  0  0  0
  141.4240   75.3300  220.9540 N   0  0  0  0  0  0  0  0  0  0  0  0
  142.3040   74.3210  220.8610 C   0  0  0  0  0  0  0  0  0  0  0  0
  143.6620   74.4090  220.5620 C   0  0  0  0  0  0  0  0  0  0  0  0
  146.7160   73.7840  218.2890 H   0  0  0  0  0  0  0  0  0  0  0  0
  144.3627   71.0437  220.7653 H   0  0  0  0  0  0  0  0  0  0  0  0
  141.9086   70.9659  221.3126 H   0  0  0  0  0  0  0  0  0  0  0  0
  139.5939   72.6447  221.6577 H   0  0  0  0  0  0  0  0  0  0  0  0
  140.9305   77.4022  222.7921 H   0  0  0  0  0  0  0  0  0  0  0  0
  140.4897   77.7934  221.1215 H   0  0  0  0  0  0  0  0  0  0  0  0
  139.6328   80.2874  224.4434 H   0  0  0  0  0  0  0  0  0  0  0  0
  140.6580   78.8694  224.5019 H   0  0  0  0  0  0  0  0  0  0  0  0
  141.6747   81.2867  223.8143 H   0  0  0  0  0  0  0  0  0  0  0  0
  142.2599   79.8271  222.9768 H   0  0  0  0  0  0  0  0  0  0  0  0
  142.7875   81.1662  221.2971 H   0  0  0  0  0  0  0  0  0  0  0  0
  142.5444   78.9096  220.5423 H   0  0  0  0  0  0  0  0  0  0  0  0
  140.8510   79.1135  220.1054 H   0  0  0  0  0  0  0  0  0  0  0  0
  143.3428   79.7475  218.5410 H   0  0  0  0  0  0  0  0  0  0  0  0
  141.7177   79.3166  217.9354 H   0  0  0  0  0  0  0  0  0  0  0  0
  141.2310   81.4360  217.6930 H   0  0  0  0  0  0  0  0  0  0  0  0
  141.9898   82.8889  219.8629 H   0  0  0  0  0  0  0  0  0  0  0  0
  140.4126   82.0875  219.6218 H   0  0  0  0  0  0  0  0  0  0  0  0
  138.7363   80.8352  221.6190 H   0  0  0  0  0  0  0  0  0  0  0  0
  139.6966   79.7508  220.5772 H   0  0  0  0  0  0  0  0  0  0  0  0
  137.2758   80.6289  223.6797 H   0  0  0  0  0  0  0  0  0  0  0  0
  135.0051   79.6523  224.1219 H   0  0  0  0  0  0  0  0  0  0  0  0
  134.5765   77.2252  223.6851 H   0  0  0  0  0  0  0  0  0  0  0  0
  136.4172   75.7659  222.7889 H   0  0  0  0  0  0  0  0  0  0  0  0
  141.6300   76.3490  220.8480 H   0  0  0  0  0  0  0  0  0  0  0  0
  144.1333   75.3826  220.3620 H   0  0  0  0  0  0  0  0  0  0  0  0
  1  2  1  0
  2  3  2  0
  2  4  1  0
  4  5  2  0
  5  6  1  0
  6  7  2  0
  7  8  1  0
  8  9  2  0
  9 10  1  0
 10 11  2  0
 10 12  1  0
 12 13  1  0
 14 13  1  6
 14 15  1  0
 15 16  1  0
 16 17  1  0
 17 18  1  0
 18 19  1  0
 19 20  1  0
 20 21  1  0
 21 22  1  0
 17 23  1  0
 14 24  1  0
 24 25  2  0
 25 26  1  0
 26 27  2  0
 27 28  1  0
 28 29  2  0
  9 30  1  0
 30 31  1  0
 31 32  2  0
 32  4  1  0
 31  7  1  0
 29 12  1  0
 23 14  1  0
 29 24  1  0
 22 18  1  0
  1 33  1  0
  5 34  1  0
  6 35  1  0
  8 36  1  0
 13 37  1  0
 13 38  1  0
 15 39  1  0
 15 40  1  0
 16 41  1  0
 16 42  1  0
 18 43  1  1
 19 44  1  0
 19 45  1  0
 20 46  1  0
 20 47  1  0
 21 48  1  0
 22 49  1  0
 22 50  1  0
 23 51  1  0
 23 52  1  0
 25 53  1  0
 26 54  1  0
 27 55  1  0
 28 56  1  0
 30 57  1  0
 32 58  1  0
M  CHG  1   1  -1
M  END
>  <meeko>  (4) 
{"free_energy": -8.46, "intermolecular_energy": -9.95, "internal_energy": -1.13, "cluster_size": 5, "cluster_id": 3, "rank_in_cluster": 3}

$$$$

     RDKit          3D

 58 63  0  0  0  0  0  0  0  0999 V2000
  146.2950   73.0160  218.8290 N   0  0  0  0  0  0  0  0  0  0  0  0
  145.8600   73.2940  220.1590 C   0  0  0  0  0  0  0  0  0  0  0  0
  146.7190   73.5710  221.0410 O   0  0  0  0  0  0  0  0  0  0  0  0
  144.4200   73.2550  220.5040 C   0  0  0  0  0  0  0  0  0  0  0  0
  143.7940   72.0210  220.8310 C   0  0  0  0  0  0  0  0  0  0  0  0
  142.4280   71.9700  221.1590 C   0  0  0  0  0  0  0  0  0  0  0  0
  141.7120   73.1620  221.1480 C   0  0  0  0  0  0  0  0  0  0  0  0
  140.3880   73.4130  221.4330 C   0  0  0  0  0  0  0  0  0  0  0  0
  140.2380   74.7880  221.2610 C   0  0  0  0  0  0  0  0  0  0  0  0
  138.9880   75.5330  221.4870 C   0  0  0  0  0  0  0  0  0  0  0  0
  137.9100   75.0840  221.0120 O   0  0  0  0  0  0  0  0  0  0  0  0
  138.9870   76.7750  222.2110 N   0  0  0  0  0  0  0  0  0  0  0  0
  140.0770   77.7510  222.1300 C   0  0  0  0  0  0  0  0  0  0  0  0
  139.4770   79.1130  222.6310 C   0  0  1  0  0  0  0  0  0  0  0  0
  140.2450   79.6790  223.8140 C   0  0  0  0  0  0  0  0  0  0  0  0
  141.3360   80.4970  223.1510 C   0  0  0  0  0  0  0  0  0  0  0  0
  140.7890   81.0220  221.8840 N   0  0  0  0  0  0  0  0  0  0  0  0
  141.7870   80.9960  220.7870 C   0  0  1  0  0  0  0  0  0  0  0  0
  141.8010   79.6600  220.0660 C   0  0  0  0  0  0  0  0  0  0  0  0
  142.2260   79.9980  218.6480 C   0  0  0  0  0  0  0  0  0  0  0  0
  141.9280   81.4110  218.4060 N   0  0  0  0  0  0  0  0  0  0  0  0
  141.4360   81.9720  219.6640 C   0  0  0  0  0  0  0  0  0  0  0  0
  139.5840   80.2230  221.5770 C   0  0  0  0  0  0  0  0  0  0  0  0
  138.0590   78.7530  222.9690 C   0  0  0  0  0  0  0  0  0  0  0  0
  137.0470   79.5740  223.4780 C   0  0  0  0  0  0  0  0  0  0  0  0
  135.7850   79.0140  223.7290 C   0  0  0  0  0  0  0  0  0  0  0  0
  135.5540   77.6490  223.4770 C   0  0  0  0  0  0  0  0  0  0  0  0
  136.5830   76.8420  222.9660 C   0  0  0  0  0  0  0  0  0  0  0  0
  137.8290   77.4260  222.7080 C   0  0  0  0  0  0  0  0  0  0  0  0
  141.4130   75.3610  220.9030 N   0  0  0  0  0  0  0  0  0  0  0  0
  142.3010   74.3560  220.8340 C   0  0  0  0  0  0  0  0  0  0  0  0
  143.6530   74.4450  220.5110 C   0  0  0  0  0  0  0  0  0  0  0  0
  146.6990   73.7690  218.2280 H   0  0  0  0  0  0  0  0  0  0  0  0
  144.3863   71.0941  220.8273 H   0  0  0  0  0  0  0  0  0  0  0  0
  141.9411   71.0177  221.4161 H   0  0  0  0  0  0  0  0  0  0  0  0
  139.6174   72.6869  221.7312 H   0  0  0  0  0  0  0  0  0  0  0  0
  140.9145   77.4428  222.7731 H   0  0  0  0  0  0  0  0  0  0  0  0
  140.4667   77.8354  221.1048 H   0  0  0  0  0  0  0  0  0  0  0  0
  139.5987   80.3137  224.4381 H   0  0  0  0  0  0  0  0  0  0  0  0
  140.6342   78.9033  224.4899 H   0  0  0  0  0  0  0  0  0  0  0  0
  141.6317   81.3297  223.8061 H   0  0  0  0  0  0  0  0  0  0  0  0
  142.2246   79.8768  222.9620 H   0  0  0  0  0  0  0  0  0  0  0  0
  142.7374   81.2343  221.2870 H   0  0  0  0  0  0  0  0  0  0  0  0
  142.5210   78.9729  220.5344 H   0  0  0  0  0  0  0  0  0  0  0  0
  140.8242   79.1554  220.1010 H   0  0  0  0  0  0  0  0  0  0  0  0
  143.3050   79.8194  218.5300 H   0  0  0  0  0  0  0  0  0  0  0  0
  141.6845   79.3666  217.9282 H   0  0  0  0  0  0  0  0  0  0  0  0
  141.1690   81.4790  217.6850 H   0  0  0  0  0  0  0  0  0  0  0  0
  141.9149   82.9444  219.8515 H   0  0  0  0  0  0  0  0  0  0  0  0
  140.3474   82.1221  219.6151 H   0  0  0  0  0  0  0  0  0  0  0  0
  138.6904   80.8633  221.6157 H   0  0  0  0  0  0  0  0  0  0  0  0
  139.6565   79.7899  220.5685 H   0  0  0  0  0  0  0  0  0  0  0  0
  137.2370   80.6389  223.6778 H   0  0  0  0  0  0  0  0  0  0  0  0
  134.9741   79.6438  224.1238 H   0  0  0  0  0  0  0  0  0  0  0  0
  134.5648   77.2132  223.6809 H   0  0  0  0  0  0  0  0  0  0  0  0
  136.4136   75.7725  222.7723 H   0  0  0  0  0  0  0  0  0  0  0  0
  141.6080   76.3760  220.7560 H   0  0  0  0  0  0  0  0  0  0  0  0
  144.1127   75.4143  220.2678 H   0  0  0  0  0  0  0  0  0  0  0  0
  1  2  1  0
  2  3  2  0
  2  4  1  0
  4  5  2  0
  5  6  1  0
  6  7  2  0
  7  8  1  0
  8  9  2  0
  9 10  1  0
 10 11  2  0
 10 12  1  0
 12 13  1  0
 14 13  1  6
 14 15  1  0
 15 16  1  0
 16 17  1  0
 17 18  1  0
 18 19  1  0
 19 20  1  0
 20 21  1  0
 21 22  1  0
 17 23  1  0
 14 24  1  0
 24 25  2  0
 25 26  1  0
 26 27  2  0
 27 28  1  0
 28 29  2  0
  9 30  1  0
 30 31  1  0
 31 32  2  0
 32  4  1  0
 31  7  1  0
 29 12  1  0
 23 14  1  0
 29 24  1  0
 22 18  1  0
  1 33  1  0
  5 34  1  0
  6 35  1  0
  8 36  1  0
 13 37  1  0
 13 38  1  0
 15 39  1  0
 15 40  1  0
 16 41  1  0
 16 42  1  0
 18 43  1  1
 19 44  1  0
 19 45  1  0
 20 46  1  0
 20 47  1  0
 21 48  1  0
 22 49  1  0
 22 50  1  0
 23 51  1  0
 23 52  1  0
 25 53  1  0
 26 54  1  0
 27 55  1  0
 28 56  1  0
 30 57  1  0
 32 58  1  0
M  CHG  1   1  -1
M  END
>  <meeko>  (5) 
{"free_energy": -8.47, "intermolecular_energy": -9.96, "internal_energy": -1.13, "cluster_size": 5, "cluster_id": 3, "rank_in_cluster": 2}

$$$$

     RDKit          3D

 58 63  0  0  0  0  0  0  0  0999 V2000
  131.5370   73.3620  227.7220 N   0  0  0  0  0  0  0  0  0  0  0  0
  132.8310   73.2800  227.1270 C   0  0  0  0  0  0  0  0  0  0  0  0
  133.5360   72.2540  227.3270 O   0  0  0  0  0  0  0  0  0  0  0  0
  133.3440   74.3870  226.2870 C   0  0  0  0  0  0  0  0  0  0  0  0
  132.6470   75.6250  226.2280 C   0  0  0  0  0  0  0  0  0  0  0  0
  133.1210   76.6840  225.4340 C   0  0  0  0  0  0  0  0  0  0  0  0
  134.2890   76.4780  224.7070 C   0  0  0  0  0  0  0  0  0  0  0  0
  134.9830   77.3220  223.8700 C   0  0  0  0  0  0  0  0  0  0  0  0
  136.0750   76.5770  223.4310 C   0  0  0  0  0  0  0  0  0  0  0  0
  137.1290   77.0770  222.5320 C   0  0  0  0  0  0  0  0  0  0  0  0
  137.5490   76.3350  221.6040 O   0  0  0  0  0  0  0  0  0  0  0  0
  137.7040   78.3810  222.7180 N   0  0  0  0  0  0  0  0  0  0  0  0
  136.9280   79.5460  223.1530 C   0  0  0  0  0  0  0  0  0  0  0  0
  137.9710   80.5820  223.7020 C   0  0  1  0  0  0  0  0  0  0  0  0
  137.8960   81.9140  222.9750 C   0  0  0  0  0  0  0  0  0  0  0  0
  136.8480   82.6740  223.7640 C   0  0  0  0  0  0  0  0  0  0  0  0
  136.9420   82.2290  225.1700 N   0  0  0  0  0  0  0  0  0  0  0  0
  135.6100   82.0900  225.8060 C   0  0  1  0  0  0  0  0  0  0  0  0
  134.8540   80.8830  225.2820 C   0  0  0  0  0  0  0  0  0  0  0  0
  133.9740   80.4530  226.4420 C   0  0  0  0  0  0  0  0  0  0  0  0
  134.5630   80.9680  227.6790 N   0  0  0  0  0  0  0  0  0  0  0  0
  135.7140   81.7900  227.3010 C   0  0  0  0  0  0  0  0  0  0  0  0
  137.7050   80.9630  225.1640 C   0  0  0  0  0  0  0  0  0  0  0  0
  139.2820   79.8780  223.5040 C   0  0  0  0  0  0  0  0  0  0  0  0
  140.5720   80.3330  223.8020 C   0  0  0  0  0  0  0  0  0  0  0  0
  141.6640   79.4970  223.5200 C   0  0  0  0  0  0  0  0  0  0  0  0
  141.4570   78.2320  222.9400 C   0  0  0  0  0  0  0  0  0  0  0  0
  140.1550   77.7950  222.6480 C   0  0  0  0  0  0  0  0  0  0  0  0
  139.0800   78.6380  222.9530 C   0  0  0  0  0  0  0  0  0  0  0  0
  136.0670   75.3380  223.9820 N   0  0  0  0  0  0  0  0  0  0  0  0
  134.9700   75.2920  224.7540 C   0  0  0  0  0  0  0  0  0  0  0  0
  134.5320   74.2250  225.5350 C   0  0  0  0  0  0  0  0  0  0  0  0
  131.3900   73.1030  228.7240 H   0  0  0  0  0  0  0  0  0  0  0  0
  131.7240   75.7560  226.8118 H   0  0  0  0  0  0  0  0  0  0  0  0
  132.5858   77.6440  225.3891 H   0  0  0  0  0  0  0  0  0  0  0  0
  134.7302   78.3593  223.6053 H   0  0  0  0  0  0  0  0  0  0  0  0
  136.3743   79.9745  222.3046 H   0  0  0  0  0  0  0  0  0  0  0  0
  136.1893   79.2733  223.9211 H   0  0  0  0  0  0  0  0  0  0  0  0
  138.8650   82.4340  223.0013 H   0  0  0  0  0  0  0  0  0  0  0  0
  137.6468   81.8125  221.9084 H   0  0  0  0  0  0  0  0  0  0  0  0
  137.0394   83.7552  223.6986 H   0  0  0  0  0  0  0  0  0  0  0  0
  135.8429   82.4787  223.3620 H   0  0  0  0  0  0  0  0  0  0  0  0
  135.1113   83.0461  225.5889 H   0  0  0  0  0  0  0  0  0  0  0  0
  134.2418   81.1562  224.4099 H   0  0  0  0  0  0  0  0  0  0  0  0
  135.5276   80.0801  224.9478 H   0  0  0  0  0  0  0  0  0  0  0  0
  132.9614   80.8629  226.3130 H   0  0  0  0  0  0  0  0  0  0  0  0
  133.9070   79.3558  226.4814 H   0  0  0  0  0  0  0  0  0  0  0  0
  134.9000   80.1610  228.2570 H   0  0  0  0  0  0  0  0  0  0  0  0
  135.7047   82.7302  227.8719 H   0  0  0  0  0  0  0  0  0  0  0  0
  136.6516   81.2579  227.5195 H   0  0  0  0  0  0  0  0  0  0  0  0
  138.6589   81.0986  225.6947 H   0  0  0  0  0  0  0  0  0  0  0  0
  137.1360   80.1693  225.6702 H   0  0  0  0  0  0  0  0  0  0  0  0
  140.7270   81.3263  224.2485 H   0  0  0  0  0  0  0  0  0  0  0  0
  142.6853   79.8323  223.7534 H   0  0  0  0  0  0  0  0  0  0  0  0
  142.3169   77.5840  222.7148 H   0  0  0  0  0  0  0  0  0  0  0  0
  139.9833   76.8102  222.1889 H   0  0  0  0  0  0  0  0  0  0  0  0
  136.7850   74.5880  223.8720 H   0  0  0  0  0  0  0  0  0  0  0  0
  135.0951   73.2806  225.5665 H   0  0  0  0  0  0  0  0  0  0  0  0
  1  2  1  0
  2  3  2  0
  2  4  1  0
  4  5  2  0
  5  6  1  0
  6  7  2  0
  7  8  1  0
  8  9  2  0
  9 10  1  0
 10 11  2  0
 10 12  1  0
 12 13  1  0
 14 13  1  6
 14 15  1  0
 15 16  1  0
 16 17  1  0
 17 18  1  0
 18 19  1  0
 19 20  1  0
 20 21  1  0
 21 22  1  0
 17 23  1  0
 14 24  1  0
 24 25  2  0
 25 26  1  0
 26 27  2  0
 27 28  1  0
 28 29  2  0
  9 30  1  0
 30 31  1  0
 31 32  2  0
 32  4  1  0
 31  7  1  0
 29 12  1  0
 23 14  1  0
 29 24  1  0
 22 18  1  0
  1 33  1  0
  5 34  1  0
  6 35  1  0
  8 36  1  0
 13 37  1  0
 13 38  1  0
 15 39  1  0
 15 40  1  0
 16 41  1  0
 16 42  1  0
 18 43  1  1
 19 44  1  0
 19 45  1  0
 20 46  1  0
 20 47  1  0
 21 48  1  0
 22 49  1  0
 22 50  1  0
 23 51  1  0
 23 52  1  0
 25 53  1  0
 26 54  1  0
 27 55  1  0
 28 56  1  0
 30 57  1  0
 32 58  1  0
M  CHG  1   1  -1
M  END
>  <meeko>  (6) 
{"free_energy": -8.17, "intermolecular_energy": -9.66, "internal_energy": -1.46, "cluster_size": 5, "cluster_id": 6, "rank_in_cluster": 2}

$$$$

     RDKit          3D

 58 63  0  0  0  0  0  0  0  0999 V2000
  146.7100   69.9790  217.6500 N   0  0  0  0  0  0  0  0  0  0  0  0
  146.1280   69.9190  218.9510 C   0  0  0  0  0  0  0  0  0  0  0  0
  146.3500   68.9120  219.6770 O   0  0  0  0  0  0  0  0  0  0  0  0
  145.2720   71.0220  219.4440 C   0  0  0  0  0  0  0  0  0  0  0  0
  145.7430   72.3640  219.4150 C   0  0  0  0  0  0  0  0  0  0  0  0
  144.9420   73.4200  219.8810 C   0  0  0  0  0  0  0  0  0  0  0  0
  143.6790   73.1100  220.3750 C   0  0  0  0  0  0  0  0  0  0  0  0
  142.6890   73.9240  220.8770 C   0  0  0  0  0  0  0  0  0  0  0  0
  141.6480   73.0610  221.2110 C   0  0  0  0  0  0  0  0  0  0  0  0
  140.3480   73.4830  221.7620 C   0  0  0  0  0  0  0  0  0  0  0  0
  140.1270   74.7100  221.9450 O   0  0  0  0  0  0  0  0  0  0  0  0
  139.3480   72.5160  222.1200 N   0  0  0  0  0  0  0  0  0  0  0  0
  139.6630   71.2330  222.7570 C   0  0  0  0  0  0  0  0  0  0  0  0
  138.3270   70.7360  223.4150 C   0  0  1  0  0  0  0  0  0  0  0  0
  137.9080   69.3690  222.9010 C   0  0  0  0  0  0  0  0  0  0  0  0
  138.6270   68.4180  223.8380 C   0  0  0  0  0  0  0  0  0  0  0  0
  138.7240   69.0800  225.1550 N   0  0  0  0  0  0  0  0  0  0  0  0
  140.0280   68.8320  225.8160 C   0  0  1  0  0  0  0  0  0  0  0  0
  140.2350   69.7350  227.0180 C   0  0  0  0  0  0  0  0  0  0  0  0
  141.1180   68.9270  227.9520 C   0  0  0  0  0  0  0  0  0  0  0  0
  140.9680   67.5110  227.6130 N   0  0  0  0  0  0  0  0  0  0  0  0
  140.1050   67.4360  226.4340 C   0  0  0  0  0  0  0  0  0  0  0  0
  138.4650   70.5170  224.9270 C   0  0  0  0  0  0  0  0  0  0  0  0
  137.3520   71.8210  223.0600 C   0  0  0  0  0  0  0  0  0  0  0  0
  135.9910   71.9080  223.3730 C   0  0  0  0  0  0  0  0  0  0  0  0
  135.2660   73.0230  222.9240 C   0  0  0  0  0  0  0  0  0  0  0  0
  135.9020   74.0240  222.1680 C   0  0  0  0  0  0  0  0  0  0  0  0
  137.2690   73.9180  221.8640 C   0  0  0  0  0  0  0  0  0  0  0  0
  137.9760   72.8050  222.3370 C   0  0  0  0  0  0  0  0  0  0  0  0
  141.9710   71.7780  220.9150 N   0  0  0  0  0  0  0  0  0  0  0  0
  143.2130   71.8240  220.4100 C   0  0  0  0  0  0  0  0  0  0  0  0
  143.9780   70.7540  219.9510 C   0  0  0  0  0  0  0  0  0  0  0  0
  147.7470   69.9710  217.5240 H   0  0  0  0  0  0  0  0  0  0  0  0
  146.7480   72.5778  219.0224 H   0  0  0  0  0  0  0  0  0  0  0  0
  145.3022   74.4591  219.8560 H   0  0  0  0  0  0  0  0  0  0  0  0
  142.7144   75.0179  220.9898 H   0  0  0  0  0  0  0  0  0  0  0  0
  140.0114   70.5089  222.0059 H   0  0  0  0  0  0  0  0  0  0  0  0
  140.4639   71.3400  223.5034 H   0  0  0  0  0  0  0  0  0  0  0  0
  136.8176   69.2392  222.9660 H   0  0  0  0  0  0  0  0  0  0  0  0
  138.1596   69.2078  221.8424 H   0  0  0  0  0  0  0  0  0  0  0  0
  138.0590   67.4805  223.9299 H   0  0  0  0  0  0  0  0  0  0  0  0
  139.6281   68.1766  223.4513 H   0  0  0  0  0  0  0  0  0  0  0  0
  140.7660   68.9929  225.0163 H   0  0  0  0  0  0  0  0  0  0  0  0
  140.7347   70.6690  226.7214 H   0  0  0  0  0  0  0  0  0  0  0  0
  139.2855   70.0286  227.4894 H   0  0  0  0  0  0  0  0  0  0  0  0
  142.1679   69.2305  227.8271 H   0  0  0  0  0  0  0  0  0  0  0  0
  140.8236   69.1004  228.9976 H   0  0  0  0  0  0  0  0  0  0  0  0
  140.4950   67.0190  228.4100 H   0  0  0  0  0  0  0  0  0  0  0  0
  140.5281   66.7282  225.7060 H   0  0  0  0  0  0  0  0  0  0  0  0
  139.1008   67.0872  226.7168 H   0  0  0  0  0  0  0  0  0  0  0  0
  137.5354   70.8145  225.4343 H   0  0  0  0  0  0  0  0  0  0  0  0
  139.2897   71.1239  225.3288 H   0  0  0  0  0  0  0  0  0  0  0  0
  135.4988   71.1181  223.9594 H   0  0  0  0  0  0  0  0  0  0  0  0
  134.1965   73.1142  223.1643 H   0  0  0  0  0  0  0  0  0  0  0  0
  135.3271   74.8924  221.8138 H   0  0  0  0  0  0  0  0  0  0  0  0
  137.7736   74.6922  221.2674 H   0  0  0  0  0  0  0  0  0  0  0  0
  141.3670   70.9310  221.0110 H   0  0  0  0  0  0  0  0  0  0  0  0
  143.5862   69.7266  219.9818 H   0  0  0  0  0  0  0  0  0  0  0  0
  1  2  1  0
  2  3  2  0
  2  4  1  0
  4  5  2  0
  5  6  1  0
  6  7  2  0
  7  8  1  0
  8  9  2  0
  9 10  1  0
 10 11  2  0
 10 12  1  0
 12 13  1  0
 14 13  1  6
 14 15  1  0
 15 16  1  0
 16 17  1  0
 17 18  1  0
 18 19  1  0
 19 20  1  0
 20 21  1  0
 21 22  1  0
 17 23  1  0
 14 24  1  0
 24 25  2  0
 25 26  1  0
 26 27  2  0
 27 28  1  0
 28 29  2  0
  9 30  1  0
 30 31  1  0
 31 32  2  0
 32  4  1  0
 31  7  1  0
 29 12  1  0
 23 14  1  0
 29 24  1  0
 22 18  1  0
  1 33  1  0
  5 34  1  0
  6 35  1  0
  8 36  1  0
 13 37  1  0
 13 38  1  0
 15 39  1  0
 15 40  1  0
 16 41  1  0
 16 42  1  0
 18 43  1  6
 19 44  1  0
 19 45  1  0
 20 46  1  0
 20 47  1  0
 21 48  1  0
 22 49  1  0
 22 50  1  0
 23 51  1  0
 23 52  1  0
 25 53  1  0
 26 54  1  0
 27 55  1  0
 28 56  1  0
 30 57  1  0
 32 58  1  0
M  CHG  1   1  -1
M  END
>  <meeko>  (7) 
{"free_energy": -8.92, "intermolecular_energy": -10.41, "internal_energy": -0.98, "cluster_size": 3, "cluster_id": 1, "rank_in_cluster": 1}

$$$$

     RDKit          3D

 58 63  0  0  0  0  0  0  0  0999 V2000
  131.5740   73.3190  227.7960 N   0  0  0  0  0  0  0  0  0  0  0  0
  132.8750   73.2500  227.2150 C   0  0  0  0  0  0  0  0  0  0  0  0
  133.5940   72.2370  227.4370 O   0  0  0  0  0  0  0  0  0  0  0  0
  133.3800   74.3530  226.3660 C   0  0  0  0  0  0  0  0  0  0  0  0
  132.6960   75.5990  226.3270 C   0  0  0  0  0  0  0  0  0  0  0  0
  133.1620   76.6540  225.5240 C   0  0  0  0  0  0  0  0  0  0  0  0
  134.3090   76.4380  224.7680 C   0  0  0  0  0  0  0  0  0  0  0  0
  134.9910   77.2760  223.9160 C   0  0  0  0  0  0  0  0  0  0  0  0
  136.0630   76.5200  223.4480 C   0  0  0  0  0  0  0  0  0  0  0  0
  137.1010   77.0100  222.5230 C   0  0  0  0  0  0  0  0  0  0  0  0
  137.4790   76.2710  221.5760 O   0  0  0  0  0  0  0  0  0  0  0  0
  137.7050   78.3010  222.7070 N   0  0  0  0  0  0  0  0  0  0  0  0
  136.9540   79.4860  223.1310 C   0  0  0  0  0  0  0  0  0  0  0  0
  138.0190   80.5000  223.6820 C   0  0  1  0  0  0  0  0  0  0  0  0
  137.9790   81.8300  222.9470 C   0  0  0  0  0  0  0  0  0  0  0  0
  136.9460   82.6180  223.7270 C   0  0  0  0  0  0  0  0  0  0  0  0
  137.0200   82.1780  225.1350 N   0  0  0  0  0  0  0  0  0  0  0  0
  135.6810   82.0750  225.7640 C   0  0  1  0  0  0  0  0  0  0  0  0
  134.8930   80.8930  225.2280 C   0  0  0  0  0  0  0  0  0  0  0  0
  133.9950   80.4810  226.3810 C   0  0  0  0  0  0  0  0  0  0  0  0
  134.5930   80.9730  227.6240 N   0  0  0  0  0  0  0  0  0  0  0  0
  135.7680   81.7630  227.2570 C   0  0  0  0  0  0  0  0  0  0  0  0
  137.7520   80.8950  225.1400 C   0  0  0  0  0  0  0  0  0  0  0  0
  139.3140   79.7640  223.4950 C   0  0  0  0  0  0  0  0  0  0  0  0
  140.6120   80.1890  223.7990 C   0  0  0  0  0  0  0  0  0  0  0  0
  141.6850   79.3270  223.5280 C   0  0  0  0  0  0  0  0  0  0  0  0
  141.4520   78.0640  222.9530 C   0  0  0  0  0  0  0  0  0  0  0  0
  140.1420   77.6560  222.6540 C   0  0  0  0  0  0  0  0  0  0  0  0
  139.0850   78.5260  222.9490 C   0  0  0  0  0  0  0  0  0  0  0  0
  136.0550   75.2800  223.9950 N   0  0  0  0  0  0  0  0  0  0  0  0
  134.9770   75.2430  224.7940 C   0  0  0  0  0  0  0  0  0  0  0  0
  134.5470   74.1790  225.5830 C   0  0  0  0  0  0  0  0  0  0  0  0
  131.4270   73.1140  228.8100 H   0  0  0  0  0  0  0  0  0  0  0  0
  131.7893   75.7391  226.9339 H   0  0  0  0  0  0  0  0  0  0  0  0
  132.6363   77.6198  225.4944 H   0  0  0  0  0  0  0  0  0  0  0  0
  134.7434   78.3168  223.6601 H   0  0  0  0  0  0  0  0  0  0  0  0
  136.4161   79.9233  222.2769 H   0  0  0  0  0  0  0  0  0  0  0  0
  136.2038   79.2350  223.8953 H   0  0  0  0  0  0  0  0  0  0  0  0
  138.9598   82.3272  222.9751 H   0  0  0  0  0  0  0  0  0  0  0  0
  137.7327   81.7288  221.8797 H   0  0  0  0  0  0  0  0  0  0  0  0
  137.1642   83.6939  223.6581 H   0  0  0  0  0  0  0  0  0  0  0  0
  135.9389   82.4445  223.3200 H   0  0  0  0  0  0  0  0  0  0  0  0
  135.2118   83.0469  225.5511 H   0  0  0  0  0  0  0  0  0  0  0  0
  134.2934   81.1892  224.3547 H   0  0  0  0  0  0  0  0  0  0  0  0
  135.5450   80.0733  224.8918 H   0  0  0  0  0  0  0  0  0  0  0  0
  132.9949   80.9199  226.2495 H   0  0  0  0  0  0  0  0  0  0  0  0
  133.8964   79.3859  226.4138 H   0  0  0  0  0  0  0  0  0  0  0  0
  134.9030   80.1530  228.2000 H   0  0  0  0  0  0  0  0  0  0  0  0
  135.7828   82.6996  227.8336 H   0  0  0  0  0  0  0  0  0  0  0  0
  136.6886   81.2025  227.4768 H   0  0  0  0  0  0  0  0  0  0  0  0
  138.7052   81.0104  225.6767 H   0  0  0  0  0  0  0  0  0  0  0  0
  137.1603   80.1178  225.6458 H   0  0  0  0  0  0  0  0  0  0  0  0
  140.7877   81.1803  224.2421 H   0  0  0  0  0  0  0  0  0  0  0  0
  142.7125   79.6396  223.7659 H   0  0  0  0  0  0  0  0  0  0  0  0
  142.2979   77.3948  222.7372 H   0  0  0  0  0  0  0  0  0  0  0  0
  139.9501   76.6737  222.1977 H   0  0  0  0  0  0  0  0  0  0  0  0
  136.7610   74.5210  223.8650 H   0  0  0  0  0  0  0  0  0  0  0  0
  135.0996   73.2280  225.5976 H   0  0  0  0  0  0  0  0  0  0  0  0
  1  2  1  0
  2  3  2  0
  2  4  1  0
  4  5  2  0
  5  6  1  0
  6  7  2  0
  7  8  1  0
  8  9  2  0
  9 10  1  0
 10 11  2  0
 10 12  1  0
 12 13  1  0
 14 13  1  6
 14 15  1  0
 15 16  1  0
 16 17  1  0
 17 18  1  0
 18 19  1  0
 19 20  1  0
 20 21  1  0
 21 22  1  0
 17 23  1  0
 14 24  1  0
 24 25  2  0
 25 26  1  0
 26 27  2  0
 27 28  1  0
 28 29  2  0
  9 30  1  0
 30 31  1  0
 31 32  2  0
 32  4  1  0
 31  7  1  0
 29 12  1  0
 23 14  1  0
 29 24  1  0
 22 18  1  0
  1 33  1  0
  5 34  1  0
  6 35  1  0
  8 36  1  0
 13 37  1  0
 13 38  1  0
 15 39  1  0
 15 40  1  0
 16 41  1  0
 16 42  1  0
 18 43  1  1
 19 44  1  0
 19 45  1  0
 20 46  1  0
 20 47  1  0
 21 48  1  0
 22 49  1  0
 22 50  1  0
 23 51  1  0
 23 52  1  0
 25 53  1  0
 26 54  1  0
 27 55  1  0
 28 56  1  0
 30 57  1  0
 32 58  1  0
M  CHG  1   1  -1
M  END
>  <meeko>  (8) 
{"free_energy": -8.13, "intermolecular_energy": -9.62, "internal_energy": -1.47, "cluster_size": 5, "cluster_id": 6, "rank_in_cluster": 3}

$$$$

     RDKit          3D

 58 63  0  0  0  0  0  0  0  0999 V2000
  146.0010   73.0090  218.6870 N   0  0  0  0  0  0  0  0  0  0  0  0
  145.3660   73.2060  219.9490 C   0  0  0  0  0  0  0  0  0  0  0  0
  145.8490   72.6500  220.9730 O   0  0  0  0  0  0  0  0  0  0  0  0
  144.1530   74.0490  220.0580 C   0  0  0  0  0  0  0  0  0  0  0  0
  144.0830   75.2950  219.3770 C   0  0  0  0  0  0  0  0  0  0  0  0
  142.9390   76.1060  219.4720 C   0  0  0  0  0  0  0  0  0  0  0  0
  141.8840   75.6520  220.2560 C   0  0  0  0  0  0  0  0  0  0  0  0
  140.6560   76.2170  220.5200 C   0  0  0  0  0  0  0  0  0  0  0  0
  140.0160   75.3110  221.3620 C   0  0  0  0  0  0  0  0  0  0  0  0
  138.6500   75.4710  221.8890 C   0  0  0  0  0  0  0  0  0  0  0  0
  137.9110   74.4560  222.0010 O   0  0  0  0  0  0  0  0  0  0  0  0
  138.1410   76.7670  222.2450 N   0  0  0  0  0  0  0  0  0  0  0  0
  138.9870   77.8480  222.7590 C   0  0  0  0  0  0  0  0  0  0  0  0
  138.1770   79.1750  222.5390 C   0  0  1  0  0  0  0  0  0  0  0  0
  137.9520   79.9310  223.8370 C   0  0  0  0  0  0  0  0  0  0  0  0
  139.1890   80.8010  223.9440 C   0  0  0  0  0  0  0  0  0  0  0  0
  139.6130   81.1400  222.5700 N   0  0  0  0  0  0  0  0  0  0  0  0
  141.0880   81.1230  222.4160 C   0  0  1  0  0  0  0  0  0  0  0  0
  141.7980   81.1700  223.7560 C   0  0  0  0  0  0  0  0  0  0  0  0
  143.1000   80.4250  223.5220 C   0  0  0  0  0  0  0  0  0  0  0  0
  142.9220   79.5450  222.3660 N   0  0  0  0  0  0  0  0  0  0  0  0
  141.5900   79.8070  221.8220 C   0  0  0  0  0  0  0  0  0  0  0  0
  138.9340   80.1860  221.6680 C   0  0  0  0  0  0  0  0  0  0  0  0
  136.9020   78.6910  221.9110 C   0  0  0  0  0  0  0  0  0  0  0  0
  135.7900   79.4380  221.5060 C   0  0  0  0  0  0  0  0  0  0  0  0
  134.6930   78.7650  220.9450 C   0  0  0  0  0  0  0  0  0  0  0  0
  134.7180   77.3660  220.8040 C   0  0  0  0  0  0  0  0  0  0  0  0
  135.8430   76.6350  221.2180 C   0  0  0  0  0  0  0  0  0  0  0  0
  136.9320   77.3290  221.7590 C   0  0  0  0  0  0  0  0  0  0  0  0
  140.8010   74.2310  221.5960 N   0  0  0  0  0  0  0  0  0  0  0  0
  141.9380   74.4560  220.9180 C   0  0  0  0  0  0  0  0  0  0  0  0
  143.0530   73.6240  220.8410 C   0  0  0  0  0  0  0  0  0  0  0  0
  146.5490   73.7760  218.2360 H   0  0  0  0  0  0  0  0  0  0  0  0
  144.9357   75.6289  218.7675 H   0  0  0  0  0  0  0  0  0  0  0  0
  142.8801   77.0688  218.9432 H   0  0  0  0  0  0  0  0  0  0  0  0
  140.2657   77.1754  220.1470 H   0  0  0  0  0  0  0  0  0  0  0  0
  139.1905   77.6977  223.8295 H   0  0  0  0  0  0  0  0  0  0  0  0
  139.9580   77.8790  222.2431 H   0  0  0  0  0  0  0  0  0  0  0  0
  137.0405   80.5445  223.7842 H   0  0  0  0  0  0  0  0  0  0  0  0
  137.8107   79.2699  224.7047 H   0  0  0  0  0  0  0  0  0  0  0  0
  138.9552   81.7195  224.5024 H   0  0  0  0  0  0  0  0  0  0  0  0
  139.9913   80.2702  224.4774 H   0  0  0  0  0  0  0  0  0  0  0  0
  141.2990   81.9945  221.7788 H   0  0  0  0  0  0  0  0  0  0  0  0
  141.9936   82.2100  224.0562 H   0  0  0  0  0  0  0  0  0  0  0  0
  141.1990   80.7226  224.5629 H   0  0  0  0  0  0  0  0  0  0  0  0
  143.9091   81.1430  223.3224 H   0  0  0  0  0  0  0  0  0  0  0  0
  143.3652   79.8348  224.4116 H   0  0  0  0  0  0  0  0  0  0  0  0
  142.9660   78.5480  222.6880 H   0  0  0  0  0  0  0  0  0  0  0  0
  141.6435   79.8883  220.7263 H   0  0  0  0  0  0  0  0  0  0  0  0
  140.9043   78.9859  222.0779 H   0  0  0  0  0  0  0  0  0  0  0  0
  138.2274   80.7233  221.0184 H   0  0  0  0  0  0  0  0  0  0  0  0
  139.6678   79.6708  221.0308 H   0  0  0  0  0  0  0  0  0  0  0  0
  135.7757   80.5315  221.6249 H   0  0  0  0  0  0  0  0  0  0  0  0
  133.8112   79.3337  220.6148 H   0  0  0  0  0  0  0  0  0  0  0  0
  133.8539   76.8430  220.3682 H   0  0  0  0  0  0  0  0  0  0  0  0
  135.8683   75.5397  221.1193 H   0  0  0  0  0  0  0  0  0  0  0  0
  140.5620   73.3770  222.1460 H   0  0  0  0  0  0  0  0  0  0  0  0
  143.0778   72.6624  221.3745 H   0  0  0  0  0  0  0  0  0  0  0  0
  1  2  1  0
  2  3  2  0
  2  4  1  0
  4  5  2  0
  5  6  1  0
  6  7  2  0
  7  8  1  0
  8  9  2  0
  9 10  1  0
 10 11  2  0
 10 12  1  0
 12 13  1  0
 14 13  1  1
 14 15  1  0
 15 16  1  0
 16 17  1  0
 17 18  1  0
 18 19  1  0
 19 20  1  0
 20 21  1  0
 21 22  1  0
 17 23  1  0
 14 24  1  0
 24 25  2  0
 25 26  1  0
 26 27  2  0
 27 28  1  0
 28 29  2  0
  9 30  1  0
 30 31  1  0
 31 32  2  0
 32  4  1  0
 31  7  1  0
 29 12  1  0
 23 14  1  0
 29 24  1  0
 22 18  1  0
  1 33  1  0
  5 34  1  0
  6 35  1  0
  8 36  1  0
 13 37  1  0
 13 38  1  0
 15 39  1  0
 15 40  1  0
 16 41  1  0
 16 42  1  0
 18 43  1  6
 19 44  1  0
 19 45  1  0
 20 46  1  0
 20 47  1  0
 21 48  1  0
 22 49  1  0
 22 50  1  0
 23 51  1  0
 23 52  1  0
 25 53  1  0
 26 54  1  0
 27 55  1  0
 28 56  1  0
 30 57  1  0
 32 58  1  0
M  CHG  1   1  -1
M  END
>  <meeko>  (9) 
{"free_energy": -7.96, "intermolecular_energy": -9.45, "internal_energy": -1.55, "cluster_size": 5, "cluster_id": 3, "rank_in_cluster": 4}

$$$$

     RDKit          3D

 58 63  0  0  0  0  0  0  0  0999 V2000
  131.5320   73.3960  227.7850 N   0  0  0  0  0  0  0  0  0  0  0  0
  132.8250   73.3060  227.1880 C   0  0  0  0  0  0  0  0  0  0  0  0
  133.5270   72.2790  227.3950 O   0  0  0  0  0  0  0  0  0  0  0  0
  133.3390   74.4040  226.3380 C   0  0  0  0  0  0  0  0  0  0  0  0
  132.6380   75.6390  226.2590 C   0  0  0  0  0  0  0  0  0  0  0  0
  133.1140   76.6890  225.4560 C   0  0  0  0  0  0  0  0  0  0  0  0
  134.2870   76.4790  224.7390 C   0  0  0  0  0  0  0  0  0  0  0  0
  134.9830   77.3150  223.8950 C   0  0  0  0  0  0  0  0  0  0  0  0
  136.0800   76.5680  223.4720 C   0  0  0  0  0  0  0  0  0  0  0  0
  137.1380   77.0610  222.5730 C   0  0  0  0  0  0  0  0  0  0  0  0
  137.5630   76.3100  221.6540 O   0  0  0  0  0  0  0  0  0  0  0  0
  137.7100   78.3670  222.7490 N   0  0  0  0  0  0  0  0  0  0  0  0
  136.9310   79.5340  223.1730 C   0  0  0  0  0  0  0  0  0  0  0  0
  137.9720   80.5770  223.7140 C   0  0  1  0  0  0  0  0  0  0  0  0
  137.8950   81.9020  222.9760 C   0  0  0  0  0  0  0  0  0  0  0  0
  136.8450   82.6670  223.7570 C   0  0  0  0  0  0  0  0  0  0  0  0
  136.9370   82.2340  225.1660 N   0  0  0  0  0  0  0  0  0  0  0  0
  135.6040   82.0990  225.8020 C   0  0  1  0  0  0  0  0  0  0  0  0
  134.8590   80.8760  225.3000 C   0  0  0  0  0  0  0  0  0  0  0  0
  133.9790   80.4620  226.4660 C   0  0  0  0  0  0  0  0  0  0  0  0
  134.5610   81.0070  227.6940 N   0  0  0  0  0  0  0  0  0  0  0  0
  135.7060   81.8290  227.3030 C   0  0  0  0  0  0  0  0  0  0  0  0
  137.7020   80.9700  225.1730 C   0  0  0  0  0  0  0  0  0  0  0  0
  139.2840   79.8730  223.5240 C   0  0  0  0  0  0  0  0  0  0  0  0
  140.5730   80.3330  223.8210 C   0  0  0  0  0  0  0  0  0  0  0  0
  141.6670   79.4970  223.5470 C   0  0  0  0  0  0  0  0  0  0  0  0
  141.4630   78.2270  222.9780 C   0  0  0  0  0  0  0  0  0  0  0  0
  140.1620   77.7850  222.6870 C   0  0  0  0  0  0  0  0  0  0  0  0
  139.0850   78.6280  222.9840 C   0  0  0  0  0  0  0  0  0  0  0  0
  136.0720   75.3360  224.0370 N   0  0  0  0  0  0  0  0  0  0  0  0
  134.9710   75.2950  224.8030 C   0  0  0  0  0  0  0  0  0  0  0  0
  134.5320   74.2360  225.5940 C   0  0  0  0  0  0  0  0  0  0  0  0
  131.3630   73.0430  228.7540 H   0  0  0  0  0  0  0  0  0  0  0  0
  131.7104   75.7739  226.8346 H   0  0  0  0  0  0  0  0  0  0  0  0
  132.5761   77.6466  225.3963 H   0  0  0  0  0  0  0  0  0  0  0  0
  134.7282   78.3480  223.6156 H   0  0  0  0  0  0  0  0  0  0  0  0
  136.3772   79.9540  222.3204 H   0  0  0  0  0  0  0  0  0  0  0  0
  136.1919   79.2666  223.9426 H   0  0  0  0  0  0  0  0  0  0  0  0
  138.8630   82.4240  222.9988 H   0  0  0  0  0  0  0  0  0  0  0  0
  137.6468   81.7907  221.9102 H   0  0  0  0  0  0  0  0  0  0  0  0
  137.0353   83.7479  223.6830 H   0  0  0  0  0  0  0  0  0  0  0  0
  135.8408   82.4671  223.3549 H   0  0  0  0  0  0  0  0  0  0  0  0
  135.0992   83.0473  225.5655 H   0  0  0  0  0  0  0  0  0  0  0  0
  134.2471   81.1270  224.4210 H   0  0  0  0  0  0  0  0  0  0  0  0
  135.5398   80.0720  224.9836 H   0  0  0  0  0  0  0  0  0  0  0  0
  132.9635   80.8609  226.3262 H   0  0  0  0  0  0  0  0  0  0  0  0
  133.9204   79.3653  226.5273 H   0  0  0  0  0  0  0  0  0  0  0  0
  134.9020   80.2140  228.2900 H   0  0  0  0  0  0  0  0  0  0  0  0
  135.6885   82.7802  227.8553 H   0  0  0  0  0  0  0  0  0  0  0  0
  136.6468   81.3079  227.5341 H   0  0  0  0  0  0  0  0  0  0  0  0
  138.6544   81.1120  225.7047 H   0  0  0  0  0  0  0  0  0  0  0  0
  137.1335   80.1796  225.6850 H   0  0  0  0  0  0  0  0  0  0  0  0
  140.7253   81.3299  224.2604 H   0  0  0  0  0  0  0  0  0  0  0  0
  142.6875   79.8364  223.7781 H   0  0  0  0  0  0  0  0  0  0  0  0
  142.3244   77.5784  222.7604 H   0  0  0  0  0  0  0  0  0  0  0  0
  139.9930   76.7965  222.2349 H   0  0  0  0  0  0  0  0  0  0  0  0
  136.7930   74.5870  223.9410 H   0  0  0  0  0  0  0  0  0  0  0  0
  135.0974   73.2935  225.6396 H   0  0  0  0  0  0  0  0  0  0  0  0
  1  2  1  0
  2  3  2  0
  2  4  1  0
  4  5  2  0
  5  6  1  0
  6  7  2  0
  7  8  1  0
  8  9  2  0
  9 10  1  0
 10 11  2  0
 10 12  1  0
 12 13  1  0
 14 13  1  6
 14 15  1  0
 15 16  1  0
 16 17  1  0
 17 18  1  0
 18 19  1  0
 19 20  1  0
 20 21  1  0
 21 22  1  0
 17 23  1  0
 14 24  1  0
 24 25  2  0
 25 26  1  0
 26 27  2  0
 27 28  1  0
 28 29  2  0
  9 30  1  0
 30 31  1  0
 31 32  2  0
 32  4  1  0
 31  7  1  0
 29 12  1  0
 23 14  1  0
 29 24  1  0
 22 18  1  0
  1 33  1  0
  5 34  1  0
  6 35  1  0
  8 36  1  0
 13 37  1  0
 13 38  1  0
 15 39  1  0
 15 40  1  0
 16 41  1  0
 16 42  1  0
 18 43  1  1
 19 44  1  0
 19 45  1  0
 20 46  1  0
 20 47  1  0
 21 48  1  0
 22 49  1  0
 22 50  1  0
 23 51  1  0
 23 52  1  0
 25 53  1  0
 26 54  1  0
 27 55  1  0
 28 56  1  0
 30 57  1  0
 32 58  1  0
M  CHG  1   1  -1
M  END
>  <meeko>  (10) 
{"free_energy": -8.17, "intermolecular_energy": -9.67, "internal_energy": -1.46, "cluster_size": 5, "cluster_id": 6, "rank_in_cluster": 1}

$$$$

     RDKit          3D

 58 63  0  0  0  0  0  0  0  0999 V2000
  146.2990   73.0190  218.5850 N   0  0  0  0  0  0  0  0  0  0  0  0
  144.9940   72.7690  219.1030 C   0  0  0  0  0  0  0  0  0  0  0  0
  144.6640   71.5870  219.3920 O   0  0  0  0  0  0  0  0  0  0  0  0
  144.0350   73.8820  219.2960 C   0  0  0  0  0  0  0  0  0  0  0  0
  143.9180   74.9060  218.3170 C   0  0  0  0  0  0  0  0  0  0  0  0
  143.0130   75.9680  218.4880 C   0  0  0  0  0  0  0  0  0  0  0  0
  142.2430   75.9860  219.6460 C   0  0  0  0  0  0  0  0  0  0  0  0
  141.2830   76.8770  220.0700 C   0  0  0  0  0  0  0  0  0  0  0  0
  140.8500   76.3840  221.2980 C   0  0  0  0  0  0  0  0  0  0  0  0
  139.7940   76.9920  222.1250 C   0  0  0  0  0  0  0  0  0  0  0  0
  138.9090   76.2530  222.6340 O   0  0  0  0  0  0  0  0  0  0  0  0
  139.7420   78.4130  222.3310 N   0  0  0  0  0  0  0  0  0  0  0  0
  138.4990   79.1400  222.6060 C   0  0  0  0  0  0  0  0  0  0  0  0
  138.9280   80.5070  223.2460 C   0  0  1  0  0  0  0  0  0  0  0  0
  138.4090   81.6980  222.4580 C   0  0  0  0  0  0  0  0  0  0  0  0
  137.0400   81.9380  223.0650 C   0  0  0  0  0  0  0  0  0  0  0  0
  137.1110   81.5480  224.4880 N   0  0  0  0  0  0  0  0  0  0  0  0
  135.8820   80.8550  224.9430 C   0  0  1  0  0  0  0  0  0  0  0  0
  135.4900   81.2640  226.3520 C   0  0  0  0  0  0  0  0  0  0  0  0
  133.9790   81.1210  226.3820 C   0  0  0  0  0  0  0  0  0  0  0  0
  133.4850   81.1910  225.0050 N   0  0  0  0  0  0  0  0  0  0  0  0
  134.6550   81.2620  224.1290 C   0  0  0  0  0  0  0  0  0  0  0  0
  138.3230   80.7170  224.6410 C   0  0  0  0  0  0  0  0  0  0  0  0
  140.4260   80.4190  223.2570 C   0  0  0  0  0  0  0  0  0  0  0  0
  141.3540   81.3650  223.7080 C   0  0  0  0  0  0  0  0  0  0  0  0
  142.7220   81.0670  223.6130 C   0  0  0  0  0  0  0  0  0  0  0  0
  143.1440   79.8420  223.0660 C   0  0  0  0  0  0  0  0  0  0  0  0
  142.1980   78.9060  222.6190 C   0  0  0  0  0  0  0  0  0  0  0  0
  140.8380   79.2170  222.7390 C   0  0  0  0  0  0  0  0  0  0  0  0
  141.4970   75.2350  221.6120 N   0  0  0  0  0  0  0  0  0  0  0  0
  142.3460   75.0080  220.5980 C   0  0  0  0  0  0  0  0  0  0  0  0
  143.2270   73.9380  220.4570 C   0  0  0  0  0  0  0  0  0  0  0  0
  146.7240   73.9730  218.6380 H   0  0  0  0  0  0  0  0  0  0  0  0
  144.5441   74.8668  217.4134 H   0  0  0  0  0  0  0  0  0  0  0  0
  142.9169   76.7595  217.7302 H   0  0  0  0  0  0  0  0  0  0  0  0
  140.9338   77.7820  219.5512 H   0  0  0  0  0  0  0  0  0  0  0  0
  137.9432   79.3130  221.6726 H   0  0  0  0  0  0  0  0  0  0  0  0
  137.8401   78.5704  223.2779 H   0  0  0  0  0  0  0  0  0  0  0  0
  139.0600   82.5746  222.5917 H   0  0  0  0  0  0  0  0  0  0  0  0
  138.3770   81.5194  221.3731 H   0  0  0  0  0  0  0  0  0  0  0  0
  136.7726   83.0016  222.9799 H   0  0  0  0  0  0  0  0  0  0  0  0
  136.2743   81.3486  222.5394 H   0  0  0  0  0  0  0  0  0  0  0  0
  136.1292   79.7873  224.8493 H   0  0  0  0  0  0  0  0  0  0  0  0
  135.9583   80.6006  227.0940 H   0  0  0  0  0  0  0  0  0  0  0  0
  135.8189   82.2844  226.5985 H   0  0  0  0  0  0  0  0  0  0  0  0
  133.7054   80.1529  226.8269 H   0  0  0  0  0  0  0  0  0  0  0  0
  133.5334   81.9246  226.9867 H   0  0  0  0  0  0  0  0  0  0  0  0
  132.9220   82.0680  224.8900 H   0  0  0  0  0  0  0  0  0  0  0  0
  134.5268   80.5755  223.2791 H   0  0  0  0  0  0  0  0  0  0  0  0
  134.7778   82.2831  223.7388 H   0  0  0  0  0  0  0  0  0  0  0  0
  139.0484   81.2294  225.2901 H   0  0  0  0  0  0  0  0  0  0  0  0
  138.0699   79.7496  225.0993 H   0  0  0  0  0  0  0  0  0  0  0  0
  141.0173   82.3239  224.1289 H   0  0  0  0  0  0  0  0  0  0  0  0
  143.4671   81.7943  223.9677 H   0  0  0  0  0  0  0  0  0  0  0  0
  144.2179   79.6167  222.9882 H   0  0  0  0  0  0  0  0  0  0  0  0
  142.5185   77.9481  222.1835 H   0  0  0  0  0  0  0  0  0  0  0  0
  141.3410   74.6220  222.4430 H   0  0  0  0  0  0  0  0  0  0  0  0
  143.2931   73.1565  221.2283 H   0  0  0  0  0  0  0  0  0  0  0  0
  1  2  1  0
  2  3  2  0
  2  4  1  0
  4  5  2  0
  5  6  1  0
  6  7  2  0
  7  8  1  0
  8  9  2  0
  9 10  1  0
 10 11  2  0
 10 12  1  0
 12 13  1  0
 14 13  1  6
 14 15  1  0
 15 16  1  0
 16 17  1  0
 17 18  1  0
 18 19  1  0
 19 20  1  0
 20 21  1  0
 21 22  1  0
 17 23  1  0
 14 24  1  0
 24 25  2  0
 25 26  1  0
 26 27  2  0
 27 28  1  0
 28 29  2  0
  9 30  1  0
 30 31  1  0
 31 32  2  0
 32  4  1  0
 31  7  1  0
 29 12  1  0
 23 14  1  0
 29 24  1  0
 22 18  1  0
  1 33  1  0
  5 34  1  0
  6 35  1  0
  8 36  1  0
 13 37  1  0
 13 38  1  0
 15 39  1  0
 15 40  1  0
 16 41  1  0
 16 42  1  0
 18 43  1  1
 19 44  1  0
 19 45  1  0
 20 46  1  0
 20 47  1  0
 21 48  1  0
 22 49  1  0
 22 50  1  0
 23 51  1  0
 23 52  1  0
 25 53  1  0
 26 54  1  0
 27 55  1  0
 28 56  1  0
 30 57  1  0
 32 58  1  0
M  CHG  1   1  -1
M  END
>  <meeko>  (11) 
{"free_energy": -8.57, "intermolecular_energy": -10.06, "internal_energy": -1.15, "cluster_size": 4, "cluster_id": 2, "rank_in_cluster": 2}

$$$$

     RDKit          3D

 58 63  0  0  0  0  0  0  0  0999 V2000
  146.3230   73.0210  218.5260 N   0  0  0  0  0  0  0  0  0  0  0  0
  145.5380   73.2500  219.6950 C   0  0  0  0  0  0  0  0  0  0  0  0
  145.9000   72.7360  220.7890 O   0  0  0  0  0  0  0  0  0  0  0  0
  144.3120   74.0780  219.6280 C   0  0  0  0  0  0  0  0  0  0  0  0
  143.8070   74.5110  218.3710 C   0  0  0  0  0  0  0  0  0  0  0  0
  142.6450   75.2980  218.2930 C   0  0  0  0  0  0  0  0  0  0  0  0
  142.0110   75.6410  219.4820 C   0  0  0  0  0  0  0  0  0  0  0  0
  140.8690   76.3770  219.7080 C   0  0  0  0  0  0  0  0  0  0  0  0
  140.7140   76.3850  221.0920 C   0  0  0  0  0  0  0  0  0  0  0  0
  139.6020   77.0300  221.8110 C   0  0  0  0  0  0  0  0  0  0  0  0
  138.6040   76.3380  222.1480 O   0  0  0  0  0  0  0  0  0  0  0  0
  139.6260   78.4370  222.1030 N   0  0  0  0  0  0  0  0  0  0  0  0
  138.4310   79.2020  222.4700 C   0  0  0  0  0  0  0  0  0  0  0  0
  138.9490   80.5060  223.1730 C   0  0  1  0  0  0  0  0  0  0  0  0
  138.4590   81.7660  222.4780 C   0  0  0  0  0  0  0  0  0  0  0  0
  137.1270   82.0300  223.1520 C   0  0  0  0  0  0  0  0  0  0  0  0
  137.2320   81.5510  224.5460 N   0  0  0  0  0  0  0  0  0  0  0  0
  135.9880   80.8880  225.0080 C   0  0  1  0  0  0  0  0  0  0  0  0
  135.6410   81.2680  226.4360 C   0  0  0  0  0  0  0  0  0  0  0  0
  134.1260   81.1790  226.4950 C   0  0  0  0  0  0  0  0  0  0  0  0
  133.6070   81.3070  225.1320 N   0  0  0  0  0  0  0  0  0  0  0  0
  134.7590   81.3630  224.2320 C   0  0  0  0  0  0  0  0  0  0  0  0
  138.4070   80.6570  224.6000 C   0  0  0  0  0  0  0  0  0  0  0  0
  140.4410   80.3480  223.1190 C   0  0  0  0  0  0  0  0  0  0  0  0
  141.4290   81.2210  223.5880 C   0  0  0  0  0  0  0  0  0  0  0  0
  142.7770   80.8670  223.4210 C   0  0  0  0  0  0  0  0  0  0  0  0
  143.1180   79.6600  222.7860 C   0  0  0  0  0  0  0  0  0  0  0  0
  142.1120   78.7980  222.3220 C   0  0  0  0  0  0  0  0  0  0  0  0
  140.7740   79.1630  222.5140 C   0  0  0  0  0  0  0  0  0  0  0  0
  141.7010   75.6760  221.6930 N   0  0  0  0  0  0  0  0  0  0  0  0
  142.4860   75.2320  220.6980 C   0  0  0  0  0  0  0  0  0  0  0  0
  143.6300   74.4460  220.8120 C   0  0  0  0  0  0  0  0  0  0  0  0
  146.9130   73.7810  218.1180 H   0  0  0  0  0  0  0  0  0  0  0  0
  144.3327   74.2263  217.4476 H   0  0  0  0  0  0  0  0  0  0  0  0
  142.2498   75.6319  217.3223 H   0  0  0  0  0  0  0  0  0  0  0  0
  140.2206   76.8545  218.9586 H   0  0  0  0  0  0  0  0  0  0  0  0
  137.8502   79.4575  221.5714 H   0  0  0  0  0  0  0  0  0  0  0  0
  137.7706   78.6232  223.1324 H   0  0  0  0  0  0  0  0  0  0  0  0
  139.1557   82.6022  222.6377 H   0  0  0  0  0  0  0  0  0  0  0  0
  138.3787   81.6561  221.3865 H   0  0  0  0  0  0  0  0  0  0  0  0
  136.9075   83.1078  223.1407 H   0  0  0  0  0  0  0  0  0  0  0  0
  136.3152   81.5089  222.6233 H   0  0  0  0  0  0  0  0  0  0  0  0
  136.1942   79.8153  224.8783 H   0  0  0  0  0  0  0  0  0  0  0  0
  136.0999   80.5659  227.1477 H   0  0  0  0  0  0  0  0  0  0  0  0
  136.0123   82.2678  226.7051 H   0  0  0  0  0  0  0  0  0  0  0  0
  133.8261   80.2089  226.9181 H   0  0  0  0  0  0  0  0  0  0  0  0
  133.7228   81.9800  227.1320 H   0  0  0  0  0  0  0  0  0  0  0  0
  133.0740   82.2070  225.0550 H   0  0  0  0  0  0  0  0  0  0  0  0
  134.5881   80.7072  223.3655 H   0  0  0  0  0  0  0  0  0  0  0  0
  134.9101   82.3900  223.8680 H   0  0  0  0  0  0  0  0  0  0  0  0
  139.1799   81.0941  225.2493 H   0  0  0  0  0  0  0  0  0  0  0  0
  138.1240   79.6758  225.0088 H   0  0  0  0  0  0  0  0  0  0  0  0
  141.1545   82.1667  224.0782 H   0  0  0  0  0  0  0  0  0  0  0  0
  143.5691   81.5361  223.7882 H   0  0  0  0  0  0  0  0  0  0  0  0
  144.1760   79.3904  222.6524 H   0  0  0  0  0  0  0  0  0  0  0  0
  142.3696   77.8549  221.8178 H   0  0  0  0  0  0  0  0  0  0  0  0
  141.8090   75.4720  222.7110 H   0  0  0  0  0  0  0  0  0  0  0  0
  143.9942   74.1196  221.7973 H   0  0  0  0  0  0  0  0  0  0  0  0
  1  2  1  0
  2  3  2  0
  2  4  1  0
  4  5  2  0
  5  6  1  0
  6  7  2  0
  7  8  1  0
  8  9  2  0
  9 10  1  0
 10 11  2  0
 10 12  1  0
 12 13  1  0
 14 13  1  6
 14 15  1  0
 15 16  1  0
 16 17  1  0
 17 18  1  0
 18 19  1  0
 19 20  1  0
 20 21  1  0
 21 22  1  0
 17 23  1  0
 14 24  1  0
 24 25  2  0
 25 26  1  0
 26 27  2  0
 27 28  1  0
 28 29  2  0
  9 30  1  0
 30 31  1  0
 31 32  2  0
 32  4  1  0
 31  7  1  0
 29 12  1  0
 23 14  1  0
 29 24  1  0
 22 18  1  0
  1 33  1  0
  5 34  1  0
  6 35  1  0
  8 36  1  0
 13 37  1  0
 13 38  1  0
 15 39  1  0
 15 40  1  0
 16 41  1  0
 16 42  1  0
 18 43  1  1
 19 44  1  0
 19 45  1  0
 20 46  1  0
 20 47  1  0
 21 48  1  0
 22 49  1  0
 22 50  1  0
 23 51  1  0
 23 52  1  0
 25 53  1  0
 26 54  1  0
 27 55  1  0
 28 56  1  0
 30 57  1  0
 32 58  1  0
M  CHG  1   1  -1
M  END
>  <meeko>  (12) 
{"free_energy": -8.57, "intermolecular_energy": -10.06, "internal_energy": -1.08, "cluster_size": 4, "cluster_id": 2, "rank_in_cluster": 1}

$$$$

     RDKit          3D

 58 63  0  0  0  0  0  0  0  0999 V2000
  146.3080   71.9060  219.6550 N   0  0  0  0  0  0  0  0  0  0  0  0
  145.7540   73.0250  220.3450 C   0  0  0  0  0  0  0  0  0  0  0  0
  146.0540   73.2100  221.5560 O   0  0  0  0  0  0  0  0  0  0  0  0
  144.8360   73.9570  219.6520 C   0  0  0  0  0  0  0  0  0  0  0  0
  144.4140   73.6910  218.3210 C   0  0  0  0  0  0  0  0  0  0  0  0
  143.5430   74.5680  217.6500 C   0  0  0  0  0  0  0  0  0  0  0  0
  143.1150   75.7030  218.3290 C   0  0  0  0  0  0  0  0  0  0  0  0
  142.2670   76.7150  217.9360 C   0  0  0  0  0  0  0  0  0  0  0  0
  142.2040   77.5770  219.0290 C   0  0  0  0  0  0  0  0  0  0  0  0
  141.3860   78.8000  219.0910 C   0  0  0  0  0  0  0  0  0  0  0  0
  141.3270   79.5520  218.0810 O   0  0  0  0  0  0  0  0  0  0  0  0
  140.6840   79.1600  220.2910 N   0  0  0  0  0  0  0  0  0  0  0  0
  139.3390   78.6720  220.6120 C   0  0  0  0  0  0  0  0  0  0  0  0
  139.1630   78.8720  222.1590 C   0  0  1  0  0  0  0  0  0  0  0  0
  137.9640   79.7440  222.4930 C   0  0  0  0  0  0  0  0  0  0  0  0
  136.8290   78.7430  222.5770 C   0  0  0  0  0  0  0  0  0  0  0  0
  137.3940   77.4700  223.0690 N   0  0  0  0  0  0  0  0  0  0  0  0
  136.8040   76.2910  222.3890 C   0  0  1  0  0  0  0  0  0  0  0  0
  137.8570   75.4640  221.6750 C   0  0  0  0  0  0  0  0  0  0  0  0
  137.3120   74.0470  221.7060 C   0  0  0  0  0  0  0  0  0  0  0  0
  136.3520   73.9500  222.8070 N   0  0  0  0  0  0  0  0  0  0  0  0
  136.2140   75.2890  223.3810 C   0  0  0  0  0  0  0  0  0  0  0  0
  138.8580   77.5570  222.8890 C   0  0  0  0  0  0  0  0  0  0  0  0
  140.4700   79.4880  222.5700 C   0  0  0  0  0  0  0  0  0  0  0  0
  140.8790   79.8970  223.8450 C   0  0  0  0  0  0  0  0  0  0  0  0
  142.1560   80.4610  223.9940 C   0  0  0  0  0  0  0  0  0  0  0  0
  142.9970   80.6150  222.8770 C   0  0  0  0  0  0  0  0  0  0  0  0
  142.5670   80.1990  221.6070 C   0  0  0  0  0  0  0  0  0  0  0  0
  141.2960   79.6240  221.4850 C   0  0  0  0  0  0  0  0  0  0  0  0
  142.9620   77.1140  220.0530 N   0  0  0  0  0  0  0  0  0  0  0  0
  143.5140   75.9740  219.6090 C   0  0  0  0  0  0  0  0  0  0  0  0
  144.3700   75.1240  220.3060 C   0  0  0  0  0  0  0  0  0  0  0  0
  146.7850   71.1360  220.1760 H   0  0  0  0  0  0  0  0  0  0  0  0
  144.7737   72.7865  217.8086 H   0  0  0  0  0  0  0  0  0  0  0  0
  143.2113   74.3625  216.6215 H   0  0  0  0  0  0  0  0  0  0  0  0
  141.7518   76.8198  216.9698 H   0  0  0  0  0  0  0  0  0  0  0  0
  138.5815   79.2509  220.0633 H   0  0  0  0  0  0  0  0  0  0  0  0
  139.2145   77.6172  220.3257 H   0  0  0  0  0  0  0  0  0  0  0  0
  138.1066   80.2618  223.4530 H   0  0  0  0  0  0  0  0  0  0  0  0
  137.7870   80.5399  221.7546 H   0  0  0  0  0  0  0  0  0  0  0  0
  136.0590   79.1061  223.2736 H   0  0  0  0  0  0  0  0  0  0  0  0
  136.3620   78.6037  221.5908 H   0  0  0  0  0  0  0  0  0  0  0  0
  136.0530   76.7229  221.7112 H   0  0  0  0  0  0  0  0  0  0  0  0
  137.9853   75.8088  220.6383 H   0  0  0  0  0  0  0  0  0  0  0  0
  138.8453   75.5429  222.1516 H   0  0  0  0  0  0  0  0  0  0  0  0
  136.8105   73.8200  220.7536 H   0  0  0  0  0  0  0  0  0  0  0  0
  138.1315   73.3279  221.8520 H   0  0  0  0  0  0  0  0  0  0  0  0
  136.7400   73.3070  223.5390 H   0  0  0  0  0  0  0  0  0  0  0  0
  135.1509   75.5143  223.5515 H   0  0  0  0  0  0  0  0  0  0  0  0
  136.7423   75.3483  224.3440 H   0  0  0  0  0  0  0  0  0  0  0  0
  139.3568   77.5487  223.8694 H   0  0  0  0  0  0  0  0  0  0  0  0
  139.2253   76.6995  222.3061 H   0  0  0  0  0  0  0  0  0  0  0  0
  140.2132   79.7788  224.7126 H   0  0  0  0  0  0  0  0  0  0  0  0
  142.5001   80.7836  224.9877 H   0  0  0  0  0  0  0  0  0  0  0  0
  143.9944   81.0626  222.9990 H   0  0  0  0  0  0  0  0  0  0  0  0
  143.2147   80.3221  220.7265 H   0  0  0  0  0  0  0  0  0  0  0  0
  143.0640   77.5260  221.0070 H   0  0  0  0  0  0  0  0  0  0  0  0
  144.6760   75.3531  221.3374 H   0  0  0  0  0  0  0  0  0  0  0  0
  1  2  1  0
  2  3  2  0
  2  4  1  0
  4  5  2  0
  5  6  1  0
  6  7  2  0
  7  8  1  0
  8  9  2  0
  9 10  1  0
 10 11  2  0
 10 12  1  0
 12 13  1  0
 14 13  1  6
 14 15  1  0
 15 16  1  0
 16 17  1  0
 17 18  1  0
 18 19  1  0
 19 20  1  0
 20 21  1  0
 21 22  1  0
 17 23  1  0
 14 24  1  0
 24 25  2  0
 25 26  1  0
 26 27  2  0
 27 28  1  0
 28 29  2  0
  9 30  1  0
 30 31  1  0
 31 32  2  0
 32  4  1  0
 31  7  1  0
 29 12  1  0
 23 14  1  0
 29 24  1  0
 22 18  1  0
  1 33  1  0
  5 34  1  0
  6 35  1  0
  8 36  1  0
 13 37  1  0
 13 38  1  0
 15 39  1  0
 15 40  1  0
 16 41  1  0
 16 42  1  0
 18 43  1  6
 19 44  1  0
 19 45  1  0
 20 46  1  0
 20 47  1  0
 21 48  1  0
 22 49  1  0
 22 50  1  0
 23 51  1  0
 23 52  1  0
 25 53  1  0
 26 54  1  0
 27 55  1  0
 28 56  1  0
 30 57  1  0
 32 58  1  0
M  CHG  1   1  -1
M  END
>  <meeko>  (13) 
{"free_energy": -8.47, "intermolecular_energy": -9.96, "internal_energy": -1.32, "cluster_size": 2, "cluster_id": 4, "rank_in_cluster": 2}

$$$$

     RDKit          3D

 58 63  0  0  0  0  0  0  0  0999 V2000
  146.6340   69.8000  217.7970 N   0  0  0  0  0  0  0  0  0  0  0  0
  145.8490   70.0280  218.9660 C   0  0  0  0  0  0  0  0  0  0  0  0
  145.4860   69.0420  219.6640 O   0  0  0  0  0  0  0  0  0  0  0  0
  145.4600   71.4030  219.3560 C   0  0  0  0  0  0  0  0  0  0  0  0
  146.3230   72.1900  220.1670 C   0  0  0  0  0  0  0  0  0  0  0  0
  145.9660   73.4960  220.5450 C   0  0  0  0  0  0  0  0  0  0  0  0
  144.7420   73.9880  220.1040 C   0  0  0  0  0  0  0  0  0  0  0  0
  144.1460   75.2130  220.3040 C   0  0  0  0  0  0  0  0  0  0  0  0
  142.9330   75.1390  219.6230 C   0  0  0  0  0  0  0  0  0  0  0  0
  141.9540   76.2350  219.5240 C   0  0  0  0  0  0  0  0  0  0  0  0
  141.5970   76.6390  218.3850 O   0  0  0  0  0  0  0  0  0  0  0  0
  141.4280   76.8660  220.7030 N   0  0  0  0  0  0  0  0  0  0  0  0
  141.8080   78.2170  221.1270 C   0  0  0  0  0  0  0  0  0  0  0  0
  140.6820   78.6960  222.1100 C   0  0  1  0  0  0  0  0  0  0  0  0
  141.2330   79.0700  223.4760 C   0  0  0  0  0  0  0  0  0  0  0  0
  141.5950   80.5320  223.3080 C   0  0  0  0  0  0  0  0  0  0  0  0
  140.6400   81.1180  222.3450 N   0  0  0  0  0  0  0  0  0  0  0  0
  141.2920   82.0770  221.4190 C   0  0  1  0  0  0  0  0  0  0  0  0
  141.4510   81.4990  220.0250 C   0  0  0  0  0  0  0  0  0  0  0  0
  141.3930   82.7060  219.1050 C   0  0  0  0  0  0  0  0  0  0  0  0
  140.7000   83.7860  219.8100 N   0  0  0  0  0  0  0  0  0  0  0  0
  140.4280   83.3130  221.1680 C   0  0  0  0  0  0  0  0  0  0  0  0
  140.0030   79.9880  221.6370 C   0  0  0  0  0  0  0  0  0  0  0  0
  139.7510   77.5190  222.1540 C   0  0  0  0  0  0  0  0  0  0  0  0
  138.5660   77.3700  222.8850 C   0  0  0  0  0  0  0  0  0  0  0  0
  137.8540   76.1650  222.7770 C   0  0  0  0  0  0  0  0  0  0  0  0
  138.3340   75.1310  221.9540 C   0  0  0  0  0  0  0  0  0  0  0  0
  139.5250   75.3000  221.2300 C   0  0  0  0  0  0  0  0  0  0  0  0
  140.2090   76.5160  221.3390 C   0  0  0  0  0  0  0  0  0  0  0  0
  142.7920   73.9330  219.0190 N   0  0  0  0  0  0  0  0  0  0  0  0
  143.9010   73.2420  219.3250 C   0  0  0  0  0  0  0  0  0  0  0  0
  144.2260   71.9480  218.9260 C   0  0  0  0  0  0  0  0  0  0  0  0
  147.6650   69.6420  217.8650 H   0  0  0  0  0  0  0  0  0  0  0  0
  147.2830   71.7712  220.5032 H   0  0  0  0  0  0  0  0  0  0  0  0
  146.6329   74.1089  221.1692 H   0  0  0  0  0  0  0  0  0  0  0  0
  144.5416   76.0647  220.8768 H   0  0  0  0  0  0  0  0  0  0  0  0
  142.7804   78.1968  221.6408 H   0  0  0  0  0  0  0  0  0  0  0  0
  141.9070   78.8958  220.2671 H   0  0  0  0  0  0  0  0  0  0  0  0
  140.4717   78.9385  224.2591 H   0  0  0  0  0  0  0  0  0  0  0  0
  142.0835   78.4454  223.7866 H   0  0  0  0  0  0  0  0  0  0  0  0
  141.5196   81.0511  224.2749 H   0  0  0  0  0  0  0  0  0  0  0  0
  142.6272   80.6361  222.9422 H   0  0  0  0  0  0  0  0  0  0  0  0
  142.2497   82.3098  221.9074 H   0  0  0  0  0  0  0  0  0  0  0  0
  142.4163   80.9809  219.9265 H   0  0  0  0  0  0  0  0  0  0  0  0
  140.6756   80.7552  219.7892 H   0  0  0  0  0  0  0  0  0  0  0  0
  142.4130   83.0254  218.8451 H   0  0  0  0  0  0  0  0  0  0  0  0
  140.8572   82.4520  218.1785 H   0  0  0  0  0  0  0  0  0  0  0  0
  139.7880   83.9740  219.3290 H   0  0  0  0  0  0  0  0  0  0  0  0
  140.6806   84.0991  221.8948 H   0  0  0  0  0  0  0  0  0  0  0  0
  139.3624   83.0638  221.2799 H   0  0  0  0  0  0  0  0  0  0  0  0
  138.9294   79.9551  221.8743 H   0  0  0  0  0  0  0  0  0  0  0  0
  140.1141   80.1045  220.5488 H   0  0  0  0  0  0  0  0  0  0  0  0
  138.2001   78.1814  223.5313 H   0  0  0  0  0  0  0  0  0  0  0  0
  136.9176   76.0293  223.3380 H   0  0  0  0  0  0  0  0  0  0  0  0
  137.7748   74.1869  221.8771 H   0  0  0  0  0  0  0  0  0  0  0  0
  139.9124   74.4933  220.5903 H   0  0  0  0  0  0  0  0  0  0  0  0
  142.0110   73.6180  218.4020 H   0  0  0  0  0  0  0  0  0  0  0  0
  143.5415   71.3642  218.2930 H   0  0  0  0  0  0  0  0  0  0  0  0
  1  2  1  0
  2  3  2  0
  2  4  1  0
  4  5  2  0
  5  6  1  0
  6  7  2  0
  7  8  1  0
  8  9  2  0
  9 10  1  0
 10 11  2  0
 10 12  1  0
 12 13  1  0
 14 13  1  6
 14 15  1  0
 15 16  1  0
 16 17  1  0
 17 18  1  0
 18 19  1  0
 19 20  1  0
 20 21  1  0
 21 22  1  0
 17 23  1  0
 14 24  1  0
 24 25  2  0
 25 26  1  0
 26 27  2  0
 27 28  1  0
 28 29  2  0
  9 30  1  0
 30 31  1  0
 31 32  2  0
 32  4  1  0
 31  7  1  0
 29 12  1  0
 23 14  1  0
 29 24  1  0
 22 18  1  0
  1 33  1  0
  5 34  1  0
  6 35  1  0
  8 36  1  0
 13 37  1  0
 13 38  1  0
 15 39  1  0
 15 40  1  0
 16 41  1  0
 16 42  1  0
 18 43  1  1
 19 44  1  0
 19 45  1  0
 20 46  1  0
 20 47  1  0
 21 48  1  0
 22 49  1  0
 22 50  1  0
 23 51  1  0
 23 52  1  0
 25 53  1  0
 26 54  1  0
 27 55  1  0
 28 56  1  0
 30 57  1  0
 32 58  1  0
M  CHG  1   1  -1
M  END
>  <meeko>  (14) 
{"free_energy": -8.48, "intermolecular_energy": -9.97, "internal_energy": -1.17, "cluster_size": 1, "cluster_id": 5, "rank_in_cluster": 1}

$$$$

     RDKit          3D

 58 63  0  0  0  0  0  0  0  0999 V2000
  146.7810   69.7350  217.6030 N   0  0  0  0  0  0  0  0  0  0  0  0
  146.2070   69.7150  218.9090 C   0  0  0  0  0  0  0  0  0  0  0  0
  146.4170   68.7220  219.6570 O   0  0  0  0  0  0  0  0  0  0  0  0
  145.3730   70.8440  219.3810 C   0  0  0  0  0  0  0  0  0  0  0  0
  145.8520   72.1800  219.2840 C   0  0  0  0  0  0  0  0  0  0  0  0
  145.0720   73.2610  219.7300 C   0  0  0  0  0  0  0  0  0  0  0  0
  143.8220   72.9800  220.2720 C   0  0  0  0  0  0  0  0  0  0  0  0
  142.8530   73.8220  220.7690 C   0  0  0  0  0  0  0  0  0  0  0  0
  141.8160   72.9810  221.1680 C   0  0  0  0  0  0  0  0  0  0  0  0
  140.5360   73.4340  221.7390 C   0  0  0  0  0  0  0  0  0  0  0  0
  140.3570   74.6640  221.9470 O   0  0  0  0  0  0  0  0  0  0  0  0
  139.5080   72.4940  222.0890 N   0  0  0  0  0  0  0  0  0  0  0  0
  139.7640   71.2740  222.8610 C   0  0  0  0  0  0  0  0  0  0  0  0
  138.3740   70.8250  223.4370 C   0  0  1  0  0  0  0  0  0  0  0  0
  138.0040   69.4150  223.0080 C   0  0  0  0  0  0  0  0  0  0  0  0
  138.6360   68.5550  224.0850 C   0  0  0  0  0  0  0  0  0  0  0  0
  138.6130   69.3300  225.3430 N   0  0  0  0  0  0  0  0  0  0  0  0
  139.8520   69.1500  226.1370 C   0  0  1  0  0  0  0  0  0  0  0  0
  139.5910   69.2630  227.6280 C   0  0  0  0  0  0  0  0  0  0  0  0
  140.6420   68.3730  228.2660 C   0  0  0  0  0  0  0  0  0  0  0  0
  141.0860   67.4010  227.2670 N   0  0  0  0  0  0  0  0  0  0  0  0
  140.4190   67.7370  226.0080 C   0  0  0  0  0  0  0  0  0  0  0  0
  138.3750   70.7400  224.9690 C   0  0  0  0  0  0  0  0  0  0  0  0
  137.4350   71.8670  222.9030 C   0  0  0  0  0  0  0  0  0  0  0  0
  136.0510   71.9700  223.0830 C   0  0  0  0  0  0  0  0  0  0  0  0
  135.3690   73.0360  222.4750 C   0  0  0  0  0  0  0  0  0  0  0  0
  136.0710   73.9730  221.6960 C   0  0  0  0  0  0  0  0  0  0  0  0
  137.4590   73.8520  221.5260 C   0  0  0  0  0  0  0  0  0  0  0  0
  138.1210   72.7900  222.1550 C   0  0  0  0  0  0  0  0  0  0  0  0
  142.1210   71.6840  220.9160 N   0  0  0  0  0  0  0  0  0  0  0  0
  143.3490   71.7000  220.3730 C   0  0  0  0  0  0  0  0  0  0  0  0
  144.0930   70.6060  219.9360 C   0  0  0  0  0  0  0  0  0  0  0  0
  147.7860   69.9860  217.4620 H   0  0  0  0  0  0  0  0  0  0  0  0
  146.8466   72.3697  218.8540 H   0  0  0  0  0  0  0  0  0  0  0  0
  145.4381   74.2954  219.6529 H   0  0  0  0  0  0  0  0  0  0  0  0
  142.8893   74.9193  220.8365 H   0  0  0  0  0  0  0  0  0  0  0  0
  140.1790   70.4902  222.2102 H   0  0  0  0  0  0  0  0  0  0  0  0
  140.4940   71.4520  223.6644 H   0  0  0  0  0  0  0  0  0  0  0  0
  136.9123   69.2820  222.9856 H   0  0  0  0  0  0  0  0  0  0  0  0
  138.3503   69.1650  221.9943 H   0  0  0  0  0  0  0  0  0  0  0  0
  138.0627   67.6242  224.2069 H   0  0  0  0  0  0  0  0  0  0  0  0
  139.6681   68.2894  223.8125 H   0  0  0  0  0  0  0  0  0  0  0  0
  140.5297   69.9259  225.7513 H   0  0  0  0  0  0  0  0  0  0  0  0
  139.7061   70.3037  227.9651 H   0  0  0  0  0  0  0  0  0  0  0  0
  138.5680   68.9618  227.8977 H   0  0  0  0  0  0  0  0  0  0  0  0
  141.4954   68.9831  228.5969 H   0  0  0  0  0  0  0  0  0  0  0  0
  140.2207   67.8542  229.1397 H   0  0  0  0  0  0  0  0  0  0  0  0
  140.7820   66.4430  227.5660 H   0  0  0  0  0  0  0  0  0  0  0  0
  141.1427   67.6992  225.1804 H   0  0  0  0  0  0  0  0  0  0  0  0
  139.6123   67.0189  225.7992 H   0  0  0  0  0  0  0  0  0  0  0  0
  137.4033   71.0727  225.3629 H   0  0  0  0  0  0  0  0  0  0  0  0
  139.1593   71.3867  225.3892 H   0  0  0  0  0  0  0  0  0  0  0  0
  135.5079   71.2300  223.6892 H   0  0  0  0  0  0  0  0  0  0  0  0
  134.2820   73.1386  222.6084 H   0  0  0  0  0  0  0  0  0  0  0  0
  135.5305   74.8035  221.2183 H   0  0  0  0  0  0  0  0  0  0  0  0
  138.0150   74.5757  220.9119 H   0  0  0  0  0  0  0  0  0  0  0  0
  141.5160   70.8470  221.0640 H   0  0  0  0  0  0  0  0  0  0  0  0
  143.6958   69.5837  220.0202 H   0  0  0  0  0  0  0  0  0  0  0  0
  1  2  1  0
  2  3  2  0
  2  4  1  0
  4  5  2  0
  5  6  1  0
  6  7  2  0
  7  8  1  0
  8  9  2  0
  9 10  1  0
 10 11  2  0
 10 12  1  0
 12 13  1  0
 14 13  1  6
 14 15  1  0
 15 16  1  0
 16 17  1  0
 17 18  1  0
 18 19  1  0
 19 20  1  0
 20 21  1  0
 21 22  1  0
 17 23  1  0
 14 24  1  0
 24 25  2  0
 25 26  1  0
 26 27  2  0
 27 28  1  0
 28 29  2  0
  9 30  1  0
 30 31  1  0
 31 32  2  0
 32  4  1  0
 31  7  1  0
 29 12  1  0
 23 14  1  0
 29 24  1  0
 22 18  1  0
  1 33  1  0
  5 34  1  0
  6 35  1  0
  8 36  1  0
 13 37  1  0
 13 38  1  0
 15 39  1  0
 15 40  1  0
 16 41  1  0
 16 42  1  0
 18 43  1  6
 19 44  1  0
 19 45  1  0
 20 46  1  0
 20 47  1  0
 21 48  1  0
 22 49  1  0
 22 50  1  0
 23 51  1  0
 23 52  1  0
 25 53  1  0
 26 54  1  0
 27 55  1  0
 28 56  1  0
 30 57  1  0
 32 58  1  0
M  CHG  1   1  -1
M  END
>  <meeko>  (15) 
{"free_energy": -8.66, "intermolecular_energy": -10.15, "internal_energy": -0.99, "cluster_size": 3, "cluster_id": 1, "rank_in_cluster": 2}

$$$$

     RDKit          3D

 58 63  0  0  0  0  0  0  0  0999 V2000
  146.3180   73.0190  218.7680 N   0  0  0  0  0  0  0  0  0  0  0  0
  144.9550   72.7510  219.0930 C   0  0  0  0  0  0  0  0  0  0  0  0
  144.5750   71.5540  219.2110 O   0  0  0  0  0  0  0  0  0  0  0  0
  143.9960   73.8620  219.2870 C   0  0  0  0  0  0  0  0  0  0  0  0
  143.8590   74.8740  218.2970 C   0  0  0  0  0  0  0  0  0  0  0  0
  142.9540   75.9350  218.4690 C   0  0  0  0  0  0  0  0  0  0  0  0
  142.2020   75.9650  219.6380 C   0  0  0  0  0  0  0  0  0  0  0  0
  141.2460   76.8590  220.0660 C   0  0  0  0  0  0  0  0  0  0  0  0
  140.8330   76.3790  221.3070 C   0  0  0  0  0  0  0  0  0  0  0  0
  139.7880   76.9950  222.1430 C   0  0  0  0  0  0  0  0  0  0  0  0
  138.9050   76.2610  222.6620 O   0  0  0  0  0  0  0  0  0  0  0  0
  139.7450   78.4160  222.3460 N   0  0  0  0  0  0  0  0  0  0  0  0
  138.5060   79.1510  222.6160 C   0  0  0  0  0  0  0  0  0  0  0  0
  138.9420   80.5180  223.2540 C   0  0  1  0  0  0  0  0  0  0  0  0
  138.4330   81.7100  222.4630 C   0  0  0  0  0  0  0  0  0  0  0  0
  137.0650   81.9600  223.0650 C   0  0  0  0  0  0  0  0  0  0  0  0
  137.1290   81.5720  224.4890 N   0  0  0  0  0  0  0  0  0  0  0  0
  135.8940   80.8880  224.9430 C   0  0  1  0  0  0  0  0  0  0  0  0
  135.5290   81.2630  226.3680 C   0  0  0  0  0  0  0  0  0  0  0  0
  134.0160   81.1470  226.4160 C   0  0  0  0  0  0  0  0  0  0  0  0
  133.5050   81.2640  225.0490 N   0  0  0  0  0  0  0  0  0  0  0  0
  134.6630   81.3400  224.1580 C   0  0  0  0  0  0  0  0  0  0  0  0
  138.3360   80.7330  224.6470 C   0  0  0  0  0  0  0  0  0  0  0  0
  140.4400   80.4190  223.2700 C   0  0  0  0  0  0  0  0  0  0  0  0
  141.3730   81.3600  223.7220 C   0  0  0  0  0  0  0  0  0  0  0  0
  142.7390   81.0530  223.6310 C   0  0  0  0  0  0  0  0  0  0  0  0
  143.1540   79.8240  223.0870 C   0  0  0  0  0  0  0  0  0  0  0  0
  142.2030   78.8940  222.6390 C   0  0  0  0  0  0  0  0  0  0  0  0
  140.8450   79.2140  222.7550 C   0  0  0  0  0  0  0  0  0  0  0  0
  141.4900   75.2370  221.6260 N   0  0  0  0  0  0  0  0  0  0  0  0
  142.3230   74.9990  220.6010 C   0  0  0  0  0  0  0  0  0  0  0  0
  143.2050   73.9300  220.4600 C   0  0  0  0  0  0  0  0  0  0  0  0
  146.6200   73.9720  218.4630 H   0  0  0  0  0  0  0  0  0  0  0  0
  144.4702   74.8254  217.3837 H   0  0  0  0  0  0  0  0  0  0  0  0
  142.8440   76.7169  217.7032 H   0  0  0  0  0  0  0  0  0  0  0  0
  140.8866   77.7569  219.5420 H   0  0  0  0  0  0  0  0  0  0  0  0
  137.9536   79.3249  221.6808 H   0  0  0  0  0  0  0  0  0  0  0  0
  137.8420   78.5872  223.2878 H   0  0  0  0  0  0  0  0  0  0  0  0
  139.0892   82.5826  222.5969 H   0  0  0  0  0  0  0  0  0  0  0  0
  138.4027   81.5293  221.3784 H   0  0  0  0  0  0  0  0  0  0  0  0
  136.8050   83.0252  222.9773 H   0  0  0  0  0  0  0  0  0  0  0  0
  136.2970   81.3748  222.5381 H   0  0  0  0  0  0  0  0  0  0  0  0
  136.1209   79.8191  224.8164 H   0  0  0  0  0  0  0  0  0  0  0  0
  135.9950   80.5700  227.0839 H   0  0  0  0  0  0  0  0  0  0  0  0
  135.8801   82.2697  226.6386 H   0  0  0  0  0  0  0  0  0  0  0  0
  133.7304   80.1722  226.8382 H   0  0  0  0  0  0  0  0  0  0  0  0
  133.5938   81.9414  227.0489 H   0  0  0  0  0  0  0  0  0  0  0  0
  132.9560   82.1540  224.9670 H   0  0  0  0  0  0  0  0  0  0  0  0
  134.5105   80.6807  223.2908 H   0  0  0  0  0  0  0  0  0  0  0  0
  134.7985   82.3694  223.7947 H   0  0  0  0  0  0  0  0  0  0  0  0
  139.0630   81.2417  225.2971 H   0  0  0  0  0  0  0  0  0  0  0  0
  138.0762   79.7680  225.1066 H   0  0  0  0  0  0  0  0  0  0  0  0
  141.0414   82.3217  224.1405 H   0  0  0  0  0  0  0  0  0  0  0  0
  143.4881   81.7759  223.9863 H   0  0  0  0  0  0  0  0  0  0  0  0
  144.2265   79.5912  223.0125 H   0  0  0  0  0  0  0  0  0  0  0  0
  142.5182   77.9334  222.2056 H   0  0  0  0  0  0  0  0  0  0  0  0
  141.3480   74.6340  222.4670 H   0  0  0  0  0  0  0  0  0  0  0  0
  143.2851   73.1583  221.2398 H   0  0  0  0  0  0  0  0  0  0  0  0
  1  2  1  0
  2  3  2  0
  2  4  1  0
  4  5  2  0
  5  6  1  0
  6  7  2  0
  7  8  1  0
  8  9  2  0
  9 10  1  0
 10 11  2  0
 10 12  1  0
 12 13  1  0
 14 13  1  6
 14 15  1  0
 15 16  1  0
 16 17  1  0
 17 18  1  0
 18 19  1  0
 19 20  1  0
 20 21  1  0
 21 22  1  0
 17 23  1  0
 14 24  1  0
 24 25  2  0
 25 26  1  0
 26 27  2  0
 27 28  1  0
 28 29  2  0
  9 30  1  0
 30 31  1  0
 31 32  2  0
 32  4  1  0
 31  7  1  0
 29 12  1  0
 23 14  1  0
 29 24  1  0
 22 18  1  0
  1 33  1  0
  5 34  1  0
  6 35  1  0
  8 36  1  0
 13 37  1  0
 13 38  1  0
 15 39  1  0
 15 40  1  0
 16 41  1  0
 16 42  1  0
 18 43  1  1
 19 44  1  0
 19 45  1  0
 20 46  1  0
 20 47  1  0
 21 48  1  0
 22 49  1  0
 22 50  1  0
 23 51  1  0
 23 52  1  0
 25 53  1  0
 26 54  1  0
 27 55  1  0
 28 56  1  0
 30 57  1  0
 32 58  1  0
M  CHG  1   1  -1
M  END
>  <meeko>  (16) 
{"free_energy": -8.52, "intermolecular_energy": -10.01, "internal_energy": -1.15, "cluster_size": 4, "cluster_id": 2, "rank_in_cluster": 3}

$$$$

     RDKit          3D

 58 63  0  0  0  0  0  0  0  0999 V2000
  131.6410   73.4710  227.7880 N   0  0  0  0  0  0  0  0  0  0  0  0
  132.8140   73.2630  227.0040 C   0  0  0  0  0  0  0  0  0  0  0  0
  133.3660   72.1290  227.0130 O   0  0  0  0  0  0  0  0  0  0  0  0
  133.3810   74.3630  226.1910 C   0  0  0  0  0  0  0  0  0  0  0  0
  132.7150   75.6170  226.1180 C   0  0  0  0  0  0  0  0  0  0  0  0
  133.2410   76.6700  225.3490 C   0  0  0  0  0  0  0  0  0  0  0  0
  134.4280   76.4430  224.6610 C   0  0  0  0  0  0  0  0  0  0  0  0
  135.1690   77.2770  223.8550 C   0  0  0  0  0  0  0  0  0  0  0  0
  136.2580   76.5100  223.4480 C   0  0  0  0  0  0  0  0  0  0  0  0
  137.3540   76.9920  222.5890 C   0  0  0  0  0  0  0  0  0  0  0  0
  137.8530   76.2130  221.7330 O   0  0  0  0  0  0  0  0  0  0  0  0
  137.8790   78.3210  222.7360 N   0  0  0  0  0  0  0  0  0  0  0  0
  137.0590   79.4700  223.1290 C   0  0  0  0  0  0  0  0  0  0  0  0
  138.0600   80.5610  223.6500 C   0  0  1  0  0  0  0  0  0  0  0  0
  137.9400   81.8650  222.8790 C   0  0  0  0  0  0  0  0  0  0  0  0
  136.8610   82.6110  223.6390 C   0  0  0  0  0  0  0  0  0  0  0  0
  136.9620   82.2150  225.0580 N   0  0  0  0  0  0  0  0  0  0  0  0
  135.6320   82.0480  225.6930 C   0  0  1  0  0  0  0  0  0  0  0  0
  134.9180   80.8060  225.1930 C   0  0  0  0  0  0  0  0  0  0  0  0
  134.0470   80.3730  226.3590 C   0  0  0  0  0  0  0  0  0  0  0  0
  134.6130   80.9360  227.5860 N   0  0  0  0  0  0  0  0  0  0  0  0
  135.7390   81.7860  227.1950 C   0  0  0  0  0  0  0  0  0  0  0  0
  137.7710   80.9790  225.0980 C   0  0  0  0  0  0  0  0  0  0  0  0
  139.3970   79.8990  223.4800 C   0  0  0  0  0  0  0  0  0  0  0  0
  140.6670   80.4110  223.7710 C   0  0  0  0  0  0  0  0  0  0  0  0
  141.7910   79.6070  223.5210 C   0  0  0  0  0  0  0  0  0  0  0  0
  141.6340   78.3180  222.9810 C   0  0  0  0  0  0  0  0  0  0  0  0
  140.3510   77.8240  222.6960 C   0  0  0  0  0  0  0  0  0  0  0  0
  139.2430   78.6360  222.9690 C   0  0  0  0  0  0  0  0  0  0  0  0
  136.2030   75.2680  223.9870 N   0  0  0  0  0  0  0  0  0  0  0  0
  135.0790   75.2410  224.7210 C   0  0  0  0  0  0  0  0  0  0  0  0
  134.5900   74.1790  225.4780 C   0  0  0  0  0  0  0  0  0  0  0  0
  131.7090   73.7560  228.7910 H   0  0  0  0  0  0  0  0  0  0  0  0
  131.7755   75.7654  226.6706 H   0  0  0  0  0  0  0  0  0  0  0  0
  132.7299   77.6424  225.2934 H   0  0  0  0  0  0  0  0  0  0  0  0
  134.9491   78.3217  223.5900 H   0  0  0  0  0  0  0  0  0  0  0  0
  136.4956   79.8506  222.2643 H   0  0  0  0  0  0  0  0  0  0  0  0
  136.3260   79.1952  223.9018 H   0  0  0  0  0  0  0  0  0  0  0  0
  138.8891   82.4209  222.8918 H   0  0  0  0  0  0  0  0  0  0  0  0
  137.7001   81.7198  221.8153 H   0  0  0  0  0  0  0  0  0  0  0  0
  137.0139   83.6958  223.5402 H   0  0  0  0  0  0  0  0  0  0  0  0
  135.8660   82.3664  223.2387 H   0  0  0  0  0  0  0  0  0  0  0  0
  135.1036   82.9825  225.4533 H   0  0  0  0  0  0  0  0  0  0  0  0
  134.3012   81.0399  224.3127 H   0  0  0  0  0  0  0  0  0  0  0  0
  135.6188   80.0183  224.8792 H   0  0  0  0  0  0  0  0  0  0  0  0
  133.0219   80.7456  226.2166 H   0  0  0  0  0  0  0  0  0  0  0  0
  134.0162   79.2753  226.4234 H   0  0  0  0  0  0  0  0  0  0  0  0
  134.9730   80.1530  228.1840 H   0  0  0  0  0  0  0  0  0  0  0  0
  135.6966   82.7381  227.7442 H   0  0  0  0  0  0  0  0  0  0  0  0
  136.6924   81.2902  227.4300 H   0  0  0  0  0  0  0  0  0  0  0  0
  138.7158   81.1671  225.6289 H   0  0  0  0  0  0  0  0  0  0  0  0
  137.2288   80.1816  225.6274 H   0  0  0  0  0  0  0  0  0  0  0  0
  140.7822   81.4227  224.1871 H   0  0  0  0  0  0  0  0  0  0  0  0
  142.7980   79.9869  223.7484 H   0  0  0  0  0  0  0  0  0  0  0  0
  142.5185   77.6953  222.7814 H   0  0  0  0  0  0  0  0  0  0  0  0
  140.2188   76.8197  222.2671 H   0  0  0  0  0  0  0  0  0  0  0  0
  136.9060   74.5020  223.8960 H   0  0  0  0  0  0  0  0  0  0  0  0
  135.1297   73.2214  225.5207 H   0  0  0  0  0  0  0  0  0  0  0  0
  1  2  1  0
  2  3  2  0
  2  4  1  0
  4  5  2  0
  5  6  1  0
  6  7  2  0
  7  8  1  0
  8  9  2  0
  9 10  1  0
 10 11  2  0
 10 12  1  0
 12 13  1  0
 14 13  1  6
 14 15  1  0
 15 16  1  0
 16 17  1  0
 17 18  1  0
 18 19  1  0
 19 20  1  0
 20 21  1  0
 21 22  1  0
 17 23  1  0
 14 24  1  0
 24 25  2  0
 25 26  1  0
 26 27  2  0
 27 28  1  0
 28 29  2  0
  9 30  1  0
 30 31  1  0
 31 32  2  0
 32  4  1  0
 31  7  1  0
 29 12  1  0
 23 14  1  0
 29 24  1  0
 22 18  1  0
  1 33  1  0
  5 34  1  0
  6 35  1  0
  8 36  1  0
 13 37  1  0
 13 38  1  0
 15 39  1  0
 15 40  1  0
 16 41  1  0
 16 42  1  0
 18 43  1  1
 19 44  1  0
 19 45  1  0
 20 46  1  0
 20 47  1  0
 21 48  1  0
 22 49  1  0
 22 50  1  0
 23 51  1  0
 23 52  1  0
 25 53  1  0
 26 54  1  0
 27 55  1  0
 28 56  1  0
 30 57  1  0
 32 58  1  0
M  CHG  1   1  -1
M  END
>  <meeko>  (17) 
{"free_energy": -8.12, "intermolecular_energy": -9.61, "internal_energy": -1.43, "cluster_size": 5, "cluster_id": 6, "rank_in_cluster": 4}

$$$$

     RDKit          3D

 58 63  0  0  0  0  0  0  0  0999 V2000
  146.3060   71.9470  219.5970 N   0  0  0  0  0  0  0  0  0  0  0  0
  145.7090   73.0310  220.3070 C   0  0  0  0  0  0  0  0  0  0  0  0
  145.9560   73.1700  221.5360 O   0  0  0  0  0  0  0  0  0  0  0  0
  144.8080   73.9790  219.6140 C   0  0  0  0  0  0  0  0  0  0  0  0
  144.4170   73.7440  218.2670 C   0  0  0  0  0  0  0  0  0  0  0  0
  143.5630   74.6360  217.5960 C   0  0  0  0  0  0  0  0  0  0  0  0
  143.1190   75.7560  218.2900 C   0  0  0  0  0  0  0  0  0  0  0  0
  142.2810   76.7770  217.9010 C   0  0  0  0  0  0  0  0  0  0  0  0
  142.1920   77.6130  219.0110 C   0  0  0  0  0  0  0  0  0  0  0  0
  141.3720   78.8350  219.0810 C   0  0  0  0  0  0  0  0  0  0  0  0
  141.3130   79.5950  218.0770 O   0  0  0  0  0  0  0  0  0  0  0  0
  140.6690   79.1870  220.2840 N   0  0  0  0  0  0  0  0  0  0  0  0
  139.3290   78.6880  220.6050 C   0  0  0  0  0  0  0  0  0  0  0  0
  139.1530   78.8810  222.1530 C   0  0  1  0  0  0  0  0  0  0  0  0
  137.9480   79.7420  222.4920 C   0  0  0  0  0  0  0  0  0  0  0  0
  136.8200   78.7330  222.5730 C   0  0  0  0  0  0  0  0  0  0  0  0
  137.3950   77.4620  223.0600 N   0  0  0  0  0  0  0  0  0  0  0  0
  136.8130   76.2820  222.3770 C   0  0  1  0  0  0  0  0  0  0  0  0
  137.8710   75.4640  221.6590 C   0  0  0  0  0  0  0  0  0  0  0  0
  137.3360   74.0430  221.6860 C   0  0  0  0  0  0  0  0  0  0  0  0
  136.3780   73.9360  222.7880 N   0  0  0  0  0  0  0  0  0  0  0  0
  136.2310   75.2720  223.3660 C   0  0  0  0  0  0  0  0  0  0  0  0
  138.8590   77.5610  222.8790 C   0  0  0  0  0  0  0  0  0  0  0  0
  140.4560   79.5040  222.5650 C   0  0  0  0  0  0  0  0  0  0  0  0
  140.8640   79.9130  223.8400 C   0  0  0  0  0  0  0  0  0  0  0  0
  142.1370   80.4850  223.9890 C   0  0  0  0  0  0  0  0  0  0  0  0
  142.9750   80.6490  222.8710 C   0  0  0  0  0  0  0  0  0  0  0  0
  142.5460   80.2340  221.6010 C   0  0  0  0  0  0  0  0  0  0  0  0
  141.2800   79.6500  221.4780 C   0  0  0  0  0  0  0  0  0  0  0  0
  142.9250   77.1270  220.0420 N   0  0  0  0  0  0  0  0  0  0  0  0
  143.4880   75.9970  219.5860 C   0  0  0  0  0  0  0  0  0  0  0  0
  144.3260   75.1310  220.2830 C   0  0  0  0  0  0  0  0  0  0  0  0
  146.6870   71.1170  220.1050 H   0  0  0  0  0  0  0  0  0  0  0  0
  144.7884   72.8511  217.7427 H   0  0  0  0  0  0  0  0  0  0  0  0
  143.2558   74.4540  216.5556 H   0  0  0  0  0  0  0  0  0  0  0  0
  141.7889   76.9045  216.9255 H   0  0  0  0  0  0  0  0  0  0  0  0
  138.5664   79.2630  220.0593 H   0  0  0  0  0  0  0  0  0  0  0  0
  139.2124   77.6333  220.3153 H   0  0  0  0  0  0  0  0  0  0  0  0
  138.0879   80.2567  223.4541 H   0  0  0  0  0  0  0  0  0  0  0  0
  137.7644   80.5394  221.7569 H   0  0  0  0  0  0  0  0  0  0  0  0
  136.0480   79.0880  223.2716 H   0  0  0  0  0  0  0  0  0  0  0  0
  136.3529   78.5942  221.5868 H   0  0  0  0  0  0  0  0  0  0  0  0
  136.0585   76.7116  221.7015 H   0  0  0  0  0  0  0  0  0  0  0  0
  137.9957   75.8129  220.6233 H   0  0  0  0  0  0  0  0  0  0  0  0
  138.8592   75.5481  222.1349 H   0  0  0  0  0  0  0  0  0  0  0  0
  136.8349   73.8156  220.7335 H   0  0  0  0  0  0  0  0  0  0  0  0
  138.1606   73.3291  221.8286 H   0  0  0  0  0  0  0  0  0  0  0  0
  136.7700   73.2940  223.5180 H   0  0  0  0  0  0  0  0  0  0  0  0
  135.1665   75.4891  223.5381 H   0  0  0  0  0  0  0  0  0  0  0  0
  136.7599   75.3319  224.3286 H   0  0  0  0  0  0  0  0  0  0  0  0
  139.3587   77.5534  223.8589 H   0  0  0  0  0  0  0  0  0  0  0  0
  139.2326   76.7083  222.2930 H   0  0  0  0  0  0  0  0  0  0  0  0
  140.2000   79.7886  224.7081 H   0  0  0  0  0  0  0  0  0  0  0  0
  142.4806   80.8062  224.9834 H   0  0  0  0  0  0  0  0  0  0  0  0
  143.9692   81.1038  222.9927 H   0  0  0  0  0  0  0  0  0  0  0  0
  143.1916   80.3650  220.7200 H   0  0  0  0  0  0  0  0  0  0  0  0
  143.0030   77.5170  221.0070 H   0  0  0  0  0  0  0  0  0  0  0  0
  144.6068   75.3360  221.3266 H   0  0  0  0  0  0  0  0  0  0  0  0
  1  2  1  0
  2  3  2  0
  2  4  1  0
  4  5  2  0
  5  6  1  0
  6  7  2  0
  7  8  1  0
  8  9  2  0
  9 10  1  0
 10 11  2  0
 10 12  1  0
 12 13  1  0
 14 13  1  6
 14 15  1  0
 15 16  1  0
 16 17  1  0
 17 18  1  0
 18 19  1  0
 19 20  1  0
 20 21  1  0
 21 22  1  0
 17 23  1  0
 14 24  1  0
 24 25  2  0
 25 26  1  0
 26 27  2  0
 27 28  1  0
 28 29  2  0
  9 30  1  0
 30 31  1  0
 31 32  2  0
 32  4  1  0
 31  7  1  0
 29 12  1  0
 23 14  1  0
 29 24  1  0
 22 18  1  0
  1 33  1  0
  5 34  1  0
  6 35  1  0
  8 36  1  0
 13 37  1  0
 13 38  1  0
 15 39  1  0
 15 40  1  0
 16 41  1  0
 16 42  1  0
 18 43  1  6
 19 44  1  0
 19 45  1  0
 20 46  1  0
 20 47  1  0
 21 48  1  0
 22 49  1  0
 22 50  1  0
 23 51  1  0
 23 52  1  0
 25 53  1  0
 26 54  1  0
 27 55  1  0
 28 56  1  0
 30 57  1  0
 32 58  1  0
M  CHG  1   1  -1
M  END
>  <meeko>  (18) 
{"free_energy": -8.48, "intermolecular_energy": -9.97, "internal_energy": -1.32, "cluster_size": 2, "cluster_id": 4, "rank_in_cluster": 1}

$$$$

     RDKit          3D

 58 63  0  0  0  0  0  0  0  0999 V2000
  146.2860   73.0150  218.5830 N   0  0  0  0  0  0  0  0  0  0  0  0
  145.1430   72.8510  219.4200 C   0  0  0  0  0  0  0  0  0  0  0  0
  145.0100   71.7820  220.0770 O   0  0  0  0  0  0  0  0  0  0  0  0
  144.1220   73.9190  219.5170 C   0  0  0  0  0  0  0  0  0  0  0  0
  143.9810   74.8730  218.4730 C   0  0  0  0  0  0  0  0  0  0  0  0
  143.0170   75.8940  218.5520 C   0  0  0  0  0  0  0  0  0  0  0  0
  142.2120   75.9400  219.6850 C   0  0  0  0  0  0  0  0  0  0  0  0
  141.1940   76.8030  220.0250 C   0  0  0  0  0  0  0  0  0  0  0  0
  140.7500   76.3630  221.2700 C   0  0  0  0  0  0  0  0  0  0  0  0
  139.6390   76.9630  222.0290 C   0  0  0  0  0  0  0  0  0  0  0  0
  138.7000   76.2240  222.4310 O   0  0  0  0  0  0  0  0  0  0  0  0
  139.5970   78.3760  222.2860 N   0  0  0  0  0  0  0  0  0  0  0  0
  138.3580   79.1010  222.5840 C   0  0  0  0  0  0  0  0  0  0  0  0
  138.7950   80.4410  223.2740 C   0  0  1  0  0  0  0  0  0  0  0  0
  138.2860   81.6640  222.5280 C   0  0  0  0  0  0  0  0  0  0  0  0
  136.9180   81.8910  223.1400 C   0  0  0  0  0  0  0  0  0  0  0  0
  136.9820   81.4490  224.5480 N   0  0  0  0  0  0  0  0  0  0  0  0
  135.7470   80.7490  224.9760 C   0  0  1  0  0  0  0  0  0  0  0  0
  134.5710   81.7000  225.1010 C   0  0  0  0  0  0  0  0  0  0  0  0
  133.3550   80.8440  224.7940 C   0  0  0  0  0  0  0  0  0  0  0  0
  133.7960   79.6870  224.0120 N   0  0  0  0  0  0  0  0  0  0  0  0
  135.2550   79.7540  223.9240 C   0  0  0  0  0  0  0  0  0  0  0  0
  138.1880   80.6040  224.6740 C   0  0  0  0  0  0  0  0  0  0  0  0
  140.2930   80.3410  223.2860 C   0  0  0  0  0  0  0  0  0  0  0  0
  141.2260   81.2640  223.7730 C   0  0  0  0  0  0  0  0  0  0  0  0
  142.5920   80.9600  223.6700 C   0  0  0  0  0  0  0  0  0  0  0  0
  143.0060   79.7520  223.0800 C   0  0  0  0  0  0  0  0  0  0  0  0
  142.0550   78.8400  222.5970 C   0  0  0  0  0  0  0  0  0  0  0  0
  140.6970   79.1570  222.7250 C   0  0  0  0  0  0  0  0  0  0  0  0
  141.4470   75.2720  221.6740 N   0  0  0  0  0  0  0  0  0  0  0  0
  142.3370   75.0300  220.6990 C   0  0  0  0  0  0  0  0  0  0  0  0
  143.2770   74.0020  220.6500 C   0  0  0  0  0  0  0  0  0  0  0  0
  146.8620   73.8860  218.6250 H   0  0  0  0  0  0  0  0  0  0  0  0
  144.6351   74.8120  217.5907 H   0  0  0  0  0  0  0  0  0  0  0  0
  142.9035   76.6319  217.7441 H   0  0  0  0  0  0  0  0  0  0  0  0
  140.8142   77.6542  219.4408 H   0  0  0  0  0  0  0  0  0  0  0  0
  137.8059   79.3114  221.6562 H   0  0  0  0  0  0  0  0  0  0  0  0
  137.6933   78.5121  223.2331 H   0  0  0  0  0  0  0  0  0  0  0  0
  138.9426   82.5306  222.6948 H   0  0  0  0  0  0  0  0  0  0  0  0
  138.2556   81.5252  221.4372 H   0  0  0  0  0  0  0  0  0  0  0  0
  136.6582   82.9589  223.0931 H   0  0  0  0  0  0  0  0  0  0  0  0
  136.1498   81.3262  222.5914 H   0  0  0  0  0  0  0  0  0  0  0  0
  136.0274   80.2724  225.9269 H   0  0  0  0  0  0  0  0  0  0  0  0
  134.5100   82.1110  226.1195 H   0  0  0  0  0  0  0  0  0  0  0  0
  134.6569   82.5625  224.4237 H   0  0  0  0  0  0  0  0  0  0  0  0
  132.8919   80.5047  225.7323 H   0  0  0  0  0  0  0  0  0  0  0  0
  132.6138   81.4261  224.2267 H   0  0  0  0  0  0  0  0  0  0  0  0
  133.3960   79.7590  223.0450 H   0  0  0  0  0  0  0  0  0  0  0  0
  135.6867   78.7611  224.1186 H   0  0  0  0  0  0  0  0  0  0  0  0
  135.5626   80.0776  222.9187 H   0  0  0  0  0  0  0  0  0  0  0  0
  138.9152   81.0871  225.3432 H   0  0  0  0  0  0  0  0  0  0  0  0
  137.9270   79.6224  225.0962 H   0  0  0  0  0  0  0  0  0  0  0  0
  140.8947   82.2093  224.2276 H   0  0  0  0  0  0  0  0  0  0  0  0
  143.3416   81.6687  224.0519 H   0  0  0  0  0  0  0  0  0  0  0  0
  144.0784   79.5215  222.9970 H   0  0  0  0  0  0  0  0  0  0  0  0
  142.3696   77.8961  222.1278 H   0  0  0  0  0  0  0  0  0  0  0  0
  141.2980   74.7050  222.5370 H   0  0  0  0  0  0  0  0  0  0  0  0
  143.3602   73.2740  221.4704 H   0  0  0  0  0  0  0  0  0  0  0  0
  1  2  1  0
  2  3  2  0
  2  4  1  0
  4  5  2  0
  5  6  1  0
  6  7  2  0
  7  8  1  0
  8  9  2  0
  9 10  1  0
 10 11  2  0
 10 12  1  0
 12 13  1  0
 14 13  1  6
 14 15  1  0
 15 16  1  0
 16 17  1  0
 17 18  1  0
 18 19  1  0
 19 20  1  0
 20 21  1  0
 21 22  1  0
 17 23  1  0
 14 24  1  0
 24 25  2  0
 25 26  1  0
 26 27  2  0
 27 28  1  0
 28 29  2  0
  9 30  1  0
 30 31  1  0
 31 32  2  0
 32  4  1  0
 31  7  1  0
 29 12  1  0
 23 14  1  0
 29 24  1  0
 22 18  1  0
  1 33  1  0
  5 34  1  0
  6 35  1  0
  8 36  1  0
 13 37  1  0
 13 38  1  0
 15 39  1  0
 15 40  1  0
 16 41  1  0
 16 42  1  0
 18 43  1  1
 19 44  1  0
 19 45  1  0
 20 46  1  0
 20 47  1  0
 21 48  1  0
 22 49  1  0
 22 50  1  0
 23 51  1  0
 23 52  1  0
 25 53  1  0
 26 54  1  0
 27 55  1  0
 28 56  1  0
 30 57  1  0
 32 58  1  0
M  CHG  1   1  -1
M  END
>  <meeko>  (19) 
{"free_energy": -8.42, "intermolecular_energy": -9.91, "internal_energy": -1.19, "cluster_size": 4, "cluster_id": 2, "rank_in_cluster": 4}

$$$$

     RDKit          3D

 58 63  0  0  0  0  0  0  0  0999 V2000
  146.3230   73.0280  218.7790 N   0  0  0  0  0  0  0  0  0  0  0  0
  145.8850   73.3430  220.1000 C   0  0  0  0  0  0  0  0  0  0  0  0
  146.7350   73.7000  220.9610 O   0  0  0  0  0  0  0  0  0  0  0  0
  144.4510   73.2490  220.4590 C   0  0  0  0  0  0  0  0  0  0  0  0
  143.8570   71.9830  220.7140 C   0  0  0  0  0  0  0  0  0  0  0  0
  142.4970   71.8800  221.0540 C   0  0  0  0  0  0  0  0  0  0  0  0
  141.7550   73.0530  221.1290 C   0  0  0  0  0  0  0  0  0  0  0  0
  140.4300   73.2560  221.4460 C   0  0  0  0  0  0  0  0  0  0  0  0
  140.2480   74.6350  221.3650 C   0  0  0  0  0  0  0  0  0  0  0  0
  138.9850   75.3360  221.6540 C   0  0  0  0  0  0  0  0  0  0  0  0
  137.8950   74.8080  221.3040 O   0  0  0  0  0  0  0  0  0  0  0  0
  138.9820   76.6210  222.2980 N   0  0  0  0  0  0  0  0  0  0  0  0
  140.0820   77.5810  222.1770 C   0  0  0  0  0  0  0  0  0  0  0  0
  139.4860   78.9770  222.5790 C   0  0  1  0  0  0  0  0  0  0  0  0
  140.2370   79.6100  223.7390 C   0  0  0  0  0  0  0  0  0  0  0  0
  141.3480   80.3750  223.0480 C   0  0  0  0  0  0  0  0  0  0  0  0
  140.8310   80.8240  221.7390 N   0  0  0  0  0  0  0  0  0  0  0  0
  141.8490   80.7200  220.6650 C   0  0  1  0  0  0  0  0  0  0  0  0
  141.8200   79.3620  219.9870 C   0  0  0  0  0  0  0  0  0  0  0  0
  142.2880   79.6360  218.5690 C   0  0  0  0  0  0  0  0  0  0  0  0
  142.0570   81.0510  218.2770 N   0  0  0  0  0  0  0  0  0  0  0  0
  141.5640   81.6730  219.5050 C   0  0  0  0  0  0  0  0  0  0  0  0
  139.6240   80.0170  221.4600 C   0  0  0  0  0  0  0  0  0  0  0  0
  138.0590   78.6510  222.9110 C   0  0  0  0  0  0  0  0  0  0  0  0
  137.0450   79.5110  223.3480 C   0  0  0  0  0  0  0  0  0  0  0  0
  135.7740   78.9780  223.6090 C   0  0  0  0  0  0  0  0  0  0  0  0
  135.5340   77.6020  223.4390 C   0  0  0  0  0  0  0  0  0  0  0  0
  136.5640   76.7560  223.0000 C   0  0  0  0  0  0  0  0  0  0  0  0
  137.8210   77.3120  222.7300 C   0  0  0  0  0  0  0  0  0  0  0  0
  141.4050   75.2560  221.0300 N   0  0  0  0  0  0  0  0  0  0  0  0
  142.3130   74.2790  220.8860 C   0  0  0  0  0  0  0  0  0  0  0  0
  143.6580   74.4180  220.5520 C   0  0  0  0  0  0  0  0  0  0  0  0
  146.7430   73.7610  218.1640 H   0  0  0  0  0  0  0  0  0  0  0  0
  144.4696   71.0720  220.6444 H   0  0  0  0  0  0  0  0  0  0  0  0
  142.0346   70.9022  221.2543 H   0  0  0  0  0  0  0  0  0  0  0  0
  139.6793   72.4953  221.7063 H   0  0  0  0  0  0  0  0  0  0  0  0
  140.9042   77.3072  222.8545 H   0  0  0  0  0  0  0  0  0  0  0  0
  140.4915   77.5972  221.1562 H   0  0  0  0  0  0  0  0  0  0  0  0
  139.5851   80.2882  224.3091 H   0  0  0  0  0  0  0  0  0  0  0  0
  140.6058   78.8751  224.4697 H   0  0  0  0  0  0  0  0  0  0  0  0
  141.6390   81.2448  223.6552 H   0  0  0  0  0  0  0  0  0  0  0  0
  142.2339   79.7365  222.9161 H   0  0  0  0  0  0  0  0  0  0  0  0
  142.7984   80.9337  221.1778 H   0  0  0  0  0  0  0  0  0  0  0  0
  142.5000   78.6604  220.4923 H   0  0  0  0  0  0  0  0  0  0  0  0
  140.8219   78.9005  220.0166 H   0  0  0  0  0  0  0  0  0  0  0  0
  143.3603   79.4076  218.4801 H   0  0  0  0  0  0  0  0  0  0  0  0
  141.7342   79.0058  217.8575 H   0  0  0  0  0  0  0  0  0  0  0  0
  141.3170   81.1290  217.5380 H   0  0  0  0  0  0  0  0  0  0  0  0
  142.0807   82.6296  219.6723 H   0  0  0  0  0  0  0  0  0  0  0  0
  140.4842   81.8680  219.4274 H   0  0  0  0  0  0  0  0  0  0  0  0
  138.7361   80.6661  221.4409 H   0  0  0  0  0  0  0  0  0  0  0  0
  139.7116   79.5202  220.4825 H   0  0  0  0  0  0  0  0  0  0  0  0
  137.2411   80.5848  223.4843 H   0  0  0  0  0  0  0  0  0  0  0  0
  134.9620   79.6381  223.9478 H   0  0  0  0  0  0  0  0  0  0  0  0
  134.5369   77.1885  223.6507 H   0  0  0  0  0  0  0  0  0  0  0  0
  136.3878   75.6779  222.8705 H   0  0  0  0  0  0  0  0  0  0  0  0
  141.5760   76.2830  220.9470 H   0  0  0  0  0  0  0  0  0  0  0  0
  144.0930   75.4109  220.3652 H   0  0  0  0  0  0  0  0  0  0  0  0
  1  2  1  0
  2  3  2  0
  2  4  1  0
  4  5  2  0
  5  6  1  0
  6  7  2  0
  7  8  1  0
  8  9  2  0
  9 10  1  0
 10 11  2  0
 10 12  1  0
 12 13  1  0
 14 13  1  6
 14 15  1  0
 15 16  1  0
 16 17  1  0
 17 18  1  0
 18 19  1  0
 19 20  1  0
 20 21  1  0
 21 22  1  0
 17 23  1  0
 14 24  1  0
 24 25  2  0
 25 26  1  0
 26 27  2  0
 27 28  1  0
 28 29  2  0
  9 30  1  0
 30 31  1  0
 31 32  2  0
 32  4  1  0
 31  7  1  0
 29 12  1  0
 23 14  1  0
 29 24  1  0
 22 18  1  0
  1 33  1  0
  5 34  1  0
  6 35  1  0
  8 36  1  0
 13 37  1  0
 13 38  1  0
 15 39  1  0
 15 40  1  0
 16 41  1  0
 16 42  1  0
 18 43  1  1
 19 44  1  0
 19 45  1  0
 20 46  1  0
 20 47  1  0
 21 48  1  0
 22 49  1  0
 22 50  1  0
 23 51  1  0
 23 52  1  0
 25 53  1  0
 26 54  1  0
 27 55  1  0
 28 56  1  0
 30 57  1  0
 32 58  1  0
M  CHG  1   1  -1
M  END
>  <meeko>  (20) 
{"free_energy": -8.49, "intermolecular_energy": -9.98, "internal_energy": -1.1, "cluster_size": 5, "cluster_id": 3, "rank_in_cluster": 1}

$$$$
