
     RDKit          3D

 48 52  0  0  0  0  0  0  0  0999 V2000
  140.3940   77.7810  217.6120 O   0  0  0  0  0  0  0  0  0  0  0  0
  140.1700   77.3190  219.0260 S   0  0  0  0  0  0  0  0  0  0  0  0
  138.7700   77.6770  219.4390 O   0  0  0  0  0  0  0  0  0  0  0  0
  140.3060   75.5360  219.1010 C   0  0  0  0  0  0  0  0  0  0  0  0
  141.6600   75.0910  219.5790 C   0  0  0  0  0  0  0  0  0  0  0  0
  142.8120   75.8210  219.2340 C   0  0  0  0  0  0  0  0  0  0  0  0
  144.0710   75.3970  219.6700 C   0  0  0  0  0  0  0  0  0  0  0  0
  144.1910   74.2500  220.4580 C   0  0  0  0  0  0  0  0  0  0  0  0
  143.0510   73.5270  220.8160 C   0  0  0  0  0  0  0  0  0  0  0  0
  141.7890   73.9460  220.3830 C   0  0  0  0  0  0  0  0  0  0  0  0
  141.3130   78.0800  220.1170 N   0  0  0  0  0  0  0  0  0  0  0  0
  141.1980   79.5510  220.1590 C   0  0  0  0  0  0  0  0  0  0  0  0
  141.5940   79.9140  221.5380 C   0  0  0  0  0  0  0  0  0  0  0  0
  141.8360   81.1850  222.0610 C   0  0  0  0  0  0  0  0  0  0  0  0
  142.1930   81.2930  223.4150 C   0  0  0  0  0  0  0  0  0  0  0  0
  142.2950   80.1390  224.2160 C   0  0  0  0  0  0  0  0  0  0  0  0
  142.0380   78.8740  223.6640 C   0  0  0  0  0  0  0  0  0  0  0  0
  141.6920   78.7940  222.3130 C   0  0  0  0  0  0  0  0  0  0  0  0
  141.3190   77.5940  221.5240 C   0  0  1  0  0  0  0  0  0  0  0  0
  139.9850   77.0710  222.0200 C   0  0  0  0  0  0  0  0  0  0  0  0
  139.6410   75.7400  222.2660 C   0  0  0  0  0  0  0  0  0  0  0  0
  138.3610   75.6520  222.6940 N   0  0  0  0  0  0  0  0  0  0  0  0
  137.8900   76.9100  222.7190 C   0  0  0  0  0  0  0  0  0  0  0  0
  136.6140   77.3250  223.0960 C   0  0  0  0  0  0  0  0  0  0  0  0
  136.3290   78.7010  223.0490 C   0  0  0  0  0  0  0  0  0  0  0  0
  137.3140   79.6230  222.6320 C   0  0  0  0  0  0  0  0  0  0  0  0
  138.5950   79.1760  222.2570 C   0  0  0  0  0  0  0  0  0  0  0  0
  138.8500   77.8040  222.3120 C   0  0  0  0  0  0  0  0  0  0  0  0
  139.5418   75.1509  219.7921 H   0  0  0  0  0  0  0  0  0  0  0  0
  140.1599   75.1424  218.0843 H   0  0  0  0  0  0  0  0  0  0  0  0
  142.7220   76.7286  218.6190 H   0  0  0  0  0  0  0  0  0  0  0  0
  144.9691   75.9681  219.3918 H   0  0  0  0  0  0  0  0  0  0  0  0
  145.1830   73.9163  220.7965 H   0  0  0  0  0  0  0  0  0  0  0  0
  143.1460   72.6260  221.4399 H   0  0  0  0  0  0  0  0  0  0  0  0
  140.8936   73.3768  220.6731 H   0  0  0  0  0  0  0  0  0  0  0  0
  141.8737   80.0150  219.4255 H   0  0  0  0  0  0  0  0  0  0  0  0
  140.1847   79.8988  219.9093 H   0  0  0  0  0  0  0  0  0  0  0  0
  141.7492   82.0805  221.4281 H   0  0  0  0  0  0  0  0  0  0  0  0
  142.3937   82.2825  223.8515 H   0  0  0  0  0  0  0  0  0  0  0  0
  142.5764   80.2290  225.2756 H   0  0  0  0  0  0  0  0  0  0  0  0
  142.1075   77.9663  224.2814 H   0  0  0  0  0  0  0  0  0  0  0  0
  142.0038   76.7383  221.6175 H   0  0  0  0  0  0  0  0  0  0  0  0
  140.3168   74.8827  222.1306 H   0  0  0  0  0  0  0  0  0  0  0  0
  137.8480   74.7810  222.9530 H   0  0  0  0  0  0  0  0  0  0  0  0
  135.8539   76.5989  223.4201 H   0  0  0  0  0  0  0  0  0  0  0  0
  135.3313   79.0620  223.3392 H   0  0  0  0  0  0  0  0  0  0  0  0
  137.0788   80.6971  222.6000 H   0  0  0  0  0  0  0  0  0  0  0  0
  139.3705   79.8848  221.9310 H   0  0  0  0  0  0  0  0  0  0  0  0
  1  2  2  0
  2  3  2  0
  2  4  1  0
  4  5  1  0
  5  6  2  0
  6  7  1  0
  7  8  2  0
  8  9  1  0
  9 10  2  0
  2 11  1  0
 11 12  1  0
 12 13  1  0
 13 14  2  0
 14 15  1  0
 15 16  2  0
 16 17  1  0
 17 18  2  0
 18 19  1  0
 19 20  1  0
 20 21  2  0
 21 22  1  0
 22 23  1  0
 23 24  2  0
 24 25  1  0
 25 26  2  0
 26 27  1  0
 27 28  2  0
 10  5  1  0
 19 11  1  0
 28 20  1  0
 18 13  1  0
 28 23  1  0
  4 29  1  0
  4 30  1  0
  6 31  1  0
  7 32  1  0
  8 33  1  0
  9 34  1  0
 10 35  1  0
 12 36  1  0
 12 37  1  0
 14 38  1  0
 15 39  1  0
 16 40  1  0
 17 41  1  0
 19 42  1  6
 21 43  1  0
 22 44  1  0
 24 45  1  0
 25 46  1  0
 26 47  1  0
 27 48  1  0
M  END
>  <meeko>  (1) 
{"free_energy": -6.9, "intermolecular_energy": -8.1, "internal_energy": -2.14, "cluster_size": 7, "cluster_id": 2, "rank_in_cluster": 7}

$$$$

     RDKit          3D

 48 52  0  0  0  0  0  0  0  0999 V2000
  139.9630   73.4770  222.3440 O   0  0  0  0  0  0  0  0  0  0  0  0
  140.2180   74.7380  221.5660 S   0  0  0  0  0  0  0  0  0  0  0  0
  141.1620   75.6100  222.3470 O   0  0  0  0  0  0  0  0  0  0  0  0
  141.0250   74.3360  220.0200 C   0  0  0  0  0  0  0  0  0  0  0  0
  142.4620   73.9390  220.2170 C   0  0  0  0  0  0  0  0  0  0  0  0
  142.8020   72.5980  220.4680 C   0  0  0  0  0  0  0  0  0  0  0  0
  144.1390   72.2360  220.6650 C   0  0  0  0  0  0  0  0  0  0  0  0
  145.1430   73.2040  220.6040 C   0  0  0  0  0  0  0  0  0  0  0  0
  144.8150   74.5360  220.3430 C   0  0  0  0  0  0  0  0  0  0  0  0
  143.4810   74.9040  220.1460 C   0  0  0  0  0  0  0  0  0  0  0  0
  138.7210   75.6070  221.2830 N   0  0  0  0  0  0  0  0  0  0  0  0
  137.9770   75.9180  222.5200 C   0  0  0  0  0  0  0  0  0  0  0  0
  137.2780   77.1880  222.2220 C   0  0  0  0  0  0  0  0  0  0  0  0
  136.2970   77.8320  222.9770 C   0  0  0  0  0  0  0  0  0  0  0  0
  135.7770   79.0470  222.5010 C   0  0  0  0  0  0  0  0  0  0  0  0
  136.2490   79.5930  221.2910 C   0  0  0  0  0  0  0  0  0  0  0  0
  137.2420   78.9280  220.5560 C   0  0  0  0  0  0  0  0  0  0  0  0
  137.7370   77.7170  221.0490 C   0  0  0  0  0  0  0  0  0  0  0  0
  138.8170   76.8650  220.4940 C   0  0  1  0  0  0  0  0  0  0  0  0
  140.1390   77.5960  220.6240 C   0  0  0  0  0  0  0  0  0  0  0  0
  141.1650   77.6570  219.6780 C   0  0  0  0  0  0  0  0  0  0  0  0
  142.1960   78.3960  220.1440 N   0  0  0  0  0  0  0  0  0  0  0  0
  141.8390   78.8010  221.3740 C   0  0  0  0  0  0  0  0  0  0  0  0
  142.5810   79.5900  222.2510 C   0  0  0  0  0  0  0  0  0  0  0  0
  142.0120   79.9000  223.4990 C   0  0  0  0  0  0  0  0  0  0  0  0
  140.7290   79.4190  223.8400 C   0  0  0  0  0  0  0  0  0  0  0  0
  140.0020   78.6230  222.9360 C   0  0  0  0  0  0  0  0  0  0  0  0
  140.5910   78.3310  221.7040 C   0  0  0  0  0  0  0  0  0  0  0  0
  140.4882   73.5007  219.5467 H   0  0  0  0  0  0  0  0  0  0  0  0
  141.0063   75.2342  219.3852 H   0  0  0  0  0  0  0  0  0  0  0  0
  142.0144   71.8312  220.5096 H   0  0  0  0  0  0  0  0  0  0  0  0
  144.3995   71.1868  220.8683 H   0  0  0  0  0  0  0  0  0  0  0  0
  146.1932   72.9173  220.7617 H   0  0  0  0  0  0  0  0  0  0  0  0
  145.6077   75.2969  220.2924 H   0  0  0  0  0  0  0  0  0  0  0  0
  143.2278   75.9534  219.9345 H   0  0  0  0  0  0  0  0  0  0  0  0
  137.2545   75.1211  222.7500 H   0  0  0  0  0  0  0  0  0  0  0  0
  138.6371   75.9992  223.3962 H   0  0  0  0  0  0  0  0  0  0  0  0
  135.9393   77.3985  223.9226 H   0  0  0  0  0  0  0  0  0  0  0  0
  134.9996   79.5733  223.0742 H   0  0  0  0  0  0  0  0  0  0  0  0
  135.8376   80.5438  220.9213 H   0  0  0  0  0  0  0  0  0  0  0  0
  137.6222   79.3496  219.6138 H   0  0  0  0  0  0  0  0  0  0  0  0
  138.7311   76.6363  219.4215 H   0  0  0  0  0  0  0  0  0  0  0  0
  141.1375   77.1713  218.6914 H   0  0  0  0  0  0  0  0  0  0  0  0
  143.0890   78.6070  219.6440 H   0  0  0  0  0  0  0  0  0  0  0  0
  143.5802   79.9586  221.9757 H   0  0  0  0  0  0  0  0  0  0  0  0
  142.5703   80.5215  224.2146 H   0  0  0  0  0  0  0  0  0  0  0  0
  140.2948   79.6684  224.8194 H   0  0  0  0  0  0  0  0  0  0  0  0
  139.0019   78.2429  223.1914 H   0  0  0  0  0  0  0  0  0  0  0  0
  1  2  2  0
  2  3  2  0
  2  4  1  0
  4  5  1  0
  5  6  2  0
  6  7  1  0
  7  8  2  0
  8  9  1  0
  9 10  2  0
  2 11  1  0
 11 12  1  0
 12 13  1  0
 13 14  2  0
 14 15  1  0
 15 16  2  0
 16 17  1  0
 17 18  2  0
 18 19  1  0
 19 20  1  0
 20 21  2  0
 21 22  1  0
 22 23  1  0
 23 24  2  0
 24 25  1  0
 25 26  2  0
 26 27  1  0
 27 28  2  0
 10  5  1  0
 19 11  1  0
 28 20  1  0
 18 13  1  0
 28 23  1  0
  4 29  1  0
  4 30  1  0
  6 31  1  0
  7 32  1  0
  8 33  1  0
  9 34  1  0
 10 35  1  0
 12 36  1  0
 12 37  1  0
 14 38  1  0
 15 39  1  0
 16 40  1  0
 17 41  1  0
 19 42  1  6
 21 43  1  0
 22 44  1  0
 24 45  1  0
 25 46  1  0
 26 47  1  0
 27 48  1  0
M  END
>  <meeko>  (2) 
{"free_energy": -7.27, "intermolecular_energy": -8.47, "internal_energy": -1.97, "cluster_size": 10, "cluster_id": 1, "rank_in_cluster": 4}

$$$$

     RDKit          3D

 48 52  0  0  0  0  0  0  0  0999 V2000
  139.9620   73.4720  222.3440 O   0  0  0  0  0  0  0  0  0  0  0  0
  140.2150   74.7350  221.5680 S   0  0  0  0  0  0  0  0  0  0  0  0
  141.1560   75.6070  222.3500 O   0  0  0  0  0  0  0  0  0  0  0  0
  141.0210   74.3370  220.0210 C   0  0  0  0  0  0  0  0  0  0  0  0
  142.4580   73.9380  220.2180 C   0  0  0  0  0  0  0  0  0  0  0  0
  142.7940   72.5990  220.4830 C   0  0  0  0  0  0  0  0  0  0  0  0
  144.1310   72.2340  220.6790 C   0  0  0  0  0  0  0  0  0  0  0  0
  145.1380   73.1980  220.6040 C   0  0  0  0  0  0  0  0  0  0  0  0
  144.8140   74.5280  220.3290 C   0  0  0  0  0  0  0  0  0  0  0  0
  143.4800   74.8990  220.1330 C   0  0  0  0  0  0  0  0  0  0  0  0
  138.7150   75.6010  221.2870 N   0  0  0  0  0  0  0  0  0  0  0  0
  137.9720   75.9110  222.5240 C   0  0  0  0  0  0  0  0  0  0  0  0
  137.2710   77.1800  222.2280 C   0  0  0  0  0  0  0  0  0  0  0  0
  136.2900   77.8220  222.9840 C   0  0  0  0  0  0  0  0  0  0  0  0
  135.7670   79.0360  222.5080 C   0  0  0  0  0  0  0  0  0  0  0  0
  136.2360   79.5840  221.2980 C   0  0  0  0  0  0  0  0  0  0  0  0
  137.2300   78.9200  220.5620 C   0  0  0  0  0  0  0  0  0  0  0  0
  137.7270   77.7100  221.0540 C   0  0  0  0  0  0  0  0  0  0  0  0
  138.8090   76.8600  220.4980 C   0  0  1  0  0  0  0  0  0  0  0  0
  140.1290   77.5930  220.6270 C   0  0  0  0  0  0  0  0  0  0  0  0
  141.1510   77.6640  219.6760 C   0  0  0  0  0  0  0  0  0  0  0  0
  142.1830   78.4020  220.1430 N   0  0  0  0  0  0  0  0  0  0  0  0
  141.8300   78.7960  221.3780 C   0  0  0  0  0  0  0  0  0  0  0  0
  142.5750   79.5810  222.2570 C   0  0  0  0  0  0  0  0  0  0  0  0
  142.0120   79.8800  223.5100 C   0  0  0  0  0  0  0  0  0  0  0  0
  140.7320   79.3920  223.8540 C   0  0  0  0  0  0  0  0  0  0  0  0
  140.0020   78.6020  222.9480 C   0  0  0  0  0  0  0  0  0  0  0  0
  140.5860   78.3210  221.7100 C   0  0  0  0  0  0  0  0  0  0  0  0
  140.4835   73.5036  219.5451 H   0  0  0  0  0  0  0  0  0  0  0  0
  141.0029   75.2366  219.3883 H   0  0  0  0  0  0  0  0  0  0  0  0
  142.0038   71.8357  220.5365 H   0  0  0  0  0  0  0  0  0  0  0  0
  144.3886   71.1861  220.8924 H   0  0  0  0  0  0  0  0  0  0  0  0
  146.1877   72.9095  220.7617 H   0  0  0  0  0  0  0  0  0  0  0  0
  145.6094   75.2853  220.2664 H   0  0  0  0  0  0  0  0  0  0  0  0
  143.2296   75.9470  219.9114 H   0  0  0  0  0  0  0  0  0  0  0  0
  137.2507   75.1131  222.7544 H   0  0  0  0  0  0  0  0  0  0  0  0
  138.6332   75.9931  223.3992 H   0  0  0  0  0  0  0  0  0  0  0  0
  135.9344   77.3881  223.9302 H   0  0  0  0  0  0  0  0  0  0  0  0
  134.9888   79.5603  223.0820 H   0  0  0  0  0  0  0  0  0  0  0  0
  135.8225   80.5342  220.9291 H   0  0  0  0  0  0  0  0  0  0  0  0
  137.6090   79.3424  219.6197 H   0  0  0  0  0  0  0  0  0  0  0  0
  138.7236   76.6315  219.4254 H   0  0  0  0  0  0  0  0  0  0  0  0
  141.1199   77.1861  218.6857 H   0  0  0  0  0  0  0  0  0  0  0  0
  143.0720   78.6200  219.6400 H   0  0  0  0  0  0  0  0  0  0  0  0
  143.5716   79.9545  221.9789 H   0  0  0  0  0  0  0  0  0  0  0  0
  142.5720   80.4981  224.2272 H   0  0  0  0  0  0  0  0  0  0  0  0
  140.3028   79.6317  224.8381 H   0  0  0  0  0  0  0  0  0  0  0  0
  139.0039   78.2178  223.2055 H   0  0  0  0  0  0  0  0  0  0  0  0
  1  2  2  0
  2  3  2  0
  2  4  1  0
  4  5  1  0
  5  6  2  0
  6  7  1  0
  7  8  2  0
  8  9  1  0
  9 10  2  0
  2 11  1  0
 11 12  1  0
 12 13  1  0
 13 14  2  0
 14 15  1  0
 15 16  2  0
 16 17  1  0
 17 18  2  0
 18 19  1  0
 19 20  1  0
 20 21  2  0
 21 22  1  0
 22 23  1  0
 23 24  2  0
 24 25  1  0
 25 26  2  0
 26 27  1  0
 27 28  2  0
 10  5  1  0
 19 11  1  0
 28 20  1  0
 18 13  1  0
 28 23  1  0
  4 29  1  0
  4 30  1  0
  6 31  1  0
  7 32  1  0
  8 33  1  0
  9 34  1  0
 10 35  1  0
 12 36  1  0
 12 37  1  0
 14 38  1  0
 15 39  1  0
 16 40  1  0
 17 41  1  0
 19 42  1  6
 21 43  1  0
 22 44  1  0
 24 45  1  0
 25 46  1  0
 26 47  1  0
 27 48  1  0
M  END
>  <meeko>  (3) 
{"free_energy": -7.27, "intermolecular_energy": -8.47, "internal_energy": -1.97, "cluster_size": 10, "cluster_id": 1, "rank_in_cluster": 5}

$$$$

     RDKit          3D

 48 52  0  0  0  0  0  0  0  0999 V2000
  139.9460   73.4760  222.3650 O   0  0  0  0  0  0  0  0  0  0  0  0
  140.2090   74.7290  221.5760 S   0  0  0  0  0  0  0  0  0  0  0  0
  141.1460   75.6090  222.3560 O   0  0  0  0  0  0  0  0  0  0  0  0
  141.0300   74.3090  220.0420 C   0  0  0  0  0  0  0  0  0  0  0  0
  142.4650   73.9160  220.2570 C   0  0  0  0  0  0  0  0  0  0  0  0
  142.8020   72.5790  220.5350 C   0  0  0  0  0  0  0  0  0  0  0  0
  144.1370   72.2200  220.7470 C   0  0  0  0  0  0  0  0  0  0  0  0
  145.1430   73.1860  220.6770 C   0  0  0  0  0  0  0  0  0  0  0  0
  144.8180   74.5140  220.3890 C   0  0  0  0  0  0  0  0  0  0  0  0
  143.4850   74.8790  220.1760 C   0  0  0  0  0  0  0  0  0  0  0  0
  138.7150   75.5950  221.2700 N   0  0  0  0  0  0  0  0  0  0  0  0
  137.9550   75.9130  222.4950 C   0  0  0  0  0  0  0  0  0  0  0  0
  137.2600   77.1810  222.1820 C   0  0  0  0  0  0  0  0  0  0  0  0
  136.2690   77.8280  222.9210 C   0  0  0  0  0  0  0  0  0  0  0  0
  135.7550   79.0400  222.4320 C   0  0  0  0  0  0  0  0  0  0  0  0
  136.2410   79.5800  221.2250 C   0  0  0  0  0  0  0  0  0  0  0  0
  137.2440   78.9110  220.5060 C   0  0  0  0  0  0  0  0  0  0  0  0
  137.7320   77.7040  221.0120 C   0  0  0  0  0  0  0  0  0  0  0  0
  138.8200   76.8500  220.4750 C   0  0  1  0  0  0  0  0  0  0  0  0
  140.1400   77.5820  220.6170 C   0  0  0  0  0  0  0  0  0  0  0  0
  141.1700   77.6540  219.6760 C   0  0  0  0  0  0  0  0  0  0  0  0
  142.1980   78.3900  220.1540 N   0  0  0  0  0  0  0  0  0  0  0  0
  141.8340   78.7830  221.3860 C   0  0  0  0  0  0  0  0  0  0  0  0
  142.5700   79.5660  222.2730 C   0  0  0  0  0  0  0  0  0  0  0  0
  141.9960   79.8640  223.5210 C   0  0  0  0  0  0  0  0  0  0  0  0
  140.7130   79.3760  223.8530 C   0  0  0  0  0  0  0  0  0  0  0  0
  139.9910   78.5870  222.9390 C   0  0  0  0  0  0  0  0  0  0  0  0
  140.5860   78.3080  221.7060 C   0  0  0  0  0  0  0  0  0  0  0  0
  140.4982   73.4674  219.5741 H   0  0  0  0  0  0  0  0  0  0  0  0
  141.0160   75.1992  219.3959 H   0  0  0  0  0  0  0  0  0  0  0  0
  142.0135   71.8137  220.5858 H   0  0  0  0  0  0  0  0  0  0  0  0
  144.3952   71.1741  220.9694 H   0  0  0  0  0  0  0  0  0  0  0  0
  146.1916   72.9013  220.8486 H   0  0  0  0  0  0  0  0  0  0  0  0
  145.6117   75.2733  220.3298 H   0  0  0  0  0  0  0  0  0  0  0  0
  143.2339   75.9245  219.9440 H   0  0  0  0  0  0  0  0  0  0  0  0
  137.2295   75.1173  222.7198 H   0  0  0  0  0  0  0  0  0  0  0  0
  138.6040   75.9993  223.3789 H   0  0  0  0  0  0  0  0  0  0  0  0
  135.8992   77.3991  223.8640 H   0  0  0  0  0  0  0  0  0  0  0  0
  134.9707   79.5692  222.9931 H   0  0  0  0  0  0  0  0  0  0  0  0
  135.8334   80.5284  220.8450 H   0  0  0  0  0  0  0  0  0  0  0  0
  137.6363   79.3274  219.5665 H   0  0  0  0  0  0  0  0  0  0  0  0
  138.7475   76.6161  219.4026 H   0  0  0  0  0  0  0  0  0  0  0  0
  141.1476   77.1782  218.6845 H   0  0  0  0  0  0  0  0  0  0  0  0
  143.0920   78.6080  219.6600 H   0  0  0  0  0  0  0  0  0  0  0  0
  143.5693   79.9394  222.0049 H   0  0  0  0  0  0  0  0  0  0  0  0
  142.5497   80.4813  224.2437 H   0  0  0  0  0  0  0  0  0  0  0  0
  140.2750   79.6146  224.8334 H   0  0  0  0  0  0  0  0  0  0  0  0
  138.9907   78.2023  223.1870 H   0  0  0  0  0  0  0  0  0  0  0  0
  1  2  2  0
  2  3  2  0
  2  4  1  0
  4  5  1  0
  5  6  2  0
  6  7  1  0
  7  8  2  0
  8  9  1  0
  9 10  2  0
  2 11  1  0
 11 12  1  0
 12 13  1  0
 13 14  2  0
 14 15  1  0
 15 16  2  0
 16 17  1  0
 17 18  2  0
 18 19  1  0
 19 20  1  0
 20 21  2  0
 21 22  1  0
 22 23  1  0
 23 24  2  0
 24 25  1  0
 25 26  2  0
 26 27  1  0
 27 28  2  0
 10  5  1  0
 19 11  1  0
 28 20  1  0
 18 13  1  0
 28 23  1  0
  4 29  1  0
  4 30  1  0
  6 31  1  0
  7 32  1  0
  8 33  1  0
  9 34  1  0
 10 35  1  0
 12 36  1  0
 12 37  1  0
 14 38  1  0
 15 39  1  0
 16 40  1  0
 17 41  1  0
 19 42  1  6
 21 43  1  0
 22 44  1  0
 24 45  1  0
 25 46  1  0
 26 47  1  0
 27 48  1  0
M  END
>  <meeko>  (4) 
{"free_energy": -7.28, "intermolecular_energy": -8.47, "internal_energy": -1.97, "cluster_size": 10, "cluster_id": 1, "rank_in_cluster": 2}

$$$$

     RDKit          3D

 48 52  0  0  0  0  0  0  0  0999 V2000
  142.5750   80.4150  221.5310 O   0  0  0  0  0  0  0  0  0  0  0  0
  141.3680   81.0360  220.8850 S   0  0  0  0  0  0  0  0  0  0  0  0
  141.8130   82.1790  220.0160 O   0  0  0  0  0  0  0  0  0  0  0  0
  140.5750   79.8370  219.8190 C   0  0  0  0  0  0  0  0  0  0  0  0
  141.5390   78.7930  219.3260 C   0  0  0  0  0  0  0  0  0  0  0  0
  142.0670   78.8700  218.0250 C   0  0  0  0  0  0  0  0  0  0  0  0
  142.9530   77.8910  217.5650 C   0  0  0  0  0  0  0  0  0  0  0  0
  143.3240   76.8350  218.4010 C   0  0  0  0  0  0  0  0  0  0  0  0
  142.8140   76.7570  219.6980 C   0  0  0  0  0  0  0  0  0  0  0  0
  141.9280   77.7340  220.1630 C   0  0  0  0  0  0  0  0  0  0  0  0
  140.2500   81.6290  222.1000 N   0  0  0  0  0  0  0  0  0  0  0  0
  138.8840   81.8530  221.5860 C   0  0  0  0  0  0  0  0  0  0  0  0
  138.0030   81.5840  222.7440 C   0  0  0  0  0  0  0  0  0  0  0  0
  136.6340   81.8230  222.8610 C   0  0  0  0  0  0  0  0  0  0  0  0
  135.9950   81.4750  224.0630 C   0  0  0  0  0  0  0  0  0  0  0  0
  136.7310   80.8950  225.1150 C   0  0  0  0  0  0  0  0  0  0  0  0
  138.1070   80.6600  224.9660 C   0  0  0  0  0  0  0  0  0  0  0  0
  138.7190   81.0220  223.7630 C   0  0  0  0  0  0  0  0  0  0  0  0
  140.1290   80.8230  223.3460 C   0  0  1  0  0  0  0  0  0  0  0  0
  140.3870   79.3390  223.1690 C   0  0  0  0  0  0  0  0  0  0  0  0
  141.5630   78.6470  223.4690 C   0  0  0  0  0  0  0  0  0  0  0  0
  141.4290   77.3350  223.1750 N   0  0  0  0  0  0  0  0  0  0  0  0
  140.1850   77.1870  222.6890 C   0  0  0  0  0  0  0  0  0  0  0  0
  139.5860   76.0080  222.2500 C   0  0  0  0  0  0  0  0  0  0  0  0
  138.2630   76.0780  221.7790 C   0  0  0  0  0  0  0  0  0  0  0  0
  137.5750   77.3110  221.7560 C   0  0  0  0  0  0  0  0  0  0  0  0
  138.2040   78.4870  222.2050 C   0  0  0  0  0  0  0  0  0  0  0  0
  139.5180   78.3870  222.6680 C   0  0  0  0  0  0  0  0  0  0  0  0
  139.7707   79.3399  220.3811 H   0  0  0  0  0  0  0  0  0  0  0  0
  140.1784   80.3721  218.9436 H   0  0  0  0  0  0  0  0  0  0  0  0
  141.7819   79.7037  217.3665 H   0  0  0  0  0  0  0  0  0  0  0  0
  143.3582   77.9523  216.5442 H   0  0  0  0  0  0  0  0  0  0  0  0
  144.0189   76.0640  218.0367 H   0  0  0  0  0  0  0  0  0  0  0  0
  143.1094   75.9259  220.3553 H   0  0  0  0  0  0  0  0  0  0  0  0
  141.5341   77.6730  221.1882 H   0  0  0  0  0  0  0  0  0  0  0  0
  138.7644   82.8900  221.2392 H   0  0  0  0  0  0  0  0  0  0  0  0
  138.6507   81.2096  220.7249 H   0  0  0  0  0  0  0  0  0  0  0  0
  136.0680   82.2732  222.0321 H   0  0  0  0  0  0  0  0  0  0  0  0
  134.9166   81.6560  224.1830 H   0  0  0  0  0  0  0  0  0  0  0  0
  136.2266   80.6258  226.0548 H   0  0  0  0  0  0  0  0  0  0  0  0
  138.6903   80.2012  225.7780 H   0  0  0  0  0  0  0  0  0  0  0  0
  140.8856   81.1510  224.0740 H   0  0  0  0  0  0  0  0  0  0  0  0
  142.4713   79.1062  223.8863 H   0  0  0  0  0  0  0  0  0  0  0  0
  142.1500   76.5900  223.3010 H   0  0  0  0  0  0  0  0  0  0  0  0
  140.1309   75.0527  222.2712 H   0  0  0  0  0  0  0  0  0  0  0  0
  137.7602   75.1656  221.4259 H   0  0  0  0  0  0  0  0  0  0  0  0
  136.5404   77.3525  221.3846 H   0  0  0  0  0  0  0  0  0  0  0  0
  137.6782   79.4531  222.1918 H   0  0  0  0  0  0  0  0  0  0  0  0
  1  2  2  0
  2  3  2  0
  2  4  1  0
  4  5  1  0
  5  6  2  0
  6  7  1  0
  7  8  2  0
  8  9  1  0
  9 10  2  0
  2 11  1  0
 11 12  1  0
 12 13  1  0
 13 14  2  0
 14 15  1  0
 15 16  2  0
 16 17  1  0
 17 18  2  0
 18 19  1  0
 19 20  1  0
 20 21  2  0
 21 22  1  0
 22 23  1  0
 23 24  2  0
 24 25  1  0
 25 26  2  0
 26 27  1  0
 27 28  2  0
 10  5  1  0
 19 11  1  0
 28 20  1  0
 18 13  1  0
 28 23  1  0
  4 29  1  0
  4 30  1  0
  6 31  1  0
  7 32  1  0
  8 33  1  0
  9 34  1  0
 10 35  1  0
 12 36  1  0
 12 37  1  0
 14 38  1  0
 15 39  1  0
 16 40  1  0
 17 41  1  0
 19 42  1  1
 21 43  1  0
 22 44  1  0
 24 45  1  0
 25 46  1  0
 26 47  1  0
 27 48  1  0
M  END
>  <meeko>  (5) 
{"free_energy": -6.8, "intermolecular_energy": -8.0, "internal_energy": -2.25, "cluster_size": 2, "cluster_id": 3, "rank_in_cluster": 1}

$$$$

     RDKit          3D

 48 52  0  0  0  0  0  0  0  0999 V2000
  140.4690   77.7220  217.6130 O   0  0  0  0  0  0  0  0  0  0  0  0
  140.2030   77.3170  219.0370 S   0  0  0  0  0  0  0  0  0  0  0  0
  138.8020   77.7180  219.4030 O   0  0  0  0  0  0  0  0  0  0  0  0
  140.2990   75.5360  219.1810 C   0  0  0  0  0  0  0  0  0  0  0  0
  141.6580   75.0780  219.6340 C   0  0  0  0  0  0  0  0  0  0  0  0
  141.7940   73.9150  220.4140 C   0  0  0  0  0  0  0  0  0  0  0  0
  143.0580   73.5000  220.8440 C   0  0  0  0  0  0  0  0  0  0  0  0
  144.1940   74.2340  220.4940 C   0  0  0  0  0  0  0  0  0  0  0  0
  144.0690   75.3830  219.7100 C   0  0  0  0  0  0  0  0  0  0  0  0
  142.8080   75.8030  219.2770 C   0  0  0  0  0  0  0  0  0  0  0  0
  141.3360   78.0950  220.1260 N   0  0  0  0  0  0  0  0  0  0  0  0
  141.2140   79.5660  220.1530 C   0  0  0  0  0  0  0  0  0  0  0  0
  141.6010   79.9450  221.5290 C   0  0  0  0  0  0  0  0  0  0  0  0
  141.8340   81.2220  222.0400 C   0  0  0  0  0  0  0  0  0  0  0  0
  142.1830   81.3470  223.3950 C   0  0  0  0  0  0  0  0  0  0  0  0
  142.2870   80.2010  224.2080 C   0  0  0  0  0  0  0  0  0  0  0  0
  142.0390   78.9290  223.6690 C   0  0  0  0  0  0  0  0  0  0  0  0
  141.7000   78.8330  222.3170 C   0  0  0  0  0  0  0  0  0  0  0  0
  141.3380   77.6240  221.5380 C   0  0  1  0  0  0  0  0  0  0  0  0
  140.0040   77.0990  222.0330 C   0  0  0  0  0  0  0  0  0  0  0  0
  139.6650   75.7690  222.2930 C   0  0  0  0  0  0  0  0  0  0  0  0
  138.3840   75.6790  222.7150 N   0  0  0  0  0  0  0  0  0  0  0  0
  137.9060   76.9350  222.7210 C   0  0  0  0  0  0  0  0  0  0  0  0
  136.6250   77.3470  223.0850 C   0  0  0  0  0  0  0  0  0  0  0  0
  136.3320   78.7210  223.0200 C   0  0  0  0  0  0  0  0  0  0  0  0
  137.3150   79.6430  222.5970 C   0  0  0  0  0  0  0  0  0  0  0  0
  138.6000   79.1990  222.2350 C   0  0  0  0  0  0  0  0  0  0  0  0
  138.8620   77.8290  222.3090 C   0  0  0  0  0  0  0  0  0  0  0  0
  139.5491   75.1982  219.9114 H   0  0  0  0  0  0  0  0  0  0  0  0
  140.1100   75.1049  218.1868 H   0  0  0  0  0  0  0  0  0  0  0  0
  140.9030   73.3303  220.6864 H   0  0  0  0  0  0  0  0  0  0  0  0
  143.1582   72.5936  221.4592 H   0  0  0  0  0  0  0  0  0  0  0  0
  145.1870   73.9069  220.8360 H   0  0  0  0  0  0  0  0  0  0  0  0
  144.9645   75.9585  219.4327 H   0  0  0  0  0  0  0  0  0  0  0  0
  142.7153   76.7049  218.6541 H   0  0  0  0  0  0  0  0  0  0  0  0
  141.8912   80.0258  219.4182 H   0  0  0  0  0  0  0  0  0  0  0  0
  140.2002   79.9062  219.8951 H   0  0  0  0  0  0  0  0  0  0  0  0
  141.7465   82.1102  221.3970 H   0  0  0  0  0  0  0  0  0  0  0  0
  142.3756   82.3421  223.8224 H   0  0  0  0  0  0  0  0  0  0  0  0
  142.5633   80.3034  225.2678 H   0  0  0  0  0  0  0  0  0  0  0  0
  142.1099   78.0284  224.2966 H   0  0  0  0  0  0  0  0  0  0  0  0
  142.0276   76.7735  221.6430 H   0  0  0  0  0  0  0  0  0  0  0  0
  140.3459   74.9137  222.1712 H   0  0  0  0  0  0  0  0  0  0  0  0
  137.8740   74.8080  222.9810 H   0  0  0  0  0  0  0  0  0  0  0  0
  135.8671   76.6203  223.4128 H   0  0  0  0  0  0  0  0  0  0  0  0
  135.3308   79.0800  223.3004 H   0  0  0  0  0  0  0  0  0  0  0  0
  137.0742   80.7153  222.5503 H   0  0  0  0  0  0  0  0  0  0  0  0
  139.3734   79.9079  221.9044 H   0  0  0  0  0  0  0  0  0  0  0  0
  1  2  2  0
  2  3  2  0
  2  4  1  0
  4  5  1  0
  5  6  2  0
  6  7  1  0
  7  8  2  0
  8  9  1  0
  9 10  2  0
  2 11  1  0
 11 12  1  0
 12 13  1  0
 13 14  2  0
 14 15  1  0
 15 16  2  0
 16 17  1  0
 17 18  2  0
 18 19  1  0
 19 20  1  0
 20 21  2  0
 21 22  1  0
 22 23  1  0
 23 24  2  0
 24 25  1  0
 25 26  2  0
 26 27  1  0
 27 28  2  0
 10  5  1  0
 19 11  1  0
 28 20  1  0
 18 13  1  0
 28 23  1  0
  4 29  1  0
  4 30  1  0
  6 31  1  0
  7 32  1  0
  8 33  1  0
  9 34  1  0
 10 35  1  0
 12 36  1  0
 12 37  1  0
 14 38  1  0
 15 39  1  0
 16 40  1  0
 17 41  1  0
 19 42  1  6
 21 43  1  0
 22 44  1  0
 24 45  1  0
 25 46  1  0
 26 47  1  0
 27 48  1  0
M  END
>  <meeko>  (6) 
{"free_energy": -6.93, "intermolecular_energy": -8.12, "internal_energy": -2.13, "cluster_size": 7, "cluster_id": 2, "rank_in_cluster": 4}

$$$$

     RDKit          3D

 48 52  0  0  0  0  0  0  0  0999 V2000
  140.4480   77.6690  217.6220 O   0  0  0  0  0  0  0  0  0  0  0  0
  140.1950   77.2380  219.0410 S   0  0  0  0  0  0  0  0  0  0  0  0
  138.7920   77.6180  219.4230 O   0  0  0  0  0  0  0  0  0  0  0  0
  140.3110   75.4550  219.1550 C   0  0  0  0  0  0  0  0  0  0  0  0
  141.6710   75.0050  219.6130 C   0  0  0  0  0  0  0  0  0  0  0  0
  141.8100   73.8420  220.3910 C   0  0  0  0  0  0  0  0  0  0  0  0
  143.0750   73.4340  220.8260 C   0  0  0  0  0  0  0  0  0  0  0  0
  144.2080   74.1760  220.4830 C   0  0  0  0  0  0  0  0  0  0  0  0
  144.0790   75.3250  219.7000 C   0  0  0  0  0  0  0  0  0  0  0  0
  142.8170   75.7380  219.2620 C   0  0  0  0  0  0  0  0  0  0  0  0
  141.3270   78.0100  220.1360 N   0  0  0  0  0  0  0  0  0  0  0  0
  141.2250   79.4830  220.1490 C   0  0  0  0  0  0  0  0  0  0  0  0
  141.6010   79.8680  221.5270 C   0  0  0  0  0  0  0  0  0  0  0  0
  141.8460   81.1460  222.0300 C   0  0  0  0  0  0  0  0  0  0  0  0
  142.1820   81.2770  223.3870 C   0  0  0  0  0  0  0  0  0  0  0  0
  142.2610   80.1370  224.2110 C   0  0  0  0  0  0  0  0  0  0  0  0
  142.0020   78.8640  223.6800 C   0  0  0  0  0  0  0  0  0  0  0  0
  141.6770   78.7620  222.3250 C   0  0  0  0  0  0  0  0  0  0  0  0
  141.3060   77.5500  221.5520 C   0  0  1  0  0  0  0  0  0  0  0  0
  139.9600   77.0480  222.0360 C   0  0  0  0  0  0  0  0  0  0  0  0
  139.5960   75.7240  222.2900 C   0  0  0  0  0  0  0  0  0  0  0  0
  138.3100   75.6560  222.7030 N   0  0  0  0  0  0  0  0  0  0  0  0
  137.8550   76.9200  222.7100 C   0  0  0  0  0  0  0  0  0  0  0  0
  136.5790   77.3540  223.0670 C   0  0  0  0  0  0  0  0  0  0  0  0
  136.3110   78.7330  223.0050 C   0  0  0  0  0  0  0  0  0  0  0  0
  137.3130   79.6380  222.5910 C   0  0  0  0  0  0  0  0  0  0  0  0
  138.5930   79.1730  222.2360 C   0  0  0  0  0  0  0  0  0  0  0  0
  138.8300   77.7980  222.3070 C   0  0  0  0  0  0  0  0  0  0  0  0
  139.5583   75.0957  219.8721 H   0  0  0  0  0  0  0  0  0  0  0  0
  140.1366   75.0392  218.1517 H   0  0  0  0  0  0  0  0  0  0  0  0
  140.9213   73.2514  220.6582 H   0  0  0  0  0  0  0  0  0  0  0  0
  143.1781   72.5269  221.4396 H   0  0  0  0  0  0  0  0  0  0  0  0
  145.2014   73.8552  220.8297 H   0  0  0  0  0  0  0  0  0  0  0  0
  144.9721   75.9064  219.4272 H   0  0  0  0  0  0  0  0  0  0  0  0
  142.7211   76.6403  218.6402 H   0  0  0  0  0  0  0  0  0  0  0  0
  141.9173   79.9272  219.4186 H   0  0  0  0  0  0  0  0  0  0  0  0
  140.2193   79.8351  219.8759 H   0  0  0  0  0  0  0  0  0  0  0  0
  141.7776   82.0300  221.3790 H   0  0  0  0  0  0  0  0  0  0  0  0
  142.3842   82.2729  223.8081 H   0  0  0  0  0  0  0  0  0  0  0  0
  142.5263   80.2449  225.2731 H   0  0  0  0  0  0  0  0  0  0  0  0
  142.0536   77.9677  224.3156 H   0  0  0  0  0  0  0  0  0  0  0  0
  141.9815   76.6902  221.6722 H   0  0  0  0  0  0  0  0  0  0  0  0
  140.2625   74.8570  222.1707 H   0  0  0  0  0  0  0  0  0  0  0  0
  137.7830   74.7930  222.9630 H   0  0  0  0  0  0  0  0  0  0  0  0
  135.8060   76.6399  223.3872 H   0  0  0  0  0  0  0  0  0  0  0  0
  135.3148   79.1092  223.2807 H   0  0  0  0  0  0  0  0  0  0  0  0
  137.0913   80.7145  222.5457 H   0  0  0  0  0  0  0  0  0  0  0  0
  139.3810   79.8693  221.9132 H   0  0  0  0  0  0  0  0  0  0  0  0
  1  2  2  0
  2  3  2  0
  2  4  1  0
  4  5  1  0
  5  6  2  0
  6  7  1  0
  7  8  2  0
  8  9  1  0
  9 10  2  0
  2 11  1  0
 11 12  1  0
 12 13  1  0
 13 14  2  0
 14 15  1  0
 15 16  2  0
 16 17  1  0
 17 18  2  0
 18 19  1  0
 19 20  1  0
 20 21  2  0
 21 22  1  0
 22 23  1  0
 23 24  2  0
 24 25  1  0
 25 26  2  0
 26 27  1  0
 27 28  2  0
 10  5  1  0
 19 11  1  0
 28 20  1  0
 18 13  1  0
 28 23  1  0
  4 29  1  0
  4 30  1  0
  6 31  1  0
  7 32  1  0
  8 33  1  0
  9 34  1  0
 10 35  1  0
 12 36  1  0
 12 37  1  0
 14 38  1  0
 15 39  1  0
 16 40  1  0
 17 41  1  0
 19 42  1  6
 21 43  1  0
 22 44  1  0
 24 45  1  0
 25 46  1  0
 26 47  1  0
 27 48  1  0
M  END
>  <meeko>  (7) 
{"free_energy": -6.91, "intermolecular_energy": -8.1, "internal_energy": -2.14, "cluster_size": 7, "cluster_id": 2, "rank_in_cluster": 5}

$$$$

     RDKit          3D

 48 52  0  0  0  0  0  0  0  0999 V2000
  140.4680   77.7080  217.6110 O   0  0  0  0  0  0  0  0  0  0  0  0
  140.2040   77.2900  219.0310 S   0  0  0  0  0  0  0  0  0  0  0  0
  138.8030   77.6870  219.4040 O   0  0  0  0  0  0  0  0  0  0  0  0
  140.3030   75.5080  219.1600 C   0  0  0  0  0  0  0  0  0  0  0  0
  141.6590   75.0480  219.6210 C   0  0  0  0  0  0  0  0  0  0  0  0
  142.8150   75.7590  219.2520 C   0  0  0  0  0  0  0  0  0  0  0  0
  144.0750   75.3210  219.6720 C   0  0  0  0  0  0  0  0  0  0  0  0
  144.1910   74.1790  220.4680 C   0  0  0  0  0  0  0  0  0  0  0  0
  143.0470   73.4750  220.8490 C   0  0  0  0  0  0  0  0  0  0  0  0
  141.7840   73.9070  220.4320 C   0  0  0  0  0  0  0  0  0  0  0  0
  141.3390   78.0600  220.1250 N   0  0  0  0  0  0  0  0  0  0  0  0
  141.2260   79.5320  220.1520 C   0  0  0  0  0  0  0  0  0  0  0  0
  141.6100   79.9080  221.5310 C   0  0  0  0  0  0  0  0  0  0  0  0
  141.8490   81.1830  222.0440 C   0  0  0  0  0  0  0  0  0  0  0  0
  142.1940   81.3050  223.4000 C   0  0  0  0  0  0  0  0  0  0  0  0
  142.2870   80.1580  224.2120 C   0  0  0  0  0  0  0  0  0  0  0  0
  142.0330   78.8880  223.6710 C   0  0  0  0  0  0  0  0  0  0  0  0
  141.6990   78.7950  222.3180 C   0  0  0  0  0  0  0  0  0  0  0  0
  141.3320   77.5880  221.5370 C   0  0  1  0  0  0  0  0  0  0  0  0
  139.9930   77.0720  222.0260 C   0  0  0  0  0  0  0  0  0  0  0  0
  139.6470   75.7450  222.2920 C   0  0  0  0  0  0  0  0  0  0  0  0
  138.3630   75.6630  222.7070 N   0  0  0  0  0  0  0  0  0  0  0  0
  137.8900   76.9200  222.7020 C   0  0  0  0  0  0  0  0  0  0  0  0
  136.6080   77.3390  223.0550 C   0  0  0  0  0  0  0  0  0  0  0  0
  136.3210   78.7140  222.9800 C   0  0  0  0  0  0  0  0  0  0  0  0
  137.3100   79.6290  222.5580 C   0  0  0  0  0  0  0  0  0  0  0  0
  138.5960   79.1790  222.2070 C   0  0  0  0  0  0  0  0  0  0  0  0
  138.8530   77.8080  222.2910 C   0  0  0  0  0  0  0  0  0  0  0  0
  139.5473   75.1621  219.8806 H   0  0  0  0  0  0  0  0  0  0  0  0
  140.1241   75.0858  218.1601 H   0  0  0  0  0  0  0  0  0  0  0  0
  142.7278   76.6627  218.6309 H   0  0  0  0  0  0  0  0  0  0  0  0
  144.9765   75.8769  219.3749 H   0  0  0  0  0  0  0  0  0  0  0  0
  145.1833   73.8344  220.7946 H   0  0  0  0  0  0  0  0  0  0  0  0
  143.1394   72.5780  221.4790 H   0  0  0  0  0  0  0  0  0  0  0  0
  140.8855   73.3520  220.7397 H   0  0  0  0  0  0  0  0  0  0  0  0
  141.9091   79.9879  219.4202 H   0  0  0  0  0  0  0  0  0  0  0  0
  140.2155   79.8788  219.8899 H   0  0  0  0  0  0  0  0  0  0  0  0
  141.7691   82.0722  221.4014 H   0  0  0  0  0  0  0  0  0  0  0  0
  142.3920   82.2985  223.8287 H   0  0  0  0  0  0  0  0  0  0  0  0
  142.5594   80.2577  225.2731 H   0  0  0  0  0  0  0  0  0  0  0  0
  142.0956   77.9865  224.2983 H   0  0  0  0  0  0  0  0  0  0  0  0
  142.0152   76.7327  221.6447 H   0  0  0  0  0  0  0  0  0  0  0  0
  140.3251   74.8862  222.1794 H   0  0  0  0  0  0  0  0  0  0  0  0
  137.8480   74.7950  222.9750 H   0  0  0  0  0  0  0  0  0  0  0  0
  135.8450   76.6171  223.3818 H   0  0  0  0  0  0  0  0  0  0  0  0
  135.3195   79.0788  223.2519 H   0  0  0  0  0  0  0  0  0  0  0  0
  137.0733   80.7018  222.5032 H   0  0  0  0  0  0  0  0  0  0  0  0
  139.3738   79.8834  221.8772 H   0  0  0  0  0  0  0  0  0  0  0  0
  1  2  2  0
  2  3  2  0
  2  4  1  0
  4  5  1  0
  5  6  2  0
  6  7  1  0
  7  8  2  0
  8  9  1  0
  9 10  2  0
  2 11  1  0
 11 12  1  0
 12 13  1  0
 13 14  2  0
 14 15  1  0
 15 16  2  0
 16 17  1  0
 17 18  2  0
 18 19  1  0
 19 20  1  0
 20 21  2  0
 21 22  1  0
 22 23  1  0
 23 24  2  0
 24 25  1  0
 25 26  2  0
 26 27  1  0
 27 28  2  0
 10  5  1  0
 19 11  1  0
 28 20  1  0
 18 13  1  0
 28 23  1  0
  4 29  1  0
  4 30  1  0
  6 31  1  0
  7 32  1  0
  8 33  1  0
  9 34  1  0
 10 35  1  0
 12 36  1  0
 12 37  1  0
 14 38  1  0
 15 39  1  0
 16 40  1  0
 17 41  1  0
 19 42  1  6
 21 43  1  0
 22 44  1  0
 24 45  1  0
 25 46  1  0
 26 47  1  0
 27 48  1  0
M  END
>  <meeko>  (8) 
{"free_energy": -6.9, "intermolecular_energy": -8.1, "internal_energy": -2.15, "cluster_size": 7, "cluster_id": 2, "rank_in_cluster": 6}

$$$$

     RDKit          3D

 48 52  0  0  0  0  0  0  0  0999 V2000
  137.8070   75.9040  221.3630 O   0  0  0  0  0  0  0  0  0  0  0  0
  139.2850   75.9110  221.6380 S   0  0  0  0  0  0  0  0  0  0  0  0
  139.6560   74.6350  222.3400 O   0  0  0  0  0  0  0  0  0  0  0  0
  140.1830   75.9460  220.0900 C   0  0  0  0  0  0  0  0  0  0  0  0
  141.5690   75.3780  220.2270 C   0  0  0  0  0  0  0  0  0  0  0  0
  142.6940   76.1720  219.9420 C   0  0  0  0  0  0  0  0  0  0  0  0
  143.9810   75.6360  220.0580 C   0  0  0  0  0  0  0  0  0  0  0  0
  144.1550   74.3120  220.4650 C   0  0  0  0  0  0  0  0  0  0  0  0
  143.0430   73.5200  220.7610 C   0  0  0  0  0  0  0  0  0  0  0  0
  141.7540   74.0500  220.6470 C   0  0  0  0  0  0  0  0  0  0  0  0
  139.7220   77.2790  222.6450 N   0  0  0  0  0  0  0  0  0  0  0  0
  141.1730   77.3860  222.8990 C   0  0  0  0  0  0  0  0  0  0  0  0
  141.4190   78.8390  223.0360 C   0  0  0  0  0  0  0  0  0  0  0  0
  142.5820   79.4810  223.4600 C   0  0  0  0  0  0  0  0  0  0  0  0
  142.5930   80.8850  223.5030 C   0  0  0  0  0  0  0  0  0  0  0  0
  141.4510   81.6140  223.1180 C   0  0  0  0  0  0  0  0  0  0  0  0
  140.2960   80.9410  222.6880 C   0  0  0  0  0  0  0  0  0  0  0  0
  140.3100   79.5440  222.6620 C   0  0  0  0  0  0  0  0  0  0  0  0
  139.2490   78.6180  222.1960 C   0  0  1  0  0  0  0  0  0  0  0  0
  139.0910   78.7630  220.6950 C   0  0  0  0  0  0  0  0  0  0  0  0
  137.9110   78.6400  219.9570 C   0  0  0  0  0  0  0  0  0  0  0  0
  138.1540   78.8290  218.6410 N   0  0  0  0  0  0  0  0  0  0  0  0
  139.4720   79.0660  218.5350 C   0  0  0  0  0  0  0  0  0  0  0  0
  140.1920   79.3200  217.3690 C   0  0  0  0  0  0  0  0  0  0  0  0
  141.5750   79.5460  217.4860 C   0  0  0  0  0  0  0  0  0  0  0  0
  142.2020   79.5110  218.7510 C   0  0  0  0  0  0  0  0  0  0  0  0
  141.4510   79.2520  219.9120 C   0  0  0  0  0  0  0  0  0  0  0  0
  140.0790   79.0320  219.7660 C   0  0  0  0  0  0  0  0  0  0  0  0
  139.6295   75.3551  219.3454 H   0  0  0  0  0  0  0  0  0  0  0  0
  140.2767   76.9962  219.7764 H   0  0  0  0  0  0  0  0  0  0  0  0
  142.5617   77.2176  219.6269 H   0  0  0  0  0  0  0  0  0  0  0  0
  144.8578   76.2592  219.8280 H   0  0  0  0  0  0  0  0  0  0  0  0
  145.1680   73.8923  220.5526 H   0  0  0  0  0  0  0  0  0  0  0  0
  143.1816   72.4777  221.0843 H   0  0  0  0  0  0  0  0  0  0  0  0
  140.8814   73.4248  220.8871 H   0  0  0  0  0  0  0  0  0  0  0  0
  141.4459   76.8565  223.8238 H   0  0  0  0  0  0  0  0  0  0  0  0
  141.7728   76.9341  222.0952 H   0  0  0  0  0  0  0  0  0  0  0  0
  143.4697   78.9017  223.7538 H   0  0  0  0  0  0  0  0  0  0  0  0
  143.4958   81.4165  223.8382 H   0  0  0  0  0  0  0  0  0  0  0  0
  141.4639   82.7133  223.1542 H   0  0  0  0  0  0  0  0  0  0  0  0
  139.4009   81.5006  222.3788 H   0  0  0  0  0  0  0  0  0  0  0  0
  138.2447   78.8117  222.6008 H   0  0  0  0  0  0  0  0  0  0  0  0
  136.9226   78.4201  220.3869 H   0  0  0  0  0  0  0  0  0  0  0  0
  137.4540   78.7970  217.8660 H   0  0  0  0  0  0  0  0  0  0  0  0
  139.6942   79.3430  216.3883 H   0  0  0  0  0  0  0  0  0  0  0  0
  142.1728   79.7515  216.5858 H   0  0  0  0  0  0  0  0  0  0  0  0
  143.2849   79.6875  218.8290 H   0  0  0  0  0  0  0  0  0  0  0  0
  141.9284   79.2236  220.9026 H   0  0  0  0  0  0  0  0  0  0  0  0
  1  2  2  0
  2  3  2  0
  2  4  1  0
  4  5  1  0
  5  6  2  0
  6  7  1  0
  7  8  2  0
  8  9  1  0
  9 10  2  0
  2 11  1  0
 11 12  1  0
 12 13  1  0
 13 14  2  0
 14 15  1  0
 15 16  2  0
 16 17  1  0
 17 18  2  0
 18 19  1  0
 19 20  1  0
 20 21  2  0
 21 22  1  0
 22 23  1  0
 23 24  2  0
 24 25  1  0
 25 26  2  0
 26 27  1  0
 27 28  2  0
 10  5  1  0
 19 11  1  0
 28 20  1  0
 18 13  1  0
 28 23  1  0
  4 29  1  0
  4 30  1  0
  6 31  1  0
  7 32  1  0
  8 33  1  0
  9 34  1  0
 10 35  1  0
 12 36  1  0
 12 37  1  0
 14 38  1  0
 15 39  1  0
 16 40  1  0
 17 41  1  0
 19 42  1  1
 21 43  1  0
 22 44  1  0
 24 45  1  0
 25 46  1  0
 26 47  1  0
 27 48  1  0
M  END
>  <meeko>  (9) 
{"free_energy": -6.75, "intermolecular_energy": -7.94, "internal_energy": -2.23, "cluster_size": 1, "cluster_id": 4, "rank_in_cluster": 1}

$$$$

     RDKit          3D

 48 52  0  0  0  0  0  0  0  0999 V2000
  139.9430   73.3890  222.4300 O   0  0  0  0  0  0  0  0  0  0  0  0
  140.1980   74.6210  221.6070 S   0  0  0  0  0  0  0  0  0  0  0  0
  141.1550   75.5120  222.3470 O   0  0  0  0  0  0  0  0  0  0  0  0
  140.9840   74.1610  220.0670 C   0  0  0  0  0  0  0  0  0  0  0  0
  142.4420   73.8400  220.2500 C   0  0  0  0  0  0  0  0  0  0  0  0
  143.4030   74.8660  220.2430 C   0  0  0  0  0  0  0  0  0  0  0  0
  144.7590   74.5620  220.4000 C   0  0  0  0  0  0  0  0  0  0  0  0
  145.1650   73.2370  220.5730 C   0  0  0  0  0  0  0  0  0  0  0  0
  144.2150   72.2130  220.5930 C   0  0  0  0  0  0  0  0  0  0  0  0
  142.8580   72.5100  220.4360 C   0  0  0  0  0  0  0  0  0  0  0  0
  138.7030   75.4900  221.3110 N   0  0  0  0  0  0  0  0  0  0  0  0
  137.9450   75.7960  222.5400 C   0  0  0  0  0  0  0  0  0  0  0  0
  137.2490   77.0670  222.2390 C   0  0  0  0  0  0  0  0  0  0  0  0
  136.2590   77.7070  222.9850 C   0  0  0  0  0  0  0  0  0  0  0  0
  135.7440   78.9230  222.5080 C   0  0  0  0  0  0  0  0  0  0  0  0
  136.2280   79.4740  221.3050 C   0  0  0  0  0  0  0  0  0  0  0  0
  137.2300   78.8120  220.5790 C   0  0  0  0  0  0  0  0  0  0  0  0
  137.7190   77.6000  221.0730 C   0  0  0  0  0  0  0  0  0  0  0  0
  138.8070   76.7510  220.5260 C   0  0  1  0  0  0  0  0  0  0  0  0
  140.1260   77.4820  220.6740 C   0  0  0  0  0  0  0  0  0  0  0  0
  141.1730   77.5260  219.7490 C   0  0  0  0  0  0  0  0  0  0  0  0
  142.1950   78.2720  220.2260 N   0  0  0  0  0  0  0  0  0  0  0  0
  141.8110   78.6970  221.4410 C   0  0  0  0  0  0  0  0  0  0  0  0
  142.5350   79.5010  222.3200 C   0  0  0  0  0  0  0  0  0  0  0  0
  141.9400   79.8320  223.5510 C   0  0  0  0  0  0  0  0  0  0  0  0
  140.6490   79.3580  223.8720 C   0  0  0  0  0  0  0  0  0  0  0  0
  139.9400   78.5480  222.9650 C   0  0  0  0  0  0  0  0  0  0  0  0
  140.5560   78.2350  221.7510 C   0  0  0  0  0  0  0  0  0  0  0  0
  140.4743   73.2756  219.6592 H   0  0  0  0  0  0  0  0  0  0  0  0
  140.9091   75.0165  219.3796 H   0  0  0  0  0  0  0  0  0  0  0  0
  143.0872   75.9117  220.1136 H   0  0  0  0  0  0  0  0  0  0  0  0
  145.5073   75.3681  220.3872 H   0  0  0  0  0  0  0  0  0  0  0  0
  146.2323   72.9998  220.6935 H   0  0  0  0  0  0  0  0  0  0  0  0
  144.5356   71.1701  220.7327 H   0  0  0  0  0  0  0  0  0  0  0  0
  142.1134   71.7006  220.4581 H   0  0  0  0  0  0  0  0  0  0  0  0
  137.2201   74.9980  222.7586 H   0  0  0  0  0  0  0  0  0  0  0  0
  138.5950   75.8741  223.4239 H   0  0  0  0  0  0  0  0  0  0  0  0
  135.8906   77.2694  223.9246 H   0  0  0  0  0  0  0  0  0  0  0  0
  134.9605   79.4469  223.0751 H   0  0  0  0  0  0  0  0  0  0  0  0
  135.8194   80.4255  220.9339 H   0  0  0  0  0  0  0  0  0  0  0  0
  137.6212   79.2373  219.6430 H   0  0  0  0  0  0  0  0  0  0  0  0
  138.7338   76.5266  219.4516 H   0  0  0  0  0  0  0  0  0  0  0  0
  141.1665   77.0241  218.7702 H   0  0  0  0  0  0  0  0  0  0  0  0
  143.0990   78.4740  219.7430 H   0  0  0  0  0  0  0  0  0  0  0  0
  143.5397   79.8651  222.0593 H   0  0  0  0  0  0  0  0  0  0  0  0
  142.4839   80.4642  224.2683 H   0  0  0  0  0  0  0  0  0  0  0  0
  140.1942   79.6237  224.8377 H   0  0  0  0  0  0  0  0  0  0  0  0
  138.9337   78.1737  223.2044 H   0  0  0  0  0  0  0  0  0  0  0  0
  1  2  2  0
  2  3  2  0
  2  4  1  0
  4  5  1  0
  5  6  2  0
  6  7  1  0
  7  8  2  0
  8  9  1  0
  9 10  2  0
  2 11  1  0
 11 12  1  0
 12 13  1  0
 13 14  2  0
 14 15  1  0
 15 16  2  0
 16 17  1  0
 17 18  2  0
 18 19  1  0
 19 20  1  0
 20 21  2  0
 21 22  1  0
 22 23  1  0
 23 24  2  0
 24 25  1  0
 25 26  2  0
 26 27  1  0
 27 28  2  0
 10  5  1  0
 19 11  1  0
 28 20  1  0
 18 13  1  0
 28 23  1  0
  4 29  1  0
  4 30  1  0
  6 31  1  0
  7 32  1  0
  8 33  1  0
  9 34  1  0
 10 35  1  0
 12 36  1  0
 12 37  1  0
 14 38  1  0
 15 39  1  0
 16 40  1  0
 17 41  1  0
 19 42  1  6
 21 43  1  0
 22 44  1  0
 24 45  1  0
 25 46  1  0
 26 47  1  0
 27 48  1  0
M  END
>  <meeko>  (10) 
{"free_energy": -7.26, "intermolecular_energy": -8.46, "internal_energy": -1.96, "cluster_size": 10, "cluster_id": 1, "rank_in_cluster": 10}

$$$$

     RDKit          3D

 48 52  0  0  0  0  0  0  0  0999 V2000
  139.9720   73.4640  222.3490 O   0  0  0  0  0  0  0  0  0  0  0  0
  140.2240   74.7230  221.5660 S   0  0  0  0  0  0  0  0  0  0  0  0
  141.1640   75.6010  222.3440 O   0  0  0  0  0  0  0  0  0  0  0  0
  141.0340   74.3170  220.0220 C   0  0  0  0  0  0  0  0  0  0  0  0
  142.4730   73.9280  220.2230 C   0  0  0  0  0  0  0  0  0  0  0  0
  143.4900   74.8960  220.1370 C   0  0  0  0  0  0  0  0  0  0  0  0
  144.8280   74.5280  220.3120 C   0  0  0  0  0  0  0  0  0  0  0  0
  145.1600   73.1980  220.5810 C   0  0  0  0  0  0  0  0  0  0  0  0
  144.1550   72.2340  220.6800 C   0  0  0  0  0  0  0  0  0  0  0  0
  142.8160   72.5950  220.5060 C   0  0  0  0  0  0  0  0  0  0  0  0
  138.7240   75.5850  221.2770 N   0  0  0  0  0  0  0  0  0  0  0  0
  137.9750   75.8960  222.5110 C   0  0  0  0  0  0  0  0  0  0  0  0
  137.2730   77.1630  222.2090 C   0  0  0  0  0  0  0  0  0  0  0  0
  136.2870   77.8040  222.9600 C   0  0  0  0  0  0  0  0  0  0  0  0
  135.7640   79.0160  222.4800 C   0  0  0  0  0  0  0  0  0  0  0  0
  136.2360   79.5620  221.2710 C   0  0  0  0  0  0  0  0  0  0  0  0
  137.2350   78.8990  220.5400 C   0  0  0  0  0  0  0  0  0  0  0  0
  137.7320   77.6920  221.0360 C   0  0  0  0  0  0  0  0  0  0  0  0
  138.8180   76.8430  220.4850 C   0  0  1  0  0  0  0  0  0  0  0  0
  140.1360   77.5790  220.6180 C   0  0  0  0  0  0  0  0  0  0  0  0
  141.1600   77.6520  219.6710 C   0  0  0  0  0  0  0  0  0  0  0  0
  142.1890   78.3920  220.1400 N   0  0  0  0  0  0  0  0  0  0  0  0
  141.8320   78.7870  221.3730 C   0  0  0  0  0  0  0  0  0  0  0  0
  142.5720   79.5740  222.2540 C   0  0  0  0  0  0  0  0  0  0  0  0
  142.0040   79.8730  223.5050 C   0  0  0  0  0  0  0  0  0  0  0  0
  140.7250   79.3830  223.8460 C   0  0  0  0  0  0  0  0  0  0  0  0
  139.9990   78.5900  222.9380 C   0  0  0  0  0  0  0  0  0  0  0  0
  140.5880   78.3090  221.7030 C   0  0  0  0  0  0  0  0  0  0  0  0
  140.5017   73.4766  219.5525 H   0  0  0  0  0  0  0  0  0  0  0  0
  141.0112   75.2115  219.3821 H   0  0  0  0  0  0  0  0  0  0  0  0
  143.2323   75.9455  219.9315 H   0  0  0  0  0  0  0  0  0  0  0  0
  145.6204   75.2873  220.2377 H   0  0  0  0  0  0  0  0  0  0  0  0
  146.2132   72.9103  220.7148 H   0  0  0  0  0  0  0  0  0  0  0  0
  144.4176   71.1878  220.8955 H   0  0  0  0  0  0  0  0  0  0  0  0
  142.0276   71.8326  220.5909 H   0  0  0  0  0  0  0  0  0  0  0  0
  137.2543   75.0972  222.7401 H   0  0  0  0  0  0  0  0  0  0  0  0
  138.6322   75.9810  223.3890 H   0  0  0  0  0  0  0  0  0  0  0  0
  135.9280   77.3706  223.9051 H   0  0  0  0  0  0  0  0  0  0  0  0
  134.9832   79.5403  223.0504 H   0  0  0  0  0  0  0  0  0  0  0  0
  135.8212   80.5101  220.8982 H   0  0  0  0  0  0  0  0  0  0  0  0
  137.6171   79.3206  219.5986 H   0  0  0  0  0  0  0  0  0  0  0  0
  138.7367   76.6124  219.4125 H   0  0  0  0  0  0  0  0  0  0  0  0
  141.1327   77.1736  218.6809 H   0  0  0  0  0  0  0  0  0  0  0  0
  143.0800   78.6110  219.6400 H   0  0  0  0  0  0  0  0  0  0  0  0
  143.5688   79.9493  221.9792 H   0  0  0  0  0  0  0  0  0  0  0  0
  142.5604   80.4933  224.2231 H   0  0  0  0  0  0  0  0  0  0  0  0
  140.2926   79.6227  224.8286 H   0  0  0  0  0  0  0  0  0  0  0  0
  139.0008   78.2042  223.1924 H   0  0  0  0  0  0  0  0  0  0  0  0
  1  2  2  0
  2  3  2  0
  2  4  1  0
  4  5  1  0
  5  6  2  0
  6  7  1  0
  7  8  2  0
  8  9  1  0
  9 10  2  0
  2 11  1  0
 11 12  1  0
 12 13  1  0
 13 14  2  0
 14 15  1  0
 15 16  2  0
 16 17  1  0
 17 18  2  0
 18 19  1  0
 19 20  1  0
 20 21  2  0
 21 22  1  0
 22 23  1  0
 23 24  2  0
 24 25  1  0
 25 26  2  0
 26 27  1  0
 27 28  2  0
 10  5  1  0
 19 11  1  0
 28 20  1  0
 18 13  1  0
 28 23  1  0
  4 29  1  0
  4 30  1  0
  6 31  1  0
  7 32  1  0
  8 33  1  0
  9 34  1  0
 10 35  1  0
 12 36  1  0
 12 37  1  0
 14 38  1  0
 15 39  1  0
 16 40  1  0
 17 41  1  0
 19 42  1  6
 21 43  1  0
 22 44  1  0
 24 45  1  0
 25 46  1  0
 26 47  1  0
 27 48  1  0
M  END
>  <meeko>  (11) 
{"free_energy": -7.27, "intermolecular_energy": -8.46, "internal_energy": -1.97, "cluster_size": 10, "cluster_id": 1, "rank_in_cluster": 6}

$$$$

     RDKit          3D

 48 52  0  0  0  0  0  0  0  0999 V2000
  139.9630   73.4690  222.3680 O   0  0  0  0  0  0  0  0  0  0  0  0
  140.2170   74.7290  221.5870 S   0  0  0  0  0  0  0  0  0  0  0  0
  141.1570   75.6040  222.3670 O   0  0  0  0  0  0  0  0  0  0  0  0
  141.0280   74.3240  220.0430 C   0  0  0  0  0  0  0  0  0  0  0  0
  142.4650   73.9300  220.2450 C   0  0  0  0  0  0  0  0  0  0  0  0
  142.8040   72.5920  220.5130 C   0  0  0  0  0  0  0  0  0  0  0  0
  144.1410   72.2310  220.7130 C   0  0  0  0  0  0  0  0  0  0  0  0
  145.1460   73.1980  220.6400 C   0  0  0  0  0  0  0  0  0  0  0  0
  144.8180   74.5270  220.3630 C   0  0  0  0  0  0  0  0  0  0  0  0
  143.4840   74.8930  220.1620 C   0  0  0  0  0  0  0  0  0  0  0  0
  138.7180   75.5930  221.2980 N   0  0  0  0  0  0  0  0  0  0  0  0
  137.9710   75.9080  222.5330 C   0  0  0  0  0  0  0  0  0  0  0  0
  137.2710   77.1750  222.2290 C   0  0  0  0  0  0  0  0  0  0  0  0
  136.2870   77.8190  222.9800 C   0  0  0  0  0  0  0  0  0  0  0  0
  135.7660   79.0310  222.4990 C   0  0  0  0  0  0  0  0  0  0  0  0
  136.2380   79.5750  221.2880 C   0  0  0  0  0  0  0  0  0  0  0  0
  137.2340   78.9090  220.5570 C   0  0  0  0  0  0  0  0  0  0  0  0
  137.7300   77.7010  221.0550 C   0  0  0  0  0  0  0  0  0  0  0  0
  138.8130   76.8490  220.5050 C   0  0  1  0  0  0  0  0  0  0  0  0
  140.1330   77.5830  220.6340 C   0  0  0  0  0  0  0  0  0  0  0  0
  141.1560   77.6520  219.6860 C   0  0  0  0  0  0  0  0  0  0  0  0
  142.1870   78.3920  220.1520 N   0  0  0  0  0  0  0  0  0  0  0  0
  141.8320   78.7890  221.3860 C   0  0  0  0  0  0  0  0  0  0  0  0
  142.5740   79.5770  222.2640 C   0  0  0  0  0  0  0  0  0  0  0  0
  142.0090   79.8790  223.5150 C   0  0  0  0  0  0  0  0  0  0  0  0
  140.7280   79.3920  223.8580 C   0  0  0  0  0  0  0  0  0  0  0  0
  140.0010   78.5980  222.9530 C   0  0  0  0  0  0  0  0  0  0  0  0
  140.5870   78.3140  221.7170 C   0  0  0  0  0  0  0  0  0  0  0  0
  140.4936   73.4865  219.5707 H   0  0  0  0  0  0  0  0  0  0  0  0
  141.0090   75.2201  219.4053 H   0  0  0  0  0  0  0  0  0  0  0  0
  142.0157   71.8266  220.5656 H   0  0  0  0  0  0  0  0  0  0  0  0
  144.4009   71.1840  220.9280 H   0  0  0  0  0  0  0  0  0  0  0  0
  146.1962   72.9128  220.8007 H   0  0  0  0  0  0  0  0  0  0  0  0
  145.6109   75.2871  220.3029 H   0  0  0  0  0  0  0  0  0  0  0  0
  143.2312   75.9398  219.9378 H   0  0  0  0  0  0  0  0  0  0  0  0
  137.2493   75.1109  222.7649 H   0  0  0  0  0  0  0  0  0  0  0  0
  138.6295   75.9937  223.4100 H   0  0  0  0  0  0  0  0  0  0  0  0
  135.9281   77.3876  223.9261 H   0  0  0  0  0  0  0  0  0  0  0  0
  134.9867   79.5575  223.0695 H   0  0  0  0  0  0  0  0  0  0  0  0
  135.8250   80.5237  220.9147 H   0  0  0  0  0  0  0  0  0  0  0  0
  137.6153   79.3280  219.6141 H   0  0  0  0  0  0  0  0  0  0  0  0
  138.7295   76.6163  219.4331 H   0  0  0  0  0  0  0  0  0  0  0  0
  141.1270   77.1709  218.6972 H   0  0  0  0  0  0  0  0  0  0  0  0
  143.0770   78.6080  219.6510 H   0  0  0  0  0  0  0  0  0  0  0  0
  143.5706   79.9509  221.9866 H   0  0  0  0  0  0  0  0  0  0  0  0
  142.5679   80.4986  224.2317 H   0  0  0  0  0  0  0  0  0  0  0  0
  140.2961   79.6356  224.8399 H   0  0  0  0  0  0  0  0  0  0  0  0
  139.0032   78.2130  223.2101 H   0  0  0  0  0  0  0  0  0  0  0  0
  1  2  2  0
  2  3  2  0
  2  4  1  0
  4  5  1  0
  5  6  2  0
  6  7  1  0
  7  8  2  0
  8  9  1  0
  9 10  2  0
  2 11  1  0
 11 12  1  0
 12 13  1  0
 13 14  2  0
 14 15  1  0
 15 16  2  0
 16 17  1  0
 17 18  2  0
 18 19  1  0
 19 20  1  0
 20 21  2  0
 21 22  1  0
 22 23  1  0
 23 24  2  0
 24 25  1  0
 25 26  2  0
 26 27  1  0
 27 28  2  0
 10  5  1  0
 19 11  1  0
 28 20  1  0
 18 13  1  0
 28 23  1  0
  4 29  1  0
  4 30  1  0
  6 31  1  0
  7 32  1  0
  8 33  1  0
  9 34  1  0
 10 35  1  0
 12 36  1  0
 12 37  1  0
 14 38  1  0
 15 39  1  0
 16 40  1  0
 17 41  1  0
 19 42  1  6
 21 43  1  0
 22 44  1  0
 24 45  1  0
 25 46  1  0
 26 47  1  0
 27 48  1  0
M  END
>  <meeko>  (12) 
{"free_energy": -7.27, "intermolecular_energy": -8.46, "internal_energy": -1.97, "cluster_size": 10, "cluster_id": 1, "rank_in_cluster": 8}

$$$$

     RDKit          3D

 48 52  0  0  0  0  0  0  0  0999 V2000
  139.9510   73.4990  222.3660 O   0  0  0  0  0  0  0  0  0  0  0  0
  140.2100   74.7520  221.5750 S   0  0  0  0  0  0  0  0  0  0  0  0
  141.1510   75.6310  222.3500 O   0  0  0  0  0  0  0  0  0  0  0  0
  141.0220   74.3320  220.0360 C   0  0  0  0  0  0  0  0  0  0  0  0
  142.4580   73.9370  220.2440 C   0  0  0  0  0  0  0  0  0  0  0  0
  142.7970   72.6000  220.5150 C   0  0  0  0  0  0  0  0  0  0  0  0
  144.1320   72.2390  220.7200 C   0  0  0  0  0  0  0  0  0  0  0  0
  145.1380   73.2050  220.6490 C   0  0  0  0  0  0  0  0  0  0  0  0
  144.8120   74.5340  220.3690 C   0  0  0  0  0  0  0  0  0  0  0  0
  143.4780   74.9010  220.1630 C   0  0  0  0  0  0  0  0  0  0  0  0
  138.7150   75.6190  221.2770 N   0  0  0  0  0  0  0  0  0  0  0  0
  137.9610   75.9370  222.5060 C   0  0  0  0  0  0  0  0  0  0  0  0
  137.2650   77.2050  222.1970 C   0  0  0  0  0  0  0  0  0  0  0  0
  136.2780   77.8520  222.9420 C   0  0  0  0  0  0  0  0  0  0  0  0
  135.7620   79.0640  222.4560 C   0  0  0  0  0  0  0  0  0  0  0  0
  136.2420   79.6050  221.2470 C   0  0  0  0  0  0  0  0  0  0  0  0
  137.2410   78.9360  220.5230 C   0  0  0  0  0  0  0  0  0  0  0  0
  137.7320   77.7280  221.0250 C   0  0  0  0  0  0  0  0  0  0  0  0
  138.8170   76.8740  220.4820 C   0  0  1  0  0  0  0  0  0  0  0  0
  140.1370   77.6050  220.6180 C   0  0  0  0  0  0  0  0  0  0  0  0
  141.1650   77.6720  219.6750 C   0  0  0  0  0  0  0  0  0  0  0  0
  142.1950   78.4100  220.1460 N   0  0  0  0  0  0  0  0  0  0  0  0
  141.8340   78.8080  221.3780 C   0  0  0  0  0  0  0  0  0  0  0  0
  142.5730   79.5950  222.2590 C   0  0  0  0  0  0  0  0  0  0  0  0
  142.0020   79.8990  223.5080 C   0  0  0  0  0  0  0  0  0  0  0  0
  140.7190   79.4140  223.8440 C   0  0  0  0  0  0  0  0  0  0  0  0
  139.9940   78.6220  222.9350 C   0  0  0  0  0  0  0  0  0  0  0  0
  140.5870   78.3360  221.7030 C   0  0  0  0  0  0  0  0  0  0  0  0
  140.4867   73.4914  219.5703 H   0  0  0  0  0  0  0  0  0  0  0  0
  141.0055   75.2223  219.3901 H   0  0  0  0  0  0  0  0  0  0  0  0
  142.0086   71.8346  220.5660 H   0  0  0  0  0  0  0  0  0  0  0  0
  144.3905   71.1922  220.9376 H   0  0  0  0  0  0  0  0  0  0  0  0
  146.1874   72.9192  220.8136 H   0  0  0  0  0  0  0  0  0  0  0  0
  145.6057   75.2934  220.3104 H   0  0  0  0  0  0  0  0  0  0  0  0
  143.2262   75.9476  219.9368 H   0  0  0  0  0  0  0  0  0  0  0  0
  137.2363   75.1415  222.7342 H   0  0  0  0  0  0  0  0  0  0  0  0
  138.6144   76.0228  223.3867 H   0  0  0  0  0  0  0  0  0  0  0  0
  135.9132   77.4229  223.8869 H   0  0  0  0  0  0  0  0  0  0  0  0
  134.9804   79.5929  223.0211 H   0  0  0  0  0  0  0  0  0  0  0  0
  135.8329   80.5538  220.8696 H   0  0  0  0  0  0  0  0  0  0  0  0
  137.6286   79.3531  219.5818 H   0  0  0  0  0  0  0  0  0  0  0  0
  138.7395   76.6407  219.4098 H   0  0  0  0  0  0  0  0  0  0  0  0
  141.1400   77.1909  218.6861 H   0  0  0  0  0  0  0  0  0  0  0  0
  143.0880   78.6240  219.6500 H   0  0  0  0  0  0  0  0  0  0  0  0
  143.5717   79.9669  221.9863 H   0  0  0  0  0  0  0  0  0  0  0  0
  142.5581   80.5182  224.2273 H   0  0  0  0  0  0  0  0  0  0  0  0
  140.2831   79.6574  224.8242 H   0  0  0  0  0  0  0  0  0  0  0  0
  138.9933   78.2406  223.1861 H   0  0  0  0  0  0  0  0  0  0  0  0
  1  2  2  0
  2  3  2  0
  2  4  1  0
  4  5  1  0
  5  6  2  0
  6  7  1  0
  7  8  2  0
  8  9  1  0
  9 10  2  0
  2 11  1  0
 11 12  1  0
 12 13  1  0
 13 14  2  0
 14 15  1  0
 15 16  2  0
 16 17  1  0
 17 18  2  0
 18 19  1  0
 19 20  1  0
 20 21  2  0
 21 22  1  0
 22 23  1  0
 23 24  2  0
 24 25  1  0
 25 26  2  0
 26 27  1  0
 27 28  2  0
 10  5  1  0
 19 11  1  0
 28 20  1  0
 18 13  1  0
 28 23  1  0
  4 29  1  0
  4 30  1  0
  6 31  1  0
  7 32  1  0
  8 33  1  0
  9 34  1  0
 10 35  1  0
 12 36  1  0
 12 37  1  0
 14 38  1  0
 15 39  1  0
 16 40  1  0
 17 41  1  0
 19 42  1  6
 21 43  1  0
 22 44  1  0
 24 45  1  0
 25 46  1  0
 26 47  1  0
 27 48  1  0
M  END
>  <meeko>  (13) 
{"free_energy": -7.28, "intermolecular_energy": -8.47, "internal_energy": -1.97, "cluster_size": 10, "cluster_id": 1, "rank_in_cluster": 1}

$$$$

     RDKit          3D

 48 52  0  0  0  0  0  0  0  0999 V2000
  142.5710   80.4610  221.5280 O   0  0  0  0  0  0  0  0  0  0  0  0
  141.3540   81.0660  220.8840 S   0  0  0  0  0  0  0  0  0  0  0  0
  141.7850   82.2010  219.9980 O   0  0  0  0  0  0  0  0  0  0  0  0
  140.5610   79.8490  219.8390 C   0  0  0  0  0  0  0  0  0  0  0  0
  141.5310   78.8140  219.3400 C   0  0  0  0  0  0  0  0  0  0  0  0
  142.0630   78.9050  218.0410 C   0  0  0  0  0  0  0  0  0  0  0  0
  142.9540   77.9330  217.5760 C   0  0  0  0  0  0  0  0  0  0  0  0
  143.3270   76.8710  218.4030 C   0  0  0  0  0  0  0  0  0  0  0  0
  142.8130   76.7800  219.6980 C   0  0  0  0  0  0  0  0  0  0  0  0
  141.9210   77.7480  220.1690 C   0  0  0  0  0  0  0  0  0  0  0  0
  140.2420   81.6660  222.1010 N   0  0  0  0  0  0  0  0  0  0  0  0
  138.8770   81.9010  221.5890 C   0  0  0  0  0  0  0  0  0  0  0  0
  137.9960   81.6380  222.7480 C   0  0  0  0  0  0  0  0  0  0  0  0
  136.6280   81.8870  222.8660 C   0  0  0  0  0  0  0  0  0  0  0  0
  135.9880   81.5430  224.0680 C   0  0  0  0  0  0  0  0  0  0  0  0
  136.7210   80.9570  225.1190 C   0  0  0  0  0  0  0  0  0  0  0  0
  138.0950   80.7110  224.9680 C   0  0  0  0  0  0  0  0  0  0  0  0
  138.7080   81.0700  223.7650 C   0  0  0  0  0  0  0  0  0  0  0  0
  140.1160   80.8600  223.3470 C   0  0  1  0  0  0  0  0  0  0  0  0
  140.3630   79.3750  223.1690 C   0  0  0  0  0  0  0  0  0  0  0  0
  141.5390   78.6760  223.4530 C   0  0  0  0  0  0  0  0  0  0  0  0
  141.3930   77.3640  223.1620 N   0  0  0  0  0  0  0  0  0  0  0  0
  140.1410   77.2240  222.6950 C   0  0  0  0  0  0  0  0  0  0  0  0
  139.5290   76.0470  222.2650 C   0  0  0  0  0  0  0  0  0  0  0  0
  138.2000   76.1240  221.8120 C   0  0  0  0  0  0  0  0  0  0  0  0
  137.5200   77.3620  221.7970 C   0  0  0  0  0  0  0  0  0  0  0  0
  138.1620   78.5340  222.2360 C   0  0  0  0  0  0  0  0  0  0  0  0
  139.4820   78.4280  222.6800 C   0  0  0  0  0  0  0  0  0  0  0  0
  139.7715   79.3460  220.4166 H   0  0  0  0  0  0  0  0  0  0  0  0
  140.1446   80.3722  218.9655 H   0  0  0  0  0  0  0  0  0  0  0  0
  141.7771   79.7435  217.3890 H   0  0  0  0  0  0  0  0  0  0  0  0
  143.3620   78.0048  216.5570 H   0  0  0  0  0  0  0  0  0  0  0  0
  144.0260   76.1060  218.0339 H   0  0  0  0  0  0  0  0  0  0  0  0
  143.1106   75.9448  220.3491 H   0  0  0  0  0  0  0  0  0  0  0  0
  141.5230   77.6752  221.1919 H   0  0  0  0  0  0  0  0  0  0  0  0
  138.7649   82.9392  221.2431 H   0  0  0  0  0  0  0  0  0  0  0  0
  138.6374   81.2602  220.7277 H   0  0  0  0  0  0  0  0  0  0  0  0
  136.0646   82.3416  222.0378 H   0  0  0  0  0  0  0  0  0  0  0  0
  134.9111   81.7317  224.1892 H   0  0  0  0  0  0  0  0  0  0  0  0
  136.2158   80.6918  226.0595 H   0  0  0  0  0  0  0  0  0  0  0  0
  138.6756   80.2462  225.7784 H   0  0  0  0  0  0  0  0  0  0  0  0
  140.8755   81.1815  224.0749 H   0  0  0  0  0  0  0  0  0  0  0  0
  142.4558   79.1300  223.8571 H   0  0  0  0  0  0  0  0  0  0  0  0
  142.1110   76.6150  223.2800 H   0  0  0  0  0  0  0  0  0  0  0  0
  140.0688   75.0887  222.2797 H   0  0  0  0  0  0  0  0  0  0  0  0
  137.6866   75.2143  221.4671 H   0  0  0  0  0  0  0  0  0  0  0  0
  136.4809   77.4099  221.4394 H   0  0  0  0  0  0  0  0  0  0  0  0
  137.6412   79.5029  222.2298 H   0  0  0  0  0  0  0  0  0  0  0  0
  1  2  2  0
  2  3  2  0
  2  4  1  0
  4  5  1  0
  5  6  2  0
  6  7  1  0
  7  8  2  0
  8  9  1  0
  9 10  2  0
  2 11  1  0
 11 12  1  0
 12 13  1  0
 13 14  2  0
 14 15  1  0
 15 16  2  0
 16 17  1  0
 17 18  2  0
 18 19  1  0
 19 20  1  0
 20 21  2  0
 21 22  1  0
 22 23  1  0
 23 24  2  0
 24 25  1  0
 25 26  2  0
 26 27  1  0
 27 28  2  0
 10  5  1  0
 19 11  1  0
 28 20  1  0
 18 13  1  0
 28 23  1  0
  4 29  1  0
  4 30  1  0
  6 31  1  0
  7 32  1  0
  8 33  1  0
  9 34  1  0
 10 35  1  0
 12 36  1  0
 12 37  1  0
 14 38  1  0
 15 39  1  0
 16 40  1  0
 17 41  1  0
 19 42  1  1
 21 43  1  0
 22 44  1  0
 24 45  1  0
 25 46  1  0
 26 47  1  0
 27 48  1  0
M  END
>  <meeko>  (14) 
{"free_energy": -6.8, "intermolecular_energy": -7.99, "internal_energy": -2.24, "cluster_size": 2, "cluster_id": 3, "rank_in_cluster": 2}

$$$$

     RDKit          3D

 48 52  0  0  0  0  0  0  0  0999 V2000
  139.9810   73.4830  222.3720 O   0  0  0  0  0  0  0  0  0  0  0  0
  140.2290   74.7380  221.5800 S   0  0  0  0  0  0  0  0  0  0  0  0
  141.1670   75.6230  222.3510 O   0  0  0  0  0  0  0  0  0  0  0  0
  141.0370   74.3230  220.0380 C   0  0  0  0  0  0  0  0  0  0  0  0
  142.4750   73.9330  220.2410 C   0  0  0  0  0  0  0  0  0  0  0  0
  143.4940   74.8980  220.1550 C   0  0  0  0  0  0  0  0  0  0  0  0
  144.8310   74.5280  220.3310 C   0  0  0  0  0  0  0  0  0  0  0  0
  145.1610   73.1980  220.6010 C   0  0  0  0  0  0  0  0  0  0  0  0
  144.1540   72.2350  220.7000 C   0  0  0  0  0  0  0  0  0  0  0  0
  142.8160   72.5990  220.5250 C   0  0  0  0  0  0  0  0  0  0  0  0
  138.7260   75.5940  221.2880 N   0  0  0  0  0  0  0  0  0  0  0  0
  137.9750   75.9070  222.5210 C   0  0  0  0  0  0  0  0  0  0  0  0
  137.2690   77.1700  222.2140 C   0  0  0  0  0  0  0  0  0  0  0  0
  136.2810   77.8110  222.9630 C   0  0  0  0  0  0  0  0  0  0  0  0
  135.7540   79.0200  222.4790 C   0  0  0  0  0  0  0  0  0  0  0  0
  136.2260   79.5640  221.2680 C   0  0  0  0  0  0  0  0  0  0  0  0
  137.2270   78.9020  220.5400 C   0  0  0  0  0  0  0  0  0  0  0  0
  137.7280   77.6970  221.0400 C   0  0  0  0  0  0  0  0  0  0  0  0
  138.8160   76.8500  220.4930 C   0  0  1  0  0  0  0  0  0  0  0  0
  140.1320   77.5910  220.6240 C   0  0  0  0  0  0  0  0  0  0  0  0
  141.1550   77.6670  219.6750 C   0  0  0  0  0  0  0  0  0  0  0  0
  142.1820   78.4110  220.1430 N   0  0  0  0  0  0  0  0  0  0  0  0
  141.8250   78.8040  221.3780 C   0  0  0  0  0  0  0  0  0  0  0  0
  142.5630   79.5930  222.2580 C   0  0  0  0  0  0  0  0  0  0  0  0
  141.9960   79.8890  223.5100 C   0  0  0  0  0  0  0  0  0  0  0  0
  140.7190   79.3940  223.8520 C   0  0  0  0  0  0  0  0  0  0  0  0
  139.9950   78.5990  222.9450 C   0  0  0  0  0  0  0  0  0  0  0  0
  140.5830   78.3210  221.7080 C   0  0  0  0  0  0  0  0  0  0  0  0
  140.5032   73.4810  219.5730 H   0  0  0  0  0  0  0  0  0  0  0  0
  141.0150   75.2139  219.3931 H   0  0  0  0  0  0  0  0  0  0  0  0
  143.2385   75.9478  219.9485 H   0  0  0  0  0  0  0  0  0  0  0  0
  145.6246   75.2861  220.2566 H   0  0  0  0  0  0  0  0  0  0  0  0
  146.2137   72.9089  220.7357 H   0  0  0  0  0  0  0  0  0  0  0  0
  144.4145   71.1884  220.9161 H   0  0  0  0  0  0  0  0  0  0  0  0
  142.0261   71.8382  220.6099 H   0  0  0  0  0  0  0  0  0  0  0  0
  137.2569   75.1066  222.7527 H   0  0  0  0  0  0  0  0  0  0  0  0
  138.6314   75.9975  223.3990 H   0  0  0  0  0  0  0  0  0  0  0  0
  135.9235   77.3798  223.9097 H   0  0  0  0  0  0  0  0  0  0  0  0
  134.9707   79.5433  223.0470 H   0  0  0  0  0  0  0  0  0  0  0  0
  135.8090   80.5099  220.8921 H   0  0  0  0  0  0  0  0  0  0  0  0
  137.6084   79.3220  219.5976 H   0  0  0  0  0  0  0  0  0  0  0  0
  138.7356   76.6155  219.4213 H   0  0  0  0  0  0  0  0  0  0  0  0
  141.1283   77.1881  218.6851 H   0  0  0  0  0  0  0  0  0  0  0  0
  143.0710   78.6330  219.6430 H   0  0  0  0  0  0  0  0  0  0  0  0
  143.5579   79.9723  221.9818 H   0  0  0  0  0  0  0  0  0  0  0  0
  142.5512   80.5105  224.2279 H   0  0  0  0  0  0  0  0  0  0  0  0
  140.2868   79.6317  224.8352 H   0  0  0  0  0  0  0  0  0  0  0  0
  138.9988   78.2090  223.2010 H   0  0  0  0  0  0  0  0  0  0  0  0
  1  2  2  0
  2  3  2  0
  2  4  1  0
  4  5  1  0
  5  6  2  0
  6  7  1  0
  7  8  2  0
  8  9  1  0
  9 10  2  0
  2 11  1  0
 11 12  1  0
 12 13  1  0
 13 14  2  0
 14 15  1  0
 15 16  2  0
 16 17  1  0
 17 18  2  0
 18 19  1  0
 19 20  1  0
 20 21  2  0
 21 22  1  0
 22 23  1  0
 23 24  2  0
 24 25  1  0
 25 26  2  0
 26 27  1  0
 27 28  2  0
 10  5  1  0
 19 11  1  0
 28 20  1  0
 18 13  1  0
 28 23  1  0
  4 29  1  0
  4 30  1  0
  6 31  1  0
  7 32  1  0
  8 33  1  0
  9 34  1  0
 10 35  1  0
 12 36  1  0
 12 37  1  0
 14 38  1  0
 15 39  1  0
 16 40  1  0
 17 41  1  0
 19 42  1  6
 21 43  1  0
 22 44  1  0
 24 45  1  0
 25 46  1  0
 26 47  1  0
 27 48  1  0
M  END
>  <meeko>  (15) 
{"free_energy": -7.27, "intermolecular_energy": -8.46, "internal_energy": -1.97, "cluster_size": 10, "cluster_id": 1, "rank_in_cluster": 9}

$$$$

     RDKit          3D

 48 52  0  0  0  0  0  0  0  0999 V2000
  140.6070   77.7130  217.5980 O   0  0  0  0  0  0  0  0  0  0  0  0
  140.2770   77.3980  219.0310 S   0  0  0  0  0  0  0  0  0  0  0  0
  138.8800   77.8670  219.3240 O   0  0  0  0  0  0  0  0  0  0  0  0
  140.3040   75.6250  219.2760 C   0  0  0  0  0  0  0  0  0  0  0  0
  141.6610   75.1320  219.6940 C   0  0  0  0  0  0  0  0  0  0  0  0
  141.7890   73.9510  220.4480 C   0  0  0  0  0  0  0  0  0  0  0  0
  143.0520   73.5030  220.8460 C   0  0  0  0  0  0  0  0  0  0  0  0
  144.1950   74.2230  220.4900 C   0  0  0  0  0  0  0  0  0  0  0  0
  144.0790   75.3890  219.7310 C   0  0  0  0  0  0  0  0  0  0  0  0
  142.8180   75.8420  219.3300 C   0  0  0  0  0  0  0  0  0  0  0  0
  141.4010   78.1960  220.1160 N   0  0  0  0  0  0  0  0  0  0  0  0
  141.2420   79.6630  220.1550 C   0  0  0  0  0  0  0  0  0  0  0  0
  141.6310   80.0420  221.5310 C   0  0  0  0  0  0  0  0  0  0  0  0
  141.8370   81.3210  222.0490 C   0  0  0  0  0  0  0  0  0  0  0  0
  142.1950   81.4440  223.4020 C   0  0  0  0  0  0  0  0  0  0  0  0
  142.3330   80.2960  224.2060 C   0  0  0  0  0  0  0  0  0  0  0  0
  142.1120   79.0220  223.6590 C   0  0  0  0  0  0  0  0  0  0  0  0
  141.7650   78.9270  222.3090 C   0  0  0  0  0  0  0  0  0  0  0  0
  141.4250   77.7140  221.5250 C   0  0  1  0  0  0  0  0  0  0  0  0
  140.1090   77.1540  222.0260 C   0  0  0  0  0  0  0  0  0  0  0  0
  139.8160   75.8180  222.3110 C   0  0  0  0  0  0  0  0  0  0  0  0
  138.5370   75.6920  222.7320 N   0  0  0  0  0  0  0  0  0  0  0  0
  138.0160   76.9310  222.7140 C   0  0  0  0  0  0  0  0  0  0  0  0
  136.7210   77.3050  223.0670 C   0  0  0  0  0  0  0  0  0  0  0  0
  136.3810   78.6670  222.9750 C   0  0  0  0  0  0  0  0  0  0  0  0
  137.3320   79.6130  222.5370 C   0  0  0  0  0  0  0  0  0  0  0  0
  138.6330   79.2080  222.1860 C   0  0  0  0  0  0  0  0  0  0  0  0
  138.9420   77.8490  222.2870 C   0  0  0  0  0  0  0  0  0  0  0  0
  139.5756   75.3639  220.0578 H   0  0  0  0  0  0  0  0  0  0  0  0
  140.0505   75.1471  218.3182 H   0  0  0  0  0  0  0  0  0  0  0  0
  140.8919   73.3780  220.7253 H   0  0  0  0  0  0  0  0  0  0  0  0
  143.1459   72.5822  221.4404 H   0  0  0  0  0  0  0  0  0  0  0  0
  145.1874   73.8709  220.8080 H   0  0  0  0  0  0  0  0  0  0  0  0
  144.9805   75.9522  219.4480 H   0  0  0  0  0  0  0  0  0  0  0  0
  142.7314   76.7580  218.7271 H   0  0  0  0  0  0  0  0  0  0  0  0
  141.9011   80.1451  219.4180 H   0  0  0  0  0  0  0  0  0  0  0  0
  140.2177   79.9791  219.9081 H   0  0  0  0  0  0  0  0  0  0  0  0
  141.7219   82.2115  221.4135 H   0  0  0  0  0  0  0  0  0  0  0  0
  142.3681   82.4404  223.8348 H   0  0  0  0  0  0  0  0  0  0  0  0
  142.6144   80.3977  225.2645 H   0  0  0  0  0  0  0  0  0  0  0  0
  142.2099   78.1189  224.2794 H   0  0  0  0  0  0  0  0  0  0  0  0
  142.1345   76.8787  221.6192 H   0  0  0  0  0  0  0  0  0  0  0  0
  140.5266   74.9847  222.2074 H   0  0  0  0  0  0  0  0  0  0  0  0
  138.0570   74.8090  223.0140 H   0  0  0  0  0  0  0  0  0  0  0  0
  135.9877   76.5589  223.4069 H   0  0  0  0  0  0  0  0  0  0  0  0
  135.3672   78.9967  223.2463 H   0  0  0  0  0  0  0  0  0  0  0  0
  137.0541   80.6752  222.4694 H   0  0  0  0  0  0  0  0  0  0  0  0
  139.3820   79.9371  221.8434 H   0  0  0  0  0  0  0  0  0  0  0  0
  1  2  2  0
  2  3  2  0
  2  4  1  0
  4  5  1  0
  5  6  2  0
  6  7  1  0
  7  8  2  0
  8  9  1  0
  9 10  2  0
  2 11  1  0
 11 12  1  0
 12 13  1  0
 13 14  2  0
 14 15  1  0
 15 16  2  0
 16 17  1  0
 17 18  2  0
 18 19  1  0
 19 20  1  0
 20 21  2  0
 21 22  1  0
 22 23  1  0
 23 24  2  0
 24 25  1  0
 25 26  2  0
 26 27  1  0
 27 28  2  0
 10  5  1  0
 19 11  1  0
 28 20  1  0
 18 13  1  0
 28 23  1  0
  4 29  1  0
  4 30  1  0
  6 31  1  0
  7 32  1  0
  8 33  1  0
  9 34  1  0
 10 35  1  0
 12 36  1  0
 12 37  1  0
 14 38  1  0
 15 39  1  0
 16 40  1  0
 17 41  1  0
 19 42  1  6
 21 43  1  0
 22 44  1  0
 24 45  1  0
 25 46  1  0
 26 47  1  0
 27 48  1  0
M  END
>  <meeko>  (16) 
{"free_energy": -7.0, "intermolecular_energy": -8.19, "internal_energy": -2.06, "cluster_size": 7, "cluster_id": 2, "rank_in_cluster": 2}

$$$$

     RDKit          3D

 48 52  0  0  0  0  0  0  0  0999 V2000
  141.1340   76.9850  217.7980 O   0  0  0  0  0  0  0  0  0  0  0  0
  140.6500   76.8010  219.2100 S   0  0  0  0  0  0  0  0  0  0  0  0
  139.2250   77.2700  219.3010 O   0  0  0  0  0  0  0  0  0  0  0  0
  140.6630   75.0600  219.6260 C   0  0  0  0  0  0  0  0  0  0  0  0
  142.0440   74.5700  219.9660 C   0  0  0  0  0  0  0  0  0  0  0  0
  142.2310   73.2800  220.4930 C   0  0  0  0  0  0  0  0  0  0  0  0
  143.5160   72.8330  220.8210 C   0  0  0  0  0  0  0  0  0  0  0  0
  144.6200   73.6640  220.6180 C   0  0  0  0  0  0  0  0  0  0  0  0
  144.4440   74.9430  220.0840 C   0  0  0  0  0  0  0  0  0  0  0  0
  143.1620   75.3950  219.7550 C   0  0  0  0  0  0  0  0  0  0  0  0
  141.6400   77.7190  220.3300 N   0  0  0  0  0  0  0  0  0  0  0  0
  141.5360   79.1810  220.1470 C   0  0  0  0  0  0  0  0  0  0  0  0
  141.7410   79.7390  221.5020 C   0  0  0  0  0  0  0  0  0  0  0  0
  141.9230   81.0730  221.8670 C   0  0  0  0  0  0  0  0  0  0  0  0
  142.0900   81.3760  223.2290 C   0  0  0  0  0  0  0  0  0  0  0  0
  142.0670   80.3480  224.1910 C   0  0  0  0  0  0  0  0  0  0  0  0
  141.8750   79.0150  223.7950 C   0  0  0  0  0  0  0  0  0  0  0  0
  141.7180   78.7410  222.4340 C   0  0  0  0  0  0  0  0  0  0  0  0
  141.4450   77.4380  221.7790 C   0  0  1  0  0  0  0  0  0  0  0  0
  140.0500   76.9790  222.1540 C   0  0  0  0  0  0  0  0  0  0  0  0
  139.6310   75.6690  222.4010 C   0  0  0  0  0  0  0  0  0  0  0  0
  138.3130   75.6420  222.7020 N   0  0  0  0  0  0  0  0  0  0  0  0
  137.8920   76.9160  222.6460 C   0  0  0  0  0  0  0  0  0  0  0  0
  136.6020   77.3880  222.8830 C   0  0  0  0  0  0  0  0  0  0  0  0
  136.3770   78.7720  222.7720 C   0  0  0  0  0  0  0  0  0  0  0  0
  137.4340   79.6430  222.4290 C   0  0  0  0  0  0  0  0  0  0  0  0
  138.7260   79.1400  222.1950 C   0  0  0  0  0  0  0  0  0  0  0  0
  138.9210   77.7620  222.3120 C   0  0  0  0  0  0  0  0  0  0  0  0
  140.0055   74.8975  220.4928 H   0  0  0  0  0  0  0  0  0  0  0  0
  140.3111   74.4991  218.7476 H   0  0  0  0  0  0  0  0  0  0  0  0
  141.3647   72.6201  220.6480 H   0  0  0  0  0  0  0  0  0  0  0  0
  143.6567   71.8255  221.2394 H   0  0  0  0  0  0  0  0  0  0  0  0
  145.6288   73.3113  220.8787 H   0  0  0  0  0  0  0  0  0  0  0  0
  145.3148   75.5953  219.9221 H   0  0  0  0  0  0  0  0  0  0  0  0
  143.0282   76.4004  219.3293 H   0  0  0  0  0  0  0  0  0  0  0  0
  142.3118   79.5426  219.4560 H   0  0  0  0  0  0  0  0  0  0  0  0
  140.5709   79.4808  219.7126 H   0  0  0  0  0  0  0  0  0  0  0  0
  141.9355   81.8683  221.1072 H   0  0  0  0  0  0  0  0  0  0  0  0
  142.2391   82.4192  223.5445 H   0  0  0  0  0  0  0  0  0  0  0  0
  142.1999   80.5901  225.2558 H   0  0  0  0  0  0  0  0  0  0  0  0
  141.8488   78.2051  224.5389 H   0  0  0  0  0  0  0  0  0  0  0  0
  142.1008   76.6103  222.0870 H   0  0  0  0  0  0  0  0  0  0  0  0
  140.2822   74.7836  222.3568 H   0  0  0  0  0  0  0  0  0  0  0  0
  137.7430   74.7970  222.9330 H   0  0  0  0  0  0  0  0  0  0  0  0
  135.7859   76.6999  223.1484 H   0  0  0  0  0  0  0  0  0  0  0  0
  135.3711   79.1784  222.9536 H   0  0  0  0  0  0  0  0  0  0  0  0
  137.2453   80.7234  222.3442 H   0  0  0  0  0  0  0  0  0  0  0  0
  139.5565   79.8103  221.9284 H   0  0  0  0  0  0  0  0  0  0  0  0
  1  2  2  0
  2  3  2  0
  2  4  1  0
  4  5  1  0
  5  6  2  0
  6  7  1  0
  7  8  2  0
  8  9  1  0
  9 10  2  0
  2 11  1  0
 11 12  1  0
 12 13  1  0
 13 14  2  0
 14 15  1  0
 15 16  2  0
 16 17  1  0
 17 18  2  0
 18 19  1  0
 19 20  1  0
 20 21  2  0
 21 22  1  0
 22 23  1  0
 23 24  2  0
 24 25  1  0
 25 26  2  0
 26 27  1  0
 27 28  2  0
 10  5  1  0
 19 11  1  0
 28 20  1  0
 18 13  1  0
 28 23  1  0
  4 29  1  0
  4 30  1  0
  6 31  1  0
  7 32  1  0
  8 33  1  0
  9 34  1  0
 10 35  1  0
 12 36  1  0
 12 37  1  0
 14 38  1  0
 15 39  1  0
 16 40  1  0
 17 41  1  0
 19 42  1  1
 21 43  1  0
 22 44  1  0
 24 45  1  0
 25 46  1  0
 26 47  1  0
 27 48  1  0
M  END
>  <meeko>  (17) 
{"free_energy": -7.07, "intermolecular_energy": -8.26, "internal_energy": -1.91, "cluster_size": 7, "cluster_id": 2, "rank_in_cluster": 1}

$$$$

     RDKit          3D

 48 52  0  0  0  0  0  0  0  0999 V2000
  139.9830   73.4910  222.3820 O   0  0  0  0  0  0  0  0  0  0  0  0
  140.2330   74.7420  221.5840 S   0  0  0  0  0  0  0  0  0  0  0  0
  141.1750   75.6280  222.3490 O   0  0  0  0  0  0  0  0  0  0  0  0
  141.0370   74.3180  220.0430 C   0  0  0  0  0  0  0  0  0  0  0  0
  142.4780   73.9330  220.2430 C   0  0  0  0  0  0  0  0  0  0  0  0
  142.8270   72.5960  220.5040 C   0  0  0  0  0  0  0  0  0  0  0  0
  144.1660   72.2450  220.7030 C   0  0  0  0  0  0  0  0  0  0  0  0
  145.1640   73.2200  220.6350 C   0  0  0  0  0  0  0  0  0  0  0  0
  144.8270   74.5470  220.3640 C   0  0  0  0  0  0  0  0  0  0  0  0
  143.4900   74.9050  220.1640 C   0  0  0  0  0  0  0  0  0  0  0  0
  138.7320   75.6010  221.2910 N   0  0  0  0  0  0  0  0  0  0  0  0
  137.9830   75.9180  222.5230 C   0  0  0  0  0  0  0  0  0  0  0  0
  137.2800   77.1830  222.2150 C   0  0  0  0  0  0  0  0  0  0  0  0
  136.2940   77.8270  222.9620 C   0  0  0  0  0  0  0  0  0  0  0  0
  135.7700   79.0360  222.4760 C   0  0  0  0  0  0  0  0  0  0  0  0
  136.2420   79.5770  221.2640 C   0  0  0  0  0  0  0  0  0  0  0  0
  137.2410   78.9110  220.5370 C   0  0  0  0  0  0  0  0  0  0  0  0
  137.7390   77.7060  221.0390 C   0  0  0  0  0  0  0  0  0  0  0  0
  138.8250   76.8550  220.4930 C   0  0  1  0  0  0  0  0  0  0  0  0
  140.1440   77.5930  220.6220 C   0  0  0  0  0  0  0  0  0  0  0  0
  141.1640   77.6690  219.6710 C   0  0  0  0  0  0  0  0  0  0  0  0
  142.1940   78.4100  220.1380 N   0  0  0  0  0  0  0  0  0  0  0  0
  141.8400   78.8010  221.3740 C   0  0  0  0  0  0  0  0  0  0  0  0
  142.5830   79.5870  222.2530 C   0  0  0  0  0  0  0  0  0  0  0  0
  142.0200   79.8820  223.5070 C   0  0  0  0  0  0  0  0  0  0  0  0
  140.7420   79.3900  223.8520 C   0  0  0  0  0  0  0  0  0  0  0  0
  140.0140   78.5980  222.9450 C   0  0  0  0  0  0  0  0  0  0  0  0
  140.5980   78.3210  221.7070 C   0  0  0  0  0  0  0  0  0  0  0  0
  140.5038   73.4712  219.5861 H   0  0  0  0  0  0  0  0  0  0  0  0
  141.0106   75.2045  219.3923 H   0  0  0  0  0  0  0  0  0  0  0  0
  142.0447   71.8242  220.5518 H   0  0  0  0  0  0  0  0  0  0  0  0
  144.4338   71.1991  220.9135 H   0  0  0  0  0  0  0  0  0  0  0  0
  146.2161   72.9418  220.7951 H   0  0  0  0  0  0  0  0  0  0  0  0
  145.6146   75.3128  220.3076 H   0  0  0  0  0  0  0  0  0  0  0  0
  143.2296   75.9509  219.9441 H   0  0  0  0  0  0  0  0  0  0  0  0
  137.2628   75.1199  222.7562 H   0  0  0  0  0  0  0  0  0  0  0  0
  138.6404   76.0081  223.4003 H   0  0  0  0  0  0  0  0  0  0  0  0
  135.9352   77.3982  223.9093 H   0  0  0  0  0  0  0  0  0  0  0  0
  134.9884   79.5622  223.0436 H   0  0  0  0  0  0  0  0  0  0  0  0
  135.8269   80.5232  220.8866 H   0  0  0  0  0  0  0  0  0  0  0  0
  137.6231   79.3282  219.5936 H   0  0  0  0  0  0  0  0  0  0  0  0
  138.7435   76.6188  219.4217 H   0  0  0  0  0  0  0  0  0  0  0  0
  141.1336   77.1924  218.6801 H   0  0  0  0  0  0  0  0  0  0  0  0
  143.0820   78.6310  219.6350 H   0  0  0  0  0  0  0  0  0  0  0  0
  143.5780   79.9644  221.9745 H   0  0  0  0  0  0  0  0  0  0  0  0
  142.5790   80.5005  224.2246 H   0  0  0  0  0  0  0  0  0  0  0  0
  140.3127   79.6276  224.8365 H   0  0  0  0  0  0  0  0  0  0  0  0
  139.0176   78.2097  223.2026 H   0  0  0  0  0  0  0  0  0  0  0  0
  1  2  2  0
  2  3  2  0
  2  4  1  0
  4  5  1  0
  5  6  2  0
  6  7  1  0
  7  8  2  0
  8  9  1  0
  9 10  2  0
  2 11  1  0
 11 12  1  0
 12 13  1  0
 13 14  2  0
 14 15  1  0
 15 16  2  0
 16 17  1  0
 17 18  2  0
 18 19  1  0
 19 20  1  0
 20 21  2  0
 21 22  1  0
 22 23  1  0
 23 24  2  0
 24 25  1  0
 25 26  2  0
 26 27  1  0
 27 28  2  0
 10  5  1  0
 19 11  1  0
 28 20  1  0
 18 13  1  0
 28 23  1  0
  4 29  1  0
  4 30  1  0
  6 31  1  0
  7 32  1  0
  8 33  1  0
  9 34  1  0
 10 35  1  0
 12 36  1  0
 12 37  1  0
 14 38  1  0
 15 39  1  0
 16 40  1  0
 17 41  1  0
 19 42  1  6
 21 43  1  0
 22 44  1  0
 24 45  1  0
 25 46  1  0
 26 47  1  0
 27 48  1  0
M  END
>  <meeko>  (18) 
{"free_energy": -7.27, "intermolecular_energy": -8.46, "internal_energy": -1.97, "cluster_size": 10, "cluster_id": 1, "rank_in_cluster": 7}

$$$$

     RDKit          3D

 48 52  0  0  0  0  0  0  0  0999 V2000
  140.6670   77.6180  217.6170 O   0  0  0  0  0  0  0  0  0  0  0  0
  140.3040   77.3390  219.0500 S   0  0  0  0  0  0  0  0  0  0  0  0
  138.9100   77.8360  219.3050 O   0  0  0  0  0  0  0  0  0  0  0  0
  140.2990   75.5720  219.3340 C   0  0  0  0  0  0  0  0  0  0  0  0
  141.6570   75.0570  219.7240 C   0  0  0  0  0  0  0  0  0  0  0  0
  141.7820   73.8570  220.4460 C   0  0  0  0  0  0  0  0  0  0  0  0
  143.0460   73.3880  220.8190 C   0  0  0  0  0  0  0  0  0  0  0  0
  144.1910   74.1070  220.4680 C   0  0  0  0  0  0  0  0  0  0  0  0
  144.0760   75.2930  219.7400 C   0  0  0  0  0  0  0  0  0  0  0  0
  142.8150   75.7670  219.3650 C   0  0  0  0  0  0  0  0  0  0  0  0
  141.4190   78.1440  220.1400 N   0  0  0  0  0  0  0  0  0  0  0  0
  141.2740   79.6130  220.1540 C   0  0  0  0  0  0  0  0  0  0  0  0
  141.6460   80.0090  221.5300 C   0  0  0  0  0  0  0  0  0  0  0  0
  141.8550   81.2940  222.0320 C   0  0  0  0  0  0  0  0  0  0  0  0
  142.1940   81.4340  223.3870 C   0  0  0  0  0  0  0  0  0  0  0  0
  142.3110   80.2970  224.2100 C   0  0  0  0  0  0  0  0  0  0  0  0
  142.0860   79.0170  223.6800 C   0  0  0  0  0  0  0  0  0  0  0  0
  141.7580   78.9050  222.3270 C   0  0  0  0  0  0  0  0  0  0  0  0
  141.4190   77.6840  221.5560 C   0  0  1  0  0  0  0  0  0  0  0  0
  140.0900   77.1420  222.0460 C   0  0  0  0  0  0  0  0  0  0  0  0
  139.7770   75.8120  222.3350 C   0  0  0  0  0  0  0  0  0  0  0  0
  138.4930   75.7040  222.7430 N   0  0  0  0  0  0  0  0  0  0  0  0
  137.9880   76.9490  222.7130 C   0  0  0  0  0  0  0  0  0  0  0  0
  136.6930   77.3410  223.0500 C   0  0  0  0  0  0  0  0  0  0  0  0
  136.3720   78.7070  222.9480 C   0  0  0  0  0  0  0  0  0  0  0  0
  137.3400   79.6390  222.5140 C   0  0  0  0  0  0  0  0  0  0  0  0
  138.6390   79.2150  222.1790 C   0  0  0  0  0  0  0  0  0  0  0  0
  138.9300   77.8540  222.2900 C   0  0  0  0  0  0  0  0  0  0  0  0
  139.5882   75.3448  220.1421 H   0  0  0  0  0  0  0  0  0  0  0  0
  140.0071   75.0792  218.3949 H   0  0  0  0  0  0  0  0  0  0  0  0
  140.8828   73.2850  220.7185 H   0  0  0  0  0  0  0  0  0  0  0  0
  143.1384   72.4520  221.3893 H   0  0  0  0  0  0  0  0  0  0  0  0
  145.1839   73.7387  220.7653 H   0  0  0  0  0  0  0  0  0  0  0  0
  144.9792   75.8555  219.4609 H   0  0  0  0  0  0  0  0  0  0  0  0
  142.7294   76.6990  218.7870 H   0  0  0  0  0  0  0  0  0  0  0  0
  141.9489   80.0773  219.4199 H   0  0  0  0  0  0  0  0  0  0  0  0
  140.2569   79.9354  219.8866 H   0  0  0  0  0  0  0  0  0  0  0  0
  141.7565   82.1758  221.3818 H   0  0  0  0  0  0  0  0  0  0  0  0
  142.3689   82.4353  223.8075 H   0  0  0  0  0  0  0  0  0  0  0  0
  142.5793   80.4124  225.2705 H   0  0  0  0  0  0  0  0  0  0  0  0
  142.1661   78.1227  224.3155 H   0  0  0  0  0  0  0  0  0  0  0  0
  142.1206   76.8449  221.6732 H   0  0  0  0  0  0  0  0  0  0  0  0
  140.4781   74.9693  222.2433 H   0  0  0  0  0  0  0  0  0  0  0  0
  137.9980   74.8290  223.0240 H   0  0  0  0  0  0  0  0  0  0  0  0
  135.9464   76.6059  223.3848 H   0  0  0  0  0  0  0  0  0  0  0  0
  135.3602   79.0513  223.2081 H   0  0  0  0  0  0  0  0  0  0  0  0
  137.0765   80.7042  222.4373 H   0  0  0  0  0  0  0  0  0  0  0  0
  139.4008   79.9327  221.8405 H   0  0  0  0  0  0  0  0  0  0  0  0
  1  2  2  0
  2  3  2  0
  2  4  1  0
  4  5  1  0
  5  6  2  0
  6  7  1  0
  7  8  2  0
  8  9  1  0
  9 10  2  0
  2 11  1  0
 11 12  1  0
 12 13  1  0
 13 14  2  0
 14 15  1  0
 15 16  2  0
 16 17  1  0
 17 18  2  0
 18 19  1  0
 19 20  1  0
 20 21  2  0
 21 22  1  0
 22 23  1  0
 23 24  2  0
 24 25  1  0
 25 26  2  0
 26 27  1  0
 27 28  2  0
 10  5  1  0
 19 11  1  0
 28 20  1  0
 18 13  1  0
 28 23  1  0
  4 29  1  0
  4 30  1  0
  6 31  1  0
  7 32  1  0
  8 33  1  0
  9 34  1  0
 10 35  1  0
 12 36  1  0
 12 37  1  0
 14 38  1  0
 15 39  1  0
 16 40  1  0
 17 41  1  0
 19 42  1  6
 21 43  1  0
 22 44  1  0
 24 45  1  0
 25 46  1  0
 26 47  1  0
 27 48  1  0
M  END
>  <meeko>  (19) 
{"free_energy": -6.99, "intermolecular_energy": -8.18, "internal_energy": -2.06, "cluster_size": 7, "cluster_id": 2, "rank_in_cluster": 3}

$$$$

     RDKit          3D

 48 52  0  0  0  0  0  0  0  0999 V2000
  139.9750   73.4740  222.3710 O   0  0  0  0  0  0  0  0  0  0  0  0
  140.2230   74.7300  221.5810 S   0  0  0  0  0  0  0  0  0  0  0  0
  141.1660   75.6120  222.3500 O   0  0  0  0  0  0  0  0  0  0  0  0
  141.0250   74.3170  220.0350 C   0  0  0  0  0  0  0  0  0  0  0  0
  142.4630   73.9230  220.2310 C   0  0  0  0  0  0  0  0  0  0  0  0
  142.8040   72.5850  220.4960 C   0  0  0  0  0  0  0  0  0  0  0  0
  144.1420   72.2250  220.6900 C   0  0  0  0  0  0  0  0  0  0  0  0
  145.1460   73.1930  220.6150 C   0  0  0  0  0  0  0  0  0  0  0  0
  144.8170   74.5220  220.3410 C   0  0  0  0  0  0  0  0  0  0  0  0
  143.4810   74.8880  220.1450 C   0  0  0  0  0  0  0  0  0  0  0  0
  138.7210   75.5900  221.2960 N   0  0  0  0  0  0  0  0  0  0  0  0
  137.9760   75.9020  222.5320 C   0  0  0  0  0  0  0  0  0  0  0  0
  137.2710   77.1680  222.2310 C   0  0  0  0  0  0  0  0  0  0  0  0
  136.2880   77.8090  222.9840 C   0  0  0  0  0  0  0  0  0  0  0  0
  135.7610   79.0200  222.5050 C   0  0  0  0  0  0  0  0  0  0  0  0
  136.2290   79.5650  221.2930 C   0  0  0  0  0  0  0  0  0  0  0  0
  137.2260   78.9020  220.5600 C   0  0  0  0  0  0  0  0  0  0  0  0
  137.7260   77.6950  221.0560 C   0  0  0  0  0  0  0  0  0  0  0  0
  138.8110   76.8470  220.5030 C   0  0  1  0  0  0  0  0  0  0  0  0
  140.1290   77.5850  220.6300 C   0  0  0  0  0  0  0  0  0  0  0  0
  141.1490   77.6580  219.6780 C   0  0  0  0  0  0  0  0  0  0  0  0
  142.1790   78.4000  220.1430 N   0  0  0  0  0  0  0  0  0  0  0  0
  141.8260   78.7940  221.3780 C   0  0  0  0  0  0  0  0  0  0  0  0
  142.5690   79.5820  222.2560 C   0  0  0  0  0  0  0  0  0  0  0  0
  142.0060   79.8810  223.5090 C   0  0  0  0  0  0  0  0  0  0  0  0
  140.7280   79.3890  223.8550 C   0  0  0  0  0  0  0  0  0  0  0  0
  140.0000   78.5950  222.9500 C   0  0  0  0  0  0  0  0  0  0  0  0
  140.5840   78.3150  221.7120 C   0  0  0  0  0  0  0  0  0  0  0  0
  140.4875   73.4775  219.5698 H   0  0  0  0  0  0  0  0  0  0  0  0
  141.0030   75.2099  219.3930 H   0  0  0  0  0  0  0  0  0  0  0  0
  142.0165   71.8190  220.5510 H   0  0  0  0  0  0  0  0  0  0  0  0
  144.4037   71.1778  220.9020 H   0  0  0  0  0  0  0  0  0  0  0  0
  146.1968   72.9081  220.7719 H   0  0  0  0  0  0  0  0  0  0  0  0
  145.6095   75.2824  220.2792 H   0  0  0  0  0  0  0  0  0  0  0  0
  143.2265   75.9348  219.9228 H   0  0  0  0  0  0  0  0  0  0  0  0
  137.2571   75.1026  222.7648 H   0  0  0  0  0  0  0  0  0  0  0  0
  138.6364   75.9892  223.4074 H   0  0  0  0  0  0  0  0  0  0  0  0
  135.9333   77.3765  223.9312 H   0  0  0  0  0  0  0  0  0  0  0  0
  134.9813   79.5438  223.0775 H   0  0  0  0  0  0  0  0  0  0  0  0
  135.8122   80.5123  220.9202 H   0  0  0  0  0  0  0  0  0  0  0  0
  137.6049   79.3229  219.6170 H   0  0  0  0  0  0  0  0  0  0  0  0
  138.7266   76.6150  219.4311 H   0  0  0  0  0  0  0  0  0  0  0  0
  141.1183   77.1787  218.6884 H   0  0  0  0  0  0  0  0  0  0  0  0
  143.0670   78.6200  219.6400 H   0  0  0  0  0  0  0  0  0  0  0  0
  143.5644   79.9579  221.9771 H   0  0  0  0  0  0  0  0  0  0  0  0
  142.5645   80.5022  224.2247 H   0  0  0  0  0  0  0  0  0  0  0  0
  140.2988   79.6284  224.8391 H   0  0  0  0  0  0  0  0  0  0  0  0
  139.0036   78.2073  223.2087 H   0  0  0  0  0  0  0  0  0  0  0  0
  1  2  2  0
  2  3  2  0
  2  4  1  0
  4  5  1  0
  5  6  2  0
  6  7  1  0
  7  8  2  0
  8  9  1  0
  9 10  2  0
  2 11  1  0
 11 12  1  0
 12 13  1  0
 13 14  2  0
 14 15  1  0
 15 16  2  0
 16 17  1  0
 17 18  2  0
 18 19  1  0
 19 20  1  0
 20 21  2  0
 21 22  1  0
 22 23  1  0
 23 24  2  0
 24 25  1  0
 25 26  2  0
 26 27  1  0
 27 28  2  0
 10  5  1  0
 19 11  1  0
 28 20  1  0
 18 13  1  0
 28 23  1  0
  4 29  1  0
  4 30  1  0
  6 31  1  0
  7 32  1  0
  8 33  1  0
  9 34  1  0
 10 35  1  0
 12 36  1  0
 12 37  1  0
 14 38  1  0
 15 39  1  0
 16 40  1  0
 17 41  1  0
 19 42  1  6
 21 43  1  0
 22 44  1  0
 24 45  1  0
 25 46  1  0
 26 47  1  0
 27 48  1  0
M  END
>  <meeko>  (20) 
{"free_energy": -7.28, "intermolecular_energy": -8.47, "internal_energy": -1.97, "cluster_size": 10, "cluster_id": 1, "rank_in_cluster": 3}

$$$$
