
     RDKit          3D

 49 52  0  0  0  0  0  0  0  0999 V2000
  139.1880   67.5940  225.1350 O   0  0  0  0  0  0  0  0  0  0  0  0
  139.4360   68.8250  224.9970 C   0  0  0  0  0  0  0  0  0  0  0  0
  140.0020   69.5300  226.0720 C   0  0  0  0  0  0  0  0  0  0  0  0
  140.3460   68.9050  227.2870 C   0  0  0  0  0  0  0  0  0  0  0  0
  140.9040   69.6540  228.3280 C   0  0  0  0  0  0  0  0  0  0  0  0
  141.1190   71.0260  228.1680 C   0  0  0  0  0  0  0  0  0  0  0  0
  140.7760   71.6530  226.9670 C   0  0  0  0  0  0  0  0  0  0  0  0
  140.2190   70.9060  225.9210 C   0  0  0  0  0  0  0  0  0  0  0  0
  139.8770   71.5130  224.7650 N   0  0  0  0  0  0  0  0  0  0  0  0
  139.3390   70.8350  223.7150 C   0  0  0  0  0  0  0  0  0  0  0  0
  138.9990   71.6180  222.4930 C   0  0  0  0  0  0  0  0  0  0  0  0
  139.5630   72.8060  222.2240 C   0  0  0  0  0  0  0  0  0  0  0  0
  140.8980   72.9600  221.5960 C   0  0  0  0  0  0  0  0  0  0  0  0
  141.6940   71.8200  221.4050 C   0  0  0  0  0  0  0  0  0  0  0  0
  142.9580   71.9310  220.8260 C   0  0  0  0  0  0  0  0  0  0  0  0
  143.4280   73.1890  220.4480 C   0  0  0  0  0  0  0  0  0  0  0  0
  142.6610   74.2910  220.6540 N   0  0  0  0  0  0  0  0  0  0  0  0
  141.4240   74.2110  221.2130 C   0  0  0  0  0  0  0  0  0  0  0  0
  139.1390   69.4660  223.8130 N   0  0  0  0  0  0  0  0  0  0  0  0
  138.5520   68.6770  222.7000 C   0  0  0  0  0  0  0  0  0  0  0  0
  139.5700   68.2920  221.5890 C   0  0  0  0  0  0  0  0  0  0  0  0
  139.5470   66.7890  221.2040 C   0  0  0  0  0  0  0  0  0  0  0  0
  140.2270   66.4900  219.8510 C   0  0  0  0  0  0  0  0  0  0  0  0
  141.2670   67.5500  219.4750 C   0  0  0  0  0  0  0  0  0  0  0  0
  140.6330   68.9510  219.3650 C   0  0  0  0  0  0  0  0  0  0  0  0
  139.4480   69.1700  220.3310 C   0  0  0  0  0  0  0  0  0  0  0  0
  140.1754   67.8261  227.4170 H   0  0  0  0  0  0  0  0  0  0  0  0
  141.1742   69.1626  229.2743 H   0  0  0  0  0  0  0  0  0  0  0  0
  141.5586   71.6126  228.9881 H   0  0  0  0  0  0  0  0  0  0  0  0
  140.9434   72.7331  226.8431 H   0  0  0  0  0  0  0  0  0  0  0  0
  138.2609   71.2084  221.7878 H   0  0  0  0  0  0  0  0  0  0  0  0
  139.0036   73.7168  222.4840 H   0  0  0  0  0  0  0  0  0  0  0  0
  141.3188   70.8331  221.7138 H   0  0  0  0  0  0  0  0  0  0  0  0
  143.5779   71.0360  220.6690 H   0  0  0  0  0  0  0  0  0  0  0  0
  144.4199   73.2885  219.9830 H   0  0  0  0  0  0  0  0  0  0  0  0
  140.8318   75.1251  221.3669 H   0  0  0  0  0  0  0  0  0  0  0  0
  138.1301   67.7511  223.1179 H   0  0  0  0  0  0  0  0  0  0  0  0
  137.7911   69.3144  222.2260 H   0  0  0  0  0  0  0  0  0  0  0  0
  140.5498   68.4890  222.0486 H   0  0  0  0  0  0  0  0  0  0  0  0
  140.0677   66.2205  221.9886 H   0  0  0  0  0  0  0  0  0  0  0  0
  138.4912   66.4956  221.1075 H   0  0  0  0  0  0  0  0  0  0  0  0
  140.7262   65.5119  219.9147 H   0  0  0  0  0  0  0  0  0  0  0  0
  139.4474   66.4939  219.0749 H   0  0  0  0  0  0  0  0  0  0  0  0
  142.0501   67.5719  220.2472 H   0  0  0  0  0  0  0  0  0  0  0  0
  141.6902   67.2852  218.4948 H   0  0  0  0  0  0  0  0  0  0  0  0
  141.4062   69.7012  219.5872 H   0  0  0  0  0  0  0  0  0  0  0  0
  140.2385   69.0476  218.3427 H   0  0  0  0  0  0  0  0  0  0  0  0
  139.4262   70.2270  220.6346 H   0  0  0  0  0  0  0  0  0  0  0  0
  138.5220   68.8915  219.8067 H   0  0  0  0  0  0  0  0  0  0  0  0
  1  2  2  0
  2  3  1  0
  3  4  2  0
  4  5  1  0
  5  6  2  0
  6  7  1  0
  7  8  2  0
  8  9  1  0
  9 10  2  0
 10 11  1  0
 11 12  2  0
 12 13  1  0
 13 14  2  0
 14 15  1  0
 15 16  2  0
 16 17  1  0
 17 18  2  0
 10 19  1  0
 19 20  1  0
 20 21  1  0
 21 22  1  0
 22 23  1  0
 23 24  1  0
 24 25  1  0
 25 26  1  0
 19  2  1  0
 26 21  1  0
  8  3  1  0
 18 13  1  0
  4 27  1  0
  5 28  1  0
  6 29  1  0
  7 30  1  0
 11 31  1  0
 12 32  1  0
 14 33  1  0
 15 34  1  0
 16 35  1  0
 18 36  1  0
 20 37  1  0
 20 38  1  0
 21 39  1  0
 22 40  1  0
 22 41  1  0
 23 42  1  0
 23 43  1  0
 24 44  1  0
 24 45  1  0
 25 46  1  0
 25 47  1  0
 26 48  1  0
 26 49  1  0
M  END
>  <meeko>  (1) 
{"free_energy": -6.78, "intermolecular_energy": -8.28, "internal_energy": -1.54, "cluster_size": 7, "cluster_id": 1, "rank_in_cluster": 7}

$$$$

     RDKit          3D

 49 52  0  0  0  0  0  0  0  0999 V2000
  139.2080   67.4040  225.5630 O   0  0  0  0  0  0  0  0  0  0  0  0
  139.5260   68.5620  225.1710 C   0  0  0  0  0  0  0  0  0  0  0  0
  140.0500   69.4750  226.1000 C   0  0  0  0  0  0  0  0  0  0  0  0
  140.2760   69.1340  227.4480 C   0  0  0  0  0  0  0  0  0  0  0  0
  140.7970   70.0830  228.3350 C   0  0  0  0  0  0  0  0  0  0  0  0
  141.0910   71.3730  227.8870 C   0  0  0  0  0  0  0  0  0  0  0  0
  140.8650   71.7200  226.5520 C   0  0  0  0  0  0  0  0  0  0  0  0
  140.3460   70.7720  225.6610 C   0  0  0  0  0  0  0  0  0  0  0  0
  140.1180   71.1100  224.3730 N   0  0  0  0  0  0  0  0  0  0  0  0
  139.6210   70.2270  223.4640 C   0  0  0  0  0  0  0  0  0  0  0  0
  139.4070   70.7200  222.0730 C   0  0  0  0  0  0  0  0  0  0  0  0
  140.3780   71.3280  221.3730 C   0  0  0  0  0  0  0  0  0  0  0  0
  140.6140   72.7930  221.3920 C   0  0  0  0  0  0  0  0  0  0  0  0
  141.8000   73.2960  220.8380 C   0  0  0  0  0  0  0  0  0  0  0  0
  142.0570   74.6670  220.8480 C   0  0  0  0  0  0  0  0  0  0  0  0
  141.1280   75.5320  221.4250 C   0  0  0  0  0  0  0  0  0  0  0  0
  139.9900   75.0360  221.9770 N   0  0  0  0  0  0  0  0  0  0  0  0
  139.7130   73.7050  221.9780 C   0  0  0  0  0  0  0  0  0  0  0  0
  139.3460   68.9250  223.8520 N   0  0  0  0  0  0  0  0  0  0  0  0
  138.7990   67.9210  222.9030 C   0  0  0  0  0  0  0  0  0  0  0  0
  137.3330   68.1960  222.4650 C   0  0  0  0  0  0  0  0  0  0  0  0
  136.5810   66.9410  221.9490 C   0  0  0  0  0  0  0  0  0  0  0  0
  135.0470   67.1110  221.9190 C   0  0  0  0  0  0  0  0  0  0  0  0
  134.6270   68.5800  221.8090 C   0  0  0  0  0  0  0  0  0  0  0  0
  135.1520   69.4090  222.9980 C   0  0  0  0  0  0  0  0  0  0  0  0
  136.5050   68.9100  223.5490 C   0  0  0  0  0  0  0  0  0  0  0  0
  140.0425   68.1198  227.8042 H   0  0  0  0  0  0  0  0  0  0  0  0
  140.9752   69.8127  229.3863 H   0  0  0  0  0  0  0  0  0  0  0  0
  141.5010   72.1169  228.5859 H   0  0  0  0  0  0  0  0  0  0  0  0
  141.0946   72.7370  226.2013 H   0  0  0  0  0  0  0  0  0  0  0  0
  138.4212   70.5810  221.6051 H   0  0  0  0  0  0  0  0  0  0  0  0
  141.0362   70.7047  220.7499 H   0  0  0  0  0  0  0  0  0  0  0  0
  142.5317   72.6056  220.3931 H   0  0  0  0  0  0  0  0  0  0  0  0
  142.9833   75.0618  220.4051 H   0  0  0  0  0  0  0  0  0  0  0  0
  141.3165   76.6157  221.4333 H   0  0  0  0  0  0  0  0  0  0  0  0
  138.7831   73.3387  222.4374 H   0  0  0  0  0  0  0  0  0  0  0  0
  139.4328   67.9139  222.0040 H   0  0  0  0  0  0  0  0  0  0  0  0
  138.7975   66.9547  223.4287 H   0  0  0  0  0  0  0  0  0  0  0  0
  137.4371   68.8797  221.6096 H   0  0  0  0  0  0  0  0  0  0  0  0
  136.9271   66.7231  220.9279 H   0  0  0  0  0  0  0  0  0  0  0  0
  136.8019   66.1212  222.6484 H   0  0  0  0  0  0  0  0  0  0  0  0
  134.6472   66.5630  221.0531 H   0  0  0  0  0  0  0  0  0  0  0  0
  134.6461   66.7162  222.8642 H   0  0  0  0  0  0  0  0  0  0  0  0
  135.0314   68.9983  220.8755 H   0  0  0  0  0  0  0  0  0  0  0  0
  133.5280   68.6258  221.8152 H   0  0  0  0  0  0  0  0  0  0  0  0
  135.2737   70.4514  222.6685 H   0  0  0  0  0  0  0  0  0  0  0  0
  134.4166   69.3104  223.8101 H   0  0  0  0  0  0  0  0  0  0  0  0
  137.0766   69.7716  223.9244 H   0  0  0  0  0  0  0  0  0  0  0  0
  136.3022   68.1899  224.3554 H   0  0  0  0  0  0  0  0  0  0  0  0
  1  2  2  0
  2  3  1  0
  3  4  2  0
  4  5  1  0
  5  6  2  0
  6  7  1  0
  7  8  2  0
  8  9  1  0
  9 10  2  0
 10 11  1  0
 11 12  2  0
 12 13  1  0
 13 14  2  0
 14 15  1  0
 15 16  2  0
 16 17  1  0
 17 18  2  0
 10 19  1  0
 19 20  1  0
 20 21  1  0
 21 22  1  0
 22 23  1  0
 23 24  1  0
 24 25  1  0
 25 26  1  0
 19  2  1  0
 26 21  1  0
  8  3  1  0
 18 13  1  0
  4 27  1  0
  5 28  1  0
  6 29  1  0
  7 30  1  0
 11 31  1  0
 12 32  1  0
 14 33  1  0
 15 34  1  0
 16 35  1  0
 18 36  1  0
 20 37  1  0
 20 38  1  0
 21 39  1  0
 22 40  1  0
 22 41  1  0
 23 42  1  0
 23 43  1  0
 24 44  1  0
 24 45  1  0
 25 46  1  0
 25 47  1  0
 26 48  1  0
 26 49  1  0
M  END
>  <meeko>  (2) 
{"free_energy": -7.25, "intermolecular_energy": -8.74, "internal_energy": -1.24, "cluster_size": 7, "cluster_id": 1, "rank_in_cluster": 1}

$$$$

     RDKit          3D

 49 52  0  0  0  0  0  0  0  0999 V2000
  140.3390   71.9470  225.0840 O   0  0  0  0  0  0  0  0  0  0  0  0
  139.7440   70.8330  225.1210 C   0  0  0  0  0  0  0  0  0  0  0  0
  140.0030   69.9590  226.1890 C   0  0  0  0  0  0  0  0  0  0  0  0
  140.8700   70.2960  227.2470 C   0  0  0  0  0  0  0  0  0  0  0  0
  141.0970   69.3870  228.2860 C   0  0  0  0  0  0  0  0  0  0  0  0
  140.4650   68.1400  228.2760 C   0  0  0  0  0  0  0  0  0  0  0  0
  139.6070   67.7970  227.2270 C   0  0  0  0  0  0  0  0  0  0  0  0
  139.3760   68.7060  226.1870 C   0  0  0  0  0  0  0  0  0  0  0  0
  138.5550   68.3710  225.1680 N   0  0  0  0  0  0  0  0  0  0  0  0
  138.2900   69.2170  224.1360 C   0  0  0  0  0  0  0  0  0  0  0  0
  137.3710   68.7320  223.0670 C   0  0  0  0  0  0  0  0  0  0  0  0
  136.0360   68.7660  223.2020 C   0  0  0  0  0  0  0  0  0  0  0  0
  135.3420   69.3290  224.3870 C   0  0  0  0  0  0  0  0  0  0  0  0
  135.3320   70.7190  224.5700 C   0  0  0  0  0  0  0  0  0  0  0  0
  134.6960   71.2800  225.6780 C   0  0  0  0  0  0  0  0  0  0  0  0
  134.0820   70.4430  226.6090 C   0  0  0  0  0  0  0  0  0  0  0  0
  134.1120   69.0960  226.4360 N   0  0  0  0  0  0  0  0  0  0  0  0
  134.7210   68.5230  225.3630 C   0  0  0  0  0  0  0  0  0  0  0  0
  138.8650   70.4790  224.1180 N   0  0  0  0  0  0  0  0  0  0  0  0
  138.6140   71.4420  223.0150 C   0  0  0  0  0  0  0  0  0  0  0  0
  139.9040   71.9450  222.3070 C   0  0  0  0  0  0  0  0  0  0  0  0
  140.4410   70.9860  221.2130 C   0  0  0  0  0  0  0  0  0  0  0  0
  141.4390   71.6540  220.2430 C   0  0  0  0  0  0  0  0  0  0  0  0
  142.1390   72.8630  220.8710 C   0  0  0  0  0  0  0  0  0  0  0  0
  141.1260   73.9450  221.2970 C   0  0  0  0  0  0  0  0  0  0  0  0
  139.7650   73.3730  221.7470 C   0  0  0  0  0  0  0  0  0  0  0  0
  141.3696   71.2760  227.2562 H   0  0  0  0  0  0  0  0  0  0  0  0
  141.7733   69.6537  229.1115 H   0  0  0  0  0  0  0  0  0  0  0  0
  140.6432   67.4275  229.0949 H   0  0  0  0  0  0  0  0  0  0  0  0
  139.1137   66.8139  227.2185 H   0  0  0  0  0  0  0  0  0  0  0  0
  137.8013   68.3330  222.1366 H   0  0  0  0  0  0  0  0  0  0  0  0
  135.4215   68.3532  222.3883 H   0  0  0  0  0  0  0  0  0  0  0  0
  135.8283   71.3709  223.8360 H   0  0  0  0  0  0  0  0  0  0  0  0
  134.6791   72.3712  225.8156 H   0  0  0  0  0  0  0  0  0  0  0  0
  133.5731   70.8737  227.4839 H   0  0  0  0  0  0  0  0  0  0  0  0
  134.7290   67.4282  225.2566 H   0  0  0  0  0  0  0  0  0  0  0  0
  137.9774   70.9501  222.2648 H   0  0  0  0  0  0  0  0  0  0  0  0
  138.1347   72.3235  223.4658 H   0  0  0  0  0  0  0  0  0  0  0  0
  140.6549   71.9642  223.1106 H   0  0  0  0  0  0  0  0  0  0  0  0
  140.9468   70.1432  221.7068 H   0  0  0  0  0  0  0  0  0  0  0  0
  139.5766   70.6620  220.6148 H   0  0  0  0  0  0  0  0  0  0  0  0
  142.2007   70.9147  219.9545 H   0  0  0  0  0  0  0  0  0  0  0  0
  140.8728   72.0092  219.3694 H   0  0  0  0  0  0  0  0  0  0  0  0
  142.7004   72.5306  221.7566 H   0  0  0  0  0  0  0  0  0  0  0  0
  142.8141   73.2992  220.1200 H   0  0  0  0  0  0  0  0  0  0  0  0
  141.5572   74.5155  222.1329 H   0  0  0  0  0  0  0  0  0  0  0  0
  140.9361   74.5747  220.4153 H   0  0  0  0  0  0  0  0  0  0  0  0
  139.3461   74.0233  222.5290 H   0  0  0  0  0  0  0  0  0  0  0  0
  139.1025   73.3342  220.8697 H   0  0  0  0  0  0  0  0  0  0  0  0
  1  2  2  0
  2  3  1  0
  3  4  2  0
  4  5  1  0
  5  6  2  0
  6  7  1  0
  7  8  2  0
  8  9  1  0
  9 10  2  0
 10 11  1  0
 11 12  2  0
 12 13  1  0
 13 14  2  0
 14 15  1  0
 15 16  2  0
 16 17  1  0
 17 18  2  0
 10 19  1  0
 19 20  1  0
 20 21  1  0
 21 22  1  0
 22 23  1  0
 23 24  1  0
 24 25  1  0
 25 26  1  0
 19  2  1  0
 26 21  1  0
  8  3  1  0
 18 13  1  0
  4 27  1  0
  5 28  1  0
  6 29  1  0
  7 30  1  0
 11 31  1  0
 12 32  1  0
 14 33  1  0
 15 34  1  0
 16 35  1  0
 18 36  1  0
 20 37  1  0
 20 38  1  0
 21 39  1  0
 22 40  1  0
 22 41  1  0
 23 42  1  0
 23 43  1  0
 24 44  1  0
 24 45  1  0
 25 46  1  0
 25 47  1  0
 26 48  1  0
 26 49  1  0
M  END
>  <meeko>  (3) 
{"free_energy": -6.98, "intermolecular_energy": -8.47, "internal_energy": -1.43, "cluster_size": 3, "cluster_id": 3, "rank_in_cluster": 2}

$$$$

     RDKit          3D

 49 52  0  0  0  0  0  0  0  0999 V2000
  138.3650   75.6870  222.0250 O   0  0  0  0  0  0  0  0  0  0  0  0
  139.4320   75.1580  221.6040 C   0  0  0  0  0  0  0  0  0  0  0  0
  139.6130   73.7740  221.7590 C   0  0  0  0  0  0  0  0  0  0  0  0
  138.6270   72.9430  222.3280 C   0  0  0  0  0  0  0  0  0  0  0  0
  138.8590   71.5700  222.4620 C   0  0  0  0  0  0  0  0  0  0  0  0
  140.0710   71.0190  222.0360 C   0  0  0  0  0  0  0  0  0  0  0  0
  141.0550   71.8380  221.4760 C   0  0  0  0  0  0  0  0  0  0  0  0
  140.8250   73.2120  221.3370 C   0  0  0  0  0  0  0  0  0  0  0  0
  141.7800   74.0060  220.8050 N   0  0  0  0  0  0  0  0  0  0  0  0
  141.6070   75.3460  220.6410 C   0  0  0  0  0  0  0  0  0  0  0  0
  142.7370   76.1170  220.0470 C   0  0  0  0  0  0  0  0  0  0  0  0
  143.5930   75.5690  219.1700 C   0  0  0  0  0  0  0  0  0  0  0  0
  144.4540   74.4010  219.4790 C   0  0  0  0  0  0  0  0  0  0  0  0
  144.9610   74.2580  220.7790 C   0  0  0  0  0  0  0  0  0  0  0  0
  145.7810   73.1770  221.1010 C   0  0  0  0  0  0  0  0  0  0  0  0
  146.1020   72.2450  220.1150 C   0  0  0  0  0  0  0  0  0  0  0  0
  145.6230   72.4000  218.8530 N   0  0  0  0  0  0  0  0  0  0  0  0
  144.8200   73.4420  218.5120 C   0  0  0  0  0  0  0  0  0  0  0  0
  140.4090   75.9350  221.0170 N   0  0  0  0  0  0  0  0  0  0  0  0
  140.1680   77.3930  220.8640 C   0  0  0  0  0  0  0  0  0  0  0  0
  141.1620   78.2860  221.6590 C   0  0  0  0  0  0  0  0  0  0  0  0
  141.5140   79.6220  220.9540 C   0  0  0  0  0  0  0  0  0  0  0  0
  142.1410   80.6700  221.8990 C   0  0  0  0  0  0  0  0  0  0  0  0
  142.8250   80.0270  223.1090 C   0  0  0  0  0  0  0  0  0  0  0  0
  141.8310   79.1980  223.9470 C   0  0  0  0  0  0  0  0  0  0  0  0
  140.7110   78.5460  223.1080 C   0  0  0  0  0  0  0  0  0  0  0  0
  137.6738   73.3747  222.6672 H   0  0  0  0  0  0  0  0  0  0  0  0
  138.0865   70.9230  222.9033 H   0  0  0  0  0  0  0  0  0  0  0  0
  140.2504   69.9389  222.1418 H   0  0  0  0  0  0  0  0  0  0  0  0
  142.0096   71.4035  221.1446 H   0  0  0  0  0  0  0  0  0  0  0  0
  142.8735   77.1693  220.3370 H   0  0  0  0  0  0  0  0  0  0  0  0
  143.6598   76.0112  218.1650 H   0  0  0  0  0  0  0  0  0  0  0  0
  144.7104   75.0027  221.5488 H   0  0  0  0  0  0  0  0  0  0  0  0
  146.1708   73.0607  222.1230 H   0  0  0  0  0  0  0  0  0  0  0  0
  146.7427   71.3847  220.3586 H   0  0  0  0  0  0  0  0  0  0  0  0
  144.4545   73.5377  217.4789 H   0  0  0  0  0  0  0  0  0  0  0  0
  140.2521   77.6472  219.7971 H   0  0  0  0  0  0  0  0  0  0  0  0
  139.1656   77.5938  221.2700 H   0  0  0  0  0  0  0  0  0  0  0  0
  142.0854   77.6891  221.6914 H   0  0  0  0  0  0  0  0  0  0  0  0
  142.2286   79.4110  220.1448 H   0  0  0  0  0  0  0  0  0  0  0  0
  140.5720   80.0476  220.5779 H   0  0  0  0  0  0  0  0  0  0  0  0
  142.8880   81.2504  221.3376 H   0  0  0  0  0  0  0  0  0  0  0  0
  141.3306   81.3129  222.2732 H   0  0  0  0  0  0  0  0  0  0  0  0
  143.6309   79.3673  222.7550 H   0  0  0  0  0  0  0  0  0  0  0  0
  143.2263   80.8298  223.7450 H   0  0  0  0  0  0  0  0  0  0  0  0
  142.3889   78.4017  224.4614 H   0  0  0  0  0  0  0  0  0  0  0  0
  141.3461   79.8901  224.6512 H   0  0  0  0  0  0  0  0  0  0  0  0
  140.4303   77.5885  223.5711 H   0  0  0  0  0  0  0  0  0  0  0  0
  139.8558   79.2374  223.0819 H   0  0  0  0  0  0  0  0  0  0  0  0
  1  2  2  0
  2  3  1  0
  3  4  2  0
  4  5  1  0
  5  6  2  0
  6  7  1  0
  7  8  2  0
  8  9  1  0
  9 10  2  0
 10 11  1  0
 11 12  2  0
 12 13  1  0
 13 14  2  0
 14 15  1  0
 15 16  2  0
 16 17  1  0
 17 18  2  0
 10 19  1  0
 19 20  1  0
 20 21  1  0
 21 22  1  0
 22 23  1  0
 23 24  1  0
 24 25  1  0
 25 26  1  0
 19  2  1  0
 26 21  1  0
  8  3  1  0
 18 13  1  0
  4 27  1  0
  5 28  1  0
  6 29  1  0
  7 30  1  0
 11 31  1  0
 12 32  1  0
 14 33  1  0
 15 34  1  0
 16 35  1  0
 18 36  1  0
 20 37  1  0
 20 38  1  0
 21 39  1  0
 22 40  1  0
 22 41  1  0
 23 42  1  0
 23 43  1  0
 24 44  1  0
 24 45  1  0
 25 46  1  0
 25 47  1  0
 26 48  1  0
 26 49  1  0
M  END
>  <meeko>  (4) 
{"free_energy": -7.14, "intermolecular_energy": -8.63, "internal_energy": -1.3, "cluster_size": 5, "cluster_id": 2, "rank_in_cluster": 3}

$$$$

     RDKit          3D

 49 52  0  0  0  0  0  0  0  0999 V2000
  139.1180   67.5570  225.7500 O   0  0  0  0  0  0  0  0  0  0  0  0
  139.4850   68.6690  225.2770 C   0  0  0  0  0  0  0  0  0  0  0  0
  140.0460   69.6230  226.1410 C   0  0  0  0  0  0  0  0  0  0  0  0
  140.2570   69.3710  227.5110 C   0  0  0  0  0  0  0  0  0  0  0  0
  140.8170   70.3580  228.3290 C   0  0  0  0  0  0  0  0  0  0  0  0
  141.1650   71.6000  227.7900 C   0  0  0  0  0  0  0  0  0  0  0  0
  140.9550   71.8590  226.4330 C   0  0  0  0  0  0  0  0  0  0  0  0
  140.3970   70.8720  225.6110 C   0  0  0  0  0  0  0  0  0  0  0  0
  140.1840   71.1260  224.3010 N   0  0  0  0  0  0  0  0  0  0  0  0
  139.6510   70.2020  223.4560 C   0  0  0  0  0  0  0  0  0  0  0  0
  139.4580   70.6030  222.0330 C   0  0  0  0  0  0  0  0  0  0  0  0
  138.6470   71.6120  221.6780 C   0  0  0  0  0  0  0  0  0  0  0  0
  139.0030   73.0450  221.8250 C   0  0  0  0  0  0  0  0  0  0  0  0
  137.9730   73.9940  221.9070 C   0  0  0  0  0  0  0  0  0  0  0  0
  138.2730   75.3500  222.0370 C   0  0  0  0  0  0  0  0  0  0  0  0
  139.6070   75.7540  222.0730 C   0  0  0  0  0  0  0  0  0  0  0  0
  140.5990   74.8320  221.9740 N   0  0  0  0  0  0  0  0  0  0  0  0
  140.3360   73.5040  221.8500 C   0  0  0  0  0  0  0  0  0  0  0  0
  139.3210   68.9430  223.9350 N   0  0  0  0  0  0  0  0  0  0  0  0
  138.7330   67.8980  223.0590 C   0  0  0  0  0  0  0  0  0  0  0  0
  137.2330   68.1270  222.7170 C   0  0  0  0  0  0  0  0  0  0  0  0
  136.5320   69.1760  223.6200 C   0  0  0  0  0  0  0  0  0  0  0  0
  135.2070   69.7060  223.0330 C   0  0  0  0  0  0  0  0  0  0  0  0
  134.5650   68.7140  222.0570 C   0  0  0  0  0  0  0  0  0  0  0  0
  135.4980   68.4090  220.8670 C   0  0  0  0  0  0  0  0  0  0  0  0
  136.9980   68.4550  221.2310 C   0  0  0  0  0  0  0  0  0  0  0  0
  139.9807   68.3958  227.9384 H   0  0  0  0  0  0  0  0  0  0  0  0
  140.9837   70.1566  229.3975 H   0  0  0  0  0  0  0  0  0  0  0  0
  141.6049   72.3747  228.4352 H   0  0  0  0  0  0  0  0  0  0  0  0
  141.2278   72.8374  226.0107 H   0  0  0  0  0  0  0  0  0  0  0  0
  139.9982   70.0537  221.2479 H   0  0  0  0  0  0  0  0  0  0  0  0
  137.6631   71.3625  221.2542 H   0  0  0  0  0  0  0  0  0  0  0  0
  136.9234   73.6670  221.8686 H   0  0  0  0  0  0  0  0  0  0  0  0
  137.4653   76.0931  222.1104 H   0  0  0  0  0  0  0  0  0  0  0  0
  139.8559   76.8199  222.1816 H   0  0  0  0  0  0  0  0  0  0  0  0
  141.1652   72.7857  221.7690 H   0  0  0  0  0  0  0  0  0  0  0  0
  139.3024   67.8753  222.1181 H   0  0  0  0  0  0  0  0  0  0  0  0
  138.7910   66.9497  223.6133 H   0  0  0  0  0  0  0  0  0  0  0  0
  136.7620   67.1561  222.9305 H   0  0  0  0  0  0  0  0  0  0  0  0
  136.3200   68.7109  224.5940 H   0  0  0  0  0  0  0  0  0  0  0  0
  137.2137   70.0349  223.7075 H   0  0  0  0  0  0  0  0  0  0  0  0
  134.5049   69.8947  223.8585 H   0  0  0  0  0  0  0  0  0  0  0  0
  135.4305   70.6283  222.4768 H   0  0  0  0  0  0  0  0  0  0  0  0
  134.3480   67.7769  222.5907 H   0  0  0  0  0  0  0  0  0  0  0  0
  133.6409   69.1639  221.6651 H   0  0  0  0  0  0  0  0  0  0  0  0
  135.2624   67.4032  220.4891 H   0  0  0  0  0  0  0  0  0  0  0  0
  135.3247   69.1902  220.1123 H   0  0  0  0  0  0  0  0  0  0  0  0
  137.5373   67.7211  220.6142 H   0  0  0  0  0  0  0  0  0  0  0  0
  137.3659   69.4743  221.0422 H   0  0  0  0  0  0  0  0  0  0  0  0
  1  2  2  0
  2  3  1  0
  3  4  2  0
  4  5  1  0
  5  6  2  0
  6  7  1  0
  7  8  2  0
  8  9  1  0
  9 10  2  0
 10 11  1  0
 11 12  2  0
 12 13  1  0
 13 14  2  0
 14 15  1  0
 15 16  2  0
 16 17  1  0
 17 18  2  0
 10 19  1  0
 19 20  1  0
 20 21  1  0
 21 22  1  0
 22 23  1  0
 23 24  1  0
 24 25  1  0
 25 26  1  0
 19  2  1  0
 26 21  1  0
  8  3  1  0
 18 13  1  0
  4 27  1  0
  5 28  1  0
  6 29  1  0
  7 30  1  0
 11 31  1  0
 12 32  1  0
 14 33  1  0
 15 34  1  0
 16 35  1  0
 18 36  1  0
 20 37  1  0
 20 38  1  0
 21 39  1  0
 22 40  1  0
 22 41  1  0
 23 42  1  0
 23 43  1  0
 24 44  1  0
 24 45  1  0
 25 46  1  0
 25 47  1  0
 26 48  1  0
 26 49  1  0
M  END
>  <meeko>  (5) 
{"free_energy": -6.88, "intermolecular_energy": -8.37, "internal_energy": -1.54, "cluster_size": 7, "cluster_id": 1, "rank_in_cluster": 5}

$$$$

     RDKit          3D

 49 52  0  0  0  0  0  0  0  0999 V2000
  140.3290   71.8970  225.0970 O   0  0  0  0  0  0  0  0  0  0  0  0
  139.7450   70.7790  225.1600 C   0  0  0  0  0  0  0  0  0  0  0  0
  140.0220   69.9260  226.2410 C   0  0  0  0  0  0  0  0  0  0  0  0
  140.8960   70.2900  227.2840 C   0  0  0  0  0  0  0  0  0  0  0  0
  141.1400   69.4020  228.3370 C   0  0  0  0  0  0  0  0  0  0  0  0
  140.5200   68.1490  228.3550 C   0  0  0  0  0  0  0  0  0  0  0  0
  139.6560   67.7800  227.3210 C   0  0  0  0  0  0  0  0  0  0  0  0
  139.4070   68.6670  226.2670 C   0  0  0  0  0  0  0  0  0  0  0  0
  138.5800   68.3070  225.2620 N   0  0  0  0  0  0  0  0  0  0  0  0
  138.2980   69.1320  224.2160 C   0  0  0  0  0  0  0  0  0  0  0  0
  137.3740   68.6180  223.1650 C   0  0  0  0  0  0  0  0  0  0  0  0
  136.0540   68.8650  223.1910 C   0  0  0  0  0  0  0  0  0  0  0  0
  135.3380   69.3930  224.3770 C   0  0  0  0  0  0  0  0  0  0  0  0
  135.3270   70.7770  224.6020 C   0  0  0  0  0  0  0  0  0  0  0  0
  134.6710   71.3070  225.7130 C   0  0  0  0  0  0  0  0  0  0  0  0
  134.0350   70.4440  226.6060 C   0  0  0  0  0  0  0  0  0  0  0  0
  134.0660   69.1030  226.3930 N   0  0  0  0  0  0  0  0  0  0  0  0
  134.6950   68.5610  225.3160 C   0  0  0  0  0  0  0  0  0  0  0  0
  138.8610   70.3980  224.1710 N   0  0  0  0  0  0  0  0  0  0  0  0
  138.5910   71.3380  223.0530 C   0  0  0  0  0  0  0  0  0  0  0  0
  139.8700   71.8480  222.3300 C   0  0  0  0  0  0  0  0  0  0  0  0
  140.3540   70.9300  221.1770 C   0  0  0  0  0  0  0  0  0  0  0  0
  141.3370   71.6220  220.2090 C   0  0  0  0  0  0  0  0  0  0  0  0
  142.0810   72.7870  220.8710 C   0  0  0  0  0  0  0  0  0  0  0  0
  141.1050   73.8680  221.3770 C   0  0  0  0  0  0  0  0  0  0  0  0
  139.7450   73.3030  221.8410 C   0  0  0  0  0  0  0  0  0  0  0  0
  141.3874   71.2740  227.2704 H   0  0  0  0  0  0  0  0  0  0  0  0
  141.8205   69.6899  229.1519 H   0  0  0  0  0  0  0  0  0  0  0  0
  140.7128   67.4527  229.1845 H   0  0  0  0  0  0  0  0  0  0  0  0
  139.1714   66.7926  227.3351 H   0  0  0  0  0  0  0  0  0  0  0  0
  137.7867   68.0169  222.3414 H   0  0  0  0  0  0  0  0  0  0  0  0
  135.4708   68.6640  222.2802 H   0  0  0  0  0  0  0  0  0  0  0  0
  135.8391   71.4492  223.8977 H   0  0  0  0  0  0  0  0  0  0  0  0
  134.6553   72.3936  225.8833 H   0  0  0  0  0  0  0  0  0  0  0  0
  133.5085   70.8497  227.4825 H   0  0  0  0  0  0  0  0  0  0  0  0
  134.7021   67.4698  225.1771 H   0  0  0  0  0  0  0  0  0  0  0  0
  137.9584   70.8239  222.3144 H   0  0  0  0  0  0  0  0  0  0  0  0
  138.1010   72.2200  223.4911 H   0  0  0  0  0  0  0  0  0  0  0  0
  140.6446   71.8152  223.1103 H   0  0  0  0  0  0  0  0  0  0  0  0
  140.8559   70.0551  221.6160 H   0  0  0  0  0  0  0  0  0  0  0  0
  139.4657   70.6516  220.5910 H   0  0  0  0  0  0  0  0  0  0  0  0
  142.0740   70.8818  219.8641 H   0  0  0  0  0  0  0  0  0  0  0  0
  140.7534   72.0285  219.3699 H   0  0  0  0  0  0  0  0  0  0  0  0
  142.6609   72.4024  221.7229 H   0  0  0  0  0  0  0  0  0  0  0  0
  142.7426   73.2442  220.1205 H   0  0  0  0  0  0  0  0  0  0  0  0
  141.5727   74.3896  222.2251 H   0  0  0  0  0  0  0  0  0  0  0  0
  140.9032   74.5423  220.5316 H   0  0  0  0  0  0  0  0  0  0  0  0
  139.3630   73.9243  222.6644 H   0  0  0  0  0  0  0  0  0  0  0  0
  139.0564   73.3187  220.9834 H   0  0  0  0  0  0  0  0  0  0  0  0
  1  2  2  0
  2  3  1  0
  3  4  2  0
  4  5  1  0
  5  6  2  0
  6  7  1  0
  7  8  2  0
  8  9  1  0
  9 10  2  0
 10 11  1  0
 11 12  2  0
 12 13  1  0
 13 14  2  0
 14 15  1  0
 15 16  2  0
 16 17  1  0
 17 18  2  0
 10 19  1  0
 19 20  1  0
 20 21  1  0
 21 22  1  0
 22 23  1  0
 23 24  1  0
 24 25  1  0
 25 26  1  0
 19  2  1  0
 26 21  1  0
  8  3  1  0
 18 13  1  0
  4 27  1  0
  5 28  1  0
  6 29  1  0
  7 30  1  0
 11 31  1  0
 12 32  1  0
 14 33  1  0
 15 34  1  0
 16 35  1  0
 18 36  1  0
 20 37  1  0
 20 38  1  0
 21 39  1  0
 22 40  1  0
 22 41  1  0
 23 42  1  0
 23 43  1  0
 24 44  1  0
 24 45  1  0
 25 46  1  0
 25 47  1  0
 26 48  1  0
 26 49  1  0
M  END
>  <meeko>  (6) 
{"free_energy": -7.03, "intermolecular_energy": -8.53, "internal_energy": -1.42, "cluster_size": 3, "cluster_id": 3, "rank_in_cluster": 1}

$$$$

     RDKit          3D

 49 52  0  0  0  0  0  0  0  0999 V2000
  139.1740   67.5020  225.7370 O   0  0  0  0  0  0  0  0  0  0  0  0
  139.5020   68.6320  225.2790 C   0  0  0  0  0  0  0  0  0  0  0  0
  140.0410   69.5900  226.1530 C   0  0  0  0  0  0  0  0  0  0  0  0
  140.2720   69.3230  227.5170 C   0  0  0  0  0  0  0  0  0  0  0  0
  140.8080   70.3140  228.3460 C   0  0  0  0  0  0  0  0  0  0  0  0
  141.1140   71.5740  227.8240 C   0  0  0  0  0  0  0  0  0  0  0  0
  140.8830   71.8480  226.4740 C   0  0  0  0  0  0  0  0  0  0  0  0
  140.3480   70.8580  225.6400 C   0  0  0  0  0  0  0  0  0  0  0  0
  140.1150   71.1250  224.3370 N   0  0  0  0  0  0  0  0  0  0  0  0
  139.6030   70.1990  223.4810 C   0  0  0  0  0  0  0  0  0  0  0  0
  139.3850   70.6160  222.0670 C   0  0  0  0  0  0  0  0  0  0  0  0
  140.1200   71.5760  221.4830 C   0  0  0  0  0  0  0  0  0  0  0  0
  139.9020   73.0270  221.7000 C   0  0  0  0  0  0  0  0  0  0  0  0
  138.5870   73.5080  221.7920 C   0  0  0  0  0  0  0  0  0  0  0  0
  138.3470   74.8680  221.9870 C   0  0  0  0  0  0  0  0  0  0  0  0
  139.4250   75.7470  222.0780 C   0  0  0  0  0  0  0  0  0  0  0  0
  140.6950   75.2770  221.9680 N   0  0  0  0  0  0  0  0  0  0  0  0
  140.9590   73.9560  221.7810 C   0  0  0  0  0  0  0  0  0  0  0  0
  139.3170   68.9230  223.9430 N   0  0  0  0  0  0  0  0  0  0  0  0
  138.7530   67.8740  223.0550 C   0  0  0  0  0  0  0  0  0  0  0  0
  137.2500   68.0730  222.7130 C   0  0  0  0  0  0  0  0  0  0  0  0
  136.5320   69.1180  223.6060 C   0  0  0  0  0  0  0  0  0  0  0  0
  135.1960   69.6190  223.0160 C   0  0  0  0  0  0  0  0  0  0  0  0
  134.5710   68.6070  222.0510 C   0  0  0  0  0  0  0  0  0  0  0  0
  135.5070   68.3050  220.8630 C   0  0  0  0  0  0  0  0  0  0  0  0
  137.0060   68.3810  221.2250 C   0  0  0  0  0  0  0  0  0  0  0  0
  140.0303   68.3329  227.9309 H   0  0  0  0  0  0  0  0  0  0  0  0
  140.9889   70.1015  229.4100 H   0  0  0  0  0  0  0  0  0  0  0  0
  141.5374   72.3510  228.4774 H   0  0  0  0  0  0  0  0  0  0  0  0
  141.1212   72.8413  226.0658 H   0  0  0  0  0  0  0  0  0  0  0  0
  138.5957   70.1209  221.4823 H   0  0  0  0  0  0  0  0  0  0  0  0
  140.9299   71.2689  220.8050 H   0  0  0  0  0  0  0  0  0  0  0  0
  137.7415   72.8092  221.7100 H   0  0  0  0  0  0  0  0  0  0  0  0
  137.3163   75.2436  222.0682 H   0  0  0  0  0  0  0  0  0  0  0  0
  139.2476   76.8206  222.2388 H   0  0  0  0  0  0  0  0  0  0  0  0
  142.0000   73.6117  221.6928 H   0  0  0  0  0  0  0  0  0  0  0  0
  139.3241   67.8736  222.1149 H   0  0  0  0  0  0  0  0  0  0  0  0
  138.8310   66.9216  223.5998 H   0  0  0  0  0  0  0  0  0  0  0  0
  136.7974   67.0958  222.9370 H   0  0  0  0  0  0  0  0  0  0  0  0
  136.3298   68.6590  224.5850 H   0  0  0  0  0  0  0  0  0  0  0  0
  137.1984   69.9897  223.6833 H   0  0  0  0  0  0  0  0  0  0  0  0
  134.4918   69.8028  223.8408 H   0  0  0  0  0  0  0  0  0  0  0  0
  135.4020   70.5400  222.4509 H   0  0  0  0  0  0  0  0  0  0  0  0
  134.3704   67.6719  222.5945 H   0  0  0  0  0  0  0  0  0  0  0  0
  133.6395   69.0379  221.6551 H   0  0  0  0  0  0  0  0  0  0  0  0
  135.2883   67.2912  220.4965 H   0  0  0  0  0  0  0  0  0  0  0  0
  135.3192   69.0743  220.0995 H   0  0  0  0  0  0  0  0  0  0  0  0
  137.5573   67.6503  220.6149 H   0  0  0  0  0  0  0  0  0  0  0  0
  137.3548   69.4050  221.0257 H   0  0  0  0  0  0  0  0  0  0  0  0
  1  2  2  0
  2  3  1  0
  3  4  2  0
  4  5  1  0
  5  6  2  0
  6  7  1  0
  7  8  2  0
  8  9  1  0
  9 10  2  0
 10 11  1  0
 11 12  2  0
 12 13  1  0
 13 14  2  0
 14 15  1  0
 15 16  2  0
 16 17  1  0
 17 18  2  0
 10 19  1  0
 19 20  1  0
 20 21  1  0
 21 22  1  0
 22 23  1  0
 23 24  1  0
 24 25  1  0
 25 26  1  0
 19  2  1  0
 26 21  1  0
  8  3  1  0
 18 13  1  0
  4 27  1  0
  5 28  1  0
  6 29  1  0
  7 30  1  0
 11 31  1  0
 12 32  1  0
 14 33  1  0
 15 34  1  0
 16 35  1  0
 18 36  1  0
 20 37  1  0
 20 38  1  0
 21 39  1  0
 22 40  1  0
 22 41  1  0
 23 42  1  0
 23 43  1  0
 24 44  1  0
 24 45  1  0
 25 46  1  0
 25 47  1  0
 26 48  1  0
 26 49  1  0
M  END
>  <meeko>  (7) 
{"free_energy": -6.81, "intermolecular_energy": -8.3, "internal_energy": -1.43, "cluster_size": 7, "cluster_id": 1, "rank_in_cluster": 6}

$$$$

     RDKit          3D

 49 52  0  0  0  0  0  0  0  0999 V2000
  138.3350   75.7230  221.9390 O   0  0  0  0  0  0  0  0  0  0  0  0
  139.4120   75.1770  221.5690 C   0  0  0  0  0  0  0  0  0  0  0  0
  139.5820   73.7990  221.7740 C   0  0  0  0  0  0  0  0  0  0  0  0
  138.5760   72.9900  222.3390 C   0  0  0  0  0  0  0  0  0  0  0  0
  138.7970   71.6220  222.5260 C   0  0  0  0  0  0  0  0  0  0  0  0
  140.0190   71.0520  222.1550 C   0  0  0  0  0  0  0  0  0  0  0  0
  141.0230   71.8490  221.5990 C   0  0  0  0  0  0  0  0  0  0  0  0
  140.8040   73.2190  221.4080 C   0  0  0  0  0  0  0  0  0  0  0  0
  141.7780   73.9910  220.8800 N   0  0  0  0  0  0  0  0  0  0  0  0
  141.6170   75.3260  220.6670 C   0  0  0  0  0  0  0  0  0  0  0  0
  142.7680   76.0730  220.0830 C   0  0  0  0  0  0  0  0  0  0  0  0
  143.6030   75.5160  219.1910 C   0  0  0  0  0  0  0  0  0  0  0  0
  144.4550   74.3370  219.4860 C   0  0  0  0  0  0  0  0  0  0  0  0
  144.9550   74.1700  220.7850 C   0  0  0  0  0  0  0  0  0  0  0  0
  145.7660   73.0770  221.0930 C   0  0  0  0  0  0  0  0  0  0  0  0
  146.0850   72.1590  220.0930 C   0  0  0  0  0  0  0  0  0  0  0  0
  145.6120   72.3380  218.8310 N   0  0  0  0  0  0  0  0  0  0  0  0
  144.8170   73.3910  218.5050 C   0  0  0  0  0  0  0  0  0  0  0  0
  140.4110   75.9310  220.9860 N   0  0  0  0  0  0  0  0  0  0  0  0
  140.1810   77.3840  220.7790 C   0  0  0  0  0  0  0  0  0  0  0  0
  141.1220   78.2990  221.6120 C   0  0  0  0  0  0  0  0  0  0  0  0
  141.3020   79.7230  221.0230 C   0  0  0  0  0  0  0  0  0  0  0  0
  141.8710   80.7410  222.0360 C   0  0  0  0  0  0  0  0  0  0  0  0
  142.6790   80.0650  223.1480 C   0  0  0  0  0  0  0  0  0  0  0  0
  141.8170   79.0640  223.9450 C   0  0  0  0  0  0  0  0  0  0  0  0
  140.7240   78.3790  223.0970 C   0  0  0  0  0  0  0  0  0  0  0  0
  137.6145   73.4357  222.6337 H   0  0  0  0  0  0  0  0  0  0  0  0
  138.0086   70.9933  222.9655 H   0  0  0  0  0  0  0  0  0  0  0  0
  140.1899   69.9752  222.3010 H   0  0  0  0  0  0  0  0  0  0  0  0
  141.9853   71.4004  221.3113 H   0  0  0  0  0  0  0  0  0  0  0  0
  142.9386   77.1145  220.3931 H   0  0  0  0  0  0  0  0  0  0  0  0
  143.6587   75.9583  218.1854 H   0  0  0  0  0  0  0  0  0  0  0  0
  144.7068   74.9043  221.5655 H   0  0  0  0  0  0  0  0  0  0  0  0
  146.1500   72.9409  222.1148 H   0  0  0  0  0  0  0  0  0  0  0  0
  146.7190   71.2905  220.3251 H   0  0  0  0  0  0  0  0  0  0  0  0
  144.4548   73.5056  217.4727 H   0  0  0  0  0  0  0  0  0  0  0  0
  140.3337   77.6098  219.7133 H   0  0  0  0  0  0  0  0  0  0  0  0
  139.1547   77.5943  221.1143 H   0  0  0  0  0  0  0  0  0  0  0  0
  142.1003   77.8003  221.5477 H   0  0  0  0  0  0  0  0  0  0  0  0
  141.9903   79.6614  220.1672 H   0  0  0  0  0  0  0  0  0  0  0  0
  140.3038   80.0809  220.7304 H   0  0  0  0  0  0  0  0  0  0  0  0
  142.5256   81.4445  221.5007 H   0  0  0  0  0  0  0  0  0  0  0  0
  141.0218   81.2597  222.5048 H   0  0  0  0  0  0  0  0  0  0  0  0
  143.5265   79.5275  222.6977 H   0  0  0  0  0  0  0  0  0  0  0  0
  143.0322   80.8437  223.8400 H   0  0  0  0  0  0  0  0  0  0  0  0
  142.4774   78.2860  224.3556 H   0  0  0  0  0  0  0  0  0  0  0  0
  141.3040   79.6352  224.7328 H   0  0  0  0  0  0  0  0  0  0  0  0
  140.5634   77.3598  223.4784 H   0  0  0  0  0  0  0  0  0  0  0  0
  139.8047   78.9781  223.1738 H   0  0  0  0  0  0  0  0  0  0  0  0
  1  2  2  0
  2  3  1  0
  3  4  2  0
  4  5  1  0
  5  6  2  0
  6  7  1  0
  7  8  2  0
  8  9  1  0
  9 10  2  0
 10 11  1  0
 11 12  2  0
 12 13  1  0
 13 14  2  0
 14 15  1  0
 15 16  2  0
 16 17  1  0
 17 18  2  0
 10 19  1  0
 19 20  1  0
 20 21  1  0
 21 22  1  0
 22 23  1  0
 23 24  1  0
 24 25  1  0
 25 26  1  0
 19  2  1  0
 26 21  1  0
  8  3  1  0
 18 13  1  0
  4 27  1  0
  5 28  1  0
  6 29  1  0
  7 30  1  0
 11 31  1  0
 12 32  1  0
 14 33  1  0
 15 34  1  0
 16 35  1  0
 18 36  1  0
 20 37  1  0
 20 38  1  0
 21 39  1  0
 22 40  1  0
 22 41  1  0
 23 42  1  0
 23 43  1  0
 24 44  1  0
 24 45  1  0
 25 46  1  0
 25 47  1  0
 26 48  1  0
 26 49  1  0
M  END
>  <meeko>  (8) 
{"free_energy": -7.12, "intermolecular_energy": -8.61, "internal_energy": -1.3, "cluster_size": 5, "cluster_id": 2, "rank_in_cluster": 5}

$$$$

     RDKit          3D

 49 52  0  0  0  0  0  0  0  0999 V2000
  138.3760   75.7250  222.0220 O   0  0  0  0  0  0  0  0  0  0  0  0
  139.4490   75.1980  221.6140 C   0  0  0  0  0  0  0  0  0  0  0  0
  139.6360   73.8170  221.7830 C   0  0  0  0  0  0  0  0  0  0  0  0
  138.6510   72.9850  222.3500 C   0  0  0  0  0  0  0  0  0  0  0  0
  138.8890   71.6150  222.4980 C   0  0  0  0  0  0  0  0  0  0  0  0
  140.1070   71.0660  222.0870 C   0  0  0  0  0  0  0  0  0  0  0  0
  141.0910   71.8860  221.5280 C   0  0  0  0  0  0  0  0  0  0  0  0
  140.8550   73.2580  221.3750 C   0  0  0  0  0  0  0  0  0  0  0  0
  141.8100   74.0530  220.8440 N   0  0  0  0  0  0  0  0  0  0  0  0
  141.6310   75.3900  220.6680 C   0  0  0  0  0  0  0  0  0  0  0  0
  142.7620   76.1620  220.0760 C   0  0  0  0  0  0  0  0  0  0  0  0
  143.6210   75.6150  219.2020 C   0  0  0  0  0  0  0  0  0  0  0  0
  144.4640   74.4320  219.5060 C   0  0  0  0  0  0  0  0  0  0  0  0
  144.9540   74.2660  220.8090 C   0  0  0  0  0  0  0  0  0  0  0  0
  145.7570   73.1700  221.1260 C   0  0  0  0  0  0  0  0  0  0  0  0
  146.0770   72.2470  220.1310 C   0  0  0  0  0  0  0  0  0  0  0  0
  145.6150   72.4240  218.8660 N   0  0  0  0  0  0  0  0  0  0  0  0
  144.8280   73.4820  218.5300 C   0  0  0  0  0  0  0  0  0  0  0  0
  140.4270   75.9750  221.0280 N   0  0  0  0  0  0  0  0  0  0  0  0
  140.1790   77.4310  220.8610 C   0  0  0  0  0  0  0  0  0  0  0  0
  141.1630   78.3360  221.6550 C   0  0  0  0  0  0  0  0  0  0  0  0
  141.5110   79.6690  220.9420 C   0  0  0  0  0  0  0  0  0  0  0  0
  142.1250   80.7290  221.8820 C   0  0  0  0  0  0  0  0  0  0  0  0
  142.8070   80.0990  223.1020 C   0  0  0  0  0  0  0  0  0  0  0  0
  141.8120   79.2700  223.9400 C   0  0  0  0  0  0  0  0  0  0  0  0
  140.7010   78.6050  223.0990 C   0  0  0  0  0  0  0  0  0  0  0  0
  137.6923   73.4139  222.6771 H   0  0  0  0  0  0  0  0  0  0  0  0
  138.1162   70.9681  222.9387 H   0  0  0  0  0  0  0  0  0  0  0  0
  140.2911   69.9878  222.2036 H   0  0  0  0  0  0  0  0  0  0  0  0
  142.0507   71.4539  221.2082 H   0  0  0  0  0  0  0  0  0  0  0  0
  142.8963   77.2147  220.3655 H   0  0  0  0  0  0  0  0  0  0  0  0
  143.7050   76.0692  218.2037 H   0  0  0  0  0  0  0  0  0  0  0  0
  144.7040   75.0038  221.5856 H   0  0  0  0  0  0  0  0  0  0  0  0
  146.1339   73.0354  222.1506 H   0  0  0  0  0  0  0  0  0  0  0  0
  146.7037   71.3753  220.3706 H   0  0  0  0  0  0  0  0  0  0  0  0
  144.4750   73.5963  217.4945 H   0  0  0  0  0  0  0  0  0  0  0  0
  140.2688   77.6767  219.7926 H   0  0  0  0  0  0  0  0  0  0  0  0
  139.1728   77.6298  221.2586 H   0  0  0  0  0  0  0  0  0  0  0  0
  142.0897   77.7449  221.6975 H   0  0  0  0  0  0  0  0  0  0  0  0
  142.2322   79.4563  220.1391 H   0  0  0  0  0  0  0  0  0  0  0  0
  140.5684   80.0854  220.5571 H   0  0  0  0  0  0  0  0  0  0  0  0
  142.8712   81.3102  221.3204 H   0  0  0  0  0  0  0  0  0  0  0  0
  141.3083   81.3695  222.2462 H   0  0  0  0  0  0  0  0  0  0  0  0
  143.6191   79.4417  222.7579 H   0  0  0  0  0  0  0  0  0  0  0  0
  143.2002   80.9087  223.7343 H   0  0  0  0  0  0  0  0  0  0  0  0
  142.3713   78.4809  224.4639 H   0  0  0  0  0  0  0  0  0  0  0  0
  141.3185   79.9646  224.6357 H   0  0  0  0  0  0  0  0  0  0  0  0
  140.4226   77.6497  223.5679 H   0  0  0  0  0  0  0  0  0  0  0  0
  139.8421   79.2913  223.0618 H   0  0  0  0  0  0  0  0  0  0  0  0
  1  2  2  0
  2  3  1  0
  3  4  2  0
  4  5  1  0
  5  6  2  0
  6  7  1  0
  7  8  2  0
  8  9  1  0
  9 10  2  0
 10 11  1  0
 11 12  2  0
 12 13  1  0
 13 14  2  0
 14 15  1  0
 15 16  2  0
 16 17  1  0
 17 18  2  0
 10 19  1  0
 19 20  1  0
 20 21  1  0
 21 22  1  0
 22 23  1  0
 23 24  1  0
 24 25  1  0
 25 26  1  0
 19  2  1  0
 26 21  1  0
  8  3  1  0
 18 13  1  0
  4 27  1  0
  5 28  1  0
  6 29  1  0
  7 30  1  0
 11 31  1  0
 12 32  1  0
 14 33  1  0
 15 34  1  0
 16 35  1  0
 18 36  1  0
 20 37  1  0
 20 38  1  0
 21 39  1  0
 22 40  1  0
 22 41  1  0
 23 42  1  0
 23 43  1  0
 24 44  1  0
 24 45  1  0
 25 46  1  0
 25 47  1  0
 26 48  1  0
 26 49  1  0
M  END
>  <meeko>  (9) 
{"free_energy": -7.14, "intermolecular_energy": -8.63, "internal_energy": -1.3, "cluster_size": 5, "cluster_id": 2, "rank_in_cluster": 1}

$$$$

     RDKit          3D

 49 52  0  0  0  0  0  0  0  0999 V2000
  143.3230   77.2400  219.2100 O   0  0  0  0  0  0  0  0  0  0  0  0
  142.5180   76.5600  219.9060 C   0  0  0  0  0  0  0  0  0  0  0  0
  142.8260   75.2190  220.1870 C   0  0  0  0  0  0  0  0  0  0  0  0
  144.0240   74.6140  219.7580 C   0  0  0  0  0  0  0  0  0  0  0  0
  144.2800   73.2730  220.0610 C   0  0  0  0  0  0  0  0  0  0  0  0
  143.3480   72.5280  220.7890 C   0  0  0  0  0  0  0  0  0  0  0  0
  142.1560   73.1200  221.2140 C   0  0  0  0  0  0  0  0  0  0  0  0
  141.8960   74.4640  220.9130 C   0  0  0  0  0  0  0  0  0  0  0  0
  140.7390   75.0340  221.3150 N   0  0  0  0  0  0  0  0  0  0  0  0
  140.4390   76.3360  221.0560 C   0  0  0  0  0  0  0  0  0  0  0  0
  139.1280   76.8490  221.5470 C   0  0  0  0  0  0  0  0  0  0  0  0
  139.0020   77.4790  222.7260 C   0  0  0  0  0  0  0  0  0  0  0  0
  138.5540   78.8870  222.8630 C   0  0  0  0  0  0  0  0  0  0  0  0
  138.8890   79.5940  224.0270 C   0  0  0  0  0  0  0  0  0  0  0  0
  138.4750   80.9170  224.1920 C   0  0  0  0  0  0  0  0  0  0  0  0
  137.7150   81.5240  223.1930 C   0  0  0  0  0  0  0  0  0  0  0  0
  137.3780   80.8270  222.0770 N   0  0  0  0  0  0  0  0  0  0  0  0
  137.7710   79.5390  221.8890 C   0  0  0  0  0  0  0  0  0  0  0  0
  141.3480   77.1260  220.3680 N   0  0  0  0  0  0  0  0  0  0  0  0
  141.0700   78.5510  220.0560 C   0  0  0  0  0  0  0  0  0  0  0  0
  141.2360   79.5100  221.2680 C   0  0  0  0  0  0  0  0  0  0  0  0
  142.2280   79.0000  222.3460 C   0  0  0  0  0  0  0  0  0  0  0  0
  142.7100   80.1040  223.3120 C   0  0  0  0  0  0  0  0  0  0  0  0
  141.7140   81.2640  223.4120 C   0  0  0  0  0  0  0  0  0  0  0  0
  141.4820   81.9300  222.0410 C   0  0  0  0  0  0  0  0  0  0  0  0
  141.5900   80.9500  220.8530 C   0  0  0  0  0  0  0  0  0  0  0  0
  144.7590   75.1973  219.1839 H   0  0  0  0  0  0  0  0  0  0  0  0
  145.2166   72.8036  219.7258 H   0  0  0  0  0  0  0  0  0  0  0  0
  143.5533   71.4740  221.0277 H   0  0  0  0  0  0  0  0  0  0  0  0
  141.4221   72.5318  221.7844 H   0  0  0  0  0  0  0  0  0  0  0  0
  138.2339   76.7066  220.9223 H   0  0  0  0  0  0  0  0  0  0  0  0
  139.2445   76.9200  223.6418 H   0  0  0  0  0  0  0  0  0  0  0  0
  139.4809   79.1036  224.8139 H   0  0  0  0  0  0  0  0  0  0  0  0
  138.7456   81.4747  225.1007 H   0  0  0  0  0  0  0  0  0  0  0  0
  137.3881   82.5679  223.3087 H   0  0  0  0  0  0  0  0  0  0  0  0
  137.4769   79.0041  220.9739 H   0  0  0  0  0  0  0  0  0  0  0  0
  141.7620   78.8726  219.2637 H   0  0  0  0  0  0  0  0  0  0  0  0
  140.0156   78.6085  219.7481 H   0  0  0  0  0  0  0  0  0  0  0  0
  140.2385   79.5238  221.7314 H   0  0  0  0  0  0  0  0  0  0  0  0
  141.7294   78.2158  222.9346 H   0  0  0  0  0  0  0  0  0  0  0  0
  143.1156   78.6238  221.8163 H   0  0  0  0  0  0  0  0  0  0  0  0
  142.8440   79.6655  224.3119 H   0  0  0  0  0  0  0  0  0  0  0  0
  143.6560   80.5053  222.9195 H   0  0  0  0  0  0  0  0  0  0  0  0
  140.7549   80.8799  223.7896 H   0  0  0  0  0  0  0  0  0  0  0  0
  142.1305   82.0183  224.0958 H   0  0  0  0  0  0  0  0  0  0  0  0
  140.4755   82.3738  222.0356 H   0  0  0  0  0  0  0  0  0  0  0  0
  142.2719   82.6843  221.9104 H   0  0  0  0  0  0  0  0  0  0  0  0
  140.8985   81.2728  220.0607 H   0  0  0  0  0  0  0  0  0  0  0  0
  142.6304   80.9578  220.4958 H   0  0  0  0  0  0  0  0  0  0  0  0
  1  2  2  0
  2  3  1  0
  3  4  2  0
  4  5  1  0
  5  6  2  0
  6  7  1  0
  7  8  2  0
  8  9  1  0
  9 10  2  0
 10 11  1  0
 11 12  2  0
 12 13  1  0
 13 14  2  0
 14 15  1  0
 15 16  2  0
 16 17  1  0
 17 18  2  0
 10 19  1  0
 19 20  1  0
 20 21  1  0
 21 22  1  0
 22 23  1  0
 23 24  1  0
 24 25  1  0
 25 26  1  0
 19  2  1  0
 26 21  1  0
  8  3  1  0
 18 13  1  0
  4 27  1  0
  5 28  1  0
  6 29  1  0
  7 30  1  0
 11 31  1  0
 12 32  1  0
 14 33  1  0
 15 34  1  0
 16 35  1  0
 18 36  1  0
 20 37  1  0
 20 38  1  0
 21 39  1  0
 22 40  1  0
 22 41  1  0
 23 42  1  0
 23 43  1  0
 24 44  1  0
 24 45  1  0
 25 46  1  0
 25 47  1  0
 26 48  1  0
 26 49  1  0
M  END
>  <meeko>  (10) 
{"free_energy": -6.25, "intermolecular_energy": -7.74, "internal_energy": -1.94, "cluster_size": 3, "cluster_id": 6, "rank_in_cluster": 2}

$$$$

     RDKit          3D

 49 52  0  0  0  0  0  0  0  0999 V2000
  139.2000   67.6340  225.6320 O   0  0  0  0  0  0  0  0  0  0  0  0
  139.5150   68.7930  225.2430 C   0  0  0  0  0  0  0  0  0  0  0  0
  140.1290   69.6720  226.1490 C   0  0  0  0  0  0  0  0  0  0  0  0
  140.4500   69.2940  227.4680 C   0  0  0  0  0  0  0  0  0  0  0  0
  141.0590   70.2090  228.3320 C   0  0  0  0  0  0  0  0  0  0  0  0
  141.3490   71.5040  227.8920 C   0  0  0  0  0  0  0  0  0  0  0  0
  141.0290   71.8870  226.5860 C   0  0  0  0  0  0  0  0  0  0  0  0
  140.4210   70.9730  225.7170 C   0  0  0  0  0  0  0  0  0  0  0  0
  140.1030   71.3460  224.4590 N   0  0  0  0  0  0  0  0  0  0  0  0
  139.5170   70.4970  223.5710 C   0  0  0  0  0  0  0  0  0  0  0  0
  139.2090   71.0280  222.2130 C   0  0  0  0  0  0  0  0  0  0  0  0
  140.1480   71.5880  221.4340 C   0  0  0  0  0  0  0  0  0  0  0  0
  140.4490   73.0410  221.4220 C   0  0  0  0  0  0  0  0  0  0  0  0
  141.6540   73.4790  220.8550 C   0  0  0  0  0  0  0  0  0  0  0  0
  141.9720   74.8380  220.8360 C   0  0  0  0  0  0  0  0  0  0  0  0
  141.0840   75.7550  221.3980 C   0  0  0  0  0  0  0  0  0  0  0  0
  139.9280   75.3210  221.9640 N   0  0  0  0  0  0  0  0  0  0  0  0
  139.5920   74.0040  221.9930 C   0  0  0  0  0  0  0  0  0  0  0  0
  139.2420   69.1910  223.9500 N   0  0  0  0  0  0  0  0  0  0  0  0
  138.6010   68.2230  223.0240 C   0  0  0  0  0  0  0  0  0  0  0  0
  137.0600   68.3900  222.8990 C   0  0  0  0  0  0  0  0  0  0  0  0
  136.4270   69.2620  224.0150 C   0  0  0  0  0  0  0  0  0  0  0  0
  135.0110   69.7710  223.6690 C   0  0  0  0  0  0  0  0  0  0  0  0
  134.3030   68.8740  222.6490 C   0  0  0  0  0  0  0  0  0  0  0  0
  135.0910   68.7900  221.3260 C   0  0  0  0  0  0  0  0  0  0  0  0
  136.6200   68.8920  221.5110 C   0  0  0  0  0  0  0  0  0  0  0  0
  140.2209   68.2768  227.8186 H   0  0  0  0  0  0  0  0  0  0  0  0
  141.3105   69.9094  229.3601 H   0  0  0  0  0  0  0  0  0  0  0  0
  141.8290   72.2217  228.5735 H   0  0  0  0  0  0  0  0  0  0  0  0
  141.2550   72.9068  226.2411 H   0  0  0  0  0  0  0  0  0  0  0  0
  138.1778   70.9588  221.8364 H   0  0  0  0  0  0  0  0  0  0  0  0
  140.7271   70.9326  220.7668 H   0  0  0  0  0  0  0  0  0  0  0  0
  142.3528   72.7477  220.4227 H   0  0  0  0  0  0  0  0  0  0  0  0
  142.9132   75.1822  220.3825 H   0  0  0  0  0  0  0  0  0  0  0  0
  141.3197   76.8293  221.3829 H   0  0  0  0  0  0  0  0  0  0  0  0
  138.6489   73.6888  222.4633 H   0  0  0  0  0  0  0  0  0  0  0  0
  139.0448   68.3536  222.0260 H   0  0  0  0  0  0  0  0  0  0  0  0
  138.7790   67.2203  223.4398 H   0  0  0  0  0  0  0  0  0  0  0  0
  136.6714   67.3695  223.0316 H   0  0  0  0  0  0  0  0  0  0  0  0
  136.3662   68.6610  224.9343 H   0  0  0  0  0  0  0  0  0  0  0  0
  137.0685   70.1472  224.1375 H   0  0  0  0  0  0  0  0  0  0  0  0
  134.4110   69.8006  224.5905 H   0  0  0  0  0  0  0  0  0  0  0  0
  135.1130   70.7714  223.2232 H   0  0  0  0  0  0  0  0  0  0  0  0
  134.2037   67.8628  223.0706 H   0  0  0  0  0  0  0  0  0  0  0  0
  133.3152   69.3082  222.4350 H   0  0  0  0  0  0  0  0  0  0  0  0
  134.8622   67.8275  220.8452 H   0  0  0  0  0  0  0  0  0  0  0  0
  134.7821   69.6482  220.7111 H   0  0  0  0  0  0  0  0  0  0  0  0
  137.1140   68.2840  220.7388 H   0  0  0  0  0  0  0  0  0  0  0  0
  136.9066   69.9503  221.4221 H   0  0  0  0  0  0  0  0  0  0  0  0
  1  2  2  0
  2  3  1  0
  3  4  2  0
  4  5  1  0
  5  6  2  0
  6  7  1  0
  7  8  2  0
  8  9  1  0
  9 10  2  0
 10 11  1  0
 11 12  2  0
 12 13  1  0
 13 14  2  0
 14 15  1  0
 15 16  2  0
 16 17  1  0
 17 18  2  0
 10 19  1  0
 19 20  1  0
 20 21  1  0
 21 22  1  0
 22 23  1  0
 23 24  1  0
 24 25  1  0
 25 26  1  0
 19  2  1  0
 26 21  1  0
  8  3  1  0
 18 13  1  0
  4 27  1  0
  5 28  1  0
  6 29  1  0
  7 30  1  0
 11 31  1  0
 12 32  1  0
 14 33  1  0
 15 34  1  0
 16 35  1  0
 18 36  1  0
 20 37  1  0
 20 38  1  0
 21 39  1  0
 22 40  1  0
 22 41  1  0
 23 42  1  0
 23 43  1  0
 24 44  1  0
 24 45  1  0
 25 46  1  0
 25 47  1  0
 26 48  1  0
 26 49  1  0
M  END
>  <meeko>  (11) 
{"free_energy": -7.11, "intermolecular_energy": -8.6, "internal_energy": -1.31, "cluster_size": 7, "cluster_id": 1, "rank_in_cluster": 2}

$$$$

     RDKit          3D

 49 52  0  0  0  0  0  0  0  0999 V2000
  138.8780   67.7520  225.7770 O   0  0  0  0  0  0  0  0  0  0  0  0
  139.3240   68.8340  225.3010 C   0  0  0  0  0  0  0  0  0  0  0  0
  139.9630   69.7430  226.1600 C   0  0  0  0  0  0  0  0  0  0  0  0
  140.1650   69.4750  227.5280 C   0  0  0  0  0  0  0  0  0  0  0  0
  140.8040   70.4160  228.3410 C   0  0  0  0  0  0  0  0  0  0  0  0
  141.2410   71.6280  227.8000 C   0  0  0  0  0  0  0  0  0  0  0  0
  141.0400   71.9040  226.4450 C   0  0  0  0  0  0  0  0  0  0  0  0
  140.4020   70.9620  225.6270 C   0  0  0  0  0  0  0  0  0  0  0  0
  140.1980   71.2320  224.3190 N   0  0  0  0  0  0  0  0  0  0  0  0
  139.5910   70.3510  223.4780 C   0  0  0  0  0  0  0  0  0  0  0  0
  139.4180   70.7660  222.0560 C   0  0  0  0  0  0  0  0  0  0  0  0
  138.6300   71.7940  221.7020 C   0  0  0  0  0  0  0  0  0  0  0  0
  139.0190   73.2180  221.8460 C   0  0  0  0  0  0  0  0  0  0  0  0
  138.0130   74.1890  221.9440 C   0  0  0  0  0  0  0  0  0  0  0  0
  138.3450   75.5390  222.0710 C   0  0  0  0  0  0  0  0  0  0  0  0
  139.6880   75.9130  222.0870 C   0  0  0  0  0  0  0  0  0  0  0  0
  140.6580   74.9690  221.9710 N   0  0  0  0  0  0  0  0  0  0  0  0
  140.3630   73.6470  221.8500 C   0  0  0  0  0  0  0  0  0  0  0  0
  139.1710   69.1210  223.9600 N   0  0  0  0  0  0  0  0  0  0  0  0
  138.4990   68.1230  223.0880 C   0  0  0  0  0  0  0  0  0  0  0  0
  137.0740   68.5420  222.6270 C   0  0  0  0  0  0  0  0  0  0  0  0
  136.2560   67.3930  221.9810 C   0  0  0  0  0  0  0  0  0  0  0  0
  134.7400   67.6790  221.9140 C   0  0  0  0  0  0  0  0  0  0  0  0
  134.4300   69.1790  221.9180 C   0  0  0  0  0  0  0  0  0  0  0  0
  134.9650   69.8640  223.1920 C   0  0  0  0  0  0  0  0  0  0  0  0
  136.2570   69.2220  223.7410 C   0  0  0  0  0  0  0  0  0  0  0  0
  139.8192   68.5232  227.9576 H   0  0  0  0  0  0  0  0  0  0  0  0
  140.9630   70.2019  229.4082 H   0  0  0  0  0  0  0  0  0  0  0  0
  141.7441   72.3661  228.4419 H   0  0  0  0  0  0  0  0  0  0  0  0
  141.3822   72.8596  226.0210 H   0  0  0  0  0  0  0  0  0  0  0  0
  139.9536   70.2116  221.2713 H   0  0  0  0  0  0  0  0  0  0  0  0
  137.6394   71.5671  221.2811 H   0  0  0  0  0  0  0  0  0  0  0  0
  136.9559   73.8856  221.9207 H   0  0  0  0  0  0  0  0  0  0  0  0
  137.5552   76.2998  222.1575 H   0  0  0  0  0  0  0  0  0  0  0  0
  139.9623   76.9729  222.1936 H   0  0  0  0  0  0  0  0  0  0  0  0
  141.1743   72.9103  221.7550 H   0  0  0  0  0  0  0  0  0  0  0  0
  139.1210   67.9710  222.1935 H   0  0  0  0  0  0  0  0  0  0  0  0
  138.3832   67.2063  223.6848 H   0  0  0  0  0  0  0  0  0  0  0  0
  137.2592   69.2854  221.8377 H   0  0  0  0  0  0  0  0  0  0  0  0
  136.6261   67.2348  220.9573 H   0  0  0  0  0  0  0  0  0  0  0  0
  136.3901   66.5040  222.6148 H   0  0  0  0  0  0  0  0  0  0  0  0
  134.3373   67.2371  220.9907 H   0  0  0  0  0  0  0  0  0  0  0  0
  134.2747   67.2371  222.8074 H   0  0  0  0  0  0  0  0  0  0  0  0
  134.8999   69.6433  221.0385 H   0  0  0  0  0  0  0  0  0  0  0  0
  133.3376   69.3054  221.8913 H   0  0  0  0  0  0  0  0  0  0  0  0
  135.1723   70.9189  222.9591 H   0  0  0  0  0  0  0  0  0  0  0  0
  134.1933   69.7515  223.9678 H   0  0  0  0  0  0  0  0  0  0  0  0
  136.8732   70.0046  224.2077 H   0  0  0  0  0  0  0  0  0  0  0  0
  135.9725   68.4535  224.4749 H   0  0  0  0  0  0  0  0  0  0  0  0
  1  2  2  0
  2  3  1  0
  3  4  2  0
  4  5  1  0
  5  6  2  0
  6  7  1  0
  7  8  2  0
  8  9  1  0
  9 10  2  0
 10 11  1  0
 11 12  2  0
 12 13  1  0
 13 14  2  0
 14 15  1  0
 15 16  2  0
 16 17  1  0
 17 18  2  0
 10 19  1  0
 19 20  1  0
 20 21  1  0
 21 22  1  0
 22 23  1  0
 23 24  1  0
 24 25  1  0
 25 26  1  0
 19  2  1  0
 26 21  1  0
  8  3  1  0
 18 13  1  0
  4 27  1  0
  5 28  1  0
  6 29  1  0
  7 30  1  0
 11 31  1  0
 12 32  1  0
 14 33  1  0
 15 34  1  0
 16 35  1  0
 18 36  1  0
 20 37  1  0
 20 38  1  0
 21 39  1  0
 22 40  1  0
 22 41  1  0
 23 42  1  0
 23 43  1  0
 24 44  1  0
 24 45  1  0
 25 46  1  0
 25 47  1  0
 26 48  1  0
 26 49  1  0
M  END
>  <meeko>  (12) 
{"free_energy": -6.96, "intermolecular_energy": -8.45, "internal_energy": -1.42, "cluster_size": 7, "cluster_id": 1, "rank_in_cluster": 4}

$$$$

     RDKit          3D

 49 52  0  0  0  0  0  0  0  0999 V2000
  140.9400   73.0180  222.3250 O   0  0  0  0  0  0  0  0  0  0  0  0
  139.7690   73.4760  222.2030 C   0  0  0  0  0  0  0  0  0  0  0  0
  139.6000   74.8310  221.8780 C   0  0  0  0  0  0  0  0  0  0  0  0
  140.6890   75.6930  221.6380 C   0  0  0  0  0  0  0  0  0  0  0  0
  140.4650   77.0360  221.3210 C   0  0  0  0  0  0  0  0  0  0  0  0
  139.1590   77.5300  221.2430 C   0  0  0  0  0  0  0  0  0  0  0  0
  138.0740   76.6830  221.4840 C   0  0  0  0  0  0  0  0  0  0  0  0
  138.2950   75.3360  221.8000 C   0  0  0  0  0  0  0  0  0  0  0  0
  137.2470   74.5190  222.0430 N   0  0  0  0  0  0  0  0  0  0  0  0
  137.4030   73.2020  222.3480 C   0  0  0  0  0  0  0  0  0  0  0  0
  136.1700   72.4040  222.6010 C   0  0  0  0  0  0  0  0  0  0  0  0
  135.7020   72.1830  223.8410 C   0  0  0  0  0  0  0  0  0  0  0  0
  135.0880   73.2340  224.6890 C   0  0  0  0  0  0  0  0  0  0  0  0
  135.4490   74.5720  224.4780 C   0  0  0  0  0  0  0  0  0  0  0  0
  134.8960   75.5840  225.2640 C   0  0  0  0  0  0  0  0  0  0  0  0
  133.9910   75.2500  226.2700 C   0  0  0  0  0  0  0  0  0  0  0  0
  133.6610   73.9490  226.4820 N   0  0  0  0  0  0  0  0  0  0  0  0
  134.1810   72.9440  225.7290 C   0  0  0  0  0  0  0  0  0  0  0  0
  138.6770   72.6570  222.4030 N   0  0  0  0  0  0  0  0  0  0  0  0
  138.9060   71.2270  222.7340 C   0  0  0  0  0  0  0  0  0  0  0  0
  139.2730   70.9730  224.2240 C   0  0  0  0  0  0  0  0  0  0  0  0
  138.8050   69.5950  224.7630 C   0  0  0  0  0  0  0  0  0  0  0  0
  139.5150   69.1710  226.0670 C   0  0  0  0  0  0  0  0  0  0  0  0
  140.0410   70.3720  226.8590 C   0  0  0  0  0  0  0  0  0  0  0  0
  141.0550   71.1930  226.0370 C   0  0  0  0  0  0  0  0  0  0  0  0
  140.7690   71.1850  224.5200 C   0  0  0  0  0  0  0  0  0  0  0  0
  141.7176   75.3081  221.7003 H   0  0  0  0  0  0  0  0  0  0  0  0
  141.3174   77.7053  221.1326 H   0  0  0  0  0  0  0  0  0  0  0  0
  138.9856   78.5868  220.9916 H   0  0  0  0  0  0  0  0  0  0  0  0
  137.0473   77.0734  221.4257 H   0  0  0  0  0  0  0  0  0  0  0  0
  135.6248   71.9818  221.7439 H   0  0  0  0  0  0  0  0  0  0  0  0
  135.7785   71.1650  224.2506 H   0  0  0  0  0  0  0  0  0  0  0  0
  136.1720   74.8256  223.6887 H   0  0  0  0  0  0  0  0  0  0  0  0
  135.1716   76.6348  225.0913 H   0  0  0  0  0  0  0  0  0  0  0  0
  133.5440   76.0394  226.8922 H   0  0  0  0  0  0  0  0  0  0  0  0
  133.8935   71.9017  225.9314 H   0  0  0  0  0  0  0  0  0  0  0  0
  137.9874   70.6674  222.5039 H   0  0  0  0  0  0  0  0  0  0  0  0
  139.7660   70.8953  222.1336 H   0  0  0  0  0  0  0  0  0  0  0  0
  138.7055   71.7403  224.7709 H   0  0  0  0  0  0  0  0  0  0  0  0
  137.7232   69.6456  224.9560 H   0  0  0  0  0  0  0  0  0  0  0  0
  139.0574   68.8455  223.9984 H   0  0  0  0  0  0  0  0  0  0  0  0
  138.8008   68.6183  226.6951 H   0  0  0  0  0  0  0  0  0  0  0  0
  140.3769   68.5449  225.7928 H   0  0  0  0  0  0  0  0  0  0  0  0
  139.1941   71.0192  227.1306 H   0  0  0  0  0  0  0  0  0  0  0  0
  140.5510   69.9951  227.7578 H   0  0  0  0  0  0  0  0  0  0  0  0
  141.0281   72.2342  226.3908 H   0  0  0  0  0  0  0  0  0  0  0  0
  142.0412   70.7280  226.1825 H   0  0  0  0  0  0  0  0  0  0  0  0
  141.0840   72.1484  224.0927 H   0  0  0  0  0  0  0  0  0  0  0  0
  141.3292   70.3523  224.0697 H   0  0  0  0  0  0  0  0  0  0  0  0
  1  2  2  0
  2  3  1  0
  3  4  2  0
  4  5  1  0
  5  6  2  0
  6  7  1  0
  7  8  2  0
  8  9  1  0
  9 10  2  0
 10 11  1  0
 11 12  2  0
 12 13  1  0
 13 14  2  0
 14 15  1  0
 15 16  2  0
 16 17  1  0
 17 18  2  0
 10 19  1  0
 19 20  1  0
 20 21  1  0
 21 22  1  0
 22 23  1  0
 23 24  1  0
 24 25  1  0
 25 26  1  0
 19  2  1  0
 26 21  1  0
  8  3  1  0
 18 13  1  0
  4 27  1  0
  5 28  1  0
  6 29  1  0
  7 30  1  0
 11 31  1  0
 12 32  1  0
 14 33  1  0
 15 34  1  0
 16 35  1  0
 18 36  1  0
 20 37  1  0
 20 38  1  0
 21 39  1  0
 22 40  1  0
 22 41  1  0
 23 42  1  0
 23 43  1  0
 24 44  1  0
 24 45  1  0
 25 46  1  0
 25 47  1  0
 26 48  1  0
 26 49  1  0
M  END
>  <meeko>  (13) 
{"free_energy": -6.8, "intermolecular_energy": -8.29, "internal_energy": -1.33, "cluster_size": 1, "cluster_id": 5, "rank_in_cluster": 1}

$$$$

     RDKit          3D

 49 52  0  0  0  0  0  0  0  0999 V2000
  138.7430   76.9820  222.6770 O   0  0  0  0  0  0  0  0  0  0  0  0
  139.8510   77.2090  222.1140 C   0  0  0  0  0  0  0  0  0  0  0  0
  140.5820   78.3480  222.4860 C   0  0  0  0  0  0  0  0  0  0  0  0
  140.1490   79.2260  223.4990 C   0  0  0  0  0  0  0  0  0  0  0  0
  140.9140   80.3500  223.8290 C   0  0  0  0  0  0  0  0  0  0  0  0
  142.1100   80.6070  223.1540 C   0  0  0  0  0  0  0  0  0  0  0  0
  142.5440   79.7420  222.1450 C   0  0  0  0  0  0  0  0  0  0  0  0
  141.7820   78.6150  221.8130 C   0  0  0  0  0  0  0  0  0  0  0  0
  142.1960   77.7860  220.8310 N   0  0  0  0  0  0  0  0  0  0  0  0
  141.4980   76.6740  220.4720 C   0  0  0  0  0  0  0  0  0  0  0  0
  142.0540   75.8390  219.3690 C   0  0  0  0  0  0  0  0  0  0  0  0
  143.3720   75.7630  219.1250 C   0  0  0  0  0  0  0  0  0  0  0  0
  144.2030   74.5770  219.4490 C   0  0  0  0  0  0  0  0  0  0  0  0
  144.4460   74.2670  220.7950 C   0  0  0  0  0  0  0  0  0  0  0  0
  145.2300   73.1650  221.1350 C   0  0  0  0  0  0  0  0  0  0  0  0
  145.7800   72.3800  220.1220 C   0  0  0  0  0  0  0  0  0  0  0  0
  145.5570   72.6970  218.8200 N   0  0  0  0  0  0  0  0  0  0  0  0
  144.7940   73.7640  218.4610 C   0  0  0  0  0  0  0  0  0  0  0  0
  140.3230   76.3570  221.1370 N   0  0  0  0  0  0  0  0  0  0  0  0
  139.5190   75.1580  220.7840 C   0  0  0  0  0  0  0  0  0  0  0  0
  139.8500   73.9000  221.6370 C   0  0  0  0  0  0  0  0  0  0  0  0
  138.6080   73.0570  222.0280 C   0  0  0  0  0  0  0  0  0  0  0  0
  138.9550   71.6270  222.4910 C   0  0  0  0  0  0  0  0  0  0  0  0
  140.3830   71.5230  223.0390 C   0  0  0  0  0  0  0  0  0  0  0  0
  141.4260   71.9220  221.9760 C   0  0  0  0  0  0  0  0  0  0  0  0
  140.9260   73.0050  220.9950 C   0  0  0  0  0  0  0  0  0  0  0  0
  139.2073   79.0274  224.0317 H   0  0  0  0  0  0  0  0  0  0  0  0
  140.5732   81.0326  224.6214 H   0  0  0  0  0  0  0  0  0  0  0  0
  142.7105   81.4904  223.4166 H   0  0  0  0  0  0  0  0  0  0  0  0
  143.4841   79.9467  221.6119 H   0  0  0  0  0  0  0  0  0  0  0  0
  141.3616   75.2664  218.7343 H   0  0  0  0  0  0  0  0  0  0  0  0
  143.8639   76.6292  218.6583 H   0  0  0  0  0  0  0  0  0  0  0  0
  144.0155   74.8970  221.5874 H   0  0  0  0  0  0  0  0  0  0  0  0
  145.4127   72.9175  222.1911 H   0  0  0  0  0  0  0  0  0  0  0  0
  146.3944   71.5040  220.3773 H   0  0  0  0  0  0  0  0  0  0  0  0
  144.6377   73.9931  217.3965 H   0  0  0  0  0  0  0  0  0  0  0  0
  138.4555   75.4011  220.9247 H   0  0  0  0  0  0  0  0  0  0  0  0
  139.7622   74.9079  219.7408 H   0  0  0  0  0  0  0  0  0  0  0  0
  140.2615   74.3132  222.5697 H   0  0  0  0  0  0  0  0  0  0  0  0
  138.0828   73.5702  222.8470 H   0  0  0  0  0  0  0  0  0  0  0  0
  137.9846   72.9626  221.1266 H   0  0  0  0  0  0  0  0  0  0  0  0
  138.2502   71.3305  223.2818 H   0  0  0  0  0  0  0  0  0  0  0  0
  138.8809   70.9632  221.6170 H   0  0  0  0  0  0  0  0  0  0  0  0
  140.4827   72.1920  223.9065 H   0  0  0  0  0  0  0  0  0  0  0  0
  140.5668   70.4776  223.3279 H   0  0  0  0  0  0  0  0  0  0  0  0
  142.3188   72.3054  222.4916 H   0  0  0  0  0  0  0  0  0  0  0  0
  141.6405   71.0221  221.3809 H   0  0  0  0  0  0  0  0  0  0  0  0
  141.7773   73.6322  220.6919 H   0  0  0  0  0  0  0  0  0  0  0  0
  140.4793   72.5008  220.1253 H   0  0  0  0  0  0  0  0  0  0  0  0
  1  2  2  0
  2  3  1  0
  3  4  2  0
  4  5  1  0
  5  6  2  0
  6  7  1  0
  7  8  2  0
  8  9  1  0
  9 10  2  0
 10 11  1  0
 11 12  2  0
 12 13  1  0
 13 14  2  0
 14 15  1  0
 15 16  2  0
 16 17  1  0
 17 18  2  0
 10 19  1  0
 19 20  1  0
 20 21  1  0
 21 22  1  0
 22 23  1  0
 23 24  1  0
 24 25  1  0
 25 26  1  0
 19  2  1  0
 26 21  1  0
  8  3  1  0
 18 13  1  0
  4 27  1  0
  5 28  1  0
  6 29  1  0
  7 30  1  0
 11 31  1  0
 12 32  1  0
 14 33  1  0
 15 34  1  0
 16 35  1  0
 18 36  1  0
 20 37  1  0
 20 38  1  0
 21 39  1  0
 22 40  1  0
 22 41  1  0
 23 42  1  0
 23 43  1  0
 24 44  1  0
 24 45  1  0
 25 46  1  0
 25 47  1  0
 26 48  1  0
 26 49  1  0
M  END
>  <meeko>  (14) 
{"free_energy": -6.89, "intermolecular_energy": -8.38, "internal_energy": -1.48, "cluster_size": 1, "cluster_id": 4, "rank_in_cluster": 1}

$$$$

     RDKit          3D

 49 52  0  0  0  0  0  0  0  0999 V2000
  139.1990   67.3960  225.5910 O   0  0  0  0  0  0  0  0  0  0  0  0
  139.4640   68.5670  225.2000 C   0  0  0  0  0  0  0  0  0  0  0  0
  140.0000   69.4860  226.1180 C   0  0  0  0  0  0  0  0  0  0  0  0
  140.2950   69.1370  227.4500 C   0  0  0  0  0  0  0  0  0  0  0  0
  140.8240   70.0910  228.3250 C   0  0  0  0  0  0  0  0  0  0  0  0
  141.0600   71.3950  227.8810 C   0  0  0  0  0  0  0  0  0  0  0  0
  140.7650   71.7500  226.5620 C   0  0  0  0  0  0  0  0  0  0  0  0
  140.2370   70.7960  225.6820 C   0  0  0  0  0  0  0  0  0  0  0  0
  139.9430   71.1410  224.4100 N   0  0  0  0  0  0  0  0  0  0  0  0
  139.4340   70.2540  223.5120 C   0  0  0  0  0  0  0  0  0  0  0  0
  139.1450   70.7560  222.1380 C   0  0  0  0  0  0  0  0  0  0  0  0
  138.3970   71.8490  221.9190 C   0  0  0  0  0  0  0  0  0  0  0  0
  138.9320   73.2320  221.9490 C   0  0  0  0  0  0  0  0  0  0  0  0
  138.0320   74.3080  221.9420 C   0  0  0  0  0  0  0  0  0  0  0  0
  138.5030   75.6210  221.9600 C   0  0  0  0  0  0  0  0  0  0  0  0
  139.8770   75.8540  221.9740 C   0  0  0  0  0  0  0  0  0  0  0  0
  140.7440   74.8080  221.9610 N   0  0  0  0  0  0  0  0  0  0  0  0
  140.3130   73.5190  221.9460 C   0  0  0  0  0  0  0  0  0  0  0  0
  139.2160   68.9390  223.8950 N   0  0  0  0  0  0  0  0  0  0  0  0
  138.6590   67.9300  222.9570 C   0  0  0  0  0  0  0  0  0  0  0  0
  137.1980   68.2170  222.5120 C   0  0  0  0  0  0  0  0  0  0  0  0
  136.4480   66.9750  221.9630 C   0  0  0  0  0  0  0  0  0  0  0  0
  134.9150   67.1490  221.9210 C   0  0  0  0  0  0  0  0  0  0  0  0
  134.4990   68.6210  221.8380 C   0  0  0  0  0  0  0  0  0  0  0  0
  135.0140   69.4230  223.0510 C   0  0  0  0  0  0  0  0  0  0  0  0
  136.3610   68.9090  223.6030 C   0  0  0  0  0  0  0  0  0  0  0  0
  140.1089   68.1119  227.8029 H   0  0  0  0  0  0  0  0  0  0  0  0
  141.0547   69.8146  229.3644 H   0  0  0  0  0  0  0  0  0  0  0  0
  141.4785   72.1428  228.5707 H   0  0  0  0  0  0  0  0  0  0  0  0
  140.9472   72.7777  226.2148 H   0  0  0  0  0  0  0  0  0  0  0  0
  139.5584   70.2128  221.2754 H   0  0  0  0  0  0  0  0  0  0  0  0
  137.3268   71.7111  221.7052 H   0  0  0  0  0  0  0  0  0  0  0  0
  136.9492   74.1154  221.9222 H   0  0  0  0  0  0  0  0  0  0  0  0
  137.7967   76.4643  221.9631 H   0  0  0  0  0  0  0  0  0  0  0  0
  140.2596   76.8851  221.9956 H   0  0  0  0  0  0  0  0  0  0  0  0
  141.0437   72.6969  221.9315 H   0  0  0  0  0  0  0  0  0  0  0  0
  139.2948   67.9042  222.0597 H   0  0  0  0  0  0  0  0  0  0  0  0
  138.6445   66.9705  223.4947 H   0  0  0  0  0  0  0  0  0  0  0  0
  137.3120   68.9186  221.6724 H   0  0  0  0  0  0  0  0  0  0  0  0
  136.8039   66.7772  220.9411 H   0  0  0  0  0  0  0  0  0  0  0  0
  136.6598   66.1408  222.6480 H   0  0  0  0  0  0  0  0  0  0  0  0
  134.5230   66.6204  221.0396 H   0  0  0  0  0  0  0  0  0  0  0  0
  134.5037   66.7351  222.8535 H   0  0  0  0  0  0  0  0  0  0  0  0
  134.9139   69.0584  220.9180 H   0  0  0  0  0  0  0  0  0  0  0  0
  133.4001   68.6695  221.8334 H   0  0  0  0  0  0  0  0  0  0  0  0
  135.1405   70.4723  222.7462 H   0  0  0  0  0  0  0  0  0  0  0  0
  134.2707   69.3080  223.8537 H   0  0  0  0  0  0  0  0  0  0  0  0
  136.9307   69.7610  224.0024 H   0  0  0  0  0  0  0  0  0  0  0  0
  136.1490   68.1715  224.3912 H   0  0  0  0  0  0  0  0  0  0  0  0
  1  2  2  0
  2  3  1  0
  3  4  2  0
  4  5  1  0
  5  6  2  0
  6  7  1  0
  7  8  2  0
  8  9  1  0
  9 10  2  0
 10 11  1  0
 11 12  2  0
 12 13  1  0
 13 14  2  0
 14 15  1  0
 15 16  2  0
 16 17  1  0
 17 18  2  0
 10 19  1  0
 19 20  1  0
 20 21  1  0
 21 22  1  0
 22 23  1  0
 23 24  1  0
 24 25  1  0
 25 26  1  0
 19  2  1  0
 26 21  1  0
  8  3  1  0
 18 13  1  0
  4 27  1  0
  5 28  1  0
  6 29  1  0
  7 30  1  0
 11 31  1  0
 12 32  1  0
 14 33  1  0
 15 34  1  0
 16 35  1  0
 18 36  1  0
 20 37  1  0
 20 38  1  0
 21 39  1  0
 22 40  1  0
 22 41  1  0
 23 42  1  0
 23 43  1  0
 24 44  1  0
 24 45  1  0
 25 46  1  0
 25 47  1  0
 26 48  1  0
 26 49  1  0
M  END
>  <meeko>  (15) 
{"free_energy": -7.1, "intermolecular_energy": -8.59, "internal_energy": -1.35, "cluster_size": 7, "cluster_id": 1, "rank_in_cluster": 3}

$$$$

     RDKit          3D

 49 52  0  0  0  0  0  0  0  0999 V2000
  143.3170   77.2640  219.1830 O   0  0  0  0  0  0  0  0  0  0  0  0
  142.5200   76.5770  219.8810 C   0  0  0  0  0  0  0  0  0  0  0  0
  142.8490   75.2440  220.1750 C   0  0  0  0  0  0  0  0  0  0  0  0
  144.0600   74.6560  219.7580 C   0  0  0  0  0  0  0  0  0  0  0  0
  144.3380   73.3220  220.0750 C   0  0  0  0  0  0  0  0  0  0  0  0
  143.4150   72.5670  220.8040 C   0  0  0  0  0  0  0  0  0  0  0  0
  142.2100   73.1430  221.2170 C   0  0  0  0  0  0  0  0  0  0  0  0
  141.9290   74.4790  220.9040 C   0  0  0  0  0  0  0  0  0  0  0  0
  140.7600   75.0320  221.2940 N   0  0  0  0  0  0  0  0  0  0  0  0
  140.4390   76.3270  221.0220 C   0  0  0  0  0  0  0  0  0  0  0  0
  139.1170   76.8210  221.5010 C   0  0  0  0  0  0  0  0  0  0  0  0
  138.9550   77.3670  222.7170 C   0  0  0  0  0  0  0  0  0  0  0  0
  138.6230   78.7960  222.9410 C   0  0  0  0  0  0  0  0  0  0  0  0
  137.7950   79.4520  222.0190 C   0  0  0  0  0  0  0  0  0  0  0  0
  137.4700   80.7970  222.1940 C   0  0  0  0  0  0  0  0  0  0  0  0
  137.9880   81.4870  223.2900 C   0  0  0  0  0  0  0  0  0  0  0  0
  138.8050   80.8510  224.1690 N   0  0  0  0  0  0  0  0  0  0  0  0
  139.1350   79.5400  224.0240 C   0  0  0  0  0  0  0  0  0  0  0  0
  141.3370   77.1260  220.3320 N   0  0  0  0  0  0  0  0  0  0  0  0
  141.0370   78.5440  220.0050 C   0  0  0  0  0  0  0  0  0  0  0  0
  141.2230   79.5230  221.1990 C   0  0  0  0  0  0  0  0  0  0  0  0
  142.2140   79.0180  222.2810 C   0  0  0  0  0  0  0  0  0  0  0  0
  142.7160   80.1330  223.2230 C   0  0  0  0  0  0  0  0  0  0  0  0
  141.7380   81.3090  223.3070 C   0  0  0  0  0  0  0  0  0  0  0  0
  141.5080   81.9530  221.9240 C   0  0  0  0  0  0  0  0  0  0  0  0
  141.5950   80.9490  220.7540 C   0  0  0  0  0  0  0  0  0  0  0  0
  144.7877   75.2468  219.1824 H   0  0  0  0  0  0  0  0  0  0  0  0
  145.2849   72.8664  219.7498 H   0  0  0  0  0  0  0  0  0  0  0  0
  143.6369   71.5188  221.0530 H   0  0  0  0  0  0  0  0  0  0  0  0
  141.4826   72.5470  221.7877 H   0  0  0  0  0  0  0  0  0  0  0  0
  138.2448   76.7355  220.8362 H   0  0  0  0  0  0  0  0  0  0  0  0
  139.0752   76.7182  223.5971 H   0  0  0  0  0  0  0  0  0  0  0  0
  137.3993   78.9024  221.1522 H   0  0  0  0  0  0  0  0  0  0  0  0
  136.8123   81.3081  221.4755 H   0  0  0  0  0  0  0  0  0  0  0  0
  137.7348   82.5465  223.4424 H   0  0  0  0  0  0  0  0  0  0  0  0
  139.8030   79.0585  224.7533 H   0  0  0  0  0  0  0  0  0  0  0  0
  141.7063   78.8601  219.1913 H   0  0  0  0  0  0  0  0  0  0  0  0
  139.9750   78.5868  219.7217 H   0  0  0  0  0  0  0  0  0  0  0  0
  140.2291   79.5604  221.6688 H   0  0  0  0  0  0  0  0  0  0  0  0
  141.7078   78.2519  222.8867 H   0  0  0  0  0  0  0  0  0  0  0  0
  143.0932   78.6187  221.7541 H   0  0  0  0  0  0  0  0  0  0  0  0
  142.8493   79.7114  224.2302 H   0  0  0  0  0  0  0  0  0  0  0  0
  143.6650   80.5136  222.8173 H   0  0  0  0  0  0  0  0  0  0  0  0
  140.7755   80.9463  223.6969 H   0  0  0  0  0  0  0  0  0  0  0  0
  142.1693   82.0696  223.9745 H   0  0  0  0  0  0  0  0  0  0  0  0
  140.5081   82.4115  221.9155 H   0  0  0  0  0  0  0  0  0  0  0  0
  142.3080   82.6931  221.7750 H   0  0  0  0  0  0  0  0  0  0  0  0
  140.9035   81.2664  219.9596 H   0  0  0  0  0  0  0  0  0  0  0  0
  142.6331   80.9351  220.3904 H   0  0  0  0  0  0  0  0  0  0  0  0
  1  2  2  0
  2  3  1  0
  3  4  2  0
  4  5  1  0
  5  6  2  0
  6  7  1  0
  7  8  2  0
  8  9  1  0
  9 10  2  0
 10 11  1  0
 11 12  2  0
 12 13  1  0
 13 14  2  0
 14 15  1  0
 15 16  2  0
 16 17  1  0
 17 18  2  0
 10 19  1  0
 19 20  1  0
 20 21  1  0
 21 22  1  0
 22 23  1  0
 23 24  1  0
 24 25  1  0
 25 26  1  0
 19  2  1  0
 26 21  1  0
  8  3  1  0
 18 13  1  0
  4 27  1  0
  5 28  1  0
  6 29  1  0
  7 30  1  0
 11 31  1  0
 12 32  1  0
 14 33  1  0
 15 34  1  0
 16 35  1  0
 18 36  1  0
 20 37  1  0
 20 38  1  0
 21 39  1  0
 22 40  1  0
 22 41  1  0
 23 42  1  0
 23 43  1  0
 24 44  1  0
 24 45  1  0
 25 46  1  0
 25 47  1  0
 26 48  1  0
 26 49  1  0
M  END
>  <meeko>  (16) 
{"free_energy": -6.17, "intermolecular_energy": -7.67, "internal_energy": -1.98, "cluster_size": 3, "cluster_id": 6, "rank_in_cluster": 3}

$$$$

     RDKit          3D

 49 52  0  0  0  0  0  0  0  0999 V2000
  138.3700   75.6960  222.0400 O   0  0  0  0  0  0  0  0  0  0  0  0
  139.4360   75.1710  221.6100 C   0  0  0  0  0  0  0  0  0  0  0  0
  139.6240   73.7880  221.7650 C   0  0  0  0  0  0  0  0  0  0  0  0
  138.6480   72.9540  222.3440 C   0  0  0  0  0  0  0  0  0  0  0  0
  138.8870   71.5820  222.4790 C   0  0  0  0  0  0  0  0  0  0  0  0
  140.0960   71.0360  222.0420 C   0  0  0  0  0  0  0  0  0  0  0  0
  141.0710   71.8580  221.4710 C   0  0  0  0  0  0  0  0  0  0  0  0
  140.8350   73.2310  221.3320 C   0  0  0  0  0  0  0  0  0  0  0  0
  141.7810   74.0280  220.7900 N   0  0  0  0  0  0  0  0  0  0  0  0
  141.6010   75.3670  220.6260 C   0  0  0  0  0  0  0  0  0  0  0  0
  142.7210   76.1420  220.0190 C   0  0  0  0  0  0  0  0  0  0  0  0
  143.5750   75.5950  219.1400 C   0  0  0  0  0  0  0  0  0  0  0  0
  144.4490   74.4370  219.4510 C   0  0  0  0  0  0  0  0  0  0  0  0
  144.9910   74.3240  220.7390 C   0  0  0  0  0  0  0  0  0  0  0  0
  145.8240   73.2520  221.0630 C   0  0  0  0  0  0  0  0  0  0  0  0
  146.1210   72.3000  220.0880 C   0  0  0  0  0  0  0  0  0  0  0  0
  145.6080   72.4260  218.8370 N   0  0  0  0  0  0  0  0  0  0  0  0
  144.7910   73.4580  218.4950 C   0  0  0  0  0  0  0  0  0  0  0  0
  140.4040   75.9510  221.0120 N   0  0  0  0  0  0  0  0  0  0  0  0
  140.1550   77.4080  220.8590 C   0  0  0  0  0  0  0  0  0  0  0  0
  141.1500   78.3070  221.6470 C   0  0  0  0  0  0  0  0  0  0  0  0
  141.4980   79.6400  220.9340 C   0  0  0  0  0  0  0  0  0  0  0  0
  142.1260   80.6940  221.8720 C   0  0  0  0  0  0  0  0  0  0  0  0
  142.8150   80.0580  223.0830 C   0  0  0  0  0  0  0  0  0  0  0  0
  141.8250   79.2310  223.9280 C   0  0  0  0  0  0  0  0  0  0  0  0
  140.7030   78.5730  223.0960 C   0  0  0  0  0  0  0  0  0  0  0  0
  137.6959   73.3821  222.6908 H   0  0  0  0  0  0  0  0  0  0  0  0
  138.1220   70.9327  222.9298 H   0  0  0  0  0  0  0  0  0  0  0  0
  140.2810   69.9568  222.1476 H   0  0  0  0  0  0  0  0  0  0  0  0
  142.0239   71.4264  221.1307 H   0  0  0  0  0  0  0  0  0  0  0  0
  142.8516   77.1972  220.3010 H   0  0  0  0  0  0  0  0  0  0  0  0
  143.6302   76.0301  218.1312 H   0  0  0  0  0  0  0  0  0  0  0  0
  144.7584   75.0847  221.4987 H   0  0  0  0  0  0  0  0  0  0  0  0
  146.2417   73.1590  222.0763 H   0  0  0  0  0  0  0  0  0  0  0  0
  146.7710   71.4469  220.3324 H   0  0  0  0  0  0  0  0  0  0  0  0
  144.3961   73.5294  217.4708 H   0  0  0  0  0  0  0  0  0  0  0  0
  140.2311   77.6615  219.7913 H   0  0  0  0  0  0  0  0  0  0  0  0
  139.1542   77.6044  221.2712 H   0  0  0  0  0  0  0  0  0  0  0  0
  142.0746   77.7120  221.6799 H   0  0  0  0  0  0  0  0  0  0  0  0
  142.2107   79.4259  220.1239 H   0  0  0  0  0  0  0  0  0  0  0  0
  140.5543   80.0622  220.5583 H   0  0  0  0  0  0  0  0  0  0  0  0
  142.8701   81.2730  221.3054 H   0  0  0  0  0  0  0  0  0  0  0  0
  141.3157   81.3373  222.2455 H   0  0  0  0  0  0  0  0  0  0  0  0
  143.6211   79.3982  222.7297 H   0  0  0  0  0  0  0  0  0  0  0  0
  143.2167   80.8645  223.7140 H   0  0  0  0  0  0  0  0  0  0  0  0
  142.3860   78.4381  224.4442 H   0  0  0  0  0  0  0  0  0  0  0  0
  141.3412   79.9257  224.6304 H   0  0  0  0  0  0  0  0  0  0  0  0
  140.4254   77.6173  223.5646 H   0  0  0  0  0  0  0  0  0  0  0  0
  139.8463   79.2625  223.0695 H   0  0  0  0  0  0  0  0  0  0  0  0
  1  2  2  0
  2  3  1  0
  3  4  2  0
  4  5  1  0
  5  6  2  0
  6  7  1  0
  7  8  2  0
  8  9  1  0
  9 10  2  0
 10 11  1  0
 11 12  2  0
 12 13  1  0
 13 14  2  0
 14 15  1  0
 15 16  2  0
 16 17  1  0
 17 18  2  0
 10 19  1  0
 19 20  1  0
 20 21  1  0
 21 22  1  0
 22 23  1  0
 23 24  1  0
 24 25  1  0
 25 26  1  0
 19  2  1  0
 26 21  1  0
  8  3  1  0
 18 13  1  0
  4 27  1  0
  5 28  1  0
  6 29  1  0
  7 30  1  0
 11 31  1  0
 12 32  1  0
 14 33  1  0
 15 34  1  0
 16 35  1  0
 18 36  1  0
 20 37  1  0
 20 38  1  0
 21 39  1  0
 22 40  1  0
 22 41  1  0
 23 42  1  0
 23 43  1  0
 24 44  1  0
 24 45  1  0
 25 46  1  0
 25 47  1  0
 26 48  1  0
 26 49  1  0
M  END
>  <meeko>  (17) 
{"free_energy": -7.14, "intermolecular_energy": -8.63, "internal_energy": -1.3, "cluster_size": 5, "cluster_id": 2, "rank_in_cluster": 2}

$$$$

     RDKit          3D

 49 52  0  0  0  0  0  0  0  0999 V2000
  143.3110   77.2460  219.1890 O   0  0  0  0  0  0  0  0  0  0  0  0
  142.5130   76.5620  219.8890 C   0  0  0  0  0  0  0  0  0  0  0  0
  142.8310   75.2230  220.1700 C   0  0  0  0  0  0  0  0  0  0  0  0
  144.0310   74.6250  219.7380 C   0  0  0  0  0  0  0  0  0  0  0  0
  144.2980   73.2860  220.0430 C   0  0  0  0  0  0  0  0  0  0  0  0
  143.3730   72.5360  220.7740 C   0  0  0  0  0  0  0  0  0  0  0  0
  142.1780   73.1210  221.2020 C   0  0  0  0  0  0  0  0  0  0  0  0
  141.9080   74.4620  220.9010 C   0  0  0  0  0  0  0  0  0  0  0  0
  140.7490   75.0250  221.3050 N   0  0  0  0  0  0  0  0  0  0  0  0
  140.4390   76.3250  221.0460 C   0  0  0  0  0  0  0  0  0  0  0  0
  139.1270   76.8300  221.5400 C   0  0  0  0  0  0  0  0  0  0  0  0
  139.0000   77.4600  222.7190 C   0  0  0  0  0  0  0  0  0  0  0  0
  138.5450   78.8650  222.8580 C   0  0  0  0  0  0  0  0  0  0  0  0
  138.8800   79.5760  224.0190 C   0  0  0  0  0  0  0  0  0  0  0  0
  138.4600   80.8960  224.1850 C   0  0  0  0  0  0  0  0  0  0  0  0
  137.6930   81.4980  223.1890 C   0  0  0  0  0  0  0  0  0  0  0  0
  137.3550   80.7990  222.0750 N   0  0  0  0  0  0  0  0  0  0  0  0
  137.7540   79.5120  221.8860 C   0  0  0  0  0  0  0  0  0  0  0  0
  141.3400   77.1200  220.3540 N   0  0  0  0  0  0  0  0  0  0  0  0
  141.0520   78.5430  220.0400 C   0  0  0  0  0  0  0  0  0  0  0  0
  141.2160   79.5050  221.2510 C   0  0  0  0  0  0  0  0  0  0  0  0
  142.2120   79.0010  222.3280 C   0  0  0  0  0  0  0  0  0  0  0  0
  142.6900   80.1090  223.2910 C   0  0  0  0  0  0  0  0  0  0  0  0
  141.6880   81.2650  223.3910 C   0  0  0  0  0  0  0  0  0  0  0  0
  141.4510   81.9270  222.0190 C   0  0  0  0  0  0  0  0  0  0  0  0
  141.5610   80.9460  220.8320 C   0  0  0  0  0  0  0  0  0  0  0  0
  144.7596   75.2120  219.1597 H   0  0  0  0  0  0  0  0  0  0  0  0
  145.2375   72.8229  219.7069 H   0  0  0  0  0  0  0  0  0  0  0  0
  143.5857   71.4835  221.0130 H   0  0  0  0  0  0  0  0  0  0  0  0
  141.4497   72.5284  221.7751 H   0  0  0  0  0  0  0  0  0  0  0  0
  138.2321   76.6817  220.9177 H   0  0  0  0  0  0  0  0  0  0  0  0
  139.2476   76.9022  223.6342 H   0  0  0  0  0  0  0  0  0  0  0  0
  139.4778   79.0899  224.8041 H   0  0  0  0  0  0  0  0  0  0  0  0
  138.7313   81.4557  225.0923 H   0  0  0  0  0  0  0  0  0  0  0  0
  137.3612   82.5403  223.3055 H   0  0  0  0  0  0  0  0  0  0  0  0
  137.4588   78.9747  220.9727 H   0  0  0  0  0  0  0  0  0  0  0  0
  141.7396   78.8676  219.2451 H   0  0  0  0  0  0  0  0  0  0  0  0
  139.9964   78.5937  219.7346 H   0  0  0  0  0  0  0  0  0  0  0  0
  140.2200   79.5150  221.7177 H   0  0  0  0  0  0  0  0  0  0  0  0
  141.7181   78.2155  222.9187 H   0  0  0  0  0  0  0  0  0  0  0  0
  143.1005   78.6276  221.7978 H   0  0  0  0  0  0  0  0  0  0  0  0
  142.8280   79.6729  224.2914 H   0  0  0  0  0  0  0  0  0  0  0  0
  143.6332   80.5144  222.8959 H   0  0  0  0  0  0  0  0  0  0  0  0
  140.7313   80.8770  223.7708 H   0  0  0  0  0  0  0  0  0  0  0  0
  142.1016   82.0225  224.0731 H   0  0  0  0  0  0  0  0  0  0  0  0
  140.4427   82.3666  222.0145 H   0  0  0  0  0  0  0  0  0  0  0  0
  142.2380   82.6839  221.8859 H   0  0  0  0  0  0  0  0  0  0  0  0
  140.8655   81.2636  220.0412 H   0  0  0  0  0  0  0  0  0  0  0  0
  142.6001   80.9590  220.4712 H   0  0  0  0  0  0  0  0  0  0  0  0
  1  2  2  0
  2  3  1  0
  3  4  2  0
  4  5  1  0
  5  6  2  0
  6  7  1  0
  7  8  2  0
  8  9  1  0
  9 10  2  0
 10 11  1  0
 11 12  2  0
 12 13  1  0
 13 14  2  0
 14 15  1  0
 15 16  2  0
 16 17  1  0
 17 18  2  0
 10 19  1  0
 19 20  1  0
 20 21  1  0
 21 22  1  0
 22 23  1  0
 23 24  1  0
 24 25  1  0
 25 26  1  0
 19  2  1  0
 26 21  1  0
  8  3  1  0
 18 13  1  0
  4 27  1  0
  5 28  1  0
  6 29  1  0
  7 30  1  0
 11 31  1  0
 12 32  1  0
 14 33  1  0
 15 34  1  0
 16 35  1  0
 18 36  1  0
 20 37  1  0
 20 38  1  0
 21 39  1  0
 22 40  1  0
 22 41  1  0
 23 42  1  0
 23 43  1  0
 24 44  1  0
 24 45  1  0
 25 46  1  0
 25 47  1  0
 26 48  1  0
 26 49  1  0
M  END
>  <meeko>  (18) 
{"free_energy": -6.25, "intermolecular_energy": -7.74, "internal_energy": -1.94, "cluster_size": 3, "cluster_id": 6, "rank_in_cluster": 1}

$$$$

     RDKit          3D

 49 52  0  0  0  0  0  0  0  0999 V2000
  140.3410   71.9660  225.1290 O   0  0  0  0  0  0  0  0  0  0  0  0
  139.7410   70.8550  225.1620 C   0  0  0  0  0  0  0  0  0  0  0  0
  139.9970   69.9760  226.2270 C   0  0  0  0  0  0  0  0  0  0  0  0
  140.8670   70.3050  227.2850 C   0  0  0  0  0  0  0  0  0  0  0  0
  141.0900   69.3910  228.3200 C   0  0  0  0  0  0  0  0  0  0  0  0
  140.4530   68.1470  228.3060 C   0  0  0  0  0  0  0  0  0  0  0  0
  139.5920   67.8120  227.2570 C   0  0  0  0  0  0  0  0  0  0  0  0
  139.3650   68.7260  226.2200 C   0  0  0  0  0  0  0  0  0  0  0  0
  138.5410   68.3980  225.2010 N   0  0  0  0  0  0  0  0  0  0  0  0
  138.2800   69.2500  224.1720 C   0  0  0  0  0  0  0  0  0  0  0  0
  137.3580   68.7720  223.1020 C   0  0  0  0  0  0  0  0  0  0  0  0
  136.0260   68.7340  223.2690 C   0  0  0  0  0  0  0  0  0  0  0  0
  135.3240   69.3460  224.4240 C   0  0  0  0  0  0  0  0  0  0  0  0
  135.3300   70.7420  224.5600 C   0  0  0  0  0  0  0  0  0  0  0  0
  134.6870   71.3480  225.6390 C   0  0  0  0  0  0  0  0  0  0  0  0
  134.0490   70.5520  226.5890 C   0  0  0  0  0  0  0  0  0  0  0  0
  134.0630   69.2000  226.4630 N   0  0  0  0  0  0  0  0  0  0  0  0
  134.6790   68.5820  225.4190 C   0  0  0  0  0  0  0  0  0  0  0  0
  138.8600   70.5090  224.1580 N   0  0  0  0  0  0  0  0  0  0  0  0
  138.6130   71.4760  223.0590 C   0  0  0  0  0  0  0  0  0  0  0  0
  139.9040   71.9710  222.3470 C   0  0  0  0  0  0  0  0  0  0  0  0
  140.4310   71.0080  221.2520 C   0  0  0  0  0  0  0  0  0  0  0  0
  141.4300   71.6700  220.2790 C   0  0  0  0  0  0  0  0  0  0  0  0
  142.1410   72.8740  220.9050 C   0  0  0  0  0  0  0  0  0  0  0  0
  141.1360   73.9630  221.3330 C   0  0  0  0  0  0  0  0  0  0  0  0
  139.7720   73.4000  221.7880 C   0  0  0  0  0  0  0  0  0  0  0  0
  141.3718   71.2823  227.2972 H   0  0  0  0  0  0  0  0  0  0  0  0
  141.7677   69.6516  229.1463 H   0  0  0  0  0  0  0  0  0  0  0  0
  140.6295   67.4305  229.1217 H   0  0  0  0  0  0  0  0  0  0  0  0
  139.0932   66.8317  227.2458 H   0  0  0  0  0  0  0  0  0  0  0  0
  137.7832   68.4393  222.1436 H   0  0  0  0  0  0  0  0  0  0  0  0
  135.4216   68.2204  222.5068 H   0  0  0  0  0  0  0  0  0  0  0  0
  135.8447   71.3623  223.8114 H   0  0  0  0  0  0  0  0  0  0  0  0
  134.6833   72.4434  225.7394 H   0  0  0  0  0  0  0  0  0  0  0  0
  133.5339   71.0193  227.4412 H   0  0  0  0  0  0  0  0  0  0  0  0
  134.6740   67.4841  225.3508 H   0  0  0  0  0  0  0  0  0  0  0  0
  137.9698   70.9909  222.3101 H   0  0  0  0  0  0  0  0  0  0  0  0
  138.1427   72.3602  223.5141 H   0  0  0  0  0  0  0  0  0  0  0  0
  140.6582   71.9861  223.1476 H   0  0  0  0  0  0  0  0  0  0  0  0
  140.9330   70.1622  221.7444 H   0  0  0  0  0  0  0  0  0  0  0  0
  139.5628   70.6886  220.6568 H   0  0  0  0  0  0  0  0  0  0  0  0
  142.1855   70.9256  219.9871 H   0  0  0  0  0  0  0  0  0  0  0  0
  140.8628   72.0299  219.4080 H   0  0  0  0  0  0  0  0  0  0  0  0
  142.7022   72.5378  221.7893 H   0  0  0  0  0  0  0  0  0  0  0  0
  142.8180   73.3050  220.1527 H   0  0  0  0  0  0  0  0  0  0  0  0
  141.5733   74.5316  222.1669 H   0  0  0  0  0  0  0  0  0  0  0  0
  140.9474   74.5928  220.4511 H   0  0  0  0  0  0  0  0  0  0  0  0
  139.3603   74.0529  222.5717 H   0  0  0  0  0  0  0  0  0  0  0  0
  139.1058   73.3661  220.9134 H   0  0  0  0  0  0  0  0  0  0  0  0
  1  2  2  0
  2  3  1  0
  3  4  2  0
  4  5  1  0
  5  6  2  0
  6  7  1  0
  7  8  2  0
  8  9  1  0
  9 10  2  0
 10 11  1  0
 11 12  2  0
 12 13  1  0
 13 14  2  0
 14 15  1  0
 15 16  2  0
 16 17  1  0
 17 18  2  0
 10 19  1  0
 19 20  1  0
 20 21  1  0
 21 22  1  0
 22 23  1  0
 23 24  1  0
 24 25  1  0
 25 26  1  0
 19  2  1  0
 26 21  1  0
  8  3  1  0
 18 13  1  0
  4 27  1  0
  5 28  1  0
  6 29  1  0
  7 30  1  0
 11 31  1  0
 12 32  1  0
 14 33  1  0
 15 34  1  0
 16 35  1  0
 18 36  1  0
 20 37  1  0
 20 38  1  0
 21 39  1  0
 22 40  1  0
 22 41  1  0
 23 42  1  0
 23 43  1  0
 24 44  1  0
 24 45  1  0
 25 46  1  0
 25 47  1  0
 26 48  1  0
 26 49  1  0
M  END
>  <meeko>  (19) 
{"free_energy": -6.97, "intermolecular_energy": -8.46, "internal_energy": -1.43, "cluster_size": 3, "cluster_id": 3, "rank_in_cluster": 3}

$$$$

     RDKit          3D

 49 52  0  0  0  0  0  0  0  0999 V2000
  138.3760   75.4770  222.1310 O   0  0  0  0  0  0  0  0  0  0  0  0
  139.4420   74.9950  221.6550 C   0  0  0  0  0  0  0  0  0  0  0  0
  139.6720   73.6140  221.7630 C   0  0  0  0  0  0  0  0  0  0  0  0
  138.7370   72.7360  222.3450 C   0  0  0  0  0  0  0  0  0  0  0  0
  139.0170   71.3680  222.4310 C   0  0  0  0  0  0  0  0  0  0  0  0
  140.2270   70.8680  221.9440 C   0  0  0  0  0  0  0  0  0  0  0  0
  141.1620   71.7340  221.3690 C   0  0  0  0  0  0  0  0  0  0  0  0
  140.8840   73.1040  221.2790 C   0  0  0  0  0  0  0  0  0  0  0  0
  141.7920   73.9420  220.7340 N   0  0  0  0  0  0  0  0  0  0  0  0
  141.5710   75.2800  220.6150 C   0  0  0  0  0  0  0  0  0  0  0  0
  142.6520   76.1030  220.0000 C   0  0  0  0  0  0  0  0  0  0  0  0
  143.5560   75.5800  219.1560 C   0  0  0  0  0  0  0  0  0  0  0  0
  144.4280   74.4280  219.4940 C   0  0  0  0  0  0  0  0  0  0  0  0
  144.9730   74.3450  220.7830 C   0  0  0  0  0  0  0  0  0  0  0  0
  145.8040   73.2790  221.1300 C   0  0  0  0  0  0  0  0  0  0  0  0
  146.0960   72.3030  220.1780 C   0  0  0  0  0  0  0  0  0  0  0  0
  145.5810   72.4000  218.9250 N   0  0  0  0  0  0  0  0  0  0  0  0
  144.7660   73.4260  218.5610 C   0  0  0  0  0  0  0  0  0  0  0  0
  140.3710   75.8180  221.0530 N   0  0  0  0  0  0  0  0  0  0  0  0
  140.0780   77.2710  220.9510 C   0  0  0  0  0  0  0  0  0  0  0  0
  141.1000   78.1770  221.6950 C   0  0  0  0  0  0  0  0  0  0  0  0
  141.5210   79.4410  220.8990 C   0  0  0  0  0  0  0  0  0  0  0  0
  142.1810   80.5280  221.7750 C   0  0  0  0  0  0  0  0  0  0  0  0
  142.8200   79.9470  223.0410 C   0  0  0  0  0  0  0  0  0  0  0  0
  141.7780   79.2270  223.9200 C   0  0  0  0  0  0  0  0  0  0  0  0
  140.6410   78.5640  223.1130 C   0  0  0  0  0  0  0  0  0  0  0  0
  137.7846   73.1267  222.7327 H   0  0  0  0  0  0  0  0  0  0  0  0
  138.2829   70.6848  222.8830 H   0  0  0  0  0  0  0  0  0  0  0  0
  140.4444   69.7919  222.0130 H   0  0  0  0  0  0  0  0  0  0  0  0
  142.1154   71.3397  220.9875 H   0  0  0  0  0  0  0  0  0  0  0  0
  142.7107   77.1736  220.2458 H   0  0  0  0  0  0  0  0  0  0  0  0
  143.6557   76.0310  218.1577 H   0  0  0  0  0  0  0  0  0  0  0  0
  144.7444   75.1244  221.5248 H   0  0  0  0  0  0  0  0  0  0  0  0
  146.2244   73.2094  222.1441 H   0  0  0  0  0  0  0  0  0  0  0  0
  146.7438   71.4540  220.4419 H   0  0  0  0  0  0  0  0  0  0  0  0
  144.3694   73.4745  217.5361 H   0  0  0  0  0  0  0  0  0  0  0  0
  140.0791   77.5501  219.8870 H   0  0  0  0  0  0  0  0  0  0  0  0
  139.1015   77.4328  221.4308 H   0  0  0  0  0  0  0  0  0  0  0  0
  141.9952   77.5445  221.7872 H   0  0  0  0  0  0  0  0  0  0  0  0
  142.2365   79.1397  220.1198 H   0  0  0  0  0  0  0  0  0  0  0  0
  140.6042   79.8780  220.4764 H   0  0  0  0  0  0  0  0  0  0  0  0
  142.9604   81.0325  221.1851 H   0  0  0  0  0  0  0  0  0  0  0  0
  141.3949   81.2311  222.0875 H   0  0  0  0  0  0  0  0  0  0  0  0
  143.6002   79.2282  222.7501 H   0  0  0  0  0  0  0  0  0  0  0  0
  143.2489   80.7761  223.6230 H   0  0  0  0  0  0  0  0  0  0  0  0
  142.2923   78.4474  224.5011 H   0  0  0  0  0  0  0  0  0  0  0  0
  141.3149   79.9905  224.5623 H   0  0  0  0  0  0  0  0  0  0  0  0
  140.3111   77.6571  223.6409 H   0  0  0  0  0  0  0  0  0  0  0  0
  139.8180   79.2881  223.0214 H   0  0  0  0  0  0  0  0  0  0  0  0
  1  2  2  0
  2  3  1  0
  3  4  2  0
  4  5  1  0
  5  6  2  0
  6  7  1  0
  7  8  2  0
  8  9  1  0
  9 10  2  0
 10 11  1  0
 11 12  2  0
 12 13  1  0
 13 14  2  0
 14 15  1  0
 15 16  2  0
 16 17  1  0
 17 18  2  0
 10 19  1  0
 19 20  1  0
 20 21  1  0
 21 22  1  0
 22 23  1  0
 23 24  1  0
 24 25  1  0
 25 26  1  0
 19  2  1  0
 26 21  1  0
  8  3  1  0
 18 13  1  0
  4 27  1  0
  5 28  1  0
  6 29  1  0
  7 30  1  0
 11 31  1  0
 12 32  1  0
 14 33  1  0
 15 34  1  0
 16 35  1  0
 18 36  1  0
 20 37  1  0
 20 38  1  0
 21 39  1  0
 22 40  1  0
 22 41  1  0
 23 42  1  0
 23 43  1  0
 24 44  1  0
 24 45  1  0
 25 46  1  0
 25 47  1  0
 26 48  1  0
 26 49  1  0
M  END
>  <meeko>  (20) 
{"free_energy": -7.12, "intermolecular_energy": -8.61, "internal_energy": -1.29, "cluster_size": 5, "cluster_id": 2, "rank_in_cluster": 4}

$$$$
