
     RDKit          3D

 49 53  0  0  0  0  0  0  0  0999 V2000
  143.7110   80.2060  223.2090 O   0  0  0  0  0  0  0  0  0  0  0  0
  142.2570   79.8580  223.0510 S   0  0  0  0  0  0  0  0  0  0  0  0
  141.9480   78.6830  223.9370 O   0  0  0  0  0  0  0  0  0  0  0  0
  141.2550   81.2530  223.5370 C   0  0  0  0  0  0  0  0  0  0  0  0
  139.8070   80.9730  223.2530 C   0  0  0  0  0  0  0  0  0  0  0  0
  139.1250   79.9690  223.9640 C   0  0  0  0  0  0  0  0  0  0  0  0
  137.7580   79.7660  223.7590 C   0  0  0  0  0  0  0  0  0  0  0  0
  137.0610   80.5610  222.8460 C   0  0  0  0  0  0  0  0  0  0  0  0
  137.7290   81.5630  222.1380 C   0  0  0  0  0  0  0  0  0  0  0  0
  139.0970   81.7730  222.3420 C   0  0  0  0  0  0  0  0  0  0  0  0
  141.9180   79.4550  221.3930 N   0  0  0  0  0  0  0  0  0  0  0  0
  141.7860   80.5310  220.4480 C   0  0  0  0  0  0  0  0  0  0  0  0
  141.8620   80.3140  219.1390 C   0  0  0  0  0  0  0  0  0  0  0  0
  142.0690   78.9590  218.6110 C   0  0  0  0  0  0  0  0  0  0  0  0
  142.2190   78.7610  217.2300 C   0  0  0  0  0  0  0  0  0  0  0  0
  142.4350   77.4780  216.7220 C   0  0  0  0  0  0  0  0  0  0  0  0
  142.5040   76.3850  217.5900 C   0  0  0  0  0  0  0  0  0  0  0  0
  142.3550   76.5730  218.9660 C   0  0  0  0  0  0  0  0  0  0  0  0
  142.1290   77.8590  219.4890 C   0  0  0  0  0  0  0  0  0  0  0  0
  141.9560   78.0400  220.9830 C   0  0  2  0  0  0  0  0  0  0  0  0
  140.7190   77.3240  221.4640 C   0  0  0  0  0  0  0  0  0  0  0  0
  140.7000   76.2220  222.3160 C   0  0  0  0  0  0  0  0  0  0  0  0
  139.4290   75.8180  222.5430 N   0  0  0  0  0  0  0  0  0  0  0  0
  138.6440   76.6510  221.8400 C   0  0  0  0  0  0  0  0  0  0  0  0
  137.2520   76.6240  221.7560 C   0  0  0  0  0  0  0  0  0  0  0  0
  136.6230   77.5890  220.9510 C   0  0  0  0  0  0  0  0  0  0  0  0
  137.3890   78.5470  220.2520 C   0  0  0  0  0  0  0  0  0  0  0  0
  138.7920   78.5500  220.3550 C   0  0  0  0  0  0  0  0  0  0  0  0
  139.3910   77.5840  221.1650 C   0  0  0  0  0  0  0  0  0  0  0  0
  141.3855   81.4371  224.6136 H   0  0  0  0  0  0  0  0  0  0  0  0
  141.5692   82.1384  222.9648 H   0  0  0  0  0  0  0  0  0  0  0  0
  139.6701   79.3412  224.6843 H   0  0  0  0  0  0  0  0  0  0  0  0
  137.2298   78.9790  224.3173 H   0  0  0  0  0  0  0  0  0  0  0  0
  135.9852   80.3979  222.6844 H   0  0  0  0  0  0  0  0  0  0  0  0
  137.1786   82.1877  221.4191 H   0  0  0  0  0  0  0  0  0  0  0  0
  139.6185   82.5670  221.7874 H   0  0  0  0  0  0  0  0  0  0  0  0
  141.6188   81.5541  220.8160 H   0  0  0  0  0  0  0  0  0  0  0  0
  141.7687   81.1599  218.4421 H   0  0  0  0  0  0  0  0  0  0  0  0
  142.1662   79.6198  216.5446 H   0  0  0  0  0  0  0  0  0  0  0  0
  142.5508   77.3279  215.6385 H   0  0  0  0  0  0  0  0  0  0  0  0
  142.6759   75.3752  217.1890 H   0  0  0  0  0  0  0  0  0  0  0  0
  142.4148   75.7097  219.6451 H   0  0  0  0  0  0  0  0  0  0  0  0
  142.8445   77.5958  221.4554 H   0  0  0  0  0  0  0  0  0  0  0  0
  141.5944   75.7463  222.7447 H   0  0  0  0  0  0  0  0  0  0  0  0
  139.1260   75.0190  223.1420 H   0  0  0  0  0  0  0  0  0  0  0  0
  136.6651   75.8711  222.3026 H   0  0  0  0  0  0  0  0  0  0  0  0
  135.5264   77.5980  220.8649 H   0  0  0  0  0  0  0  0  0  0  0  0
  136.8856   79.2958  219.6228 H   0  0  0  0  0  0  0  0  0  0  0  0
  139.3985   79.2911  219.8137 H   0  0  0  0  0  0  0  0  0  0  0  0
  1  2  2  0
  2  3  2  0
  2  4  1  0
  4  5  1  0
  5  6  2  0
  6  7  1  0
  7  8  2  0
  8  9  1  0
  9 10  2  0
  2 11  1  0
 11 12  1  0
 12 13  2  0
 13 14  1  0
 14 15  2  0
 15 16  1  0
 16 17  2  0
 17 18  1  0
 18 19  2  0
 19 20  1  0
 20 21  1  0
 21 22  2  0
 22 23  1  0
 23 24  1  0
 24 25  2  0
 25 26  1  0
 26 27  2  0
 27 28  1  0
 28 29  2  0
 10  5  1  0
 20 11  1  0
 29 21  1  0
 19 14  1  0
 29 24  1  0
  4 30  1  0
  4 31  1  0
  6 32  1  0
  7 33  1  0
  8 34  1  0
  9 35  1  0
 10 36  1  0
 12 37  1  0
 13 38  1  0
 15 39  1  0
 16 40  1  0
 17 41  1  0
 18 42  1  0
 20 43  1  1
 22 44  1  0
 23 45  1  0
 25 46  1  0
 26 47  1  0
 27 48  1  0
 28 49  1  0
M  END
>  <meeko>  (1) 
{"free_energy": -6.85, "intermolecular_energy": -8.04, "internal_energy": -3.03, "cluster_size": 14, "cluster_id": 1, "rank_in_cluster": 9}

$$$$

     RDKit          3D

 49 53  0  0  0  0  0  0  0  0999 V2000
  143.7080   80.2030  223.1960 O   0  0  0  0  0  0  0  0  0  0  0  0
  142.2530   79.8620  223.0370 S   0  0  0  0  0  0  0  0  0  0  0  0
  141.9370   78.6920  223.9280 O   0  0  0  0  0  0  0  0  0  0  0  0
  141.2580   81.2640  223.5150 C   0  0  0  0  0  0  0  0  0  0  0  0
  139.8070   80.9830  223.2440 C   0  0  0  0  0  0  0  0  0  0  0  0
  139.1330   79.9770  223.9600 C   0  0  0  0  0  0  0  0  0  0  0  0
  137.7640   79.7730  223.7680 C   0  0  0  0  0  0  0  0  0  0  0  0
  137.0570   80.5700  222.8640 C   0  0  0  0  0  0  0  0  0  0  0  0
  137.7180   81.5740  222.1510 C   0  0  0  0  0  0  0  0  0  0  0  0
  139.0870   81.7850  222.3430 C   0  0  0  0  0  0  0  0  0  0  0  0
  141.9150   79.4530  221.3800 N   0  0  0  0  0  0  0  0  0  0  0  0
  141.7870   80.5250  220.4300 C   0  0  0  0  0  0  0  0  0  0  0  0
  141.8640   80.3030  219.1220 C   0  0  0  0  0  0  0  0  0  0  0  0
  142.0680   78.9450  218.6010 C   0  0  0  0  0  0  0  0  0  0  0  0
  142.2190   78.7410  217.2210 C   0  0  0  0  0  0  0  0  0  0  0  0
  142.4320   77.4550  216.7190 C   0  0  0  0  0  0  0  0  0  0  0  0
  142.4970   76.3660  217.5910 C   0  0  0  0  0  0  0  0  0  0  0  0
  142.3460   76.5600  218.9660 C   0  0  0  0  0  0  0  0  0  0  0  0
  142.1230   77.8480  219.4830 C   0  0  0  0  0  0  0  0  0  0  0  0
  141.9500   78.0360  220.9770 C   0  0  2  0  0  0  0  0  0  0  0  0
  140.7100   77.3250  221.4590 C   0  0  0  0  0  0  0  0  0  0  0  0
  140.6870   76.2220  222.3080 C   0  0  0  0  0  0  0  0  0  0  0  0
  139.4150   75.8240  222.5370 N   0  0  0  0  0  0  0  0  0  0  0  0
  138.6320   76.6630  221.8380 C   0  0  0  0  0  0  0  0  0  0  0  0
  137.2400   76.6440  221.7590 C   0  0  0  0  0  0  0  0  0  0  0  0
  136.6140   77.6140  220.9570 C   0  0  0  0  0  0  0  0  0  0  0  0
  137.3830   78.5700  220.2590 C   0  0  0  0  0  0  0  0  0  0  0  0
  138.7870   78.5650  220.3580 C   0  0  0  0  0  0  0  0  0  0  0  0
  139.3830   77.5940  221.1640 C   0  0  0  0  0  0  0  0  0  0  0  0
  141.3965   81.4595  224.5886 H   0  0  0  0  0  0  0  0  0  0  0  0
  141.5699   82.1428  222.9316 H   0  0  0  0  0  0  0  0  0  0  0  0
  139.6858   79.3485  224.6738 H   0  0  0  0  0  0  0  0  0  0  0  0
  137.2422   78.9839  224.3293 H   0  0  0  0  0  0  0  0  0  0  0  0
  135.9796   80.4072  222.7134 H   0  0  0  0  0  0  0  0  0  0  0  0
  137.1606   82.1991  221.4378 H   0  0  0  0  0  0  0  0  0  0  0  0
  139.6020   82.5819  221.7865 H   0  0  0  0  0  0  0  0  0  0  0  0
  141.6219   81.5500  220.7935 H   0  0  0  0  0  0  0  0  0  0  0  0
  141.7739   81.1462  218.4213 H   0  0  0  0  0  0  0  0  0  0  0  0
  142.1694   79.5970  216.5319 H   0  0  0  0  0  0  0  0  0  0  0  0
  142.5486   77.2999  215.6362 H   0  0  0  0  0  0  0  0  0  0  0  0
  142.6673   75.3542  217.1945 H   0  0  0  0  0  0  0  0  0  0  0  0
  142.4019   75.6993  219.6487 H   0  0  0  0  0  0  0  0  0  0  0  0
  142.8368   77.5921  221.4530 H   0  0  0  0  0  0  0  0  0  0  0  0
  141.5799   75.7408  222.7337 H   0  0  0  0  0  0  0  0  0  0  0  0
  139.1090   75.0250  223.1350 H   0  0  0  0  0  0  0  0  0  0  0  0
  136.6506   75.8939  222.3067 H   0  0  0  0  0  0  0  0  0  0  0  0
  135.5173   77.6282  220.8728 H   0  0  0  0  0  0  0  0  0  0  0  0
  136.8819   79.3236  219.6338 H   0  0  0  0  0  0  0  0  0  0  0  0
  139.3960   79.3039  219.8166 H   0  0  0  0  0  0  0  0  0  0  0  0
  1  2  2  0
  2  3  2  0
  2  4  1  0
  4  5  1  0
  5  6  2  0
  6  7  1  0
  7  8  2  0
  8  9  1  0
  9 10  2  0
  2 11  1  0
 11 12  1  0
 12 13  2  0
 13 14  1  0
 14 15  2  0
 15 16  1  0
 16 17  2  0
 17 18  1  0
 18 19  2  0
 19 20  1  0
 20 21  1  0
 21 22  2  0
 22 23  1  0
 23 24  1  0
 24 25  2  0
 25 26  1  0
 26 27  2  0
 27 28  1  0
 28 29  2  0
 10  5  1  0
 20 11  1  0
 29 21  1  0
 19 14  1  0
 29 24  1  0
  4 30  1  0
  4 31  1  0
  6 32  1  0
  7 33  1  0
  8 34  1  0
  9 35  1  0
 10 36  1  0
 12 37  1  0
 13 38  1  0
 15 39  1  0
 16 40  1  0
 17 41  1  0
 18 42  1  0
 20 43  1  1
 22 44  1  0
 23 45  1  0
 25 46  1  0
 26 47  1  0
 27 48  1  0
 28 49  1  0
M  END
>  <meeko>  (2) 
{"free_energy": -6.85, "intermolecular_energy": -8.04, "internal_energy": -3.03, "cluster_size": 14, "cluster_id": 1, "rank_in_cluster": 6}

$$$$

     RDKit          3D

 49 53  0  0  0  0  0  0  0  0999 V2000
  143.7010   80.2010  223.2770 O   0  0  0  0  0  0  0  0  0  0  0  0
  142.2480   79.8590  223.0990 S   0  0  0  0  0  0  0  0  0  0  0  0
  141.9230   78.6860  223.9820 O   0  0  0  0  0  0  0  0  0  0  0  0
  141.2460   81.2590  223.5730 C   0  0  0  0  0  0  0  0  0  0  0  0
  139.7990   80.9800  223.2790 C   0  0  0  0  0  0  0  0  0  0  0  0
  139.1090   79.9850  223.9960 C   0  0  0  0  0  0  0  0  0  0  0  0
  137.7430   79.7840  223.7820 C   0  0  0  0  0  0  0  0  0  0  0  0
  137.0550   80.5710  222.8550 C   0  0  0  0  0  0  0  0  0  0  0  0
  137.7320   81.5640  222.1420 C   0  0  0  0  0  0  0  0  0  0  0  0
  139.0990   81.7720  222.3550 C   0  0  0  0  0  0  0  0  0  0  0  0
  141.9300   79.4570  221.4370 N   0  0  0  0  0  0  0  0  0  0  0  0
  141.8080   80.5340  220.4920 C   0  0  0  0  0  0  0  0  0  0  0  0
  141.9000   80.3180  219.1830 C   0  0  0  0  0  0  0  0  0  0  0  0
  142.1140   78.9630  218.6570 C   0  0  0  0  0  0  0  0  0  0  0  0
  142.2810   78.7670  217.2780 C   0  0  0  0  0  0  0  0  0  0  0  0
  142.5040   77.4840  216.7720 C   0  0  0  0  0  0  0  0  0  0  0  0
  142.5650   76.3910  217.6400 C   0  0  0  0  0  0  0  0  0  0  0  0
  142.3980   76.5770  219.0140 C   0  0  0  0  0  0  0  0  0  0  0  0
  142.1650   77.8620  219.5350 C   0  0  0  0  0  0  0  0  0  0  0  0
  141.9740   78.0430  221.0280 C   0  0  2  0  0  0  0  0  0  0  0  0
  140.7320   77.3250  221.4930 C   0  0  0  0  0  0  0  0  0  0  0  0
  140.7040   76.2190  222.3390 C   0  0  0  0  0  0  0  0  0  0  0  0
  139.4310   75.8150  222.5520 N   0  0  0  0  0  0  0  0  0  0  0  0
  138.6530   76.6520  221.8450 C   0  0  0  0  0  0  0  0  0  0  0  0
  137.2620   76.6270  221.7490 C   0  0  0  0  0  0  0  0  0  0  0  0
  136.6410   77.5960  220.9420 C   0  0  0  0  0  0  0  0  0  0  0  0
  137.4140   78.5570  220.2550 C   0  0  0  0  0  0  0  0  0  0  0  0
  138.8160   78.5580  220.3720 C   0  0  0  0  0  0  0  0  0  0  0  0
  139.4070   77.5880  221.1820 C   0  0  0  0  0  0  0  0  0  0  0  0
  141.3691   81.4468  224.6498 H   0  0  0  0  0  0  0  0  0  0  0  0
  141.5665   82.1420  223.0006 H   0  0  0  0  0  0  0  0  0  0  0  0
  139.6467   79.3636  224.7272 H   0  0  0  0  0  0  0  0  0  0  0  0
  137.2081   79.0046  224.3445 H   0  0  0  0  0  0  0  0  0  0  0  0
  135.9801   80.4089  222.6864 H   0  0  0  0  0  0  0  0  0  0  0  0
  137.1894   82.1830  221.4123 H   0  0  0  0  0  0  0  0  0  0  0  0
  139.6272   82.5588  221.7965 H   0  0  0  0  0  0  0  0  0  0  0  0
  141.6352   81.5565  220.8590 H   0  0  0  0  0  0  0  0  0  0  0  0
  141.8148   81.1643  218.4855 H   0  0  0  0  0  0  0  0  0  0  0  0
  142.2362   79.6264  216.5928 H   0  0  0  0  0  0  0  0  0  0  0  0
  142.6316   77.3344  215.6897 H   0  0  0  0  0  0  0  0  0  0  0  0
  142.7449   75.3820  217.2405 H   0  0  0  0  0  0  0  0  0  0  0  0
  142.4491   75.7129  219.6928 H   0  0  0  0  0  0  0  0  0  0  0  0
  142.8570   77.6003  221.5120 H   0  0  0  0  0  0  0  0  0  0  0  0
  141.5939   75.7404  222.7737 H   0  0  0  0  0  0  0  0  0  0  0  0
  139.1210   75.0130  223.1440 H   0  0  0  0  0  0  0  0  0  0  0  0
  136.6695   75.8729  222.2877 H   0  0  0  0  0  0  0  0  0  0  0  0
  135.5453   77.6056  220.8451 H   0  0  0  0  0  0  0  0  0  0  0  0
  136.9173   79.3093  219.6247 H   0  0  0  0  0  0  0  0  0  0  0  0
  139.4281   79.3016  219.8405 H   0  0  0  0  0  0  0  0  0  0  0  0
  1  2  2  0
  2  3  2  0
  2  4  1  0
  4  5  1  0
  5  6  2  0
  6  7  1  0
  7  8  2  0
  8  9  1  0
  9 10  2  0
  2 11  1  0
 11 12  1  0
 12 13  2  0
 13 14  1  0
 14 15  2  0
 15 16  1  0
 16 17  2  0
 17 18  1  0
 18 19  2  0
 19 20  1  0
 20 21  1  0
 21 22  2  0
 22 23  1  0
 23 24  1  0
 24 25  2  0
 25 26  1  0
 26 27  2  0
 27 28  1  0
 28 29  2  0
 10  5  1  0
 20 11  1  0
 29 21  1  0
 19 14  1  0
 29 24  1  0
  4 30  1  0
  4 31  1  0
  6 32  1  0
  7 33  1  0
  8 34  1  0
  9 35  1  0
 10 36  1  0
 12 37  1  0
 13 38  1  0
 15 39  1  0
 16 40  1  0
 17 41  1  0
 18 42  1  0
 20 43  1  1
 22 44  1  0
 23 45  1  0
 25 46  1  0
 26 47  1  0
 27 48  1  0
 28 49  1  0
M  END
>  <meeko>  (3) 
{"free_energy": -6.85, "intermolecular_energy": -8.04, "internal_energy": -3.03, "cluster_size": 14, "cluster_id": 1, "rank_in_cluster": 5}

$$$$

     RDKit          3D

 49 53  0  0  0  0  0  0  0  0999 V2000
  143.6890   80.3350  223.3110 O   0  0  0  0  0  0  0  0  0  0  0  0
  142.2500   79.9340  223.1450 S   0  0  0  0  0  0  0  0  0  0  0  0
  141.9960   78.7110  223.9830 O   0  0  0  0  0  0  0  0  0  0  0  0
  141.1940   81.2640  223.6940 C   0  0  0  0  0  0  0  0  0  0  0  0
  139.7710   80.9920  223.2950 C   0  0  0  0  0  0  0  0  0  0  0  0
  139.0390   79.9730  223.9310 C   0  0  0  0  0  0  0  0  0  0  0  0
  137.6910   79.7760  223.6200 C   0  0  0  0  0  0  0  0  0  0  0  0
  137.0630   80.5920  222.6750 C   0  0  0  0  0  0  0  0  0  0  0  0
  137.7830   81.6080  222.0400 C   0  0  0  0  0  0  0  0  0  0  0  0
  139.1310   81.8120  222.3510 C   0  0  0  0  0  0  0  0  0  0  0  0
  141.9170   79.5850  221.4730 N   0  0  0  0  0  0  0  0  0  0  0  0
  141.7880   80.6920  220.5640 C   0  0  0  0  0  0  0  0  0  0  0  0
  141.8690   80.5190  219.2480 C   0  0  0  0  0  0  0  0  0  0  0  0
  142.0790   79.1820  218.6770 C   0  0  0  0  0  0  0  0  0  0  0  0
  142.2350   79.0300  217.2910 C   0  0  0  0  0  0  0  0  0  0  0  0
  142.4530   77.7650  216.7420 C   0  0  0  0  0  0  0  0  0  0  0  0
  142.5200   76.6440  217.5730 C   0  0  0  0  0  0  0  0  0  0  0  0
  142.3660   76.7860  218.9540 C   0  0  0  0  0  0  0  0  0  0  0  0
  142.1360   78.0530  219.5180 C   0  0  0  0  0  0  0  0  0  0  0  0
  141.9580   78.1850  221.0170 C   0  0  2  0  0  0  0  0  0  0  0  0
  140.7200   77.4520  221.4690 C   0  0  0  0  0  0  0  0  0  0  0  0
  140.6920   76.3710  222.3470 C   0  0  0  0  0  0  0  0  0  0  0  0
  139.4240   75.9440  222.5370 N   0  0  0  0  0  0  0  0  0  0  0  0
  138.6470   76.7420  221.7840 C   0  0  0  0  0  0  0  0  0  0  0  0
  137.2610   76.6810  221.6500 C   0  0  0  0  0  0  0  0  0  0  0  0
  136.6410   77.6110  220.7970 C   0  0  0  0  0  0  0  0  0  0  0  0
  137.4120   78.5690  220.1030 C   0  0  0  0  0  0  0  0  0  0  0  0
  138.8100   78.6060  220.2590 C   0  0  0  0  0  0  0  0  0  0  0  0
  139.3990   77.6750  221.1140 C   0  0  0  0  0  0  0  0  0  0  0  0
  141.2550   81.3486  224.7890 H   0  0  0  0  0  0  0  0  0  0  0  0
  141.5256   82.2031  223.2270 H   0  0  0  0  0  0  0  0  0  0  0  0
  139.5294   79.3290  224.6758 H   0  0  0  0  0  0  0  0  0  0  0  0
  137.1232   78.9774  224.1198 H   0  0  0  0  0  0  0  0  0  0  0  0
  136.0020   80.4347  222.4309 H   0  0  0  0  0  0  0  0  0  0  0  0
  137.2885   82.2480  221.2945 H   0  0  0  0  0  0  0  0  0  0  0  0
  139.6922   82.6174  221.8547 H   0  0  0  0  0  0  0  0  0  0  0  0
  141.6189   81.7021  220.9654 H   0  0  0  0  0  0  0  0  0  0  0  0
  141.7777   81.3874  218.5791 H   0  0  0  0  0  0  0  0  0  0  0  0
  142.1854   79.9110  216.6343 H   0  0  0  0  0  0  0  0  0  0  0  0
  142.5721   77.6509  215.6544 H   0  0  0  0  0  0  0  0  0  0  0  0
  142.6943   75.6483  217.1392 H   0  0  0  0  0  0  0  0  0  0  0  0
  142.4251   75.9008  219.6044 H   0  0  0  0  0  0  0  0  0  0  0  0
  142.8455   77.7271  221.4781 H   0  0  0  0  0  0  0  0  0  0  0  0
  141.5797   75.9262  222.8205 H   0  0  0  0  0  0  0  0  0  0  0  0
  139.1160   75.1530  223.1440 H   0  0  0  0  0  0  0  0  0  0  0  0
  136.6709   75.9291  222.1944 H   0  0  0  0  0  0  0  0  0  0  0  0
  135.5486   77.5922  220.6695 H   0  0  0  0  0  0  0  0  0  0  0  0
  136.9169   79.2906  219.4365 H   0  0  0  0  0  0  0  0  0  0  0  0
  139.4202   79.3474  219.7224 H   0  0  0  0  0  0  0  0  0  0  0  0
  1  2  2  0
  2  3  2  0
  2  4  1  0
  4  5  1  0
  5  6  2  0
  6  7  1  0
  7  8  2  0
  8  9  1  0
  9 10  2  0
  2 11  1  0
 11 12  1  0
 12 13  2  0
 13 14  1  0
 14 15  2  0
 15 16  1  0
 16 17  2  0
 17 18  1  0
 18 19  2  0
 19 20  1  0
 20 21  1  0
 21 22  2  0
 22 23  1  0
 23 24  1  0
 24 25  2  0
 25 26  1  0
 26 27  2  0
 27 28  1  0
 28 29  2  0
 10  5  1  0
 20 11  1  0
 29 21  1  0
 19 14  1  0
 29 24  1  0
  4 30  1  0
  4 31  1  0
  6 32  1  0
  7 33  1  0
  8 34  1  0
  9 35  1  0
 10 36  1  0
 12 37  1  0
 13 38  1  0
 15 39  1  0
 16 40  1  0
 17 41  1  0
 18 42  1  0
 20 43  1  1
 22 44  1  0
 23 45  1  0
 25 46  1  0
 26 47  1  0
 27 48  1  0
 28 49  1  0
M  END
>  <meeko>  (4) 
{"free_energy": -6.81, "intermolecular_energy": -8.01, "internal_energy": -3.07, "cluster_size": 14, "cluster_id": 1, "rank_in_cluster": 13}

$$$$

     RDKit          3D

 49 53  0  0  0  0  0  0  0  0999 V2000
  137.9390   75.6450  222.7190 O   0  0  0  0  0  0  0  0  0  0  0  0
  139.1790   75.8830  221.9030 S   0  0  0  0  0  0  0  0  0  0  0  0
  140.2330   74.9030  222.3410 O   0  0  0  0  0  0  0  0  0  0  0  0
  138.8090   75.6310  220.1750 C   0  0  0  0  0  0  0  0  0  0  0  0
  138.3300   76.9150  219.5580 C   0  0  0  0  0  0  0  0  0  0  0  0
  137.1650   77.5400  220.0370 C   0  0  0  0  0  0  0  0  0  0  0  0
  136.7660   78.7760  219.5210 C   0  0  0  0  0  0  0  0  0  0  0  0
  137.5250   79.3980  218.5260 C   0  0  0  0  0  0  0  0  0  0  0  0
  138.6860   78.7840  218.0460 C   0  0  0  0  0  0  0  0  0  0  0  0
  139.0910   77.5490  218.5620 C   0  0  0  0  0  0  0  0  0  0  0  0
  139.7470   77.5100  222.1410 N   0  0  0  0  0  0  0  0  0  0  0  0
  138.7880   78.5130  222.5190 C   0  0  0  0  0  0  0  0  0  0  0  0
  139.1720   79.6750  223.0370 C   0  0  0  0  0  0  0  0  0  0  0  0
  140.5960   79.9800  223.2280 C   0  0  0  0  0  0  0  0  0  0  0  0
  140.9770   81.1820  223.8430 C   0  0  0  0  0  0  0  0  0  0  0  0
  142.3290   81.4710  224.0450 C   0  0  0  0  0  0  0  0  0  0  0  0
  143.3070   80.5620  223.6350 C   0  0  0  0  0  0  0  0  0  0  0  0
  142.9360   79.3640  223.0210 C   0  0  0  0  0  0  0  0  0  0  0  0
  141.5790   79.0650  222.8040 C   0  0  0  0  0  0  0  0  0  0  0  0
  141.1970   77.7650  222.1240 C   0  0  2  0  0  0  0  0  0  0  0  0
  141.7170   77.7370  220.7080 C   0  0  0  0  0  0  0  0  0  0  0  0
  142.2160   76.6150  220.0510 C   0  0  0  0  0  0  0  0  0  0  0  0
  142.6050   76.9330  218.7960 N   0  0  0  0  0  0  0  0  0  0  0  0
  142.3600   78.2470  218.6530 C   0  0  0  0  0  0  0  0  0  0  0  0
  142.6040   79.0290  217.5250 C   0  0  0  0  0  0  0  0  0  0  0  0
  142.2800   80.3960  217.5900 C   0  0  0  0  0  0  0  0  0  0  0  0
  141.7280   80.9450  218.7680 C   0  0  0  0  0  0  0  0  0  0  0  0
  141.4930   80.1300  219.8910 C   0  0  0  0  0  0  0  0  0  0  0  0
  141.8200   78.7770  219.7980 C   0  0  0  0  0  0  0  0  0  0  0  0
  139.7169   75.2931  219.6538 H   0  0  0  0  0  0  0  0  0  0  0  0
  138.0200   74.8702  220.0825 H   0  0  0  0  0  0  0  0  0  0  0  0
  136.5654   77.0542  220.8209 H   0  0  0  0  0  0  0  0  0  0  0  0
  135.8532   79.2600  219.8986 H   0  0  0  0  0  0  0  0  0  0  0  0
  137.2091   80.3705  218.1204 H   0  0  0  0  0  0  0  0  0  0  0  0
  139.2817   79.2732  217.2613 H   0  0  0  0  0  0  0  0  0  0  0  0
  140.0086   77.0724  218.1867 H   0  0  0  0  0  0  0  0  0  0  0  0
  137.7155   78.3144  222.3765 H   0  0  0  0  0  0  0  0  0  0  0  0
  138.4139   80.4177  223.3263 H   0  0  0  0  0  0  0  0  0  0  0  0
  140.2087   81.8994  224.1673 H   0  0  0  0  0  0  0  0  0  0  0  0
  142.6233   82.4149  224.5272 H   0  0  0  0  0  0  0  0  0  0  0  0
  144.3710   80.7902  223.7960 H   0  0  0  0  0  0  0  0  0  0  0  0
  143.7102   78.6494  222.7049 H   0  0  0  0  0  0  0  0  0  0  0  0
  141.6678   76.9577  222.7042 H   0  0  0  0  0  0  0  0  0  0  0  0
  142.2842   75.6096  220.4920 H   0  0  0  0  0  0  0  0  0  0  0  0
  143.0140   76.2860  218.0860 H   0  0  0  0  0  0  0  0  0  0  0  0
  143.0361   78.5908  216.6132 H   0  0  0  0  0  0  0  0  0  0  0  0
  142.4578   81.0418  216.7174 H   0  0  0  0  0  0  0  0  0  0  0  0
  141.4802   82.0160  218.8082 H   0  0  0  0  0  0  0  0  0  0  0  0
  141.0644   80.5472  220.8142 H   0  0  0  0  0  0  0  0  0  0  0  0
  1  2  2  0
  2  3  2  0
  2  4  1  0
  4  5  1  0
  5  6  2  0
  6  7  1  0
  7  8  2  0
  8  9  1  0
  9 10  2  0
  2 11  1  0
 11 12  1  0
 12 13  2  0
 13 14  1  0
 14 15  2  0
 15 16  1  0
 16 17  2  0
 17 18  1  0
 18 19  2  0
 19 20  1  0
 20 21  1  0
 21 22  2  0
 22 23  1  0
 23 24  1  0
 24 25  2  0
 25 26  1  0
 26 27  2  0
 27 28  1  0
 28 29  2  0
 10  5  1  0
 20 11  1  0
 29 21  1  0
 19 14  1  0
 29 24  1  0
  4 30  1  0
  4 31  1  0
  6 32  1  0
  7 33  1  0
  8 34  1  0
  9 35  1  0
 10 36  1  0
 12 37  1  0
 13 38  1  0
 15 39  1  0
 16 40  1  0
 17 41  1  0
 18 42  1  0
 20 43  1  1
 22 44  1  0
 23 45  1  0
 25 46  1  0
 26 47  1  0
 27 48  1  0
 28 49  1  0
M  END
>  <meeko>  (5) 
{"free_energy": -6.84, "intermolecular_energy": -8.03, "internal_energy": -2.92, "cluster_size": 6, "cluster_id": 2, "rank_in_cluster": 2}

$$$$

     RDKit          3D

 49 53  0  0  0  0  0  0  0  0999 V2000
  137.9350   75.6590  222.7210 O   0  0  0  0  0  0  0  0  0  0  0  0
  139.1680   75.8980  221.8950 S   0  0  0  0  0  0  0  0  0  0  0  0
  140.2240   74.9140  222.3190 O   0  0  0  0  0  0  0  0  0  0  0  0
  138.7830   75.6550  220.1690 C   0  0  0  0  0  0  0  0  0  0  0  0
  138.3060   76.9440  219.5610 C   0  0  0  0  0  0  0  0  0  0  0  0
  137.1350   77.5620  220.0360 C   0  0  0  0  0  0  0  0  0  0  0  0
  136.7380   78.8020  219.5290 C   0  0  0  0  0  0  0  0  0  0  0  0
  137.5050   79.4360  218.5470 C   0  0  0  0  0  0  0  0  0  0  0  0
  138.6710   78.8300  218.0720 C   0  0  0  0  0  0  0  0  0  0  0  0
  139.0750   77.5910  218.5790 C   0  0  0  0  0  0  0  0  0  0  0  0
  139.7410   77.5230  222.1360 N   0  0  0  0  0  0  0  0  0  0  0  0
  138.7850   78.5280  222.5150 C   0  0  0  0  0  0  0  0  0  0  0  0
  139.1730   79.6880  223.0360 C   0  0  0  0  0  0  0  0  0  0  0  0
  140.5980   79.9890  223.2270 C   0  0  0  0  0  0  0  0  0  0  0  0
  140.9830   81.1880  223.8450 C   0  0  0  0  0  0  0  0  0  0  0  0
  142.3350   81.4730  224.0470 C   0  0  0  0  0  0  0  0  0  0  0  0
  143.3100   80.5610  223.6370 C   0  0  0  0  0  0  0  0  0  0  0  0
  142.9360   79.3650  223.0200 C   0  0  0  0  0  0  0  0  0  0  0  0
  141.5780   79.0710  222.8030 C   0  0  0  0  0  0  0  0  0  0  0  0
  141.1920   77.7740  222.1200 C   0  0  2  0  0  0  0  0  0  0  0  0
  141.7120   77.7460  220.7050 C   0  0  0  0  0  0  0  0  0  0  0  0
  142.2020   76.6220  220.0430 C   0  0  0  0  0  0  0  0  0  0  0  0
  142.5940   76.9410  218.7890 N   0  0  0  0  0  0  0  0  0  0  0  0
  142.3610   78.2570  218.6520 C   0  0  0  0  0  0  0  0  0  0  0  0
  142.6130   79.0420  217.5260 C   0  0  0  0  0  0  0  0  0  0  0  0
  142.3010   80.4110  217.5960 C   0  0  0  0  0  0  0  0  0  0  0  0
  141.7530   80.9600  218.7760 C   0  0  0  0  0  0  0  0  0  0  0  0
  141.5110   80.1440  219.8960 C   0  0  0  0  0  0  0  0  0  0  0  0
  141.8250   78.7880  219.7980 C   0  0  0  0  0  0  0  0  0  0  0  0
  139.6849   75.3144  219.6393 H   0  0  0  0  0  0  0  0  0  0  0  0
  137.9892   74.8988  220.0797 H   0  0  0  0  0  0  0  0  0  0  0  0
  136.5295   77.0671  220.8096 H   0  0  0  0  0  0  0  0  0  0  0  0
  135.8207   79.2801  219.9031 H   0  0  0  0  0  0  0  0  0  0  0  0
  137.1906   80.4118  218.1483 H   0  0  0  0  0  0  0  0  0  0  0  0
  139.2724   79.3286  217.2976 H   0  0  0  0  0  0  0  0  0  0  0  0
  139.9978   77.1213  218.2078 H   0  0  0  0  0  0  0  0  0  0  0  0
  137.7120   78.3333  222.3711 H   0  0  0  0  0  0  0  0  0  0  0  0
  138.4171   80.4320  223.3278 H   0  0  0  0  0  0  0  0  0  0  0  0
  140.2169   81.9065  224.1718 H   0  0  0  0  0  0  0  0  0  0  0  0
  142.6322   82.4160  224.5291 H   0  0  0  0  0  0  0  0  0  0  0  0
  144.3745   80.7850  223.8003 H   0  0  0  0  0  0  0  0  0  0  0  0
  143.7081   78.6490  222.7020 H   0  0  0  0  0  0  0  0  0  0  0  0
  141.6604   76.9646  222.6992 H   0  0  0  0  0  0  0  0  0  0  0  0
  142.2616   75.6144  220.4802 H   0  0  0  0  0  0  0  0  0  0  0  0
  142.9970   76.2930  218.0770 H   0  0  0  0  0  0  0  0  0  0  0  0
  143.0421   78.6036  216.6129 H   0  0  0  0  0  0  0  0  0  0  0  0
  142.4849   81.0586  216.7261 H   0  0  0  0  0  0  0  0  0  0  0  0
  141.5138   82.0328  218.8197 H   0  0  0  0  0  0  0  0  0  0  0  0
  141.0871   80.5622  220.8209 H   0  0  0  0  0  0  0  0  0  0  0  0
  1  2  2  0
  2  3  2  0
  2  4  1  0
  4  5  1  0
  5  6  2  0
  6  7  1  0
  7  8  2  0
  8  9  1  0
  9 10  2  0
  2 11  1  0
 11 12  1  0
 12 13  2  0
 13 14  1  0
 14 15  2  0
 15 16  1  0
 16 17  2  0
 17 18  1  0
 18 19  2  0
 19 20  1  0
 20 21  1  0
 21 22  2  0
 22 23  1  0
 23 24  1  0
 24 25  2  0
 25 26  1  0
 26 27  2  0
 27 28  1  0
 28 29  2  0
 10  5  1  0
 20 11  1  0
 29 21  1  0
 19 14  1  0
 29 24  1  0
  4 30  1  0
  4 31  1  0
  6 32  1  0
  7 33  1  0
  8 34  1  0
  9 35  1  0
 10 36  1  0
 12 37  1  0
 13 38  1  0
 15 39  1  0
 16 40  1  0
 17 41  1  0
 18 42  1  0
 20 43  1  1
 22 44  1  0
 23 45  1  0
 25 46  1  0
 26 47  1  0
 27 48  1  0
 28 49  1  0
M  END
>  <meeko>  (6) 
{"free_energy": -6.84, "intermolecular_energy": -8.03, "internal_energy": -2.92, "cluster_size": 6, "cluster_id": 2, "rank_in_cluster": 1}

$$$$

     RDKit          3D

 49 53  0  0  0  0  0  0  0  0999 V2000
  143.7060   80.2020  223.2070 O   0  0  0  0  0  0  0  0  0  0  0  0
  142.2510   79.8590  223.0500 S   0  0  0  0  0  0  0  0  0  0  0  0
  141.9380   78.6890  223.9410 O   0  0  0  0  0  0  0  0  0  0  0  0
  141.2550   81.2610  223.5310 C   0  0  0  0  0  0  0  0  0  0  0  0
  139.8040   80.9790  223.2590 C   0  0  0  0  0  0  0  0  0  0  0  0
  139.1250   79.9870  223.9880 C   0  0  0  0  0  0  0  0  0  0  0  0
  137.7560   79.7840  223.7950 C   0  0  0  0  0  0  0  0  0  0  0  0
  137.0540   80.5680  222.8760 C   0  0  0  0  0  0  0  0  0  0  0  0
  137.7210   81.5590  222.1500 C   0  0  0  0  0  0  0  0  0  0  0  0
  139.0900   81.7680  222.3420 C   0  0  0  0  0  0  0  0  0  0  0  0
  141.9100   79.4500  221.3940 N   0  0  0  0  0  0  0  0  0  0  0  0
  141.7810   80.5230  220.4440 C   0  0  0  0  0  0  0  0  0  0  0  0
  141.8560   80.3000  219.1360 C   0  0  0  0  0  0  0  0  0  0  0  0
  142.0590   78.9420  218.6140 C   0  0  0  0  0  0  0  0  0  0  0  0
  142.2080   78.7380  217.2340 C   0  0  0  0  0  0  0  0  0  0  0  0
  142.4200   77.4520  216.7320 C   0  0  0  0  0  0  0  0  0  0  0  0
  142.4860   76.3630  217.6040 C   0  0  0  0  0  0  0  0  0  0  0  0
  142.3380   76.5570  218.9790 C   0  0  0  0  0  0  0  0  0  0  0  0
  142.1150   77.8450  219.4970 C   0  0  0  0  0  0  0  0  0  0  0  0
  141.9440   78.0340  220.9900 C   0  0  2  0  0  0  0  0  0  0  0  0
  140.7050   77.3230  221.4740 C   0  0  0  0  0  0  0  0  0  0  0  0
  140.6820   76.2210  222.3260 C   0  0  0  0  0  0  0  0  0  0  0  0
  139.4110   75.8230  222.5560 N   0  0  0  0  0  0  0  0  0  0  0  0
  138.6280   76.6610  221.8560 C   0  0  0  0  0  0  0  0  0  0  0  0
  137.2360   76.6400  221.7770 C   0  0  0  0  0  0  0  0  0  0  0  0
  136.6080   77.6080  220.9730 C   0  0  0  0  0  0  0  0  0  0  0  0
  137.3770   78.5630  220.2730 C   0  0  0  0  0  0  0  0  0  0  0  0
  138.7800   78.5590  220.3720 C   0  0  0  0  0  0  0  0  0  0  0  0
  139.3770   77.5900  221.1790 C   0  0  0  0  0  0  0  0  0  0  0  0
  141.3933   81.4546  224.6050 H   0  0  0  0  0  0  0  0  0  0  0  0
  141.5666   82.1414  222.9498 H   0  0  0  0  0  0  0  0  0  0  0  0
  139.6736   79.3681  224.7133 H   0  0  0  0  0  0  0  0  0  0  0  0
  137.2302   79.0057  224.3675 H   0  0  0  0  0  0  0  0  0  0  0  0
  135.9768   80.4055  222.7238 H   0  0  0  0  0  0  0  0  0  0  0  0
  137.1677   82.1755  221.4263 H   0  0  0  0  0  0  0  0  0  0  0  0
  139.6097   82.5530  221.7730 H   0  0  0  0  0  0  0  0  0  0  0  0
  141.6171   81.5482  220.8076 H   0  0  0  0  0  0  0  0  0  0  0  0
  141.7649   81.1431  218.4353 H   0  0  0  0  0  0  0  0  0  0  0  0
  142.1577   79.5939  216.5449 H   0  0  0  0  0  0  0  0  0  0  0  0
  142.5351   77.2968  215.6491 H   0  0  0  0  0  0  0  0  0  0  0  0
  142.6548   75.3511  217.2071 H   0  0  0  0  0  0  0  0  0  0  0  0
  142.3963   75.6963  219.6615 H   0  0  0  0  0  0  0  0  0  0  0  0
  142.8321   77.5907  221.4641 H   0  0  0  0  0  0  0  0  0  0  0  0
  141.5751   75.7410  222.7527 H   0  0  0  0  0  0  0  0  0  0  0  0
  139.1060   75.0250  223.1560 H   0  0  0  0  0  0  0  0  0  0  0  0
  136.6477   75.8901  222.3261 H   0  0  0  0  0  0  0  0  0  0  0  0
  135.5113   77.6212  220.8890 H   0  0  0  0  0  0  0  0  0  0  0  0
  136.8756   79.3151  219.6461 H   0  0  0  0  0  0  0  0  0  0  0  0
  139.3883   79.2977  219.8295 H   0  0  0  0  0  0  0  0  0  0  0  0
  1  2  2  0
  2  3  2  0
  2  4  1  0
  4  5  1  0
  5  6  2  0
  6  7  1  0
  7  8  2  0
  8  9  1  0
  9 10  2  0
  2 11  1  0
 11 12  1  0
 12 13  2  0
 13 14  1  0
 14 15  2  0
 15 16  1  0
 16 17  2  0
 17 18  1  0
 18 19  2  0
 19 20  1  0
 20 21  1  0
 21 22  2  0
 22 23  1  0
 23 24  1  0
 24 25  2  0
 25 26  1  0
 26 27  2  0
 27 28  1  0
 28 29  2  0
 10  5  1  0
 20 11  1  0
 29 21  1  0
 19 14  1  0
 29 24  1  0
  4 30  1  0
  4 31  1  0
  6 32  1  0
  7 33  1  0
  8 34  1  0
  9 35  1  0
 10 36  1  0
 12 37  1  0
 13 38  1  0
 15 39  1  0
 16 40  1  0
 17 41  1  0
 18 42  1  0
 20 43  1  1
 22 44  1  0
 23 45  1  0
 25 46  1  0
 26 47  1  0
 27 48  1  0
 28 49  1  0
M  END
>  <meeko>  (7) 
{"free_energy": -6.85, "intermolecular_energy": -8.04, "internal_energy": -3.03, "cluster_size": 14, "cluster_id": 1, "rank_in_cluster": 8}

$$$$

     RDKit          3D

 49 53  0  0  0  0  0  0  0  0999 V2000
  143.7170   80.1980  223.2020 O   0  0  0  0  0  0  0  0  0  0  0  0
  142.2610   79.8610  223.0370 S   0  0  0  0  0  0  0  0  0  0  0  0
  141.9380   78.6930  223.9280 O   0  0  0  0  0  0  0  0  0  0  0  0
  141.2680   81.2670  223.5110 C   0  0  0  0  0  0  0  0  0  0  0  0
  139.8180   80.9940  223.2260 C   0  0  0  0  0  0  0  0  0  0  0  0
  139.1360   79.9830  223.9260 C   0  0  0  0  0  0  0  0  0  0  0  0
  137.7680   79.7860  223.7220 C   0  0  0  0  0  0  0  0  0  0  0  0
  137.0700   80.5950  222.8210 C   0  0  0  0  0  0  0  0  0  0  0  0
  137.7400   81.6040  222.1240 C   0  0  0  0  0  0  0  0  0  0  0  0
  139.1080   81.8070  222.3280 C   0  0  0  0  0  0  0  0  0  0  0  0
  141.9280   79.4520  221.3800 N   0  0  0  0  0  0  0  0  0  0  0  0
  141.7990   80.5250  220.4310 C   0  0  0  0  0  0  0  0  0  0  0  0
  141.8790   80.3030  219.1220 C   0  0  0  0  0  0  0  0  0  0  0  0
  142.0880   78.9460  218.6010 C   0  0  0  0  0  0  0  0  0  0  0  0
  142.2430   78.7430  217.2210 C   0  0  0  0  0  0  0  0  0  0  0  0
  142.4610   77.4580  216.7190 C   0  0  0  0  0  0  0  0  0  0  0  0
  142.5280   76.3690  217.5900 C   0  0  0  0  0  0  0  0  0  0  0  0
  142.3730   76.5610  218.9650 C   0  0  0  0  0  0  0  0  0  0  0  0
  142.1450   77.8490  219.4830 C   0  0  0  0  0  0  0  0  0  0  0  0
  141.9680   78.0350  220.9760 C   0  0  2  0  0  0  0  0  0  0  0  0
  140.7290   77.3210  221.4550 C   0  0  0  0  0  0  0  0  0  0  0  0
  140.7070   76.2160  222.3030 C   0  0  0  0  0  0  0  0  0  0  0  0
  139.4360   75.8150  222.5290 N   0  0  0  0  0  0  0  0  0  0  0  0
  138.6530   76.6520  221.8300 C   0  0  0  0  0  0  0  0  0  0  0  0
  137.2610   76.6290  221.7470 C   0  0  0  0  0  0  0  0  0  0  0  0
  136.6330   77.5980  220.9460 C   0  0  0  0  0  0  0  0  0  0  0  0
  137.4010   78.5570  220.2500 C   0  0  0  0  0  0  0  0  0  0  0  0
  138.8040   78.5550  220.3520 C   0  0  0  0  0  0  0  0  0  0  0  0
  139.4020   77.5850  221.1570 C   0  0  0  0  0  0  0  0  0  0  0  0
  141.3978   81.4582  224.5864 H   0  0  0  0  0  0  0  0  0  0  0  0
  141.5894   82.1462  222.9334 H   0  0  0  0  0  0  0  0  0  0  0  0
  139.6816   79.3449  224.6368 H   0  0  0  0  0  0  0  0  0  0  0  0
  137.2394   78.9930  224.2713 H   0  0  0  0  0  0  0  0  0  0  0  0
  135.9932   80.4375  222.6605 H   0  0  0  0  0  0  0  0  0  0  0  0
  137.1903   82.2393  221.4139 H   0  0  0  0  0  0  0  0  0  0  0  0
  139.6303   82.6069  221.7828 H   0  0  0  0  0  0  0  0  0  0  0  0
  141.6309   81.5494  220.7949 H   0  0  0  0  0  0  0  0  0  0  0  0
  141.7875   81.1460  218.4213 H   0  0  0  0  0  0  0  0  0  0  0  0
  142.1926   79.5991  216.5321 H   0  0  0  0  0  0  0  0  0  0  0  0
  142.5800   77.3039  215.6364 H   0  0  0  0  0  0  0  0  0  0  0  0
  142.7031   75.3582  217.1930 H   0  0  0  0  0  0  0  0  0  0  0  0
  142.4296   75.6997  219.6469 H   0  0  0  0  0  0  0  0  0  0  0  0
  142.8549   77.5926  221.4532 H   0  0  0  0  0  0  0  0  0  0  0  0
  141.6002   75.7362  222.7296 H   0  0  0  0  0  0  0  0  0  0  0  0
  139.1310   75.0140  223.1260 H   0  0  0  0  0  0  0  0  0  0  0  0
  136.6729   75.8757  222.2916 H   0  0  0  0  0  0  0  0  0  0  0  0
  135.5364   77.6095  220.8607 H   0  0  0  0  0  0  0  0  0  0  0  0
  136.8993   79.3100  219.6244 H   0  0  0  0  0  0  0  0  0  0  0  0
  139.4118   79.2965  219.8129 H   0  0  0  0  0  0  0  0  0  0  0  0
  1  2  2  0
  2  3  2  0
  2  4  1  0
  4  5  1  0
  5  6  2  0
  6  7  1  0
  7  8  2  0
  8  9  1  0
  9 10  2  0
  2 11  1  0
 11 12  1  0
 12 13  2  0
 13 14  1  0
 14 15  2  0
 15 16  1  0
 16 17  2  0
 17 18  1  0
 18 19  2  0
 19 20  1  0
 20 21  1  0
 21 22  2  0
 22 23  1  0
 23 24  1  0
 24 25  2  0
 25 26  1  0
 26 27  2  0
 27 28  1  0
 28 29  2  0
 10  5  1  0
 20 11  1  0
 29 21  1  0
 19 14  1  0
 29 24  1  0
  4 30  1  0
  4 31  1  0
  6 32  1  0
  7 33  1  0
  8 34  1  0
  9 35  1  0
 10 36  1  0
 12 37  1  0
 13 38  1  0
 15 39  1  0
 16 40  1  0
 17 41  1  0
 18 42  1  0
 20 43  1  1
 22 44  1  0
 23 45  1  0
 25 46  1  0
 26 47  1  0
 27 48  1  0
 28 49  1  0
M  END
>  <meeko>  (8) 
{"free_energy": -6.85, "intermolecular_energy": -8.05, "internal_energy": -3.03, "cluster_size": 14, "cluster_id": 1, "rank_in_cluster": 4}

$$$$

     RDKit          3D

 49 53  0  0  0  0  0  0  0  0999 V2000
  143.7340   80.2100  223.2130 O   0  0  0  0  0  0  0  0  0  0  0  0
  142.2800   79.8630  223.0550 S   0  0  0  0  0  0  0  0  0  0  0  0
  141.9690   78.6920  223.9470 O   0  0  0  0  0  0  0  0  0  0  0  0
  141.2800   81.2620  223.5360 C   0  0  0  0  0  0  0  0  0  0  0  0
  139.8290   80.9770  223.2640 C   0  0  0  0  0  0  0  0  0  0  0  0
  139.1530   79.9830  223.9940 C   0  0  0  0  0  0  0  0  0  0  0  0
  137.7850   79.7770  223.8000 C   0  0  0  0  0  0  0  0  0  0  0  0
  137.0810   80.5580  222.8800 C   0  0  0  0  0  0  0  0  0  0  0  0
  137.7450   81.5490  222.1530 C   0  0  0  0  0  0  0  0  0  0  0  0
  139.1140   81.7620  222.3460 C   0  0  0  0  0  0  0  0  0  0  0  0
  141.9410   79.4530  221.3990 N   0  0  0  0  0  0  0  0  0  0  0  0
  141.8150   80.5250  220.4490 C   0  0  0  0  0  0  0  0  0  0  0  0
  141.8910   80.3010  219.1400 C   0  0  0  0  0  0  0  0  0  0  0  0
  142.0930   78.9420  218.6200 C   0  0  0  0  0  0  0  0  0  0  0  0
  142.2430   78.7360  217.2400 C   0  0  0  0  0  0  0  0  0  0  0  0
  142.4540   77.4500  216.7400 C   0  0  0  0  0  0  0  0  0  0  0  0
  142.5170   76.3610  217.6130 C   0  0  0  0  0  0  0  0  0  0  0  0
  142.3670   76.5570  218.9880 C   0  0  0  0  0  0  0  0  0  0  0  0
  142.1460   77.8460  219.5040 C   0  0  0  0  0  0  0  0  0  0  0  0
  141.9730   78.0360  220.9970 C   0  0  2  0  0  0  0  0  0  0  0  0
  140.7320   77.3280  221.4800 C   0  0  0  0  0  0  0  0  0  0  0  0
  140.7060   76.2300  222.3360 C   0  0  0  0  0  0  0  0  0  0  0  0
  139.4340   75.8330  222.5640 N   0  0  0  0  0  0  0  0  0  0  0  0
  138.6530   76.6680  221.8570 C   0  0  0  0  0  0  0  0  0  0  0  0
  137.2610   76.6470  221.7730 C   0  0  0  0  0  0  0  0  0  0  0  0
  136.6370   77.6120  220.9630 C   0  0  0  0  0  0  0  0  0  0  0  0
  137.4080   78.5640  220.2610 C   0  0  0  0  0  0  0  0  0  0  0  0
  138.8110   78.5590  220.3650 C   0  0  0  0  0  0  0  0  0  0  0  0
  139.4050   77.5940  221.1790 C   0  0  0  0  0  0  0  0  0  0  0  0
  141.4177   81.4557  224.6100 H   0  0  0  0  0  0  0  0  0  0  0  0
  141.5893   82.1430  222.9544 H   0  0  0  0  0  0  0  0  0  0  0  0
  139.7030   79.3660  224.7198 H   0  0  0  0  0  0  0  0  0  0  0  0
  137.2608   78.9980  224.3730 H   0  0  0  0  0  0  0  0  0  0  0  0
  136.0042   80.3926  222.7282 H   0  0  0  0  0  0  0  0  0  0  0  0
  137.1905   82.1627  221.4278 H   0  0  0  0  0  0  0  0  0  0  0  0
  139.6321   82.5475  221.7763 H   0  0  0  0  0  0  0  0  0  0  0  0
  141.6526   81.5506  220.8119 H   0  0  0  0  0  0  0  0  0  0  0  0
  141.8015   81.1435  218.4385 H   0  0  0  0  0  0  0  0  0  0  0  0
  142.1941   79.5911  216.5498 H   0  0  0  0  0  0  0  0  0  0  0  0
  142.5708   77.2938  215.6574 H   0  0  0  0  0  0  0  0  0  0  0  0
  142.6848   75.3485  217.2173 H   0  0  0  0  0  0  0  0  0  0  0  0
  142.4222   75.6970  219.6716 H   0  0  0  0  0  0  0  0  0  0  0  0
  142.8591   77.5908  221.4730 H   0  0  0  0  0  0  0  0  0  0  0  0
  141.5977   75.7516  222.7673 H   0  0  0  0  0  0  0  0  0  0  0  0
  139.1260   75.0380  223.1660 H   0  0  0  0  0  0  0  0  0  0  0  0
  136.6703   75.8995  222.3228 H   0  0  0  0  0  0  0  0  0  0  0  0
  135.5406   77.6254  220.8756 H   0  0  0  0  0  0  0  0  0  0  0  0
  136.9090   79.3137  219.6293 H   0  0  0  0  0  0  0  0  0  0  0  0
  139.4217   79.2943  219.8206 H   0  0  0  0  0  0  0  0  0  0  0  0
  1  2  2  0
  2  3  2  0
  2  4  1  0
  4  5  1  0
  5  6  2  0
  6  7  1  0
  7  8  2  0
  8  9  1  0
  9 10  2  0
  2 11  1  0
 11 12  1  0
 12 13  2  0
 13 14  1  0
 14 15  2  0
 15 16  1  0
 16 17  2  0
 17 18  1  0
 18 19  2  0
 19 20  1  0
 20 21  1  0
 21 22  2  0
 22 23  1  0
 23 24  1  0
 24 25  2  0
 25 26  1  0
 26 27  2  0
 27 28  1  0
 28 29  2  0
 10  5  1  0
 20 11  1  0
 29 21  1  0
 19 14  1  0
 29 24  1  0
  4 30  1  0
  4 31  1  0
  6 32  1  0
  7 33  1  0
  8 34  1  0
  9 35  1  0
 10 36  1  0
 12 37  1  0
 13 38  1  0
 15 39  1  0
 16 40  1  0
 17 41  1  0
 18 42  1  0
 20 43  1  1
 22 44  1  0
 23 45  1  0
 25 46  1  0
 26 47  1  0
 27 48  1  0
 28 49  1  0
M  END
>  <meeko>  (9) 
{"free_energy": -6.84, "intermolecular_energy": -8.04, "internal_energy": -3.04, "cluster_size": 14, "cluster_id": 1, "rank_in_cluster": 10}

$$$$

     RDKit          3D

 49 53  0  0  0  0  0  0  0  0999 V2000
  143.6990   80.1950  223.2040 O   0  0  0  0  0  0  0  0  0  0  0  0
  142.2440   79.8580  223.0340 S   0  0  0  0  0  0  0  0  0  0  0  0
  141.9180   78.6920  223.9270 O   0  0  0  0  0  0  0  0  0  0  0  0
  141.2500   81.2650  223.5010 C   0  0  0  0  0  0  0  0  0  0  0  0
  139.7990   80.9840  223.2290 C   0  0  0  0  0  0  0  0  0  0  0  0
  139.1250   79.9750  223.9410 C   0  0  0  0  0  0  0  0  0  0  0  0
  137.7570   79.7710  223.7480 C   0  0  0  0  0  0  0  0  0  0  0  0
  137.0490   80.5710  222.8460 C   0  0  0  0  0  0  0  0  0  0  0  0
  137.7100   81.5780  222.1370 C   0  0  0  0  0  0  0  0  0  0  0  0
  139.0790   81.7880  222.3300 C   0  0  0  0  0  0  0  0  0  0  0  0
  141.9170   79.4450  221.3760 N   0  0  0  0  0  0  0  0  0  0  0  0
  141.7900   80.5160  220.4250 C   0  0  0  0  0  0  0  0  0  0  0  0
  141.8750   80.2910  219.1170 C   0  0  0  0  0  0  0  0  0  0  0  0
  142.0880   78.9340  218.5990 C   0  0  0  0  0  0  0  0  0  0  0  0
  142.2480   78.7290  217.2200 C   0  0  0  0  0  0  0  0  0  0  0  0
  142.4690   77.4430  216.7210 C   0  0  0  0  0  0  0  0  0  0  0  0
  142.5350   76.3550  217.5950 C   0  0  0  0  0  0  0  0  0  0  0  0
  142.3750   76.5500  218.9690 C   0  0  0  0  0  0  0  0  0  0  0  0
  142.1430   77.8390  219.4830 C   0  0  0  0  0  0  0  0  0  0  0  0
  141.9610   78.0280  220.9750 C   0  0  2  0  0  0  0  0  0  0  0  0
  140.7210   77.3120  221.4520 C   0  0  0  0  0  0  0  0  0  0  0  0
  140.6990   76.2010  222.2920 C   0  0  0  0  0  0  0  0  0  0  0  0
  139.4280   75.8010  222.5170 N   0  0  0  0  0  0  0  0  0  0  0  0
  138.6450   76.6450  221.8250 C   0  0  0  0  0  0  0  0  0  0  0  0
  137.2520   76.6250  221.7460 C   0  0  0  0  0  0  0  0  0  0  0  0
  136.6250   77.6010  220.9520 C   0  0  0  0  0  0  0  0  0  0  0  0
  137.3940   78.5640  220.2620 C   0  0  0  0  0  0  0  0  0  0  0  0
  138.7970   78.5590  220.3610 C   0  0  0  0  0  0  0  0  0  0  0  0
  139.3940   77.5820  221.1580 C   0  0  0  0  0  0  0  0  0  0  0  0
  141.3868   81.4674  224.5735 H   0  0  0  0  0  0  0  0  0  0  0  0
  141.5643   82.1396  222.9126 H   0  0  0  0  0  0  0  0  0  0  0  0
  139.6778   79.3442  224.6526 H   0  0  0  0  0  0  0  0  0  0  0  0
  137.2357   78.9797  224.3065 H   0  0  0  0  0  0  0  0  0  0  0  0
  135.9718   80.4079  222.6943 H   0  0  0  0  0  0  0  0  0  0  0  0
  137.1527   82.2060  221.4264 H   0  0  0  0  0  0  0  0  0  0  0  0
  139.5942   82.5862  221.7755 H   0  0  0  0  0  0  0  0  0  0  0  0
  141.6193   81.5409  220.7862 H   0  0  0  0  0  0  0  0  0  0  0  0
  141.7846   81.1324  218.4143 H   0  0  0  0  0  0  0  0  0  0  0  0
  142.1992   79.5839  216.5295 H   0  0  0  0  0  0  0  0  0  0  0  0
  142.5911   77.2869  215.6390 H   0  0  0  0  0  0  0  0  0  0  0  0
  142.7132   75.3437  217.2007 H   0  0  0  0  0  0  0  0  0  0  0  0
  142.4307   75.6905  219.6532 H   0  0  0  0  0  0  0  0  0  0  0  0
  142.8474   77.5885  221.4558 H   0  0  0  0  0  0  0  0  0  0  0  0
  141.5921   75.7166  222.7136 H   0  0  0  0  0  0  0  0  0  0  0  0
  139.1230   74.9970  223.1090 H   0  0  0  0  0  0  0  0  0  0  0  0
  136.6634   75.8698  222.2876 H   0  0  0  0  0  0  0  0  0  0  0  0
  135.5283   77.6148  220.8675 H   0  0  0  0  0  0  0  0  0  0  0  0
  136.8925   79.3227  219.6433 H   0  0  0  0  0  0  0  0  0  0  0  0
  139.4053   79.3031  219.8260 H   0  0  0  0  0  0  0  0  0  0  0  0
  1  2  2  0
  2  3  2  0
  2  4  1  0
  4  5  1  0
  5  6  2  0
  6  7  1  0
  7  8  2  0
  8  9  1  0
  9 10  2  0
  2 11  1  0
 11 12  1  0
 12 13  2  0
 13 14  1  0
 14 15  2  0
 15 16  1  0
 16 17  2  0
 17 18  1  0
 18 19  2  0
 19 20  1  0
 20 21  1  0
 21 22  2  0
 22 23  1  0
 23 24  1  0
 24 25  2  0
 25 26  1  0
 26 27  2  0
 27 28  1  0
 28 29  2  0
 10  5  1  0
 20 11  1  0
 29 21  1  0
 19 14  1  0
 29 24  1  0
  4 30  1  0
  4 31  1  0
  6 32  1  0
  7 33  1  0
  8 34  1  0
  9 35  1  0
 10 36  1  0
 12 37  1  0
 13 38  1  0
 15 39  1  0
 16 40  1  0
 17 41  1  0
 18 42  1  0
 20 43  1  1
 22 44  1  0
 23 45  1  0
 25 46  1  0
 26 47  1  0
 27 48  1  0
 28 49  1  0
M  END
>  <meeko>  (10) 
{"free_energy": -6.86, "intermolecular_energy": -8.06, "internal_energy": -3.02, "cluster_size": 14, "cluster_id": 1, "rank_in_cluster": 3}

$$$$

     RDKit          3D

 49 53  0  0  0  0  0  0  0  0999 V2000
  143.7030   80.1670  223.2340 O   0  0  0  0  0  0  0  0  0  0  0  0
  142.2460   79.8470  223.0480 S   0  0  0  0  0  0  0  0  0  0  0  0
  141.9000   78.6710  223.9190 O   0  0  0  0  0  0  0  0  0  0  0  0
  141.2610   81.2570  223.5280 C   0  0  0  0  0  0  0  0  0  0  0  0
  139.8120   81.0030  223.2210 C   0  0  0  0  0  0  0  0  0  0  0  0
  139.1480   81.7700  222.2480 C   0  0  0  0  0  0  0  0  0  0  0  0
  137.8260   81.4780  221.9030 C   0  0  0  0  0  0  0  0  0  0  0  0
  137.1570   80.4190  222.5230 C   0  0  0  0  0  0  0  0  0  0  0  0
  137.8110   79.6490  223.4890 C   0  0  0  0  0  0  0  0  0  0  0  0
  139.1360   79.9360  223.8350 C   0  0  0  0  0  0  0  0  0  0  0  0
  141.9290   79.4630  221.3810 N   0  0  0  0  0  0  0  0  0  0  0  0
  141.8040   80.5510  220.4480 C   0  0  0  0  0  0  0  0  0  0  0  0
  141.8960   80.3500  219.1370 C   0  0  0  0  0  0  0  0  0  0  0  0
  142.1150   79.0020  218.5950 C   0  0  0  0  0  0  0  0  0  0  0  0
  142.2830   78.8220  217.2140 C   0  0  0  0  0  0  0  0  0  0  0  0
  142.5100   77.5460  216.6930 C   0  0  0  0  0  0  0  0  0  0  0  0
  142.5740   76.4430  217.5480 C   0  0  0  0  0  0  0  0  0  0  0  0
  142.4070   76.6140  218.9240 C   0  0  0  0  0  0  0  0  0  0  0  0
  142.1690   77.8920  219.4600 C   0  0  0  0  0  0  0  0  0  0  0  0
  141.9780   78.0540  220.9550 C   0  0  2  0  0  0  0  0  0  0  0  0
  140.7380   77.3260  221.4120 C   0  0  0  0  0  0  0  0  0  0  0  0
  140.7050   76.2750  222.3250 C   0  0  0  0  0  0  0  0  0  0  0  0
  139.4370   75.8440  222.5080 N   0  0  0  0  0  0  0  0  0  0  0  0
  138.6670   76.6090  221.7170 C   0  0  0  0  0  0  0  0  0  0  0  0
  137.2830   76.5320  221.5630 C   0  0  0  0  0  0  0  0  0  0  0  0
  136.6700   77.4280  220.6690 C   0  0  0  0  0  0  0  0  0  0  0  0
  137.4440   78.3690  219.9560 C   0  0  0  0  0  0  0  0  0  0  0  0
  138.8390   78.4230  220.1320 C   0  0  0  0  0  0  0  0  0  0  0  0
  139.4210   77.5250  221.0280 C   0  0  0  0  0  0  0  0  0  0  0  0
  141.3789   81.4327  224.6075 H   0  0  0  0  0  0  0  0  0  0  0  0
  141.5987   82.1403  222.9661 H   0  0  0  0  0  0  0  0  0  0  0  0
  139.6713   82.6033  221.7563 H   0  0  0  0  0  0  0  0  0  0  0  0
  137.3108   82.0826  221.1421 H   0  0  0  0  0  0  0  0  0  0  0  0
  136.1158   80.1915  222.2507 H   0  0  0  0  0  0  0  0  0  0  0  0
  137.2835   78.8166  223.9777 H   0  0  0  0  0  0  0  0  0  0  0  0
  139.6500   79.3238  224.5906 H   0  0  0  0  0  0  0  0  0  0  0  0
  141.6289   81.5688  220.8267 H   0  0  0  0  0  0  0  0  0  0  0  0
  141.8070   81.2039  218.4492 H   0  0  0  0  0  0  0  0  0  0  0  0
  142.2358   79.6891  216.5387 H   0  0  0  0  0  0  0  0  0  0  0  0
  142.6384   77.4096  215.6091 H   0  0  0  0  0  0  0  0  0  0  0  0
  142.7561   75.4390  217.1371 H   0  0  0  0  0  0  0  0  0  0  0  0
  142.4620   75.7427  219.5932 H   0  0  0  0  0  0  0  0  0  0  0  0
  142.8627   77.6083  221.4332 H   0  0  0  0  0  0  0  0  0  0  0  0
  141.5883   75.8540  222.8275 H   0  0  0  0  0  0  0  0  0  0  0  0
  139.1250   75.0710  223.1370 H   0  0  0  0  0  0  0  0  0  0  0  0
  136.6898   75.7940  222.1229 H   0  0  0  0  0  0  0  0  0  0  0  0
  135.5800   77.3954  220.5243 H   0  0  0  0  0  0  0  0  0  0  0  0
  136.9536   79.0642  219.2587 H   0  0  0  0  0  0  0  0  0  0  0  0
  139.4521   79.1508  219.5803 H   0  0  0  0  0  0  0  0  0  0  0  0
  1  2  2  0
  2  3  2  0
  2  4  1  0
  4  5  1  0
  5  6  2  0
  6  7  1  0
  7  8  2  0
  8  9  1  0
  9 10  2  0
  2 11  1  0
 11 12  1  0
 12 13  2  0
 13 14  1  0
 14 15  2  0
 15 16  1  0
 16 17  2  0
 17 18  1  0
 18 19  2  0
 19 20  1  0
 20 21  1  0
 21 22  2  0
 22 23  1  0
 23 24  1  0
 24 25  2  0
 25 26  1  0
 26 27  2  0
 27 28  1  0
 28 29  2  0
 10  5  1  0
 20 11  1  0
 29 21  1  0
 19 14  1  0
 29 24  1  0
  4 30  1  0
  4 31  1  0
  6 32  1  0
  7 33  1  0
  8 34  1  0
  9 35  1  0
 10 36  1  0
 12 37  1  0
 13 38  1  0
 15 39  1  0
 16 40  1  0
 17 41  1  0
 18 42  1  0
 20 43  1  1
 22 44  1  0
 23 45  1  0
 25 46  1  0
 26 47  1  0
 27 48  1  0
 28 49  1  0
M  END
>  <meeko>  (11) 
{"free_energy": -6.79, "intermolecular_energy": -7.98, "internal_energy": -3.06, "cluster_size": 14, "cluster_id": 1, "rank_in_cluster": 14}

$$$$

     RDKit          3D

 49 53  0  0  0  0  0  0  0  0999 V2000
  143.7080   80.1670  223.1840 O   0  0  0  0  0  0  0  0  0  0  0  0
  142.2500   79.8420  223.0170 S   0  0  0  0  0  0  0  0  0  0  0  0
  141.9120   78.6870  223.9190 O   0  0  0  0  0  0  0  0  0  0  0  0
  141.2680   81.2630  223.4700 C   0  0  0  0  0  0  0  0  0  0  0  0
  139.8130   80.9850  223.2220 C   0  0  0  0  0  0  0  0  0  0  0  0
  139.1460   79.9870  223.9560 C   0  0  0  0  0  0  0  0  0  0  0  0
  137.7740   79.7860  223.7850 C   0  0  0  0  0  0  0  0  0  0  0  0
  137.0560   80.5780  222.8850 C   0  0  0  0  0  0  0  0  0  0  0  0
  137.7100   81.5740  222.1550 C   0  0  0  0  0  0  0  0  0  0  0  0
  139.0830   81.7810  222.3250 C   0  0  0  0  0  0  0  0  0  0  0  0
  141.9190   79.4180  221.3620 N   0  0  0  0  0  0  0  0  0  0  0  0
  141.7860   80.4820  220.4040 C   0  0  0  0  0  0  0  0  0  0  0  0
  141.8680   80.2500  219.0980 C   0  0  0  0  0  0  0  0  0  0  0  0
  142.0840   78.8890  218.5870 C   0  0  0  0  0  0  0  0  0  0  0  0
  142.2410   78.6760  217.2090 C   0  0  0  0  0  0  0  0  0  0  0  0
  142.4650   77.3880  216.7180 C   0  0  0  0  0  0  0  0  0  0  0  0
  142.5370   76.3060  217.5990 C   0  0  0  0  0  0  0  0  0  0  0  0
  142.3810   76.5100  218.9720 C   0  0  0  0  0  0  0  0  0  0  0  0
  142.1460   77.8000  219.4780 C   0  0  0  0  0  0  0  0  0  0  0  0
  141.9660   77.9980  220.9700 C   0  0  2  0  0  0  0  0  0  0  0  0
  140.7310   77.2820  221.4540 C   0  0  0  0  0  0  0  0  0  0  0  0
  140.7160   76.1640  222.2850 C   0  0  0  0  0  0  0  0  0  0  0  0
  139.4460   75.7640  222.5220 N   0  0  0  0  0  0  0  0  0  0  0  0
  138.6570   76.6170  221.8460 C   0  0  0  0  0  0  0  0  0  0  0  0
  137.2640   76.6010  221.7820 C   0  0  0  0  0  0  0  0  0  0  0  0
  136.6300   77.5850  221.0040 C   0  0  0  0  0  0  0  0  0  0  0  0
  137.3930   78.5520  220.3130 C   0  0  0  0  0  0  0  0  0  0  0  0
  138.7970   78.5420  220.3960 C   0  0  0  0  0  0  0  0  0  0  0  0
  139.4010   77.5570  221.1790 C   0  0  0  0  0  0  0  0  0  0  0  0
  141.4194   81.4848  224.5367 H   0  0  0  0  0  0  0  0  0  0  0  0
  141.5789   82.1246  222.8609 H   0  0  0  0  0  0  0  0  0  0  0  0
  139.7068   79.3627  224.6671 H   0  0  0  0  0  0  0  0  0  0  0  0
  137.2580   79.0029  224.3599 H   0  0  0  0  0  0  0  0  0  0  0  0
  135.9760   80.4174  222.7512 H   0  0  0  0  0  0  0  0  0  0  0  0
  137.1444   82.1961  221.4457 H   0  0  0  0  0  0  0  0  0  0  0  0
  139.5928   82.5707  221.7535 H   0  0  0  0  0  0  0  0  0  0  0  0
  141.6129   81.5086  220.7592 H   0  0  0  0  0  0  0  0  0  0  0  0
  141.7730   81.0870  218.3907 H   0  0  0  0  0  0  0  0  0  0  0  0
  142.1875   79.5263  216.5132 H   0  0  0  0  0  0  0  0  0  0  0  0
  142.5848   77.2252  215.6367 H   0  0  0  0  0  0  0  0  0  0  0  0
  142.7167   75.2925  217.2110 H   0  0  0  0  0  0  0  0  0  0  0  0
  142.4425   75.6554  219.6618 H   0  0  0  0  0  0  0  0  0  0  0  0
  142.8545   77.5639  221.4519 H   0  0  0  0  0  0  0  0  0  0  0  0
  141.6130   75.6743  222.6921 H   0  0  0  0  0  0  0  0  0  0  0  0
  139.1450   74.9560  223.1100 H   0  0  0  0  0  0  0  0  0  0  0  0
  136.6799   75.8422  222.3233 H   0  0  0  0  0  0  0  0  0  0  0  0
  135.5324   77.6021  220.9328 H   0  0  0  0  0  0  0  0  0  0  0  0
  136.8864   79.3172  219.7066 H   0  0  0  0  0  0  0  0  0  0  0  0
  139.4012   79.2885  219.8596 H   0  0  0  0  0  0  0  0  0  0  0  0
  1  2  2  0
  2  3  2  0
  2  4  1  0
  4  5  1  0
  5  6  2  0
  6  7  1  0
  7  8  2  0
  8  9  1  0
  9 10  2  0
  2 11  1  0
 11 12  1  0
 12 13  2  0
 13 14  1  0
 14 15  2  0
 15 16  1  0
 16 17  2  0
 17 18  1  0
 18 19  2  0
 19 20  1  0
 20 21  1  0
 21 22  2  0
 22 23  1  0
 23 24  1  0
 24 25  2  0
 25 26  1  0
 26 27  2  0
 27 28  1  0
 28 29  2  0
 10  5  1  0
 20 11  1  0
 29 21  1  0
 19 14  1  0
 29 24  1  0
  4 30  1  0
  4 31  1  0
  6 32  1  0
  7 33  1  0
  8 34  1  0
  9 35  1  0
 10 36  1  0
 12 37  1  0
 13 38  1  0
 15 39  1  0
 16 40  1  0
 17 41  1  0
 18 42  1  0
 20 43  1  1
 22 44  1  0
 23 45  1  0
 25 46  1  0
 26 47  1  0
 27 48  1  0
 28 49  1  0
M  END
>  <meeko>  (12) 
{"free_energy": -6.87, "intermolecular_energy": -8.07, "internal_energy": -3.0, "cluster_size": 14, "cluster_id": 1, "rank_in_cluster": 1}

$$$$

     RDKit          3D

 49 53  0  0  0  0  0  0  0  0999 V2000
  143.6530   80.3810  223.3950 O   0  0  0  0  0  0  0  0  0  0  0  0
  142.2220   79.9550  223.2210 S   0  0  0  0  0  0  0  0  0  0  0  0
  141.9930   78.7100  224.0320 O   0  0  0  0  0  0  0  0  0  0  0  0
  141.1410   81.2530  223.8000 C   0  0  0  0  0  0  0  0  0  0  0  0
  139.7210   80.9510  223.4140 C   0  0  0  0  0  0  0  0  0  0  0  0
  138.9840   79.9840  224.1200 C   0  0  0  0  0  0  0  0  0  0  0  0
  137.6380   79.7640  223.8160 C   0  0  0  0  0  0  0  0  0  0  0  0
  137.0170   80.5070  222.8080 C   0  0  0  0  0  0  0  0  0  0  0  0
  137.7410   81.4720  222.1040 C   0  0  0  0  0  0  0  0  0  0  0  0
  139.0870   81.6990  222.4070 C   0  0  0  0  0  0  0  0  0  0  0  0
  141.8950   79.6380  221.5420 N   0  0  0  0  0  0  0  0  0  0  0  0
  141.7510   80.7620  220.6560 C   0  0  0  0  0  0  0  0  0  0  0  0
  141.8340   80.6170  219.3380 C   0  0  0  0  0  0  0  0  0  0  0  0
  142.0620   79.2950  218.7390 C   0  0  0  0  0  0  0  0  0  0  0  0
  142.2200   79.1750  217.3500 C   0  0  0  0  0  0  0  0  0  0  0  0
  142.4560   77.9240  216.7740 C   0  0  0  0  0  0  0  0  0  0  0  0
  142.5380   76.7870  217.5820 C   0  0  0  0  0  0  0  0  0  0  0  0
  142.3810   76.8980  218.9650 C   0  0  0  0  0  0  0  0  0  0  0  0
  142.1350   78.1500  219.5560 C   0  0  0  0  0  0  0  0  0  0  0  0
  141.9550   78.2480  221.0570 C   0  0  2  0  0  0  0  0  0  0  0  0
  140.7260   77.4890  221.4930 C   0  0  0  0  0  0  0  0  0  0  0  0
  140.7130   76.3900  222.3490 C   0  0  0  0  0  0  0  0  0  0  0  0
  139.4510   75.9420  222.5280 N   0  0  0  0  0  0  0  0  0  0  0  0
  138.6640   76.7440  221.7920 C   0  0  0  0  0  0  0  0  0  0  0  0
  137.2780   76.6670  221.6560 C   0  0  0  0  0  0  0  0  0  0  0  0
  136.6460   77.6060  220.8220 C   0  0  0  0  0  0  0  0  0  0  0  0
  137.4030   78.5890  220.1490 C   0  0  0  0  0  0  0  0  0  0  0  0
  138.8010   78.6420  220.3060 C   0  0  0  0  0  0  0  0  0  0  0  0
  139.4020   77.7010  221.1420 C   0  0  0  0  0  0  0  0  0  0  0  0
  141.2130   81.3253  224.8953 H   0  0  0  0  0  0  0  0  0  0  0  0
  141.4443   82.2060  223.3419 H   0  0  0  0  0  0  0  0  0  0  0  0
  139.4689   79.3983  224.9149 H   0  0  0  0  0  0  0  0  0  0  0  0
  137.0665   79.0052  224.3706 H   0  0  0  0  0  0  0  0  0  0  0  0
  135.9577   80.3317  222.5690 H   0  0  0  0  0  0  0  0  0  0  0  0
  137.2513   82.0545  221.3097 H   0  0  0  0  0  0  0  0  0  0  0  0
  139.6515   82.4653  221.8556 H   0  0  0  0  0  0  0  0  0  0  0  0
  141.5686   81.7613  221.0781 H   0  0  0  0  0  0  0  0  0  0  0  0
  141.7307   81.4977  218.6871 H   0  0  0  0  0  0  0  0  0  0  0  0
  142.1579   80.0690  216.7122 H   0  0  0  0  0  0  0  0  0  0  0  0
  142.5772   77.8343  215.6844 H   0  0  0  0  0  0  0  0  0  0  0  0
  142.7265   75.8030  217.1279 H   0  0  0  0  0  0  0  0  0  0  0  0
  142.4502   76.0000  219.5965 H   0  0  0  0  0  0  0  0  0  0  0  0
  142.8483   77.7923  221.5091 H   0  0  0  0  0  0  0  0  0  0  0  0
  141.6063   75.9482  222.8146 H   0  0  0  0  0  0  0  0  0  0  0  0
  139.1530   75.1340  223.1190 H   0  0  0  0  0  0  0  0  0  0  0  0
  136.6979   75.8961  222.1844 H   0  0  0  0  0  0  0  0  0  0  0  0
  135.5540   77.5744  220.6931 H   0  0  0  0  0  0  0  0  0  0  0  0
  136.8977   79.3178  219.4982 H   0  0  0  0  0  0  0  0  0  0  0  0
  139.4012   79.4025  219.7851 H   0  0  0  0  0  0  0  0  0  0  0  0
  1  2  2  0
  2  3  2  0
  2  4  1  0
  4  5  1  0
  5  6  2  0
  6  7  1  0
  7  8  2  0
  8  9  1  0
  9 10  2  0
  2 11  1  0
 11 12  1  0
 12 13  2  0
 13 14  1  0
 14 15  2  0
 15 16  1  0
 16 17  2  0
 17 18  1  0
 18 19  2  0
 19 20  1  0
 20 21  1  0
 21 22  2  0
 22 23  1  0
 23 24  1  0
 24 25  2  0
 25 26  1  0
 26 27  2  0
 27 28  1  0
 28 29  2  0
 10  5  1  0
 20 11  1  0
 29 21  1  0
 19 14  1  0
 29 24  1  0
  4 30  1  0
  4 31  1  0
  6 32  1  0
  7 33  1  0
  8 34  1  0
  9 35  1  0
 10 36  1  0
 12 37  1  0
 13 38  1  0
 15 39  1  0
 16 40  1  0
 17 41  1  0
 18 42  1  0
 20 43  1  1
 22 44  1  0
 23 45  1  0
 25 46  1  0
 26 47  1  0
 27 48  1  0
 28 49  1  0
M  END
>  <meeko>  (13) 
{"free_energy": -6.82, "intermolecular_energy": -8.01, "internal_energy": -3.06, "cluster_size": 14, "cluster_id": 1, "rank_in_cluster": 12}

$$$$

     RDKit          3D

 49 53  0  0  0  0  0  0  0  0999 V2000
  137.9110   75.6940  222.7190 O   0  0  0  0  0  0  0  0  0  0  0  0
  139.1480   75.9270  221.8970 S   0  0  0  0  0  0  0  0  0  0  0  0
  140.1980   74.9390  222.3240 O   0  0  0  0  0  0  0  0  0  0  0  0
  138.7680   75.6870  220.1700 C   0  0  0  0  0  0  0  0  0  0  0  0
  138.2950   76.9770  219.5610 C   0  0  0  0  0  0  0  0  0  0  0  0
  137.1260   77.5980  220.0340 C   0  0  0  0  0  0  0  0  0  0  0  0
  136.7340   78.8390  219.5260 C   0  0  0  0  0  0  0  0  0  0  0  0
  137.5040   79.4710  218.5460 C   0  0  0  0  0  0  0  0  0  0  0  0
  138.6690   78.8620  218.0730 C   0  0  0  0  0  0  0  0  0  0  0  0
  139.0680   77.6220  218.5810 C   0  0  0  0  0  0  0  0  0  0  0  0
  139.7280   77.5490  222.1400 N   0  0  0  0  0  0  0  0  0  0  0  0
  138.7740   78.5610  222.5110 C   0  0  0  0  0  0  0  0  0  0  0  0
  139.1640   79.7200  223.0320 C   0  0  0  0  0  0  0  0  0  0  0  0
  140.5900   80.0130  223.2340 C   0  0  0  0  0  0  0  0  0  0  0  0
  140.9760   81.2110  223.8530 C   0  0  0  0  0  0  0  0  0  0  0  0
  142.3290   81.4890  224.0650 C   0  0  0  0  0  0  0  0  0  0  0  0
  143.3020   80.5710  223.6630 C   0  0  0  0  0  0  0  0  0  0  0  0
  142.9260   79.3760  223.0450 C   0  0  0  0  0  0  0  0  0  0  0  0
  141.5680   79.0890  222.8180 C   0  0  0  0  0  0  0  0  0  0  0  0
  141.1810   77.7930  222.1350 C   0  0  2  0  0  0  0  0  0  0  0  0
  141.7110   77.7600  220.7230 C   0  0  0  0  0  0  0  0  0  0  0  0
  142.2120   76.6350  220.0710 C   0  0  0  0  0  0  0  0  0  0  0  0
  142.6110   76.9500  218.8190 N   0  0  0  0  0  0  0  0  0  0  0  0
  142.3720   78.2640  218.6720 C   0  0  0  0  0  0  0  0  0  0  0  0
  142.6270   79.0440  217.5440 C   0  0  0  0  0  0  0  0  0  0  0  0
  142.3070   80.4110  217.6040 C   0  0  0  0  0  0  0  0  0  0  0  0
  141.7480   80.9640  218.7770 C   0  0  0  0  0  0  0  0  0  0  0  0
  141.5020   80.1520  219.9000 C   0  0  0  0  0  0  0  0  0  0  0  0
  141.8240   78.7980  219.8120 C   0  0  0  0  0  0  0  0  0  0  0  0
  139.6710   75.3454  219.6429 H   0  0  0  0  0  0  0  0  0  0  0  0
  137.9728   74.9325  220.0778 H   0  0  0  0  0  0  0  0  0  0  0  0
  136.5178   77.1052  220.8068 H   0  0  0  0  0  0  0  0  0  0  0  0
  135.8173   79.3196  219.8982 H   0  0  0  0  0  0  0  0  0  0  0  0
  137.1929   80.4478  218.1471 H   0  0  0  0  0  0  0  0  0  0  0  0
  139.2733   79.3588  217.2997 H   0  0  0  0  0  0  0  0  0  0  0  0
  139.9904   77.1497  218.2121 H   0  0  0  0  0  0  0  0  0  0  0  0
  137.7010   78.3715  222.3604 H   0  0  0  0  0  0  0  0  0  0  0  0
  138.4101   80.4692  223.3155 H   0  0  0  0  0  0  0  0  0  0  0  0
  140.2112   81.9341  224.1726 H   0  0  0  0  0  0  0  0  0  0  0  0
  142.6278   82.4308  224.5485 H   0  0  0  0  0  0  0  0  0  0  0  0
  144.3665   80.7895  223.8334 H   0  0  0  0  0  0  0  0  0  0  0  0
  143.6966   78.6552  222.7341 H   0  0  0  0  0  0  0  0  0  0  0  0
  141.6413   76.9828  222.7195 H   0  0  0  0  0  0  0  0  0  0  0  0
  142.2741   75.6301  220.5140 H   0  0  0  0  0  0  0  0  0  0  0  0
  143.0240   76.3000  218.1130 H   0  0  0  0  0  0  0  0  0  0  0  0
  143.0647   78.6030  216.6363 H   0  0  0  0  0  0  0  0  0  0  0  0
  142.4932   81.0545  216.7315 H   0  0  0  0  0  0  0  0  0  0  0  0
  141.5033   82.0358  218.8132 H   0  0  0  0  0  0  0  0  0  0  0  0
  141.0688   80.5727  220.8194 H   0  0  0  0  0  0  0  0  0  0  0  0
  1  2  2  0
  2  3  2  0
  2  4  1  0
  4  5  1  0
  5  6  2  0
  6  7  1  0
  7  8  2  0
  8  9  1  0
  9 10  2  0
  2 11  1  0
 11 12  1  0
 12 13  2  0
 13 14  1  0
 14 15  2  0
 15 16  1  0
 16 17  2  0
 17 18  1  0
 18 19  2  0
 19 20  1  0
 20 21  1  0
 21 22  2  0
 22 23  1  0
 23 24  1  0
 24 25  2  0
 25 26  1  0
 26 27  2  0
 27 28  1  0
 28 29  2  0
 10  5  1  0
 20 11  1  0
 29 21  1  0
 19 14  1  0
 29 24  1  0
  4 30  1  0
  4 31  1  0
  6 32  1  0
  7 33  1  0
  8 34  1  0
  9 35  1  0
 10 36  1  0
 12 37  1  0
 13 38  1  0
 15 39  1  0
 16 40  1  0
 17 41  1  0
 18 42  1  0
 20 43  1  1
 22 44  1  0
 23 45  1  0
 25 46  1  0
 26 47  1  0
 27 48  1  0
 28 49  1  0
M  END
>  <meeko>  (14) 
{"free_energy": -6.83, "intermolecular_energy": -8.03, "internal_energy": -2.92, "cluster_size": 6, "cluster_id": 2, "rank_in_cluster": 5}

$$$$

     RDKit          3D

 49 53  0  0  0  0  0  0  0  0999 V2000
  137.9250   75.6830  222.7190 O   0  0  0  0  0  0  0  0  0  0  0  0
  139.1660   75.9120  221.9020 S   0  0  0  0  0  0  0  0  0  0  0  0
  140.2140   74.9250  222.3410 O   0  0  0  0  0  0  0  0  0  0  0  0
  138.7950   75.6620  220.1740 C   0  0  0  0  0  0  0  0  0  0  0  0
  138.3260   76.9490  219.5560 C   0  0  0  0  0  0  0  0  0  0  0  0
  137.1680   77.5860  220.0370 C   0  0  0  0  0  0  0  0  0  0  0  0
  136.7790   78.8240  219.5200 C   0  0  0  0  0  0  0  0  0  0  0  0
  137.5420   79.4370  218.5220 C   0  0  0  0  0  0  0  0  0  0  0  0
  138.6960   78.8130  218.0410 C   0  0  0  0  0  0  0  0  0  0  0  0
  139.0910   77.5750  218.5580 C   0  0  0  0  0  0  0  0  0  0  0  0
  139.7450   77.5350  222.1400 N   0  0  0  0  0  0  0  0  0  0  0  0
  138.7920   78.5450  222.5160 C   0  0  0  0  0  0  0  0  0  0  0  0
  139.1830   79.7050  223.0330 C   0  0  0  0  0  0  0  0  0  0  0  0
  140.6090   80.0010  223.2260 C   0  0  0  0  0  0  0  0  0  0  0  0
  140.9980   81.2000  223.8410 C   0  0  0  0  0  0  0  0  0  0  0  0
  142.3510   81.4800  224.0440 C   0  0  0  0  0  0  0  0  0  0  0  0
  143.3230   80.5640  223.6370 C   0  0  0  0  0  0  0  0  0  0  0  0
  142.9450   79.3680  223.0230 C   0  0  0  0  0  0  0  0  0  0  0  0
  141.5870   79.0780  222.8050 C   0  0  0  0  0  0  0  0  0  0  0  0
  141.1970   77.7810  222.1250 C   0  0  2  0  0  0  0  0  0  0  0  0
  141.7180   77.7470  220.7100 C   0  0  0  0  0  0  0  0  0  0  0  0
  142.2170   76.6230  220.0570 C   0  0  0  0  0  0  0  0  0  0  0  0
  142.6080   76.9370  218.8010 N   0  0  0  0  0  0  0  0  0  0  0  0
  142.3660   78.2500  218.6550 C   0  0  0  0  0  0  0  0  0  0  0  0
  142.6130   79.0290  217.5250 C   0  0  0  0  0  0  0  0  0  0  0  0
  142.2920   80.3970  217.5860 C   0  0  0  0  0  0  0  0  0  0  0  0
  141.7390   80.9500  218.7610 C   0  0  0  0  0  0  0  0  0  0  0  0
  141.5010   80.1390  219.8860 C   0  0  0  0  0  0  0  0  0  0  0  0
  141.8250   78.7840  219.7980 C   0  0  0  0  0  0  0  0  0  0  0  0
  139.7006   75.3171  219.6535 H   0  0  0  0  0  0  0  0  0  0  0  0
  138.0002   74.9072  220.0815 H   0  0  0  0  0  0  0  0  0  0  0  0
  136.5662   77.1073  220.8236 H   0  0  0  0  0  0  0  0  0  0  0  0
  135.8714   79.3169  219.8986 H   0  0  0  0  0  0  0  0  0  0  0  0
  137.2337   80.4113  218.1150 H   0  0  0  0  0  0  0  0  0  0  0  0
  139.2946   79.2961  217.2547 H   0  0  0  0  0  0  0  0  0  0  0  0
  140.0038   77.0899  218.1818 H   0  0  0  0  0  0  0  0  0  0  0  0
  137.7184   78.3532  222.3727 H   0  0  0  0  0  0  0  0  0  0  0  0
  138.4294   80.4531  223.3201 H   0  0  0  0  0  0  0  0  0  0  0  0
  140.2344   81.9226  224.1647 H   0  0  0  0  0  0  0  0  0  0  0  0
  142.6511   82.4227  224.5248 H   0  0  0  0  0  0  0  0  0  0  0  0
  144.3882   80.7848  223.8002 H   0  0  0  0  0  0  0  0  0  0  0  0
  143.7149   78.6483  222.7080 H   0  0  0  0  0  0  0  0  0  0  0  0
  141.6623   76.9719  222.7071 H   0  0  0  0  0  0  0  0  0  0  0  0
  142.2839   75.6189  220.5011 H   0  0  0  0  0  0  0  0  0  0  0  0
  143.0170   76.2870  218.0940 H   0  0  0  0  0  0  0  0  0  0  0  0
  143.0452   78.5876  216.6148 H   0  0  0  0  0  0  0  0  0  0  0  0
  142.4731   81.0402  216.7122 H   0  0  0  0  0  0  0  0  0  0  0  0
  141.4926   82.0214  218.7975 H   0  0  0  0  0  0  0  0  0  0  0  0
  141.0724   80.5602  220.8074 H   0  0  0  0  0  0  0  0  0  0  0  0
  1  2  2  0
  2  3  2  0
  2  4  1  0
  4  5  1  0
  5  6  2  0
  6  7  1  0
  7  8  2  0
  8  9  1  0
  9 10  2  0
  2 11  1  0
 11 12  1  0
 12 13  2  0
 13 14  1  0
 14 15  2  0
 15 16  1  0
 16 17  2  0
 17 18  1  0
 18 19  2  0
 19 20  1  0
 20 21  1  0
 21 22  2  0
 22 23  1  0
 23 24  1  0
 24 25  2  0
 25 26  1  0
 26 27  2  0
 27 28  1  0
 28 29  2  0
 10  5  1  0
 20 11  1  0
 29 21  1  0
 19 14  1  0
 29 24  1  0
  4 30  1  0
  4 31  1  0
  6 32  1  0
  7 33  1  0
  8 34  1  0
  9 35  1  0
 10 36  1  0
 12 37  1  0
 13 38  1  0
 15 39  1  0
 16 40  1  0
 17 41  1  0
 18 42  1  0
 20 43  1  1
 22 44  1  0
 23 45  1  0
 25 46  1  0
 26 47  1  0
 27 48  1  0
 28 49  1  0
M  END
>  <meeko>  (15) 
{"free_energy": -6.84, "intermolecular_energy": -8.03, "internal_energy": -2.92, "cluster_size": 6, "cluster_id": 2, "rank_in_cluster": 3}

$$$$

     RDKit          3D

 49 53  0  0  0  0  0  0  0  0999 V2000
  137.9340   75.6660  222.7020 O   0  0  0  0  0  0  0  0  0  0  0  0
  139.1820   75.8990  221.8960 S   0  0  0  0  0  0  0  0  0  0  0  0
  140.2300   74.9180  222.3450 O   0  0  0  0  0  0  0  0  0  0  0  0
  138.8270   75.6440  220.1650 C   0  0  0  0  0  0  0  0  0  0  0  0
  138.4650   76.9500  219.5160 C   0  0  0  0  0  0  0  0  0  0  0  0
  139.1990   77.4210  218.4120 C   0  0  0  0  0  0  0  0  0  0  0  0
  138.8100   78.5920  217.7560 C   0  0  0  0  0  0  0  0  0  0  0  0
  137.6880   79.3010  218.1940 C   0  0  0  0  0  0  0  0  0  0  0  0
  136.9510   78.8380  219.2870 C   0  0  0  0  0  0  0  0  0  0  0  0
  137.3340   77.6640  219.9450 C   0  0  0  0  0  0  0  0  0  0  0  0
  139.7510   77.5250  222.1360 N   0  0  0  0  0  0  0  0  0  0  0  0
  138.7920   78.5300  222.5100 C   0  0  0  0  0  0  0  0  0  0  0  0
  139.1760   79.6920  223.0290 C   0  0  0  0  0  0  0  0  0  0  0  0
  140.6000   79.9950  223.2240 C   0  0  0  0  0  0  0  0  0  0  0  0
  140.9810   81.1960  223.8410 C   0  0  0  0  0  0  0  0  0  0  0  0
  142.3320   81.4830  224.0470 C   0  0  0  0  0  0  0  0  0  0  0  0
  143.3110   80.5720  223.6420 C   0  0  0  0  0  0  0  0  0  0  0  0
  142.9400   79.3750  223.0270 C   0  0  0  0  0  0  0  0  0  0  0  0
  141.5840   79.0780  222.8050 C   0  0  0  0  0  0  0  0  0  0  0  0
  141.2030   77.7790  222.1240 C   0  0  2  0  0  0  0  0  0  0  0  0
  141.7270   77.7480  220.7110 C   0  0  0  0  0  0  0  0  0  0  0  0
  142.2460   76.6300  220.0620 C   0  0  0  0  0  0  0  0  0  0  0  0
  142.6340   76.9460  218.8060 N   0  0  0  0  0  0  0  0  0  0  0  0
  142.3700   78.2540  218.6540 C   0  0  0  0  0  0  0  0  0  0  0  0
  142.6060   79.0330  217.5220 C   0  0  0  0  0  0  0  0  0  0  0  0
  142.2610   80.3950  217.5760 C   0  0  0  0  0  0  0  0  0  0  0  0
  141.6970   80.9430  218.7490 C   0  0  0  0  0  0  0  0  0  0  0  0
  141.4700   80.1320  219.8760 C   0  0  0  0  0  0  0  0  0  0  0  0
  141.8180   78.7830  219.7940 C   0  0  0  0  0  0  0  0  0  0  0  0
  139.7149   75.2247  219.6691 H   0  0  0  0  0  0  0  0  0  0  0  0
  137.9815   74.9469  220.0690 H   0  0  0  0  0  0  0  0  0  0  0  0
  140.0823   76.8655  218.0639 H   0  0  0  0  0  0  0  0  0  0  0  0
  139.3877   78.9563  216.8937 H   0  0  0  0  0  0  0  0  0  0  0  0
  137.3850   80.2240  217.6780 H   0  0  0  0  0  0  0  0  0  0  0  0
  136.0683   79.3972  219.6307 H   0  0  0  0  0  0  0  0  0  0  0  0
  136.7475   77.2990  220.8010 H   0  0  0  0  0  0  0  0  0  0  0  0
  137.7197   78.3330  222.3636 H   0  0  0  0  0  0  0  0  0  0  0  0
  138.4181   80.4358  223.3160 H   0  0  0  0  0  0  0  0  0  0  0  0
  140.2128   81.9141  224.1637 H   0  0  0  0  0  0  0  0  0  0  0  0
  142.6258   82.4273  224.5286 H   0  0  0  0  0  0  0  0  0  0  0  0
  144.3746   80.7982  223.8079 H   0  0  0  0  0  0  0  0  0  0  0  0
  143.7142   78.6591  222.7139 H   0  0  0  0  0  0  0  0  0  0  0  0
  141.6717   76.9723  222.7067 H   0  0  0  0  0  0  0  0  0  0  0  0
  142.3287   75.6286  220.5095 H   0  0  0  0  0  0  0  0  0  0  0  0
  143.0550   76.3000  218.1020 H   0  0  0  0  0  0  0  0  0  0  0  0
  143.0484   78.5956  216.6148 H   0  0  0  0  0  0  0  0  0  0  0  0
  142.4314   81.0374  216.6995 H   0  0  0  0  0  0  0  0  0  0  0  0
  141.4336   82.0105  218.7817 H   0  0  0  0  0  0  0  0  0  0  0  0
  141.0312   80.5489  220.7946 H   0  0  0  0  0  0  0  0  0  0  0  0
  1  2  2  0
  2  3  2  0
  2  4  1  0
  4  5  1  0
  5  6  2  0
  6  7  1  0
  7  8  2  0
  8  9  1  0
  9 10  2  0
  2 11  1  0
 11 12  1  0
 12 13  2  0
 13 14  1  0
 14 15  2  0
 15 16  1  0
 16 17  2  0
 17 18  1  0
 18 19  2  0
 19 20  1  0
 20 21  1  0
 21 22  2  0
 22 23  1  0
 23 24  1  0
 24 25  2  0
 25 26  1  0
 26 27  2  0
 27 28  1  0
 28 29  2  0
 10  5  1  0
 20 11  1  0
 29 21  1  0
 19 14  1  0
 29 24  1  0
  4 30  1  0
  4 31  1  0
  6 32  1  0
  7 33  1  0
  8 34  1  0
  9 35  1  0
 10 36  1  0
 12 37  1  0
 13 38  1  0
 15 39  1  0
 16 40  1  0
 17 41  1  0
 18 42  1  0
 20 43  1  1
 22 44  1  0
 23 45  1  0
 25 46  1  0
 26 47  1  0
 27 48  1  0
 28 49  1  0
M  END
>  <meeko>  (16) 
{"free_energy": -6.82, "intermolecular_energy": -8.02, "internal_energy": -2.91, "cluster_size": 6, "cluster_id": 2, "rank_in_cluster": 6}

$$$$

     RDKit          3D

 49 53  0  0  0  0  0  0  0  0999 V2000
  137.9360   75.6910  222.7120 O   0  0  0  0  0  0  0  0  0  0  0  0
  139.1780   75.9260  221.8990 S   0  0  0  0  0  0  0  0  0  0  0  0
  140.2290   74.9440  222.3400 O   0  0  0  0  0  0  0  0  0  0  0  0
  138.8130   75.6750  220.1700 C   0  0  0  0  0  0  0  0  0  0  0  0
  138.3470   76.9620  219.5490 C   0  0  0  0  0  0  0  0  0  0  0  0
  137.2000   77.6110  220.0400 C   0  0  0  0  0  0  0  0  0  0  0  0
  136.8150   78.8490  219.5190 C   0  0  0  0  0  0  0  0  0  0  0  0
  137.5700   79.4490  218.5080 C   0  0  0  0  0  0  0  0  0  0  0  0
  138.7130   78.8130  218.0170 C   0  0  0  0  0  0  0  0  0  0  0  0
  139.1040   77.5750  218.5380 C   0  0  0  0  0  0  0  0  0  0  0  0
  139.7490   77.5520  222.1390 N   0  0  0  0  0  0  0  0  0  0  0  0
  138.7900   78.5570  222.5120 C   0  0  0  0  0  0  0  0  0  0  0  0
  139.1740   79.7190  223.0310 C   0  0  0  0  0  0  0  0  0  0  0  0
  140.5980   80.0220  223.2270 C   0  0  0  0  0  0  0  0  0  0  0  0
  140.9790   81.2230  223.8440 C   0  0  0  0  0  0  0  0  0  0  0  0
  142.3310   81.5090  224.0510 C   0  0  0  0  0  0  0  0  0  0  0  0
  143.3090   80.5980  223.6470 C   0  0  0  0  0  0  0  0  0  0  0  0
  142.9380   79.4000  223.0320 C   0  0  0  0  0  0  0  0  0  0  0  0
  141.5810   79.1040  222.8090 C   0  0  0  0  0  0  0  0  0  0  0  0
  141.2000   77.8050  222.1280 C   0  0  2  0  0  0  0  0  0  0  0  0
  141.7260   77.7740  220.7150 C   0  0  0  0  0  0  0  0  0  0  0  0
  142.2370   76.6530  220.0650 C   0  0  0  0  0  0  0  0  0  0  0  0
  142.6290   76.9690  218.8100 N   0  0  0  0  0  0  0  0  0  0  0  0
  142.3730   78.2800  218.6600 C   0  0  0  0  0  0  0  0  0  0  0  0
  142.6160   79.0590  217.5300 C   0  0  0  0  0  0  0  0  0  0  0  0
  142.2810   80.4230  217.5870 C   0  0  0  0  0  0  0  0  0  0  0  0
  141.7190   80.9730  218.7600 C   0  0  0  0  0  0  0  0  0  0  0  0
  141.4860   80.1610  219.8860 C   0  0  0  0  0  0  0  0  0  0  0  0
  141.8240   78.8100  219.8010 C   0  0  0  0  0  0  0  0  0  0  0  0
  139.7202   75.3290  219.6530 H   0  0  0  0  0  0  0  0  0  0  0  0
  138.0180   74.9207  220.0754 H   0  0  0  0  0  0  0  0  0  0  0  0
  136.6039   77.1424  220.8369 H   0  0  0  0  0  0  0  0  0  0  0  0
  135.9162   79.3520  219.9053 H   0  0  0  0  0  0  0  0  0  0  0  0
  137.2642   80.4230  218.0983 H   0  0  0  0  0  0  0  0  0  0  0  0
  139.3058   79.2860  217.2203 H   0  0  0  0  0  0  0  0  0  0  0  0
  140.0081   77.0799  218.1540 H   0  0  0  0  0  0  0  0  0  0  0  0
  137.7178   78.3602  222.3649 H   0  0  0  0  0  0  0  0  0  0  0  0
  138.4160   80.4630  223.3173 H   0  0  0  0  0  0  0  0  0  0  0  0
  140.2110   81.9418  224.1658 H   0  0  0  0  0  0  0  0  0  0  0  0
  142.6252   82.4531  224.5328 H   0  0  0  0  0  0  0  0  0  0  0  0
  144.3726   80.8240  223.8132 H   0  0  0  0  0  0  0  0  0  0  0  0
  143.7120   78.6834  222.7200 H   0  0  0  0  0  0  0  0  0  0  0  0
  141.6673   76.9977  222.7110 H   0  0  0  0  0  0  0  0  0  0  0  0
  142.3113   75.6501  220.5107 H   0  0  0  0  0  0  0  0  0  0  0  0
  143.0460   76.3220  218.1050 H   0  0  0  0  0  0  0  0  0  0  0  0
  143.0560   78.6203  216.6223 H   0  0  0  0  0  0  0  0  0  0  0  0
  142.4578   81.0661  216.7123 H   0  0  0  0  0  0  0  0  0  0  0  0
  141.4618   82.0420  218.7940 H   0  0  0  0  0  0  0  0  0  0  0  0
  141.0504   80.5791  220.8055 H   0  0  0  0  0  0  0  0  0  0  0  0
  1  2  2  0
  2  3  2  0
  2  4  1  0
  4  5  1  0
  5  6  2  0
  6  7  1  0
  7  8  2  0
  8  9  1  0
  9 10  2  0
  2 11  1  0
 11 12  1  0
 12 13  2  0
 13 14  1  0
 14 15  2  0
 15 16  1  0
 16 17  2  0
 17 18  1  0
 18 19  2  0
 19 20  1  0
 20 21  1  0
 21 22  2  0
 22 23  1  0
 23 24  1  0
 24 25  2  0
 25 26  1  0
 26 27  2  0
 27 28  1  0
 28 29  2  0
 10  5  1  0
 20 11  1  0
 29 21  1  0
 19 14  1  0
 29 24  1  0
  4 30  1  0
  4 31  1  0
  6 32  1  0
  7 33  1  0
  8 34  1  0
  9 35  1  0
 10 36  1  0
 12 37  1  0
 13 38  1  0
 15 39  1  0
 16 40  1  0
 17 41  1  0
 18 42  1  0
 20 43  1  1
 22 44  1  0
 23 45  1  0
 25 46  1  0
 26 47  1  0
 27 48  1  0
 28 49  1  0
M  END
>  <meeko>  (17) 
{"free_energy": -6.84, "intermolecular_energy": -8.03, "internal_energy": -2.92, "cluster_size": 6, "cluster_id": 2, "rank_in_cluster": 4}

$$$$

     RDKit          3D

 49 53  0  0  0  0  0  0  0  0999 V2000
  143.7070   80.1830  223.2010 O   0  0  0  0  0  0  0  0  0  0  0  0
  142.2500   79.8520  223.0350 S   0  0  0  0  0  0  0  0  0  0  0  0
  141.9210   78.6870  223.9270 O   0  0  0  0  0  0  0  0  0  0  0  0
  141.2630   81.2630  223.5060 C   0  0  0  0  0  0  0  0  0  0  0  0
  139.8090   80.9850  223.2450 C   0  0  0  0  0  0  0  0  0  0  0  0
  139.1380   79.9830  223.9670 C   0  0  0  0  0  0  0  0  0  0  0  0
  137.7670   79.7830  223.7840 C   0  0  0  0  0  0  0  0  0  0  0  0
  137.0560   80.5790  222.8830 C   0  0  0  0  0  0  0  0  0  0  0  0
  137.7160   81.5800  222.1640 C   0  0  0  0  0  0  0  0  0  0  0  0
  139.0860   81.7870  222.3460 C   0  0  0  0  0  0  0  0  0  0  0  0
  141.9180   79.4430  221.3770 N   0  0  0  0  0  0  0  0  0  0  0  0
  141.7900   80.5150  220.4280 C   0  0  0  0  0  0  0  0  0  0  0  0
  141.8700   80.2930  219.1200 C   0  0  0  0  0  0  0  0  0  0  0  0
  142.0800   78.9360  218.5980 C   0  0  0  0  0  0  0  0  0  0  0  0
  142.2350   78.7330  217.2190 C   0  0  0  0  0  0  0  0  0  0  0  0
  142.4530   77.4480  216.7170 C   0  0  0  0  0  0  0  0  0  0  0  0
  142.5200   76.3590  217.5890 C   0  0  0  0  0  0  0  0  0  0  0  0
  142.3650   76.5520  218.9630 C   0  0  0  0  0  0  0  0  0  0  0  0
  142.1360   77.8390  219.4800 C   0  0  0  0  0  0  0  0  0  0  0  0
  141.9580   78.0260  220.9740 C   0  0  2  0  0  0  0  0  0  0  0  0
  140.7190   77.3110  221.4520 C   0  0  0  0  0  0  0  0  0  0  0  0
  140.6980   76.1960  222.2860 C   0  0  0  0  0  0  0  0  0  0  0  0
  139.4270   75.7980  222.5160 N   0  0  0  0  0  0  0  0  0  0  0  0
  138.6420   76.6490  221.8330 C   0  0  0  0  0  0  0  0  0  0  0  0
  137.2500   76.6330  221.7610 C   0  0  0  0  0  0  0  0  0  0  0  0
  136.6210   77.6160  220.9770 C   0  0  0  0  0  0  0  0  0  0  0  0
  137.3890   78.5800  220.2880 C   0  0  0  0  0  0  0  0  0  0  0  0
  138.7930   78.5710  220.3790 C   0  0  0  0  0  0  0  0  0  0  0  0
  139.3910   77.5870  221.1680 C   0  0  0  0  0  0  0  0  0  0  0  0
  141.4080   81.4675  224.5770 H   0  0  0  0  0  0  0  0  0  0  0  0
  141.5753   82.1355  222.9134 H   0  0  0  0  0  0  0  0  0  0  0  0
  139.6937   79.3543  224.6783 H   0  0  0  0  0  0  0  0  0  0  0  0
  137.2466   78.9969  224.3508 H   0  0  0  0  0  0  0  0  0  0  0  0
  135.9773   80.4184  222.7392 H   0  0  0  0  0  0  0  0  0  0  0  0
  137.1558   82.2058  221.4537 H   0  0  0  0  0  0  0  0  0  0  0  0
  139.6000   82.5804  221.7836 H   0  0  0  0  0  0  0  0  0  0  0  0
  141.6225   81.5396  220.7916 H   0  0  0  0  0  0  0  0  0  0  0  0
  141.7778   81.1361  218.4195 H   0  0  0  0  0  0  0  0  0  0  0  0
  142.1847   79.5891  216.5301 H   0  0  0  0  0  0  0  0  0  0  0  0
  142.5720   77.2936  215.6344 H   0  0  0  0  0  0  0  0  0  0  0  0
  142.6951   75.3479  217.1927 H   0  0  0  0  0  0  0  0  0  0  0  0
  142.4225   75.6913  219.6455 H   0  0  0  0  0  0  0  0  0  0  0  0
  142.8445   77.5846  221.4529 H   0  0  0  0  0  0  0  0  0  0  0  0
  141.5920   75.7069  222.7002 H   0  0  0  0  0  0  0  0  0  0  0  0
  139.1220   74.9910  223.1040 H   0  0  0  0  0  0  0  0  0  0  0  0
  136.6624   75.8755  222.3004 H   0  0  0  0  0  0  0  0  0  0  0  0
  135.5239   77.6342  220.8999 H   0  0  0  0  0  0  0  0  0  0  0  0
  136.8862   79.3432  219.6759 H   0  0  0  0  0  0  0  0  0  0  0  0
  139.4006   79.3163  219.8449 H   0  0  0  0  0  0  0  0  0  0  0  0
  1  2  2  0
  2  3  2  0
  2  4  1  0
  4  5  1  0
  5  6  2  0
  6  7  1  0
  7  8  2  0
  8  9  1  0
  9 10  2  0
  2 11  1  0
 11 12  1  0
 12 13  2  0
 13 14  1  0
 14 15  2  0
 15 16  1  0
 16 17  2  0
 17 18  1  0
 18 19  2  0
 19 20  1  0
 20 21  1  0
 21 22  2  0
 22 23  1  0
 23 24  1  0
 24 25  2  0
 25 26  1  0
 26 27  2  0
 27 28  1  0
 28 29  2  0
 10  5  1  0
 20 11  1  0
 29 21  1  0
 19 14  1  0
 29 24  1  0
  4 30  1  0
  4 31  1  0
  6 32  1  0
  7 33  1  0
  8 34  1  0
  9 35  1  0
 10 36  1  0
 12 37  1  0
 13 38  1  0
 15 39  1  0
 16 40  1  0
 17 41  1  0
 18 42  1  0
 20 43  1  1
 22 44  1  0
 23 45  1  0
 25 46  1  0
 26 47  1  0
 27 48  1  0
 28 49  1  0
M  END
>  <meeko>  (18) 
{"free_energy": -6.87, "intermolecular_energy": -8.06, "internal_energy": -3.02, "cluster_size": 14, "cluster_id": 1, "rank_in_cluster": 2}

$$$$

     RDKit          3D

 49 53  0  0  0  0  0  0  0  0999 V2000
  143.7000   80.2370  223.2710 O   0  0  0  0  0  0  0  0  0  0  0  0
  142.2500   79.8780  223.1060 S   0  0  0  0  0  0  0  0  0  0  0  0
  141.9530   78.6840  223.9710 O   0  0  0  0  0  0  0  0  0  0  0  0
  141.2350   81.2540  223.6170 C   0  0  0  0  0  0  0  0  0  0  0  0
  139.7910   80.9730  223.3080 C   0  0  0  0  0  0  0  0  0  0  0  0
  139.0910   79.9870  224.0260 C   0  0  0  0  0  0  0  0  0  0  0  0
  137.7280   79.7850  223.7970 C   0  0  0  0  0  0  0  0  0  0  0  0
  137.0520   80.5630  222.8540 C   0  0  0  0  0  0  0  0  0  0  0  0
  137.7400   81.5470  222.1380 C   0  0  0  0  0  0  0  0  0  0  0  0
  139.1040   81.7560  222.3670 C   0  0  0  0  0  0  0  0  0  0  0  0
  141.9150   79.5010  221.4410 N   0  0  0  0  0  0  0  0  0  0  0  0
  141.8090   80.5900  220.5090 C   0  0  0  0  0  0  0  0  0  0  0  0
  141.8900   80.3880  219.1970 C   0  0  0  0  0  0  0  0  0  0  0  0
  142.0760   79.0350  218.6550 C   0  0  0  0  0  0  0  0  0  0  0  0
  142.2320   78.8520  217.2730 C   0  0  0  0  0  0  0  0  0  0  0  0
  142.4280   77.5710  216.7510 C   0  0  0  0  0  0  0  0  0  0  0  0
  142.4720   76.4670  217.6060 C   0  0  0  0  0  0  0  0  0  0  0  0
  142.3170   76.6410  218.9820 C   0  0  0  0  0  0  0  0  0  0  0  0
  142.1100   77.9240  219.5200 C   0  0  0  0  0  0  0  0  0  0  0  0
  141.9310   78.0900  221.0150 C   0  0  2  0  0  0  0  0  0  0  0  0
  140.6770   77.3910  221.4790 C   0  0  0  0  0  0  0  0  0  0  0  0
  140.6310   76.3010  222.3440 C   0  0  0  0  0  0  0  0  0  0  0  0
  139.3530   75.9110  222.5490 N   0  0  0  0  0  0  0  0  0  0  0  0
  138.5890   76.7410  221.8190 C   0  0  0  0  0  0  0  0  0  0  0  0
  137.1990   76.7250  221.7070 C   0  0  0  0  0  0  0  0  0  0  0  0
  136.5950   77.6840  220.8760 C   0  0  0  0  0  0  0  0  0  0  0  0
  137.3840   78.6270  220.1810 C   0  0  0  0  0  0  0  0  0  0  0  0
  138.7850   78.6190  220.3140 C   0  0  0  0  0  0  0  0  0  0  0  0
  139.3580   77.6590  221.1480 C   0  0  0  0  0  0  0  0  0  0  0  0
  141.3518   81.4101  224.6996 H   0  0  0  0  0  0  0  0  0  0  0  0
  141.5509   82.1563  223.0728 H   0  0  0  0  0  0  0  0  0  0  0  0
  139.6187   79.3727  224.7705 H   0  0  0  0  0  0  0  0  0  0  0  0
  137.1856   79.0115  224.3605 H   0  0  0  0  0  0  0  0  0  0  0  0
  135.9788   80.4014  222.6749 H   0  0  0  0  0  0  0  0  0  0  0  0
  137.2081   82.1577  221.3936 H   0  0  0  0  0  0  0  0  0  0  0  0
  139.6403   82.5368  221.8077 H   0  0  0  0  0  0  0  0  0  0  0  0
  141.6578   81.6113  220.8886 H   0  0  0  0  0  0  0  0  0  0  0  0
  141.8169   81.2437  218.5097 H   0  0  0  0  0  0  0  0  0  0  0  0
  142.1999   79.7200  216.5980 H   0  0  0  0  0  0  0  0  0  0  0  0
  142.5477   77.4316  215.6665 H   0  0  0  0  0  0  0  0  0  0  0  0
  142.6290   75.4592  217.1941 H   0  0  0  0  0  0  0  0  0  0  0  0
  142.3570   75.7685  219.6506 H   0  0  0  0  0  0  0  0  0  0  0  0
  142.8081   77.6242  221.4880 H   0  0  0  0  0  0  0  0  0  0  0  0
  141.5121   75.8235  222.7975 H   0  0  0  0  0  0  0  0  0  0  0  0
  139.0300   75.1220  223.1520 H   0  0  0  0  0  0  0  0  0  0  0  0
  136.5944   75.9850  222.2519 H   0  0  0  0  0  0  0  0  0  0  0  0
  135.5006   77.7003  220.7662 H   0  0  0  0  0  0  0  0  0  0  0  0
  136.9006   79.3720  219.5320 H   0  0  0  0  0  0  0  0  0  0  0  0
  139.4093   79.3479  219.7764 H   0  0  0  0  0  0  0  0  0  0  0  0
  1  2  2  0
  2  3  2  0
  2  4  1  0
  4  5  1  0
  5  6  2  0
  6  7  1  0
  7  8  2  0
  8  9  1  0
  9 10  2  0
  2 11  1  0
 11 12  1  0
 12 13  2  0
 13 14  1  0
 14 15  2  0
 15 16  1  0
 16 17  2  0
 17 18  1  0
 18 19  2  0
 19 20  1  0
 20 21  1  0
 21 22  2  0
 22 23  1  0
 23 24  1  0
 24 25  2  0
 25 26  1  0
 26 27  2  0
 27 28  1  0
 28 29  2  0
 10  5  1  0
 20 11  1  0
 29 21  1  0
 19 14  1  0
 29 24  1  0
  4 30  1  0
  4 31  1  0
  6 32  1  0
  7 33  1  0
  8 34  1  0
  9 35  1  0
 10 36  1  0
 12 37  1  0
 13 38  1  0
 15 39  1  0
 16 40  1  0
 17 41  1  0
 18 42  1  0
 20 43  1  1
 22 44  1  0
 23 45  1  0
 25 46  1  0
 26 47  1  0
 27 48  1  0
 28 49  1  0
M  END
>  <meeko>  (19) 
{"free_energy": -6.82, "intermolecular_energy": -8.01, "internal_energy": -3.06, "cluster_size": 14, "cluster_id": 1, "rank_in_cluster": 11}

$$$$

     RDKit          3D

 49 53  0  0  0  0  0  0  0  0999 V2000
  143.6980   80.2270  223.2690 O   0  0  0  0  0  0  0  0  0  0  0  0
  142.2460   79.8750  223.1000 S   0  0  0  0  0  0  0  0  0  0  0  0
  141.9360   78.6940  223.9780 O   0  0  0  0  0  0  0  0  0  0  0  0
  141.2370   81.2650  223.5880 C   0  0  0  0  0  0  0  0  0  0  0  0
  139.7910   80.9810  223.2900 C   0  0  0  0  0  0  0  0  0  0  0  0
  139.1010   79.9860  224.0050 C   0  0  0  0  0  0  0  0  0  0  0  0
  137.7370   79.7810  223.7870 C   0  0  0  0  0  0  0  0  0  0  0  0
  137.0490   80.5670  222.8580 C   0  0  0  0  0  0  0  0  0  0  0  0
  137.7270   81.5600  222.1460 C   0  0  0  0  0  0  0  0  0  0  0  0
  139.0920   81.7720  222.3630 C   0  0  0  0  0  0  0  0  0  0  0  0
  141.9190   79.4800  221.4380 N   0  0  0  0  0  0  0  0  0  0  0  0
  141.7900   80.5610  220.4980 C   0  0  0  0  0  0  0  0  0  0  0  0
  141.8750   80.3500  219.1880 C   0  0  0  0  0  0  0  0  0  0  0  0
  142.0880   78.9980  218.6550 C   0  0  0  0  0  0  0  0  0  0  0  0
  142.2470   78.8080  217.2740 C   0  0  0  0  0  0  0  0  0  0  0  0
  142.4690   77.5280  216.7610 C   0  0  0  0  0  0  0  0  0  0  0  0
  142.5360   76.4310  217.6230 C   0  0  0  0  0  0  0  0  0  0  0  0
  142.3770   76.6110  218.9990 C   0  0  0  0  0  0  0  0  0  0  0  0
  142.1450   77.8940  219.5270 C   0  0  0  0  0  0  0  0  0  0  0  0
  141.9630   78.0670  221.0210 C   0  0  2  0  0  0  0  0  0  0  0  0
  140.7240   77.3460  221.4910 C   0  0  0  0  0  0  0  0  0  0  0  0
  140.7020   76.2400  222.3380 C   0  0  0  0  0  0  0  0  0  0  0  0
  139.4310   75.8320  222.5540 N   0  0  0  0  0  0  0  0  0  0  0  0
  138.6490   76.6660  221.8490 C   0  0  0  0  0  0  0  0  0  0  0  0
  137.2570   76.6350  221.7560 C   0  0  0  0  0  0  0  0  0  0  0  0
  136.6310   77.6010  220.9490 C   0  0  0  0  0  0  0  0  0  0  0  0
  137.3990   78.5640  220.2600 C   0  0  0  0  0  0  0  0  0  0  0  0
  138.8010   78.5700  220.3730 C   0  0  0  0  0  0  0  0  0  0  0  0
  139.3980   77.6030  221.1830 C   0  0  0  0  0  0  0  0  0  0  0  0
  141.3585   81.4423  224.6668 H   0  0  0  0  0  0  0  0  0  0  0  0
  141.5533   82.1557  223.0254 H   0  0  0  0  0  0  0  0  0  0  0  0
  139.6377   79.3668  224.7388 H   0  0  0  0  0  0  0  0  0  0  0  0
  137.2029   78.9995  224.3474 H   0  0  0  0  0  0  0  0  0  0  0  0
  135.9746   80.4039  222.6876 H   0  0  0  0  0  0  0  0  0  0  0  0
  137.1857   82.1763  221.4131 H   0  0  0  0  0  0  0  0  0  0  0  0
  139.6199   82.5603  221.8064 H   0  0  0  0  0  0  0  0  0  0  0  0
  141.6177   81.5818  220.8700 H   0  0  0  0  0  0  0  0  0  0  0  0
  141.7846   81.1990  218.4944 H   0  0  0  0  0  0  0  0  0  0  0  0
  142.1966   79.6702  216.5928 H   0  0  0  0  0  0  0  0  0  0  0  0
  142.5912   77.3838  215.6774 H   0  0  0  0  0  0  0  0  0  0  0  0
  142.7142   75.4240  217.2177 H   0  0  0  0  0  0  0  0  0  0  0  0
  142.4335   75.7442  219.6738 H   0  0  0  0  0  0  0  0  0  0  0  0
  142.8498   77.6223  221.4962 H   0  0  0  0  0  0  0  0  0  0  0  0
  141.5946   75.7647  222.7709 H   0  0  0  0  0  0  0  0  0  0  0  0
  139.1260   75.0300  223.1480 H   0  0  0  0  0  0  0  0  0  0  0  0
  136.6686   75.8791  222.2967 H   0  0  0  0  0  0  0  0  0  0  0  0
  135.5351   77.6063  220.8539 H   0  0  0  0  0  0  0  0  0  0  0  0
  136.8981   79.3144  219.6308 H   0  0  0  0  0  0  0  0  0  0  0  0
  139.4089   79.3149  219.8387 H   0  0  0  0  0  0  0  0  0  0  0  0
  1  2  2  0
  2  3  2  0
  2  4  1  0
  4  5  1  0
  5  6  2  0
  6  7  1  0
  7  8  2  0
  8  9  1  0
  9 10  2  0
  2 11  1  0
 11 12  1  0
 12 13  2  0
 13 14  1  0
 14 15  2  0
 15 16  1  0
 16 17  2  0
 17 18  1  0
 18 19  2  0
 19 20  1  0
 20 21  1  0
 21 22  2  0
 22 23  1  0
 23 24  1  0
 24 25  2  0
 25 26  1  0
 26 27  2  0
 27 28  1  0
 28 29  2  0
 10  5  1  0
 20 11  1  0
 29 21  1  0
 19 14  1  0
 29 24  1  0
  4 30  1  0
  4 31  1  0
  6 32  1  0
  7 33  1  0
  8 34  1  0
  9 35  1  0
 10 36  1  0
 12 37  1  0
 13 38  1  0
 15 39  1  0
 16 40  1  0
 17 41  1  0
 18 42  1  0
 20 43  1  1
 22 44  1  0
 23 45  1  0
 25 46  1  0
 26 47  1  0
 27 48  1  0
 28 49  1  0
M  END
>  <meeko>  (20) 
{"free_energy": -6.85, "intermolecular_energy": -8.04, "internal_energy": -3.04, "cluster_size": 14, "cluster_id": 1, "rank_in_cluster": 7}

$$$$
