
     RDKit          3D

 49 53  0  0  0  0  0  0  0  0999 V2000
  143.6800   80.1380  222.6300 O   0  0  0  0  0  0  0  0  0  0  0  0
  142.2990   80.5250  223.0790 S   0  0  0  0  0  0  0  0  0  0  0  0
  142.4210   81.4750  224.2370 O   0  0  0  0  0  0  0  0  0  0  0  0
  141.4110   79.0640  223.5950 C   0  0  0  0  0  0  0  0  0  0  0  0
  139.9300   79.3020  223.5050 C   0  0  0  0  0  0  0  0  0  0  0  0
  139.0910   78.3380  222.9210 C   0  0  0  0  0  0  0  0  0  0  0  0
  137.7260   78.5960  222.7620 C   0  0  0  0  0  0  0  0  0  0  0  0
  137.1900   79.8160  223.1810 C   0  0  0  0  0  0  0  0  0  0  0  0
  138.0190   80.7820  223.7600 C   0  0  0  0  0  0  0  0  0  0  0  0
  139.3850   80.5290  223.9190 C   0  0  0  0  0  0  0  0  0  0  0  0
  141.4400   81.2900  221.7740 N   0  0  0  0  0  0  0  0  0  0  0  0
  141.4310   82.7270  221.7200 C   0  0  0  0  0  0  0  0  0  0  0  0
  140.5470   83.3850  220.9760 C   0  0  0  0  0  0  0  0  0  0  0  0
  139.5540   82.6610  220.1710 C   0  0  0  0  0  0  0  0  0  0  0  0
  138.5850   83.3750  219.4510 C   0  0  0  0  0  0  0  0  0  0  0  0
  137.6260   82.6930  218.6970 C   0  0  0  0  0  0  0  0  0  0  0  0
  137.6280   81.2980  218.6590 C   0  0  0  0  0  0  0  0  0  0  0  0
  138.5920   80.5800  219.3710 C   0  0  0  0  0  0  0  0  0  0  0  0
  139.5670   81.2540  220.1270 C   0  0  0  0  0  0  0  0  0  0  0  0
  140.6120   80.4580  220.8830 C   0  0  1  0  0  0  0  0  0  0  0  0
  141.4860   79.6880  219.9250 C   0  0  0  0  0  0  0  0  0  0  0  0
  142.1910   80.2330  218.8540 C   0  0  0  0  0  0  0  0  0  0  0  0
  142.8810   79.2720  218.2000 N   0  0  0  0  0  0  0  0  0  0  0  0
  142.6260   78.1240  218.8500 C   0  0  0  0  0  0  0  0  0  0  0  0
  143.1220   76.8570  218.5470 C   0  0  0  0  0  0  0  0  0  0  0  0
  142.7330   75.7840  219.3660 C   0  0  0  0  0  0  0  0  0  0  0  0
  141.8660   75.9980  220.4600 C   0  0  0  0  0  0  0  0  0  0  0  0
  141.3800   77.2870  220.7430 C   0  0  0  0  0  0  0  0  0  0  0  0
  141.7790   78.3340  219.9110 C   0  0  0  0  0  0  0  0  0  0  0  0
  141.6847   78.2222  222.9420 H   0  0  0  0  0  0  0  0  0  0  0  0
  141.6758   78.8306  224.6368 H   0  0  0  0  0  0  0  0  0  0  0  0
  139.5095   77.3769  222.5877 H   0  0  0  0  0  0  0  0  0  0  0  0
  137.0732   77.8370  222.3062 H   0  0  0  0  0  0  0  0  0  0  0  0
  136.1158   80.0169  223.0555 H   0  0  0  0  0  0  0  0  0  0  0  0
  137.5960   81.7420  224.0907 H   0  0  0  0  0  0  0  0  0  0  0  0
  140.0351   81.2933  224.3698 H   0  0  0  0  0  0  0  0  0  0  0  0
  142.1701   83.2931  222.3058 H   0  0  0  0  0  0  0  0  0  0  0  0
  140.5593   84.4849  220.9631 H   0  0  0  0  0  0  0  0  0  0  0  0
  138.5798   84.4746  219.4798 H   0  0  0  0  0  0  0  0  0  0  0  0
  136.8685   83.2567  218.1327 H   0  0  0  0  0  0  0  0  0  0  0  0
  136.8699   80.7633  218.0679 H   0  0  0  0  0  0  0  0  0  0  0  0
  138.5881   79.4804  219.3399 H   0  0  0  0  0  0  0  0  0  0  0  0
  140.0630   79.7544  221.5261 H   0  0  0  0  0  0  0  0  0  0  0  0
  142.1867   81.2980  218.5787 H   0  0  0  0  0  0  0  0  0  0  0  0
  143.4920   79.4010  217.3640 H   0  0  0  0  0  0  0  0  0  0  0  0
  143.7974   76.7021  217.6927 H   0  0  0  0  0  0  0  0  0  0  0  0
  143.1059   74.7711  219.1539 H   0  0  0  0  0  0  0  0  0  0  0  0
  141.5687   75.1506  221.0952 H   0  0  0  0  0  0  0  0  0  0  0  0
  140.7060   77.4645  221.5940 H   0  0  0  0  0  0  0  0  0  0  0  0
  1  2  2  0
  2  3  2  0
  2  4  1  0
  4  5  1  0
  5  6  2  0
  6  7  1  0
  7  8  2  0
  8  9  1  0
  9 10  2  0
  2 11  1  0
 11 12  1  0
 12 13  2  0
 13 14  1  0
 14 15  2  0
 15 16  1  0
 16 17  2  0
 17 18  1  0
 18 19  2  0
 19 20  1  0
 20 21  1  0
 21 22  2  0
 22 23  1  0
 23 24  1  0
 24 25  2  0
 25 26  1  0
 26 27  2  0
 27 28  1  0
 28 29  2  0
 10  5  1  0
 20 11  1  0
 29 21  1  0
 19 14  1  0
 29 24  1  0
  4 30  1  0
  4 31  1  0
  6 32  1  0
  7 33  1  0
  8 34  1  0
  9 35  1  0
 10 36  1  0
 12 37  1  0
 13 38  1  0
 15 39  1  0
 16 40  1  0
 17 41  1  0
 18 42  1  0
 20 43  1  1
 22 44  1  0
 23 45  1  0
 25 46  1  0
 26 47  1  0
 27 48  1  0
 28 49  1  0
M  END
>  <meeko>  (1) 
{"free_energy": -7.11, "intermolecular_energy": -8.3, "internal_energy": -2.63, "cluster_size": 4, "cluster_id": 2, "rank_in_cluster": 3}

$$$$

     RDKit          3D

 49 53  0  0  0  0  0  0  0  0999 V2000
  140.9160   75.6320  219.0560 O   0  0  0  0  0  0  0  0  0  0  0  0
  141.4530   76.9360  218.5380 S   0  0  0  0  0  0  0  0  0  0  0  0
  140.7070   77.2970  217.2840 O   0  0  0  0  0  0  0  0  0  0  0  0
  143.1910   76.7590  218.1700 C   0  0  0  0  0  0  0  0  0  0  0  0
  143.7050   75.4590  218.7210 C   0  0  0  0  0  0  0  0  0  0  0  0
  143.9460   75.3170  220.0980 C   0  0  0  0  0  0  0  0  0  0  0  0
  144.5040   74.1370  220.5980 C   0  0  0  0  0  0  0  0  0  0  0  0
  144.8270   73.0920  219.7290 C   0  0  0  0  0  0  0  0  0  0  0  0
  144.5940   73.2260  218.3570 C   0  0  0  0  0  0  0  0  0  0  0  0
  144.0390   74.4060  217.8520 C   0  0  0  0  0  0  0  0  0  0  0  0
  141.2410   78.1850  219.7310 N   0  0  0  0  0  0  0  0  0  0  0  0
  141.0030   79.5260  219.2720 C   0  0  0  0  0  0  0  0  0  0  0  0
  141.1610   80.5720  220.0800 C   0  0  0  0  0  0  0  0  0  0  0  0
  141.5720   80.3860  221.4780 C   0  0  0  0  0  0  0  0  0  0  0  0
  141.8030   81.5050  222.2910 C   0  0  0  0  0  0  0  0  0  0  0  0
  142.2130   81.3380  223.6170 C   0  0  0  0  0  0  0  0  0  0  0  0
  142.3950   80.0550  224.1360 C   0  0  0  0  0  0  0  0  0  0  0  0
  142.1640   78.9360  223.3330 C   0  0  0  0  0  0  0  0  0  0  0  0
  141.7450   79.0900  222.0000 C   0  0  0  0  0  0  0  0  0  0  0  0
  141.4870   77.8630  221.1490 C   0  0  1  0  0  0  0  0  0  0  0  0
  140.3410   77.0600  221.7090 C   0  0  0  0  0  0  0  0  0  0  0  0
  140.3560   75.6890  221.9580 C   0  0  0  0  0  0  0  0  0  0  0  0
  139.1710   75.2850  222.4660 N   0  0  0  0  0  0  0  0  0  0  0  0
  138.4060   76.3860  222.5470 C   0  0  0  0  0  0  0  0  0  0  0  0
  137.0970   76.4690  223.0200 C   0  0  0  0  0  0  0  0  0  0  0  0
  136.4780   77.7300  223.0280 C   0  0  0  0  0  0  0  0  0  0  0  0
  137.1730   78.8700  222.5680 C   0  0  0  0  0  0  0  0  0  0  0  0
  138.4940   78.7580  222.0960 C   0  0  0  0  0  0  0  0  0  0  0  0
  139.0830   77.4940  222.0970 C   0  0  0  0  0  0  0  0  0  0  0  0
  143.3356   76.7747  217.0797 H   0  0  0  0  0  0  0  0  0  0  0  0
  143.7437   77.5900  218.6325 H   0  0  0  0  0  0  0  0  0  0  0  0
  143.6944   76.1380  220.7855 H   0  0  0  0  0  0  0  0  0  0  0  0
  144.6890   74.0311  221.6771 H   0  0  0  0  0  0  0  0  0  0  0  0
  145.2648   72.1635  220.1243 H   0  0  0  0  0  0  0  0  0  0  0  0
  144.8476   72.4020  217.6738 H   0  0  0  0  0  0  0  0  0  0  0  0
  143.8633   74.5105  216.7712 H   0  0  0  0  0  0  0  0  0  0  0  0
  140.6840   79.6913  218.2323 H   0  0  0  0  0  0  0  0  0  0  0  0
  140.9817   81.5873  219.6965 H   0  0  0  0  0  0  0  0  0  0  0  0
  141.6612   82.5171  221.8842 H   0  0  0  0  0  0  0  0  0  0  0  0
  142.3923   82.2182  224.2519 H   0  0  0  0  0  0  0  0  0  0  0  0
  142.7207   79.9252  225.1786 H   0  0  0  0  0  0  0  0  0  0  0  0
  142.3109   77.9273  223.7464 H   0  0  0  0  0  0  0  0  0  0  0  0
  142.4070   77.2610  221.1835 H   0  0  0  0  0  0  0  0  0  0  0  0
  141.2138   75.0273  221.7673 H   0  0  0  0  0  0  0  0  0  0  0  0
  138.9090   74.3130  222.7430 H   0  0  0  0  0  0  0  0  0  0  0  0
  136.5652   75.5743  223.3761 H   0  0  0  0  0  0  0  0  0  0  0  0
  135.4458   77.8300  223.3948 H   0  0  0  0  0  0  0  0  0  0  0  0
  136.6783   79.8524  222.5787 H   0  0  0  0  0  0  0  0  0  0  0  0
  139.0448   79.6401  221.7374 H   0  0  0  0  0  0  0  0  0  0  0  0
  1  2  2  0
  2  3  2  0
  2  4  1  0
  4  5  1  0
  5  6  2  0
  6  7  1  0
  7  8  2  0
  8  9  1  0
  9 10  2  0
  2 11  1  0
 11 12  1  0
 12 13  2  0
 13 14  1  0
 14 15  2  0
 15 16  1  0
 16 17  2  0
 17 18  1  0
 18 19  2  0
 19 20  1  0
 20 21  1  0
 21 22  2  0
 22 23  1  0
 23 24  1  0
 24 25  2  0
 25 26  1  0
 26 27  2  0
 27 28  1  0
 28 29  2  0
 10  5  1  0
 20 11  1  0
 29 21  1  0
 19 14  1  0
 29 24  1  0
  4 30  1  0
  4 31  1  0
  6 32  1  0
  7 33  1  0
  8 34  1  0
  9 35  1  0
 10 36  1  0
 12 37  1  0
 13 38  1  0
 15 39  1  0
 16 40  1  0
 17 41  1  0
 18 42  1  0
 20 43  1  6
 22 44  1  0
 23 45  1  0
 25 46  1  0
 26 47  1  0
 27 48  1  0
 28 49  1  0
M  END
>  <meeko>  (2) 
{"free_energy": -7.79, "intermolecular_energy": -8.98, "internal_energy": -2.03, "cluster_size": 15, "cluster_id": 1, "rank_in_cluster": 11}

$$$$

     RDKit          3D

 49 53  0  0  0  0  0  0  0  0999 V2000
  140.9250   75.5010  219.1270 O   0  0  0  0  0  0  0  0  0  0  0  0
  141.6490   76.7340  218.6660 S   0  0  0  0  0  0  0  0  0  0  0  0
  141.1230   77.1190  217.3110 O   0  0  0  0  0  0  0  0  0  0  0  0
  143.3970   76.3910  218.5530 C   0  0  0  0  0  0  0  0  0  0  0  0
  143.6980   75.0430  219.1460 C   0  0  0  0  0  0  0  0  0  0  0  0
  144.4300   74.9410  220.3410 C   0  0  0  0  0  0  0  0  0  0  0  0
  144.7820   73.6860  220.8470 C   0  0  0  0  0  0  0  0  0  0  0  0
  144.4080   72.5260  220.1640 C   0  0  0  0  0  0  0  0  0  0  0  0
  143.6820   72.6190  218.9720 C   0  0  0  0  0  0  0  0  0  0  0  0
  143.3310   73.8720  218.4620 C   0  0  0  0  0  0  0  0  0  0  0  0
  141.3890   78.0350  219.7910 N   0  0  0  0  0  0  0  0  0  0  0  0
  141.1910   79.3580  219.2640 C   0  0  0  0  0  0  0  0  0  0  0  0
  141.3180   80.4350  220.0330 C   0  0  0  0  0  0  0  0  0  0  0  0
  141.6540   80.3070  221.4580 C   0  0  0  0  0  0  0  0  0  0  0  0
  141.8550   81.4580  222.2340 C   0  0  0  0  0  0  0  0  0  0  0  0
  142.1920   81.3440  223.5850 C   0  0  0  0  0  0  0  0  0  0  0  0
  142.3320   80.0830  224.1680 C   0  0  0  0  0  0  0  0  0  0  0  0
  142.1310   78.9330  223.4020 C   0  0  0  0  0  0  0  0  0  0  0  0
  141.7840   79.0330  222.0430 C   0  0  0  0  0  0  0  0  0  0  0  0
  141.5570   77.7730  221.2330 C   0  0  1  0  0  0  0  0  0  0  0  0
  140.3740   77.0050  221.7660 C   0  0  0  0  0  0  0  0  0  0  0  0
  140.3280   75.6290  221.9750 C   0  0  0  0  0  0  0  0  0  0  0  0
  139.1240   75.2630  222.4670 N   0  0  0  0  0  0  0  0  0  0  0  0
  138.4070   76.3930  222.5760 C   0  0  0  0  0  0  0  0  0  0  0  0
  137.1010   76.5200  223.0460 C   0  0  0  0  0  0  0  0  0  0  0  0
  136.5370   77.8060  223.0860 C   0  0  0  0  0  0  0  0  0  0  0  0
  137.2830   78.9270  222.6620 C   0  0  0  0  0  0  0  0  0  0  0  0
  138.6000   78.7710  222.1930 C   0  0  0  0  0  0  0  0  0  0  0  0
  139.1340   77.4820  222.1600 C   0  0  0  0  0  0  0  0  0  0  0  0
  143.7020   76.3999  217.4962 H   0  0  0  0  0  0  0  0  0  0  0  0
  143.9518   77.1611  219.1090 H   0  0  0  0  0  0  0  0  0  0  0  0
  144.7273   75.8522  220.8807 H   0  0  0  0  0  0  0  0  0  0  0  0
  145.3539   73.6119  221.7837 H   0  0  0  0  0  0  0  0  0  0  0  0
  144.6846   71.5392  220.5638 H   0  0  0  0  0  0  0  0  0  0  0  0
  143.3871   71.7051  218.4355 H   0  0  0  0  0  0  0  0  0  0  0  0
  142.7651   73.9416  217.5213 H   0  0  0  0  0  0  0  0  0  0  0  0
  140.9291   79.4816  218.2028 H   0  0  0  0  0  0  0  0  0  0  0  0
  141.1698   81.4341  219.5974 H   0  0  0  0  0  0  0  0  0  0  0  0
  141.7470   82.4530  221.7776 H   0  0  0  0  0  0  0  0  0  0  0  0
  142.3473   82.2492  224.1905 H   0  0  0  0  0  0  0  0  0  0  0  0
  142.6007   79.9955  225.2311 H   0  0  0  0  0  0  0  0  0  0  0  0
  142.2449   77.9417  223.8650 H   0  0  0  0  0  0  0  0  0  0  0  0
  142.4673   77.1651  221.3416 H   0  0  0  0  0  0  0  0  0  0  0  0
  141.1569   74.9361  221.7682 H   0  0  0  0  0  0  0  0  0  0  0  0
  138.8180   74.2960  222.7150 H   0  0  0  0  0  0  0  0  0  0  0  0
  136.5293   75.6400  223.3756 H   0  0  0  0  0  0  0  0  0  0  0  0
  135.5077   77.9403  223.4500 H   0  0  0  0  0  0  0  0  0  0  0  0
  136.8313   79.9293  222.6986 H   0  0  0  0  0  0  0  0  0  0  0  0
  139.1907   79.6381  221.8625 H   0  0  0  0  0  0  0  0  0  0  0  0
  1  2  2  0
  2  3  2  0
  2  4  1  0
  4  5  1  0
  5  6  2  0
  6  7  1  0
  7  8  2  0
  8  9  1  0
  9 10  2  0
  2 11  1  0
 11 12  1  0
 12 13  2  0
 13 14  1  0
 14 15  2  0
 15 16  1  0
 16 17  2  0
 17 18  1  0
 18 19  2  0
 19 20  1  0
 20 21  1  0
 21 22  2  0
 22 23  1  0
 23 24  1  0
 24 25  2  0
 25 26  1  0
 26 27  2  0
 27 28  1  0
 28 29  2  0
 10  5  1  0
 20 11  1  0
 29 21  1  0
 19 14  1  0
 29 24  1  0
  4 30  1  0
  4 31  1  0
  6 32  1  0
  7 33  1  0
  8 34  1  0
  9 35  1  0
 10 36  1  0
 12 37  1  0
 13 38  1  0
 15 39  1  0
 16 40  1  0
 17 41  1  0
 18 42  1  0
 20 43  1  6
 22 44  1  0
 23 45  1  0
 25 46  1  0
 26 47  1  0
 27 48  1  0
 28 49  1  0
M  END
>  <meeko>  (3) 
{"free_energy": -7.85, "intermolecular_energy": -9.05, "internal_energy": -1.96, "cluster_size": 15, "cluster_id": 1, "rank_in_cluster": 5}

$$$$

     RDKit          3D

 49 53  0  0  0  0  0  0  0  0999 V2000
  140.9060   75.7650  219.0050 O   0  0  0  0  0  0  0  0  0  0  0  0
  141.5120   77.0610  218.5480 S   0  0  0  0  0  0  0  0  0  0  0  0
  140.8430   77.4780  217.2670 O   0  0  0  0  0  0  0  0  0  0  0  0
  143.2590   76.8330  218.2630 C   0  0  0  0  0  0  0  0  0  0  0  0
  143.6910   75.4820  218.7580 C   0  0  0  0  0  0  0  0  0  0  0  0
  144.1030   75.3140  220.0910 C   0  0  0  0  0  0  0  0  0  0  0  0
  144.5850   74.0760  220.5290 C   0  0  0  0  0  0  0  0  0  0  0  0
  144.6600   73.0000  219.6410 C   0  0  0  0  0  0  0  0  0  0  0  0
  144.2550   73.1600  218.3120 C   0  0  0  0  0  0  0  0  0  0  0  0
  143.7760   74.3970  217.8700 C   0  0  0  0  0  0  0  0  0  0  0  0
  141.2810   78.2880  219.7600 N   0  0  0  0  0  0  0  0  0  0  0  0
  141.0180   79.6320  219.3230 C   0  0  0  0  0  0  0  0  0  0  0  0
  141.1600   80.6670  220.1460 C   0  0  0  0  0  0  0  0  0  0  0  0
  141.5790   80.4680  221.5400 C   0  0  0  0  0  0  0  0  0  0  0  0
  141.7930   81.5780  222.3700 C   0  0  0  0  0  0  0  0  0  0  0  0
  142.2090   81.3970  223.6920 C   0  0  0  0  0  0  0  0  0  0  0  0
  142.4140   80.1100  224.1910 C   0  0  0  0  0  0  0  0  0  0  0  0
  142.2010   79.0000  223.3710 C   0  0  0  0  0  0  0  0  0  0  0  0
  141.7760   79.1660  222.0420 C   0  0  0  0  0  0  0  0  0  0  0  0
  141.5370   77.9490  221.1720 C   0  0  1  0  0  0  0  0  0  0  0  0
  140.4060   77.1170  221.7230 C   0  0  0  0  0  0  0  0  0  0  0  0
  140.4480   75.7440  221.9540 C   0  0  0  0  0  0  0  0  0  0  0  0
  139.2710   75.3110  222.4580 N   0  0  0  0  0  0  0  0  0  0  0  0
  138.4850   76.3970  222.5530 C   0  0  0  0  0  0  0  0  0  0  0  0
  137.1750   76.4480  223.0270 C   0  0  0  0  0  0  0  0  0  0  0  0
  136.5320   77.6980  223.0510 C   0  0  0  0  0  0  0  0  0  0  0  0
  137.2050   78.8560  222.6050 C   0  0  0  0  0  0  0  0  0  0  0  0
  138.5280   78.7750  222.1320 C   0  0  0  0  0  0  0  0  0  0  0  0
  139.1410   77.5220  222.1160 C   0  0  0  0  0  0  0  0  0  0  0  0
  143.4646   76.9083  217.1850 H   0  0  0  0  0  0  0  0  0  0  0  0
  143.8167   77.6104  218.8057 H   0  0  0  0  0  0  0  0  0  0  0  0
  144.0462   76.1592  220.7927 H   0  0  0  0  0  0  0  0  0  0  0  0
  144.9053   73.9495  221.5737 H   0  0  0  0  0  0  0  0  0  0  0  0
  145.0377   72.0266  219.9873 H   0  0  0  0  0  0  0  0  0  0  0  0
  144.3133   72.3120  217.6138 H   0  0  0  0  0  0  0  0  0  0  0  0
  143.4644   74.5210  216.8224 H   0  0  0  0  0  0  0  0  0  0  0  0
  140.6928   79.8079  218.2870 H   0  0  0  0  0  0  0  0  0  0  0  0
  140.9613   81.6846  219.7785 H   0  0  0  0  0  0  0  0  0  0  0  0
  141.6330   82.5938  221.9795 H   0  0  0  0  0  0  0  0  0  0  0  0
  142.3750   82.2702  224.3400 H   0  0  0  0  0  0  0  0  0  0  0  0
  142.7436   79.9698  225.2310 H   0  0  0  0  0  0  0  0  0  0  0  0
  142.3672   77.9879  223.7685 H   0  0  0  0  0  0  0  0  0  0  0  0
  142.4679   77.3634  221.1939 H   0  0  0  0  0  0  0  0  0  0  0  0
  141.3181   75.1014  221.7540 H   0  0  0  0  0  0  0  0  0  0  0  0
  139.0280   74.3310  222.7230 H   0  0  0  0  0  0  0  0  0  0  0  0
  136.6606   75.5388  223.3714 H   0  0  0  0  0  0  0  0  0  0  0  0
  135.4984   77.7741  223.4195 H   0  0  0  0  0  0  0  0  0  0  0  0
  136.6917   79.8286  222.6273 H   0  0  0  0  0  0  0  0  0  0  0  0
  139.0622   79.6720  221.7856 H   0  0  0  0  0  0  0  0  0  0  0  0
  1  2  2  0
  2  3  2  0
  2  4  1  0
  4  5  1  0
  5  6  2  0
  6  7  1  0
  7  8  2  0
  8  9  1  0
  9 10  2  0
  2 11  1  0
 11 12  1  0
 12 13  2  0
 13 14  1  0
 14 15  2  0
 15 16  1  0
 16 17  2  0
 17 18  1  0
 18 19  2  0
 19 20  1  0
 20 21  1  0
 21 22  2  0
 22 23  1  0
 23 24  1  0
 24 25  2  0
 25 26  1  0
 26 27  2  0
 27 28  1  0
 28 29  2  0
 10  5  1  0
 20 11  1  0
 29 21  1  0
 19 14  1  0
 29 24  1  0
  4 30  1  0
  4 31  1  0
  6 32  1  0
  7 33  1  0
  8 34  1  0
  9 35  1  0
 10 36  1  0
 12 37  1  0
 13 38  1  0
 15 39  1  0
 16 40  1  0
 17 41  1  0
 18 42  1  0
 20 43  1  6
 22 44  1  0
 23 45  1  0
 25 46  1  0
 26 47  1  0
 27 48  1  0
 28 49  1  0
M  END
>  <meeko>  (4) 
{"free_energy": -7.79, "intermolecular_energy": -8.98, "internal_energy": -2.03, "cluster_size": 15, "cluster_id": 1, "rank_in_cluster": 10}

$$$$

     RDKit          3D

 49 53  0  0  0  0  0  0  0  0999 V2000
  143.6790   80.1360  222.6340 O   0  0  0  0  0  0  0  0  0  0  0  0
  142.2950   80.5210  223.0720 S   0  0  0  0  0  0  0  0  0  0  0  0
  142.4060   81.4670  224.2350 O   0  0  0  0  0  0  0  0  0  0  0  0
  141.4010   79.0600  223.5730 C   0  0  0  0  0  0  0  0  0  0  0  0
  139.9210   79.3060  223.4910 C   0  0  0  0  0  0  0  0  0  0  0  0
  139.0730   78.3450  222.9130 C   0  0  0  0  0  0  0  0  0  0  0  0
  137.7090   78.6090  222.7600 C   0  0  0  0  0  0  0  0  0  0  0  0
  137.1820   79.8340  223.1790 C   0  0  0  0  0  0  0  0  0  0  0  0
  138.0190   80.7970  223.7510 C   0  0  0  0  0  0  0  0  0  0  0  0
  139.3840   80.5370  223.9040 C   0  0  0  0  0  0  0  0  0  0  0  0
  141.4480   81.2930  221.7630 N   0  0  0  0  0  0  0  0  0  0  0  0
  141.4480   82.7300  221.7090 C   0  0  0  0  0  0  0  0  0  0  0  0
  140.5730   83.3940  220.9600 C   0  0  0  0  0  0  0  0  0  0  0  0
  139.5800   82.6770  220.1490 C   0  0  0  0  0  0  0  0  0  0  0  0
  138.6190   83.3970  219.4240 C   0  0  0  0  0  0  0  0  0  0  0  0
  137.6600   82.7220  218.6640 C   0  0  0  0  0  0  0  0  0  0  0  0
  137.6550   81.3260  218.6250 C   0  0  0  0  0  0  0  0  0  0  0  0
  138.6090   80.6020  219.3430 C   0  0  0  0  0  0  0  0  0  0  0  0
  139.5840   81.2690  220.1050 C   0  0  0  0  0  0  0  0  0  0  0  0
  140.6200   80.4660  220.8660 C   0  0  1  0  0  0  0  0  0  0  0  0
  141.4950   79.6920  219.9130 C   0  0  0  0  0  0  0  0  0  0  0  0
  142.2020   80.2320  218.8410 C   0  0  0  0  0  0  0  0  0  0  0  0
  142.8920   79.2660  218.1930 N   0  0  0  0  0  0  0  0  0  0  0  0
  142.6330   78.1220  218.8460 C   0  0  0  0  0  0  0  0  0  0  0  0
  143.1290   76.8530  218.5490 C   0  0  0  0  0  0  0  0  0  0  0  0
  142.7360   75.7830  219.3720 C   0  0  0  0  0  0  0  0  0  0  0  0
  141.8670   76.0020  220.4620 C   0  0  0  0  0  0  0  0  0  0  0  0
  141.3820   77.2940  220.7400 C   0  0  0  0  0  0  0  0  0  0  0  0
  141.7850   78.3370  219.9050 C   0  0  0  0  0  0  0  0  0  0  0  0
  141.6682   78.2246  222.9091 H   0  0  0  0  0  0  0  0  0  0  0  0
  141.6677   78.8134  224.6113 H   0  0  0  0  0  0  0  0  0  0  0  0
  139.4849   77.3810  222.5797 H   0  0  0  0  0  0  0  0  0  0  0  0
  137.0498   77.8523  222.3096 H   0  0  0  0  0  0  0  0  0  0  0  0
  136.1083   80.0405  223.0587 H   0  0  0  0  0  0  0  0  0  0  0  0
  137.6029   81.7603  224.0810 H   0  0  0  0  0  0  0  0  0  0  0  0
  140.0403   81.2991  224.3495 H   0  0  0  0  0  0  0  0  0  0  0  0
  142.1871   83.2913  222.2995 H   0  0  0  0  0  0  0  0  0  0  0  0
  140.5929   84.4937  220.9474 H   0  0  0  0  0  0  0  0  0  0  0  0
  138.6203   84.4966  219.4538 H   0  0  0  0  0  0  0  0  0  0  0  0
  136.9087   83.2905  218.0962 H   0  0  0  0  0  0  0  0  0  0  0  0
  136.8984   80.7960  218.0278 H   0  0  0  0  0  0  0  0  0  0  0  0
  138.5975   79.5025  219.3122 H   0  0  0  0  0  0  0  0  0  0  0  0
  140.0631   79.7647  221.5048 H   0  0  0  0  0  0  0  0  0  0  0  0
  142.1994   81.2957  218.5607 H   0  0  0  0  0  0  0  0  0  0  0  0
  143.5050   79.3910  217.3570 H   0  0  0  0  0  0  0  0  0  0  0  0
  143.8067   76.6941  217.6973 H   0  0  0  0  0  0  0  0  0  0  0  0
  143.1082   74.7688  219.1649 H   0  0  0  0  0  0  0  0  0  0  0  0
  141.5664   75.1571  221.0990 H   0  0  0  0  0  0  0  0  0  0  0  0
  140.7065   77.4757  221.5889 H   0  0  0  0  0  0  0  0  0  0  0  0
  1  2  2  0
  2  3  2  0
  2  4  1  0
  4  5  1  0
  5  6  2  0
  6  7  1  0
  7  8  2  0
  8  9  1  0
  9 10  2  0
  2 11  1  0
 11 12  1  0
 12 13  2  0
 13 14  1  0
 14 15  2  0
 15 16  1  0
 16 17  2  0
 17 18  1  0
 18 19  2  0
 19 20  1  0
 20 21  1  0
 21 22  2  0
 22 23  1  0
 23 24  1  0
 24 25  2  0
 25 26  1  0
 26 27  2  0
 27 28  1  0
 28 29  2  0
 10  5  1  0
 20 11  1  0
 29 21  1  0
 19 14  1  0
 29 24  1  0
  4 30  1  0
  4 31  1  0
  6 32  1  0
  7 33  1  0
  8 34  1  0
  9 35  1  0
 10 36  1  0
 12 37  1  0
 13 38  1  0
 15 39  1  0
 16 40  1  0
 17 41  1  0
 18 42  1  0
 20 43  1  1
 22 44  1  0
 23 45  1  0
 25 46  1  0
 26 47  1  0
 27 48  1  0
 28 49  1  0
M  END
>  <meeko>  (5) 
{"free_energy": -7.12, "intermolecular_energy": -8.31, "internal_energy": -2.62, "cluster_size": 4, "cluster_id": 2, "rank_in_cluster": 2}

$$$$

     RDKit          3D

 49 53  0  0  0  0  0  0  0  0999 V2000
  140.9050   75.6560  219.0450 O   0  0  0  0  0  0  0  0  0  0  0  0
  141.4750   76.9560  218.5540 S   0  0  0  0  0  0  0  0  0  0  0  0
  140.7580   77.3470  217.2910 O   0  0  0  0  0  0  0  0  0  0  0  0
  143.2150   76.7520  218.2130 C   0  0  0  0  0  0  0  0  0  0  0  0
  143.6920   75.4260  218.7370 C   0  0  0  0  0  0  0  0  0  0  0  0
  144.0240   75.2780  220.0950 C   0  0  0  0  0  0  0  0  0  0  0  0
  144.5470   74.0690  220.5640 C   0  0  0  0  0  0  0  0  0  0  0  0
  144.7440   73.0030  219.6830 C   0  0  0  0  0  0  0  0  0  0  0  0
  144.4200   73.1440  218.3300 C   0  0  0  0  0  0  0  0  0  0  0  0
  143.9000   74.3520  217.8560 C   0  0  0  0  0  0  0  0  0  0  0  0
  141.2650   78.1930  219.7590 N   0  0  0  0  0  0  0  0  0  0  0  0
  141.0240   79.5390  219.3140 C   0  0  0  0  0  0  0  0  0  0  0  0
  141.1830   80.5760  220.1310 C   0  0  0  0  0  0  0  0  0  0  0  0
  141.5990   80.3780  221.5260 C   0  0  0  0  0  0  0  0  0  0  0  0
  141.8310   81.4890  222.3500 C   0  0  0  0  0  0  0  0  0  0  0  0
  142.2440   81.3100  223.6720 C   0  0  0  0  0  0  0  0  0  0  0  0
  142.4290   80.0220  224.1790 C   0  0  0  0  0  0  0  0  0  0  0  0
  142.1980   78.9100  223.3660 C   0  0  0  0  0  0  0  0  0  0  0  0
  141.7740   79.0770  222.0350 C   0  0  0  0  0  0  0  0  0  0  0  0
  141.5150   77.8580  221.1730 C   0  0  1  0  0  0  0  0  0  0  0  0
  140.3720   77.0480  221.7290 C   0  0  0  0  0  0  0  0  0  0  0  0
  140.3890   75.6750  221.9630 C   0  0  0  0  0  0  0  0  0  0  0  0
  139.2060   75.2650  222.4710 N   0  0  0  0  0  0  0  0  0  0  0  0
  138.4400   76.3640  222.5660 C   0  0  0  0  0  0  0  0  0  0  0  0
  137.1330   76.4410  223.0440 C   0  0  0  0  0  0  0  0  0  0  0  0
  136.5120   77.7020  223.0660 C   0  0  0  0  0  0  0  0  0  0  0  0
  137.2050   78.8470  222.6160 C   0  0  0  0  0  0  0  0  0  0  0  0
  138.5240   78.7410  222.1390 C   0  0  0  0  0  0  0  0  0  0  0  0
  139.1150   77.4770  222.1250 C   0  0  0  0  0  0  0  0  0  0  0  0
  143.3802   76.7946  217.1263 H   0  0  0  0  0  0  0  0  0  0  0  0
  143.7760   77.5580  218.7087 H   0  0  0  0  0  0  0  0  0  0  0  0
  143.8718   76.1161  220.7910 H   0  0  0  0  0  0  0  0  0  0  0  0
  144.8036   73.9572  221.6278 H   0  0  0  0  0  0  0  0  0  0  0  0
  145.1543   72.0521  220.0538 H   0  0  0  0  0  0  0  0  0  0  0  0
  144.5745   72.3032  217.6377 H   0  0  0  0  0  0  0  0  0  0  0  0
  143.6529   74.4618  216.7897 H   0  0  0  0  0  0  0  0  0  0  0  0
  140.7017   79.7143  218.2770 H   0  0  0  0  0  0  0  0  0  0  0  0
  141.0008   81.5946  219.7578 H   0  0  0  0  0  0  0  0  0  0  0  0
  141.6871   82.5049  221.9536 H   0  0  0  0  0  0  0  0  0  0  0  0
  142.4238   82.1845  224.3146 H   0  0  0  0  0  0  0  0  0  0  0  0
  142.7570   79.8831  225.2197 H   0  0  0  0  0  0  0  0  0  0  0  0
  142.3485   77.8976  223.7688 H   0  0  0  0  0  0  0  0  0  0  0  0
  142.4358   77.2568  221.1988 H   0  0  0  0  0  0  0  0  0  0  0  0
  141.2465   75.0160  221.7621 H   0  0  0  0  0  0  0  0  0  0  0  0
  138.9450   74.2900  222.7380 H   0  0  0  0  0  0  0  0  0  0  0  0
  136.6035   75.5424  223.3934 H   0  0  0  0  0  0  0  0  0  0  0  0
  135.4804   77.7973  223.4358 H   0  0  0  0  0  0  0  0  0  0  0  0
  136.7098   79.8290  222.6386 H   0  0  0  0  0  0  0  0  0  0  0  0
  139.0728   79.6273  221.7878 H   0  0  0  0  0  0  0  0  0  0  0  0
  1  2  2  0
  2  3  2  0
  2  4  1  0
  4  5  1  0
  5  6  2  0
  6  7  1  0
  7  8  2  0
  8  9  1  0
  9 10  2  0
  2 11  1  0
 11 12  1  0
 12 13  2  0
 13 14  1  0
 14 15  2  0
 15 16  1  0
 16 17  2  0
 17 18  1  0
 18 19  2  0
 19 20  1  0
 20 21  1  0
 21 22  2  0
 22 23  1  0
 23 24  1  0
 24 25  2  0
 25 26  1  0
 26 27  2  0
 27 28  1  0
 28 29  2  0
 10  5  1  0
 20 11  1  0
 29 21  1  0
 19 14  1  0
 29 24  1  0
  4 30  1  0
  4 31  1  0
  6 32  1  0
  7 33  1  0
  8 34  1  0
  9 35  1  0
 10 36  1  0
 12 37  1  0
 13 38  1  0
 15 39  1  0
 16 40  1  0
 17 41  1  0
 18 42  1  0
 20 43  1  6
 22 44  1  0
 23 45  1  0
 25 46  1  0
 26 47  1  0
 27 48  1  0
 28 49  1  0
M  END
>  <meeko>  (6) 
{"free_energy": -7.8, "intermolecular_energy": -8.99, "internal_energy": -2.02, "cluster_size": 15, "cluster_id": 1, "rank_in_cluster": 9}

$$$$

     RDKit          3D

 49 53  0  0  0  0  0  0  0  0999 V2000
  140.6980   76.0340  218.9150 O   0  0  0  0  0  0  0  0  0  0  0  0
  141.2360   77.3670  218.4810 S   0  0  0  0  0  0  0  0  0  0  0  0
  140.4490   77.8370  217.2890 O   0  0  0  0  0  0  0  0  0  0  0  0
  142.9560   77.1970  218.0320 C   0  0  0  0  0  0  0  0  0  0  0  0
  143.5060   75.9080  218.5750 C   0  0  0  0  0  0  0  0  0  0  0  0
  143.7340   74.8170  217.7190 C   0  0  0  0  0  0  0  0  0  0  0  0
  144.1660   73.5930  218.2380 C   0  0  0  0  0  0  0  0  0  0  0  0
  144.3710   73.4480  219.6130 C   0  0  0  0  0  0  0  0  0  0  0  0
  144.1430   74.5270  220.4710 C   0  0  0  0  0  0  0  0  0  0  0  0
  143.7080   75.7530  219.9570 C   0  0  0  0  0  0  0  0  0  0  0  0
  141.0910   78.5200  219.7760 N   0  0  0  0  0  0  0  0  0  0  0  0
  140.7980   79.8860  219.4380 C   0  0  0  0  0  0  0  0  0  0  0  0
  140.9960   80.8720  220.3080 C   0  0  0  0  0  0  0  0  0  0  0  0
  141.5110   80.5930  221.6560 C   0  0  0  0  0  0  0  0  0  0  0  0
  141.7820   81.6540  222.5320 C   0  0  0  0  0  0  0  0  0  0  0  0
  142.2890   81.3980  223.8090 C   0  0  0  0  0  0  0  0  0  0  0  0
  142.5290   80.0850  224.2160 C   0  0  0  0  0  0  0  0  0  0  0  0
  142.2600   79.0230  223.3500 C   0  0  0  0  0  0  0  0  0  0  0  0
  141.7420   79.2660  222.0660 C   0  0  0  0  0  0  0  0  0  0  0  0
  141.4440   78.1000  221.1450 C   0  0  1  0  0  0  0  0  0  0  0  0
  140.3550   77.2330  221.7230 C   0  0  0  0  0  0  0  0  0  0  0  0
  140.4540   75.8660  221.9760 C   0  0  0  0  0  0  0  0  0  0  0  0
  139.3020   75.3950  222.5010 N   0  0  0  0  0  0  0  0  0  0  0  0
  138.4740   76.4490  222.5890 C   0  0  0  0  0  0  0  0  0  0  0  0
  137.1690   76.4560  223.0790 C   0  0  0  0  0  0  0  0  0  0  0  0
  136.4760   77.6790  223.0900 C   0  0  0  0  0  0  0  0  0  0  0  0
  137.0960   78.8560  222.6180 C   0  0  0  0  0  0  0  0  0  0  0  0
  138.4150   78.8200  222.1290 C   0  0  0  0  0  0  0  0  0  0  0  0
  139.0790   77.5930  222.1260 C   0  0  0  0  0  0  0  0  0  0  0  0
  143.0479   77.1988  216.9358 H   0  0  0  0  0  0  0  0  0  0  0  0
  143.5239   78.0381  218.4563 H   0  0  0  0  0  0  0  0  0  0  0  0
  143.5719   74.9266  216.6365 H   0  0  0  0  0  0  0  0  0  0  0  0
  144.3449   72.7428  217.5634 H   0  0  0  0  0  0  0  0  0  0  0  0
  144.7118   72.4844  220.0197 H   0  0  0  0  0  0  0  0  0  0  0  0
  144.3059   74.4121  221.5528 H   0  0  0  0  0  0  0  0  0  0  0  0
  143.5235   76.5982  220.6365 H   0  0  0  0  0  0  0  0  0  0  0  0
  140.4018   80.1206  218.4390 H   0  0  0  0  0  0  0  0  0  0  0  0
  140.7718   81.9084  220.0154 H   0  0  0  0  0  0  0  0  0  0  0  0
  141.5951   82.6901  222.2133 H   0  0  0  0  0  0  0  0  0  0  0  0
  142.4991   82.2326  224.4941 H   0  0  0  0  0  0  0  0  0  0  0  0
  142.9307   79.8862  225.2205 H   0  0  0  0  0  0  0  0  0  0  0  0
  142.4546   77.9901  223.6746 H   0  0  0  0  0  0  0  0  0  0  0  0
  142.3742   77.5178  221.0684 H   0  0  0  0  0  0  0  0  0  0  0  0
  141.3467   75.2552  221.7758 H   0  0  0  0  0  0  0  0  0  0  0  0
  139.1010   74.4100  222.7850 H   0  0  0  0  0  0  0  0  0  0  0  0
  136.6961   75.5330  223.4457 H   0  0  0  0  0  0  0  0  0  0  0  0
  135.4441   77.7190  223.4688 H   0  0  0  0  0  0  0  0  0  0  0  0
  136.5444   79.8076  222.6325 H   0  0  0  0  0  0  0  0  0  0  0  0
  138.9077   79.7318  221.7602 H   0  0  0  0  0  0  0  0  0  0  0  0
  1  2  2  0
  2  3  2  0
  2  4  1  0
  4  5  1  0
  5  6  2  0
  6  7  1  0
  7  8  2  0
  8  9  1  0
  9 10  2  0
  2 11  1  0
 11 12  1  0
 12 13  2  0
 13 14  1  0
 14 15  2  0
 15 16  1  0
 16 17  2  0
 17 18  1  0
 18 19  2  0
 19 20  1  0
 20 21  1  0
 21 22  2  0
 22 23  1  0
 23 24  1  0
 24 25  2  0
 25 26  1  0
 26 27  2  0
 27 28  1  0
 28 29  2  0
 10  5  1  0
 20 11  1  0
 29 21  1  0
 19 14  1  0
 29 24  1  0
  4 30  1  0
  4 31  1  0
  6 32  1  0
  7 33  1  0
  8 34  1  0
  9 35  1  0
 10 36  1  0
 12 37  1  0
 13 38  1  0
 15 39  1  0
 16 40  1  0
 17 41  1  0
 18 42  1  0
 20 43  1  6
 22 44  1  0
 23 45  1  0
 25 46  1  0
 26 47  1  0
 27 48  1  0
 28 49  1  0
M  END
>  <meeko>  (7) 
{"free_energy": -7.62, "intermolecular_energy": -8.81, "internal_energy": -2.15, "cluster_size": 15, "cluster_id": 1, "rank_in_cluster": 15}

$$$$

     RDKit          3D

 49 53  0  0  0  0  0  0  0  0999 V2000
  143.6340   80.1020  222.6500 O   0  0  0  0  0  0  0  0  0  0  0  0
  142.2610   80.5290  223.0850 S   0  0  0  0  0  0  0  0  0  0  0  0
  142.4000   81.4840  224.2380 O   0  0  0  0  0  0  0  0  0  0  0  0
  141.3300   79.0980  223.6040 C   0  0  0  0  0  0  0  0  0  0  0  0
  139.8570   79.3650  223.4730 C   0  0  0  0  0  0  0  0  0  0  0  0
  139.3040   80.5540  223.9770 C   0  0  0  0  0  0  0  0  0  0  0  0
  137.9220   80.7640  223.9300 C   0  0  0  0  0  0  0  0  0  0  0  0
  137.0840   79.7890  223.3820 C   0  0  0  0  0  0  0  0  0  0  0  0
  137.6260   78.6020  222.8820 C   0  0  0  0  0  0  0  0  0  0  0  0
  139.0070   78.3870  222.9290 C   0  0  0  0  0  0  0  0  0  0  0  0
  141.4330   81.3090  221.7690 N   0  0  0  0  0  0  0  0  0  0  0  0
  141.4470   82.7450  221.7150 C   0  0  0  0  0  0  0  0  0  0  0  0
  140.5840   83.4180  220.9590 C   0  0  0  0  0  0  0  0  0  0  0  0
  139.5920   82.7100  220.1390 C   0  0  0  0  0  0  0  0  0  0  0  0
  138.6450   83.4380  219.4050 C   0  0  0  0  0  0  0  0  0  0  0  0
  137.6860   82.7720  218.6370 C   0  0  0  0  0  0  0  0  0  0  0  0
  137.6680   81.3760  218.5980 C   0  0  0  0  0  0  0  0  0  0  0  0
  138.6100   80.6440  219.3240 C   0  0  0  0  0  0  0  0  0  0  0  0
  139.5840   81.3020  220.0950 C   0  0  0  0  0  0  0  0  0  0  0  0
  140.6060   80.4900  220.8640 C   0  0  1  0  0  0  0  0  0  0  0  0
  141.4820   79.7070  219.9190 C   0  0  0  0  0  0  0  0  0  0  0  0
  142.2000   80.2400  218.8510 C   0  0  0  0  0  0  0  0  0  0  0  0
  142.8880   79.2690  218.2090 N   0  0  0  0  0  0  0  0  0  0  0  0
  142.6170   78.1270  218.8640 C   0  0  0  0  0  0  0  0  0  0  0  0
  143.1060   76.8540  218.5730 C   0  0  0  0  0  0  0  0  0  0  0  0
  142.7020   75.7890  219.3950 C   0  0  0  0  0  0  0  0  0  0  0  0
  141.8270   76.0170  220.4800 C   0  0  0  0  0  0  0  0  0  0  0  0
  141.3490   77.3120  220.7510 C   0  0  0  0  0  0  0  0  0  0  0  0
  141.7640   78.3500  219.9160 C   0  0  0  0  0  0  0  0  0  0  0  0
  141.6016   78.2388  222.9731 H   0  0  0  0  0  0  0  0  0  0  0  0
  141.5640   78.8784  224.6562 H   0  0  0  0  0  0  0  0  0  0  0  0
  139.9605   81.3229  224.4103 H   0  0  0  0  0  0  0  0  0  0  0  0
  137.4943   81.6974  224.3247 H   0  0  0  0  0  0  0  0  0  0  0  0
  135.9974   79.9560  223.3443 H   0  0  0  0  0  0  0  0  0  0  0  0
  136.9653   77.8355  222.4508 H   0  0  0  0  0  0  0  0  0  0  0  0
  139.4294   77.4492  222.5389 H   0  0  0  0  0  0  0  0  0  0  0  0
  142.1868   83.2992  222.3113 H   0  0  0  0  0  0  0  0  0  0  0  0
  140.6135   84.5175  220.9477 H   0  0  0  0  0  0  0  0  0  0  0  0
  138.6569   84.5376  219.4337 H   0  0  0  0  0  0  0  0  0  0  0  0
  136.9450   83.3476  218.0629 H   0  0  0  0  0  0  0  0  0  0  0  0
  136.9113   80.8527  217.9950 H   0  0  0  0  0  0  0  0  0  0  0  0
  138.5897   79.5446  219.2923 H   0  0  0  0  0  0  0  0  0  0  0  0
  140.0372   79.7935  221.4976 H   0  0  0  0  0  0  0  0  0  0  0  0
  142.2064   81.3032  218.5690 H   0  0  0  0  0  0  0  0  0  0  0  0
  143.5070   79.3880  217.3770 H   0  0  0  0  0  0  0  0  0  0  0  0
  143.7874   76.6888  217.7255 H   0  0  0  0  0  0  0  0  0  0  0  0
  143.0691   74.7720  219.1926 H   0  0  0  0  0  0  0  0  0  0  0  0
  141.5171   75.1760  221.1176 H   0  0  0  0  0  0  0  0  0  0  0  0
  140.6692   77.5005  221.5950 H   0  0  0  0  0  0  0  0  0  0  0  0
  1  2  2  0
  2  3  2  0
  2  4  1  0
  4  5  1  0
  5  6  2  0
  6  7  1  0
  7  8  2  0
  8  9  1  0
  9 10  2  0
  2 11  1  0
 11 12  1  0
 12 13  2  0
 13 14  1  0
 14 15  2  0
 15 16  1  0
 16 17  2  0
 17 18  1  0
 18 19  2  0
 19 20  1  0
 20 21  1  0
 21 22  2  0
 22 23  1  0
 23 24  1  0
 24 25  2  0
 25 26  1  0
 26 27  2  0
 27 28  1  0
 28 29  2  0
 10  5  1  0
 20 11  1  0
 29 21  1  0
 19 14  1  0
 29 24  1  0
  4 30  1  0
  4 31  1  0
  6 32  1  0
  7 33  1  0
  8 34  1  0
  9 35  1  0
 10 36  1  0
 12 37  1  0
 13 38  1  0
 15 39  1  0
 16 40  1  0
 17 41  1  0
 18 42  1  0
 20 43  1  1
 22 44  1  0
 23 45  1  0
 25 46  1  0
 26 47  1  0
 27 48  1  0
 28 49  1  0
M  END
>  <meeko>  (8) 
{"free_energy": -7.09, "intermolecular_energy": -8.28, "internal_energy": -2.56, "cluster_size": 4, "cluster_id": 2, "rank_in_cluster": 4}

$$$$

     RDKit          3D

 49 53  0  0  0  0  0  0  0  0999 V2000
  140.8650   75.6630  218.9600 O   0  0  0  0  0  0  0  0  0  0  0  0
  141.6600   76.8820  218.5890 S   0  0  0  0  0  0  0  0  0  0  0  0
  141.2220   77.3440  217.2270 O   0  0  0  0  0  0  0  0  0  0  0  0
  143.3970   76.4700  218.5500 C   0  0  0  0  0  0  0  0  0  0  0  0
  143.6210   75.1180  219.1690 C   0  0  0  0  0  0  0  0  0  0  0  0
  144.4300   74.9860  220.3100 C   0  0  0  0  0  0  0  0  0  0  0  0
  144.7060   73.7200  220.8350 C   0  0  0  0  0  0  0  0  0  0  0  0
  144.1800   72.5790  220.2250 C   0  0  0  0  0  0  0  0  0  0  0  0
  143.3770   72.7020  219.0870 C   0  0  0  0  0  0  0  0  0  0  0  0
  143.1000   73.9660  218.5570 C   0  0  0  0  0  0  0  0  0  0  0  0
  141.3940   78.1450  219.7550 N   0  0  0  0  0  0  0  0  0  0  0  0
  141.1470   79.4750  219.2680 C   0  0  0  0  0  0  0  0  0  0  0  0
  141.2650   80.5360  220.0630 C   0  0  0  0  0  0  0  0  0  0  0  0
  141.6400   80.3790  221.4750 C   0  0  0  0  0  0  0  0  0  0  0  0
  141.8300   81.5140  222.2760 C   0  0  0  0  0  0  0  0  0  0  0  0
  142.2040   81.3750  223.6150 C   0  0  0  0  0  0  0  0  0  0  0  0
  142.3920   80.1030  224.1600 C   0  0  0  0  0  0  0  0  0  0  0  0
  142.2030   78.9680  223.3690 C   0  0  0  0  0  0  0  0  0  0  0  0
  141.8190   79.0940  222.0220 C   0  0  0  0  0  0  0  0  0  0  0  0
  141.6050   77.8500  221.1840 C   0  0  1  0  0  0  0  0  0  0  0  0
  140.4570   77.0370  221.7250 C   0  0  0  0  0  0  0  0  0  0  0  0
  140.4800   75.6660  221.9730 C   0  0  0  0  0  0  0  0  0  0  0  0
  139.2900   75.2510  222.4610 N   0  0  0  0  0  0  0  0  0  0  0  0
  138.5150   76.3460  222.5310 C   0  0  0  0  0  0  0  0  0  0  0  0
  137.1970   76.4170  222.9820 C   0  0  0  0  0  0  0  0  0  0  0  0
  136.5670   77.6730  222.9800 C   0  0  0  0  0  0  0  0  0  0  0  0
  137.2600   78.8190  222.5330 C   0  0  0  0  0  0  0  0  0  0  0  0
  138.5890   78.7190  222.0830 C   0  0  0  0  0  0  0  0  0  0  0  0
  139.1890   77.4590  222.0920 C   0  0  0  0  0  0  0  0  0  0  0  0
  143.7439   76.4544  217.5063 H   0  0  0  0  0  0  0  0  0  0  0  0
  143.9591   77.2246  219.1198 H   0  0  0  0  0  0  0  0  0  0  0  0
  144.8478   75.8821  220.7921 H   0  0  0  0  0  0  0  0  0  0  0  0
  145.3383   73.6224  221.7298 H   0  0  0  0  0  0  0  0  0  0  0  0
  144.3974   71.5837  220.6398 H   0  0  0  0  0  0  0  0  0  0  0  0
  142.9624   71.8028  218.6078 H   0  0  0  0  0  0  0  0  0  0  0  0
  142.4724   74.0585  217.6584 H   0  0  0  0  0  0  0  0  0  0  0  0
  140.8547   79.6186  218.2173 H   0  0  0  0  0  0  0  0  0  0  0  0
  141.0797   81.5419  219.6583 H   0  0  0  0  0  0  0  0  0  0  0  0
  141.6841   82.5171  221.8488 H   0  0  0  0  0  0  0  0  0  0  0  0
  142.3505   82.2680  224.2403 H   0  0  0  0  0  0  0  0  0  0  0  0
  142.6893   79.9951  225.2136 H   0  0  0  0  0  0  0  0  0  0  0  0
  142.3555   77.9685  223.8024 H   0  0  0  0  0  0  0  0  0  0  0  0
  142.5335   77.2642  221.2536 H   0  0  0  0  0  0  0  0  0  0  0  0
  141.3467   75.0121  221.7961 H   0  0  0  0  0  0  0  0  0  0  0  0
  139.0320   74.2770  222.7330 H   0  0  0  0  0  0  0  0  0  0  0  0
  136.6671   75.5175  223.3285 H   0  0  0  0  0  0  0  0  0  0  0  0
  135.5277   77.7639  223.3288 H   0  0  0  0  0  0  0  0  0  0  0  0
  136.7570   79.7972  222.5367 H   0  0  0  0  0  0  0  0  0  0  0  0
  139.1382   79.6062  221.7349 H   0  0  0  0  0  0  0  0  0  0  0  0
  1  2  2  0
  2  3  2  0
  2  4  1  0
  4  5  1  0
  5  6  2  0
  6  7  1  0
  7  8  2  0
  8  9  1  0
  9 10  2  0
  2 11  1  0
 11 12  1  0
 12 13  2  0
 13 14  1  0
 14 15  2  0
 15 16  1  0
 16 17  2  0
 17 18  1  0
 18 19  2  0
 19 20  1  0
 20 21  1  0
 21 22  2  0
 22 23  1  0
 23 24  1  0
 24 25  2  0
 25 26  1  0
 26 27  2  0
 27 28  1  0
 28 29  2  0
 10  5  1  0
 20 11  1  0
 29 21  1  0
 19 14  1  0
 29 24  1  0
  4 30  1  0
  4 31  1  0
  6 32  1  0
  7 33  1  0
  8 34  1  0
  9 35  1  0
 10 36  1  0
 12 37  1  0
 13 38  1  0
 15 39  1  0
 16 40  1  0
 17 41  1  0
 18 42  1  0
 20 43  1  6
 22 44  1  0
 23 45  1  0
 25 46  1  0
 26 47  1  0
 27 48  1  0
 28 49  1  0
M  END
>  <meeko>  (9) 
{"free_energy": -7.78, "intermolecular_energy": -8.97, "internal_energy": -2.02, "cluster_size": 15, "cluster_id": 1, "rank_in_cluster": 12}

$$$$

     RDKit          3D

 49 53  0  0  0  0  0  0  0  0999 V2000
  140.9110   75.7080  219.0610 O   0  0  0  0  0  0  0  0  0  0  0  0
  141.4680   77.0120  218.5660 S   0  0  0  0  0  0  0  0  0  0  0  0
  140.7370   77.4000  217.3110 O   0  0  0  0  0  0  0  0  0  0  0  0
  143.2070   76.8200  218.2100 C   0  0  0  0  0  0  0  0  0  0  0  0
  143.7010   75.5060  218.7470 C   0  0  0  0  0  0  0  0  0  0  0  0
  143.7060   74.3630  217.9300 C   0  0  0  0  0  0  0  0  0  0  0  0
  144.0870   73.1240  218.4550 C   0  0  0  0  0  0  0  0  0  0  0  0
  144.4630   73.0170  219.7960 C   0  0  0  0  0  0  0  0  0  0  0  0
  144.4570   74.1500  220.6160 C   0  0  0  0  0  0  0  0  0  0  0  0
  144.0750   75.3900  220.0960 C   0  0  0  0  0  0  0  0  0  0  0  0
  141.2610   78.2460  219.7750 N   0  0  0  0  0  0  0  0  0  0  0  0
  141.0130   79.5920  219.3340 C   0  0  0  0  0  0  0  0  0  0  0  0
  141.1740   80.6280  220.1520 C   0  0  0  0  0  0  0  0  0  0  0  0
  141.5980   80.4290  221.5440 C   0  0  0  0  0  0  0  0  0  0  0  0
  141.8310   81.5390  222.3690 C   0  0  0  0  0  0  0  0  0  0  0  0
  142.2520   81.3580  223.6890 C   0  0  0  0  0  0  0  0  0  0  0  0
  142.4440   80.0700  224.1920 C   0  0  0  0  0  0  0  0  0  0  0  0
  142.2110   78.9600  223.3780 C   0  0  0  0  0  0  0  0  0  0  0  0
  141.7800   79.1270  222.0500 C   0  0  0  0  0  0  0  0  0  0  0  0
  141.5200   77.9090  221.1870 C   0  0  1  0  0  0  0  0  0  0  0  0
  140.3820   77.0950  221.7470 C   0  0  0  0  0  0  0  0  0  0  0  0
  140.4110   75.7240  221.9950 C   0  0  0  0  0  0  0  0  0  0  0  0
  139.2290   75.3080  222.5040 N   0  0  0  0  0  0  0  0  0  0  0  0
  138.4540   76.4020  222.5870 C   0  0  0  0  0  0  0  0  0  0  0  0
  137.1450   76.4720  223.0600 C   0  0  0  0  0  0  0  0  0  0  0  0
  136.5140   77.7270  223.0690 C   0  0  0  0  0  0  0  0  0  0  0  0
  137.1970   78.8740  222.6100 C   0  0  0  0  0  0  0  0  0  0  0  0
  138.5190   78.7750  222.1370 C   0  0  0  0  0  0  0  0  0  0  0  0
  139.1200   77.5160  222.1360 C   0  0  0  0  0  0  0  0  0  0  0  0
  143.3611   76.8494  217.1213 H   0  0  0  0  0  0  0  0  0  0  0  0
  143.7654   77.6379  218.6887 H   0  0  0  0  0  0  0  0  0  0  0  0
  143.4092   74.4429  216.8738 H   0  0  0  0  0  0  0  0  0  0  0  0
  144.0906   72.2323  217.8109 H   0  0  0  0  0  0  0  0  0  0  0  0
  144.7637   72.0420  220.2070 H   0  0  0  0  0  0  0  0  0  0  0  0
  144.7534   74.0652  221.6719 H   0  0  0  0  0  0  0  0  0  0  0  0
  144.0672   76.2779  220.7453 H   0  0  0  0  0  0  0  0  0  0  0  0
  140.6835   79.7682  218.2994 H   0  0  0  0  0  0  0  0  0  0  0  0
  140.9873   81.6467  219.7814 H   0  0  0  0  0  0  0  0  0  0  0  0
  141.6818   82.5554  221.9756 H   0  0  0  0  0  0  0  0  0  0  0  0
  142.4324   82.2316  224.3327 H   0  0  0  0  0  0  0  0  0  0  0  0
  142.7791   79.9296  225.2303 H   0  0  0  0  0  0  0  0  0  0  0  0
  142.3657   77.9472  223.7785 H   0  0  0  0  0  0  0  0  0  0  0  0
  142.4428   77.3106  221.2070 H   0  0  0  0  0  0  0  0  0  0  0  0
  141.2751   75.0709  221.8034 H   0  0  0  0  0  0  0  0  0  0  0  0
  138.9770   74.3340  222.7800 H   0  0  0  0  0  0  0  0  0  0  0  0
  136.6219   75.5720  223.4154 H   0  0  0  0  0  0  0  0  0  0  0  0
  135.4809   77.8166  223.4361 H   0  0  0  0  0  0  0  0  0  0  0  0
  136.6928   79.8516  222.6221 H   0  0  0  0  0  0  0  0  0  0  0  0
  139.0613   79.6626  221.7793 H   0  0  0  0  0  0  0  0  0  0  0  0
  1  2  2  0
  2  3  2  0
  2  4  1  0
  4  5  1  0
  5  6  2  0
  6  7  1  0
  7  8  2  0
  8  9  1  0
  9 10  2  0
  2 11  1  0
 11 12  1  0
 12 13  2  0
 13 14  1  0
 14 15  2  0
 15 16  1  0
 16 17  2  0
 17 18  1  0
 18 19  2  0
 19 20  1  0
 20 21  1  0
 21 22  2  0
 22 23  1  0
 23 24  1  0
 24 25  2  0
 25 26  1  0
 26 27  2  0
 27 28  1  0
 28 29  2  0
 10  5  1  0
 20 11  1  0
 29 21  1  0
 19 14  1  0
 29 24  1  0
  4 30  1  0
  4 31  1  0
  6 32  1  0
  7 33  1  0
  8 34  1  0
  9 35  1  0
 10 36  1  0
 12 37  1  0
 13 38  1  0
 15 39  1  0
 16 40  1  0
 17 41  1  0
 18 42  1  0
 20 43  1  6
 22 44  1  0
 23 45  1  0
 25 46  1  0
 26 47  1  0
 27 48  1  0
 28 49  1  0
M  END
>  <meeko>  (10) 
{"free_energy": -7.7, "intermolecular_energy": -8.9, "internal_energy": -2.07, "cluster_size": 15, "cluster_id": 1, "rank_in_cluster": 14}

$$$$

     RDKit          3D

 49 53  0  0  0  0  0  0  0  0999 V2000
  140.8860   75.5750  219.0360 O   0  0  0  0  0  0  0  0  0  0  0  0
  141.6770   76.7890  218.6380 S   0  0  0  0  0  0  0  0  0  0  0  0
  141.2340   77.2210  217.2680 O   0  0  0  0  0  0  0  0  0  0  0  0
  143.4150   76.3820  218.6040 C   0  0  0  0  0  0  0  0  0  0  0  0
  143.6400   75.0290  219.2190 C   0  0  0  0  0  0  0  0  0  0  0  0
  144.4660   74.8910  220.3470 C   0  0  0  0  0  0  0  0  0  0  0  0
  144.7430   73.6230  220.8670 C   0  0  0  0  0  0  0  0  0  0  0  0
  144.2000   72.4850  220.2650 C   0  0  0  0  0  0  0  0  0  0  0  0
  143.3800   72.6140  219.1400 C   0  0  0  0  0  0  0  0  0  0  0  0
  143.1030   73.8800  218.6150 C   0  0  0  0  0  0  0  0  0  0  0  0
  141.4100   78.0760  219.7790 N   0  0  0  0  0  0  0  0  0  0  0  0
  141.1920   79.4010  219.2660 C   0  0  0  0  0  0  0  0  0  0  0  0
  141.3120   80.4720  220.0450 C   0  0  0  0  0  0  0  0  0  0  0  0
  141.6590   80.3330  221.4660 C   0  0  0  0  0  0  0  0  0  0  0  0
  141.8520   81.4790  222.2520 C   0  0  0  0  0  0  0  0  0  0  0  0
  142.2000   81.3560  223.6000 C   0  0  0  0  0  0  0  0  0  0  0  0
  142.3580   80.0910  224.1690 C   0  0  0  0  0  0  0  0  0  0  0  0
  142.1660   78.9460  223.3930 C   0  0  0  0  0  0  0  0  0  0  0  0
  141.8080   79.0550  222.0380 C   0  0  0  0  0  0  0  0  0  0  0  0
  141.5910   77.8010  221.2160 C   0  0  1  0  0  0  0  0  0  0  0  0
  140.4200   77.0140  221.7490 C   0  0  0  0  0  0  0  0  0  0  0  0
  140.4030   75.6400  221.9750 C   0  0  0  0  0  0  0  0  0  0  0  0
  139.2020   75.2530  222.4620 N   0  0  0  0  0  0  0  0  0  0  0  0
  138.4610   76.3700  222.5520 C   0  0  0  0  0  0  0  0  0  0  0  0
  137.1480   76.4730  223.0090 C   0  0  0  0  0  0  0  0  0  0  0  0
  136.5560   77.7470  223.0300 C   0  0  0  0  0  0  0  0  0  0  0  0
  137.2810   78.8790  222.5970 C   0  0  0  0  0  0  0  0  0  0  0  0
  138.6050   78.7460  222.1410 C   0  0  0  0  0  0  0  0  0  0  0  0
  139.1670   77.4690  222.1280 C   0  0  0  0  0  0  0  0  0  0  0  0
  143.7659   76.3709  217.5615 H   0  0  0  0  0  0  0  0  0  0  0  0
  143.9730   77.1362  219.1783 H   0  0  0  0  0  0  0  0  0  0  0  0
  144.8966   75.7843  220.8231 H   0  0  0  0  0  0  0  0  0  0  0  0
  145.3893   73.5212  221.7513 H   0  0  0  0  0  0  0  0  0  0  0  0
  144.4176   71.4881  220.6760 H   0  0  0  0  0  0  0  0  0  0  0  0
  142.9520   71.7179  218.6670 H   0  0  0  0  0  0  0  0  0  0  0  0
  142.4624   73.9766  217.7260 H   0  0  0  0  0  0  0  0  0  0  0  0
  140.9205   79.5316  218.2081 H   0  0  0  0  0  0  0  0  0  0  0  0
  141.1496   81.4738  219.6206 H   0  0  0  0  0  0  0  0  0  0  0  0
  141.7291   82.4770  221.8061 H   0  0  0  0  0  0  0  0  0  0  0  0
  142.3495   82.2569  224.2133 H   0  0  0  0  0  0  0  0  0  0  0  0
  142.6340   79.9961  225.2296 H   0  0  0  0  0  0  0  0  0  0  0  0
  142.2958   77.9517  223.8453 H   0  0  0  0  0  0  0  0  0  0  0  0
  142.5092   77.2029  221.3117 H   0  0  0  0  0  0  0  0  0  0  0  0
  141.2489   74.9633  221.7840 H   0  0  0  0  0  0  0  0  0  0  0  0
  138.9160   74.2830  222.7200 H   0  0  0  0  0  0  0  0  0  0  0  0
  136.5925   75.5842  223.3429 H   0  0  0  0  0  0  0  0  0  0  0  0
  135.5217   77.8635  223.3858 H   0  0  0  0  0  0  0  0  0  0  0  0
  136.8071   79.8715  222.6165 H   0  0  0  0  0  0  0  0  0  0  0  0
  139.1796   79.6218  221.8050 H   0  0  0  0  0  0  0  0  0  0  0  0
  1  2  2  0
  2  3  2  0
  2  4  1  0
  4  5  1  0
  5  6  2  0
  6  7  1  0
  7  8  2  0
  8  9  1  0
  9 10  2  0
  2 11  1  0
 11 12  1  0
 12 13  2  0
 13 14  1  0
 14 15  2  0
 15 16  1  0
 16 17  2  0
 17 18  1  0
 18 19  2  0
 19 20  1  0
 20 21  1  0
 21 22  2  0
 22 23  1  0
 23 24  1  0
 24 25  2  0
 25 26  1  0
 26 27  2  0
 27 28  1  0
 28 29  2  0
 10  5  1  0
 20 11  1  0
 29 21  1  0
 19 14  1  0
 29 24  1  0
  4 30  1  0
  4 31  1  0
  6 32  1  0
  7 33  1  0
  8 34  1  0
  9 35  1  0
 10 36  1  0
 12 37  1  0
 13 38  1  0
 15 39  1  0
 16 40  1  0
 17 41  1  0
 18 42  1  0
 20 43  1  6
 22 44  1  0
 23 45  1  0
 25 46  1  0
 26 47  1  0
 27 48  1  0
 28 49  1  0
M  END
>  <meeko>  (11) 
{"free_energy": -7.85, "intermolecular_energy": -9.04, "internal_energy": -1.97, "cluster_size": 15, "cluster_id": 1, "rank_in_cluster": 6}

$$$$

     RDKit          3D

 49 53  0  0  0  0  0  0  0  0999 V2000
  143.6900   80.1260  222.6510 O   0  0  0  0  0  0  0  0  0  0  0  0
  142.3030   80.5050  223.0870 S   0  0  0  0  0  0  0  0  0  0  0  0
  142.4090   81.4540  224.2480 O   0  0  0  0  0  0  0  0  0  0  0  0
  141.4170   79.0400  223.5910 C   0  0  0  0  0  0  0  0  0  0  0  0
  139.9350   79.2760  223.5000 C   0  0  0  0  0  0  0  0  0  0  0  0
  139.0980   78.3120  222.9140 C   0  0  0  0  0  0  0  0  0  0  0  0
  137.7330   78.5680  222.7540 C   0  0  0  0  0  0  0  0  0  0  0  0
  137.1950   79.7860  223.1750 C   0  0  0  0  0  0  0  0  0  0  0  0
  138.0220   80.7520  223.7570 C   0  0  0  0  0  0  0  0  0  0  0  0
  139.3880   80.5010  223.9170 C   0  0  0  0  0  0  0  0  0  0  0  0
  141.4530   81.2690  221.7750 N   0  0  0  0  0  0  0  0  0  0  0  0
  141.4500   82.7060  221.7160 C   0  0  0  0  0  0  0  0  0  0  0  0
  140.5720   83.3650  220.9650 C   0  0  0  0  0  0  0  0  0  0  0  0
  139.5800   82.6420  220.1580 C   0  0  0  0  0  0  0  0  0  0  0  0
  138.6170   83.3560  219.4310 C   0  0  0  0  0  0  0  0  0  0  0  0
  137.6590   82.6750  218.6740 C   0  0  0  0  0  0  0  0  0  0  0  0
  137.6570   81.2800  218.6410 C   0  0  0  0  0  0  0  0  0  0  0  0
  138.6140   80.5610  219.3600 C   0  0  0  0  0  0  0  0  0  0  0  0
  139.5880   81.2340  220.1190 C   0  0  0  0  0  0  0  0  0  0  0  0
  140.6270   80.4370  220.8820 C   0  0  1  0  0  0  0  0  0  0  0  0
  141.5030   79.6610  219.9320 C   0  0  0  0  0  0  0  0  0  0  0  0
  142.2130   80.1990  218.8610 C   0  0  0  0  0  0  0  0  0  0  0  0
  142.9030   79.2330  218.2150 N   0  0  0  0  0  0  0  0  0  0  0  0
  142.6420   78.0890  218.8680 C   0  0  0  0  0  0  0  0  0  0  0  0
  143.1370   76.8190  218.5730 C   0  0  0  0  0  0  0  0  0  0  0  0
  142.7420   75.7510  219.3960 C   0  0  0  0  0  0  0  0  0  0  0  0
  141.8710   75.9720  220.4850 C   0  0  0  0  0  0  0  0  0  0  0  0
  141.3870   77.2640  220.7600 C   0  0  0  0  0  0  0  0  0  0  0  0
  141.7920   78.3060  219.9250 C   0  0  0  0  0  0  0  0  0  0  0  0
  141.6933   78.2031  222.9327 H   0  0  0  0  0  0  0  0  0  0  0  0
  141.6803   78.8000  224.6317 H   0  0  0  0  0  0  0  0  0  0  0  0
  139.5183   77.3520  222.5797 H   0  0  0  0  0  0  0  0  0  0  0  0
  137.0818   77.8090  222.2959 H   0  0  0  0  0  0  0  0  0  0  0  0
  136.1207   79.9856  223.0488 H   0  0  0  0  0  0  0  0  0  0  0  0
  137.5971   81.7106  224.0894 H   0  0  0  0  0  0  0  0  0  0  0  0
  140.0364   81.2650  224.3708 H   0  0  0  0  0  0  0  0  0  0  0  0
  142.1884   83.2713  222.3036 H   0  0  0  0  0  0  0  0  0  0  0  0
  140.5889   84.4647  220.9480 H   0  0  0  0  0  0  0  0  0  0  0  0
  138.6152   84.4557  219.4563 H   0  0  0  0  0  0  0  0  0  0  0  0
  136.9062   83.2393  218.1040 H   0  0  0  0  0  0  0  0  0  0  0  0
  136.9003   80.7459  218.0476 H   0  0  0  0  0  0  0  0  0  0  0  0
  138.6060   79.4614  219.3325 H   0  0  0  0  0  0  0  0  0  0  0  0
  140.0723   79.7369  221.5239 H   0  0  0  0  0  0  0  0  0  0  0  0
  142.2121   81.2625  218.5800 H   0  0  0  0  0  0  0  0  0  0  0  0
  143.5170   79.3570  217.3800 H   0  0  0  0  0  0  0  0  0  0  0  0
  143.8156   76.6584  217.7223 H   0  0  0  0  0  0  0  0  0  0  0  0
  143.1137   74.7363  219.1906 H   0  0  0  0  0  0  0  0  0  0  0  0
  141.5688   75.1282  221.1228 H   0  0  0  0  0  0  0  0  0  0  0  0
  140.7099   77.4472  221.6074 H   0  0  0  0  0  0  0  0  0  0  0  0
  1  2  2  0
  2  3  2  0
  2  4  1  0
  4  5  1  0
  5  6  2  0
  6  7  1  0
  7  8  2  0
  8  9  1  0
  9 10  2  0
  2 11  1  0
 11 12  1  0
 12 13  2  0
 13 14  1  0
 14 15  2  0
 15 16  1  0
 16 17  2  0
 17 18  1  0
 18 19  2  0
 19 20  1  0
 20 21  1  0
 21 22  2  0
 22 23  1  0
 23 24  1  0
 24 25  2  0
 25 26  1  0
 26 27  2  0
 27 28  1  0
 28 29  2  0
 10  5  1  0
 20 11  1  0
 29 21  1  0
 19 14  1  0
 29 24  1  0
  4 30  1  0
  4 31  1  0
  6 32  1  0
  7 33  1  0
  8 34  1  0
  9 35  1  0
 10 36  1  0
 12 37  1  0
 13 38  1  0
 15 39  1  0
 16 40  1  0
 17 41  1  0
 18 42  1  0
 20 43  1  1
 22 44  1  0
 23 45  1  0
 25 46  1  0
 26 47  1  0
 27 48  1  0
 28 49  1  0
M  END
>  <meeko>  (12) 
{"free_energy": -7.12, "intermolecular_energy": -8.32, "internal_energy": -2.62, "cluster_size": 4, "cluster_id": 2, "rank_in_cluster": 1}

$$$$

     RDKit          3D

 49 53  0  0  0  0  0  0  0  0999 V2000
  140.9860   75.3320  218.5660 O   0  0  0  0  0  0  0  0  0  0  0  0
  142.0960   75.8430  219.4390 S   0  0  0  0  0  0  0  0  0  0  0  0
  143.3470   75.9480  218.6110 O   0  0  0  0  0  0  0  0  0  0  0  0
  142.3660   74.7040  220.7870 C   0  0  0  0  0  0  0  0  0  0  0  0
  143.6140   73.9030  220.5450 C   0  0  0  0  0  0  0  0  0  0  0  0
  144.8780   74.4730  220.7740 C   0  0  0  0  0  0  0  0  0  0  0  0
  146.0400   73.7570  220.4680 C   0  0  0  0  0  0  0  0  0  0  0  0
  145.9480   72.4700  219.9300 C   0  0  0  0  0  0  0  0  0  0  0  0
  144.6940   71.8980  219.6960 C   0  0  0  0  0  0  0  0  0  0  0  0
  143.5300   72.6110  219.9980 C   0  0  0  0  0  0  0  0  0  0  0  0
  141.6790   77.4060  220.0810 N   0  0  0  0  0  0  0  0  0  0  0  0
  141.7290   78.5370  219.1950 C   0  0  0  0  0  0  0  0  0  0  0  0
  141.7550   79.7810  219.6630 C   0  0  0  0  0  0  0  0  0  0  0  0
  141.7180   80.0420  221.1090 C   0  0  0  0  0  0  0  0  0  0  0  0
  141.8190   81.3570  221.5840 C   0  0  0  0  0  0  0  0  0  0  0  0
  141.8030   81.6120  222.9580 C   0  0  0  0  0  0  0  0  0  0  0  0
  141.6880   80.5560  223.8640 C   0  0  0  0  0  0  0  0  0  0  0  0
  141.5850   79.2430  223.3980 C   0  0  0  0  0  0  0  0  0  0  0  0
  141.5920   78.9740  222.0190 C   0  0  0  0  0  0  0  0  0  0  0  0
  141.4650   77.5440  221.5330 C   0  0  1  0  0  0  0  0  0  0  0  0
  140.1270   76.9690  221.9210 C   0  0  0  0  0  0  0  0  0  0  0  0
  139.8620   75.6230  222.1650 C   0  0  0  0  0  0  0  0  0  0  0  0
  138.5640   75.4460  222.4970 N   0  0  0  0  0  0  0  0  0  0  0  0
  138.0040   76.6670  222.4710 C   0  0  0  0  0  0  0  0  0  0  0  0
  136.6770   76.9900  222.7510 C   0  0  0  0  0  0  0  0  0  0  0  0
  136.2970   78.3410  222.6730 C   0  0  0  0  0  0  0  0  0  0  0  0
  137.2420   79.3290  222.3200 C   0  0  0  0  0  0  0  0  0  0  0  0
  138.5750   78.9750  222.0430 C   0  0  0  0  0  0  0  0  0  0  0  0
  138.9240   77.6260  222.1250 C   0  0  0  0  0  0  0  0  0  0  0  0
  142.4726   75.2690  221.7247 H   0  0  0  0  0  0  0  0  0  0  0  0
  141.5075   74.0199  220.8574 H   0  0  0  0  0  0  0  0  0  0  0  0
  144.9539   75.4862  221.1955 H   0  0  0  0  0  0  0  0  0  0  0  0
  147.0270   74.2070  220.6508 H   0  0  0  0  0  0  0  0  0  0  0  0
  146.8624   71.9073  219.6907 H   0  0  0  0  0  0  0  0  0  0  0  0
  144.6230   70.8849  219.2734 H   0  0  0  0  0  0  0  0  0  0  0  0
  142.5453   72.1594  219.8069 H   0  0  0  0  0  0  0  0  0  0  0  0
  141.7461   78.3697  218.1079 H   0  0  0  0  0  0  0  0  0  0  0  0
  141.8048   80.6252  218.9596 H   0  0  0  0  0  0  0  0  0  0  0  0
  141.9112   82.1911  220.8728 H   0  0  0  0  0  0  0  0  0  0  0  0
  141.8811   82.6457  223.3260 H   0  0  0  0  0  0  0  0  0  0  0  0
  141.6785   80.7579  224.9453 H   0  0  0  0  0  0  0  0  0  0  0  0
  141.4978   78.4140  224.1157 H   0  0  0  0  0  0  0  0  0  0  0  0
  142.2658   76.9747  222.0276 H   0  0  0  0  0  0  0  0  0  0  0  0
  140.6064   74.8160  222.0968 H   0  0  0  0  0  0  0  0  0  0  0  0
  138.0970   74.5420  222.7310 H   0  0  0  0  0  0  0  0  0  0  0  0
  135.9497   76.2114  223.0246 H   0  0  0  0  0  0  0  0  0  0  0  0
  135.2577   78.6302  222.8881 H   0  0  0  0  0  0  0  0  0  0  0  0
  136.9336   80.3832  222.2612 H   0  0  0  0  0  0  0  0  0  0  0  0
  139.3193   79.7377  221.7702 H   0  0  0  0  0  0  0  0  0  0  0  0
  1  2  2  0
  2  3  2  0
  2  4  1  0
  4  5  1  0
  5  6  2  0
  6  7  1  0
  7  8  2  0
  8  9  1  0
  9 10  2  0
  2 11  1  0
 11 12  1  0
 12 13  2  0
 13 14  1  0
 14 15  2  0
 15 16  1  0
 16 17  2  0
 17 18  1  0
 18 19  2  0
 19 20  1  0
 20 21  1  0
 21 22  2  0
 22 23  1  0
 23 24  1  0
 24 25  2  0
 25 26  1  0
 26 27  2  0
 27 28  1  0
 28 29  2  0
 10  5  1  0
 20 11  1  0
 29 21  1  0
 19 14  1  0
 29 24  1  0
  4 30  1  0
  4 31  1  0
  6 32  1  0
  7 33  1  0
  8 34  1  0
  9 35  1  0
 10 36  1  0
 12 37  1  0
 13 38  1  0
 15 39  1  0
 16 40  1  0
 17 41  1  0
 18 42  1  0
 20 43  1  1
 22 44  1  0
 23 45  1  0
 25 46  1  0
 26 47  1  0
 27 48  1  0
 28 49  1  0
M  END
>  <meeko>  (13) 
{"free_energy": -8.2, "intermolecular_energy": -9.4, "internal_energy": -1.58, "cluster_size": 15, "cluster_id": 1, "rank_in_cluster": 2}

$$$$

     RDKit          3D

 49 53  0  0  0  0  0  0  0  0999 V2000
  140.9160   75.5560  219.1040 O   0  0  0  0  0  0  0  0  0  0  0  0
  141.6430   76.7890  218.6480 S   0  0  0  0  0  0  0  0  0  0  0  0
  141.1210   77.1780  217.2920 O   0  0  0  0  0  0  0  0  0  0  0  0
  143.3910   76.4420  218.5390 C   0  0  0  0  0  0  0  0  0  0  0  0
  143.6870   75.0900  219.1240 C   0  0  0  0  0  0  0  0  0  0  0  0
  144.3930   74.9800  220.3340 C   0  0  0  0  0  0  0  0  0  0  0  0
  144.7410   73.7220  220.8350 C   0  0  0  0  0  0  0  0  0  0  0  0
  144.3900   72.5670  220.1320 C   0  0  0  0  0  0  0  0  0  0  0  0
  143.6900   72.6680  218.9250 C   0  0  0  0  0  0  0  0  0  0  0  0
  143.3420   73.9240  218.4200 C   0  0  0  0  0  0  0  0  0  0  0  0
  141.3820   78.0870  219.7760 N   0  0  0  0  0  0  0  0  0  0  0  0
  141.1720   79.4090  219.2510 C   0  0  0  0  0  0  0  0  0  0  0  0
  141.2980   80.4870  220.0200 C   0  0  0  0  0  0  0  0  0  0  0  0
  141.6430   80.3590  221.4430 C   0  0  0  0  0  0  0  0  0  0  0  0
  141.8420   81.5100  222.2180 C   0  0  0  0  0  0  0  0  0  0  0  0
  142.1890   81.3980  223.5670 C   0  0  0  0  0  0  0  0  0  0  0  0
  142.3400   80.1370  224.1480 C   0  0  0  0  0  0  0  0  0  0  0  0
  142.1410   78.9860  223.3830 C   0  0  0  0  0  0  0  0  0  0  0  0
  141.7850   79.0850  222.0260 C   0  0  0  0  0  0  0  0  0  0  0  0
  141.5600   77.8250  221.2160 C   0  0  1  0  0  0  0  0  0  0  0  0
  140.3850   77.0500  221.7550 C   0  0  0  0  0  0  0  0  0  0  0  0
  140.3590   75.6770  221.9910 C   0  0  0  0  0  0  0  0  0  0  0  0
  139.1560   75.3020  222.4820 N   0  0  0  0  0  0  0  0  0  0  0  0
  138.4220   76.4240  222.5650 C   0  0  0  0  0  0  0  0  0  0  0  0
  137.1110   76.5390  223.0230 C   0  0  0  0  0  0  0  0  0  0  0  0
  136.5270   77.8180  223.0350 C   0  0  0  0  0  0  0  0  0  0  0  0
  137.2600   78.9420  222.5940 C   0  0  0  0  0  0  0  0  0  0  0  0
  138.5830   78.7960  222.1370 C   0  0  0  0  0  0  0  0  0  0  0  0
  139.1360   77.5150  222.1320 C   0  0  0  0  0  0  0  0  0  0  0  0
  143.6997   76.4570  217.4833 H   0  0  0  0  0  0  0  0  0  0  0  0
  143.9455   77.2070  219.1023 H   0  0  0  0  0  0  0  0  0  0  0  0
  144.6730   75.8874  220.8893 H   0  0  0  0  0  0  0  0  0  0  0  0
  145.2918   73.6416  221.7838 H   0  0  0  0  0  0  0  0  0  0  0  0
  144.6641   71.5779  220.5276 H   0  0  0  0  0  0  0  0  0  0  0  0
  143.4131   71.7579  218.3727 H   0  0  0  0  0  0  0  0  0  0  0  0
  142.7961   73.9999  217.4680 H   0  0  0  0  0  0  0  0  0  0  0  0
  140.9016   79.5314  218.1918 H   0  0  0  0  0  0  0  0  0  0  0  0
  141.1422   81.4857  219.5860 H   0  0  0  0  0  0  0  0  0  0  0  0
  141.7246   82.5045  221.7628 H   0  0  0  0  0  0  0  0  0  0  0  0
  142.3433   82.3038  224.1718 H   0  0  0  0  0  0  0  0  0  0  0  0
  142.6160   80.0505  225.2093 H   0  0  0  0  0  0  0  0  0  0  0  0
  142.2635   77.9952  223.8448 H   0  0  0  0  0  0  0  0  0  0  0  0
  142.4745   77.2224  221.3185 H   0  0  0  0  0  0  0  0  0  0  0  0
  141.2001   74.9932  221.8039 H   0  0  0  0  0  0  0  0  0  0  0  0
  138.8640   74.3350  222.7460 H   0  0  0  0  0  0  0  0  0  0  0  0
  136.5503   75.6564  223.3646 H   0  0  0  0  0  0  0  0  0  0  0  0
  135.4934   77.9440  223.3898 H   0  0  0  0  0  0  0  0  0  0  0  0
  136.7936   79.9381  222.6079 H   0  0  0  0  0  0  0  0  0  0  0  0
  139.1634   79.6652  221.7942 H   0  0  0  0  0  0  0  0  0  0  0  0
  1  2  2  0
  2  3  2  0
  2  4  1  0
  4  5  1  0
  5  6  2  0
  6  7  1  0
  7  8  2  0
  8  9  1  0
  9 10  2  0
  2 11  1  0
 11 12  1  0
 12 13  2  0
 13 14  1  0
 14 15  2  0
 15 16  1  0
 16 17  2  0
 17 18  1  0
 18 19  2  0
 19 20  1  0
 20 21  1  0
 21 22  2  0
 22 23  1  0
 23 24  1  0
 24 25  2  0
 25 26  1  0
 26 27  2  0
 27 28  1  0
 28 29  2  0
 10  5  1  0
 20 11  1  0
 29 21  1  0
 19 14  1  0
 29 24  1  0
  4 30  1  0
  4 31  1  0
  6 32  1  0
  7 33  1  0
  8 34  1  0
  9 35  1  0
 10 36  1  0
 12 37  1  0
 13 38  1  0
 15 39  1  0
 16 40  1  0
 17 41  1  0
 18 42  1  0
 20 43  1  6
 22 44  1  0
 23 45  1  0
 25 46  1  0
 26 47  1  0
 27 48  1  0
 28 49  1  0
M  END
>  <meeko>  (14) 
{"free_energy": -7.81, "intermolecular_energy": -9.01, "internal_energy": -1.98, "cluster_size": 15, "cluster_id": 1, "rank_in_cluster": 8}

$$$$

     RDKit          3D

 49 53  0  0  0  0  0  0  0  0999 V2000
  140.8290   75.6310  219.0040 O   0  0  0  0  0  0  0  0  0  0  0  0
  141.6110   76.8520  218.6090 S   0  0  0  0  0  0  0  0  0  0  0  0
  141.1500   77.2960  217.2480 O   0  0  0  0  0  0  0  0  0  0  0  0
  143.3500   76.4510  218.5500 C   0  0  0  0  0  0  0  0  0  0  0  0
  143.5920   75.1100  219.1840 C   0  0  0  0  0  0  0  0  0  0  0  0
  144.4380   74.9960  220.3000 C   0  0  0  0  0  0  0  0  0  0  0  0
  144.7300   73.7380  220.8380 C   0  0  0  0  0  0  0  0  0  0  0  0
  144.1830   72.5880  220.2640 C   0  0  0  0  0  0  0  0  0  0  0  0
  143.3430   72.6920  219.1510 C   0  0  0  0  0  0  0  0  0  0  0  0
  143.0510   73.9480  218.6090 C   0  0  0  0  0  0  0  0  0  0  0  0
  141.3530   78.1260  219.7650 N   0  0  0  0  0  0  0  0  0  0  0  0
  141.1190   79.4540  219.2680 C   0  0  0  0  0  0  0  0  0  0  0  0
  141.2440   80.5190  220.0550 C   0  0  0  0  0  0  0  0  0  0  0  0
  141.6130   80.3700  221.4690 C   0  0  0  0  0  0  0  0  0  0  0  0
  141.8110   81.5090  222.2630 C   0  0  0  0  0  0  0  0  0  0  0  0
  142.1800   81.3760  223.6040 C   0  0  0  0  0  0  0  0  0  0  0  0
  142.3550   80.1070  224.1580 C   0  0  0  0  0  0  0  0  0  0  0  0
  142.1580   78.9680  223.3750 C   0  0  0  0  0  0  0  0  0  0  0  0
  141.7790   79.0870  222.0270 C   0  0  0  0  0  0  0  0  0  0  0  0
  141.5570   77.8390  221.1970 C   0  0  1  0  0  0  0  0  0  0  0  0
  140.4000   77.0400  221.7400 C   0  0  0  0  0  0  0  0  0  0  0  0
  140.4000   75.6660  221.9680 C   0  0  0  0  0  0  0  0  0  0  0  0
  139.2080   75.2660  222.4660 N   0  0  0  0  0  0  0  0  0  0  0  0
  138.4550   76.3740  222.5600 C   0  0  0  0  0  0  0  0  0  0  0  0
  137.1450   76.4640  223.0280 C   0  0  0  0  0  0  0  0  0  0  0  0
  136.5380   77.7310  223.0520 C   0  0  0  0  0  0  0  0  0  0  0  0
  137.2470   78.8700  222.6120 C   0  0  0  0  0  0  0  0  0  0  0  0
  138.5690   78.7510  222.1450 C   0  0  0  0  0  0  0  0  0  0  0  0
  139.1450   77.4810  222.1290 C   0  0  0  0  0  0  0  0  0  0  0  0
  143.6817   76.4230  217.5016 H   0  0  0  0  0  0  0  0  0  0  0  0
  143.9153   77.2172  219.1008 H   0  0  0  0  0  0  0  0  0  0  0  0
  144.8725   75.8996  220.7525 H   0  0  0  0  0  0  0  0  0  0  0  0
  145.3907   73.6544  221.7135 H   0  0  0  0  0  0  0  0  0  0  0  0
  144.4133   71.5995  220.6880 H   0  0  0  0  0  0  0  0  0  0  0  0
  142.9116   71.7855  218.7014 H   0  0  0  0  0  0  0  0  0  0  0  0
  142.3953   74.0262  217.7292 H   0  0  0  0  0  0  0  0  0  0  0  0
  140.8307   79.5925  218.2155 H   0  0  0  0  0  0  0  0  0  0  0  0
  141.0690   81.5234  219.6420 H   0  0  0  0  0  0  0  0  0  0  0  0
  141.6753   82.5104  221.8285 H   0  0  0  0  0  0  0  0  0  0  0  0
  142.3327   82.2720  224.2235 H   0  0  0  0  0  0  0  0  0  0  0  0
  142.6486   80.0041  225.2131 H   0  0  0  0  0  0  0  0  0  0  0  0
  142.3004   77.9705  223.8163 H   0  0  0  0  0  0  0  0  0  0  0  0
  142.4801   77.2456  221.2736 H   0  0  0  0  0  0  0  0  0  0  0  0
  141.2517   74.9985  221.7703 H   0  0  0  0  0  0  0  0  0  0  0  0
  138.9350   74.2930  222.7270 H   0  0  0  0  0  0  0  0  0  0  0  0
  136.6026   75.5696  223.3684 H   0  0  0  0  0  0  0  0  0  0  0  0
  135.5051   77.8361  223.4155 H   0  0  0  0  0  0  0  0  0  0  0  0
  136.7625   79.8573  222.6344 H   0  0  0  0  0  0  0  0  0  0  0  0
  139.1309   79.6327  221.8030 H   0  0  0  0  0  0  0  0  0  0  0  0
  1  2  2  0
  2  3  2  0
  2  4  1  0
  4  5  1  0
  5  6  2  0
  6  7  1  0
  7  8  2  0
  8  9  1  0
  9 10  2  0
  2 11  1  0
 11 12  1  0
 12 13  2  0
 13 14  1  0
 14 15  2  0
 15 16  1  0
 16 17  2  0
 17 18  1  0
 18 19  2  0
 19 20  1  0
 20 21  1  0
 21 22  2  0
 22 23  1  0
 23 24  1  0
 24 25  2  0
 25 26  1  0
 26 27  2  0
 27 28  1  0
 28 29  2  0
 10  5  1  0
 20 11  1  0
 29 21  1  0
 19 14  1  0
 29 24  1  0
  4 30  1  0
  4 31  1  0
  6 32  1  0
  7 33  1  0
  8 34  1  0
  9 35  1  0
 10 36  1  0
 12 37  1  0
 13 38  1  0
 15 39  1  0
 16 40  1  0
 17 41  1  0
 18 42  1  0
 20 43  1  6
 22 44  1  0
 23 45  1  0
 25 46  1  0
 26 47  1  0
 27 48  1  0
 28 49  1  0
M  END
>  <meeko>  (15) 
{"free_energy": -7.83, "intermolecular_energy": -9.02, "internal_energy": -1.99, "cluster_size": 15, "cluster_id": 1, "rank_in_cluster": 7}

$$$$

     RDKit          3D

 49 53  0  0  0  0  0  0  0  0999 V2000
  137.8700   77.7580  219.6570 O   0  0  0  0  0  0  0  0  0  0  0  0
  137.7790   79.1960  220.0820 S   0  0  0  0  0  0  0  0  0  0  0  0
  136.3620   79.4860  220.4900 O   0  0  0  0  0  0  0  0  0  0  0  0
  138.2360   80.2490  218.7150 C   0  0  0  0  0  0  0  0  0  0  0  0
  139.7320   80.3310  218.6030 C   0  0  0  0  0  0  0  0  0  0  0  0
  140.4630   79.2590  218.0620 C   0  0  0  0  0  0  0  0  0  0  0  0
  141.8600   79.3010  218.0350 C   0  0  0  0  0  0  0  0  0  0  0  0
  142.5370   80.4100  218.5500 C   0  0  0  0  0  0  0  0  0  0  0  0
  141.8180   81.4780  219.0940 C   0  0  0  0  0  0  0  0  0  0  0  0
  140.4210   81.4390  219.1240 C   0  0  0  0  0  0  0  0  0  0  0  0
  138.8510   79.4920  221.4200 N   0  0  0  0  0  0  0  0  0  0  0  0
  138.3940   80.3530  222.4760 C   0  0  0  0  0  0  0  0  0  0  0  0
  139.2440   80.8910  223.3460 C   0  0  0  0  0  0  0  0  0  0  0  0
  140.6840   80.6090  223.2640 C   0  0  0  0  0  0  0  0  0  0  0  0
  141.5710   81.2440  224.1460 C   0  0  0  0  0  0  0  0  0  0  0  0
  142.9430   80.9960  224.0620 C   0  0  0  0  0  0  0  0  0  0  0  0
  143.4370   80.1150  223.0980 C   0  0  0  0  0  0  0  0  0  0  0  0
  142.5600   79.4780  222.2180 C   0  0  0  0  0  0  0  0  0  0  0  0
  141.1760   79.7120  222.2960 C   0  0  0  0  0  0  0  0  0  0  0  0
  140.2390   79.0010  221.3410 C   0  0  1  0  0  0  0  0  0  0  0  0
  140.2810   77.5110  221.5690 C   0  0  0  0  0  0  0  0  0  0  0  0
  139.3980   76.7890  222.3680 C   0  0  0  0  0  0  0  0  0  0  0  0
  139.7100   75.4730  222.3510 N   0  0  0  0  0  0  0  0  0  0  0  0
  140.7770   75.3540  221.5450 C   0  0  0  0  0  0  0  0  0  0  0  0
  141.4540   74.1820  221.2120 C   0  0  0  0  0  0  0  0  0  0  0  0
  142.5500   74.2790  220.3380 C   0  0  0  0  0  0  0  0  0  0  0  0
  142.9410   75.5330  219.8190 C   0  0  0  0  0  0  0  0  0  0  0  0
  142.2400   76.7000  220.1720 C   0  0  0  0  0  0  0  0  0  0  0  0
  141.1580   76.5760  221.0440 C   0  0  0  0  0  0  0  0  0  0  0  0
  137.8237   79.8347  217.7831 H   0  0  0  0  0  0  0  0  0  0  0  0
  137.8324   81.2577  218.8874 H   0  0  0  0  0  0  0  0  0  0  0  0
  139.9335   78.3835  217.6582 H   0  0  0  0  0  0  0  0  0  0  0  0
  142.4269   78.4606  217.6081 H   0  0  0  0  0  0  0  0  0  0  0  0
  143.6363   80.4423  218.5272 H   0  0  0  0  0  0  0  0  0  0  0  0
  142.3521   82.3502  219.4990 H   0  0  0  0  0  0  0  0  0  0  0  0
  139.8588   82.2793  219.5573 H   0  0  0  0  0  0  0  0  0  0  0  0
  137.3197   80.5714  222.5665 H   0  0  0  0  0  0  0  0  0  0  0  0
  138.8646   81.5551  224.1365 H   0  0  0  0  0  0  0  0  0  0  0  0
  141.1849   81.9393  224.9060 H   0  0  0  0  0  0  0  0  0  0  0  0
  143.6351   81.4953  224.7561 H   0  0  0  0  0  0  0  0  0  0  0  0
  144.5180   79.9226  223.0318 H   0  0  0  0  0  0  0  0  0  0  0  0
  142.9549   78.7878  221.4579 H   0  0  0  0  0  0  0  0  0  0  0  0
  140.5977   79.2269  220.3260 H   0  0  0  0  0  0  0  0  0  0  0  0
  138.5631   77.2278  222.9341 H   0  0  0  0  0  0  0  0  0  0  0  0
  139.2140   74.7080  222.8600 H   0  0  0  0  0  0  0  0  0  0  0  0
  141.1398   73.2104  221.6211 H   0  0  0  0  0  0  0  0  0  0  0  0
  143.1067   73.3730  220.0564 H   0  0  0  0  0  0  0  0  0  0  0  0
  143.7994   75.5973  219.1342 H   0  0  0  0  0  0  0  0  0  0  0  0
  142.5360   77.6812  219.7725 H   0  0  0  0  0  0  0  0  0  0  0  0
  1  2  2  0
  2  3  2  0
  2  4  1  0
  4  5  1  0
  5  6  2  0
  6  7  1  0
  7  8  2  0
  8  9  1  0
  9 10  2  0
  2 11  1  0
 11 12  1  0
 12 13  2  0
 13 14  1  0
 14 15  2  0
 15 16  1  0
 16 17  2  0
 17 18  1  0
 18 19  2  0
 19 20  1  0
 20 21  1  0
 21 22  2  0
 22 23  1  0
 23 24  1  0
 24 25  2  0
 25 26  1  0
 26 27  2  0
 27 28  1  0
 28 29  2  0
 10  5  1  0
 20 11  1  0
 29 21  1  0
 19 14  1  0
 29 24  1  0
  4 30  1  0
  4 31  1  0
  6 32  1  0
  7 33  1  0
  8 34  1  0
  9 35  1  0
 10 36  1  0
 12 37  1  0
 13 38  1  0
 15 39  1  0
 16 40  1  0
 17 41  1  0
 18 42  1  0
 20 43  1  6
 22 44  1  0
 23 45  1  0
 25 46  1  0
 26 47  1  0
 27 48  1  0
 28 49  1  0
M  END
>  <meeko>  (16) 
{"free_energy": -6.84, "intermolecular_energy": -8.04, "internal_energy": -2.8, "cluster_size": 1, "cluster_id": 3, "rank_in_cluster": 1}

$$$$

     RDKit          3D

 49 53  0  0  0  0  0  0  0  0999 V2000
  140.9120   75.7460  218.9870 O   0  0  0  0  0  0  0  0  0  0  0  0
  141.5140   77.0430  218.5270 S   0  0  0  0  0  0  0  0  0  0  0  0
  140.8440   77.4540  217.2460 O   0  0  0  0  0  0  0  0  0  0  0  0
  143.2620   76.8180  218.2410 C   0  0  0  0  0  0  0  0  0  0  0  0
  143.7020   75.4770  218.7570 C   0  0  0  0  0  0  0  0  0  0  0  0
  144.0800   75.3230  220.1020 C   0  0  0  0  0  0  0  0  0  0  0  0
  144.5690   74.0960  220.5600 C   0  0  0  0  0  0  0  0  0  0  0  0
  144.6850   73.0160  219.6810 C   0  0  0  0  0  0  0  0  0  0  0  0
  144.3140   73.1620  218.3410 C   0  0  0  0  0  0  0  0  0  0  0  0
  143.8280   74.3880  217.8780 C   0  0  0  0  0  0  0  0  0  0  0  0
  141.2810   78.2710  219.7370 N   0  0  0  0  0  0  0  0  0  0  0  0
  141.0160   79.6130  219.2970 C   0  0  0  0  0  0  0  0  0  0  0  0
  141.1550   80.6510  220.1170 C   0  0  0  0  0  0  0  0  0  0  0  0
  141.5740   80.4550  221.5120 C   0  0  0  0  0  0  0  0  0  0  0  0
  141.7860   81.5670  222.3400 C   0  0  0  0  0  0  0  0  0  0  0  0
  142.2020   81.3910  223.6620 C   0  0  0  0  0  0  0  0  0  0  0  0
  142.4110   80.1050  224.1630 C   0  0  0  0  0  0  0  0  0  0  0  0
  142.2000   78.9920  223.3460 C   0  0  0  0  0  0  0  0  0  0  0  0
  141.7740   79.1550  222.0170 C   0  0  0  0  0  0  0  0  0  0  0  0
  141.5380   77.9350  221.1490 C   0  0  1  0  0  0  0  0  0  0  0  0
  140.4090   77.1030  221.7020 C   0  0  0  0  0  0  0  0  0  0  0  0
  140.4570   75.7320  221.9450 C   0  0  0  0  0  0  0  0  0  0  0  0
  139.2790   75.2970  222.4470 N   0  0  0  0  0  0  0  0  0  0  0  0
  138.4880   76.3790  222.5300 C   0  0  0  0  0  0  0  0  0  0  0  0
  137.1750   76.4280  222.9970 C   0  0  0  0  0  0  0  0  0  0  0  0
  136.5250   77.6740  223.0070 C   0  0  0  0  0  0  0  0  0  0  0  0
  137.1940   78.8320  222.5540 C   0  0  0  0  0  0  0  0  0  0  0  0
  138.5190   78.7540  222.0880 C   0  0  0  0  0  0  0  0  0  0  0  0
  139.1390   77.5040  222.0860 C   0  0  0  0  0  0  0  0  0  0  0  0
  143.4644   76.8765  217.1614 H   0  0  0  0  0  0  0  0  0  0  0  0
  143.8174   77.6067  218.7696 H   0  0  0  0  0  0  0  0  0  0  0  0
  143.9907   76.1711  220.7968 H   0  0  0  0  0  0  0  0  0  0  0  0
  144.8628   73.9806  221.6137 H   0  0  0  0  0  0  0  0  0  0  0  0
  145.0683   72.0507  220.0434 H   0  0  0  0  0  0  0  0  0  0  0  0
  144.4047   72.3109  217.6501 H   0  0  0  0  0  0  0  0  0  0  0  0
  143.5431   74.5008  216.8215 H   0  0  0  0  0  0  0  0  0  0  0  0
  140.6914   79.7855  218.2602 H   0  0  0  0  0  0  0  0  0  0  0  0
  140.9541   81.6672  219.7470 H   0  0  0  0  0  0  0  0  0  0  0  0
  141.6241   82.5816  221.9470 H   0  0  0  0  0  0  0  0  0  0  0  0
  142.3649   82.2661  224.3083 H   0  0  0  0  0  0  0  0  0  0  0  0
  142.7424   79.9679  225.2029 H   0  0  0  0  0  0  0  0  0  0  0  0
  142.3684   77.9811  223.7456 H   0  0  0  0  0  0  0  0  0  0  0  0
  142.4699   77.3511  221.1714 H   0  0  0  0  0  0  0  0  0  0  0  0
  141.3315   75.0923  221.7550 H   0  0  0  0  0  0  0  0  0  0  0  0
  139.0400   74.3180  222.7190 H   0  0  0  0  0  0  0  0  0  0  0  0
  136.6636   75.5191  223.3469 H   0  0  0  0  0  0  0  0  0  0  0  0
  135.4892   77.7475  223.3698 H   0  0  0  0  0  0  0  0  0  0  0  0
  136.6754   79.8020  222.5656 H   0  0  0  0  0  0  0  0  0  0  0  0
  139.0499   79.6508  221.7360 H   0  0  0  0  0  0  0  0  0  0  0  0
  1  2  2  0
  2  3  2  0
  2  4  1  0
  4  5  1  0
  5  6  2  0
  6  7  1  0
  7  8  2  0
  8  9  1  0
  9 10  2  0
  2 11  1  0
 11 12  1  0
 12 13  2  0
 13 14  1  0
 14 15  2  0
 15 16  1  0
 16 17  2  0
 17 18  1  0
 18 19  2  0
 19 20  1  0
 20 21  1  0
 21 22  2  0
 22 23  1  0
 23 24  1  0
 24 25  2  0
 25 26  1  0
 26 27  2  0
 27 28  1  0
 28 29  2  0
 10  5  1  0
 20 11  1  0
 29 21  1  0
 19 14  1  0
 29 24  1  0
  4 30  1  0
  4 31  1  0
  6 32  1  0
  7 33  1  0
  8 34  1  0
  9 35  1  0
 10 36  1  0
 12 37  1  0
 13 38  1  0
 15 39  1  0
 16 40  1  0
 17 41  1  0
 18 42  1  0
 20 43  1  6
 22 44  1  0
 23 45  1  0
 25 46  1  0
 26 47  1  0
 27 48  1  0
 28 49  1  0
M  END
>  <meeko>  (17) 
{"free_energy": -7.78, "intermolecular_energy": -8.97, "internal_energy": -2.04, "cluster_size": 15, "cluster_id": 1, "rank_in_cluster": 13}

$$$$

     RDKit          3D

 49 53  0  0  0  0  0  0  0  0999 V2000
  140.6310   75.5190  218.3660 O   0  0  0  0  0  0  0  0  0  0  0  0
  141.8170   75.8300  219.2340 S   0  0  0  0  0  0  0  0  0  0  0  0
  143.0390   75.9130  218.3620 O   0  0  0  0  0  0  0  0  0  0  0  0
  142.0290   74.5300  220.4390 C   0  0  0  0  0  0  0  0  0  0  0  0
  143.3980   73.9230  220.3080 C   0  0  0  0  0  0  0  0  0  0  0  0
  143.5430   72.5470  220.0640 C   0  0  0  0  0  0  0  0  0  0  0  0
  144.8150   71.9680  220.0260 C   0  0  0  0  0  0  0  0  0  0  0  0
  145.9500   72.7570  220.2330 C   0  0  0  0  0  0  0  0  0  0  0  0
  145.8130   74.1260  220.4800 C   0  0  0  0  0  0  0  0  0  0  0  0
  144.5430   74.7080  220.5210 C   0  0  0  0  0  0  0  0  0  0  0  0
  141.5740   77.3440  220.0570 N   0  0  0  0  0  0  0  0  0  0  0  0
  141.6790   78.5560  219.2910 C   0  0  0  0  0  0  0  0  0  0  0  0
  141.8400   79.7360  219.8820 C   0  0  0  0  0  0  0  0  0  0  0  0
  141.9000   79.8420  221.3460 C   0  0  0  0  0  0  0  0  0  0  0  0
  142.1430   81.0850  221.9470 C   0  0  0  0  0  0  0  0  0  0  0  0
  142.2200   81.1910  223.3380 C   0  0  0  0  0  0  0  0  0  0  0  0
  142.0580   80.0570  224.1360 C   0  0  0  0  0  0  0  0  0  0  0  0
  141.8140   78.8150  223.5450 C   0  0  0  0  0  0  0  0  0  0  0  0
  141.7260   78.6960  222.1470 C   0  0  0  0  0  0  0  0  0  0  0  0
  141.4480   77.3430  221.5260 C   0  0  1  0  0  0  0  0  0  0  0  0
  140.0850   76.8430  221.9330 C   0  0  0  0  0  0  0  0  0  0  0  0
  139.7410   75.5090  222.1460 C   0  0  0  0  0  0  0  0  0  0  0  0
  138.4420   75.4060  222.5070 N   0  0  0  0  0  0  0  0  0  0  0  0
  137.9610   76.6600  222.5300 C   0  0  0  0  0  0  0  0  0  0  0  0
  136.6650   77.0580  222.8550 C   0  0  0  0  0  0  0  0  0  0  0  0
  136.3720   78.4320  222.8250 C   0  0  0  0  0  0  0  0  0  0  0  0
  137.3690   79.3690  222.4760 C   0  0  0  0  0  0  0  0  0  0  0  0
  138.6700   78.9390  222.1530 C   0  0  0  0  0  0  0  0  0  0  0  0
  138.9330   77.5690  222.1870 C   0  0  0  0  0  0  0  0  0  0  0  0
  141.9115   74.9479  221.4497 H   0  0  0  0  0  0  0  0  0  0  0  0
  141.2716   73.7513  220.2658 H   0  0  0  0  0  0  0  0  0  0  0  0
  142.6520   71.9226  219.9022 H   0  0  0  0  0  0  0  0  0  0  0  0
  144.9227   70.8904  219.8330 H   0  0  0  0  0  0  0  0  0  0  0  0
  146.9505   72.3009  220.2016 H   0  0  0  0  0  0  0  0  0  0  0  0
  146.7066   74.7465  220.6424 H   0  0  0  0  0  0  0  0  0  0  0  0
  144.4398   75.7848  220.7208 H   0  0  0  0  0  0  0  0  0  0  0  0
  141.6250   78.5061  218.1935 H   0  0  0  0  0  0  0  0  0  0  0  0
  141.9294   80.6439  219.2674 H   0  0  0  0  0  0  0  0  0  0  0  0
  142.2735   81.9801  221.3212 H   0  0  0  0  0  0  0  0  0  0  0  0
  142.4085   82.1690  223.8049 H   0  0  0  0  0  0  0  0  0  0  0  0
  142.1225   80.1416  225.2308 H   0  0  0  0  0  0  0  0  0  0  0  0
  141.6898   77.9239  224.1779 H   0  0  0  0  0  0  0  0  0  0  0  0
  142.2195   76.6596  221.9104 H   0  0  0  0  0  0  0  0  0  0  0  0
  140.4302   74.6588  222.0358 H   0  0  0  0  0  0  0  0  0  0  0  0
  137.9240   74.5270  222.7270 H   0  0  0  0  0  0  0  0  0  0  0  0
  135.8960   76.3197  223.1264 H   0  0  0  0  0  0  0  0  0  0  0  0
  135.3589   78.7800  223.0751 H   0  0  0  0  0  0  0  0  0  0  0  0
  137.1275   80.4420  222.4564 H   0  0  0  0  0  0  0  0  0  0  0  0
  139.4549   79.6606  221.8822 H   0  0  0  0  0  0  0  0  0  0  0  0
  1  2  2  0
  2  3  2  0
  2  4  1  0
  4  5  1  0
  5  6  2  0
  6  7  1  0
  7  8  2  0
  8  9  1  0
  9 10  2  0
  2 11  1  0
 11 12  1  0
 12 13  2  0
 13 14  1  0
 14 15  2  0
 15 16  1  0
 16 17  2  0
 17 18  1  0
 18 19  2  0
 19 20  1  0
 20 21  1  0
 21 22  2  0
 22 23  1  0
 23 24  1  0
 24 25  2  0
 25 26  1  0
 26 27  2  0
 27 28  1  0
 28 29  2  0
 10  5  1  0
 20 11  1  0
 29 21  1  0
 19 14  1  0
 29 24  1  0
  4 30  1  0
  4 31  1  0
  6 32  1  0
  7 33  1  0
  8 34  1  0
  9 35  1  0
 10 36  1  0
 12 37  1  0
 13 38  1  0
 15 39  1  0
 16 40  1  0
 17 41  1  0
 18 42  1  0
 20 43  1  1
 22 44  1  0
 23 45  1  0
 25 46  1  0
 26 47  1  0
 27 48  1  0
 28 49  1  0
M  END
>  <meeko>  (18) 
{"free_energy": -8.18, "intermolecular_energy": -9.38, "internal_energy": -1.67, "cluster_size": 15, "cluster_id": 1, "rank_in_cluster": 3}

$$$$

     RDKit          3D

 49 53  0  0  0  0  0  0  0  0999 V2000
  141.6650   74.5460  220.6500 O   0  0  0  0  0  0  0  0  0  0  0  0
  141.6260   75.5870  219.5680 S   0  0  0  0  0  0  0  0  0  0  0  0
  140.4630   75.2920  218.6620 O   0  0  0  0  0  0  0  0  0  0  0  0
  143.1440   75.5290  218.6310 C   0  0  0  0  0  0  0  0  0  0  0  0
  144.0850   74.5240  219.2340 C   0  0  0  0  0  0  0  0  0  0  0  0
  144.2860   73.2790  218.6150 C   0  0  0  0  0  0  0  0  0  0  0  0
  145.0950   72.3130  219.2200 C   0  0  0  0  0  0  0  0  0  0  0  0
  145.7080   72.5820  220.4470 C   0  0  0  0  0  0  0  0  0  0  0  0
  145.5100   73.8170  221.0720 C   0  0  0  0  0  0  0  0  0  0  0  0
  144.6990   74.7850  220.4710 C   0  0  0  0  0  0  0  0  0  0  0  0
  141.4420   77.1690  220.2690 N   0  0  0  0  0  0  0  0  0  0  0  0
  141.6220   78.3130  219.4170 C   0  0  0  0  0  0  0  0  0  0  0  0
  141.8290   79.5260  219.9210 C   0  0  0  0  0  0  0  0  0  0  0  0
  141.8650   79.7390  221.3750 C   0  0  0  0  0  0  0  0  0  0  0  0
  142.1560   81.0120  221.8860 C   0  0  0  0  0  0  0  0  0  0  0  0
  142.2110   81.2200  223.2670 C   0  0  0  0  0  0  0  0  0  0  0  0
  141.9770   80.1590  224.1430 C   0  0  0  0  0  0  0  0  0  0  0  0
  141.6840   78.8890  223.6420 C   0  0  0  0  0  0  0  0  0  0  0  0
  141.6180   78.6680  222.2550 C   0  0  0  0  0  0  0  0  0  0  0  0
  141.2860   77.2860  221.7300 C   0  0  1  0  0  0  0  0  0  0  0  0
  139.8920   76.8840  222.1410 C   0  0  0  0  0  0  0  0  0  0  0  0
  139.4550   75.5790  222.3580 C   0  0  0  0  0  0  0  0  0  0  0  0
  138.1530   75.5680  222.7220 N   0  0  0  0  0  0  0  0  0  0  0  0
  137.7620   76.8530  222.7430 C   0  0  0  0  0  0  0  0  0  0  0  0
  136.4980   77.3420  223.0690 C   0  0  0  0  0  0  0  0  0  0  0  0
  136.3020   78.7330  223.0360 C   0  0  0  0  0  0  0  0  0  0  0  0
  137.3620   79.5960  222.6830 C   0  0  0  0  0  0  0  0  0  0  0  0
  138.6280   79.0750  222.3590 C   0  0  0  0  0  0  0  0  0  0  0  0
  138.7940   77.6900  222.3960 C   0  0  0  0  0  0  0  0  0  0  0  0
  142.9202   75.2410  217.5932 H   0  0  0  0  0  0  0  0  0  0  0  0
  143.6171   76.5219  218.6501 H   0  0  0  0  0  0  0  0  0  0  0  0
  143.8045   73.0634  217.6498 H   0  0  0  0  0  0  0  0  0  0  0  0
  145.2494   71.3403  218.7301 H   0  0  0  0  0  0  0  0  0  0  0  0
  146.3464   71.8219  220.9211 H   0  0  0  0  0  0  0  0  0  0  0  0
  145.9928   74.0275  222.0377 H   0  0  0  0  0  0  0  0  0  0  0  0
  144.5412   75.7536  220.9679 H   0  0  0  0  0  0  0  0  0  0  0  0
  141.5878   78.1821  218.3254 H   0  0  0  0  0  0  0  0  0  0  0  0
  141.9749   80.3794  219.2424 H   0  0  0  0  0  0  0  0  0  0  0  0
  142.3416   81.8497  221.1977 H   0  0  0  0  0  0  0  0  0  0  0  0
  142.4388   82.2204  223.6636 H   0  0  0  0  0  0  0  0  0  0  0  0
  142.0235   80.3235  225.2296 H   0  0  0  0  0  0  0  0  0  0  0  0
  141.5036   78.0558  224.3371 H   0  0  0  0  0  0  0  0  0  0  0  0
  142.0150   76.5976  222.1825 H   0  0  0  0  0  0  0  0  0  0  0  0
  140.0823   74.6821  222.2484 H   0  0  0  0  0  0  0  0  0  0  0  0
  137.5750   74.7280  222.9450 H   0  0  0  0  0  0  0  0  0  0  0  0
  135.6796   76.6602  223.3435 H   0  0  0  0  0  0  0  0  0  0  0  0
  135.3164   79.1522  223.2868 H   0  0  0  0  0  0  0  0  0  0  0  0
  137.1969   80.6833  222.6611 H   0  0  0  0  0  0  0  0  0  0  0  0
  139.4612   79.7388  222.0850 H   0  0  0  0  0  0  0  0  0  0  0  0
  1  2  2  0
  2  3  2  0
  2  4  1  0
  4  5  1  0
  5  6  2  0
  6  7  1  0
  7  8  2  0
  8  9  1  0
  9 10  2  0
  2 11  1  0
 11 12  1  0
 12 13  2  0
 13 14  1  0
 14 15  2  0
 15 16  1  0
 16 17  2  0
 17 18  1  0
 18 19  2  0
 19 20  1  0
 20 21  1  0
 21 22  2  0
 22 23  1  0
 23 24  1  0
 24 25  2  0
 25 26  1  0
 26 27  2  0
 27 28  1  0
 28 29  2  0
 10  5  1  0
 20 11  1  0
 29 21  1  0
 19 14  1  0
 29 24  1  0
  4 30  1  0
  4 31  1  0
  6 32  1  0
  7 33  1  0
  8 34  1  0
  9 35  1  0
 10 36  1  0
 12 37  1  0
 13 38  1  0
 15 39  1  0
 16 40  1  0
 17 41  1  0
 18 42  1  0
 20 43  1  1
 22 44  1  0
 23 45  1  0
 25 46  1  0
 26 47  1  0
 27 48  1  0
 28 49  1  0
M  END
>  <meeko>  (19) 
{"free_energy": -8.08, "intermolecular_energy": -9.27, "internal_energy": -1.74, "cluster_size": 15, "cluster_id": 1, "rank_in_cluster": 4}

$$$$

     RDKit          3D

 49 53  0  0  0  0  0  0  0  0999 V2000
  140.9350   75.3920  218.5610 O   0  0  0  0  0  0  0  0  0  0  0  0
  142.0670   75.9070  219.4040 S   0  0  0  0  0  0  0  0  0  0  0  0
  143.2910   76.0290  218.5400 O   0  0  0  0  0  0  0  0  0  0  0  0
  142.3860   74.7610  220.7350 C   0  0  0  0  0  0  0  0  0  0  0  0
  143.6290   73.9670  220.4460 C   0  0  0  0  0  0  0  0  0  0  0  0
  143.5340   72.6410  219.9920 C   0  0  0  0  0  0  0  0  0  0  0  0
  144.6900   71.8760  219.8040 C   0  0  0  0  0  0  0  0  0  0  0  0
  145.9460   72.4280  220.0680 C   0  0  0  0  0  0  0  0  0  0  0  0
  146.0480   73.7460  220.5240 C   0  0  0  0  0  0  0  0  0  0  0  0
  144.8950   74.5130  220.7160 C   0  0  0  0  0  0  0  0  0  0  0  0
  141.6560   77.4610  220.0700 N   0  0  0  0  0  0  0  0  0  0  0  0
  141.6940   78.6030  219.1980 C   0  0  0  0  0  0  0  0  0  0  0  0
  141.7240   79.8420  219.6810 C   0  0  0  0  0  0  0  0  0  0  0  0
  141.7040   80.0850  221.1300 C   0  0  0  0  0  0  0  0  0  0  0  0
  141.8100   81.3950  221.6200 C   0  0  0  0  0  0  0  0  0  0  0  0
  141.8110   81.6320  222.9960 C   0  0  0  0  0  0  0  0  0  0  0  0
  141.7070   80.5650  223.8910 C   0  0  0  0  0  0  0  0  0  0  0  0
  141.5990   79.2580  223.4110 C   0  0  0  0  0  0  0  0  0  0  0  0
  141.5900   79.0060  222.0280 C   0  0  0  0  0  0  0  0  0  0  0  0
  141.4590   77.5820  221.5260 C   0  0  1  0  0  0  0  0  0  0  0  0
  140.1260   77.0010  221.9230 C   0  0  0  0  0  0  0  0  0  0  0  0
  139.8690   75.6540  222.1680 C   0  0  0  0  0  0  0  0  0  0  0  0
  138.5740   75.4710  222.5090 N   0  0  0  0  0  0  0  0  0  0  0  0
  138.0080   76.6890  222.4880 C   0  0  0  0  0  0  0  0  0  0  0  0
  136.6820   77.0060  222.7780 C   0  0  0  0  0  0  0  0  0  0  0  0
  136.2960   78.3560  222.7030 C   0  0  0  0  0  0  0  0  0  0  0  0
  137.2340   79.3480  222.3460 C   0  0  0  0  0  0  0  0  0  0  0  0
  138.5660   79.0000  222.0590 C   0  0  0  0  0  0  0  0  0  0  0  0
  138.9220   77.6530  222.1360 C   0  0  0  0  0  0  0  0  0  0  0  0
  142.5214   75.3206  221.6723 H   0  0  0  0  0  0  0  0  0  0  0  0
  141.5331   74.0729  220.8299 H   0  0  0  0  0  0  0  0  0  0  0  0
  142.5469   72.2026  219.7836 H   0  0  0  0  0  0  0  0  0  0  0  0
  144.6100   70.8383  219.4478 H   0  0  0  0  0  0  0  0  0  0  0  0
  146.8543   71.8261  219.9172 H   0  0  0  0  0  0  0  0  0  0  0  0
  147.0371   74.1800  220.7320 H   0  0  0  0  0  0  0  0  0  0  0  0
  144.9794   75.5477  221.0798 H   0  0  0  0  0  0  0  0  0  0  0  0
  141.6984   78.4492  218.1088 H   0  0  0  0  0  0  0  0  0  0  0  0
  141.7643   80.6948  218.9874 H   0  0  0  0  0  0  0  0  0  0  0  0
  141.8926   82.2380  220.9182 H   0  0  0  0  0  0  0  0  0  0  0  0
  141.8939   82.6610  223.3758 H   0  0  0  0  0  0  0  0  0  0  0  0
  141.7102   80.7541  224.9746 H   0  0  0  0  0  0  0  0  0  0  0  0
  141.5205   78.4203  224.1196 H   0  0  0  0  0  0  0  0  0  0  0  0
  142.2666   77.0081  222.0038 H   0  0  0  0  0  0  0  0  0  0  0  0
  140.6166   74.8504  222.0942 H   0  0  0  0  0  0  0  0  0  0  0  0
  138.1120   74.5650  222.7450 H   0  0  0  0  0  0  0  0  0  0  0  0
  135.9600   76.2244  223.0569 H   0  0  0  0  0  0  0  0  0  0  0  0
  135.2567   78.6405  222.9239 H   0  0  0  0  0  0  0  0  0  0  0  0
  136.9210   80.4011  222.2918 H   0  0  0  0  0  0  0  0  0  0  0  0
  139.3049   79.7665  221.7822 H   0  0  0  0  0  0  0  0  0  0  0  0
  1  2  2  0
  2  3  2  0
  2  4  1  0
  4  5  1  0
  5  6  2  0
  6  7  1  0
  7  8  2  0
  8  9  1  0
  9 10  2  0
  2 11  1  0
 11 12  1  0
 12 13  2  0
 13 14  1  0
 14 15  2  0
 15 16  1  0
 16 17  2  0
 17 18  1  0
 18 19  2  0
 19 20  1  0
 20 21  1  0
 21 22  2  0
 22 23  1  0
 23 24  1  0
 24 25  2  0
 25 26  1  0
 26 27  2  0
 27 28  1  0
 28 29  2  0
 10  5  1  0
 20 11  1  0
 29 21  1  0
 19 14  1  0
 29 24  1  0
  4 30  1  0
  4 31  1  0
  6 32  1  0
  7 33  1  0
  8 34  1  0
  9 35  1  0
 10 36  1  0
 12 37  1  0
 13 38  1  0
 15 39  1  0
 16 40  1  0
 17 41  1  0
 18 42  1  0
 20 43  1  1
 22 44  1  0
 23 45  1  0
 25 46  1  0
 26 47  1  0
 27 48  1  0
 28 49  1  0
M  END
>  <meeko>  (20) 
{"free_energy": -8.27, "intermolecular_energy": -9.46, "internal_energy": -1.59, "cluster_size": 15, "cluster_id": 1, "rank_in_cluster": 1}

$$$$
