untitled_line_8
     RDKit          3D

 49 52  0  0  0  0  0  0  0  0999 V2000
   -1.1719   -3.5447    0.2497 H   0  0  0  0  0  0  0  0  0  0  0  0
   -0.4905   -3.1656   -0.5028 C   0  0  0  0  0  0  0  0  0  0  0  0
    0.0072   -1.9257   -0.3740 C   0  0  0  0  0  0  0  0  0  0  0  0
    0.7341   -1.5940   -1.0929 H   0  0  0  0  0  0  0  0  0  0  0  0
   -0.4160   -1.0125    0.7269 C   0  0  0  0  0  0  0  0  0  0  0  0
   -1.5317   -1.3524    1.4278 N   0  0  0  0  0  0  0  0  0  0  0  0
   -2.0067   -0.6002    2.4441 C   0  0  0  0  0  0  0  0  0  0  0  0
   -3.1629   -0.9953    3.1274 C   0  0  0  0  0  0  0  0  0  0  0  0
   -3.6849   -1.9001    2.8411 H   0  0  0  0  0  0  0  0  0  0  0  0
   -3.6480   -0.2221    4.1855 C   0  0  0  0  0  0  0  0  0  0  0  0
   -4.5421   -0.5278    4.7132 H   0  0  0  0  0  0  0  0  0  0  0  0
   -2.9785    0.9447    4.5639 C   0  0  0  0  0  0  0  0  0  0  0  0
   -3.3556    1.5414    5.3845 H   0  0  0  0  0  0  0  0  0  0  0  0
   -1.8222    1.3426    3.8851 C   0  0  0  0  0  0  0  0  0  0  0  0
   -1.3206    2.2508    4.1960 H   0  0  0  0  0  0  0  0  0  0  0  0
   -1.3295    0.5696    2.8151 C   0  0  0  0  0  0  0  0  0  0  0  0
   -0.1724    0.9221    2.1016 C   0  0  0  0  0  0  0  0  0  0  0  0
    0.4745    1.9482    2.4550 O   0  0  0  0  0  0  0  0  0  0  0  0
    0.2634    0.1539    1.0418 N   0  0  0  0  0  0  0  0  0  0  0  0
    1.4875    0.5736    0.3114 C   0  0  0  0  0  0  0  0  0  0  0  0
    2.0598   -0.2991   -0.0590 H   0  0  0  0  0  0  0  0  0  0  0  0
    2.2108    1.0403    1.0160 H   0  0  0  0  0  0  0  0  0  0  0  0
    1.2207    1.5699   -0.8521 C   0  0  0  0  0  0  0  0  0  0  0  0
    2.2036    1.6980   -1.3604 H   0  0  0  0  0  0  0  0  0  0  0  0
    0.7978    2.9675   -0.3615 C   0  0  0  0  0  0  0  0  0  0  0  0
    1.4861    3.3208    0.4366 H   0  0  0  0  0  0  0  0  0  0  0  0
   -0.2276    2.9103    0.0651 H   0  0  0  0  0  0  0  0  0  0  0  0
    0.8024    4.0011   -1.5086 C   0  0  0  0  0  0  0  0  0  0  0  0
    0.0149    4.7600   -1.3078 H   0  0  0  0  0  0  0  0  0  0  0  0
    1.7778    4.5348   -1.5208 H   0  0  0  0  0  0  0  0  0  0  0  0
    0.5687    3.3794   -2.8995 C   0  0  0  0  0  0  0  0  0  0  0  0
    1.5426    3.0713   -3.3399 H   0  0  0  0  0  0  0  0  0  0  0  0
    0.1222    4.1405   -3.5752 H   0  0  0  0  0  0  0  0  0  0  0  0
   -0.3520    2.1581   -2.8224 C   0  0  0  0  0  0  0  0  0  0  0  0
   -1.3397    2.4841   -2.4272 H   0  0  0  0  0  0  0  0  0  0  0  0
   -0.5198    1.7553   -3.8447 H   0  0  0  0  0  0  0  0  0  0  0  0
    0.2224    1.0462   -1.9168 C   0  0  0  0  0  0  0  0  0  0  0  0
    0.7402    0.2945   -2.5514 H   0  0  0  0  0  0  0  0  0  0  0  0
   -0.6408    0.5475   -1.4331 H   0  0  0  0  0  0  0  0  0  0  0  0
   -0.1103   -4.0924   -1.5967 C   0  0  0  0  0  0  0  0  0  0  0  0
    0.3775   -3.6450   -2.8407 C   0  0  0  0  0  0  0  0  0  0  0  0
    0.4837   -2.5915   -3.0571 H   0  0  0  0  0  0  0  0  0  0  0  0
    0.6955   -4.5403   -3.8138 N   0  0  0  0  0  0  0  0  0  0  0  0
    0.5537   -5.8790   -3.6305 C   0  0  0  0  0  0  0  0  0  0  0  0
    0.8186   -6.5624   -4.4262 H   0  0  0  0  0  0  0  0  0  0  0  0
    0.0582   -6.3691   -2.4225 C   0  0  0  0  0  0  0  0  0  0  0  0
   -0.0641   -7.4342   -2.2741 H   0  0  0  0  0  0  0  0  0  0  0  0
   -0.2797   -5.4724   -1.4077 C   0  0  0  0  0  0  0  0  0  0  0  0
   -0.6648   -5.8564   -0.4708 H   0  0  0  0  0  0  0  0  0  0  0  0
  1  2  1  0
  2  3  2  0
  3  4  1  0
  3  5  1  0
  5  6  2  0
  6  7  1  0
  7  8  2  0
  8  9  1  0
  8 10  1  0
 10 11  1  0
 10 12  2  0
 12 13  1  0
 12 14  1  0
 14 15  1  0
 14 16  2  0
 16 17  1  0
 17 18  2  0
 17 19  1  0
 19 20  1  0
 20 21  1  0
 20 22  1  0
 20 23  1  0
 23 24  1  0
 23 25  1  0
 25 26  1  0
 25 27  1  0
 25 28  1  0
 28 29  1  0
 28 30  1  0
 28 31  1  0
 31 32  1  0
 31 33  1  0
 31 34  1  0
 34 35  1  0
 34 36  1  0
 34 37  1  0
 37 38  1  0
 37 39  1  0
  2 40  1  0
 40 41  2  0
 41 42  1  0
 41 43  1  0
 43 44  2  0
 44 45  1  0
 44 46  1  0
 46 47  1  0
 46 48  2  0
 48 49  1  0
 19  5  1  0
 37 23  1  0
 48 40  1  0
 16  7  1  0
M  END
>  <UniqueID>  (1) 
23

>  <SMILES>  (1) 
O=c1c2ccccc2nc(/C=C/c2cccnc2)n1CC1CCCCC1

>  <Energy>  (1) 
70.05533420945649

>  <Genealogy>  (1) 
O=c1c2ccccc2nc(/C=C/c2cccnc2)n1CC1CCCCC1 (cis-trans isomerization)
O=c1c2ccccc2nc(/C=C/c2cccnc2)n1CC1CCCCC1 (3D coordinates assigned)
O=c1c2ccccc2nc(/C=C/c2cccnc2)n1CC1CCCCC1 (nonaromatic ring conformer: 70.05533420945649 kcal/mol)

$$$$
untitled_line_8
     RDKit          3D

 49 52  0  0  0  0  0  0  0  0999 V2000
   -1.6656   -2.6332   -0.6842 H   0  0  0  0  0  0  0  0  0  0  0  0
   -0.5973   -2.8071   -0.7654 C   0  0  0  0  0  0  0  0  0  0  0  0
    0.2378   -2.0666   -0.0245 C   0  0  0  0  0  0  0  0  0  0  0  0
    1.3005   -2.1799   -0.1573 H   0  0  0  0  0  0  0  0  0  0  0  0
   -0.2768   -1.0735    0.9510 C   0  0  0  0  0  0  0  0  0  0  0  0
   -1.3951   -1.4061    1.6462 N   0  0  0  0  0  0  0  0  0  0  0  0
   -1.9239   -0.5993    2.5938 C   0  0  0  0  0  0  0  0  0  0  0  0
   -3.0761   -0.9900    3.2868 C   0  0  0  0  0  0  0  0  0  0  0  0
   -3.5589   -1.9307    3.0565 H   0  0  0  0  0  0  0  0  0  0  0  0
   -3.6076   -0.1647    4.2815 C   0  0  0  0  0  0  0  0  0  0  0  0
   -4.5018   -0.4651    4.8121 H   0  0  0  0  0  0  0  0  0  0  0  0
   -2.9848    1.0482    4.5914 C   0  0  0  0  0  0  0  0  0  0  0  0
   -3.3981    1.6847    5.3631 H   0  0  0  0  0  0  0  0  0  0  0  0
   -1.8312    1.4422    3.9046 C   0  0  0  0  0  0  0  0  0  0  0  0
   -1.3684    2.3865    4.1609 H   0  0  0  0  0  0  0  0  0  0  0  0
   -1.2937    0.6172    2.8972 C   0  0  0  0  0  0  0  0  0  0  0  0
   -0.1382    0.9651    2.1781 C   0  0  0  0  0  0  0  0  0  0  0  0
    0.4571    2.0431    2.4587 O   0  0  0  0  0  0  0  0  0  0  0  0
    0.3473    0.1407    1.1847 N   0  0  0  0  0  0  0  0  0  0  0  0
    1.5174    0.5885    0.3860 C   0  0  0  0  0  0  0  0  0  0  0  0
    2.2075    1.1878    1.0192 H   0  0  0  0  0  0  0  0  0  0  0  0
    2.1535   -0.2594    0.0751 H   0  0  0  0  0  0  0  0  0  0  0  0
    1.1411    1.4245   -0.8657 C   0  0  0  0  0  0  0  0  0  0  0  0
    2.1068    1.6393   -1.3744 H   0  0  0  0  0  0  0  0  0  0  0  0
    0.5087    2.7845   -0.5191 C   0  0  0  0  0  0  0  0  0  0  0  0
    1.1309    3.3123    0.2354 H   0  0  0  0  0  0  0  0  0  0  0  0
   -0.4996    2.6186   -0.0801 H   0  0  0  0  0  0  0  0  0  0  0  0
    0.3685    3.6891   -1.7638 C   0  0  0  0  0  0  0  0  0  0  0  0
   -0.5754    4.2701   -1.6793 H   0  0  0  0  0  0  0  0  0  0  0  0
    1.2030    4.4222   -1.7829 H   0  0  0  0  0  0  0  0  0  0  0  0
    0.3666    2.9159   -3.0960 C   0  0  0  0  0  0  0  0  0  0  0  0
   -0.1284    3.5315   -3.8788 H   0  0  0  0  0  0  0  0  0  0  0  0
    1.4113    2.7342   -3.4274 H   0  0  0  0  0  0  0  0  0  0  0  0
   -0.3593    1.5738   -2.9661 C   0  0  0  0  0  0  0  0  0  0  0  0
   -1.4267    1.7760   -2.7222 H   0  0  0  0  0  0  0  0  0  0  0  0
   -0.3393    1.0470   -3.9449 H   0  0  0  0  0  0  0  0  0  0  0  0
    0.2514    0.6629   -1.8760 C   0  0  0  0  0  0  0  0  0  0  0  0
    0.8568   -0.1355   -2.3557 H   0  0  0  0  0  0  0  0  0  0  0  0
   -0.5958    0.1767   -1.3545 H   0  0  0  0  0  0  0  0  0  0  0  0
   -0.1400   -3.7954   -1.7700 C   0  0  0  0  0  0  0  0  0  0  0  0
    1.1052   -4.4467   -1.6800 C   0  0  0  0  0  0  0  0  0  0  0  0
    1.7789   -4.2551   -0.8581 H   0  0  0  0  0  0  0  0  0  0  0  0
    1.4701   -5.3614   -2.6177 N   0  0  0  0  0  0  0  0  0  0  0  0
    0.6608   -5.6777   -3.6618 C   0  0  0  0  0  0  0  0  0  0  0  0
    0.9815   -6.4134   -4.3876 H   0  0  0  0  0  0  0  0  0  0  0  0
   -0.5885   -5.0703   -3.7849 C   0  0  0  0  0  0  0  0  0  0  0  0
   -1.2428   -5.3296   -4.6056 H   0  0  0  0  0  0  0  0  0  0  0  0
   -0.9901   -4.1317   -2.8334 C   0  0  0  0  0  0  0  0  0  0  0  0
   -1.9638   -3.6685   -2.9259 H   0  0  0  0  0  0  0  0  0  0  0  0
  1  2  1  0
  2  3  2  0
  3  4  1  0
  3  5  1  0
  5  6  2  0
  6  7  1  0
  7  8  2  0
  8  9  1  0
  8 10  1  0
 10 11  1  0
 10 12  2  0
 12 13  1  0
 12 14  1  0
 14 15  1  0
 14 16  2  0
 16 17  1  0
 17 18  2  0
 17 19  1  0
 19 20  1  0
 20 21  1  0
 20 22  1  0
 20 23  1  0
 23 24  1  0
 23 25  1  0
 25 26  1  0
 25 27  1  0
 25 28  1  0
 28 29  1  0
 28 30  1  0
 28 31  1  0
 31 32  1  0
 31 33  1  0
 31 34  1  0
 34 35  1  0
 34 36  1  0
 34 37  1  0
 37 38  1  0
 37 39  1  0
  2 40  1  0
 40 41  2  0
 41 42  1  0
 41 43  1  0
 43 44  2  0
 44 45  1  0
 44 46  1  0
 46 47  1  0
 46 48  2  0
 48 49  1  0
 19  5  1  0
 37 23  1  0
 48 40  1  0
 16  7  1  0
M  END
>  <UniqueID>  (2) 
24

>  <SMILES>  (2) 
O=c1c2ccccc2nc(/C=C/c2cccnc2)n1CC1CCCCC1

>  <Energy>  (2) 
70.69643245316239

>  <Genealogy>  (2) 
O=c1c2ccccc2nc(/C=C/c2cccnc2)n1CC1CCCCC1 (cis-trans isomerization)
O=c1c2ccccc2nc(/C=C/c2cccnc2)n1CC1CCCCC1 (3D coordinates assigned)
O=c1c2ccccc2nc(/C=C/c2cccnc2)n1CC1CCCCC1 (nonaromatic ring conformer: 70.69643245316239 kcal/mol)

$$$$
untitled_line_8
     RDKit          3D

 49 52  0  0  0  0  0  0  0  0999 V2000
   -1.0234   -3.5013    0.2099 H   0  0  0  0  0  0  0  0  0  0  0  0
   -0.3422   -3.1449   -0.5536 C   0  0  0  0  0  0  0  0  0  0  0  0
    0.1382   -1.8935   -0.4756 C   0  0  0  0  0  0  0  0  0  0  0  0
    0.7604   -1.5393   -1.2767 H   0  0  0  0  0  0  0  0  0  0  0  0
   -0.2164   -0.9743    0.6451 C   0  0  0  0  0  0  0  0  0  0  0  0
   -1.2309   -1.3529    1.4691 N   0  0  0  0  0  0  0  0  0  0  0  0
   -1.6351   -0.6002    2.5148 C   0  0  0  0  0  0  0  0  0  0  0  0
   -2.6908   -1.0351    3.3248 C   0  0  0  0  0  0  0  0  0  0  0  0
   -3.1923   -1.9716    3.1134 H   0  0  0  0  0  0  0  0  0  0  0  0
   -3.1018   -0.2606    4.4129 C   0  0  0  0  0  0  0  0  0  0  0  0
   -3.9185   -0.5970    5.0385 H   0  0  0  0  0  0  0  0  0  0  0  0
   -2.4579    0.9471    4.6950 C   0  0  0  0  0  0  0  0  0  0  0  0
   -2.7774    1.5449    5.5389 H   0  0  0  0  0  0  0  0  0  0  0  0
   -1.4015    1.3846    3.8896 C   0  0  0  0  0  0  0  0  0  0  0  0
   -0.9181    2.3242    4.1274 H   0  0  0  0  0  0  0  0  0  0  0  0
   -0.9843    0.6103    2.7888 C   0  0  0  0  0  0  0  0  0  0  0  0
    0.0716    1.0018    1.9499 C   0  0  0  0  0  0  0  0  0  0  0  0
    0.6998    2.0641    2.2163 O   0  0  0  0  0  0  0  0  0  0  0  0
    0.4296    0.2333    0.8617 N   0  0  0  0  0  0  0  0  0  0  0  0
    1.5388    0.6984   -0.0118 C   0  0  0  0  0  0  0  0  0  0  0  0
    2.3092    1.2255    0.5927 H   0  0  0  0  0  0  0  0  0  0  0  0
    2.1182   -0.1563   -0.4124 H   0  0  0  0  0  0  0  0  0  0  0  0
    1.0872    1.6277   -1.1792 C   0  0  0  0  0  0  0  0  0  0  0  0
    1.9616    1.6704   -1.8679 H   0  0  0  0  0  0  0  0  0  0  0  0
   -0.0887    1.0572   -2.0169 C   0  0  0  0  0  0  0  0  0  0  0  0
    0.2846    0.2553   -2.6891 H   0  0  0  0  0  0  0  0  0  0  0  0
   -0.8764    0.6276   -1.3654 H   0  0  0  0  0  0  0  0  0  0  0  0
   -0.7460    2.1494   -2.8669 C   0  0  0  0  0  0  0  0  0  0  0  0
   -1.5347    1.6991   -3.5077 H   0  0  0  0  0  0  0  0  0  0  0  0
    0.0197    2.5941   -3.5403 H   0  0  0  0  0  0  0  0  0  0  0  0
   -1.3664    3.2549   -1.9879 C   0  0  0  0  0  0  0  0  0  0  0  0
   -1.3365    4.2141   -2.5492 H   0  0  0  0  0  0  0  0  0  0  0  0
   -2.4356    3.0174   -1.7962 H   0  0  0  0  0  0  0  0  0  0  0  0
   -0.6521    3.4326   -0.6330 C   0  0  0  0  0  0  0  0  0  0  0  0
   -0.7763    4.4801   -0.2831 H   0  0  0  0  0  0  0  0  0  0  0  0
   -1.1255    2.7700    0.1227 H   0  0  0  0  0  0  0  0  0  0  0  0
    0.8410    3.0987   -0.7369 C   0  0  0  0  0  0  0  0  0  0  0  0
    1.2883    3.7824   -1.4930 H   0  0  0  0  0  0  0  0  0  0  0  0
    1.3542    3.3369    0.2159 H   0  0  0  0  0  0  0  0  0  0  0  0
   -0.0342   -4.0764   -1.6667 C   0  0  0  0  0  0  0  0  0  0  0  0
   -0.9015   -5.1538   -1.9096 C   0  0  0  0  0  0  0  0  0  0  0  0
   -1.7887   -5.2919   -1.3044 H   0  0  0  0  0  0  0  0  0  0  0  0
   -0.6449   -6.0325   -2.9152 N   0  0  0  0  0  0  0  0  0  0  0  0
    0.4510   -5.9111   -3.7086 C   0  0  0  0  0  0  0  0  0  0  0  0
    0.6256   -6.6288   -4.4990 H   0  0  0  0  0  0  0  0  0  0  0  0
    1.3529   -4.8683   -3.4980 C   0  0  0  0  0  0  0  0  0  0  0  0
    2.2345   -4.7758   -4.1191 H   0  0  0  0  0  0  0  0  0  0  0  0
    1.1139   -3.9515   -2.4726 C   0  0  0  0  0  0  0  0  0  0  0  0
    1.8414   -3.1698   -2.3040 H   0  0  0  0  0  0  0  0  0  0  0  0
  1  2  1  0
  2  3  2  0
  3  4  1  0
  3  5  1  0
  5  6  2  0
  6  7  1  0
  7  8  2  0
  8  9  1  0
  8 10  1  0
 10 11  1  0
 10 12  2  0
 12 13  1  0
 12 14  1  0
 14 15  1  0
 14 16  2  0
 16 17  1  0
 17 18  2  0
 17 19  1  0
 19 20  1  0
 20 21  1  0
 20 22  1  0
 20 23  1  0
 23 24  1  0
 23 25  1  0
 25 26  1  0
 25 27  1  0
 25 28  1  0
 28 29  1  0
 28 30  1  0
 28 31  1  0
 31 32  1  0
 31 33  1  0
 31 34  1  0
 34 35  1  0
 34 36  1  0
 34 37  1  0
 37 38  1  0
 37 39  1  0
  2 40  1  0
 40 41  2  0
 41 42  1  0
 41 43  1  0
 43 44  2  0
 44 45  1  0
 44 46  1  0
 46 47  1  0
 46 48  2  0
 48 49  1  0
 19  5  1  0
 37 23  1  0
 48 40  1  0
 16  7  1  0
M  END
>  <UniqueID>  (3) 
25

>  <SMILES>  (3) 
O=c1c2ccccc2nc(/C=C/c2cccnc2)n1CC1CCCCC1

>  <Energy>  (3) 
71.05528361611864

>  <Genealogy>  (3) 
O=c1c2ccccc2nc(/C=C/c2cccnc2)n1CC1CCCCC1 (cis-trans isomerization)
O=c1c2ccccc2nc(/C=C/c2cccnc2)n1CC1CCCCC1 (3D coordinates assigned)
O=c1c2ccccc2nc(/C=C/c2cccnc2)n1CC1CCCCC1 (nonaromatic ring conformer: 71.05528361611864 kcal/mol)

$$$$
untitled_line_8
     RDKit          3D

 49 52  0  0  0  0  0  0  0  0999 V2000
   -0.2803   -3.5416    0.4678 H   0  0  0  0  0  0  0  0  0  0  0  0
   -0.3156   -3.1481   -0.5411 C   0  0  0  0  0  0  0  0  0  0  0  0
   -0.6222   -1.8551   -0.7337 C   0  0  0  0  0  0  0  0  0  0  0  0
   -0.5878   -1.4708   -1.7364 H   0  0  0  0  0  0  0  0  0  0  0  0
   -0.9413   -0.9368    0.3984 C   0  0  0  0  0  0  0  0  0  0  0  0
   -0.6851   -1.3825    1.6583 N   0  0  0  0  0  0  0  0  0  0  0  0
   -0.9353   -0.6371    2.7561 C   0  0  0  0  0  0  0  0  0  0  0  0
   -0.6434   -1.1433    4.0283 C   0  0  0  0  0  0  0  0  0  0  0  0
   -0.2100   -2.1298    4.1381 H   0  0  0  0  0  0  0  0  0  0  0  0
   -0.9122   -0.3754    5.1645 C   0  0  0  0  0  0  0  0  0  0  0  0
   -0.6859   -0.7669    6.1478 H   0  0  0  0  0  0  0  0  0  0  0  0
   -1.4748    0.8969    5.0321 C   0  0  0  0  0  0  0  0  0  0  0  0
   -1.6830    1.4894    5.9137 H   0  0  0  0  0  0  0  0  0  0  0  0
   -1.7698    1.4058    3.7632 C   0  0  0  0  0  0  0  0  0  0  0  0
   -2.2049    2.3945    3.6854 H   0  0  0  0  0  0  0  0  0  0  0  0
   -1.4981    0.6383    2.6132 C   0  0  0  0  0  0  0  0  0  0  0  0
   -1.7765    1.1002    1.3166 C   0  0  0  0  0  0  0  0  0  0  0  0
   -2.3311    2.2259    1.1767 O   0  0  0  0  0  0  0  0  0  0  0  0
   -1.4655    0.3334    0.2130 N   0  0  0  0  0  0  0  0  0  0  0  0
   -1.7574    0.8726   -1.1411 C   0  0  0  0  0  0  0  0  0  0  0  0
   -2.0492    0.0641   -1.8397 H   0  0  0  0  0  0  0  0  0  0  0  0
   -2.6816    1.4907   -1.1179 H   0  0  0  0  0  0  0  0  0  0  0  0
   -0.5995    1.7149   -1.7576 C   0  0  0  0  0  0  0  0  0  0  0  0
   -0.8604    1.8176   -2.8356 H   0  0  0  0  0  0  0  0  0  0  0  0
    0.7816    1.0073   -1.7180 C   0  0  0  0  0  0  0  0  0  0  0  0
    0.9603    0.5269   -0.7348 H   0  0  0  0  0  0  0  0  0  0  0  0
    0.8230    0.2223   -2.5031 H   0  0  0  0  0  0  0  0  0  0  0  0
    1.9225    2.0026   -1.9528 C   0  0  0  0  0  0  0  0  0  0  0  0
    1.7759    2.4953   -2.9394 H   0  0  0  0  0  0  0  0  0  0  0  0
    2.8907    1.4580   -1.9909 H   0  0  0  0  0  0  0  0  0  0  0  0
    1.9776    3.0731   -0.8434 C   0  0  0  0  0  0  0  0  0  0  0  0
    2.6771    2.7416   -0.0453 H   0  0  0  0  0  0  0  0  0  0  0  0
    2.3894    4.0114   -1.2748 H   0  0  0  0  0  0  0  0  0  0  0  0
    0.6048    3.3633   -0.2040 C   0  0  0  0  0  0  0  0  0  0  0  0
    0.4507    2.6845    0.6617 H   0  0  0  0  0  0  0  0  0  0  0  0
    0.5887    4.4054    0.1819 H   0  0  0  0  0  0  0  0  0  0  0  0
   -0.5359    3.1699   -1.2105 C   0  0  0  0  0  0  0  0  0  0  0  0
   -0.3590    3.8673   -2.0598 H   0  0  0  0  0  0  0  0  0  0  0  0
   -1.4990    3.4876   -0.7639 H   0  0  0  0  0  0  0  0  0  0  0  0
    0.0344   -4.0829   -1.6390 C   0  0  0  0  0  0  0  0  0  0  0  0
   -0.3671   -3.8794   -2.9744 C   0  0  0  0  0  0  0  0  0  0  0  0
   -0.9694   -3.0283   -3.2575 H   0  0  0  0  0  0  0  0  0  0  0  0
   -0.0271   -4.7785   -3.9365 N   0  0  0  0  0  0  0  0  0  0  0  0
    0.6973   -5.8923   -3.6533 C   0  0  0  0  0  0  0  0  0  0  0  0
    0.9513   -6.5849   -4.4446 H   0  0  0  0  0  0  0  0  0  0  0  0
    1.1035   -6.1459   -2.3436 C   0  0  0  0  0  0  0  0  0  0  0  0
    1.6746   -7.0354   -2.1113 H   0  0  0  0  0  0  0  0  0  0  0  0
    0.7655   -5.2417   -1.3356 C   0  0  0  0  0  0  0  0  0  0  0  0
    1.0830   -5.4419   -0.3194 H   0  0  0  0  0  0  0  0  0  0  0  0
  1  2  1  0
  2  3  2  0
  3  4  1  0
  3  5  1  0
  5  6  2  0
  6  7  1  0
  7  8  2  0
  8  9  1  0
  8 10  1  0
 10 11  1  0
 10 12  2  0
 12 13  1  0
 12 14  1  0
 14 15  1  0
 14 16  2  0
 16 17  1  0
 17 18  2  0
 17 19  1  0
 19 20  1  0
 20 21  1  0
 20 22  1  0
 20 23  1  0
 23 24  1  0
 23 25  1  0
 25 26  1  0
 25 27  1  0
 25 28  1  0
 28 29  1  0
 28 30  1  0
 28 31  1  0
 31 32  1  0
 31 33  1  0
 31 34  1  0
 34 35  1  0
 34 36  1  0
 34 37  1  0
 37 38  1  0
 37 39  1  0
  2 40  1  0
 40 41  2  0
 41 42  1  0
 41 43  1  0
 43 44  2  0
 44 45  1  0
 44 46  1  0
 46 47  1  0
 46 48  2  0
 48 49  1  0
 19  5  1  0
 37 23  1  0
 48 40  1  0
 16  7  1  0
M  END
>  <UniqueID>  (4) 
26

>  <SMILES>  (4) 
O=c1c2ccccc2nc(/C=C/c2cccnc2)n1CC1CCCCC1

>  <Energy>  (4) 
71.09463192604825

>  <Genealogy>  (4) 
O=c1c2ccccc2nc(/C=C/c2cccnc2)n1CC1CCCCC1 (cis-trans isomerization)
O=c1c2ccccc2nc(/C=C/c2cccnc2)n1CC1CCCCC1 (3D coordinates assigned)
O=c1c2ccccc2nc(/C=C/c2cccnc2)n1CC1CCCCC1 (nonaromatic ring conformer: 71.09463192604825 kcal/mol)

$$$$
