untitled_line_12
     RDKit          3D

 59 64  0  0  0  0  0  0  0  0999 V2000
   -2.3154    2.7943    6.1760 N   0  0  0  0  0  0  0  0  0  0  0  0
   -1.6929    1.7620    6.9391 C   0  0  0  0  0  0  0  0  0  0  0  0
   -1.8362    1.7531    8.1915 O   0  0  0  0  0  0  0  0  0  0  0  0
   -0.8883    0.7134    6.2711 C   0  0  0  0  0  0  0  0  0  0  0  0
   -0.2700   -0.3133    7.0364 C   0  0  0  0  0  0  0  0  0  0  0  0
    0.4960   -1.3151    6.4139 C   0  0  0  0  0  0  0  0  0  0  0  0
    0.6291   -1.2669    5.0304 C   0  0  0  0  0  0  0  0  0  0  0  0
    1.3025   -2.1018    4.1657 C   0  0  0  0  0  0  0  0  0  0  0  0
    1.0856   -1.5582    2.9009 C   0  0  0  0  0  0  0  0  0  0  0  0
    1.5969   -2.1225    1.6393 C   0  0  0  0  0  0  0  0  0  0  0  0
    2.0122   -3.3120    1.6158 O   0  0  0  0  0  0  0  0  0  0  0  0
    1.5813   -1.3591    0.4256 N   0  0  0  0  0  0  0  0  0  0  0  0
    1.1409   -1.8875   -0.8634 C   0  0  0  0  0  0  0  0  0  0  0  0
    1.2144   -0.6803   -1.8632 C   0  0  1  0  0  0  0  0  0  0  0  0
    1.9856   -1.0255   -3.1270 C   0  0  0  0  0  0  0  0  0  0  0  0
    0.9139   -1.6033   -4.0290 C   0  0  0  0  0  0  0  0  0  0  0  0
   -0.3490   -0.9067   -3.7154 N   0  0  0  0  0  0  0  0  0  0  0  0
   -1.5206   -1.8153   -3.7604 C   0  0  2  0  0  0  0  0  0  0  0  0
   -1.6898   -2.4602   -5.1265 C   0  0  0  0  0  0  0  0  0  0  0  0
   -3.1817   -2.7046   -5.2449 C   0  0  0  0  0  0  0  0  0  0  0  0
   -3.8620   -1.7301   -4.3865 N   0  0  0  0  0  0  0  0  0  0  0  0
   -2.8375   -1.0577   -3.5790 C   0  0  0  0  0  0  0  0  0  0  0  0
   -0.1687   -0.2763   -2.3911 C   0  0  0  0  0  0  0  0  0  0  0  0
    1.8615    0.3996   -1.0404 C   0  0  0  0  0  0  0  0  0  0  0  0
    2.2557    1.6836   -1.4361 C   0  0  0  0  0  0  0  0  0  0  0  0
    2.8733    2.5194   -0.4931 C   0  0  0  0  0  0  0  0  0  0  0  0
    3.0947    2.0640    0.8193 C   0  0  0  0  0  0  0  0  0  0  0  0
    2.6881    0.7757    1.1984 C   0  0  0  0  0  0  0  0  0  0  0  0
    2.0477   -0.0297    0.2487 C   0  0  0  0  0  0  0  0  0  0  0  0
    0.3066   -0.4518    2.9763 N   0  0  0  0  0  0  0  0  0  0  0  0
    0.0402   -0.2843    4.2819 C   0  0  0  0  0  0  0  0  0  0  0  0
   -0.7272    0.7223    4.8646 C   0  0  0  0  0  0  0  0  0  0  0  0
   -2.8840    3.5368    6.6403 H   0  0  0  0  0  0  0  0  0  0  0  0
   -0.3803   -0.3401    8.1131 H   0  0  0  0  0  0  0  0  0  0  0  0
    0.9661   -2.0986    6.9945 H   0  0  0  0  0  0  0  0  0  0  0  0
    1.8753   -2.9851    4.4172 H   0  0  0  0  0  0  0  0  0  0  0  0
    1.8161   -2.7187   -1.1611 H   0  0  0  0  0  0  0  0  0  0  0  0
    0.1145   -2.3028   -0.7672 H   0  0  0  0  0  0  0  0  0  0  0  0
    2.3967   -0.1085   -3.6037 H   0  0  0  0  0  0  0  0  0  0  0  0
    2.8198   -1.7407   -2.9579 H   0  0  0  0  0  0  0  0  0  0  0  0
    0.8433   -2.6981   -3.8321 H   0  0  0  0  0  0  0  0  0  0  0  0
    1.1790   -1.4466   -5.0964 H   0  0  0  0  0  0  0  0  0  0  0  0
   -1.4389   -2.6109   -2.9826 H   0  0  0  0  0  0  0  0  0  0  0  0
   -1.3674   -1.7588   -5.9285 H   0  0  0  0  0  0  0  0  0  0  0  0
   -1.1173   -3.4096   -5.2087 H   0  0  0  0  0  0  0  0  0  0  0  0
   -3.4127   -3.7398   -4.9044 H   0  0  0  0  0  0  0  0  0  0  0  0
   -3.5106   -2.6040   -6.3035 H   0  0  0  0  0  0  0  0  0  0  0  0
   -4.5478   -2.2191   -3.7640 H   0  0  0  0  0  0  0  0  0  0  0  0
   -4.3735   -1.0293   -4.9731 H   0  0  0  0  0  0  0  0  0  0  0  0
   -2.7209   -0.0039   -3.9224 H   0  0  0  0  0  0  0  0  0  0  0  0
   -3.1346   -1.0411   -2.5066 H   0  0  0  0  0  0  0  0  0  0  0  0
   -0.2186    0.8243   -2.5387 H   0  0  0  0  0  0  0  0  0  0  0  0
   -0.9711   -0.5294   -1.6634 H   0  0  0  0  0  0  0  0  0  0  0  0
    2.0931    2.0287   -2.4487 H   0  0  0  0  0  0  0  0  0  0  0  0
    3.1883    3.5144   -0.7792 H   0  0  0  0  0  0  0  0  0  0  0  0
    3.5844    2.7079    1.5381 H   0  0  0  0  0  0  0  0  0  0  0  0
    2.8780    0.4220    2.2022 H   0  0  0  0  0  0  0  0  0  0  0  0
   -0.0356    0.1409    2.1873 H   0  0  0  0  0  0  0  0  0  0  0  0
   -1.1807    1.4839    4.2431 H   0  0  0  0  0  0  0  0  0  0  0  0
  1  2  1  0
  2  3  2  0
  2  4  1  0
  4  5  2  0
  5  6  1  0
  6  7  2  0
  7  8  1  0
  8  9  2  0
  9 10  1  0
 10 11  2  0
 10 12  1  0
 12 13  1  0
 14 13  1  1
 14 15  1  0
 15 16  1  0
 16 17  1  0
 17 18  1  0
 18 19  1  0
 19 20  1  0
 20 21  1  0
 21 22  1  0
 17 23  1  0
 14 24  1  0
 24 25  2  0
 25 26  1  0
 26 27  2  0
 27 28  1  0
 28 29  2  0
  9 30  1  0
 30 31  1  0
 31 32  2  0
 32  4  1  0
 31  7  1  0
 29 12  1  0
 23 14  1  0
 29 24  1  0
 22 18  1  0
  1 33  1  0
  5 34  1  0
  6 35  1  0
  8 36  1  0
 13 37  1  0
 13 38  1  0
 15 39  1  0
 15 40  1  0
 16 41  1  0
 16 42  1  0
 18 43  1  1
 19 44  1  0
 19 45  1  0
 20 46  1  0
 20 47  1  0
 21 48  1  0
 21 49  1  0
 22 50  1  0
 22 51  1  0
 23 52  1  0
 23 53  1  0
 25 54  1  0
 26 55  1  0
 27 56  1  0
 28 57  1  0
 30 58  1  0
 32 59  1  0
M  CHG  2   1  -1  21   1
M  END
>  <UniqueID>  (1) 
39

>  <SMILES>  (1) 
[NH-]C(=O)c1ccc2cc(C(=O)N3C[C@]4(CCN([C@@H]5CC[NH2+]C5)C4)c4ccccc43)[nH]c2c1

>  <Energy>  (1) 
125.3585888362146

>  <Genealogy>  (1) 
[NH-]C(=O)c1ccc2cc(C(=O)N3C[C@]4(CCN(C5CC[NH2+]C5)C4)c4ccccc43)[nH]c2c1 (protonated)
[NH-]C(=O)c1ccc2cc(C(=O)N3C[C@]4(CCN([C@@H]5CC[NH2+]C5)C4)c4ccccc43)[nH]c2c1 (chirality)
[NH-]C(=O)c1ccc2cc(C(=O)N3C[C@]4(CCN([C@@H]5CC[NH2+]C5)C4)c4ccccc43)[nH]c2c1 (3D coordinates assigned)
[NH-]C(=O)c1ccc2cc(C(=O)N3C[C@]4(CCN([C@@H]5CC[NH2+]C5)C4)c4ccccc43)[nH]c2c1 (nonaromatic ring conformer: 125.3585888362146 kcal/mol)

$$$$
untitled_line_12
     RDKit          3D

 59 64  0  0  0  0  0  0  0  0999 V2000
    0.9908   -7.2546    6.2335 N   0  0  0  0  0  0  0  0  0  0  0  0
    1.7496   -6.0416    6.2443 C   0  0  0  0  0  0  0  0  0  0  0  0
    2.6692   -5.9092    7.0967 O   0  0  0  0  0  0  0  0  0  0  0  0
    1.4724   -4.9396    5.2901 C   0  0  0  0  0  0  0  0  0  0  0  0
    0.7753   -5.1771    4.0727 C   0  0  0  0  0  0  0  0  0  0  0  0
    0.5273   -4.1294    3.1675 C   0  0  0  0  0  0  0  0  0  0  0  0
    0.9906   -2.8607    3.4962 C   0  0  0  0  0  0  0  0  0  0  0  0
    0.9095   -1.6718    2.8054 C   0  0  0  0  0  0  0  0  0  0  0  0
    1.5612   -0.7416    3.6157 C   0  0  0  0  0  0  0  0  0  0  0  0
    1.7697    0.6799    3.2876 C   0  0  0  0  0  0  0  0  0  0  0  0
    2.6358    1.3398    3.9214 O   0  0  0  0  0  0  0  0  0  0  0  0
    1.0429    1.3117    2.2245 N   0  0  0  0  0  0  0  0  0  0  0  0
    1.6587    2.1612    1.2078 C   0  0  0  0  0  0  0  0  0  0  0  0
    0.5068    2.5396    0.2115 C   0  0  1  0  0  0  0  0  0  0  0  0
    0.4133    4.0465   -0.0384 C   0  0  0  0  0  0  0  0  0  0  0  0
    0.0723    4.1662   -1.5090 C   0  0  0  0  0  0  0  0  0  0  0  0
    0.6767    3.0079   -2.1792 N   0  0  0  0  0  0  0  0  0  0  0  0
   -0.0393    2.6508   -3.4268 C   0  0  1  0  0  0  0  0  0  0  0  0
    0.0244    3.7613   -4.4587 C   0  0  0  0  0  0  0  0  0  0  0  0
   -0.0353    3.0401   -5.7954 C   0  0  0  0  0  0  0  0  0  0  0  0
    0.3588    1.6439   -5.5841 N   0  0  0  0  0  0  0  0  0  0  0  0
    0.6256    1.4871   -4.1542 C   0  0  0  0  0  0  0  0  0  0  0  0
    0.6697    1.9134   -1.1919 C   0  0  0  0  0  0  0  0  0  0  0  0
   -0.7182    2.0013    0.9097 C   0  0  0  0  0  0  0  0  0  0  0  0
   -2.0620    2.1225    0.5350 C   0  0  0  0  0  0  0  0  0  0  0  0
   -3.0454    1.5469    1.3541 C   0  0  0  0  0  0  0  0  0  0  0  0
   -2.6790    0.8680    2.5300 C   0  0  0  0  0  0  0  0  0  0  0  0
   -1.3272    0.7494    2.8849 C   0  0  0  0  0  0  0  0  0  0  0  0
   -0.3629    1.3079    2.0375 C   0  0  0  0  0  0  0  0  0  0  0  0
    2.0329   -1.3282    4.7412 N   0  0  0  0  0  0  0  0  0  0  0  0
    1.6729   -2.6195    4.6568 C   0  0  0  0  0  0  0  0  0  0  0  0
    1.9356   -3.6324    5.5768 C   0  0  0  0  0  0  0  0  0  0  0  0
    1.2565   -8.0377    6.8696 H   0  0  0  0  0  0  0  0  0  0  0  0
    0.1234   -7.3593    5.6635 H   0  0  0  0  0  0  0  0  0  0  0  0
    0.4448   -6.1697    3.8037 H   0  0  0  0  0  0  0  0  0  0  0  0
    0.0025   -4.3096    2.2380 H   0  0  0  0  0  0  0  0  0  0  0  0
    0.4503   -1.5056    1.8394 H   0  0  0  0  0  0  0  0  0  0  0  0
    2.4935    1.6151    0.7198 H   0  0  0  0  0  0  0  0  0  0  0  0
    2.0812    3.0591    1.7090 H   0  0  0  0  0  0  0  0  0  0  0  0
    1.3962    4.5403    0.1284 H   0  0  0  0  0  0  0  0  0  0  0  0
   -0.3491    4.5485    0.5977 H   0  0  0  0  0  0  0  0  0  0  0  0
   -1.0346    4.1781   -1.6296 H   0  0  0  0  0  0  0  0  0  0  0  0
    0.4875    5.1096   -1.9249 H   0  0  0  0  0  0  0  0  0  0  0  0
   -1.1065    2.3965   -3.2217 H   0  0  0  0  0  0  0  0  0  0  0  0
    0.9892    4.3115   -4.3782 H   0  0  0  0  0  0  0  0  0  0  0  0
   -0.8213    4.4742   -4.3431 H   0  0  0  0  0  0  0  0  0  0  0  0
    0.6550    3.5163   -6.5238 H   0  0  0  0  0  0  0  0  0  0  0  0
   -1.0698    3.0953   -6.2043 H   0  0  0  0  0  0  0  0  0  0  0  0
   -0.4547    1.0316   -5.8321 H   0  0  0  0  0  0  0  0  0  0  0  0
    1.7263    1.5129   -3.9966 H   0  0  0  0  0  0  0  0  0  0  0  0
    0.2397    0.5120   -3.7817 H   0  0  0  0  0  0  0  0  0  0  0  0
    1.6220    1.3522   -1.2897 H   0  0  0  0  0  0  0  0  0  0  0  0
   -0.1484    1.1833   -1.3933 H   0  0  0  0  0  0  0  0  0  0  0  0
   -2.3441    2.6474   -0.3666 H   0  0  0  0  0  0  0  0  0  0  0  0
   -4.0897    1.6311    1.0826 H   0  0  0  0  0  0  0  0  0  0  0  0
   -3.4424    0.4374    3.1646 H   0  0  0  0  0  0  0  0  0  0  0  0
   -1.0495    0.2416    3.7981 H   0  0  0  0  0  0  0  0  0  0  0  0
    2.5636   -0.8737    5.5176 H   0  0  0  0  0  0  0  0  0  0  0  0
    2.4777   -3.4094    6.4880 H   0  0  0  0  0  0  0  0  0  0  0  0
  1  2  1  0
  2  3  2  0
  2  4  1  0
  4  5  2  0
  5  6  1  0
  6  7  2  0
  7  8  1  0
  8  9  2  0
  9 10  1  0
 10 11  2  0
 10 12  1  0
 12 13  1  0
 14 13  1  1
 14 15  1  0
 15 16  1  0
 16 17  1  0
 17 18  1  0
 18 19  1  0
 19 20  1  0
 20 21  1  0
 21 22  1  0
 17 23  1  0
 14 24  1  0
 24 25  2  0
 25 26  1  0
 26 27  2  0
 27 28  1  0
 28 29  2  0
  9 30  1  0
 30 31  1  0
 31 32  2  0
 32  4  1  0
 31  7  1  0
 29 12  1  0
 23 14  1  0
 29 24  1  0
 22 18  1  0
  1 33  1  0
  1 34  1  0
  5 35  1  0
  6 36  1  0
  8 37  1  0
 13 38  1  0
 13 39  1  0
 15 40  1  0
 15 41  1  0
 16 42  1  0
 16 43  1  0
 18 44  1  1
 19 45  1  0
 19 46  1  0
 20 47  1  0
 20 48  1  0
 21 49  1  0
 22 50  1  0
 22 51  1  0
 23 52  1  0
 23 53  1  0
 25 54  1  0
 26 55  1  0
 27 56  1  0
 28 57  1  0
 30 58  1  0
 32 59  1  0
M  END
>  <UniqueID>  (2) 
40

>  <SMILES>  (2) 
NC(=O)c1ccc2cc(C(=O)N3C[C@]4(CCN([C@H]5CCNC5)C4)c4ccccc43)[nH]c2c1

>  <Energy>  (2) 
125.65652290930313

>  <Genealogy>  (2) 
NC(=O)c1ccc2cc(C(=O)N3C[C@]4(CCN([C@H]5CCNC5)C4)c4ccccc43)[nH]c2c1 (chirality)
NC(=O)c1ccc2cc(C(=O)N3C[C@]4(CCN([C@H]5CCNC5)C4)c4ccccc43)[nH]c2c1 (3D coordinates assigned)
NC(=O)c1ccc2cc(C(=O)N3C[C@]4(CCN([C@H]5CCNC5)C4)c4ccccc43)[nH]c2c1 (nonaromatic ring conformer: 125.65652290930313 kcal/mol)

$$$$
untitled_line_12
     RDKit          3D

 59 64  0  0  0  0  0  0  0  0999 V2000
    8.6820    1.2362   -2.2290 N   0  0  0  0  0  0  0  0  0  0  0  0
    7.4024    1.0578   -2.3002 C   0  0  0  0  0  0  0  0  0  0  0  0
    6.7660    1.1695   -3.5346 O   0  0  0  0  0  0  0  0  0  0  0  0
    6.6156    0.7375   -1.0864 C   0  0  0  0  0  0  0  0  0  0  0  0
    7.2473    0.6176    0.1830 C   0  0  0  0  0  0  0  0  0  0  0  0
    6.4995    0.3136    1.3347 C   0  0  0  0  0  0  0  0  0  0  0  0
    5.1280    0.1335    1.1912 C   0  0  0  0  0  0  0  0  0  0  0  0
    4.1607   -0.1626    2.1266 C   0  0  0  0  0  0  0  0  0  0  0  0
    2.9706   -0.2247    1.4041 C   0  0  0  0  0  0  0  0  0  0  0  0
    1.6433   -0.4975    1.9830 C   0  0  0  0  0  0  0  0  0  0  0  0
    1.4770   -0.3941    3.2279 O   0  0  0  0  0  0  0  0  0  0  0  0
    0.5251   -0.8282    1.1484 N   0  0  0  0  0  0  0  0  0  0  0  0
   -0.8211   -0.2917    1.3370 C   0  0  0  0  0  0  0  0  0  0  0  0
   -1.6707   -0.8483    0.1417 C   0  0  1  0  0  0  0  0  0  0  0  0
   -3.0134   -1.4449    0.5833 C   0  0  0  0  0  0  0  0  0  0  0  0
   -4.0501   -0.7457   -0.2825 C   0  0  0  0  0  0  0  0  0  0  0  0
   -3.4796    0.5385   -0.7255 N   0  0  0  0  0  0  0  0  0  0  0  0
   -3.7324    1.6272    0.2592 C   0  0  1  0  0  0  0  0  0  0  0  0
   -3.1376    2.9566   -0.1840 C   0  0  0  0  0  0  0  0  0  0  0  0
   -4.0484    4.0082    0.4184 C   0  0  0  0  0  0  0  0  0  0  0  0
   -5.3622    3.3952    0.6260 N   0  0  0  0  0  0  0  0  0  0  0  0
   -5.2245    1.9550    0.3826 C   0  0  0  0  0  0  0  0  0  0  0  0
   -2.0438    0.2452   -0.8786 C   0  0  0  0  0  0  0  0  0  0  0  0
   -0.7459   -1.8681   -0.4676 C   0  0  0  0  0  0  0  0  0  0  0  0
   -1.0106   -2.7790   -1.4971 C   0  0  0  0  0  0  0  0  0  0  0  0
    0.0079   -3.6574   -1.8974 C   0  0  0  0  0  0  0  0  0  0  0  0
    1.2642   -3.6197   -1.2652 C   0  0  0  0  0  0  0  0  0  0  0  0
    1.5114   -2.6959   -0.2381 C   0  0  0  0  0  0  0  0  0  0  0  0
    0.4891   -1.8102    0.1241 C   0  0  0  0  0  0  0  0  0  0  0  0
    3.1869    0.0335    0.0914 N   0  0  0  0  0  0  0  0  0  0  0  0
    4.5080    0.2453   -0.0236 C   0  0  0  0  0  0  0  0  0  0  0  0
    5.2168    0.5474   -1.1846 C   0  0  0  0  0  0  0  0  0  0  0  0
    7.2876    1.3876   -4.3756 H   0  0  0  0  0  0  0  0  0  0  0  0
    8.3159    0.7590    0.2839 H   0  0  0  0  0  0  0  0  0  0  0  0
    6.9777    0.2232    2.3017 H   0  0  0  0  0  0  0  0  0  0  0  0
    4.2988   -0.3156    3.1892 H   0  0  0  0  0  0  0  0  0  0  0  0
   -0.7873    0.8187    1.3606 H   0  0  0  0  0  0  0  0  0  0  0  0
   -1.2034   -0.6456    2.3185 H   0  0  0  0  0  0  0  0  0  0  0  0
   -3.0671   -2.5475    0.4466 H   0  0  0  0  0  0  0  0  0  0  0  0
   -3.2391   -1.2205    1.6481 H   0  0  0  0  0  0  0  0  0  0  0  0
   -5.0138   -0.6412    0.2582 H   0  0  0  0  0  0  0  0  0  0  0  0
   -4.2524   -1.3688   -1.1817 H   0  0  0  0  0  0  0  0  0  0  0  0
   -3.3303    1.3636    1.2650 H   0  0  0  0  0  0  0  0  0  0  0  0
   -2.0963    3.0878    0.1827 H   0  0  0  0  0  0  0  0  0  0  0  0
   -3.1596    3.0397   -1.2937 H   0  0  0  0  0  0  0  0  0  0  0  0
   -4.1211    4.8923   -0.2542 H   0  0  0  0  0  0  0  0  0  0  0  0
   -3.6272    4.3459    1.3929 H   0  0  0  0  0  0  0  0  0  0  0  0
   -6.0599    3.8064   -0.0381 H   0  0  0  0  0  0  0  0  0  0  0  0
   -5.6852    3.5656    1.6076 H   0  0  0  0  0  0  0  0  0  0  0  0
   -5.6819    1.3767    1.2166 H   0  0  0  0  0  0  0  0  0  0  0  0
   -5.7531    1.6831   -0.5603 H   0  0  0  0  0  0  0  0  0  0  0  0
   -1.3957    1.1418   -0.8008 H   0  0  0  0  0  0  0  0  0  0  0  0
   -1.8932   -0.1243   -1.9174 H   0  0  0  0  0  0  0  0  0  0  0  0
   -1.9823   -2.8113   -1.9726 H   0  0  0  0  0  0  0  0  0  0  0  0
   -0.1767   -4.3721   -2.6888 H   0  0  0  0  0  0  0  0  0  0  0  0
    2.0412   -4.3094   -1.5682 H   0  0  0  0  0  0  0  0  0  0  0  0
    2.4707   -2.6850    0.2603 H   0  0  0  0  0  0  0  0  0  0  0  0
    2.4775    0.0783   -0.6740 H   0  0  0  0  0  0  0  0  0  0  0  0
    4.6961    0.6302   -2.1303 H   0  0  0  0  0  0  0  0  0  0  0  0
  1  2  2  0
  2  3  1  0
  2  4  1  0
  4  5  2  0
  5  6  1  0
  6  7  2  0
  7  8  1  0
  8  9  2  0
  9 10  1  0
 10 11  2  0
 10 12  1  0
 12 13  1  0
 14 13  1  1
 14 15  1  0
 15 16  1  0
 16 17  1  0
 17 18  1  0
 18 19  1  0
 19 20  1  0
 20 21  1  0
 21 22  1  0
 17 23  1  0
 14 24  1  0
 24 25  2  0
 25 26  1  0
 26 27  2  0
 27 28  1  0
 28 29  2  0
  9 30  1  0
 30 31  1  0
 31 32  2  0
 32  4  1  0
 31  7  1  0
 29 12  1  0
 23 14  1  0
 29 24  1  0
 22 18  1  0
  3 33  1  0
  5 34  1  0
  6 35  1  0
  8 36  1  0
 13 37  1  0
 13 38  1  0
 15 39  1  0
 15 40  1  0
 16 41  1  0
 16 42  1  0
 18 43  1  1
 19 44  1  0
 19 45  1  0
 20 46  1  0
 20 47  1  0
 21 48  1  0
 21 49  1  0
 22 50  1  0
 22 51  1  0
 23 52  1  0
 23 53  1  0
 25 54  1  0
 26 55  1  0
 27 56  1  0
 28 57  1  0
 30 58  1  0
 32 59  1  0
M  CHG  2   1  -1  21   1
M  END
>  <UniqueID>  (3) 
41

>  <SMILES>  (3) 
[N-]=C(O)c1ccc2cc(C(=O)N3C[C@]4(CCN([C@H]5CC[NH2+]C5)C4)c4ccccc43)[nH]c2c1

>  <Energy>  (3) 
127.68784396122831

>  <Genealogy>  (3) 
[NH-]C(=O)c1ccc2cc(C(=O)N3C[C@]4(CCN(C5CC[NH2+]C5)C4)c4ccccc43)[nH]c2c1 (protonated)
[N-]=C(O)c1ccc2cc(C(=O)N3C[C@]4(CCN(C5CC[NH2+]C5)C4)c4ccccc43)[nH]c2c1 (tautomer)
[N-]=C(O)c1ccc2cc(C(=O)N3C[C@]4(CCN([C@H]5CC[NH2+]C5)C4)c4ccccc43)[nH]c2c1 (chirality)
[N-]=C(O)c1ccc2cc(C(=O)N3C[C@]4(CCN([C@H]5CC[NH2+]C5)C4)c4ccccc43)[nH]c2c1 (3D coordinates assigned)
[N-]=C(O)c1ccc2cc(C(=O)N3C[C@]4(CCN([C@H]5CC[NH2+]C5)C4)c4ccccc43)[nH]c2c1 (nonaromatic ring conformer: 127.68784396122831 kcal/mol)

$$$$
untitled_line_12
     RDKit          3D

 59 64  0  0  0  0  0  0  0  0999 V2000
    8.1272    2.5876   -3.1773 N   0  0  0  0  0  0  0  0  0  0  0  0
    7.3483    1.5738   -3.3732 C   0  0  0  0  0  0  0  0  0  0  0  0
    7.5069    0.8046   -4.5240 O   0  0  0  0  0  0  0  0  0  0  0  0
    6.2959    1.2291   -2.3890 C   0  0  0  0  0  0  0  0  0  0  0  0
    6.1226    1.9994   -1.2053 C   0  0  0  0  0  0  0  0  0  0  0  0
    5.1248    1.6700   -0.2700 C   0  0  0  0  0  0  0  0  0  0  0  0
    4.3134    0.5743   -0.5436 C   0  0  0  0  0  0  0  0  0  0  0  0
    3.2798    0.0233    0.1813 C   0  0  0  0  0  0  0  0  0  0  0  0
    2.8449   -1.0612   -0.5801 C   0  0  0  0  0  0  0  0  0  0  0  0
    1.7685   -1.9984   -0.2114 C   0  0  0  0  0  0  0  0  0  0  0  0
    1.7616   -3.1489   -0.7265 O   0  0  0  0  0  0  0  0  0  0  0  0
    0.7144   -1.6130    0.6885 N   0  0  0  0  0  0  0  0  0  0  0  0
    0.0366   -0.3139    0.6370 C   0  0  0  0  0  0  0  0  0  0  0  0
   -1.3805   -0.5339    1.2737 C   0  0  1  0  0  0  0  0  0  0  0  0
   -1.7179    0.4858    2.3709 C   0  0  0  0  0  0  0  0  0  0  0  0
   -3.0585    1.0724    1.9551 C   0  0  0  0  0  0  0  0  0  0  0  0
   -3.2022    0.8897    0.5002 N   0  0  0  0  0  0  0  0  0  0  0  0
   -2.5955    2.0169   -0.2616 C   0  0  2  0  0  0  0  0  0  0  0  0
   -3.3336    3.3299   -0.0193 C   0  0  0  0  0  0  0  0  0  0  0  0
   -3.2882    4.0836   -1.3414 C   0  0  0  0  0  0  0  0  0  0  0  0
   -2.7874    3.1699   -2.3708 N   0  0  0  0  0  0  0  0  0  0  0  0
   -2.7285    1.8369   -1.7737 C   0  0  0  0  0  0  0  0  0  0  0  0
   -2.5193   -0.3903    0.2445 C   0  0  0  0  0  0  0  0  0  0  0  0
   -1.2877   -1.9401    1.7962 C   0  0  0  0  0  0  0  0  0  0  0  0
   -2.2329   -2.6552    2.5413 C   0  0  0  0  0  0  0  0  0  0  0  0
   -1.9371   -3.9744    2.9165 C   0  0  0  0  0  0  0  0  0  0  0  0
   -0.7107   -4.5568    2.5476 C   0  0  0  0  0  0  0  0  0  0  0  0
    0.2220   -3.8243    1.7966 C   0  0  0  0  0  0  0  0  0  0  0  0
   -0.1017   -2.5151    1.4210 C   0  0  0  0  0  0  0  0  0  0  0  0
    3.5846   -1.1850   -1.7082 N   0  0  0  0  0  0  0  0  0  0  0  0
    4.4704   -0.1760   -1.6765 C   0  0  0  0  0  0  0  0  0  0  0  0
    5.4510    0.1182   -2.6222 C   0  0  0  0  0  0  0  0  0  0  0  0
    8.2148    1.0311   -5.2132 H   0  0  0  0  0  0  0  0  0  0  0  0
    6.7582    2.8519   -1.0026 H   0  0  0  0  0  0  0  0  0  0  0  0
    4.9945    2.2521    0.6336 H   0  0  0  0  0  0  0  0  0  0  0  0
    2.9218    0.3458    1.1492 H   0  0  0  0  0  0  0  0  0  0  0  0
   -0.0207    0.0462   -0.4132 H   0  0  0  0  0  0  0  0  0  0  0  0
    0.6326    0.4203    1.2145 H   0  0  0  0  0  0  0  0  0  0  0  0
   -1.7878    0.0298    3.3830 H   0  0  0  0  0  0  0  0  0  0  0  0
   -0.9757    1.3113    2.4197 H   0  0  0  0  0  0  0  0  0  0  0  0
   -3.8739    0.5102    2.4622 H   0  0  0  0  0  0  0  0  0  0  0  0
   -3.1476    2.1298    2.2809 H   0  0  0  0  0  0  0  0  0  0  0  0
   -1.5192    2.1479   -0.0030 H   0  0  0  0  0  0  0  0  0  0  0  0
   -2.8473    3.9220    0.7864 H   0  0  0  0  0  0  0  0  0  0  0  0
   -4.3939    3.1352    0.2579 H   0  0  0  0  0  0  0  0  0  0  0  0
   -4.3057    4.4491   -1.6063 H   0  0  0  0  0  0  0  0  0  0  0  0
   -2.6186    4.9690   -1.2524 H   0  0  0  0  0  0  0  0  0  0  0  0
   -3.4198    3.1681   -3.2051 H   0  0  0  0  0  0  0  0  0  0  0  0
   -1.8266    3.4635   -2.6670 H   0  0  0  0  0  0  0  0  0  0  0  0
   -3.6646    1.2800   -2.0093 H   0  0  0  0  0  0  0  0  0  0  0  0
   -1.8639    1.2713   -2.1869 H   0  0  0  0  0  0  0  0  0  0  0  0
   -3.2727   -1.1975    0.3829 H   0  0  0  0  0  0  0  0  0  0  0  0
   -2.1710   -0.5074   -0.8015 H   0  0  0  0  0  0  0  0  0  0  0  0
   -3.1736   -2.2014    2.8251 H   0  0  0  0  0  0  0  0  0  0  0  0
   -2.6529   -4.5436    3.4953 H   0  0  0  0  0  0  0  0  0  0  0  0
   -0.4829   -5.5712    2.8486 H   0  0  0  0  0  0  0  0  0  0  0  0
    1.1729   -4.2665    1.5319 H   0  0  0  0  0  0  0  0  0  0  0  0
    3.4868   -1.9111   -2.4532 H   0  0  0  0  0  0  0  0  0  0  0  0
    5.5508   -0.4971   -3.5072 H   0  0  0  0  0  0  0  0  0  0  0  0
  1  2  2  0
  2  3  1  0
  2  4  1  0
  4  5  2  0
  5  6  1  0
  6  7  2  0
  7  8  1  0
  8  9  2  0
  9 10  1  0
 10 11  2  0
 10 12  1  0
 12 13  1  0
 14 13  1  6
 14 15  1  0
 15 16  1  0
 16 17  1  0
 17 18  1  0
 18 19  1  0
 19 20  1  0
 20 21  1  0
 21 22  1  0
 17 23  1  0
 14 24  1  0
 24 25  2  0
 25 26  1  0
 26 27  2  0
 27 28  1  0
 28 29  2  0
  9 30  1  0
 30 31  1  0
 31 32  2  0
 32  4  1  0
 31  7  1  0
 29 12  1  0
 23 14  1  0
 29 24  1  0
 22 18  1  0
  3 33  1  0
  5 34  1  0
  6 35  1  0
  8 36  1  0
 13 37  1  0
 13 38  1  0
 15 39  1  0
 15 40  1  0
 16 41  1  0
 16 42  1  0
 18 43  1  6
 19 44  1  0
 19 45  1  0
 20 46  1  0
 20 47  1  0
 21 48  1  0
 21 49  1  0
 22 50  1  0
 22 51  1  0
 23 52  1  0
 23 53  1  0
 25 54  1  0
 26 55  1  0
 27 56  1  0
 28 57  1  0
 30 58  1  0
 32 59  1  0
M  CHG  2   1  -1  21   1
M  END
>  <UniqueID>  (4) 
42

>  <SMILES>  (4) 
[N-]=C(O)c1ccc2cc(C(=O)N3C[C@]4(CCN([C@@H]5CC[NH2+]C5)C4)c4ccccc43)[nH]c2c1

>  <Energy>  (4) 
128.36797004230337

>  <Genealogy>  (4) 
[NH-]C(=O)c1ccc2cc(C(=O)N3C[C@]4(CCN(C5CC[NH2+]C5)C4)c4ccccc43)[nH]c2c1 (protonated)
[N-]=C(O)c1ccc2cc(C(=O)N3C[C@]4(CCN(C5CC[NH2+]C5)C4)c4ccccc43)[nH]c2c1 (tautomer)
[N-]=C(O)c1ccc2cc(C(=O)N3C[C@]4(CCN([C@@H]5CC[NH2+]C5)C4)c4ccccc43)[nH]c2c1 (chirality)
[N-]=C(O)c1ccc2cc(C(=O)N3C[C@]4(CCN([C@@H]5CC[NH2+]C5)C4)c4ccccc43)[nH]c2c1 (3D coordinates assigned)
[N-]=C(O)c1ccc2cc(C(=O)N3C[C@]4(CCN([C@@H]5CC[NH2+]C5)C4)c4ccccc43)[nH]c2c1 (nonaromatic ring conformer: 128.36797004230337 kcal/mol)

$$$$
