untitled_line_5
     RDKit          3D

 41 42  0  0  0  0  0  0  0  0999 V2000
   -1.5365   -0.5688    0.6475 H   0  0  0  0  0  0  0  0  0  0  0  0
   -1.4726    0.1522   -0.1570 C   0  0  0  0  0  0  0  0  0  0  0  0
   -1.5456   -0.2889   -1.3770 N   0  0  0  0  0  0  0  0  0  0  0  0
   -1.3758    0.5317   -2.5018 N   0  0  0  0  0  0  0  0  0  0  0  0
   -1.3635    0.0025   -3.8287 C   0  0  0  0  0  0  0  0  0  0  0  0
   -1.3408    0.8019   -4.8022 O   0  0  0  0  0  0  0  0  0  0  0  0
   -1.4410   -1.4815   -4.0762 C   0  0  0  0  0  0  0  0  0  0  0  0
   -2.5048   -1.7442   -4.2600 H   0  0  0  0  0  0  0  0  0  0  0  0
   -1.1161   -2.0477   -3.1790 H   0  0  0  0  0  0  0  0  0  0  0  0
   -0.6090   -1.9368   -5.2857 C   0  0  0  0  0  0  0  0  0  0  0  0
   -0.9628   -1.4118   -6.2001 H   0  0  0  0  0  0  0  0  0  0  0  0
   -0.7851   -3.0234   -5.4443 H   0  0  0  0  0  0  0  0  0  0  0  0
    0.9002   -1.7070   -5.1267 C   0  0  0  0  0  0  0  0  0  0  0  0
    1.3892   -2.0611   -6.0583 H   0  0  0  0  0  0  0  0  0  0  0  0
    1.1421   -0.6300   -5.0497 H   0  0  0  0  0  0  0  0  0  0  0  0
    1.4273   -2.4797   -4.0444 O   0  0  0  0  0  0  0  0  0  0  0  0
    1.6404   -2.0452   -2.7234 C   0  0  0  0  0  0  0  0  0  0  0  0
    1.6909   -0.6825   -2.3612 C   0  0  0  0  0  0  0  0  0  0  0  0
    1.5642    0.1057   -3.0855 H   0  0  0  0  0  0  0  0  0  0  0  0
    1.9251   -0.3123   -1.0337 C   0  0  0  0  0  0  0  0  0  0  0  0
    1.9636    0.7371   -0.7677 H   0  0  0  0  0  0  0  0  0  0  0  0
    2.1148   -1.2896   -0.0544 C   0  0  0  0  0  0  0  0  0  0  0  0
    2.4220   -0.8213    1.6070 Cl  0  0  0  0  0  0  0  0  0  0  0  0
    2.0682   -2.6415   -0.4024 C   0  0  0  0  0  0  0  0  0  0  0  0
    2.2162   -3.3987    0.3571 H   0  0  0  0  0  0  0  0  0  0  0  0
    1.8341   -3.0192   -1.7293 C   0  0  0  0  0  0  0  0  0  0  0  0
    1.7774   -4.7277   -2.1351 Cl  0  0  0  0  0  0  0  0  0  0  0  0
   -1.1801    1.5610    0.1916 C   0  0  0  0  0  0  0  0  0  0  0  0
   -1.7752    2.6349   -0.4922 C   0  0  0  0  0  0  0  0  0  0  0  0
   -2.4820    2.4620   -1.2929 H   0  0  0  0  0  0  0  0  0  0  0  0
   -1.4986    3.9507   -0.1136 C   0  0  0  0  0  0  0  0  0  0  0  0
   -1.9683    4.7728   -0.6373 H   0  0  0  0  0  0  0  0  0  0  0  0
   -0.6316    4.2092    0.9500 C   0  0  0  0  0  0  0  0  0  0  0  0
   -0.4404    5.2369    1.2309 H   0  0  0  0  0  0  0  0  0  0  0  0
   -0.0279    3.1485    1.6476 C   0  0  0  0  0  0  0  0  0  0  0  0
    0.8678    3.4116    2.8319 C   0  0  0  0  0  0  0  0  0  0  0  0
    0.1287    3.2999    3.9953 F   0  0  0  0  0  0  0  0  0  0  0  0
    1.9029    2.4916    2.8634 F   0  0  0  0  0  0  0  0  0  0  0  0
    1.4179    4.6814    2.7681 F   0  0  0  0  0  0  0  0  0  0  0  0
   -0.3382    1.8274    1.2826 C   0  0  0  0  0  0  0  0  0  0  0  0
    0.0845    1.0034    1.8428 H   0  0  0  0  0  0  0  0  0  0  0  0
  1  2  1  0
  2  3  2  0
  3  4  1  0
  4  5  1  0
  5  6  2  0
  5  7  1  0
  7  8  1  0
  7  9  1  0
  7 10  1  0
 10 11  1  0
 10 12  1  0
 10 13  1  0
 13 14  1  0
 13 15  1  0
 13 16  1  0
 16 17  1  0
 17 18  2  0
 18 19  1  0
 18 20  1  0
 20 21  1  0
 20 22  2  0
 22 23  1  0
 22 24  1  0
 24 25  1  0
 24 26  2  0
 26 27  1  0
  2 28  1  0
 28 29  2  0
 29 30  1  0
 29 31  1  0
 31 32  1  0
 31 33  2  0
 33 34  1  0
 33 35  1  0
 35 36  1  0
 36 37  1  0
 36 38  1  0
 36 39  1  0
 35 40  2  0
 40 41  1  0
 26 17  1  0
 40 28  1  0
M  CHG  1   4  -1
M  END
>  <UniqueID>  (1) 
17

>  <SMILES>  (1) 
O=C(CCCOc1ccc(Cl)cc1Cl)[N-]/N=C\c1cccc(C(F)(F)F)c1

>  <Energy>  (1) 
41.4497454080807

>  <Genealogy>  (1) 
O=C(CCCOc1ccc(Cl)cc1Cl)[N-]N=Cc1cccc(C(F)(F)F)c1 (protonated)
O=C(CCCOc1ccc(Cl)cc1Cl)[N-]/N=C\c1cccc(C(F)(F)F)c1 (cis-trans isomerization)
O=C(CCCOc1ccc(Cl)cc1Cl)[N-]/N=C\c1cccc(C(F)(F)F)c1 (3D coordinates assigned)
O=C(CCCOc1ccc(Cl)cc1Cl)[N-]/N=C\c1cccc(C(F)(F)F)c1 (optimized conformer: 41.4497454080807 kcal/mol)

$$$$
untitled_line_5
     RDKit          3D

 41 42  0  0  0  0  0  0  0  0999 V2000
   -5.4876   -0.6512    2.4698 H   0  0  0  0  0  0  0  0  0  0  0  0
   -5.1193   -1.0621    1.6209 O   0  0  0  0  0  0  0  0  0  0  0  0
   -3.9707   -0.5993    0.9740 C   0  0  0  0  0  0  0  0  0  0  0  0
   -3.5713   -1.2668   -0.2292 N   0  0  0  0  0  0  0  0  0  0  0  0
   -2.4207   -0.9067   -0.9440 N   0  0  0  0  0  0  0  0  0  0  0  0
   -2.0576   -1.5643   -1.9975 C   0  0  0  0  0  0  0  0  0  0  0  0
   -2.6472   -2.4112   -2.3305 H   0  0  0  0  0  0  0  0  0  0  0  0
   -0.8375   -1.1922   -2.7419 C   0  0  0  0  0  0  0  0  0  0  0  0
   -0.0520   -0.0930   -2.3512 C   0  0  0  0  0  0  0  0  0  0  0  0
   -0.3348    0.5157   -1.5028 H   0  0  0  0  0  0  0  0  0  0  0  0
    1.1110    0.2279   -3.0539 C   0  0  0  0  0  0  0  0  0  0  0  0
    1.7170    1.0674   -2.7392 H   0  0  0  0  0  0  0  0  0  0  0  0
    1.4964   -0.5339   -4.1592 C   0  0  0  0  0  0  0  0  0  0  0  0
    2.4104   -0.2738   -4.6781 H   0  0  0  0  0  0  0  0  0  0  0  0
    0.7070   -1.6170   -4.5862 C   0  0  0  0  0  0  0  0  0  0  0  0
    1.1305   -2.4709   -5.7548 C   0  0  0  0  0  0  0  0  0  0  0  0
    1.9951   -1.7819   -6.5884 F   0  0  0  0  0  0  0  0  0  0  0  0
    1.7677   -3.6046   -5.2835 F   0  0  0  0  0  0  0  0  0  0  0  0
    0.0236   -2.8503   -6.4967 F   0  0  0  0  0  0  0  0  0  0  0  0
   -0.4507   -1.9492   -3.8593 C   0  0  0  0  0  0  0  0  0  0  0  0
   -1.0489   -2.8019   -4.1615 H   0  0  0  0  0  0  0  0  0  0  0  0
   -3.2533    0.4307    1.4595 C   0  0  0  0  0  0  0  0  0  0  0  0
   -2.3902    0.7722    0.9070 H   0  0  0  0  0  0  0  0  0  0  0  0
   -3.5979    1.1353    2.7442 C   0  0  0  0  0  0  0  0  0  0  0  0
   -4.5887    1.6261    2.6302 H   0  0  0  0  0  0  0  0  0  0  0  0
   -3.6614    0.3941    3.5704 H   0  0  0  0  0  0  0  0  0  0  0  0
   -2.5630    2.1994    3.1261 C   0  0  0  0  0  0  0  0  0  0  0  0
   -2.9656    2.7662    3.9917 H   0  0  0  0  0  0  0  0  0  0  0  0
   -2.4201    2.9323    2.3079 H   0  0  0  0  0  0  0  0  0  0  0  0
   -1.3384    1.5881    3.5422 O   0  0  0  0  0  0  0  0  0  0  0  0
   -0.2711    1.2288    2.7028 C   0  0  0  0  0  0  0  0  0  0  0  0
    0.0385    1.9452    1.5288 C   0  0  0  0  0  0  0  0  0  0  0  0
   -0.5269    2.8168    1.2351 H   0  0  0  0  0  0  0  0  0  0  0  0
    1.1124    1.5520    0.7247 C   0  0  0  0  0  0  0  0  0  0  0  0
    1.3424    2.1124   -0.1721 H   0  0  0  0  0  0  0  0  0  0  0  0
    1.8853    0.4429    1.0769 C   0  0  0  0  0  0  0  0  0  0  0  0
    3.2186   -0.0592    0.0530 Cl  0  0  0  0  0  0  0  0  0  0  0  0
    1.5974   -0.2615    2.2497 C   0  0  0  0  0  0  0  0  0  0  0  0
    2.2011   -1.1177    2.5269 H   0  0  0  0  0  0  0  0  0  0  0  0
    0.5295    0.1333    3.0643 C   0  0  0  0  0  0  0  0  0  0  0  0
    0.1818   -0.7795    4.5241 Cl  0  0  0  0  0  0  0  0  0  0  0  0
  1  2  1  0
  2  3  1  0
  3  4  1  0
  4  5  1  0
  5  6  2  0
  6  7  1  0
  6  8  1  0
  8  9  2  0
  9 10  1  0
  9 11  1  0
 11 12  1  0
 11 13  2  0
 13 14  1  0
 13 15  1  0
 15 16  1  0
 16 17  1  0
 16 18  1  0
 16 19  1  0
 15 20  2  0
 20 21  1  0
  3 22  2  0
 22 23  1  0
 22 24  1  0
 24 25  1  0
 24 26  1  0
 24 27  1  0
 27 28  1  0
 27 29  1  0
 27 30  1  0
 30 31  1  0
 31 32  2  0
 32 33  1  0
 32 34  1  0
 34 35  1  0
 34 36  2  0
 36 37  1  0
 36 38  1  0
 38 39  1  0
 38 40  2  0
 40 41  1  0
 20  8  1  0
 40 31  1  0
M  CHG  1   4  -1
M  END
>  <UniqueID>  (2) 
18

>  <SMILES>  (2) 
O/C(=C\CCOc1ccc(Cl)cc1Cl)[N-]/N=C/c1cccc(C(F)(F)F)c1

>  <Energy>  (2) 
38.02875454728892

>  <Genealogy>  (2) 
O=C(CCCOc1ccc(Cl)cc1Cl)[N-]N=Cc1cccc(C(F)(F)F)c1 (protonated)
OC(=CCCOc1ccc(Cl)cc1Cl)[N-]N=Cc1cccc(C(F)(F)F)c1 (tautomer)
O/C(=C\CCOc1ccc(Cl)cc1Cl)[N-]/N=C/c1cccc(C(F)(F)F)c1 (cis-trans isomerization)
O/C(=C\CCOc1ccc(Cl)cc1Cl)[N-]/N=C/c1cccc(C(F)(F)F)c1 (3D coordinates assigned)
O/C(=C\CCOc1ccc(Cl)cc1Cl)[N-]/N=C/c1cccc(C(F)(F)F)c1 (optimized conformer: 38.02875454728892 kcal/mol)

$$$$
untitled_line_5
     RDKit          3D

 41 42  0  0  0  0  0  0  0  0999 V2000
   -0.4677   -2.3176   -2.9914 H   0  0  0  0  0  0  0  0  0  0  0  0
    0.4946   -2.0154   -3.0833 O   0  0  0  0  0  0  0  0  0  0  0  0
    0.9316   -0.8377   -2.4825 C   0  0  0  0  0  0  0  0  0  0  0  0
   -0.0029   -0.0606   -1.7245 N   0  0  0  0  0  0  0  0  0  0  0  0
    0.3813    1.0755   -0.9962 N   0  0  0  0  0  0  0  0  0  0  0  0
   -0.4193    1.7120   -0.1947 C   0  0  0  0  0  0  0  0  0  0  0  0
   -0.0627    2.6271    0.2595 H   0  0  0  0  0  0  0  0  0  0  0  0
   -1.8100    1.2897    0.0875 C   0  0  0  0  0  0  0  0  0  0  0  0
   -2.1468   -0.0595    0.2911 C   0  0  0  0  0  0  0  0  0  0  0  0
   -1.3949   -0.8347    0.2429 H   0  0  0  0  0  0  0  0  0  0  0  0
   -3.4583   -0.4178    0.6084 C   0  0  0  0  0  0  0  0  0  0  0  0
   -3.7078   -1.4579    0.7741 H   0  0  0  0  0  0  0  0  0  0  0  0
   -4.4445    0.5625    0.7335 C   0  0  0  0  0  0  0  0  0  0  0  0
   -5.4508    0.2630    0.9980 H   0  0  0  0  0  0  0  0  0  0  0  0
   -4.1287    1.9170    0.5348 C   0  0  0  0  0  0  0  0  0  0  0  0
   -5.1773    2.9820    0.7349 C   0  0  0  0  0  0  0  0  0  0  0  0
   -6.4334    2.4998    0.4103 F   0  0  0  0  0  0  0  0  0  0  0  0
   -5.1757    3.3786    2.0589 F   0  0  0  0  0  0  0  0  0  0  0  0
   -4.9161    4.0805   -0.0655 F   0  0  0  0  0  0  0  0  0  0  0  0
   -2.7994    2.2731    0.2434 C   0  0  0  0  0  0  0  0  0  0  0  0
   -2.5333    3.3174    0.1302 H   0  0  0  0  0  0  0  0  0  0  0  0
    2.2142   -0.4644   -2.5922 C   0  0  0  0  0  0  0  0  0  0  0  0
    2.5452    0.4703   -2.1569 H   0  0  0  0  0  0  0  0  0  0  0  0
    3.2599   -1.3273   -3.2414 C   0  0  0  0  0  0  0  0  0  0  0  0
    2.9053   -1.6723   -4.2368 H   0  0  0  0  0  0  0  0  0  0  0  0
    4.1726   -0.7146   -3.4052 H   0  0  0  0  0  0  0  0  0  0  0  0
    3.6351   -2.5360   -2.3710 C   0  0  0  0  0  0  0  0  0  0  0  0
    2.7908   -3.2493   -2.2943 H   0  0  0  0  0  0  0  0  0  0  0  0
    4.4621   -3.0776   -2.8765 H   0  0  0  0  0  0  0  0  0  0  0  0
    4.1009   -2.1185   -1.0833 O   0  0  0  0  0  0  0  0  0  0  0  0
    3.2705   -1.7412   -0.0148 C   0  0  0  0  0  0  0  0  0  0  0  0
    2.0323   -2.3682    0.2235 C   0  0  0  0  0  0  0  0  0  0  0  0
    1.6981   -3.1971   -0.3825 H   0  0  0  0  0  0  0  0  0  0  0  0
    1.2058   -1.9269    1.2600 C   0  0  0  0  0  0  0  0  0  0  0  0
    0.2513   -2.4092    1.4271 H   0  0  0  0  0  0  0  0  0  0  0  0
    1.6062   -0.8634    2.0722 C   0  0  0  0  0  0  0  0  0  0  0  0
    0.5481   -0.2873    3.3469 Cl  0  0  0  0  0  0  0  0  0  0  0  0
    2.8497   -0.2591    1.8661 C   0  0  0  0  0  0  0  0  0  0  0  0
    3.1629    0.5601    2.5010 H   0  0  0  0  0  0  0  0  0  0  0  0
    3.6854   -0.7023    0.8341 C   0  0  0  0  0  0  0  0  0  0  0  0
    5.2293    0.0947    0.5757 Cl  0  0  0  0  0  0  0  0  0  0  0  0
  1  2  1  0
  2  3  1  0
  3  4  1  0
  4  5  1  0
  5  6  2  0
  6  7  1  0
  6  8  1  0
  8  9  2  0
  9 10  1  0
  9 11  1  0
 11 12  1  0
 11 13  2  0
 13 14  1  0
 13 15  1  0
 15 16  1  0
 16 17  1  0
 16 18  1  0
 16 19  1  0
 15 20  2  0
 20 21  1  0
  3 22  2  0
 22 23  1  0
 22 24  1  0
 24 25  1  0
 24 26  1  0
 24 27  1  0
 27 28  1  0
 27 29  1  0
 27 30  1  0
 30 31  1  0
 31 32  2  0
 32 33  1  0
 32 34  1  0
 34 35  1  0
 34 36  2  0
 36 37  1  0
 36 38  1  0
 38 39  1  0
 38 40  2  0
 40 41  1  0
 20  8  1  0
 40 31  1  0
M  CHG  1   4  -1
M  END
>  <UniqueID>  (3) 
19

>  <SMILES>  (3) 
O/C(=C\CCOc1ccc(Cl)cc1Cl)[N-]/N=C\c1cccc(C(F)(F)F)c1

>  <Energy>  (3) 
41.8730961144312

>  <Genealogy>  (3) 
O=C(CCCOc1ccc(Cl)cc1Cl)[N-]N=Cc1cccc(C(F)(F)F)c1 (protonated)
OC(=CCCOc1ccc(Cl)cc1Cl)[N-]N=Cc1cccc(C(F)(F)F)c1 (tautomer)
O/C(=C\CCOc1ccc(Cl)cc1Cl)[N-]/N=C\c1cccc(C(F)(F)F)c1 (cis-trans isomerization)
O/C(=C\CCOc1ccc(Cl)cc1Cl)[N-]/N=C\c1cccc(C(F)(F)F)c1 (3D coordinates assigned)
O/C(=C\CCOc1ccc(Cl)cc1Cl)[N-]/N=C\c1cccc(C(F)(F)F)c1 (optimized conformer: 41.8730961144312 kcal/mol)

$$$$
untitled_line_5
     RDKit          3D

 41 42  0  0  0  0  0  0  0  0999 V2000
   -3.7302    0.0112   -1.0483 H   0  0  0  0  0  0  0  0  0  0  0  0
   -2.6954   -0.3127   -1.0482 C   0  0  0  0  0  0  0  0  0  0  0  0
   -1.7491    0.5662   -1.1270 N   0  0  0  0  0  0  0  0  0  0  0  0
   -2.0363    1.9342   -1.2070 N   0  0  0  0  0  0  0  0  0  0  0  0
   -0.9986    2.9153   -1.2710 C   0  0  0  0  0  0  0  0  0  0  0  0
   -1.3164    4.1304   -1.3671 O   0  0  0  0  0  0  0  0  0  0  0  0
    0.4558    2.5169   -1.3054 C   0  0  0  0  0  0  0  0  0  0  0  0
    0.5923    1.4664   -0.9753 H   0  0  0  0  0  0  0  0  0  0  0  0
    0.8001    2.5724   -2.3600 H   0  0  0  0  0  0  0  0  0  0  0  0
    1.3472    3.4312   -0.4516 C   0  0  0  0  0  0  0  0  0  0  0  0
    2.4092    3.1522   -0.6261 H   0  0  0  0  0  0  0  0  0  0  0  0
    1.2285    4.4859   -0.7826 H   0  0  0  0  0  0  0  0  0  0  0  0
    1.0598    3.3382    1.0515 C   0  0  0  0  0  0  0  0  0  0  0  0
    1.7181    4.0712    1.5636 H   0  0  0  0  0  0  0  0  0  0  0  0
    0.0232    3.6466    1.2799 H   0  0  0  0  0  0  0  0  0  0  0  0
    1.3904    2.0394    1.5512 O   0  0  0  0  0  0  0  0  0  0  0  0
    0.5011    0.9821    1.8178 C   0  0  0  0  0  0  0  0  0  0  0  0
   -0.8905    1.1648    1.9604 C   0  0  0  0  0  0  0  0  0  0  0  0
   -1.3537    2.1333    1.8641 H   0  0  0  0  0  0  0  0  0  0  0  0
   -1.7192    0.0777    2.2547 C   0  0  0  0  0  0  0  0  0  0  0  0
   -2.7857    0.2301    2.3612 H   0  0  0  0  0  0  0  0  0  0  0  0
   -1.1763   -1.1997    2.4086 C   0  0  0  0  0  0  0  0  0  0  0  0
   -2.2206   -2.5610    2.7729 Cl  0  0  0  0  0  0  0  0  0  0  0  0
    0.1994   -1.3923    2.2664 C   0  0  0  0  0  0  0  0  0  0  0  0
    0.6191   -2.3840    2.3800 H   0  0  0  0  0  0  0  0  0  0  0  0
    1.0352   -0.3087    1.9744 C   0  0  0  0  0  0  0  0  0  0  0  0
    2.7611   -0.5850    1.7963 Cl  0  0  0  0  0  0  0  0  0  0  0  0
   -2.3827   -1.7490   -0.9127 C   0  0  0  0  0  0  0  0  0  0  0  0
   -3.4300   -2.6719   -0.7806 C   0  0  0  0  0  0  0  0  0  0  0  0
   -4.4608   -2.3395   -0.7939 H   0  0  0  0  0  0  0  0  0  0  0  0
   -3.1557   -4.0325   -0.6293 C   0  0  0  0  0  0  0  0  0  0  0  0
   -3.9699   -4.7396   -0.5358 H   0  0  0  0  0  0  0  0  0  0  0  0
   -1.8347   -4.4840   -0.5969 C   0  0  0  0  0  0  0  0  0  0  0  0
   -1.6439   -5.5443   -0.4874 H   0  0  0  0  0  0  0  0  0  0  0  0
   -0.7695   -3.5748   -0.7044 C   0  0  0  0  0  0  0  0  0  0  0  0
    0.6526   -4.0773   -0.7054 C   0  0  0  0  0  0  0  0  0  0  0  0
    0.7942   -5.1177    0.1962 F   0  0  0  0  0  0  0  0  0  0  0  0
    1.5371   -3.0738   -0.3495 F   0  0  0  0  0  0  0  0  0  0  0  0
    0.9739   -4.5304   -1.9712 F   0  0  0  0  0  0  0  0  0  0  0  0
   -1.0522   -2.2093   -0.8893 C   0  0  0  0  0  0  0  0  0  0  0  0
   -0.2375   -1.5046   -1.0011 H   0  0  0  0  0  0  0  0  0  0  0  0
  1  2  1  0
  2  3  2  0
  3  4  1  0
  4  5  1  0
  5  6  2  0
  5  7  1  0
  7  8  1  0
  7  9  1  0
  7 10  1  0
 10 11  1  0
 10 12  1  0
 10 13  1  0
 13 14  1  0
 13 15  1  0
 13 16  1  0
 16 17  1  0
 17 18  2  0
 18 19  1  0
 18 20  1  0
 20 21  1  0
 20 22  2  0
 22 23  1  0
 22 24  1  0
 24 25  1  0
 24 26  2  0
 26 27  1  0
  2 28  1  0
 28 29  2  0
 29 30  1  0
 29 31  1  0
 31 32  1  0
 31 33  2  0
 33 34  1  0
 33 35  1  0
 35 36  1  0
 36 37  1  0
 36 38  1  0
 36 39  1  0
 35 40  2  0
 40 41  1  0
 26 17  1  0
 40 28  1  0
M  CHG  1   4  -1
M  END
>  <UniqueID>  (4) 
20

>  <SMILES>  (4) 
O=C(CCCOc1ccc(Cl)cc1Cl)[N-]/N=C/c1cccc(C(F)(F)F)c1

>  <Energy>  (4) 
32.883843962936865

>  <Genealogy>  (4) 
O=C(CCCOc1ccc(Cl)cc1Cl)[N-]N=Cc1cccc(C(F)(F)F)c1 (protonated)
O=C(CCCOc1ccc(Cl)cc1Cl)[N-]/N=C/c1cccc(C(F)(F)F)c1 (cis-trans isomerization)
O=C(CCCOc1ccc(Cl)cc1Cl)[N-]/N=C/c1cccc(C(F)(F)F)c1 (3D coordinates assigned)
O=C(CCCOc1ccc(Cl)cc1Cl)[N-]/N=C/c1cccc(C(F)(F)F)c1 (optimized conformer: 32.883843962936865 kcal/mol)

$$$$
