untitled_line_10
     RDKit          3D

 43 46  0  0  0  0  0  0  0  0999 V2000
    3.1111   -1.6595   -1.9328 H   0  0  0  0  0  0  0  0  0  0  0  0
    2.2369   -2.2221   -2.0132 N   0  0  0  0  0  0  0  0  0  0  0  0
    1.0901   -1.8825   -1.5091 C   0  0  0  0  0  0  0  0  0  0  0  0
    0.0225   -2.6930   -1.7385 N   0  0  0  0  0  0  0  0  0  0  0  0
   -1.2270   -2.3963   -1.2993 C   0  0  0  0  0  0  0  0  0  0  0  0
   -2.2505   -3.2430   -1.5586 N   0  0  0  0  0  0  0  0  0  0  0  0
   -3.5140   -2.9756   -1.1397 C   0  0  0  0  0  0  0  0  0  0  0  0
   -4.5340   -3.8864   -1.4351 C   0  0  0  0  0  0  0  0  0  0  0  0
   -4.3204   -4.7920   -1.9896 H   0  0  0  0  0  0  0  0  0  0  0  0
   -5.8338   -3.6244   -1.0119 C   0  0  0  0  0  0  0  0  0  0  0  0
   -6.6296   -4.3231   -1.2358 H   0  0  0  0  0  0  0  0  0  0  0  0
   -6.1061   -2.4603   -0.2998 C   0  0  0  0  0  0  0  0  0  0  0  0
   -7.1143   -2.2494    0.0328 H   0  0  0  0  0  0  0  0  0  0  0  0
   -5.0709   -1.5666   -0.0172 C   0  0  0  0  0  0  0  0  0  0  0  0
   -5.3136   -0.6687    0.5390 H   0  0  0  0  0  0  0  0  0  0  0  0
   -3.7872   -1.8219   -0.4333 N   0  0  0  0  0  0  0  0  0  0  0  0
   -2.7709   -0.9392   -0.1529 C   0  0  0  0  0  0  0  0  0  0  0  0
   -3.0039    0.1221    0.4935 O   0  0  0  0  0  0  0  0  0  0  0  0
   -1.4611   -1.2136   -0.5858 C   0  0  0  0  0  0  0  0  0  0  0  0
   -0.3804   -0.3573   -0.3256 C   0  0  0  0  0  0  0  0  0  0  0  0
   -0.5346    0.5507    0.2461 H   0  0  0  0  0  0  0  0  0  0  0  0
    0.9110   -0.6834   -0.7713 C   0  0  0  0  0  0  0  0  0  0  0  0
    2.0291    0.2221   -0.4217 C   0  0  0  0  0  0  0  0  0  0  0  0
    3.0958   -0.2557    0.0520 O   0  0  0  0  0  0  0  0  0  0  0  0
    1.8840    1.6425   -0.5780 N   0  0  0  0  0  0  0  0  0  0  0  0
    1.0152    2.0021   -1.0348 H   0  0  0  0  0  0  0  0  0  0  0  0
    2.9516    2.5836   -0.2220 C   0  0  2  0  0  0  0  0  0  0  0  0
    3.4536    2.2185    0.7020 H   0  0  0  0  0  0  0  0  0  0  0  0
    2.3797    3.9632    0.0453 C   0  0  0  0  0  0  0  0  0  0  0  0
    2.5195    4.5517    1.3158 C   0  0  0  0  0  0  0  0  0  0  0  0
    3.0354    4.0294    2.1118 H   0  0  0  0  0  0  0  0  0  0  0  0
    1.9936    5.8222    1.5696 C   0  0  0  0  0  0  0  0  0  0  0  0
    2.1060    6.2676    2.5497 H   0  0  0  0  0  0  0  0  0  0  0  0
    1.3229    6.5178    0.5611 C   0  0  0  0  0  0  0  0  0  0  0  0
    0.9163    7.5010    0.7600 H   0  0  0  0  0  0  0  0  0  0  0  0
    1.1761    5.9442   -0.7038 C   0  0  0  0  0  0  0  0  0  0  0  0
    0.6550    6.4836   -1.4842 H   0  0  0  0  0  0  0  0  0  0  0  0
    1.7002    4.6744   -0.9634 C   0  0  0  0  0  0  0  0  0  0  0  0
    1.5727    4.2462   -1.9493 H   0  0  0  0  0  0  0  0  0  0  0  0
    4.0090    2.6295   -1.3297 C   0  0  0  0  0  0  0  0  0  0  0  0
    3.5512    2.8993   -2.3047 H   0  0  0  0  0  0  0  0  0  0  0  0
    4.4935    1.6359   -1.4343 H   0  0  0  0  0  0  0  0  0  0  0  0
    4.7941    3.3745   -1.0785 H   0  0  0  0  0  0  0  0  0  0  0  0
  1  2  1  0
  2  3  2  0
  3  4  1  0
  4  5  1  0
  5  6  1  0
  6  7  2  0
  7  8  1  0
  8  9  1  0
  8 10  2  0
 10 11  1  0
 10 12  1  0
 12 13  1  0
 12 14  2  0
 14 15  1  0
 14 16  1  0
 16 17  1  0
 17 18  2  0
 17 19  1  0
 19 20  1  0
 20 21  1  0
 20 22  2  0
 22 23  1  0
 23 24  2  0
 23 25  1  0
 25 26  1  0
 25 27  1  0
 27 28  1  1
 27 29  1  0
 29 30  2  0
 30 31  1  0
 30 32  1  0
 32 33  1  0
 32 34  2  0
 34 35  1  0
 34 36  1  0
 36 37  1  0
 36 38  2  0
 38 39  1  0
 27 40  1  0
 40 41  1  0
 40 42  1  0
 40 43  1  0
 22  3  1  0
 38 29  1  0
 19  5  2  0
 16  7  1  0
M  CHG  1   4  -1
M  END
>  <UniqueID>  (1) 
31

>  <SMILES>  (1) 
[H]/N=c1/[n-]c2nc3ccccn3c(=O)c2cc1C(=O)N[C@@H](C)c1ccccc1

>  <Energy>  (1) 
62.690425289049045

>  <Genealogy>  (1) 
C[C@H](NC(=O)c1cc2c(=O)n3ccccc3nc2[n-]c1=N)c1ccccc1 (protonated)
[H]/N=c1/[n-]c2nc3ccccn3c(=O)c2cc1C(=O)N[C@@H](C)c1ccccc1 (cis-trans isomerization)
[H]/N=c1/[n-]c2nc3ccccn3c(=O)c2cc1C(=O)N[C@@H](C)c1ccccc1 (3D coordinates assigned)
[H]/N=c1/[n-]c2nc3ccccn3c(=O)c2cc1C(=O)N[C@@H](C)c1ccccc1 (optimized conformer: 62.690425289049045 kcal/mol)

$$$$
untitled_line_10
     RDKit          3D

 44 47  0  0  0  0  0  0  0  0999 V2000
    2.5926    1.6016   -2.4527 H   0  0  0  0  0  0  0  0  0  0  0  0
    2.4782    0.6349   -2.8267 N   0  0  0  0  0  0  0  0  0  0  0  0
    1.7543   -0.2932   -2.2755 C   0  0  0  0  0  0  0  0  0  0  0  0
    1.0389   -0.0708   -1.0701 C   0  0  0  0  0  0  0  0  0  0  0  0
    1.1468    1.1826   -0.2891 C   0  0  0  0  0  0  0  0  0  0  0  0
    2.2840    1.6685   -0.0411 O   0  0  0  0  0  0  0  0  0  0  0  0
   -0.0349    1.8182    0.2232 N   0  0  0  0  0  0  0  0  0  0  0  0
   -0.9642    1.4266   -0.0522 H   0  0  0  0  0  0  0  0  0  0  0  0
    0.0198    3.0472    1.0225 C   0  0  2  0  0  0  0  0  0  0  0  0
    0.9037    2.9934    1.6968 H   0  0  0  0  0  0  0  0  0  0  0  0
   -1.2318    3.1901    1.8681 C   0  0  0  0  0  0  0  0  0  0  0  0
   -2.5028    3.2970    1.2698 C   0  0  0  0  0  0  0  0  0  0  0  0
   -2.6084    3.2773    0.1927 H   0  0  0  0  0  0  0  0  0  0  0  0
   -3.6487    3.4265    2.0602 C   0  0  0  0  0  0  0  0  0  0  0  0
   -4.6214    3.5076    1.5926 H   0  0  0  0  0  0  0  0  0  0  0  0
   -3.5407    3.4503    3.4525 C   0  0  0  0  0  0  0  0  0  0  0  0
   -4.4290    3.5505    4.0626 H   0  0  0  0  0  0  0  0  0  0  0  0
   -2.2863    3.3441    4.0574 C   0  0  0  0  0  0  0  0  0  0  0  0
   -2.2041    3.3620    5.1365 H   0  0  0  0  0  0  0  0  0  0  0  0
   -1.1368    3.2141    3.2718 C   0  0  0  0  0  0  0  0  0  0  0  0
   -0.1742    3.1326    3.7610 H   0  0  0  0  0  0  0  0  0  0  0  0
    0.2121    4.2641    0.1116 C   0  0  0  0  0  0  0  0  0  0  0  0
   -0.5941    4.3214   -0.6498 H   0  0  0  0  0  0  0  0  0  0  0  0
    0.2096    5.1974    0.7144 H   0  0  0  0  0  0  0  0  0  0  0  0
    1.1866    4.1939   -0.4160 H   0  0  0  0  0  0  0  0  0  0  0  0
    0.2158   -1.0949   -0.5785 C   0  0  0  0  0  0  0  0  0  0  0  0
   -0.3317   -0.9425    0.3447 H   0  0  0  0  0  0  0  0  0  0  0  0
    0.1230   -2.3198   -1.2539 C   0  0  0  0  0  0  0  0  0  0  0  0
   -0.6825   -3.3787   -0.7963 C   0  0  0  0  0  0  0  0  0  0  0  0
   -1.3602   -3.2339    0.2612 O   0  0  0  0  0  0  0  0  0  0  0  0
   -0.7296   -4.5605   -1.4973 N   0  0  0  0  0  0  0  0  0  0  0  0
   -1.5121   -5.6020   -1.0622 C   0  0  0  0  0  0  0  0  0  0  0  0
   -2.1084   -5.5192   -0.1610 H   0  0  0  0  0  0  0  0  0  0  0  0
   -1.5628   -6.8040   -1.7714 C   0  0  0  0  0  0  0  0  0  0  0  0
   -2.1828   -7.6186   -1.4198 H   0  0  0  0  0  0  0  0  0  0  0  0
   -0.8111   -6.9484   -2.9335 C   0  0  0  0  0  0  0  0  0  0  0  0
   -0.8438   -7.8761   -3.4900 H   0  0  0  0  0  0  0  0  0  0  0  0
   -0.0171   -5.8948   -3.3770 C   0  0  0  0  0  0  0  0  0  0  0  0
    0.5687   -6.0054   -4.2814 H   0  0  0  0  0  0  0  0  0  0  0  0
    0.0168   -4.7006   -2.6489 C   0  0  0  0  0  0  0  0  0  0  0  0
    0.7952   -3.6808   -3.0924 N   0  0  0  0  0  0  0  0  0  0  0  0
    0.8671   -2.5020   -2.4276 C   0  0  0  0  0  0  0  0  0  0  0  0
    1.6550   -1.5000   -2.9041 N   0  0  0  0  0  0  0  0  0  0  0  0
    2.1883   -1.6591   -3.7902 H   0  0  0  0  0  0  0  0  0  0  0  0
  1  2  1  0
  2  3  2  0
  3  4  1  0
  4  5  1  0
  5  6  2  0
  5  7  1  0
  7  8  1  0
  7  9  1  0
  9 10  1  1
  9 11  1  0
 11 12  2  0
 12 13  1  0
 12 14  1  0
 14 15  1  0
 14 16  2  0
 16 17  1  0
 16 18  1  0
 18 19  1  0
 18 20  2  0
 20 21  1  0
  9 22  1  0
 22 23  1  0
 22 24  1  0
 22 25  1  0
  4 26  2  0
 26 27  1  0
 26 28  1  0
 28 29  1  0
 29 30  2  0
 29 31  1  0
 31 32  1  0
 32 33  1  0
 32 34  2  0
 34 35  1  0
 34 36  1  0
 36 37  1  0
 36 38  2  0
 38 39  1  0
 38 40  1  0
 40 41  2  0
 41 42  1  0
 42 43  1  0
 43 44  1  0
 43  3  1  0
 20 11  1  0
 42 28  2  0
 40 31  1  0
M  END
>  <UniqueID>  (2) 
32

>  <SMILES>  (2) 
[H]/N=c1/[nH]c2nc3ccccn3c(=O)c2cc1C(=O)N[C@@H](C)c1ccccc1

>  <Energy>  (2) 
63.70258005150492

>  <Genealogy>  (2) 
[H]/N=c1/[nH]c2nc3ccccn3c(=O)c2cc1C(=O)N[C@@H](C)c1ccccc1 (cis-trans isomerization)
[H]/N=c1/[nH]c2nc3ccccn3c(=O)c2cc1C(=O)N[C@@H](C)c1ccccc1 (3D coordinates assigned)
[H]/N=c1/[nH]c2nc3ccccn3c(=O)c2cc1C(=O)N[C@@H](C)c1ccccc1 (optimized conformer: 63.70258005150492 kcal/mol)

$$$$
untitled_line_10
     RDKit          3D

 43 46  0  0  0  0  0  0  0  0999 V2000
    0.3706   -2.1117   -3.3290 H   0  0  0  0  0  0  0  0  0  0  0  0
   -0.0822   -1.3665   -2.7533 N   0  0  0  0  0  0  0  0  0  0  0  0
    0.5315   -0.8102   -1.7570 C   0  0  0  0  0  0  0  0  0  0  0  0
    1.8016   -1.1969   -1.4570 N   0  0  0  0  0  0  0  0  0  0  0  0
    2.5062   -0.6428   -0.4380 C   0  0  0  0  0  0  0  0  0  0  0  0
    3.7659   -1.0662   -0.1821 N   0  0  0  0  0  0  0  0  0  0  0  0
    4.4987   -0.5367    0.8309 C   0  0  0  0  0  0  0  0  0  0  0  0
    5.7960   -1.0119    1.0504 C   0  0  0  0  0  0  0  0  0  0  0  0
    6.2112   -1.7904    0.4221 H   0  0  0  0  0  0  0  0  0  0  0  0
    6.5580   -0.4784    2.0858 C   0  0  0  0  0  0  0  0  0  0  0  0
    7.5627   -0.8397    2.2633 H   0  0  0  0  0  0  0  0  0  0  0  0
    6.0226    0.5215    2.8919 C   0  0  0  0  0  0  0  0  0  0  0  0
    6.6088    0.9415    3.6992 H   0  0  0  0  0  0  0  0  0  0  0  0
    4.7251    0.9793    2.6529 C   0  0  0  0  0  0  0  0  0  0  0  0
    4.3355    1.7587    3.2973 H   0  0  0  0  0  0  0  0  0  0  0  0
    3.9705    0.4551    1.6321 N   0  0  0  0  0  0  0  0  0  0  0  0
    2.6934    0.9091    1.4003 C   0  0  0  0  0  0  0  0  0  0  0  0
    2.1946    1.8170    2.1250 O   0  0  0  0  0  0  0  0  0  0  0  0
    1.9323    0.3640    0.3505 C   0  0  0  0  0  0  0  0  0  0  0  0
    0.6230    0.7828    0.0646 C   0  0  0  0  0  0  0  0  0  0  0  0
    0.1538    1.5394    0.6815 H   0  0  0  0  0  0  0  0  0  0  0  0
   -0.0945    0.2037   -0.9964 C   0  0  0  0  0  0  0  0  0  0  0  0
   -1.4842    0.6477   -1.2739 C   0  0  0  0  0  0  0  0  0  0  0  0
   -2.3314   -0.1887   -1.6886 O   0  0  0  0  0  0  0  0  0  0  0  0
   -1.8680    2.0197   -1.0674 N   0  0  0  0  0  0  0  0  0  0  0  0
   -1.1225    2.7236   -0.8664 H   0  0  0  0  0  0  0  0  0  0  0  0
   -3.2521    2.5048   -1.1096 C   0  0  2  0  0  0  0  0  0  0  0  0
   -3.2448    3.5779   -0.8109 H   0  0  0  0  0  0  0  0  0  0  0  0
   -4.1100    1.7708   -0.0910 C   0  0  0  0  0  0  0  0  0  0  0  0
   -3.9673    2.1010    1.2693 C   0  0  0  0  0  0  0  0  0  0  0  0
   -3.2779    2.8792    1.5733 H   0  0  0  0  0  0  0  0  0  0  0  0
   -4.7073    1.4296    2.2468 C   0  0  0  0  0  0  0  0  0  0  0  0
   -4.5916    1.6952    3.2897 H   0  0  0  0  0  0  0  0  0  0  0  0
   -5.5918    0.4137    1.8805 C   0  0  0  0  0  0  0  0  0  0  0  0
   -6.1630   -0.1063    2.6387 H   0  0  0  0  0  0  0  0  0  0  0  0
   -5.7344    0.0643    0.5364 C   0  0  0  0  0  0  0  0  0  0  0  0
   -6.4149   -0.7290    0.2548 H   0  0  0  0  0  0  0  0  0  0  0  0
   -4.9966    0.7320   -0.4460 C   0  0  0  0  0  0  0  0  0  0  0  0
   -5.1230    0.4272   -1.4751 H   0  0  0  0  0  0  0  0  0  0  0  0
   -3.7942    2.4896   -2.5464 C   0  0  0  0  0  0  0  0  0  0  0  0
   -3.1884    3.1734   -3.1783 H   0  0  0  0  0  0  0  0  0  0  0  0
   -4.8468    2.8447   -2.5612 H   0  0  0  0  0  0  0  0  0  0  0  0
   -3.7450    1.4780   -2.9971 H   0  0  0  0  0  0  0  0  0  0  0  0
  1  2  1  0
  2  3  2  0
  3  4  1  0
  4  5  1  0
  5  6  1  0
  6  7  2  0
  7  8  1  0
  8  9  1  0
  8 10  2  0
 10 11  1  0
 10 12  1  0
 12 13  1  0
 12 14  2  0
 14 15  1  0
 14 16  1  0
 16 17  1  0
 17 18  2  0
 17 19  1  0
 19 20  1  0
 20 21  1  0
 20 22  2  0
 22 23  1  0
 23 24  2  0
 23 25  1  0
 25 26  1  0
 25 27  1  0
 27 28  1  1
 27 29  1  0
 29 30  2  0
 30 31  1  0
 30 32  1  0
 32 33  1  0
 32 34  2  0
 34 35  1  0
 34 36  1  0
 36 37  1  0
 36 38  2  0
 38 39  1  0
 27 40  1  0
 40 41  1  0
 40 42  1  0
 40 43  1  0
 22  3  1  0
 38 29  1  0
 19  5  2  0
 16  7  1  0
M  CHG  1   4  -1
M  END
>  <UniqueID>  (3) 
33

>  <SMILES>  (3) 
[H]/N=c1\[n-]c2nc3ccccn3c(=O)c2cc1C(=O)N[C@@H](C)c1ccccc1

>  <Energy>  (3) 
62.170780713923214

>  <Genealogy>  (3) 
C[C@H](NC(=O)c1cc2c(=O)n3ccccc3nc2[n-]c1=N)c1ccccc1 (protonated)
[H]/N=c1\[n-]c2nc3ccccn3c(=O)c2cc1C(=O)N[C@@H](C)c1ccccc1 (cis-trans isomerization)
[H]/N=c1\[n-]c2nc3ccccn3c(=O)c2cc1C(=O)N[C@@H](C)c1ccccc1 (3D coordinates assigned)
[H]/N=c1\[n-]c2nc3ccccn3c(=O)c2cc1C(=O)N[C@@H](C)c1ccccc1 (optimized conformer: 62.170780713923214 kcal/mol)

$$$$
untitled_line_10
     RDKit          3D

 44 47  0  0  0  0  0  0  0  0999 V2000
    2.7120    1.4129   -2.9839 H   0  0  0  0  0  0  0  0  0  0  0  0
    2.6905    1.6126   -1.9591 N   0  0  0  0  0  0  0  0  0  0  0  0
    2.1841    0.8070   -1.0744 C   0  0  0  0  0  0  0  0  0  0  0  0
    1.6047   -0.4291   -1.4447 C   0  0  0  0  0  0  0  0  0  0  0  0
    1.4401   -0.8379   -2.8546 C   0  0  0  0  0  0  0  0  0  0  0  0
    0.4884   -0.3574   -3.6064 N   0  0  0  0  0  0  0  0  0  0  0  0
   -0.5174    0.6309   -3.1972 C   0  0  2  0  0  0  0  0  0  0  0  0
    0.0070    1.5545   -2.8659 H   0  0  0  0  0  0  0  0  0  0  0  0
   -1.3882    0.0935   -2.0783 C   0  0  0  0  0  0  0  0  0  0  0  0
   -1.9948   -1.1721   -2.1817 C   0  0  0  0  0  0  0  0  0  0  0  0
   -1.8691   -1.7695   -3.0760 H   0  0  0  0  0  0  0  0  0  0  0  0
   -2.7477   -1.6826   -1.1197 C   0  0  0  0  0  0  0  0  0  0  0  0
   -3.2029   -2.6612   -1.2012 H   0  0  0  0  0  0  0  0  0  0  0  0
   -2.9063   -0.9353    0.0501 C   0  0  0  0  0  0  0  0  0  0  0  0
   -3.4832   -1.3353    0.8737 H   0  0  0  0  0  0  0  0  0  0  0  0
   -2.3196    0.3279    0.1572 C   0  0  0  0  0  0  0  0  0  0  0  0
   -2.4415    0.9047    1.0650 H   0  0  0  0  0  0  0  0  0  0  0  0
   -1.5688    0.8446   -0.9028 C   0  0  0  0  0  0  0  0  0  0  0  0
   -1.1099    1.8195   -0.7967 H   0  0  0  0  0  0  0  0  0  0  0  0
   -1.3753    1.0092   -4.4035 C   0  0  0  0  0  0  0  0  0  0  0  0
   -0.7347    1.4480   -5.1981 H   0  0  0  0  0  0  0  0  0  0  0  0
   -1.8909    0.1159   -4.8167 H   0  0  0  0  0  0  0  0  0  0  0  0
   -2.1365    1.7637   -4.1103 H   0  0  0  0  0  0  0  0  0  0  0  0
    2.3118   -1.7873   -3.3778 O   0  0  0  0  0  0  0  0  0  0  0  0
    2.2283   -2.1021   -4.3372 H   0  0  0  0  0  0  0  0  0  0  0  0
    1.1090   -1.2744   -0.4455 C   0  0  0  0  0  0  0  0  0  0  0  0
    0.6615   -2.2215   -0.7252 H   0  0  0  0  0  0  0  0  0  0  0  0
    1.1342   -0.8708    0.8964 C   0  0  0  0  0  0  0  0  0  0  0  0
    0.5946   -1.6541    1.9321 C   0  0  0  0  0  0  0  0  0  0  0  0
    0.0773   -2.7752    1.6604 O   0  0  0  0  0  0  0  0  0  0  0  0
    0.6286   -1.1983    3.2285 N   0  0  0  0  0  0  0  0  0  0  0  0
    0.1013   -1.9511    4.2490 C   0  0  0  0  0  0  0  0  0  0  0  0
   -0.3528   -2.9168    4.0591 H   0  0  0  0  0  0  0  0  0  0  0  0
    0.1338   -1.4919    5.5676 C   0  0  0  0  0  0  0  0  0  0  0  0
   -0.2851   -2.0929    6.3646 H   0  0  0  0  0  0  0  0  0  0  0  0
    0.7075   -0.2562    5.8509 C   0  0  0  0  0  0  0  0  0  0  0  0
    0.7371    0.1082    6.8696 H   0  0  0  0  0  0  0  0  0  0  0  0
    1.2417    0.5096    4.8187 C   0  0  0  0  0  0  0  0  0  0  0  0
    1.6874    1.4725    5.0374 H   0  0  0  0  0  0  0  0  0  0  0  0
    1.1966    0.0280    3.5061 C   0  0  0  0  0  0  0  0  0  0  0  0
    1.7173    0.7870    2.5082 N   0  0  0  0  0  0  0  0  0  0  0  0
    1.6977    0.3731    1.2182 C   0  0  0  0  0  0  0  0  0  0  0  0
    2.2153    1.1675    0.2407 N   0  0  0  0  0  0  0  0  0  0  0  0
    2.6366    2.0870    0.5088 H   0  0  0  0  0  0  0  0  0  0  0  0
  1  2  1  0
  2  3  2  0
  3  4  1  0
  4  5  1  0
  5  6  2  0
  6  7  1  0
  7  8  1  1
  7  9  1  0
  9 10  2  0
 10 11  1  0
 10 12  1  0
 12 13  1  0
 12 14  2  0
 14 15  1  0
 14 16  1  0
 16 17  1  0
 16 18  2  0
 18 19  1  0
  7 20  1  0
 20 21  1  0
 20 22  1  0
 20 23  1  0
  5 24  1  0
 24 25  1  0
  4 26  2  0
 26 27  1  0
 26 28  1  0
 28 29  1  0
 29 30  2  0
 29 31  1  0
 31 32  1  0
 32 33  1  0
 32 34  2  0
 34 35  1  0
 34 36  1  0
 36 37  1  0
 36 38  2  0
 38 39  1  0
 38 40  1  0
 40 41  2  0
 41 42  1  0
 42 43  1  0
 43 44  1  0
 43  3  1  0
 18  9  1  0
 42 28  2  0
 40 31  1  0
M  END
>  <UniqueID>  (4) 
34

>  <SMILES>  (4) 
[H]/N=c1/[nH]c2nc3ccccn3c(=O)c2cc1/C(O)=N\[C@@H](C)c1ccccc1

>  <Energy>  (4) 
61.86228879105998

>  <Genealogy>  (4) 
C[C@H](N=C(O)c1cc2c(=O)n3ccccc3nc2[nH]c1=N)c1ccccc1 (tautomer)
[H]/N=c1/[nH]c2nc3ccccn3c(=O)c2cc1/C(O)=N\[C@@H](C)c1ccccc1 (cis-trans isomerization)
[H]/N=c1/[nH]c2nc3ccccn3c(=O)c2cc1/C(O)=N\[C@@H](C)c1ccccc1 (3D coordinates assigned)
[H]/N=c1/[nH]c2nc3ccccn3c(=O)c2cc1/C(O)=N\[C@@H](C)c1ccccc1 (optimized conformer: 61.86228879105998 kcal/mol)

$$$$
