untitled_line_13
     RDKit          3D

 62 65  0  0  0  0  0  0  0  0999 V2000
    1.1037    0.3491    5.7840 H   0  0  0  0  0  0  0  0  0  0  0  0
    1.3368   -0.1391    4.9259 O   0  0  0  0  0  0  0  0  0  0  0  0
    2.3327    0.3144    4.0613 C   0  0  0  0  0  0  0  0  0  0  0  0
    2.9998    1.4433    4.3370 C   0  0  0  0  0  0  0  0  0  0  0  0
    2.7611    1.9946    5.2407 H   0  0  0  0  0  0  0  0  0  0  0  0
    4.0743    1.9837    3.4424 C   0  0  0  0  0  0  0  0  0  0  0  0
    4.8906    1.2393    3.3351 H   0  0  0  0  0  0  0  0  0  0  0  0
    4.4954    2.9121    3.8836 H   0  0  0  0  0  0  0  0  0  0  0  0
    3.6521    2.2269    2.4440 H   0  0  0  0  0  0  0  0  0  0  0  0
    2.6279   -0.4471    2.8816 N   0  0  0  0  0  0  0  0  0  0  0  0
    3.3707   -1.6699    3.0427 C   0  0  0  0  0  0  0  0  0  0  0  0
    2.8113   -2.7619    3.7280 C   0  0  0  0  0  0  0  0  0  0  0  0
    1.8055   -2.7042    4.1228 H   0  0  0  0  0  0  0  0  0  0  0  0
    3.5510   -3.9373    3.9009 C   0  0  0  0  0  0  0  0  0  0  0  0
    3.1168   -4.7795    4.4238 H   0  0  0  0  0  0  0  0  0  0  0  0
    4.8554   -4.0237    3.4064 C   0  0  0  0  0  0  0  0  0  0  0  0
    5.4265   -4.9330    3.5441 H   0  0  0  0  0  0  0  0  0  0  0  0
    5.4232   -2.9357    2.7373 C   0  0  0  0  0  0  0  0  0  0  0  0
    6.4351   -2.9998    2.3588 H   0  0  0  0  0  0  0  0  0  0  0  0
    4.6878   -1.7595    2.5634 C   0  0  0  0  0  0  0  0  0  0  0  0
    5.1442   -0.9193    2.0568 H   0  0  0  0  0  0  0  0  0  0  0  0
    1.8704   -0.1562    1.6474 C   0  0  0  0  0  0  0  0  0  0  0  0
    1.6715    0.9403    1.6107 H   0  0  0  0  0  0  0  0  0  0  0  0
    0.5088   -0.8842    1.6577 C   0  0  0  0  0  0  0  0  0  0  0  0
    0.5906   -1.8681    2.1685 H   0  0  0  0  0  0  0  0  0  0  0  0
   -0.2130   -0.2690    2.2405 H   0  0  0  0  0  0  0  0  0  0  0  0
   -0.0530   -1.1179    0.2425 C   0  0  0  0  0  0  0  0  0  0  0  0
   -1.1634   -1.1144    0.3019 H   0  0  0  0  0  0  0  0  0  0  0  0
    0.2576   -2.1304   -0.1065 H   0  0  0  0  0  0  0  0  0  0  0  0
    0.4203   -0.0878   -0.7043 N   0  0  0  0  0  0  0  0  0  0  0  0
    0.2003    0.8523   -0.2985 H   0  0  0  0  0  0  0  0  0  0  0  0
   -0.2698   -0.2239   -1.9754 C   0  0  0  0  0  0  0  0  0  0  0  0
   -0.2387   -1.2918   -2.5759 O   0  0  0  0  0  0  0  0  0  0  0  0
   -1.0306    0.9420   -2.5859 C   0  0  1  0  0  0  0  0  0  0  0  0
   -0.8926    1.8513   -1.9606 H   0  0  0  0  0  0  0  0  0  0  0  0
   -0.5128    1.2437   -3.9225 N   0  0  0  0  0  0  0  0  0  0  0  0
    0.5128    1.4413   -3.8523 H   0  0  0  0  0  0  0  0  0  0  0  0
   -0.6345    0.4140   -4.5454 H   0  0  0  0  0  0  0  0  0  0  0  0
   -2.5469    0.6363   -2.6511 C   0  0  0  0  0  0  0  0  0  0  0  0
   -2.7051   -0.3144   -3.2125 H   0  0  0  0  0  0  0  0  0  0  0  0
   -3.1845    0.4774   -1.2460 C   0  0  0  0  0  0  0  0  0  0  0  0
   -3.3558   -0.5950   -1.0017 H   0  0  0  0  0  0  0  0  0  0  0  0
   -2.5731    0.9543   -0.4495 H   0  0  0  0  0  0  0  0  0  0  0  0
   -4.4742    1.1985   -1.3623 C   0  0  0  0  0  0  0  0  0  0  0  0
   -5.5138    1.2122   -0.4288 C   0  0  0  0  0  0  0  0  0  0  0  0
   -5.4311    0.6591    0.4984 H   0  0  0  0  0  0  0  0  0  0  0  0
   -6.6727    1.9484   -0.7204 C   0  0  0  0  0  0  0  0  0  0  0  0
   -7.4931    1.9644   -0.0140 H   0  0  0  0  0  0  0  0  0  0  0  0
   -6.7755    2.6522   -1.9358 C   0  0  0  0  0  0  0  0  0  0  0  0
   -7.6723    3.2195   -2.1578 H   0  0  0  0  0  0  0  0  0  0  0  0
   -5.7123    2.6360   -2.8532 C   0  0  0  0  0  0  0  0  0  0  0  0
   -5.7808    3.1797   -3.7873 H   0  0  0  0  0  0  0  0  0  0  0  0
   -4.5693    1.8972   -2.5404 C   0  0  0  0  0  0  0  0  0  0  0  0
   -3.3507    1.7486   -3.3717 C   0  0  0  0  0  0  0  0  0  0  0  0
   -3.6122    1.4448   -4.4073 H   0  0  0  0  0  0  0  0  0  0  0  0
   -2.8036    2.7176   -3.3841 H   0  0  0  0  0  0  0  0  0  0  0  0
    1.8868   -0.1750   -0.9132 C   0  0  0  0  0  0  0  0  0  0  0  0
    2.1385   -0.9565   -1.6650 H   0  0  0  0  0  0  0  0  0  0  0  0
    2.2534    0.7872   -1.3294 H   0  0  0  0  0  0  0  0  0  0  0  0
    2.6719   -0.4977    0.3788 C   0  0  0  0  0  0  0  0  0  0  0  0
    3.6298    0.0661    0.3809 H   0  0  0  0  0  0  0  0  0  0  0  0
    2.9132   -1.5822    0.3783 H   0  0  0  0  0  0  0  0  0  0  0  0
  1  2  1  0
  2  3  1  0
  3  4  2  0
  4  5  1  0
  4  6  1  0
  6  7  1  0
  6  8  1  0
  6  9  1  0
  3 10  1  0
 10 11  1  0
 11 12  2  0
 12 13  1  0
 12 14  1  0
 14 15  1  0
 14 16  2  0
 16 17  1  0
 16 18  1  0
 18 19  1  0
 18 20  2  0
 20 21  1  0
 10 22  1  0
 22 23  1  0
 22 24  1  0
 24 25  1  0
 24 26  1  0
 24 27  1  0
 27 28  1  0
 27 29  1  0
 27 30  1  0
 30 31  1  0
 30 32  1  0
 32 33  2  0
 32 34  1  0
 34 35  1  1
 34 36  1  0
 36 37  1  0
 36 38  1  0
 34 39  1  0
 39 40  1  0
 39 41  1  0
 41 42  1  0
 41 43  1  0
 41 44  1  0
 44 45  2  0
 45 46  1  0
 45 47  1  0
 47 48  1  0
 47 49  2  0
 49 50  1  0
 49 51  1  0
 51 52  1  0
 51 53  2  0
 53 54  1  0
 54 55  1  0
 54 56  1  0
 30 57  1  0
 57 58  1  0
 57 59  1  0
 57 60  1  0
 60 61  1  0
 60 62  1  0
 20 11  1  0
 60 22  1  0
 54 39  1  0
 53 44  1  0
M  CHG  1  30   1
M  END
>  <UniqueID>  (1) 
43

>  <SMILES>  (1) 
C/C=C(/O)N(c1ccccc1)C1CC[NH+](C(=O)[C@@H](N)C2Cc3ccccc3C2)CC1

>  <Energy>  (1) 
87.10997352563994

>  <Genealogy>  (1) 
CCC(=O)N(c1ccccc1)C1CC[NH+](C(=O)[C@@H](N)C2Cc3ccccc3C2)CC1 (protonated)
CC=C(O)N(c1ccccc1)C1CC[NH+](C(=O)[C@@H](N)C2Cc3ccccc3C2)CC1 (tautomer)
C/C=C(/O)N(c1ccccc1)C1CC[NH+](C(=O)[C@@H](N)C2Cc3ccccc3C2)CC1 (cis-trans isomerization)
C/C=C(/O)N(c1ccccc1)C1CC[NH+](C(=O)[C@@H](N)C2Cc3ccccc3C2)CC1 (3D coordinates assigned)
C/C=C(/O)N(c1ccccc1)C1CC[NH+](C(=O)[C@@H](N)C2Cc3ccccc3C2)CC1 (nonaromatic ring conformer: 87.10997352563994 kcal/mol)

$$$$
untitled_line_13
     RDKit          3D

 62 65  0  0  0  0  0  0  0  0999 V2000
   -0.5067    0.1663   -4.7892 H   0  0  0  0  0  0  0  0  0  0  0  0
    0.0106    0.1524   -3.9189 O   0  0  0  0  0  0  0  0  0  0  0  0
    1.1182    0.9692   -3.6689 C   0  0  0  0  0  0  0  0  0  0  0  0
    1.5659    1.8532   -4.5782 C   0  0  0  0  0  0  0  0  0  0  0  0
    2.4457    2.4448   -4.3513 H   0  0  0  0  0  0  0  0  0  0  0  0
    0.9063    2.0700   -5.9045 C   0  0  0  0  0  0  0  0  0  0  0  0
    0.9230    1.1325   -6.5001 H   0  0  0  0  0  0  0  0  0  0  0  0
    1.4500    2.8554   -6.4693 H   0  0  0  0  0  0  0  0  0  0  0  0
   -0.1431    2.4023   -5.7556 H   0  0  0  0  0  0  0  0  0  0  0  0
    1.8065    0.8202   -2.4126 N   0  0  0  0  0  0  0  0  0  0  0  0
    2.5759   -0.3882   -2.2753 C   0  0  0  0  0  0  0  0  0  0  0  0
    3.9763   -0.3553   -2.3876 C   0  0  0  0  0  0  0  0  0  0  0  0
    4.4874    0.5835   -2.5588 H   0  0  0  0  0  0  0  0  0  0  0  0
    4.7180   -1.5339   -2.2669 C   0  0  0  0  0  0  0  0  0  0  0  0
    5.7974   -1.5064   -2.3474 H   0  0  0  0  0  0  0  0  0  0  0  0
    4.0663   -2.7511   -2.0490 C   0  0  0  0  0  0  0  0  0  0  0  0
    4.6406   -3.6628   -1.9591 H   0  0  0  0  0  0  0  0  0  0  0  0
    2.6726   -2.7917   -1.9491 C   0  0  0  0  0  0  0  0  0  0  0  0
    2.1716   -3.7368   -1.7842 H   0  0  0  0  0  0  0  0  0  0  0  0
    1.9280   -1.6158   -2.0633 C   0  0  0  0  0  0  0  0  0  0  0  0
    0.8497   -1.6563   -1.9731 H   0  0  0  0  0  0  0  0  0  0  0  0
    2.0501    1.9920   -1.5289 C   0  0  0  0  0  0  0  0  0  0  0  0
    2.8989    2.5770   -1.9493 H   0  0  0  0  0  0  0  0  0  0  0  0
    2.4301    1.5811   -0.0846 C   0  0  0  0  0  0  0  0  0  0  0  0
    2.7634    2.4824    0.4784 H   0  0  0  0  0  0  0  0  0  0  0  0
    3.2887    0.8774   -0.0726 H   0  0  0  0  0  0  0  0  0  0  0  0
    1.2360    0.9521    0.6504 C   0  0  0  0  0  0  0  0  0  0  0  0
    1.5642    0.7110    1.6859 H   0  0  0  0  0  0  0  0  0  0  0  0
    0.9584    0.0076    0.1343 H   0  0  0  0  0  0  0  0  0  0  0  0
    0.0846    1.8819    0.6911 N   0  0  0  0  0  0  0  0  0  0  0  0
    0.3999    2.7527    1.1839 H   0  0  0  0  0  0  0  0  0  0  0  0
   -1.0714    1.3882    1.4363 C   0  0  0  0  0  0  0  0  0  0  0  0
   -1.9658    2.1796    1.7025 O   0  0  0  0  0  0  0  0  0  0  0  0
   -1.2565   -0.0624    1.8894 C   0  0  1  0  0  0  0  0  0  0  0  0
   -0.2974   -0.6133    1.8630 H   0  0  0  0  0  0  0  0  0  0  0  0
   -1.7361   -0.0905    3.2776 N   0  0  0  0  0  0  0  0  0  0  0  0
   -1.6965   -1.0729    3.6311 H   0  0  0  0  0  0  0  0  0  0  0  0
   -1.0660    0.4521    3.8684 H   0  0  0  0  0  0  0  0  0  0  0  0
   -2.2423   -0.7990    0.9384 C   0  0  0  0  0  0  0  0  0  0  0  0
   -1.9227   -0.5973   -0.1103 H   0  0  0  0  0  0  0  0  0  0  0  0
   -2.2270   -2.3403    1.1384 C   0  0  0  0  0  0  0  0  0  0  0  0
   -1.5149   -2.6766    1.9227 H   0  0  0  0  0  0  0  0  0  0  0  0
   -1.9850   -2.8545    0.1831 H   0  0  0  0  0  0  0  0  0  0  0  0
   -3.6180   -2.6680    1.5301 C   0  0  0  0  0  0  0  0  0  0  0  0
   -4.1136   -3.9296    1.8689 C   0  0  0  0  0  0  0  0  0  0  0  0
   -3.4645   -4.7957    1.8725 H   0  0  0  0  0  0  0  0  0  0  0  0
   -5.4687   -4.0533    2.2119 C   0  0  0  0  0  0  0  0  0  0  0  0
   -5.8688   -5.0176    2.4960 H   0  0  0  0  0  0  0  0  0  0  0  0
   -6.3059   -2.9229    2.2043 C   0  0  0  0  0  0  0  0  0  0  0  0
   -7.3498   -3.0179    2.4914 H   0  0  0  0  0  0  0  0  0  0  0  0
   -5.7900   -1.6666    1.8509 C   0  0  0  0  0  0  0  0  0  0  0  0
   -6.4286   -0.7923    1.8437 H   0  0  0  0  0  0  0  0  0  0  0  0
   -4.4381   -1.5672    1.5111 C   0  0  0  0  0  0  0  0  0  0  0  0
   -3.7190   -0.3395    1.1026 C   0  0  0  0  0  0  0  0  0  0  0  0
   -4.1200    0.0254    0.1335 H   0  0  0  0  0  0  0  0  0  0  0  0
   -3.8567    0.4471    1.8762 H   0  0  0  0  0  0  0  0  0  0  0  0
   -0.3349    2.2474   -0.6805 C   0  0  0  0  0  0  0  0  0  0  0  0
   -1.1817    2.9686   -0.6466 H   0  0  0  0  0  0  0  0  0  0  0  0
   -0.6829    1.3450   -1.2321 H   0  0  0  0  0  0  0  0  0  0  0  0
    0.8151    2.9197   -1.4500 C   0  0  0  0  0  0  0  0  0  0  0  0
    1.0982    3.8596   -0.9249 H   0  0  0  0  0  0  0  0  0  0  0  0
    0.4660    3.2209   -2.4596 H   0  0  0  0  0  0  0  0  0  0  0  0
  1  2  1  0
  2  3  1  0
  3  4  2  0
  4  5  1  0
  4  6  1  0
  6  7  1  0
  6  8  1  0
  6  9  1  0
  3 10  1  0
 10 11  1  0
 11 12  2  0
 12 13  1  0
 12 14  1  0
 14 15  1  0
 14 16  2  0
 16 17  1  0
 16 18  1  0
 18 19  1  0
 18 20  2  0
 20 21  1  0
 10 22  1  0
 22 23  1  0
 22 24  1  0
 24 25  1  0
 24 26  1  0
 24 27  1  0
 27 28  1  0
 27 29  1  0
 27 30  1  0
 30 31  1  0
 30 32  1  0
 32 33  2  0
 32 34  1  0
 34 35  1  1
 34 36  1  0
 36 37  1  0
 36 38  1  0
 34 39  1  0
 39 40  1  0
 39 41  1  0
 41 42  1  0
 41 43  1  0
 41 44  1  0
 44 45  2  0
 45 46  1  0
 45 47  1  0
 47 48  1  0
 47 49  2  0
 49 50  1  0
 49 51  1  0
 51 52  1  0
 51 53  2  0
 53 54  1  0
 54 55  1  0
 54 56  1  0
 30 57  1  0
 57 58  1  0
 57 59  1  0
 57 60  1  0
 60 61  1  0
 60 62  1  0
 20 11  1  0
 60 22  1  0
 54 39  1  0
 53 44  1  0
M  CHG  1  30   1
M  END
>  <UniqueID>  (2) 
44

>  <SMILES>  (2) 
C/C=C(\O)N(c1ccccc1)C1CC[NH+](C(=O)[C@@H](N)C2Cc3ccccc3C2)CC1

>  <Energy>  (2) 
87.71038471082977

>  <Genealogy>  (2) 
CCC(=O)N(c1ccccc1)C1CC[NH+](C(=O)[C@@H](N)C2Cc3ccccc3C2)CC1 (protonated)
CC=C(O)N(c1ccccc1)C1CC[NH+](C(=O)[C@@H](N)C2Cc3ccccc3C2)CC1 (tautomer)
C/C=C(\O)N(c1ccccc1)C1CC[NH+](C(=O)[C@@H](N)C2Cc3ccccc3C2)CC1 (cis-trans isomerization)
C/C=C(\O)N(c1ccccc1)C1CC[NH+](C(=O)[C@@H](N)C2Cc3ccccc3C2)CC1 (3D coordinates assigned)
C/C=C(\O)N(c1ccccc1)C1CC[NH+](C(=O)[C@@H](N)C2Cc3ccccc3C2)CC1 (nonaromatic ring conformer: 87.71038471082977 kcal/mol)

$$$$
untitled_line_13
     RDKit          3D

 62 65  0  0  0  0  0  0  0  0999 V2000
    2.2954   -4.2462    3.4742 H   0  0  0  0  0  0  0  0  0  0  0  0
    2.0272   -3.6291    4.2301 O   0  0  0  0  0  0  0  0  0  0  0  0
    1.9683   -2.2479    4.0529 C   0  0  0  0  0  0  0  0  0  0  0  0
    1.6732   -1.4843    5.1122 C   0  0  0  0  0  0  0  0  0  0  0  0
    1.4734   -1.9690    6.0600 H   0  0  0  0  0  0  0  0  0  0  0  0
    1.5813    0.0074    5.0637 C   0  0  0  0  0  0  0  0  0  0  0  0
    1.1903    0.3847    6.0315 H   0  0  0  0  0  0  0  0  0  0  0  0
    0.8912    0.3301    4.2588 H   0  0  0  0  0  0  0  0  0  0  0  0
    2.5870    0.4441    4.9072 H   0  0  0  0  0  0  0  0  0  0  0  0
    2.2229   -1.6873    2.7489 N   0  0  0  0  0  0  0  0  0  0  0  0
    3.5634   -1.2252    2.5063 C   0  0  0  0  0  0  0  0  0  0  0  0
    4.6097   -2.1493    2.3546 C   0  0  0  0  0  0  0  0  0  0  0  0
    4.4071   -3.2115    2.3923 H   0  0  0  0  0  0  0  0  0  0  0  0
    5.9174   -1.7039    2.1430 C   0  0  0  0  0  0  0  0  0  0  0  0
    6.7188   -2.4203    2.0189 H   0  0  0  0  0  0  0  0  0  0  0  0
    6.1907   -0.3345    2.0938 C   0  0  0  0  0  0  0  0  0  0  0  0
    7.2034    0.0095    1.9310 H   0  0  0  0  0  0  0  0  0  0  0  0
    5.1564    0.5908    2.2574 C   0  0  0  0  0  0  0  0  0  0  0  0
    5.3686    1.6512    2.2203 H   0  0  0  0  0  0  0  0  0  0  0  0
    3.8475    0.1479    2.4675 C   0  0  0  0  0  0  0  0  0  0  0  0
    3.0543    0.8736    2.5830 H   0  0  0  0  0  0  0  0  0  0  0  0
    1.3031   -2.0804    1.6512 C   0  0  0  0  0  0  0  0  0  0  0  0
    1.0723   -3.1618    1.7750 H   0  0  0  0  0  0  0  0  0  0  0  0
   -0.0341   -1.3340    1.7617 C   0  0  0  0  0  0  0  0  0  0  0  0
   -0.3717   -1.3116    2.8197 H   0  0  0  0  0  0  0  0  0  0  0  0
   -0.8173   -1.8884    1.2047 H   0  0  0  0  0  0  0  0  0  0  0  0
    0.0637    0.1046    1.2341 C   0  0  0  0  0  0  0  0  0  0  0  0
    0.7282    0.6873    1.9080 H   0  0  0  0  0  0  0  0  0  0  0  0
   -0.9402    0.5794    1.3004 H   0  0  0  0  0  0  0  0  0  0  0  0
    0.5785    0.1897   -0.1506 N   0  0  0  0  0  0  0  0  0  0  0  0
    0.7807    1.2050   -0.3137 H   0  0  0  0  0  0  0  0  0  0  0  0
   -0.4085   -0.2156   -1.1399 C   0  0  0  0  0  0  0  0  0  0  0  0
   -0.7852   -1.3782   -1.1978 O   0  0  0  0  0  0  0  0  0  0  0  0
   -0.9992    0.8094   -2.0982 C   0  0  1  0  0  0  0  0  0  0  0  0
   -0.1645    1.4629   -2.4356 H   0  0  0  0  0  0  0  0  0  0  0  0
   -1.5687    0.1803   -3.2973 N   0  0  0  0  0  0  0  0  0  0  0  0
   -0.8118   -0.3494   -3.7887 H   0  0  0  0  0  0  0  0  0  0  0  0
   -2.3099   -0.5072   -3.0338 H   0  0  0  0  0  0  0  0  0  0  0  0
   -2.0351    1.7209   -1.3864 C   0  0  0  0  0  0  0  0  0  0  0  0
   -1.5163    2.2380   -0.5482 H   0  0  0  0  0  0  0  0  0  0  0  0
   -3.2527    0.9502   -0.8064 C   0  0  0  0  0  0  0  0  0  0  0  0
   -3.3796    1.1828    0.2723 H   0  0  0  0  0  0  0  0  0  0  0  0
   -3.1847   -0.1491   -0.9325 H   0  0  0  0  0  0  0  0  0  0  0  0
   -4.4076    1.4835   -1.5619 C   0  0  0  0  0  0  0  0  0  0  0  0
   -5.7342    1.0582   -1.4652 C   0  0  0  0  0  0  0  0  0  0  0  0
   -6.0092    0.2530   -0.7965 H   0  0  0  0  0  0  0  0  0  0  0  0
   -6.7073    1.6953   -2.2514 C   0  0  0  0  0  0  0  0  0  0  0  0
   -7.7408    1.3805   -2.1909 H   0  0  0  0  0  0  0  0  0  0  0  0
   -6.3414    2.7441   -3.1137 C   0  0  0  0  0  0  0  0  0  0  0  0
   -7.0948    3.2364   -3.7151 H   0  0  0  0  0  0  0  0  0  0  0  0
   -5.0025    3.1574   -3.1929 C   0  0  0  0  0  0  0  0  0  0  0  0
   -4.7152    3.9664   -3.8516 H   0  0  0  0  0  0  0  0  0  0  0  0
   -4.0505    2.5063   -2.4043 C   0  0  0  0  0  0  0  0  0  0  0  0
   -2.6033    2.8079   -2.3376 C   0  0  0  0  0  0  0  0  0  0  0  0
   -2.4572    3.8200   -1.9044 H   0  0  0  0  0  0  0  0  0  0  0  0
   -2.1568    2.7764   -3.3543 H   0  0  0  0  0  0  0  0  0  0  0  0
    1.8703   -0.5099   -0.3290 C   0  0  0  0  0  0  0  0  0  0  0  0
    2.6755    0.0755    0.1556 H   0  0  0  0  0  0  0  0  0  0  0  0
    2.1410   -0.5406   -1.4087 H   0  0  0  0  0  0  0  0  0  0  0  0
    1.8811   -1.9490    0.2218 C   0  0  0  0  0  0  0  0  0  0  0  0
    2.9113   -2.3582    0.1754 H   0  0  0  0  0  0  0  0  0  0  0  0
    1.2826   -2.5905   -0.4592 H   0  0  0  0  0  0  0  0  0  0  0  0
  1  2  1  0
  2  3  1  0
  3  4  2  0
  4  5  1  0
  4  6  1  0
  6  7  1  0
  6  8  1  0
  6  9  1  0
  3 10  1  0
 10 11  1  0
 11 12  2  0
 12 13  1  0
 12 14  1  0
 14 15  1  0
 14 16  2  0
 16 17  1  0
 16 18  1  0
 18 19  1  0
 18 20  2  0
 20 21  1  0
 10 22  1  0
 22 23  1  0
 22 24  1  0
 24 25  1  0
 24 26  1  0
 24 27  1  0
 27 28  1  0
 27 29  1  0
 27 30  1  0
 30 31  1  0
 30 32  1  0
 32 33  2  0
 32 34  1  0
 34 35  1  6
 34 36  1  0
 36 37  1  0
 36 38  1  0
 34 39  1  0
 39 40  1  0
 39 41  1  0
 41 42  1  0
 41 43  1  0
 41 44  1  0
 44 45  2  0
 45 46  1  0
 45 47  1  0
 47 48  1  0
 47 49  2  0
 49 50  1  0
 49 51  1  0
 51 52  1  0
 51 53  2  0
 53 54  1  0
 54 55  1  0
 54 56  1  0
 30 57  1  0
 57 58  1  0
 57 59  1  0
 57 60  1  0
 60 61  1  0
 60 62  1  0
 20 11  1  0
 60 22  1  0
 54 39  1  0
 53 44  1  0
M  CHG  1  30   1
M  END
>  <UniqueID>  (3) 
45

>  <SMILES>  (3) 
C/C=C(/O)N(c1ccccc1)C1CC[NH+](C(=O)[C@@H](N)C2Cc3ccccc3C2)CC1

>  <Energy>  (3) 
90.2272815630874

>  <Genealogy>  (3) 
CCC(=O)N(c1ccccc1)C1CC[NH+](C(=O)[C@@H](N)C2Cc3ccccc3C2)CC1 (protonated)
CC=C(O)N(c1ccccc1)C1CC[NH+](C(=O)[C@@H](N)C2Cc3ccccc3C2)CC1 (tautomer)
C/C=C(/O)N(c1ccccc1)C1CC[NH+](C(=O)[C@@H](N)C2Cc3ccccc3C2)CC1 (cis-trans isomerization)
C/C=C(/O)N(c1ccccc1)C1CC[NH+](C(=O)[C@@H](N)C2Cc3ccccc3C2)CC1 (3D coordinates assigned)
C/C=C(/O)N(c1ccccc1)C1CC[NH+](C(=O)[C@@H](N)C2Cc3ccccc3C2)CC1 (nonaromatic ring conformer: 90.2272815630874 kcal/mol)

$$$$
untitled_line_13
     RDKit          3D

 62 65  0  0  0  0  0  0  0  0999 V2000
    3.2335    1.3957    4.8514 H   0  0  0  0  0  0  0  0  0  0  0  0
    3.1436    0.8441    4.0059 O   0  0  0  0  0  0  0  0  0  0  0  0
    1.9909    0.1134    3.7186 C   0  0  0  0  0  0  0  0  0  0  0  0
    0.9608    0.1182    4.5800 C   0  0  0  0  0  0  0  0  0  0  0  0
    1.0396    0.6986    5.4912 H   0  0  0  0  0  0  0  0  0  0  0  0
   -0.2811   -0.6990    4.3796 C   0  0  0  0  0  0  0  0  0  0  0  0
   -0.9162   -0.6358    5.2876 H   0  0  0  0  0  0  0  0  0  0  0  0
   -0.8687   -0.3148    3.5217 H   0  0  0  0  0  0  0  0  0  0  0  0
   -0.0214   -1.7640    4.2046 H   0  0  0  0  0  0  0  0  0  0  0  0
    1.9485   -0.6531    2.5026 N   0  0  0  0  0  0  0  0  0  0  0  0
    2.8012   -1.8228    2.4117 C   0  0  0  0  0  0  0  0  0  0  0  0
    2.8976   -2.7026    3.5083 C   0  0  0  0  0  0  0  0  0  0  0  0
    2.3250   -2.5239    4.4086 H   0  0  0  0  0  0  0  0  0  0  0  0
    3.7283   -3.8252    3.4537 C   0  0  0  0  0  0  0  0  0  0  0  0
    3.7893   -4.4940    4.3021 H   0  0  0  0  0  0  0  0  0  0  0  0
    4.4803   -4.0843    2.3077 C   0  0  0  0  0  0  0  0  0  0  0  0
    5.1251   -4.9529    2.2678 H   0  0  0  0  0  0  0  0  0  0  0  0
    4.4032   -3.2200    1.2146 C   0  0  0  0  0  0  0  0  0  0  0  0
    4.9907   -3.4189    0.3276 H   0  0  0  0  0  0  0  0  0  0  0  0
    3.5741   -2.0952    1.2638 C   0  0  0  0  0  0  0  0  0  0  0  0
    3.5517   -1.4478    0.4028 H   0  0  0  0  0  0  0  0  0  0  0  0
    1.1914   -0.0876    1.3648 C   0  0  0  0  0  0  0  0  0  0  0  0
    0.3605    0.5299    1.7735 H   0  0  0  0  0  0  0  0  0  0  0  0
    0.5087   -1.1722    0.5173 C   0  0  0  0  0  0  0  0  0  0  0  0
   -0.1478   -1.7926    1.1657 H   0  0  0  0  0  0  0  0  0  0  0  0
    1.2478   -1.8482    0.0432 H   0  0  0  0  0  0  0  0  0  0  0  0
   -0.3361   -0.5180   -0.5876 C   0  0  0  0  0  0  0  0  0  0  0  0
   -1.2717   -0.1408   -0.1155 H   0  0  0  0  0  0  0  0  0  0  0  0
   -0.6623   -1.3215   -1.2864 H   0  0  0  0  0  0  0  0  0  0  0  0
    0.3747    0.5580   -1.3458 N   0  0  0  0  0  0  0  0  0  0  0  0
    0.3687    0.2637   -2.3489 H   0  0  0  0  0  0  0  0  0  0  0  0
   -0.3231    1.8334   -1.2389 C   0  0  0  0  0  0  0  0  0  0  0  0
   -0.5180    2.3234   -0.1344 O   0  0  0  0  0  0  0  0  0  0  0  0
   -0.8214    2.5995   -2.4632 C   0  0  1  0  0  0  0  0  0  0  0  0
   -0.7164    3.6864   -2.2367 H   0  0  0  0  0  0  0  0  0  0  0  0
    0.0046    2.3159   -3.6403 N   0  0  0  0  0  0  0  0  0  0  0  0
   -0.3138    2.9286   -4.4259 H   0  0  0  0  0  0  0  0  0  0  0  0
    0.9866    2.6100   -3.4315 H   0  0  0  0  0  0  0  0  0  0  0  0
   -2.3243    2.3396   -2.7805 C   0  0  0  0  0  0  0  0  0  0  0  0
   -2.5955    2.9617   -3.6634 H   0  0  0  0  0  0  0  0  0  0  0  0
   -2.6394    0.8561   -3.1065 C   0  0  0  0  0  0  0  0  0  0  0  0
   -1.7354    0.2328   -3.2548 H   0  0  0  0  0  0  0  0  0  0  0  0
   -3.2780    0.7887   -4.0138 H   0  0  0  0  0  0  0  0  0  0  0  0
   -3.4170    0.3971   -1.9325 C   0  0  0  0  0  0  0  0  0  0  0  0
   -3.7980   -0.9151   -1.6407 C   0  0  0  0  0  0  0  0  0  0  0  0
   -3.5299   -1.7292   -2.3018 H   0  0  0  0  0  0  0  0  0  0  0  0
   -4.5271   -1.1599   -0.4668 C   0  0  0  0  0  0  0  0  0  0  0  0
   -4.8295   -2.1694   -0.2199 H   0  0  0  0  0  0  0  0  0  0  0  0
   -4.8685   -0.0960    0.3882 C   0  0  0  0  0  0  0  0  0  0  0  0
   -5.4335   -0.2890    1.2910 H   0  0  0  0  0  0  0  0  0  0  0  0
   -4.4825    1.2157    0.0711 C   0  0  0  0  0  0  0  0  0  0  0  0
   -4.7456    2.0396    0.7221 H   0  0  0  0  0  0  0  0  0  0  0  0
   -3.7507    1.4355   -1.0983 C   0  0  0  0  0  0  0  0  0  0  0  0
   -3.2604    2.7368   -1.6092 C   0  0  0  0  0  0  0  0  0  0  0  0
   -4.1245    3.3239   -1.9888 H   0  0  0  0  0  0  0  0  0  0  0  0
   -2.7521    3.3193   -0.8128 H   0  0  0  0  0  0  0  0  0  0  0  0
    1.8084    0.7171   -0.9950 C   0  0  0  0  0  0  0  0  0  0  0  0
    2.2451    1.5930   -1.5255 H   0  0  0  0  0  0  0  0  0  0  0  0
    2.3735   -0.1712   -1.3572 H   0  0  0  0  0  0  0  0  0  0  0  0
    2.0560    0.8724    0.5187 C   0  0  0  0  0  0  0  0  0  0  0  0
    1.8399    1.9204    0.8196 H   0  0  0  0  0  0  0  0  0  0  0  0
    3.1371    0.7291    0.7237 H   0  0  0  0  0  0  0  0  0  0  0  0
  1  2  1  0
  2  3  1  0
  3  4  2  0
  4  5  1  0
  4  6  1  0
  6  7  1  0
  6  8  1  0
  6  9  1  0
  3 10  1  0
 10 11  1  0
 11 12  2  0
 12 13  1  0
 12 14  1  0
 14 15  1  0
 14 16  2  0
 16 17  1  0
 16 18  1  0
 18 19  1  0
 18 20  2  0
 20 21  1  0
 10 22  1  0
 22 23  1  0
 22 24  1  0
 24 25  1  0
 24 26  1  0
 24 27  1  0
 27 28  1  0
 27 29  1  0
 27 30  1  0
 30 31  1  0
 30 32  1  0
 32 33  2  0
 32 34  1  0
 34 35  1  1
 34 36  1  0
 36 37  1  0
 36 38  1  0
 34 39  1  0
 39 40  1  0
 39 41  1  0
 41 42  1  0
 41 43  1  0
 41 44  1  0
 44 45  2  0
 45 46  1  0
 45 47  1  0
 47 48  1  0
 47 49  2  0
 49 50  1  0
 49 51  1  0
 51 52  1  0
 51 53  2  0
 53 54  1  0
 54 55  1  0
 54 56  1  0
 30 57  1  0
 57 58  1  0
 57 59  1  0
 57 60  1  0
 60 61  1  0
 60 62  1  0
 20 11  1  0
 60 22  1  0
 54 39  1  0
 53 44  1  0
M  CHG  1  30   1
M  END
>  <UniqueID>  (4) 
46

>  <SMILES>  (4) 
C/C=C(/O)N(c1ccccc1)C1CC[NH+](C(=O)[C@@H](N)C2Cc3ccccc3C2)CC1

>  <Energy>  (4) 
92.181118023436

>  <Genealogy>  (4) 
CCC(=O)N(c1ccccc1)C1CC[NH+](C(=O)[C@@H](N)C2Cc3ccccc3C2)CC1 (protonated)
CC=C(O)N(c1ccccc1)C1CC[NH+](C(=O)[C@@H](N)C2Cc3ccccc3C2)CC1 (tautomer)
C/C=C(/O)N(c1ccccc1)C1CC[NH+](C(=O)[C@@H](N)C2Cc3ccccc3C2)CC1 (cis-trans isomerization)
C/C=C(/O)N(c1ccccc1)C1CC[NH+](C(=O)[C@@H](N)C2Cc3ccccc3C2)CC1 (3D coordinates assigned)
C/C=C(/O)N(c1ccccc1)C1CC[NH+](C(=O)[C@@H](N)C2Cc3ccccc3C2)CC1 (nonaromatic ring conformer: 92.181118023436 kcal/mol)

$$$$
