untitled_line_6
     RDKit          3D

 43 46  0  0  0  0  0  0  0  0999 V2000
   -0.2782   -0.5216   -1.7484 H   0  0  0  0  0  0  0  0  0  0  0  0
   -1.1740   -0.0571   -1.3483 C   0  0  0  0  0  0  0  0  0  0  0  0
   -1.0836    0.6755   -0.2326 C   0  0  0  0  0  0  0  0  0  0  0  0
   -1.9780    1.0258    0.2696 H   0  0  0  0  0  0  0  0  0  0  0  0
    0.2117    0.8431    0.4490 C   0  0  0  0  0  0  0  0  0  0  0  0
    1.1989    1.5032   -0.2113 N   0  0  0  0  0  0  0  0  0  0  0  0
    2.4145    1.7071    0.3459 C   0  0  0  0  0  0  0  0  0  0  0  0
    3.3977    2.4168   -0.3564 C   0  0  0  0  0  0  0  0  0  0  0  0
    3.1907    2.8050   -1.3462 H   0  0  0  0  0  0  0  0  0  0  0  0
    4.6507    2.6335    0.2223 C   0  0  0  0  0  0  0  0  0  0  0  0
    5.4078    3.1869   -0.3189 H   0  0  0  0  0  0  0  0  0  0  0  0
    4.9276    2.1378    1.5000 C   0  0  0  0  0  0  0  0  0  0  0  0
    5.8998    2.3067    1.9439 H   0  0  0  0  0  0  0  0  0  0  0  0
    3.9520    1.4255    2.2054 C   0  0  0  0  0  0  0  0  0  0  0  0
    4.1895    1.0523    3.1942 H   0  0  0  0  0  0  0  0  0  0  0  0
    2.6829    1.2106    1.6339 C   0  0  0  0  0  0  0  0  0  0  0  0
    1.6634    0.5128    2.3060 C   0  0  0  0  0  0  0  0  0  0  0  0
    1.8904    0.0422    3.4567 O   0  0  0  0  0  0  0  0  0  0  0  0
    0.4318    0.3417    1.7153 N   0  0  0  0  0  0  0  0  0  0  0  0
   -0.6375   -0.4042    2.4216 C   0  0  0  0  0  0  0  0  0  0  0  0
   -1.5365    0.2429    2.5048 H   0  0  0  0  0  0  0  0  0  0  0  0
   -0.3606   -0.6496    3.4684 H   0  0  0  0  0  0  0  0  0  0  0  0
   -0.9647   -1.6979    1.7142 C   0  0  0  0  0  0  0  0  0  0  0  0
    0.0543   -2.6082    1.3846 C   0  0  0  0  0  0  0  0  0  0  0  0
    1.0836   -2.3963    1.6449 H   0  0  0  0  0  0  0  0  0  0  0  0
   -0.2476   -3.7791    0.6821 C   0  0  0  0  0  0  0  0  0  0  0  0
    0.5450   -4.4658    0.4100 H   0  0  0  0  0  0  0  0  0  0  0  0
   -1.5681   -4.0555    0.3143 C   0  0  0  0  0  0  0  0  0  0  0  0
   -1.7972   -4.9510   -0.2473 H   0  0  0  0  0  0  0  0  0  0  0  0
   -2.5884   -3.1622    0.6506 C   0  0  0  0  0  0  0  0  0  0  0  0
   -3.6038   -3.3525    0.3293 H   0  0  0  0  0  0  0  0  0  0  0  0
   -2.2918   -1.9935    1.3564 C   0  0  0  0  0  0  0  0  0  0  0  0
   -3.0911   -1.3002    1.5866 H   0  0  0  0  0  0  0  0  0  0  0  0
   -2.4732   -0.4189   -1.9496 C   0  0  0  0  0  0  0  0  0  0  0  0
   -3.5723    0.4578   -1.9305 C   0  0  0  0  0  0  0  0  0  0  0  0
   -3.4886    1.4454   -1.4953 H   0  0  0  0  0  0  0  0  0  0  0  0
   -4.7529    0.0864   -2.4928 N   0  0  0  0  0  0  0  0  0  0  0  0
   -4.9156   -1.1308   -3.0756 C   0  0  0  0  0  0  0  0  0  0  0  0
   -5.8706   -1.3940   -3.5118 H   0  0  0  0  0  0  0  0  0  0  0  0
   -3.8501   -2.0310   -3.1247 C   0  0  0  0  0  0  0  0  0  0  0  0
   -3.9741   -3.0002   -3.5915 H   0  0  0  0  0  0  0  0  0  0  0  0
   -2.6225   -1.6681   -2.5684 C   0  0  0  0  0  0  0  0  0  0  0  0
   -1.7964   -2.3677   -2.6023 H   0  0  0  0  0  0  0  0  0  0  0  0
  1  2  1  0
  2  3  2  0
  3  4  1  0
  3  5  1  0
  5  6  2  0
  6  7  1  0
  7  8  2  0
  8  9  1  0
  8 10  1  0
 10 11  1  0
 10 12  2  0
 12 13  1  0
 12 14  1  0
 14 15  1  0
 14 16  2  0
 16 17  1  0
 17 18  2  0
 17 19  1  0
 19 20  1  0
 20 21  1  0
 20 22  1  0
 20 23  1  0
 23 24  2  0
 24 25  1  0
 24 26  1  0
 26 27  1  0
 26 28  2  0
 28 29  1  0
 28 30  1  0
 30 31  1  0
 30 32  2  0
 32 33  1  0
  2 34  1  0
 34 35  2  0
 35 36  1  0
 35 37  1  0
 37 38  2  0
 38 39  1  0
 38 40  1  0
 40 41  1  0
 40 42  2  0
 42 43  1  0
 19  5  1  0
 32 23  1  0
 42 34  1  0
 16  7  1  0
M  END
>  <UniqueID>  (1) 
21

>  <SMILES>  (1) 
O=c1c2ccccc2nc(/C=C/c2cccnc2)n1Cc1ccccc1

>  <Energy>  (1) 
63.16010530317465

>  <Genealogy>  (1) 
O=c1c2ccccc2nc(/C=C/c2cccnc2)n1Cc1ccccc1 (cis-trans isomerization)
O=c1c2ccccc2nc(/C=C/c2cccnc2)n1Cc1ccccc1 (3D coordinates assigned)
O=c1c2ccccc2nc(/C=C/c2cccnc2)n1Cc1ccccc1 (optimized conformer: 63.16010530317465 kcal/mol)

$$$$
