JBHRSOAXAGIKHA-ZYTNAAKSNA-N
     RDKit          3D

 41 42  0  0  0  0  0  0  0  0999 V2000
  137.3530   72.6360  223.6230 H   0  0  0  0  0  0  0  0  0  0  0  0
  137.4490   72.6440  222.6150 O   0  0  0  0  0  0  0  0  0  0  0  0
  138.1140   73.6860  221.9710 C   0  0  0  0  0  0  0  0  0  0  0  0
  139.5240   73.5710  221.7430 N   0  0  0  0  0  0  0  0  0  0  0  0
  140.3940   73.0470  222.7100 N   0  0  0  0  0  0  0  0  0  0  0  0
  140.5460   71.7690  222.8510 C   0  0  0  0  0  0  0  0  0  0  0  0
  140.9274   71.1714  222.0099 H   0  0  0  0  0  0  0  0  0  0  0  0
  140.2140   71.1040  224.1260 C   0  0  0  0  0  0  0  0  0  0  0  0
  139.4220   69.9420  224.1570 C   0  0  0  0  0  0  0  0  0  0  0  0
  139.0407   69.5140  223.2182 H   0  0  0  0  0  0  0  0  0  0  0  0
  139.1180   69.3300  225.3730 C   0  0  0  0  0  0  0  0  0  0  0  0
  138.4926   68.4253  225.3900 H   0  0  0  0  0  0  0  0  0  0  0  0
  139.6050   69.8620  226.5690 C   0  0  0  0  0  0  0  0  0  0  0  0
  139.3514   69.3802  227.5248 H   0  0  0  0  0  0  0  0  0  0  0  0
  140.4170   71.0090  226.5590 C   0  0  0  0  0  0  0  0  0  0  0  0
  140.9020   71.6130  227.8520 C   0  0  0  0  0  0  0  0  0  0  0  0
  141.5560   70.6640  228.6180 F   0  0  0  0  0  0  0  0  0  0  0  0
  139.8410   72.1080  228.5920 F   0  0  0  0  0  0  0  0  0  0  0  0
  141.7770   72.6460  227.5720 F   0  0  0  0  0  0  0  0  0  0  0  0
  140.6960   71.6370  225.3320 C   0  0  0  0  0  0  0  0  0  0  0  0
  141.2991   72.5568  225.3170 H   0  0  0  0  0  0  0  0  0  0  0  0
  137.4360   74.7750  221.5860 C   0  0  0  0  0  0  0  0  0  0  0  0
  137.1180   74.8636  220.5367 H   0  0  0  0  0  0  0  0  0  0  0  0
  137.0970   75.8810  222.5490 C   0  0  0  0  0  0  0  0  0  0  0  0
  136.0259   75.8220  222.7923 H   0  0  0  0  0  0  0  0  0  0  0  0
  137.7209   75.7492  223.4453 H   0  0  0  0  0  0  0  0  0  0  0  0
  137.3950   77.2680  221.9710 C   0  0  0  0  0  0  0  0  0  0  0  0
  138.1842   77.1803  221.2097 H   0  0  0  0  0  0  0  0  0  0  0  0
  136.4748   77.6695  221.5214 H   0  0  0  0  0  0  0  0  0  0  0  0
  137.8320   78.1600  223.0000 O   0  0  0  0  0  0  0  0  0  0  0  0
  139.1250   78.6940  223.1140 C   0  0  0  0  0  0  0  0  0  0  0  0
  140.2640   77.9950  222.6710 C   0  0  0  0  0  0  0  0  0  0  0  0
  140.1522   77.0018  222.2116 H   0  0  0  0  0  0  0  0  0  0  0  0
  141.5370   78.5570  222.8120 C   0  0  0  0  0  0  0  0  0  0  0  0
  142.4225   78.0045  222.4648 H   0  0  0  0  0  0  0  0  0  0  0  0
  141.6860   79.8190  223.3930 C   0  0  0  0  0  0  0  0  0  0  0  0
  143.2850   80.5140  223.5860 Cl  0  0  0  0  0  0  0  0  0  0  0  0
  140.5590   80.5290  223.8160 C   0  0  0  0  0  0  0  0  0  0  0  0
  140.6759   81.5263  224.2651 H   0  0  0  0  0  0  0  0  0  0  0  0
  139.2820   79.9750  223.6700 C   0  0  0  0  0  0  0  0  0  0  0  0
  137.8820   80.8820  224.2230 Cl  0  0  0  0  0  0  0  0  0  0  0  0
  1  2  1  0
  2  3  1  0
  3  4  1  0
  4  5  1  0
  5  6  2  0
  6  7  1  0
  6  8  1  0
  8  9  2  0
  9 10  1  0
  9 11  1  0
 11 12  1  0
 11 13  2  0
 13 14  1  0
 13 15  1  0
 15 16  1  0
 16 17  1  0
 16 18  1  0
 16 19  1  0
 15 20  2  0
 20 21  1  0
  3 22  2  0
 22 23  1  0
 22 24  1  0
 24 25  1  0
 24 26  1  0
 24 27  1  0
 27 28  1  0
 27 29  1  0
 27 30  1  0
 30 31  1  0
 31 32  2  0
 32 33  1  0
 32 34  1  0
 34 35  1  0
 34 36  2  0
 36 37  1  0
 36 38  1  0
 38 39  1  0
 38 40  2  0
 40 41  1  0
 20  8  1  0
 40 31  1  0
M  CHG  1   4  -1
M  END
>  <UniqueID>  (1) 
17

>  <SMILES>  (1) 
O/C(=C\CCOc1ccc(Cl)cc1Cl)[N-]/N=C/c1cccc(C(F)(F)F)c1

>  <Energy>  (1) 
36.18669450691413

>  <Genealogy>  (1) 
O=C(CCCOc1ccc(Cl)cc1Cl)[N-]N=Cc1cccc(C(F)(F)F)c1 (protonated)
OC(=CCCOc1ccc(Cl)cc1Cl)[N-]N=Cc1cccc(C(F)(F)F)c1 (tautomer)
O/C(=C\CCOc1ccc(Cl)cc1Cl)[N-]/N=C/c1cccc(C(F)(F)F)c1 (cis-trans isomerization)
O/C(=C\CCOc1ccc(Cl)cc1Cl)[N-]/N=C/c1cccc(C(F)(F)F)c1 (3D coordinates assigned)
O/C(=C\CCOc1ccc(Cl)cc1Cl)[N-]/N=C/c1cccc(C(F)(F)F)c1 (optimized conformer: 36.18669450691413 kcal/mol)

>  <smiles>  (1) 
O=C(CCCOc1ccc(Cl)cc1Cl)NN=Cc1cccc(C(F)(F)F)c1

>  <score_type>  (1) 
oracle

>  <origin>  (1) 
autodockgpu

>  <m_score__min__energy>  (1) 
-7.1100000000000003

>  <m_primary>  (1) 
energy

>  <meeko>  (1) 
{"free_energy": -6.44, "intermolecular_energy": -9.72, "internal_energy": -0.74, "cluster_size": 9, "cluster_id": 1, "rank_in_cluster": 4}

>  <energy>  (1) 
-7.11

>  <cluster_rmsd>  (1) 
0.0

>  <rmsd>  (1) 
273.04

>  <cluster>  (1) 
1

$$$$
JBHRSOAXAGIKHA-ZYTNAAKSNA-N
     RDKit          3D

 41 42  0  0  0  0  0  0  0  0999 V2000
  142.0240   75.9630  221.9640 H   0  0  0  0  0  0  0  0  0  0  0  0
  141.0660   75.9880  222.2920 O   0  0  0  0  0  0  0  0  0  0  0  0
  140.3840   71.7400  222.7480 C   0  0  0  0  0  0  0  0  0  0  0  0
  139.7270   73.9560  222.3270 N   0  0  0  0  0  0  0  0  0  0  0  0
  140.6840   72.9980  222.6890 N   0  0  0  0  0  0  0  0  0  0  0  0
  139.5140   75.5820  220.5530 C   0  0  0  0  0  0  0  0  0  0  0  0
  139.4313   76.6572  220.3360 H   0  0  0  0  0  0  0  0  0  0  0  0
  140.1510   71.0770  224.0470 C   0  0  0  0  0  0  0  0  0  0  0  0
  139.4210   69.8780  224.1310 C   0  0  0  0  0  0  0  0  0  0  0  0
  139.0149   69.4185  223.2178 H   0  0  0  0  0  0  0  0  0  0  0  0
  139.2100   69.2690  225.3690 C   0  0  0  0  0  0  0  0  0  0  0  0
  138.6329   68.3344  225.4288 H   0  0  0  0  0  0  0  0  0  0  0  0
  139.7290   69.8420  226.5320 C   0  0  0  0  0  0  0  0  0  0  0  0
  139.5499   69.3617  227.5053 H   0  0  0  0  0  0  0  0  0  0  0  0
  140.4790   71.0290  226.4660 C   0  0  0  0  0  0  0  0  0  0  0  0
  140.9980   71.6750  227.7260 C   0  0  0  0  0  0  0  0  0  0  0  0
  141.9180   72.6630  227.4230 F   0  0  0  0  0  0  0  0  0  0  0  0
  141.6180   70.7410  228.5390 F   0  0  0  0  0  0  0  0  0  0  0  0
  139.9410   72.2400  228.4160 F   0  0  0  0  0  0  0  0  0  0  0  0
  140.6640   71.6520  225.2200 C   0  0  0  0  0  0  0  0  0  0  0  0
  141.2172   72.6011  225.1634 H   0  0  0  0  0  0  0  0  0  0  0  0
  140.0890   75.1920  221.6980 C   0  0  0  0  0  0  0  0  0  0  0  0
  140.3016   71.1574  221.8186 H   0  0  0  0  0  0  0  0  0  0  0  0
  138.9780   74.5920  219.5550 C   0  0  0  0  0  0  0  0  0  0  0  0
  138.0642   74.1366  219.9645 H   0  0  0  0  0  0  0  0  0  0  0  0
  138.7729   75.1344  218.6203 H   0  0  0  0  0  0  0  0  0  0  0  0
  139.9840   73.4800  219.2400 C   0  0  0  0  0  0  0  0  0  0  0  0
  140.1272   72.8579  220.1358 H   0  0  0  0  0  0  0  0  0  0  0  0
  139.5914   72.8713  218.4122 H   0  0  0  0  0  0  0  0  0  0  0  0
  141.2430   74.0350  218.8470 O   0  0  0  0  0  0  0  0  0  0  0  0
  142.4590   73.8400  219.5200 C   0  0  0  0  0  0  0  0  0  0  0  0
  142.8420   72.5810  220.0230 C   0  0  0  0  0  0  0  0  0  0  0  0
  142.1814   71.7124  219.8845 H   0  0  0  0  0  0  0  0  0  0  0  0
  144.0570   72.4300  220.6970 C   0  0  0  0  0  0  0  0  0  0  0  0
  144.3486   71.4442  221.0883 H   0  0  0  0  0  0  0  0  0  0  0  0
  144.9020   73.5280  220.8750 C   0  0  0  0  0  0  0  0  0  0  0  0
  146.4180   73.3390  221.7380 Cl  0  0  0  0  0  0  0  0  0  0  0  0
  144.5400   74.7760  220.3610 C   0  0  0  0  0  0  0  0  0  0  0  0
  145.2095   75.6387  220.4938 H   0  0  0  0  0  0  0  0  0  0  0  0
  143.3290   74.9320  219.6780 C   0  0  0  0  0  0  0  0  0  0  0  0
  142.8900   76.5150  219.0540 Cl  0  0  0  0  0  0  0  0  0  0  0  0
  1  2  1  0
  2  3  1  0
  3  4  1  0
  4  5  1  0
  5  6  2  0
  6  7  1  0
  6  8  1  0
  8  9  2  0
  9 10  1  0
  9 11  1  0
 11 12  1  0
 11 13  2  0
 13 14  1  0
 13 15  1  0
 15 16  1  0
 16 17  1  0
 16 18  1  0
 16 19  1  0
 15 20  2  0
 20 21  1  0
  3 22  2  0
 22 23  1  0
 22 24  1  0
 24 25  1  0
 24 26  1  0
 24 27  1  0
 27 28  1  0
 27 29  1  0
 27 30  1  0
 30 31  1  0
 31 32  2  0
 32 33  1  0
 32 34  1  0
 34 35  1  0
 34 36  2  0
 36 37  1  0
 36 38  1  0
 38 39  1  0
 38 40  2  0
 40 41  1  0
 20  8  1  0
 40 31  1  0
M  CHG  1   4  -1
M  END
>  <UniqueID>  (2) 
17

>  <SMILES>  (2) 
O/C(=C\CCOc1ccc(Cl)cc1Cl)[N-]/N=C/c1cccc(C(F)(F)F)c1

>  <Energy>  (2) 
36.18669450691413

>  <Genealogy>  (2) 
O=C(CCCOc1ccc(Cl)cc1Cl)[N-]N=Cc1cccc(C(F)(F)F)c1 (protonated)
OC(=CCCOc1ccc(Cl)cc1Cl)[N-]N=Cc1cccc(C(F)(F)F)c1 (tautomer)
O/C(=C\CCOc1ccc(Cl)cc1Cl)[N-]/N=C/c1cccc(C(F)(F)F)c1 (cis-trans isomerization)
O/C(=C\CCOc1ccc(Cl)cc1Cl)[N-]/N=C/c1cccc(C(F)(F)F)c1 (3D coordinates assigned)
O/C(=C\CCOc1ccc(Cl)cc1Cl)[N-]/N=C/c1cccc(C(F)(F)F)c1 (optimized conformer: 36.18669450691413 kcal/mol)

>  <smiles>  (2) 
O=C(CCCOc1ccc(Cl)cc1Cl)NN=Cc1cccc(C(F)(F)F)c1

>  <score_type>  (2) 
oracle

>  <origin>  (2) 
autodockgpu

>  <m_score__min__energy>  (2) 
-7.1100000000000003

>  <m_primary>  (2) 
energy

>  <meeko>  (2) 
{"free_energy": -6.32, "intermolecular_energy": -9.6, "internal_energy": -1.46, "cluster_size": 5, "cluster_id": 3, "rank_in_cluster": 2}

>  <energy>  (2) 
-6.52

>  <cluster_rmsd>  (2) 
1.84

>  <rmsd>  (2) 
273.15

>  <cluster>  (2) 
1

$$$$
JBHRSOAXAGIKHA-ZYTNAAKSNA-N
     RDKit          3D

 41 42  0  0  0  0  0  0  0  0999 V2000
  138.8000   74.3430  222.8710 H   0  0  0  0  0  0  0  0  0  0  0  0
  139.5380   74.6440  222.2480 O   0  0  0  0  0  0  0  0  0  0  0  0
  139.6610   70.6660  223.5440 C   0  0  0  0  0  0  0  0  0  0  0  0
  140.7300   72.5620  222.6610 N   0  0  0  0  0  0  0  0  0  0  0  0
  139.6200   71.9210  223.2290 N   0  0  0  0  0  0  0  0  0  0  0  0
  141.5150   74.1700  221.0370 C   0  0  0  0  0  0  0  0  0  0  0  0
  141.4980   75.1996  220.6500 H   0  0  0  0  0  0  0  0  0  0  0  0
  139.9920   70.2410  224.9190 C   0  0  0  0  0  0  0  0  0  0  0  0
  139.9360   68.8870  225.2950 C   0  0  0  0  0  0  0  0  0  0  0  0
  139.6435   68.1253  224.5573 H   0  0  0  0  0  0  0  0  0  0  0  0
  140.2500   68.5060  226.6000 C   0  0  0  0  0  0  0  0  0  0  0  0
  140.1983   67.4459  226.8891 H   0  0  0  0  0  0  0  0  0  0  0  0
  140.6300   69.4670  227.5410 C   0  0  0  0  0  0  0  0  0  0  0  0
  140.8653   69.1611  228.5711 H   0  0  0  0  0  0  0  0  0  0  0  0
  140.7130   70.8220  227.1780 C   0  0  0  0  0  0  0  0  0  0  0  0
  141.0750   71.8660  228.2050 C   0  0  0  0  0  0  0  0  0  0  0  0
  142.0290   71.3770  229.0810 F   0  0  0  0  0  0  0  0  0  0  0  0
  139.9630   72.2370  228.9410 F   0  0  0  0  0  0  0  0  0  0  0  0
  141.5820   72.9800  227.5620 F   0  0  0  0  0  0  0  0  0  0  0  0
  140.3680   71.2020  225.8690 C   0  0  0  0  0  0  0  0  0  0  0  0
  140.3932   72.2649  225.5868 H   0  0  0  0  0  0  0  0  0  0  0  0
  140.6110   73.8050  221.9550 C   0  0  0  0  0  0  0  0  0  0  0  0
  139.4465   69.9065  222.7777 H   0  0  0  0  0  0  0  0  0  0  0  0
  142.5530   73.2120  220.5200 C   0  0  0  0  0  0  0  0  0  0  0  0
  143.1410   73.7161  219.7389 H   0  0  0  0  0  0  0  0  0  0  0  0
  143.1844   72.9114  221.3691 H   0  0  0  0  0  0  0  0  0  0  0  0
  141.9330   71.9430  219.9270 C   0  0  0  0  0  0  0  0  0  0  0  0
  141.8983   71.1624  220.7012 H   0  0  0  0  0  0  0  0  0  0  0  0
  140.9175   72.1770  219.5749 H   0  0  0  0  0  0  0  0  0  0  0  0
  142.7060   71.4720  218.8200 O   0  0  0  0  0  0  0  0  0  0  0  0
  143.5210   70.3290  218.8290 C   0  0  0  0  0  0  0  0  0  0  0  0
  143.0060   69.0420  218.5820 C   0  0  0  0  0  0  0  0  0  0  0  0
  141.9353   68.9132  218.3652 H   0  0  0  0  0  0  0  0  0  0  0  0
  143.8490   67.9270  218.6110 C   0  0  0  0  0  0  0  0  0  0  0  0
  143.4394   66.9241  218.4201 H   0  0  0  0  0  0  0  0  0  0  0  0
  145.2110   68.0840  218.8820 C   0  0  0  0  0  0  0  0  0  0  0  0
  146.2630   66.6810  218.9350 Cl  0  0  0  0  0  0  0  0  0  0  0  0
  145.7340   69.3600  219.1070 C   0  0  0  0  0  0  0  0  0  0  0  0
  146.8075   69.4839  219.3124 H   0  0  0  0  0  0  0  0  0  0  0  0
  144.8970   70.4810  219.0720 C   0  0  0  0  0  0  0  0  0  0  0  0
  145.5770   72.0730  219.3730 Cl  0  0  0  0  0  0  0  0  0  0  0  0
  1  2  1  0
  2  3  1  0
  3  4  1  0
  4  5  1  0
  5  6  2  0
  6  7  1  0
  6  8  1  0
  8  9  2  0
  9 10  1  0
  9 11  1  0
 11 12  1  0
 11 13  2  0
 13 14  1  0
 13 15  1  0
 15 16  1  0
 16 17  1  0
 16 18  1  0
 16 19  1  0
 15 20  2  0
 20 21  1  0
  3 22  2  0
 22 23  1  0
 22 24  1  0
 24 25  1  0
 24 26  1  0
 24 27  1  0
 27 28  1  0
 27 29  1  0
 27 30  1  0
 30 31  1  0
 31 32  2  0
 32 33  1  0
 32 34  1  0
 34 35  1  0
 34 36  2  0
 36 37  1  0
 36 38  1  0
 38 39  1  0
 38 40  2  0
 40 41  1  0
 20  8  1  0
 40 31  1  0
M  CHG  1   4  -1
M  END
>  <UniqueID>  (3) 
17

>  <SMILES>  (3) 
O/C(=C\CCOc1ccc(Cl)cc1Cl)[N-]/N=C/c1cccc(C(F)(F)F)c1

>  <Energy>  (3) 
36.18669450691413

>  <Genealogy>  (3) 
O=C(CCCOc1ccc(Cl)cc1Cl)[N-]N=Cc1cccc(C(F)(F)F)c1 (protonated)
OC(=CCCOc1ccc(Cl)cc1Cl)[N-]N=Cc1cccc(C(F)(F)F)c1 (tautomer)
O/C(=C\CCOc1ccc(Cl)cc1Cl)[N-]/N=C/c1cccc(C(F)(F)F)c1 (cis-trans isomerization)
O/C(=C\CCOc1ccc(Cl)cc1Cl)[N-]/N=C/c1cccc(C(F)(F)F)c1 (3D coordinates assigned)
O/C(=C\CCOc1ccc(Cl)cc1Cl)[N-]/N=C/c1cccc(C(F)(F)F)c1 (optimized conformer: 36.18669450691413 kcal/mol)

>  <smiles>  (3) 
O=C(CCCOc1ccc(Cl)cc1Cl)NN=Cc1cccc(C(F)(F)F)c1

>  <score_type>  (3) 
oracle

>  <origin>  (3) 
autodockgpu

>  <m_score__min__energy>  (3) 
-7.1100000000000003

>  <m_primary>  (3) 
energy

>  <meeko>  (3) 
{"free_energy": -5.98, "intermolecular_energy": -9.26, "internal_energy": -0.97, "cluster_size": 1, "cluster_id": 4, "rank_in_cluster": 1}

>  <energy>  (3) 
-6.47

>  <cluster_rmsd>  (3) 
1.24

>  <rmsd>  (3) 
273.07

>  <cluster>  (3) 
1

$$$$
JBHRSOAXAGIKHA-ZYTNAAKSNA-N
     RDKit          3D

 41 42  0  0  0  0  0  0  0  0999 V2000
  139.1480   75.3400  223.6340 H   0  0  0  0  0  0  0  0  0  0  0  0
  139.4540   75.6400  222.7180 O   0  0  0  0  0  0  0  0  0  0  0  0
  140.3810   71.5030  223.0100 C   0  0  0  0  0  0  0  0  0  0  0  0
  139.4640   73.3520  221.8880 N   0  0  0  0  0  0  0  0  0  0  0  0
  140.3230   72.7850  222.8400 N   0  0  0  0  0  0  0  0  0  0  0  0
  139.3950   75.2430  220.3860 C   0  0  0  0  0  0  0  0  0  0  0  0
  138.4691   75.7117  220.0213 H   0  0  0  0  0  0  0  0  0  0  0  0
  140.2210   70.9100  224.3520 C   0  0  0  0  0  0  0  0  0  0  0  0
  139.6040   69.6580  224.5260 C   0  0  0  0  0  0  0  0  0  0  0  0
  139.2325   69.1045  223.6510 H   0  0  0  0  0  0  0  0  0  0  0  0
  139.4610   69.1150  225.8030 C   0  0  0  0  0  0  0  0  0  0  0  0
  138.9735   68.1373  225.9316 H   0  0  0  0  0  0  0  0  0  0  0  0
  139.9350   69.8090  226.9190 C   0  0  0  0  0  0  0  0  0  0  0  0
  139.8072   69.3807  227.9241 H   0  0  0  0  0  0  0  0  0  0  0  0
  140.5740   71.0510  226.7650 C   0  0  0  0  0  0  0  0  0  0  0  0
  141.0430   71.8240  227.9720 C   0  0  0  0  0  0  0  0  0  0  0  0
  139.9630   72.2680  228.7150 F   0  0  0  0  0  0  0  0  0  0  0  0
  141.7880   72.9270  227.5910 F   0  0  0  0  0  0  0  0  0  0  0  0
  141.8260   71.0030  228.7630 F   0  0  0  0  0  0  0  0  0  0  0  0
  140.6900   71.6050  225.4780 C   0  0  0  0  0  0  0  0  0  0  0  0
  141.1536   72.5945  225.3519 H   0  0  0  0  0  0  0  0  0  0  0  0
  139.4330   74.7630  221.6360 C   0  0  0  0  0  0  0  0  0  0  0  0
  140.5517   70.8474  222.1434 H   0  0  0  0  0  0  0  0  0  0  0  0
  140.5830   75.1590  219.4670 C   0  0  0  0  0  0  0  0  0  0  0  0
  140.9479   74.1214  219.4551 H   0  0  0  0  0  0  0  0  0  0  0  0
  140.2577   75.4830  218.4674 H   0  0  0  0  0  0  0  0  0  0  0  0
  141.7270   76.0780  219.9070 C   0  0  0  0  0  0  0  0  0  0  0  0
  142.0260   75.8167  220.9328 H   0  0  0  0  0  0  0  0  0  0  0  0
  142.5734   75.9444  219.2172 H   0  0  0  0  0  0  0  0  0  0  0  0
  141.3170   77.4470  219.8720 O   0  0  0  0  0  0  0  0  0  0  0  0
  141.5260   78.3820  220.8990 C   0  0  0  0  0  0  0  0  0  0  0  0
  141.4050   78.0390  222.2590 C   0  0  0  0  0  0  0  0  0  0  0  0
  141.1470   77.0079  222.5424 H   0  0  0  0  0  0  0  0  0  0  0  0
  141.6110   79.0020  223.2510 C   0  0  0  0  0  0  0  0  0  0  0  0
  141.5130   78.7268  224.3115 H   0  0  0  0  0  0  0  0  0  0  0  0
  141.9410   80.3130  222.8990 C   0  0  0  0  0  0  0  0  0  0  0  0
  142.1810   81.5230  224.1460 Cl  0  0  0  0  0  0  0  0  0  0  0  0
  142.0850   80.6570  221.5520 C   0  0  0  0  0  0  0  0  0  0  0  0
  142.3542   81.6870  221.2750 H   0  0  0  0  0  0  0  0  0  0  0  0
  141.8880   79.6960  220.5550 C   0  0  0  0  0  0  0  0  0  0  0  0
  142.0600   80.1580  218.8680 Cl  0  0  0  0  0  0  0  0  0  0  0  0
  1  2  1  0
  2  3  1  0
  3  4  1  0
  4  5  1  0
  5  6  2  0
  6  7  1  0
  6  8  1  0
  8  9  2  0
  9 10  1  0
  9 11  1  0
 11 12  1  0
 11 13  2  0
 13 14  1  0
 13 15  1  0
 15 16  1  0
 16 17  1  0
 16 18  1  0
 16 19  1  0
 15 20  2  0
 20 21  1  0
  3 22  2  0
 22 23  1  0
 22 24  1  0
 24 25  1  0
 24 26  1  0
 24 27  1  0
 27 28  1  0
 27 29  1  0
 27 30  1  0
 30 31  1  0
 31 32  2  0
 32 33  1  0
 32 34  1  0
 34 35  1  0
 34 36  2  0
 36 37  1  0
 36 38  1  0
 38 39  1  0
 38 40  2  0
 40 41  1  0
 20  8  1  0
 40 31  1  0
M  CHG  1   4  -1
M  END
>  <UniqueID>  (4) 
17

>  <SMILES>  (4) 
O/C(=C\CCOc1ccc(Cl)cc1Cl)[N-]/N=C/c1cccc(C(F)(F)F)c1

>  <Energy>  (4) 
36.18669450691413

>  <Genealogy>  (4) 
O=C(CCCOc1ccc(Cl)cc1Cl)[N-]N=Cc1cccc(C(F)(F)F)c1 (protonated)
OC(=CCCOc1ccc(Cl)cc1Cl)[N-]N=Cc1cccc(C(F)(F)F)c1 (tautomer)
O/C(=C\CCOc1ccc(Cl)cc1Cl)[N-]/N=C/c1cccc(C(F)(F)F)c1 (cis-trans isomerization)
O/C(=C\CCOc1ccc(Cl)cc1Cl)[N-]/N=C/c1cccc(C(F)(F)F)c1 (3D coordinates assigned)
O/C(=C\CCOc1ccc(Cl)cc1Cl)[N-]/N=C/c1cccc(C(F)(F)F)c1 (optimized conformer: 36.18669450691413 kcal/mol)

>  <smiles>  (4) 
O=C(CCCOc1ccc(Cl)cc1Cl)NN=Cc1cccc(C(F)(F)F)c1

>  <score_type>  (4) 
oracle

>  <origin>  (4) 
autodockgpu

>  <m_score__min__energy>  (4) 
-7.1100000000000003

>  <m_primary>  (4) 
energy

>  <meeko>  (4) 
{"free_energy": -6.41, "intermolecular_energy": -9.69, "internal_energy": -0.85, "cluster_size": 9, "cluster_id": 1, "rank_in_cluster": 5}

>  <energy>  (4) 
-6.44

>  <cluster_rmsd>  (4) 
1.66

>  <rmsd>  (4) 
272.77

>  <cluster>  (4) 
1

$$$$
JBHRSOAXAGIKHA-ZYTNAAKSNA-N
     RDKit          3D

 41 42  0  0  0  0  0  0  0  0999 V2000
  141.8040   75.3670  221.9970 H   0  0  0  0  0  0  0  0  0  0  0  0
  140.8520   75.4800  222.3180 O   0  0  0  0  0  0  0  0  0  0  0  0
  139.8680   74.5550  221.9730 C   0  0  0  0  0  0  0  0  0  0  0  0
  140.1790   73.1580  222.0370 N   0  0  0  0  0  0  0  0  0  0  0  0
  140.7080   72.5660  223.1930 N   0  0  0  0  0  0  0  0  0  0  0  0
  140.1450   71.5330  223.7330 C   0  0  0  0  0  0  0  0  0  0  0  0
  139.4282   70.9375  223.1485 H   0  0  0  0  0  0  0  0  0  0  0  0
  140.4530   71.1440  225.1240 C   0  0  0  0  0  0  0  0  0  0  0  0
  140.8420   72.1020  226.0780 C   0  0  0  0  0  0  0  0  0  0  0  0
  140.9187   73.1611  225.7910 H   0  0  0  0  0  0  0  0  0  0  0  0
  141.1310   71.7140  227.3870 C   0  0  0  0  0  0  0  0  0  0  0  0
  141.4400   72.4673  228.1267 H   0  0  0  0  0  0  0  0  0  0  0  0
  141.0290   70.3710  227.7610 C   0  0  0  0  0  0  0  0  0  0  0  0
  141.2695   70.0704  228.7914 H   0  0  0  0  0  0  0  0  0  0  0  0
  140.6210   69.4030  226.8280 C   0  0  0  0  0  0  0  0  0  0  0  0
  140.5590   67.9470  227.2170 C   0  0  0  0  0  0  0  0  0  0  0  0
  139.2550   67.4860  227.1690 F   0  0  0  0  0  0  0  0  0  0  0  0
  141.0360   67.7610  228.5030 F   0  0  0  0  0  0  0  0  0  0  0  0
  141.3300   67.2080  226.3390 F   0  0  0  0  0  0  0  0  0  0  0  0
  140.3580   69.7970  225.5040 C   0  0  0  0  0  0  0  0  0  0  0  0
  140.0745   69.0403  224.7577 H   0  0  0  0  0  0  0  0  0  0  0  0
  138.6610   74.9800  221.5780 C   0  0  0  0  0  0  0  0  0  0  0  0
  138.2725   74.6532  220.6022 H   0  0  0  0  0  0  0  0  0  0  0  0
  137.8210   75.8920  222.4310 C   0  0  0  0  0  0  0  0  0  0  0  0
  136.8590   75.3988  222.6342 H   0  0  0  0  0  0  0  0  0  0  0  0
  138.3769   76.0891  223.3595 H   0  0  0  0  0  0  0  0  0  0  0  0
  137.5500   77.2390  221.7540 C   0  0  0  0  0  0  0  0  0  0  0  0
  138.1596   77.3135  220.8414 H   0  0  0  0  0  0  0  0  0  0  0  0
  136.4804   77.3006  221.5047 H   0  0  0  0  0  0  0  0  0  0  0  0
  137.8810   78.3200  222.6290 O   0  0  0  0  0  0  0  0  0  0  0  0
  139.1740   78.8240  222.8410 C   0  0  0  0  0  0  0  0  0  0  0  0
  140.3190   78.1830  222.3300 C   0  0  0  0  0  0  0  0  0  0  0  0
  140.2124   77.2627  221.7370 H   0  0  0  0  0  0  0  0  0  0  0  0
  141.5910   78.7110  222.5730 C   0  0  0  0  0  0  0  0  0  0  0  0
  142.4812   78.2038  222.1726 H   0  0  0  0  0  0  0  0  0  0  0  0
  141.7340   79.8810  223.3230 C   0  0  0  0  0  0  0  0  0  0  0  0
  143.3310   80.5310  223.6410 Cl  0  0  0  0  0  0  0  0  0  0  0  0
  140.6010   80.5360  223.8160 C   0  0  0  0  0  0  0  0  0  0  0  0
  140.7128   81.4620  224.3992 H   0  0  0  0  0  0  0  0  0  0  0  0
  139.3250   80.0160  223.5690 C   0  0  0  0  0  0  0  0  0  0  0  0
  137.9180   80.8490  224.2130 Cl  0  0  0  0  0  0  0  0  0  0  0  0
  1  2  1  0
  2  3  1  0
  3  4  1  0
  4  5  1  0
  5  6  2  0
  6  7  1  0
  6  8  1  0
  8  9  2  0
  9 10  1  0
  9 11  1  0
 11 12  1  0
 11 13  2  0
 13 14  1  0
 13 15  1  0
 15 16  1  0
 16 17  1  0
 16 18  1  0
 16 19  1  0
 15 20  2  0
 20 21  1  0
  3 22  2  0
 22 23  1  0
 22 24  1  0
 24 25  1  0
 24 26  1  0
 24 27  1  0
 27 28  1  0
 27 29  1  0
 27 30  1  0
 30 31  1  0
 31 32  2  0
 32 33  1  0
 32 34  1  0
 34 35  1  0
 34 36  2  0
 36 37  1  0
 36 38  1  0
 38 39  1  0
 38 40  2  0
 40 41  1  0
 20  8  1  0
 40 31  1  0
M  CHG  1   4  -1
M  END
>  <UniqueID>  (5) 
17

>  <SMILES>  (5) 
O/C(=C\CCOc1ccc(Cl)cc1Cl)[N-]/N=C/c1cccc(C(F)(F)F)c1

>  <Energy>  (5) 
36.18669450691413

>  <Genealogy>  (5) 
O=C(CCCOc1ccc(Cl)cc1Cl)[N-]N=Cc1cccc(C(F)(F)F)c1 (protonated)
OC(=CCCOc1ccc(Cl)cc1Cl)[N-]N=Cc1cccc(C(F)(F)F)c1 (tautomer)
O/C(=C\CCOc1ccc(Cl)cc1Cl)[N-]/N=C/c1cccc(C(F)(F)F)c1 (cis-trans isomerization)
O/C(=C\CCOc1ccc(Cl)cc1Cl)[N-]/N=C/c1cccc(C(F)(F)F)c1 (3D coordinates assigned)
O/C(=C\CCOc1ccc(Cl)cc1Cl)[N-]/N=C/c1cccc(C(F)(F)F)c1 (optimized conformer: 36.18669450691413 kcal/mol)

>  <smiles>  (5) 
O=C(CCCOc1ccc(Cl)cc1Cl)NN=Cc1cccc(C(F)(F)F)c1

>  <score_type>  (5) 
oracle

>  <origin>  (5) 
autodockgpu

>  <m_score__min__energy>  (5) 
-7.1100000000000003

>  <m_primary>  (5) 
energy

>  <meeko>  (5) 
{"free_energy": -6.77, "intermolecular_energy": -10.05, "internal_energy": -0.72, "cluster_size": 1, "cluster_id": 2, "rank_in_cluster": 1}

>  <energy>  (5) 
-6.41

>  <cluster_rmsd>  (5) 
1.28

>  <rmsd>  (5) 
272.8

>  <cluster>  (5) 
1

$$$$
JBHRSOAXAGIKHA-ZYTNAAKSNA-N
     RDKit          3D

 41 42  0  0  0  0  0  0  0  0999 V2000
  142.1850   75.3610  222.0900 H   0  0  0  0  0  0  0  0  0  0  0  0
  141.3270   75.8430  221.8560 O   0  0  0  0  0  0  0  0  0  0  0  0
  140.4670   71.7400  222.6940 C   0  0  0  0  0  0  0  0  0  0  0  0
  139.8430   73.9790  222.3530 N   0  0  0  0  0  0  0  0  0  0  0  0
  140.7930   72.9920  222.6510 N   0  0  0  0  0  0  0  0  0  0  0  0
  139.3780   75.5220  220.5530 C   0  0  0  0  0  0  0  0  0  0  0  0
  138.5788   76.2520  220.7488 H   0  0  0  0  0  0  0  0  0  0  0  0
  140.1520   71.0850  223.9790 C   0  0  0  0  0  0  0  0  0  0  0  0
  139.3580   69.9250  224.0290 C   0  0  0  0  0  0  0  0  0  0  0  0
  138.9625   69.4914  223.0986 H   0  0  0  0  0  0  0  0  0  0  0  0
  139.0700   69.3220  225.2540 C   0  0  0  0  0  0  0  0  0  0  0  0
  138.4434   68.4185  225.2860 H   0  0  0  0  0  0  0  0  0  0  0  0
  139.5740   69.8610  226.4390 C   0  0  0  0  0  0  0  0  0  0  0  0
  139.3329   69.3865  227.4016 H   0  0  0  0  0  0  0  0  0  0  0  0
  140.3880   71.0070  226.4090 C   0  0  0  0  0  0  0  0  0  0  0  0
  140.8920   71.6200  227.6920 C   0  0  0  0  0  0  0  0  0  0  0  0
  141.8420   72.5910  227.4270 F   0  0  0  0  0  0  0  0  0  0  0  0
  141.4710   70.6580  228.5010 F   0  0  0  0  0  0  0  0  0  0  0  0
  139.8330   72.1980  228.3670 F   0  0  0  0  0  0  0  0  0  0  0  0
  140.6510   71.6260  225.1740 C   0  0  0  0  0  0  0  0  0  0  0  0
  141.2549   72.5449  225.1442 H   0  0  0  0  0  0  0  0  0  0  0  0
  140.1650   75.1320  221.5640 C   0  0  0  0  0  0  0  0  0  0  0  0
  140.4242   71.1572  221.7620 H   0  0  0  0  0  0  0  0  0  0  0  0
  139.5560   74.9900  219.1570 C   0  0  0  0  0  0  0  0  0  0  0  0
  138.6093   75.1096  218.6098 H   0  0  0  0  0  0  0  0  0  0  0  0
  140.3698   75.5579  218.6824 H   0  0  0  0  0  0  0  0  0  0  0  0
  139.9490   73.5090  219.1430 C   0  0  0  0  0  0  0  0  0  0  0  0
  139.9265   73.1195  220.1715 H   0  0  0  0  0  0  0  0  0  0  0  0
  139.2355   72.9593  218.5116 H   0  0  0  0  0  0  0  0  0  0  0  0
  141.2630   73.3410  218.6060 O   0  0  0  0  0  0  0  0  0  0  0  0
  142.4540   73.3790  219.3500 C   0  0  0  0  0  0  0  0  0  0  0  0
  143.1750   74.5730  219.5440 C   0  0  0  0  0  0  0  0  0  0  0  0
  142.8027   75.5140  219.1129 H   0  0  0  0  0  0  0  0  0  0  0  0
  144.3630   74.5670  220.2830 C   0  0  0  0  0  0  0  0  0  0  0  0
  144.9227   75.5025  220.4296 H   0  0  0  0  0  0  0  0  0  0  0  0
  144.8400   73.3760  220.8350 C   0  0  0  0  0  0  0  0  0  0  0  0
  146.3390   73.3690  221.7460 Cl  0  0  0  0  0  0  0  0  0  0  0  0
  144.1190   72.1910  220.6650 C   0  0  0  0  0  0  0  0  0  0  0  0
  144.4907   71.2547  221.1068 H   0  0  0  0  0  0  0  0  0  0  0  0
  142.9250   72.1920  219.9340 C   0  0  0  0  0  0  0  0  0  0  0  0
  142.0450   70.6860  219.7210 Cl  0  0  0  0  0  0  0  0  0  0  0  0
  1  2  1  0
  2  3  1  0
  3  4  1  0
  4  5  1  0
  5  6  2  0
  6  7  1  0
  6  8  1  0
  8  9  2  0
  9 10  1  0
  9 11  1  0
 11 12  1  0
 11 13  2  0
 13 14  1  0
 13 15  1  0
 15 16  1  0
 16 17  1  0
 16 18  1  0
 16 19  1  0
 15 20  2  0
 20 21  1  0
  3 22  2  0
 22 23  1  0
 22 24  1  0
 24 25  1  0
 24 26  1  0
 24 27  1  0
 27 28  1  0
 27 29  1  0
 27 30  1  0
 30 31  1  0
 31 32  2  0
 32 33  1  0
 32 34  1  0
 34 35  1  0
 34 36  2  0
 36 37  1  0
 36 38  1  0
 38 39  1  0
 38 40  2  0
 40 41  1  0
 20  8  1  0
 40 31  1  0
M  CHG  1   4  -1
M  END
>  <UniqueID>  (6) 
17

>  <SMILES>  (6) 
O/C(=C\CCOc1ccc(Cl)cc1Cl)[N-]/N=C/c1cccc(C(F)(F)F)c1

>  <Energy>  (6) 
36.18669450691413

>  <Genealogy>  (6) 
O=C(CCCOc1ccc(Cl)cc1Cl)[N-]N=Cc1cccc(C(F)(F)F)c1 (protonated)
OC(=CCCOc1ccc(Cl)cc1Cl)[N-]N=Cc1cccc(C(F)(F)F)c1 (tautomer)
O/C(=C\CCOc1ccc(Cl)cc1Cl)[N-]/N=C/c1cccc(C(F)(F)F)c1 (cis-trans isomerization)
O/C(=C\CCOc1ccc(Cl)cc1Cl)[N-]/N=C/c1cccc(C(F)(F)F)c1 (3D coordinates assigned)
O/C(=C\CCOc1ccc(Cl)cc1Cl)[N-]/N=C/c1cccc(C(F)(F)F)c1 (optimized conformer: 36.18669450691413 kcal/mol)

>  <smiles>  (6) 
O=C(CCCOc1ccc(Cl)cc1Cl)NN=Cc1cccc(C(F)(F)F)c1

>  <score_type>  (6) 
oracle

>  <origin>  (6) 
autodockgpu

>  <m_score__min__energy>  (6) 
-7.1100000000000003

>  <m_primary>  (6) 
energy

>  <meeko>  (6) 
{"free_energy": -5.74, "intermolecular_energy": -9.02, "internal_energy": -1.68, "cluster_size": 5, "cluster_id": 3, "rank_in_cluster": 5}

>  <energy>  (6) 
-6.36

>  <cluster_rmsd>  (6) 
1.52

>  <rmsd>  (6) 
272.89

>  <cluster>  (6) 
1

$$$$
JBHRSOAXAGIKHA-ZYTNAAKSNA-N
     RDKit          3D

 41 42  0  0  0  0  0  0  0  0999 V2000
  137.6890   73.2030  223.1670 H   0  0  0  0  0  0  0  0  0  0  0  0
  137.7080   73.7560  222.3190 O   0  0  0  0  0  0  0  0  0  0  0  0
  140.0660   71.6790  223.0500 C   0  0  0  0  0  0  0  0  0  0  0  0
  140.1150   73.7570  221.9560 N   0  0  0  0  0  0  0  0  0  0  0  0
  140.4850   72.9030  223.0040 N   0  0  0  0  0  0  0  0  0  0  0  0
  138.7790   75.7380  221.5950 C   0  0  0  0  0  0  0  0  0  0  0  0
  137.7965   76.2327  221.5964 H   0  0  0  0  0  0  0  0  0  0  0  0
  139.9820   70.9560  224.3350 C   0  0  0  0  0  0  0  0  0  0  0  0
  139.3780   69.6890  224.4190 C   0  0  0  0  0  0  0  0  0  0  0  0
  138.9597   69.2206  223.5159 H   0  0  0  0  0  0  0  0  0  0  0  0
  139.3070   69.0230  225.6440 C   0  0  0  0  0  0  0  0  0  0  0  0
  138.8282   68.0345  225.7037 H   0  0  0  0  0  0  0  0  0  0  0  0
  139.8420   69.6080  226.7940 C   0  0  0  0  0  0  0  0  0  0  0  0
  139.7722   69.0825  227.7578 H   0  0  0  0  0  0  0  0  0  0  0  0
  140.4690   70.8640  226.7270 C   0  0  0  0  0  0  0  0  0  0  0  0
  141.0040   71.5180  227.9760 C   0  0  0  0  0  0  0  0  0  0  0  0
  141.7340   70.6130  228.7260 F   0  0  0  0  0  0  0  0  0  0  0  0
  139.9680   71.9940  228.7620 F   0  0  0  0  0  0  0  0  0  0  0  0
  141.8220   72.5750  227.6220 F   0  0  0  0  0  0  0  0  0  0  0  0
  140.5130   71.5410  225.4950 C   0  0  0  0  0  0  0  0  0  0  0  0
  140.9689   72.5406  225.4400 H   0  0  0  0  0  0  0  0  0  0  0  0
  138.8580   74.4480  221.9450 C   0  0  0  0  0  0  0  0  0  0  0  0
  139.7689   71.1712  222.1205 H   0  0  0  0  0  0  0  0  0  0  0  0
  139.9950   76.5300  221.2000 C   0  0  0  0  0  0  0  0  0  0  0  0
  140.4315   76.0803  220.2960 H   0  0  0  0  0  0  0  0  0  0  0  0
  139.6765   77.5673  221.0196 H   0  0  0  0  0  0  0  0  0  0  0  0
  141.0590   76.5520  222.3020 C   0  0  0  0  0  0  0  0  0  0  0  0
  140.9392   75.6622  222.9375 H   0  0  0  0  0  0  0  0  0  0  0  0
  142.0541   76.5546  221.8332 H   0  0  0  0  0  0  0  0  0  0  0  0
  140.9270   77.7260  223.1080 O   0  0  0  0  0  0  0  0  0  0  0  0
  140.9610   79.0460  222.6290 C   0  0  0  0  0  0  0  0  0  0  0  0
  142.1620   79.6660  222.2330 C   0  0  0  0  0  0  0  0  0  0  0  0
  143.1092   79.1092  222.2869 H   0  0  0  0  0  0  0  0  0  0  0  0
  142.1560   80.9850  221.7720 C   0  0  0  0  0  0  0  0  0  0  0  0
  143.0980   81.4635  221.4658 H   0  0  0  0  0  0  0  0  0  0  0  0
  140.9560   81.6980  221.6990 C   0  0  0  0  0  0  0  0  0  0  0  0
  140.9540   83.3590  221.1370 Cl  0  0  0  0  0  0  0  0  0  0  0  0
  139.7570   81.0830  222.0700 C   0  0  0  0  0  0  0  0  0  0  0  0
  138.8113   81.6410  222.0043 H   0  0  0  0  0  0  0  0  0  0  0  0
  139.7560   79.7590  222.5250 C   0  0  0  0  0  0  0  0  0  0  0  0
  138.2370   79.0140  223.0000 Cl  0  0  0  0  0  0  0  0  0  0  0  0
  1  2  1  0
  2  3  1  0
  3  4  1  0
  4  5  1  0
  5  6  2  0
  6  7  1  0
  6  8  1  0
  8  9  2  0
  9 10  1  0
  9 11  1  0
 11 12  1  0
 11 13  2  0
 13 14  1  0
 13 15  1  0
 15 16  1  0
 16 17  1  0
 16 18  1  0
 16 19  1  0
 15 20  2  0
 20 21  1  0
  3 22  2  0
 22 23  1  0
 22 24  1  0
 24 25  1  0
 24 26  1  0
 24 27  1  0
 27 28  1  0
 27 29  1  0
 27 30  1  0
 30 31  1  0
 31 32  2  0
 32 33  1  0
 32 34  1  0
 34 35  1  0
 34 36  2  0
 36 37  1  0
 36 38  1  0
 38 39  1  0
 38 40  2  0
 40 41  1  0
 20  8  1  0
 40 31  1  0
M  CHG  1   4  -1
M  END
>  <UniqueID>  (7) 
17

>  <SMILES>  (7) 
O/C(=C\CCOc1ccc(Cl)cc1Cl)[N-]/N=C/c1cccc(C(F)(F)F)c1

>  <Energy>  (7) 
36.18669450691413

>  <Genealogy>  (7) 
O=C(CCCOc1ccc(Cl)cc1Cl)[N-]N=Cc1cccc(C(F)(F)F)c1 (protonated)
OC(=CCCOc1ccc(Cl)cc1Cl)[N-]N=Cc1cccc(C(F)(F)F)c1 (tautomer)
O/C(=C\CCOc1ccc(Cl)cc1Cl)[N-]/N=C/c1cccc(C(F)(F)F)c1 (cis-trans isomerization)
O/C(=C\CCOc1ccc(Cl)cc1Cl)[N-]/N=C/c1cccc(C(F)(F)F)c1 (3D coordinates assigned)
O/C(=C\CCOc1ccc(Cl)cc1Cl)[N-]/N=C/c1cccc(C(F)(F)F)c1 (optimized conformer: 36.18669450691413 kcal/mol)

>  <smiles>  (7) 
O=C(CCCOc1ccc(Cl)cc1Cl)NN=Cc1cccc(C(F)(F)F)c1

>  <score_type>  (7) 
oracle

>  <origin>  (7) 
autodockgpu

>  <m_score__min__energy>  (7) 
-7.1100000000000003

>  <m_primary>  (7) 
energy

>  <meeko>  (7) 
{"free_energy": -6.21, "intermolecular_energy": -9.49, "internal_energy": -0.85, "cluster_size": 9, "cluster_id": 1, "rank_in_cluster": 7}

>  <energy>  (7) 
-6.21

>  <cluster_rmsd>  (7) 
1.55

>  <rmsd>  (7) 
272.86

>  <cluster>  (7) 
1

$$$$
JBHRSOAXAGIKHA-ZYTNAAKSNA-N
     RDKit          3D

 41 42  0  0  0  0  0  0  0  0999 V2000
  141.0920   72.9530  220.3610 H   0  0  0  0  0  0  0  0  0  0  0  0
  140.5900   73.8250  220.2520 O   0  0  0  0  0  0  0  0  0  0  0  0
  140.0670   71.4140  223.0070 C   0  0  0  0  0  0  0  0  0  0  0  0
  139.9260   73.7220  222.5920 N   0  0  0  0  0  0  0  0  0  0  0  0
  140.6600   72.5460  222.7980 N   0  0  0  0  0  0  0  0  0  0  0  0
  139.1640   75.4930  221.1360 C   0  0  0  0  0  0  0  0  0  0  0  0
  139.4863   76.2168  220.3730 H   0  0  0  0  0  0  0  0  0  0  0  0
  140.0490   70.8060  224.3520 C   0  0  0  0  0  0  0  0  0  0  0  0
  139.5590   69.5040  224.5550 C   0  0  0  0  0  0  0  0  0  0  0  0
  139.1827   68.9211  223.7014 H   0  0  0  0  0  0  0  0  0  0  0  0
  139.5480   68.9480  225.8350 C   0  0  0  0  0  0  0  0  0  0  0  0
  139.1568   67.9313  225.9876 H   0  0  0  0  0  0  0  0  0  0  0  0
  140.0320   69.6780  226.9230 C   0  0  0  0  0  0  0  0  0  0  0  0
  140.0101   69.2374  227.9307 H   0  0  0  0  0  0  0  0  0  0  0  0
  140.5470   70.9730  226.7370 C   0  0  0  0  0  0  0  0  0  0  0  0
  141.0240   71.7820  227.9180 C   0  0  0  0  0  0  0  0  0  0  0  0
  141.8080   71.0070  228.7540 F   0  0  0  0  0  0  0  0  0  0  0  0
  139.9510   72.2590  228.6510 F   0  0  0  0  0  0  0  0  0  0  0  0
  141.7710   72.8520  227.4630 F   0  0  0  0  0  0  0  0  0  0  0  0
  140.5280   71.5370  225.4500 C   0  0  0  0  0  0  0  0  0  0  0  0
  140.8930   72.5640  225.3014 H   0  0  0  0  0  0  0  0  0  0  0  0
  139.8810   74.3760  221.3170 C   0  0  0  0  0  0  0  0  0  0  0  0
  139.5703   70.8989  222.1716 H   0  0  0  0  0  0  0  0  0  0  0  0
  137.9310   75.7860  221.9460 C   0  0  0  0  0  0  0  0  0  0  0  0
  137.1115   75.1467  221.5859 H   0  0  0  0  0  0  0  0  0  0  0  0
  138.1666   75.5829  223.0011 H   0  0  0  0  0  0  0  0  0  0  0  0
  137.4960   77.2510  221.8380 C   0  0  0  0  0  0  0  0  0  0  0  0
  137.9180   77.6865  220.9203 H   0  0  0  0  0  0  0  0  0  0  0  0
  136.3972   77.2930  221.8093 H   0  0  0  0  0  0  0  0  0  0  0  0
  137.9560   77.9980  222.9670 O   0  0  0  0  0  0  0  0  0  0  0  0
  139.2310   78.5730  223.0930 C   0  0  0  0  0  0  0  0  0  0  0  0
  140.4000   77.8920  222.7040 C   0  0  0  0  0  0  0  0  0  0  0  0
  140.3278   76.8800  222.2790 H   0  0  0  0  0  0  0  0  0  0  0  0
  141.6520   78.4950  222.8550 C   0  0  0  0  0  0  0  0  0  0  0  0
  142.5609   77.9563  222.5489 H   0  0  0  0  0  0  0  0  0  0  0  0
  141.7520   79.7810  223.3940 C   0  0  0  0  0  0  0  0  0  0  0  0
  143.3250   80.5270  223.6000 Cl  0  0  0  0  0  0  0  0  0  0  0  0
  140.5950   80.4720  223.7630 C   0  0  0  0  0  0  0  0  0  0  0  0
  140.6723   81.4873  224.1792 H   0  0  0  0  0  0  0  0  0  0  0  0
  139.3380   79.8770  223.6050 C   0  0  0  0  0  0  0  0  0  0  0  0
  137.9000   80.7620  224.0920 Cl  0  0  0  0  0  0  0  0  0  0  0  0
  1  2  1  0
  2  3  1  0
  3  4  1  0
  4  5  1  0
  5  6  2  0
  6  7  1  0
  6  8  1  0
  8  9  2  0
  9 10  1  0
  9 11  1  0
 11 12  1  0
 11 13  2  0
 13 14  1  0
 13 15  1  0
 15 16  1  0
 16 17  1  0
 16 18  1  0
 16 19  1  0
 15 20  2  0
 20 21  1  0
  3 22  2  0
 22 23  1  0
 22 24  1  0
 24 25  1  0
 24 26  1  0
 24 27  1  0
 27 28  1  0
 27 29  1  0
 27 30  1  0
 30 31  1  0
 31 32  2  0
 32 33  1  0
 32 34  1  0
 34 35  1  0
 34 36  2  0
 36 37  1  0
 36 38  1  0
 38 39  1  0
 38 40  2  0
 40 41  1  0
 20  8  1  0
 40 31  1  0
M  CHG  1   4  -1
M  END
>  <UniqueID>  (8) 
17

>  <SMILES>  (8) 
O/C(=C\CCOc1ccc(Cl)cc1Cl)[N-]/N=C/c1cccc(C(F)(F)F)c1

>  <Energy>  (8) 
36.18669450691413

>  <Genealogy>  (8) 
O=C(CCCOc1ccc(Cl)cc1Cl)[N-]N=Cc1cccc(C(F)(F)F)c1 (protonated)
OC(=CCCOc1ccc(Cl)cc1Cl)[N-]N=Cc1cccc(C(F)(F)F)c1 (tautomer)
O/C(=C\CCOc1ccc(Cl)cc1Cl)[N-]/N=C/c1cccc(C(F)(F)F)c1 (cis-trans isomerization)
O/C(=C\CCOc1ccc(Cl)cc1Cl)[N-]/N=C/c1cccc(C(F)(F)F)c1 (3D coordinates assigned)
O/C(=C\CCOc1ccc(Cl)cc1Cl)[N-]/N=C/c1cccc(C(F)(F)F)c1 (optimized conformer: 36.18669450691413 kcal/mol)

>  <smiles>  (8) 
O=C(CCCOc1ccc(Cl)cc1Cl)NN=Cc1cccc(C(F)(F)F)c1

>  <score_type>  (8) 
oracle

>  <origin>  (8) 
autodockgpu

>  <m_score__min__energy>  (8) 
-7.1100000000000003

>  <m_primary>  (8) 
energy

>  <meeko>  (8) 
{"free_energy": -6.36, "intermolecular_energy": -9.64, "internal_energy": -0.94, "cluster_size": 9, "cluster_id": 1, "rank_in_cluster": 6}

>  <energy>  (8) 
-6.2

>  <cluster_rmsd>  (8) 
1.47

>  <rmsd>  (8) 
272.54

>  <cluster>  (8) 
1

$$$$
JBHRSOAXAGIKHA-ZYTNAAKSNA-N
     RDKit          3D

 41 42  0  0  0  0  0  0  0  0999 V2000
  138.9310   75.0070  223.3080 H   0  0  0  0  0  0  0  0  0  0  0  0
  139.4200   75.4810  222.5590 O   0  0  0  0  0  0  0  0  0  0  0  0
  140.0810   71.4280  223.0970 C   0  0  0  0  0  0  0  0  0  0  0  0
  140.5810   73.4250  221.9670 N   0  0  0  0  0  0  0  0  0  0  0  0
  140.0090   72.7190  223.0340 N   0  0  0  0  0  0  0  0  0  0  0  0
  140.5430   75.3310  220.4820 C   0  0  0  0  0  0  0  0  0  0  0  0
  139.8625   75.2630  219.6204 H   0  0  0  0  0  0  0  0  0  0  0  0
  140.0840   70.7330  224.4010 C   0  0  0  0  0  0  0  0  0  0  0  0
  139.6290   69.4080  224.5200 C   0  0  0  0  0  0  0  0  0  0  0  0
  139.2644   68.8721  223.6312 H   0  0  0  0  0  0  0  0  0  0  0  0
  139.6380   68.7700  225.7610 C   0  0  0  0  0  0  0  0  0  0  0  0
  139.2750   67.7353  225.8485 H   0  0  0  0  0  0  0  0  0  0  0  0
  140.1070   69.4420  226.8930 C   0  0  0  0  0  0  0  0  0  0  0  0
  140.1011   68.9367  227.8701 H   0  0  0  0  0  0  0  0  0  0  0  0
  140.5860   70.7590  226.7910 C   0  0  0  0  0  0  0  0  0  0  0  0
  141.0460   71.5020  228.0200 C   0  0  0  0  0  0  0  0  0  0  0  0
  139.9600   71.9280  228.7650 F   0  0  0  0  0  0  0  0  0  0  0  0
  141.7930   72.6130  227.6710 F   0  0  0  0  0  0  0  0  0  0  0  0
  141.8230   70.6620  228.7960 F   0  0  0  0  0  0  0  0  0  0  0  0
  140.5480   71.4050  225.5420 C   0  0  0  0  0  0  0  0  0  0  0  0
  140.8858   72.4485  225.4589 H   0  0  0  0  0  0  0  0  0  0  0  0
  140.1840   74.7640  221.6410 C   0  0  0  0  0  0  0  0  0  0  0  0
  140.1407   70.8412  222.1685 H   0  0  0  0  0  0  0  0  0  0  0  0
  141.8500   76.0580  220.3250 C   0  0  0  0  0  0  0  0  0  0  0  0
  142.5094   75.7841  221.1618 H   0  0  0  0  0  0  0  0  0  0  0  0
  142.2833   75.7640  219.3576 H   0  0  0  0  0  0  0  0  0  0  0  0
  141.6740   77.5800  220.3150 C   0  0  0  0  0  0  0  0  0  0  0  0
  142.4344   78.0272  219.6579 H   0  0  0  0  0  0  0  0  0  0  0  0
  140.6648   77.8170  219.9471 H   0  0  0  0  0  0  0  0  0  0  0  0
  141.8200   78.1140  221.6330 O   0  0  0  0  0  0  0  0  0  0  0  0
  140.8180   78.7860  222.3510 C   0  0  0  0  0  0  0  0  0  0  0  0
  139.4760   78.3600  222.3380 C   0  0  0  0  0  0  0  0  0  0  0  0
  139.1895   77.4697  221.7590 H   0  0  0  0  0  0  0  0  0  0  0  0
  138.5060   79.0640  223.0580 C   0  0  0  0  0  0  0  0  0  0  0  0
  137.4591   78.7266  223.0422 H   0  0  0  0  0  0  0  0  0  0  0  0
  138.8620   80.1940  223.7970 C   0  0  0  0  0  0  0  0  0  0  0  0
  137.6390   81.0850  224.6840 Cl  0  0  0  0  0  0  0  0  0  0  0  0
  140.1960   80.6110  223.8330 C   0  0  0  0  0  0  0  0  0  0  0  0
  140.4782   81.4954  224.4230 H   0  0  0  0  0  0  0  0  0  0  0  0
  141.1730   79.9070  223.1210 C   0  0  0  0  0  0  0  0  0  0  0  0
  142.8400   80.4610  223.1690 Cl  0  0  0  0  0  0  0  0  0  0  0  0
  1  2  1  0
  2  3  1  0
  3  4  1  0
  4  5  1  0
  5  6  2  0
  6  7  1  0
  6  8  1  0
  8  9  2  0
  9 10  1  0
  9 11  1  0
 11 12  1  0
 11 13  2  0
 13 14  1  0
 13 15  1  0
 15 16  1  0
 16 17  1  0
 16 18  1  0
 16 19  1  0
 15 20  2  0
 20 21  1  0
  3 22  2  0
 22 23  1  0
 22 24  1  0
 24 25  1  0
 24 26  1  0
 24 27  1  0
 27 28  1  0
 27 29  1  0
 27 30  1  0
 30 31  1  0
 31 32  2  0
 32 33  1  0
 32 34  1  0
 34 35  1  0
 34 36  2  0
 36 37  1  0
 36 38  1  0
 38 39  1  0
 38 40  2  0
 40 41  1  0
 20  8  1  0
 40 31  1  0
M  CHG  1   4  -1
M  END
>  <UniqueID>  (9) 
17

>  <SMILES>  (9) 
O/C(=C\CCOc1ccc(Cl)cc1Cl)[N-]/N=C/c1cccc(C(F)(F)F)c1

>  <Energy>  (9) 
36.18669450691413

>  <Genealogy>  (9) 
O=C(CCCOc1ccc(Cl)cc1Cl)[N-]N=Cc1cccc(C(F)(F)F)c1 (protonated)
OC(=CCCOc1ccc(Cl)cc1Cl)[N-]N=Cc1cccc(C(F)(F)F)c1 (tautomer)
O/C(=C\CCOc1ccc(Cl)cc1Cl)[N-]/N=C/c1cccc(C(F)(F)F)c1 (cis-trans isomerization)
O/C(=C\CCOc1ccc(Cl)cc1Cl)[N-]/N=C/c1cccc(C(F)(F)F)c1 (3D coordinates assigned)
O/C(=C\CCOc1ccc(Cl)cc1Cl)[N-]/N=C/c1cccc(C(F)(F)F)c1 (optimized conformer: 36.18669450691413 kcal/mol)

>  <smiles>  (9) 
O=C(CCCOc1ccc(Cl)cc1Cl)NN=Cc1cccc(C(F)(F)F)c1

>  <score_type>  (9) 
oracle

>  <origin>  (9) 
autodockgpu

>  <m_score__min__energy>  (9) 
-7.1100000000000003

>  <m_primary>  (9) 
energy

>  <meeko>  (9) 
{"free_energy": -7.11, "intermolecular_energy": -10.39, "internal_energy": -0.92, "cluster_size": 9, "cluster_id": 1, "rank_in_cluster": 1}

>  <energy>  (9) 
-5.88

>  <cluster_rmsd>  (9) 
1.5

>  <rmsd>  (9) 
272.46

>  <cluster>  (9) 
1

$$$$
JBHRSOAXAGIKHA-ZYTNAAKSNA-N
     RDKit          3D

 41 42  0  0  0  0  0  0  0  0999 V2000
  137.4800   74.1710  223.0150 H   0  0  0  0  0  0  0  0  0  0  0  0
  137.7050   74.8670  222.3160 O   0  0  0  0  0  0  0  0  0  0  0  0
  140.6480   71.9900  223.0600 C   0  0  0  0  0  0  0  0  0  0  0  0
  140.0270   74.1370  222.3380 N   0  0  0  0  0  0  0  0  0  0  0  0
  139.7480   72.7840  222.5750 N   0  0  0  0  0  0  0  0  0  0  0  0
  139.3240   76.0840  221.0930 C   0  0  0  0  0  0  0  0  0  0  0  0
  138.8780   77.0688  221.2962 H   0  0  0  0  0  0  0  0  0  0  0  0
  140.3880   71.2090  224.2860 C   0  0  0  0  0  0  0  0  0  0  0  0
  139.7110   69.9770  224.2340 C   0  0  0  0  0  0  0  0  0  0  0  0
  139.3680   69.5807  223.2669 H   0  0  0  0  0  0  0  0  0  0  0  0
  139.4730   69.2560  225.4040 C   0  0  0  0  0  0  0  0  0  0  0  0
  138.9370   68.2966  225.3570 H   0  0  0  0  0  0  0  0  0  0  0  0
  139.9130   69.7480  226.6360 C   0  0  0  0  0  0  0  0  0  0  0  0
  139.7126   69.1787  227.5556 H   0  0  0  0  0  0  0  0  0  0  0  0
  140.6100   70.9660  226.7060 C   0  0  0  0  0  0  0  0  0  0  0  0
  141.0420   71.5230  228.0390 C   0  0  0  0  0  0  0  0  0  0  0  0
  139.9420   71.9220  228.7790 F   0  0  0  0  0  0  0  0  0  0  0  0
  141.8690   72.6200  227.8690 F   0  0  0  0  0  0  0  0  0  0  0  0
  141.7260   70.5480  228.7400 F   0  0  0  0  0  0  0  0  0  0  0  0
  140.8220   71.7010  225.5260 C   0  0  0  0  0  0  0  0  0  0  0  0
  141.3342   72.6732  225.5759 H   0  0  0  0  0  0  0  0  0  0  0  0
  139.0190   75.0550  221.8930 C   0  0  0  0  0  0  0  0  0  0  0  0
  141.6192   71.8958  222.5522 H   0  0  0  0  0  0  0  0  0  0  0  0
  140.2590   75.9330  219.9240 C   0  0  0  0  0  0  0  0  0  0  0  0
  139.9141   76.5861  219.1088 H   0  0  0  0  0  0  0  0  0  0  0  0
  141.2680   76.2109  220.2627 H   0  0  0  0  0  0  0  0  0  0  0  0
  140.3190   74.4910  219.4080 C   0  0  0  0  0  0  0  0  0  0  0  0
  140.1386   73.8000  220.2447 H   0  0  0  0  0  0  0  0  0  0  0  0
  139.5496   74.3597  218.6329 H   0  0  0  0  0  0  0  0  0  0  0  0
  141.6000   74.2130  218.8370 O   0  0  0  0  0  0  0  0  0  0  0  0
  142.7800   73.9870  219.5650 C   0  0  0  0  0  0  0  0  0  0  0  0
  143.0920   72.7260  220.1090 C   0  0  0  0  0  0  0  0  0  0  0  0
  142.4040   71.8805  219.9611 H   0  0  0  0  0  0  0  0  0  0  0  0
  144.2720   72.5440  220.8360 C   0  0  0  0  0  0  0  0  0  0  0  0
  144.5089   71.5568  221.2594 H   0  0  0  0  0  0  0  0  0  0  0  0
  145.1510   73.6130  221.0260 C   0  0  0  0  0  0  0  0  0  0  0  0
  146.6210   73.3860  221.9550 Cl  0  0  0  0  0  0  0  0  0  0  0  0
  144.8590   74.8620  220.4710 C   0  0  0  0  0  0  0  0  0  0  0  0
  145.5554   75.7015  220.6134 H   0  0  0  0  0  0  0  0  0  0  0  0
  143.6840   75.0480  219.7350 C   0  0  0  0  0  0  0  0  0  0  0  0
  143.3320   76.6330  219.0610 Cl  0  0  0  0  0  0  0  0  0  0  0  0
  1  2  1  0
  2  3  1  0
  3  4  1  0
  4  5  1  0
  5  6  2  0
  6  7  1  0
  6  8  1  0
  8  9  2  0
  9 10  1  0
  9 11  1  0
 11 12  1  0
 11 13  2  0
 13 14  1  0
 13 15  1  0
 15 16  1  0
 16 17  1  0
 16 18  1  0
 16 19  1  0
 15 20  2  0
 20 21  1  0
  3 22  2  0
 22 23  1  0
 22 24  1  0
 24 25  1  0
 24 26  1  0
 24 27  1  0
 27 28  1  0
 27 29  1  0
 27 30  1  0
 30 31  1  0
 31 32  2  0
 32 33  1  0
 32 34  1  0
 34 35  1  0
 34 36  2  0
 36 37  1  0
 36 38  1  0
 38 39  1  0
 38 40  2  0
 40 41  1  0
 20  8  1  0
 40 31  1  0
M  CHG  1   4  -1
M  END
>  <UniqueID>  (10) 
17

>  <SMILES>  (10) 
O/C(=C\CCOc1ccc(Cl)cc1Cl)[N-]/N=C/c1cccc(C(F)(F)F)c1

>  <Energy>  (10) 
36.18669450691413

>  <Genealogy>  (10) 
O=C(CCCOc1ccc(Cl)cc1Cl)[N-]N=Cc1cccc(C(F)(F)F)c1 (protonated)
OC(=CCCOc1ccc(Cl)cc1Cl)[N-]N=Cc1cccc(C(F)(F)F)c1 (tautomer)
O/C(=C\CCOc1ccc(Cl)cc1Cl)[N-]/N=C/c1cccc(C(F)(F)F)c1 (cis-trans isomerization)
O/C(=C\CCOc1ccc(Cl)cc1Cl)[N-]/N=C/c1cccc(C(F)(F)F)c1 (3D coordinates assigned)
O/C(=C\CCOc1ccc(Cl)cc1Cl)[N-]/N=C/c1cccc(C(F)(F)F)c1 (optimized conformer: 36.18669450691413 kcal/mol)

>  <smiles>  (10) 
O=C(CCCOc1ccc(Cl)cc1Cl)NN=Cc1cccc(C(F)(F)F)c1

>  <score_type>  (10) 
oracle

>  <origin>  (10) 
autodockgpu

>  <m_score__min__energy>  (10) 
-7.1100000000000003

>  <m_primary>  (10) 
energy

>  <meeko>  (10) 
{"free_energy": -6.15, "intermolecular_energy": -9.43, "internal_energy": -1.23, "cluster_size": 5, "cluster_id": 3, "rank_in_cluster": 3}

>  <energy>  (10) 
-6.77

>  <cluster_rmsd>  (10) 
0.0

>  <rmsd>  (10) 
273.03

>  <cluster>  (10) 
2

$$$$
JBHRSOAXAGIKHA-ZYTNAAKSNA-N
     RDKit          3D

 41 42  0  0  0  0  0  0  0  0999 V2000
  141.6940   75.2790  221.9930 H   0  0  0  0  0  0  0  0  0  0  0  0
  140.7240   75.1590  222.2570 O   0  0  0  0  0  0  0  0  0  0  0  0
  139.9340   74.1910  221.6410 C   0  0  0  0  0  0  0  0  0  0  0  0
  140.3910   72.8320  221.6250 N   0  0  0  0  0  0  0  0  0  0  0  0
  140.6620   72.1250  222.8050 N   0  0  0  0  0  0  0  0  0  0  0  0
  139.9230   71.1280  223.1730 C   0  0  0  0  0  0  0  0  0  0  0  0
  139.2329   70.6676  222.4507 H   0  0  0  0  0  0  0  0  0  0  0  0
  139.9950   70.6010  224.5510 C   0  0  0  0  0  0  0  0  0  0  0  0
  139.6340   69.2740  224.8420 C   0  0  0  0  0  0  0  0  0  0  0  0
  139.2918   68.6097  224.0347 H   0  0  0  0  0  0  0  0  0  0  0  0
  139.7080   68.7960  226.1510 C   0  0  0  0  0  0  0  0  0  0  0  0
  139.4188   67.7581  226.3726 H   0  0  0  0  0  0  0  0  0  0  0  0
  140.1480   69.6310  227.1810 C   0  0  0  0  0  0  0  0  0  0  0  0
  140.1925   69.2507  228.2122 H   0  0  0  0  0  0  0  0  0  0  0  0
  140.5340   70.9540  226.9070 C   0  0  0  0  0  0  0  0  0  0  0  0
  140.9620   71.8720  228.0250 C   0  0  0  0  0  0  0  0  0  0  0  0
  139.8680   72.2710  228.7720 F   0  0  0  0  0  0  0  0  0  0  0  0
  141.5790   73.0050  227.5210 F   0  0  0  0  0  0  0  0  0  0  0  0
  141.8500   71.2040  228.8470 F   0  0  0  0  0  0  0  0  0  0  0  0
  140.4310   71.4370  225.5900 C   0  0  0  0  0  0  0  0  0  0  0  0
  140.6954   72.4823  225.3721 H   0  0  0  0  0  0  0  0  0  0  0  0
  138.7740   74.5390  221.0690 C   0  0  0  0  0  0  0  0  0  0  0  0
  138.2106   73.7843  220.5006 H   0  0  0  0  0  0  0  0  0  0  0  0
  138.2200   75.9330  221.1820 C   0  0  0  0  0  0  0  0  0  0  0  0
  138.8932   76.6247  220.6544 H   0  0  0  0  0  0  0  0  0  0  0  0
  137.2143   75.9318  220.7365 H   0  0  0  0  0  0  0  0  0  0  0  0
  138.0860   76.3910  222.6380 C   0  0  0  0  0  0  0  0  0  0  0  0
  137.1039   76.0815  223.0250 H   0  0  0  0  0  0  0  0  0  0  0  0
  138.8914   75.9307  223.2291 H   0  0  0  0  0  0  0  0  0  0  0  0
  138.2010   77.8130  222.7330 O   0  0  0  0  0  0  0  0  0  0  0  0
  139.3900   78.5150  222.9860 C   0  0  0  0  0  0  0  0  0  0  0  0
  140.6560   77.9620  222.7170 C   0  0  0  0  0  0  0  0  0  0  0  0
  140.7318   76.9525  222.2866 H   0  0  0  0  0  0  0  0  0  0  0  0
  141.8180   78.6890  222.9940 C   0  0  0  0  0  0  0  0  0  0  0  0
  142.8040   78.2492  222.7833 H   0  0  0  0  0  0  0  0  0  0  0  0
  141.7290   79.9730  223.5380 C   0  0  0  0  0  0  0  0  0  0  0  0
  143.1880   80.8760  223.9010 Cl  0  0  0  0  0  0  0  0  0  0  0  0
  140.4760   80.5380  223.7880 C   0  0  0  0  0  0  0  0  0  0  0  0
  140.4061   81.5523  224.2079 H   0  0  0  0  0  0  0  0  0  0  0  0
  139.3090   79.8180  223.5060 C   0  0  0  0  0  0  0  0  0  0  0  0
  137.7460   80.5460  223.8440 Cl  0  0  0  0  0  0  0  0  0  0  0  0
  1  2  1  0
  2  3  1  0
  3  4  1  0
  4  5  1  0
  5  6  2  0
  6  7  1  0
  6  8  1  0
  8  9  2  0
  9 10  1  0
  9 11  1  0
 11 12  1  0
 11 13  2  0
 13 14  1  0
 13 15  1  0
 15 16  1  0
 16 17  1  0
 16 18  1  0
 16 19  1  0
 15 20  2  0
 20 21  1  0
  3 22  2  0
 22 23  1  0
 22 24  1  0
 24 25  1  0
 24 26  1  0
 24 27  1  0
 27 28  1  0
 27 29  1  0
 27 30  1  0
 30 31  1  0
 31 32  2  0
 32 33  1  0
 32 34  1  0
 34 35  1  0
 34 36  2  0
 36 37  1  0
 36 38  1  0
 38 39  1  0
 38 40  2  0
 40 41  1  0
 20  8  1  0
 40 31  1  0
M  CHG  1   4  -1
M  END
>  <UniqueID>  (11) 
17

>  <SMILES>  (11) 
O/C(=C\CCOc1ccc(Cl)cc1Cl)[N-]/N=C/c1cccc(C(F)(F)F)c1

>  <Energy>  (11) 
36.18669450691413

>  <Genealogy>  (11) 
O=C(CCCOc1ccc(Cl)cc1Cl)[N-]N=Cc1cccc(C(F)(F)F)c1 (protonated)
OC(=CCCOc1ccc(Cl)cc1Cl)[N-]N=Cc1cccc(C(F)(F)F)c1 (tautomer)
O/C(=C\CCOc1ccc(Cl)cc1Cl)[N-]/N=C/c1cccc(C(F)(F)F)c1 (cis-trans isomerization)
O/C(=C\CCOc1ccc(Cl)cc1Cl)[N-]/N=C/c1cccc(C(F)(F)F)c1 (3D coordinates assigned)
O/C(=C\CCOc1ccc(Cl)cc1Cl)[N-]/N=C/c1cccc(C(F)(F)F)c1 (optimized conformer: 36.18669450691413 kcal/mol)

>  <smiles>  (11) 
O=C(CCCOc1ccc(Cl)cc1Cl)NN=Cc1cccc(C(F)(F)F)c1

>  <score_type>  (11) 
oracle

>  <origin>  (11) 
autodockgpu

>  <m_score__min__energy>  (11) 
-7.1100000000000003

>  <m_primary>  (11) 
energy

>  <meeko>  (11) 
{"free_energy": -6.47, "intermolecular_energy": -9.76, "internal_energy": -0.7, "cluster_size": 9, "cluster_id": 1, "rank_in_cluster": 3}

>  <energy>  (11) 
-6.39

>  <cluster_rmsd>  (11) 
0.0

>  <rmsd>  (11) 
272.25

>  <cluster>  (11) 
3

$$$$
JBHRSOAXAGIKHA-ZYTNAAKSNA-N
     RDKit          3D

 41 42  0  0  0  0  0  0  0  0999 V2000
  142.0920   71.7070  220.1360 H   0  0  0  0  0  0  0  0  0  0  0  0
  141.8990   72.6080  220.5540 O   0  0  0  0  0  0  0  0  0  0  0  0
  140.6410   76.0840  221.7480 C   0  0  0  0  0  0  0  0  0  0  0  0
  140.7040   73.8030  222.3060 N   0  0  0  0  0  0  0  0  0  0  0  0
  140.0320   75.0260  222.1810 N   0  0  0  0  0  0  0  0  0  0  0  0
  139.6150   72.1290  220.9460 C   0  0  0  0  0  0  0  0  0  0  0  0
  139.6734   71.3604  220.1613 H   0  0  0  0  0  0  0  0  0  0  0  0
  140.3820   77.4060  222.3530 C   0  0  0  0  0  0  0  0  0  0  0  0
  139.0830   77.7960  222.7250 C   0  0  0  0  0  0  0  0  0  0  0  0
  138.2386   77.1089  222.5676 H   0  0  0  0  0  0  0  0  0  0  0  0
  138.8610   79.0510  223.2930 C   0  0  0  0  0  0  0  0  0  0  0  0
  137.8416   79.3518  223.5763 H   0  0  0  0  0  0  0  0  0  0  0  0
  139.9280   79.9260  223.5030 C   0  0  0  0  0  0  0  0  0  0  0  0
  139.7430   80.9181  223.9407 H   0  0  0  0  0  0  0  0  0  0  0  0
  141.2370   79.5480  223.1590 C   0  0  0  0  0  0  0  0  0  0  0  0
  142.3830   80.5110  223.3400 C   0  0  0  0  0  0  0  0  0  0  0  0
  142.9560   80.3570  224.5900 F   0  0  0  0  0  0  0  0  0  0  0  0
  141.9480   81.8200  223.2210 F   0  0  0  0  0  0  0  0  0  0  0  0
  143.3410   80.2650  222.3730 F   0  0  0  0  0  0  0  0  0  0  0  0
  141.4500   78.2930  222.5620 C   0  0  0  0  0  0  0  0  0  0  0  0
  142.4656   78.0026  222.2550 H   0  0  0  0  0  0  0  0  0  0  0  0
  140.7140   72.8290  221.2540 C   0  0  0  0  0  0  0  0  0  0  0  0
  141.3597   75.9967  220.9198 H   0  0  0  0  0  0  0  0  0  0  0  0
  138.3020   72.3640  221.6430 C   0  0  0  0  0  0  0  0  0  0  0  0
  138.0924   73.4438  221.6476 H   0  0  0  0  0  0  0  0  0  0  0  0
  137.5269   71.8064  221.0969 H   0  0  0  0  0  0  0  0  0  0  0  0
  138.3120   71.8580  223.0890 C   0  0  0  0  0  0  0  0  0  0  0  0
  138.4598   72.7101  223.7688 H   0  0  0  0  0  0  0  0  0  0  0  0
  137.3509   71.3654  223.2980 H   0  0  0  0  0  0  0  0  0  0  0  0
  139.3660   70.9120  223.2860 O   0  0  0  0  0  0  0  0  0  0  0  0
  139.7510   70.3750  224.5250 C   0  0  0  0  0  0  0  0  0  0  0  0
  140.3240   71.1690  225.5370 C   0  0  0  0  0  0  0  0  0  0  0  0
  140.4727   72.2460  225.3698 H   0  0  0  0  0  0  0  0  0  0  0  0
  140.7050   70.5940  226.7540 C   0  0  0  0  0  0  0  0  0  0  0  0
  141.1535   71.2193  227.5400 H   0  0  0  0  0  0  0  0  0  0  0  0
  140.5170   69.2270  226.9730 C   0  0  0  0  0  0  0  0  0  0  0  0
  141.0130   68.5050  228.4930 Cl  0  0  0  0  0  0  0  0  0  0  0  0
  139.9300   68.4360  225.9820 C   0  0  0  0  0  0  0  0  0  0  0  0
  139.7746   67.3614  226.1586 H   0  0  0  0  0  0  0  0  0  0  0  0
  139.5390   69.0070  224.7650 C   0  0  0  0  0  0  0  0  0  0  0  0
  138.8170   67.9880  223.5290 Cl  0  0  0  0  0  0  0  0  0  0  0  0
  1  2  1  0
  2  3  1  0
  3  4  1  0
  4  5  1  0
  5  6  2  0
  6  7  1  0
  6  8  1  0
  8  9  2  0
  9 10  1  0
  9 11  1  0
 11 12  1  0
 11 13  2  0
 13 14  1  0
 13 15  1  0
 15 16  1  0
 16 17  1  0
 16 18  1  0
 16 19  1  0
 15 20  2  0
 20 21  1  0
  3 22  2  0
 22 23  1  0
 22 24  1  0
 24 25  1  0
 24 26  1  0
 24 27  1  0
 27 28  1  0
 27 29  1  0
 27 30  1  0
 30 31  1  0
 31 32  2  0
 32 33  1  0
 32 34  1  0
 34 35  1  0
 34 36  2  0
 36 37  1  0
 36 38  1  0
 38 39  1  0
 38 40  2  0
 40 41  1  0
 20  8  1  0
 40 31  1  0
M  CHG  1   4  -1
M  END
>  <UniqueID>  (12) 
17

>  <SMILES>  (12) 
O/C(=C\CCOc1ccc(Cl)cc1Cl)[N-]/N=C/c1cccc(C(F)(F)F)c1

>  <Energy>  (12) 
36.18669450691413

>  <Genealogy>  (12) 
O=C(CCCOc1ccc(Cl)cc1Cl)[N-]N=Cc1cccc(C(F)(F)F)c1 (protonated)
OC(=CCCOc1ccc(Cl)cc1Cl)[N-]N=Cc1cccc(C(F)(F)F)c1 (tautomer)
O/C(=C\CCOc1ccc(Cl)cc1Cl)[N-]/N=C/c1cccc(C(F)(F)F)c1 (cis-trans isomerization)
O/C(=C\CCOc1ccc(Cl)cc1Cl)[N-]/N=C/c1cccc(C(F)(F)F)c1 (3D coordinates assigned)
O/C(=C\CCOc1ccc(Cl)cc1Cl)[N-]/N=C/c1cccc(C(F)(F)F)c1 (optimized conformer: 36.18669450691413 kcal/mol)

>  <smiles>  (12) 
O=C(CCCOc1ccc(Cl)cc1Cl)NN=Cc1cccc(C(F)(F)F)c1

>  <score_type>  (12) 
oracle

>  <origin>  (12) 
autodockgpu

>  <m_score__min__energy>  (12) 
-7.1100000000000003

>  <m_primary>  (12) 
energy

>  <meeko>  (12) 
{"free_energy": -5.95, "intermolecular_energy": -9.23, "internal_energy": -0.7, "cluster_size": 2, "cluster_id": 5, "rank_in_cluster": 1}

>  <energy>  (12) 
-6.32

>  <cluster_rmsd>  (12) 
1.46

>  <rmsd>  (12) 
272.08

>  <cluster>  (12) 
3

$$$$
JBHRSOAXAGIKHA-ZYTNAAKSNA-N
     RDKit          3D

 41 42  0  0  0  0  0  0  0  0999 V2000
  141.8310   75.7670  222.4740 H   0  0  0  0  0  0  0  0  0  0  0  0
  141.4820   75.3830  221.6050 O   0  0  0  0  0  0  0  0  0  0  0  0
  140.1430   71.4690  222.9710 C   0  0  0  0  0  0  0  0  0  0  0  0
  139.9430   73.7790  222.5970 N   0  0  0  0  0  0  0  0  0  0  0  0
  140.7070   72.6240  222.8120 N   0  0  0  0  0  0  0  0  0  0  0  0
  139.4060   74.9530  220.5540 C   0  0  0  0  0  0  0  0  0  0  0  0
  138.7443   75.8301  220.6079 H   0  0  0  0  0  0  0  0  0  0  0  0
  140.0440   70.8540  224.3100 C   0  0  0  0  0  0  0  0  0  0  0  0
  139.4690   69.5820  224.4860 C   0  0  0  0  0  0  0  0  0  0  0  0
  139.0865   69.0285  223.6157 H   0  0  0  0  0  0  0  0  0  0  0  0
  139.3820   69.0200  225.7600 C   0  0  0  0  0  0  0  0  0  0  0  0
  138.9243   68.0284  225.8915 H   0  0  0  0  0  0  0  0  0  0  0  0
  139.8740   69.7120  226.8690 C   0  0  0  0  0  0  0  0  0  0  0  0
  139.7930   69.2668  227.8716 H   0  0  0  0  0  0  0  0  0  0  0  0
  140.4720   70.9740  226.7110 C   0  0  0  0  0  0  0  0  0  0  0  0
  140.9580   71.7440  227.9140 C   0  0  0  0  0  0  0  0  0  0  0  0
  139.8890   72.2400  228.6390 F   0  0  0  0  0  0  0  0  0  0  0  0
  141.7490   72.8120  227.5260 F   0  0  0  0  0  0  0  0  0  0  0  0
  141.7000   70.9040  228.7230 F   0  0  0  0  0  0  0  0  0  0  0  0
  140.5300   71.5470  225.4290 C   0  0  0  0  0  0  0  0  0  0  0  0
  140.9615   72.5507  225.3014 H   0  0  0  0  0  0  0  0  0  0  0  0
  140.2590   74.7180  221.5600 C   0  0  0  0  0  0  0  0  0  0  0  0
  139.7328   70.9398  222.0982 H   0  0  0  0  0  0  0  0  0  0  0  0
  139.3280   74.0510  219.3530 C   0  0  0  0  0  0  0  0  0  0  0  0
  139.4082   73.0068  219.6895 H   0  0  0  0  0  0  0  0  0  0  0  0
  138.3667   74.2403  218.8529 H   0  0  0  0  0  0  0  0  0  0  0  0
  140.4440   74.3290  218.3410 C   0  0  0  0  0  0  0  0  0  0  0  0
  140.0162   74.3475  217.3278 H   0  0  0  0  0  0  0  0  0  0  0  0
  140.9035   75.2996  218.5792 H   0  0  0  0  0  0  0  0  0  0  0  0
  141.4500   73.3160  218.4070 O   0  0  0  0  0  0  0  0  0  0  0  0
  142.5950   73.3630  219.2180 C   0  0  0  0  0  0  0  0  0  0  0  0
  143.3860   74.5240  219.3270 C   0  0  0  0  0  0  0  0  0  0  0  0
  143.1051   75.4317  218.7727 H   0  0  0  0  0  0  0  0  0  0  0  0
  144.5260   74.5280  220.1360 C   0  0  0  0  0  0  0  0  0  0  0  0
  145.1403   75.4371  220.2142 H   0  0  0  0  0  0  0  0  0  0  0  0
  144.8870   73.3790  220.8460 C   0  0  0  0  0  0  0  0  0  0  0  0
  146.3270   73.3820  221.8460 Cl  0  0  0  0  0  0  0  0  0  0  0  0
  144.0960   72.2300  220.7610 C   0  0  0  0  0  0  0  0  0  0  0  0
  144.3752   71.3287  221.3265 H   0  0  0  0  0  0  0  0  0  0  0  0
  142.9490   72.2230  219.9580 C   0  0  0  0  0  0  0  0  0  0  0  0
  141.9800   70.7600  219.8560 Cl  0  0  0  0  0  0  0  0  0  0  0  0
  1  2  1  0
  2  3  1  0
  3  4  1  0
  4  5  1  0
  5  6  2  0
  6  7  1  0
  6  8  1  0
  8  9  2  0
  9 10  1  0
  9 11  1  0
 11 12  1  0
 11 13  2  0
 13 14  1  0
 13 15  1  0
 15 16  1  0
 16 17  1  0
 16 18  1  0
 16 19  1  0
 15 20  2  0
 20 21  1  0
  3 22  2  0
 22 23  1  0
 22 24  1  0
 24 25  1  0
 24 26  1  0
 24 27  1  0
 27 28  1  0
 27 29  1  0
 27 30  1  0
 30 31  1  0
 31 32  2  0
 32 33  1  0
 32 34  1  0
 34 35  1  0
 34 36  2  0
 36 37  1  0
 36 38  1  0
 38 39  1  0
 38 40  2  0
 40 41  1  0
 20  8  1  0
 40 31  1  0
M  CHG  1   4  -1
M  END
>  <UniqueID>  (13) 
17

>  <SMILES>  (13) 
O/C(=C\CCOc1ccc(Cl)cc1Cl)[N-]/N=C/c1cccc(C(F)(F)F)c1

>  <Energy>  (13) 
36.18669450691413

>  <Genealogy>  (13) 
O=C(CCCOc1ccc(Cl)cc1Cl)[N-]N=Cc1cccc(C(F)(F)F)c1 (protonated)
OC(=CCCOc1ccc(Cl)cc1Cl)[N-]N=Cc1cccc(C(F)(F)F)c1 (tautomer)
O/C(=C\CCOc1ccc(Cl)cc1Cl)[N-]/N=C/c1cccc(C(F)(F)F)c1 (cis-trans isomerization)
O/C(=C\CCOc1ccc(Cl)cc1Cl)[N-]/N=C/c1cccc(C(F)(F)F)c1 (3D coordinates assigned)
O/C(=C\CCOc1ccc(Cl)cc1Cl)[N-]/N=C/c1cccc(C(F)(F)F)c1 (optimized conformer: 36.18669450691413 kcal/mol)

>  <smiles>  (13) 
O=C(CCCOc1ccc(Cl)cc1Cl)NN=Cc1cccc(C(F)(F)F)c1

>  <score_type>  (13) 
oracle

>  <origin>  (13) 
autodockgpu

>  <m_score__min__energy>  (13) 
-7.1100000000000003

>  <m_primary>  (13) 
energy

>  <meeko>  (13) 
{"free_energy": -5.84, "intermolecular_energy": -9.13, "internal_energy": -1.49, "cluster_size": 5, "cluster_id": 3, "rank_in_cluster": 4}

>  <energy>  (13) 
-6.15

>  <cluster_rmsd>  (13) 
1.13

>  <rmsd>  (13) 
272.18

>  <cluster>  (13) 
3

$$$$
JBHRSOAXAGIKHA-ZYTNAAKSNA-N
     RDKit          3D

 41 42  0  0  0  0  0  0  0  0999 V2000
  139.4610   73.8160  223.0070 H   0  0  0  0  0  0  0  0  0  0  0  0
  139.9900   74.3700  222.3460 O   0  0  0  0  0  0  0  0  0  0  0  0
  142.5330   75.7880  219.6320 C   0  0  0  0  0  0  0  0  0  0  0  0
  140.3300   75.0850  220.0440 N   0  0  0  0  0  0  0  0  0  0  0  0
  141.4110   75.9510  220.2570 N   0  0  0  0  0  0  0  0  0  0  0  0
  139.6230   72.8380  220.5810 C   0  0  0  0  0  0  0  0  0  0  0  0
  139.4944   72.6471  219.5053 H   0  0  0  0  0  0  0  0  0  0  0  0
  143.4140   74.6450  219.9450 C   0  0  0  0  0  0  0  0  0  0  0  0
  144.6990   74.8410  220.4810 C   0  0  0  0  0  0  0  0  0  0  0  0
  145.0617   75.8612  220.6749 H   0  0  0  0  0  0  0  0  0  0  0  0
  145.5160   73.7470  220.7680 C   0  0  0  0  0  0  0  0  0  0  0  0
  146.5221   73.9082  221.1824 H   0  0  0  0  0  0  0  0  0  0  0  0
  145.0610   72.4480  220.5310 C   0  0  0  0  0  0  0  0  0  0  0  0
  145.7150   71.5909  220.7494 H   0  0  0  0  0  0  0  0  0  0  0  0
  143.7720   72.2300  220.0150 C   0  0  0  0  0  0  0  0  0  0  0  0
  143.2970   70.8310  219.7120 C   0  0  0  0  0  0  0  0  0  0  0  0
  142.0480   70.6100  220.2650 F   0  0  0  0  0  0  0  0  0  0  0  0
  144.1720   69.8920  220.2310 F   0  0  0  0  0  0  0  0  0  0  0  0
  143.2190   70.6640  218.3420 F   0  0  0  0  0  0  0  0  0  0  0  0
  142.9640   73.3380  219.7030 C   0  0  0  0  0  0  0  0  0  0  0  0
  141.9680   73.1783  219.2643 H   0  0  0  0  0  0  0  0  0  0  0  0
  139.9750   74.0640  220.9860 C   0  0  0  0  0  0  0  0  0  0  0  0
  142.8337   76.5098  218.8583 H   0  0  0  0  0  0  0  0  0  0  0  0
  139.3980   71.7130  221.5550 C   0  0  0  0  0  0  0  0  0  0  0  0
  138.4242   71.8592  222.0452 H   0  0  0  0  0  0  0  0  0  0  0  0
  139.4266   70.7692  220.9907 H   0  0  0  0  0  0  0  0  0  0  0  0
  140.4860   71.6480  222.6310 C   0  0  0  0  0  0  0  0  0  0  0  0
  140.9373   70.6448  222.6282 H   0  0  0  0  0  0  0  0  0  0  0  0
  141.2482   72.4097  222.4100 H   0  0  0  0  0  0  0  0  0  0  0  0
  139.9340   71.9110  223.9240 O   0  0  0  0  0  0  0  0  0  0  0  0
  140.1390   71.1250  225.0690 C   0  0  0  0  0  0  0  0  0  0  0  0
  140.8920   71.5850  226.1660 C   0  0  0  0  0  0  0  0  0  0  0  0
  141.3323   72.5928  226.1436 H   0  0  0  0  0  0  0  0  0  0  0  0
  141.0830   70.7670  227.2840 C   0  0  0  0  0  0  0  0  0  0  0  0
  141.6728   71.1327  228.1375 H   0  0  0  0  0  0  0  0  0  0  0  0
  140.5260   69.4860  227.3190 C   0  0  0  0  0  0  0  0  0  0  0  0
  140.7830   68.4550  228.7150 Cl  0  0  0  0  0  0  0  0  0  0  0  0
  139.7600   69.0290  226.2430 C   0  0  0  0  0  0  0  0  0  0  0  0
  139.3139   68.0240  226.2748 H   0  0  0  0  0  0  0  0  0  0  0  0
  139.5590   69.8470  225.1250 C   0  0  0  0  0  0  0  0  0  0  0  0
  138.6050   69.2430  223.7790 Cl  0  0  0  0  0  0  0  0  0  0  0  0
  1  2  1  0
  2  3  1  0
  3  4  1  0
  4  5  1  0
  5  6  2  0
  6  7  1  0
  6  8  1  0
  8  9  2  0
  9 10  1  0
  9 11  1  0
 11 12  1  0
 11 13  2  0
 13 14  1  0
 13 15  1  0
 15 16  1  0
 16 17  1  0
 16 18  1  0
 16 19  1  0
 15 20  2  0
 20 21  1  0
  3 22  2  0
 22 23  1  0
 22 24  1  0
 24 25  1  0
 24 26  1  0
 24 27  1  0
 27 28  1  0
 27 29  1  0
 27 30  1  0
 30 31  1  0
 31 32  2  0
 32 33  1  0
 32 34  1  0
 34 35  1  0
 34 36  2  0
 36 37  1  0
 36 38  1  0
 38 39  1  0
 38 40  2  0
 40 41  1  0
 20  8  1  0
 40 31  1  0
M  CHG  1   4  -1
M  END
>  <UniqueID>  (14) 
17

>  <SMILES>  (14) 
O/C(=C\CCOc1ccc(Cl)cc1Cl)[N-]/N=C/c1cccc(C(F)(F)F)c1

>  <Energy>  (14) 
36.18669450691413

>  <Genealogy>  (14) 
O=C(CCCOc1ccc(Cl)cc1Cl)[N-]N=Cc1cccc(C(F)(F)F)c1 (protonated)
OC(=CCCOc1ccc(Cl)cc1Cl)[N-]N=Cc1cccc(C(F)(F)F)c1 (tautomer)
O/C(=C\CCOc1ccc(Cl)cc1Cl)[N-]/N=C/c1cccc(C(F)(F)F)c1 (cis-trans isomerization)
O/C(=C\CCOc1ccc(Cl)cc1Cl)[N-]/N=C/c1cccc(C(F)(F)F)c1 (3D coordinates assigned)
O/C(=C\CCOc1ccc(Cl)cc1Cl)[N-]/N=C/c1cccc(C(F)(F)F)c1 (optimized conformer: 36.18669450691413 kcal/mol)

>  <smiles>  (14) 
O=C(CCCOc1ccc(Cl)cc1Cl)NN=Cc1cccc(C(F)(F)F)c1

>  <score_type>  (14) 
oracle

>  <origin>  (14) 
autodockgpu

>  <m_score__min__energy>  (14) 
-7.1100000000000003

>  <m_primary>  (14) 
energy

>  <meeko>  (14) 
{"free_energy": -5.48, "intermolecular_energy": -8.76, "internal_energy": -1.57, "cluster_size": 1, "cluster_id": 7, "rank_in_cluster": 1}

>  <energy>  (14) 
-5.84

>  <cluster_rmsd>  (14) 
1.16

>  <rmsd>  (14) 
272.01

>  <cluster>  (14) 
3

$$$$
JBHRSOAXAGIKHA-ZYTNAAKSNA-N
     RDKit          3D

 41 42  0  0  0  0  0  0  0  0999 V2000
  141.2440   71.1390  222.4590 H   0  0  0  0  0  0  0  0  0  0  0  0
  141.4220   71.9450  221.8740 O   0  0  0  0  0  0  0  0  0  0  0  0
  139.6350   76.3200  221.6650 C   0  0  0  0  0  0  0  0  0  0  0  0
  140.7830   74.2920  221.9610 N   0  0  0  0  0  0  0  0  0  0  0  0
  139.8190   75.2340  222.3450 N   0  0  0  0  0  0  0  0  0  0  0  0
  139.2180   72.5780  221.2920 C   0  0  0  0  0  0  0  0  0  0  0  0
  139.0668   72.2648  220.2484 H   0  0  0  0  0  0  0  0  0  0  0  0
  139.7420   77.6450  222.3090 C   0  0  0  0  0  0  0  0  0  0  0  0
  138.6200   78.2660  222.8860 C   0  0  0  0  0  0  0  0  0  0  0  0
  137.6423   77.7624  222.8621 H   0  0  0  0  0  0  0  0  0  0  0  0
  138.7420   79.5190  223.4890 C   0  0  0  0  0  0  0  0  0  0  0  0
  137.8595   80.0021  223.9338 H   0  0  0  0  0  0  0  0  0  0  0  0
  139.9820   80.1610  223.5290 C   0  0  0  0  0  0  0  0  0  0  0  0
  140.0684   81.1535  223.9953 H   0  0  0  0  0  0  0  0  0  0  0  0
  141.1190   79.5480  222.9780 C   0  0  0  0  0  0  0  0  0  0  0  0
  142.4480   80.2620  222.9770 C   0  0  0  0  0  0  0  0  0  0  0  0
  143.4770   79.3750  222.7110 F   0  0  0  0  0  0  0  0  0  0  0  0
  142.6900   80.8490  224.2060 F   0  0  0  0  0  0  0  0  0  0  0  0
  142.4360   81.2430  222.0030 F   0  0  0  0  0  0  0  0  0  0  0  0
  140.9830   78.2980  222.3480 C   0  0  0  0  0  0  0  0  0  0  0  0
  141.8601   77.8268  221.8803 H   0  0  0  0  0  0  0  0  0  0  0  0
  140.4470   72.9250  221.6950 C   0  0  0  0  0  0  0  0  0  0  0  0
  139.3958   76.2553  220.5933 H   0  0  0  0  0  0  0  0  0  0  0  0
  138.0380   72.6040  222.2250 C   0  0  0  0  0  0  0  0  0  0  0  0
  138.0601   73.5433  222.7971 H   0  0  0  0  0  0  0  0  0  0  0  0
  137.1256   72.5259  221.6155 H   0  0  0  0  0  0  0  0  0  0  0  0
  138.0470   71.4280  223.2080 C   0  0  0  0  0  0  0  0  0  0  0  0
  137.5109   71.7184  224.1236 H   0  0  0  0  0  0  0  0  0  0  0  0
  137.5535   70.5667  222.7341 H   0  0  0  0  0  0  0  0  0  0  0  0
  139.3880   71.0620  223.5450 O   0  0  0  0  0  0  0  0  0  0  0  0
  139.7860   70.4700  224.7540 C   0  0  0  0  0  0  0  0  0  0  0  0
  140.3810   71.2160  225.7910 C   0  0  0  0  0  0  0  0  0  0  0  0
  140.5369   72.2979  225.6675 H   0  0  0  0  0  0  0  0  0  0  0  0
  140.7740   70.5870  226.9760 C   0  0  0  0  0  0  0  0  0  0  0  0
  141.2397   71.1749  227.7807 H   0  0  0  0  0  0  0  0  0  0  0  0
  140.5770   69.2140  227.1410 C   0  0  0  0  0  0  0  0  0  0  0  0
  141.0880   68.4250  228.6220 Cl  0  0  0  0  0  0  0  0  0  0  0  0
  139.9670   68.4710  226.1260 C   0  0  0  0  0  0  0  0  0  0  0  0
  139.8027   67.3916  226.2597 H   0  0  0  0  0  0  0  0  0  0  0  0
  139.5650   69.0960  224.9410 C   0  0  0  0  0  0  0  0  0  0  0  0
  138.8150   68.1360  223.6740 Cl  0  0  0  0  0  0  0  0  0  0  0  0
  1  2  1  0
  2  3  1  0
  3  4  1  0
  4  5  1  0
  5  6  2  0
  6  7  1  0
  6  8  1  0
  8  9  2  0
  9 10  1  0
  9 11  1  0
 11 12  1  0
 11 13  2  0
 13 14  1  0
 13 15  1  0
 15 16  1  0
 16 17  1  0
 16 18  1  0
 16 19  1  0
 15 20  2  0
 20 21  1  0
  3 22  2  0
 22 23  1  0
 22 24  1  0
 24 25  1  0
 24 26  1  0
 24 27  1  0
 27 28  1  0
 27 29  1  0
 27 30  1  0
 30 31  1  0
 31 32  2  0
 32 33  1  0
 32 34  1  0
 34 35  1  0
 34 36  2  0
 36 37  1  0
 36 38  1  0
 38 39  1  0
 38 40  2  0
 40 41  1  0
 20  8  1  0
 40 31  1  0
M  CHG  1   4  -1
M  END
>  <UniqueID>  (15) 
17

>  <SMILES>  (15) 
O/C(=C\CCOc1ccc(Cl)cc1Cl)[N-]/N=C/c1cccc(C(F)(F)F)c1

>  <Energy>  (15) 
36.18669450691413

>  <Genealogy>  (15) 
O=C(CCCOc1ccc(Cl)cc1Cl)[N-]N=Cc1cccc(C(F)(F)F)c1 (protonated)
OC(=CCCOc1ccc(Cl)cc1Cl)[N-]N=Cc1cccc(C(F)(F)F)c1 (tautomer)
O/C(=C\CCOc1ccc(Cl)cc1Cl)[N-]/N=C/c1cccc(C(F)(F)F)c1 (cis-trans isomerization)
O/C(=C\CCOc1ccc(Cl)cc1Cl)[N-]/N=C/c1cccc(C(F)(F)F)c1 (3D coordinates assigned)
O/C(=C\CCOc1ccc(Cl)cc1Cl)[N-]/N=C/c1cccc(C(F)(F)F)c1 (optimized conformer: 36.18669450691413 kcal/mol)

>  <smiles>  (15) 
O=C(CCCOc1ccc(Cl)cc1Cl)NN=Cc1cccc(C(F)(F)F)c1

>  <score_type>  (15) 
oracle

>  <origin>  (15) 
autodockgpu

>  <m_score__min__energy>  (15) 
-7.1100000000000003

>  <m_primary>  (15) 
energy

>  <meeko>  (15) 
{"free_energy": -5.95, "intermolecular_energy": -9.23, "internal_energy": -1.25, "cluster_size": 2, "cluster_id": 5, "rank_in_cluster": 2}

>  <energy>  (15) 
-5.74

>  <cluster_rmsd>  (15) 
1.18

>  <rmsd>  (15) 
271.92

>  <cluster>  (15) 
3

$$$$
JBHRSOAXAGIKHA-ZYTNAAKSNA-N
     RDKit          3D

 41 42  0  0  0  0  0  0  0  0999 V2000
  139.2730   73.2460  223.2730 H   0  0  0  0  0  0  0  0  0  0  0  0
  139.9630   73.7340  222.7170 O   0  0  0  0  0  0  0  0  0  0  0  0
  139.7440   73.9780  221.3620 C   0  0  0  0  0  0  0  0  0  0  0  0
  139.9820   75.2950  220.8490 N   0  0  0  0  0  0  0  0  0  0  0  0
  139.9650   76.4290  221.6720 N   0  0  0  0  0  0  0  0  0  0  0  0
  141.0580   77.0510  221.9770 C   0  0  0  0  0  0  0  0  0  0  0  0
  142.0288   76.5798  221.7638 H   0  0  0  0  0  0  0  0  0  0  0  0
  141.0180   78.3860  222.6080 C   0  0  0  0  0  0  0  0  0  0  0  0
  142.2010   79.0720  222.9360 C   0  0  0  0  0  0  0  0  0  0  0  0
  143.1776   78.6136  222.7211 H   0  0  0  0  0  0  0  0  0  0  0  0
  142.1410   80.3320  223.5330 C   0  0  0  0  0  0  0  0  0  0  0  0
  143.0702   80.8607  223.7918 H   0  0  0  0  0  0  0  0  0  0  0  0
  140.9050   80.9240  223.8030 C   0  0  0  0  0  0  0  0  0  0  0  0
  140.8652   81.9120  224.2850 H   0  0  0  0  0  0  0  0  0  0  0  0
  139.7120   80.2640  223.4620 C   0  0  0  0  0  0  0  0  0  0  0  0
  138.3760   80.8800  223.7980 C   0  0  0  0  0  0  0  0  0  0  0  0
  138.1400   81.9910  223.0060 F   0  0  0  0  0  0  0  0  0  0  0  0
  138.3380   81.2790  225.1230 F   0  0  0  0  0  0  0  0  0  0  0  0
  137.3780   79.9500  223.5790 F   0  0  0  0  0  0  0  0  0  0  0  0
  139.7790   78.9840  222.8870 C   0  0  0  0  0  0  0  0  0  0  0  0
  138.8497   78.4440  222.6526 H   0  0  0  0  0  0  0  0  0  0  0  0
  139.3070   72.9920  220.5680 C   0  0  0  0  0  0  0  0  0  0  0  0
  139.9338   72.6686  219.7239 H   0  0  0  0  0  0  0  0  0  0  0  0
  137.9840   72.3140  220.7970 C   0  0  0  0  0  0  0  0  0  0  0  0
  137.1952   73.0800  220.8283 H   0  0  0  0  0  0  0  0  0  0  0  0
  137.8237   71.6040  219.9723 H   0  0  0  0  0  0  0  0  0  0  0  0
  137.9530   71.5220  222.1080 C   0  0  0  0  0  0  0  0  0  0  0  0
  137.4497   72.1218  222.8806 H   0  0  0  0  0  0  0  0  0  0  0  0
  137.4080   70.5813  221.9405 H   0  0  0  0  0  0  0  0  0  0  0  0
  139.2800   71.2140  222.5430 O   0  0  0  0  0  0  0  0  0  0  0  0
  139.6270   70.7540  223.8230 C   0  0  0  0  0  0  0  0  0  0  0  0
  140.3070   71.5670  224.7500 C   0  0  0  0  0  0  0  0  0  0  0  0
  140.5743   72.5993  224.4802 H   0  0  0  0  0  0  0  0  0  0  0  0
  140.6440   71.0680  226.0120 C   0  0  0  0  0  0  0  0  0  0  0  0
  141.1764   71.7081  226.7309 H   0  0  0  0  0  0  0  0  0  0  0  0
  140.3060   69.7580  226.3620 C   0  0  0  0  0  0  0  0  0  0  0  0
  140.7460   69.1290  227.9390 Cl  0  0  0  0  0  0  0  0  0  0  0  0
  139.6120   68.9510  225.4560 C   0  0  0  0  0  0  0  0  0  0  0  0
  139.3385   67.9228  225.7351 H   0  0  0  0  0  0  0  0  0  0  0  0
  139.2640   69.4480  224.1940 C   0  0  0  0  0  0  0  0  0  0  0  0
  138.4060   68.4090  223.0670 Cl  0  0  0  0  0  0  0  0  0  0  0  0
  1  2  1  0
  2  3  1  0
  3  4  1  0
  4  5  1  0
  5  6  2  0
  6  7  1  0
  6  8  1  0
  8  9  2  0
  9 10  1  0
  9 11  1  0
 11 12  1  0
 11 13  2  0
 13 14  1  0
 13 15  1  0
 15 16  1  0
 16 17  1  0
 16 18  1  0
 16 19  1  0
 15 20  2  0
 20 21  1  0
  3 22  2  0
 22 23  1  0
 22 24  1  0
 24 25  1  0
 24 26  1  0
 24 27  1  0
 27 28  1  0
 27 29  1  0
 27 30  1  0
 30 31  1  0
 31 32  2  0
 32 33  1  0
 32 34  1  0
 34 35  1  0
 34 36  2  0
 36 37  1  0
 36 38  1  0
 38 39  1  0
 38 40  2  0
 40 41  1  0
 20  8  1  0
 40 31  1  0
M  CHG  1   4  -1
M  END
>  <UniqueID>  (16) 
17

>  <SMILES>  (16) 
O/C(=C\CCOc1ccc(Cl)cc1Cl)[N-]/N=C/c1cccc(C(F)(F)F)c1

>  <Energy>  (16) 
36.18669450691413

>  <Genealogy>  (16) 
O=C(CCCOc1ccc(Cl)cc1Cl)[N-]N=Cc1cccc(C(F)(F)F)c1 (protonated)
OC(=CCCOc1ccc(Cl)cc1Cl)[N-]N=Cc1cccc(C(F)(F)F)c1 (tautomer)
O/C(=C\CCOc1ccc(Cl)cc1Cl)[N-]/N=C/c1cccc(C(F)(F)F)c1 (cis-trans isomerization)
O/C(=C\CCOc1ccc(Cl)cc1Cl)[N-]/N=C/c1cccc(C(F)(F)F)c1 (3D coordinates assigned)
O/C(=C\CCOc1ccc(Cl)cc1Cl)[N-]/N=C/c1cccc(C(F)(F)F)c1 (optimized conformer: 36.18669450691413 kcal/mol)

>  <smiles>  (16) 
O=C(CCCOc1ccc(Cl)cc1Cl)NN=Cc1cccc(C(F)(F)F)c1

>  <score_type>  (16) 
oracle

>  <origin>  (16) 
autodockgpu

>  <m_score__min__energy>  (16) 
-7.1100000000000003

>  <m_primary>  (16) 
energy

>  <meeko>  (16) 
{"free_energy": -5.71, "intermolecular_energy": -8.99, "internal_energy": -1.06, "cluster_size": 1, "cluster_id": 6, "rank_in_cluster": 1}

>  <energy>  (16) 
-5.98

>  <cluster_rmsd>  (16) 
0.0

>  <rmsd>  (16) 
271.83

>  <cluster>  (16) 
4

$$$$
JBHRSOAXAGIKHA-ZYTNAAKSNA-N
     RDKit          3D

 41 42  0  0  0  0  0  0  0  0999 V2000
  142.5270   75.5840  221.9430 H   0  0  0  0  0  0  0  0  0  0  0  0
  141.8930   75.0910  221.3270 O   0  0  0  0  0  0  0  0  0  0  0  0
  140.5210   75.0910  221.5670 C   0  0  0  0  0  0  0  0  0  0  0  0
  139.9200   73.9250  222.1450 N   0  0  0  0  0  0  0  0  0  0  0  0
  140.6780   72.9430  222.7980 N   0  0  0  0  0  0  0  0  0  0  0  0
  140.2820   71.7110  222.8410 C   0  0  0  0  0  0  0  0  0  0  0  0
  140.0386   71.1858  221.9056 H   0  0  0  0  0  0  0  0  0  0  0  0
  140.1530   71.0020  224.1300 C   0  0  0  0  0  0  0  0  0  0  0  0
  139.5680   69.7260  224.2040 C   0  0  0  0  0  0  0  0  0  0  0  0
  139.1991   69.2390  223.2893 H   0  0  0  0  0  0  0  0  0  0  0  0
  139.4530   69.0740  225.4330 C   0  0  0  0  0  0  0  0  0  0  0  0
  138.9887   68.0781  225.4843 H   0  0  0  0  0  0  0  0  0  0  0  0
  139.9260   69.6830  226.5980 C   0  0  0  0  0  0  0  0  0  0  0  0
  139.8217   69.1688  227.5648 H   0  0  0  0  0  0  0  0  0  0  0  0
  140.5340   70.9480  226.5420 C   0  0  0  0  0  0  0  0  0  0  0  0
  141.0010   71.6280  227.8050 C   0  0  0  0  0  0  0  0  0  0  0  0
  139.9300   72.1880  228.4800 F   0  0  0  0  0  0  0  0  0  0  0  0
  141.9050   72.6360  227.5160 F   0  0  0  0  0  0  0  0  0  0  0  0
  141.6120   70.6960  228.6240 F   0  0  0  0  0  0  0  0  0  0  0  0
  140.6210   71.6110  225.3050 C   0  0  0  0  0  0  0  0  0  0  0  0
  141.0607   72.6182  225.2575 H   0  0  0  0  0  0  0  0  0  0  0  0
  139.7870   76.1640  221.2490 C   0  0  0  0  0  0  0  0  0  0  0  0
  138.9024   76.0352  220.6080 H   0  0  0  0  0  0  0  0  0  0  0  0
  140.1370   77.5410  221.7430 C   0  0  0  0  0  0  0  0  0  0  0  0
  140.6501   78.0858  220.9368 H   0  0  0  0  0  0  0  0  0  0  0  0
  139.2015   78.0408  222.0349 H   0  0  0  0  0  0  0  0  0  0  0  0
  141.0510   77.5050  222.9720 C   0  0  0  0  0  0  0  0  0  0  0  0
  140.6198   76.8268  223.7230 H   0  0  0  0  0  0  0  0  0  0  0  0
  142.0452   77.1497  222.6633 H   0  0  0  0  0  0  0  0  0  0  0  0
  141.1850   78.8100  223.5400 O   0  0  0  0  0  0  0  0  0  0  0  0
  141.0220   80.0180  222.8420 C   0  0  0  0  0  0  0  0  0  0  0  0
  142.0090   80.5180  221.9720 C   0  0  0  0  0  0  0  0  0  0  0  0
  142.9394   79.9520  221.8170 H   0  0  0  0  0  0  0  0  0  0  0  0
  141.8130   81.7300  221.3040 C   0  0  0  0  0  0  0  0  0  0  0  0
  142.5897   82.1150  220.6269 H   0  0  0  0  0  0  0  0  0  0  0  0
  140.6330   82.4540  221.4940 C   0  0  0  0  0  0  0  0  0  0  0  0
  140.3980   83.9830  220.6690 Cl  0  0  0  0  0  0  0  0  0  0  0  0
  139.6390   81.9540  222.3400 C   0  0  0  0  0  0  0  0  0  0  0  0
  138.7063   82.5192  222.4836 H   0  0  0  0  0  0  0  0  0  0  0  0
  139.8260   80.7370  223.0050 C   0  0  0  0  0  0  0  0  0  0  0  0
  138.5670   80.1390  224.0750 Cl  0  0  0  0  0  0  0  0  0  0  0  0
  1  2  1  0
  2  3  1  0
  3  4  1  0
  4  5  1  0
  5  6  2  0
  6  7  1  0
  6  8  1  0
  8  9  2  0
  9 10  1  0
  9 11  1  0
 11 12  1  0
 11 13  2  0
 13 14  1  0
 13 15  1  0
 15 16  1  0
 16 17  1  0
 16 18  1  0
 16 19  1  0
 15 20  2  0
 20 21  1  0
  3 22  2  0
 22 23  1  0
 22 24  1  0
 24 25  1  0
 24 26  1  0
 24 27  1  0
 27 28  1  0
 27 29  1  0
 27 30  1  0
 30 31  1  0
 31 32  2  0
 32 33  1  0
 32 34  1  0
 34 35  1  0
 34 36  2  0
 36 37  1  0
 36 38  1  0
 38 39  1  0
 38 40  2  0
 40 41  1  0
 20  8  1  0
 40 31  1  0
M  CHG  1   4  -1
M  END
>  <UniqueID>  (17) 
17

>  <SMILES>  (17) 
O/C(=C\CCOc1ccc(Cl)cc1Cl)[N-]/N=C/c1cccc(C(F)(F)F)c1

>  <Energy>  (17) 
36.18669450691413

>  <Genealogy>  (17) 
O=C(CCCOc1ccc(Cl)cc1Cl)[N-]N=Cc1cccc(C(F)(F)F)c1 (protonated)
OC(=CCCOc1ccc(Cl)cc1Cl)[N-]N=Cc1cccc(C(F)(F)F)c1 (tautomer)
O/C(=C\CCOc1ccc(Cl)cc1Cl)[N-]/N=C/c1cccc(C(F)(F)F)c1 (cis-trans isomerization)
O/C(=C\CCOc1ccc(Cl)cc1Cl)[N-]/N=C/c1cccc(C(F)(F)F)c1 (3D coordinates assigned)
O/C(=C\CCOc1ccc(Cl)cc1Cl)[N-]/N=C/c1cccc(C(F)(F)F)c1 (optimized conformer: 36.18669450691413 kcal/mol)

>  <smiles>  (17) 
O=C(CCCOc1ccc(Cl)cc1Cl)NN=Cc1cccc(C(F)(F)F)c1

>  <score_type>  (17) 
oracle

>  <origin>  (17) 
autodockgpu

>  <m_score__min__energy>  (17) 
-7.1100000000000003

>  <m_primary>  (17) 
energy

>  <meeko>  (17) 
{"free_energy": -6.52, "intermolecular_energy": -9.8, "internal_energy": -0.65, "cluster_size": 9, "cluster_id": 1, "rank_in_cluster": 2}

>  <energy>  (17) 
-5.95

>  <cluster_rmsd>  (17) 
0.0

>  <rmsd>  (17) 
272.43

>  <cluster>  (17) 
5

$$$$
JBHRSOAXAGIKHA-ZYTNAAKSNA-N
     RDKit          3D

 41 42  0  0  0  0  0  0  0  0999 V2000
  138.9040   74.1340  223.0870 H   0  0  0  0  0  0  0  0  0  0  0  0
  139.5820   74.6440  222.5340 O   0  0  0  0  0  0  0  0  0  0  0  0
  140.0330   70.6460  222.9710 C   0  0  0  0  0  0  0  0  0  0  0  0
  140.4140   72.5410  221.6360 N   0  0  0  0  0  0  0  0  0  0  0  0
  139.6260   71.7880  222.5180 N   0  0  0  0  0  0  0  0  0  0  0  0
  141.3650   74.6630  220.9790 C   0  0  0  0  0  0  0  0  0  0  0  0
  142.3098   74.9686  221.4522 H   0  0  0  0  0  0  0  0  0  0  0  0
  139.9080   70.3130  224.4040 C   0  0  0  0  0  0  0  0  0  0  0  0
  139.1880   69.1820  224.8290 C   0  0  0  0  0  0  0  0  0  0  0  0
  138.7078   68.5278  224.0864 H   0  0  0  0  0  0  0  0  0  0  0  0
  139.0800   68.8860  226.1880 C   0  0  0  0  0  0  0  0  0  0  0  0
  138.5096   68.0035  226.5133 H   0  0  0  0  0  0  0  0  0  0  0  0
  139.6940   69.7070  227.1370 C   0  0  0  0  0  0  0  0  0  0  0  0
  139.5959   69.4736  228.2075 H   0  0  0  0  0  0  0  0  0  0  0  0
  140.4360   70.8290  226.7320 C   0  0  0  0  0  0  0  0  0  0  0  0
  141.0570   71.7440  227.7580 C   0  0  0  0  0  0  0  0  0  0  0  0
  141.9260   72.6350  227.1530 F   0  0  0  0  0  0  0  0  0  0  0  0
  141.7680   71.0180  228.6980 F   0  0  0  0  0  0  0  0  0  0  0  0
  140.0580   72.4540  228.3990 F   0  0  0  0  0  0  0  0  0  0  0  0
  140.5170   71.1380  225.3630 C   0  0  0  0  0  0  0  0  0  0  0  0
  141.0636   72.0361  225.0396 H   0  0  0  0  0  0  0  0  0  0  0  0
  140.4710   73.9720  221.6980 C   0  0  0  0  0  0  0  0  0  0  0  0
  140.4775   69.9146  222.2800 H   0  0  0  0  0  0  0  0  0  0  0  0
  141.1140   75.0330  219.5430 C   0  0  0  0  0  0  0  0  0  0  0  0
  142.0711   75.3101  219.0770 H   0  0  0  0  0  0  0  0  0  0  0  0
  140.6614   74.1622  219.0462 H   0  0  0  0  0  0  0  0  0  0  0  0
  140.1410   76.2080  219.4050 C   0  0  0  0  0  0  0  0  0  0  0  0
  139.5391   76.0734  218.4942 H   0  0  0  0  0  0  0  0  0  0  0  0
  139.4906   76.2347  220.2917 H   0  0  0  0  0  0  0  0  0  0  0  0
  140.8520   77.4450  219.3190 O   0  0  0  0  0  0  0  0  0  0  0  0
  141.2360   78.2370  220.4130 C   0  0  0  0  0  0  0  0  0  0  0  0
  141.0910   77.7950  221.7420 C   0  0  0  0  0  0  0  0  0  0  0  0
  140.6731   76.7979  221.9450 H   0  0  0  0  0  0  0  0  0  0  0  0
  141.4760   78.6180  222.8050 C   0  0  0  0  0  0  0  0  0  0  0  0
  141.3579   78.2673  223.8409 H   0  0  0  0  0  0  0  0  0  0  0  0
  142.0100   79.8840  222.5550 C   0  0  0  0  0  0  0  0  0  0  0  0
  142.4750   80.9210  223.8910 Cl  0  0  0  0  0  0  0  0  0  0  0  0
  142.1780   80.3220  221.2380 C   0  0  0  0  0  0  0  0  0  0  0  0
  142.6066   81.3156  221.0406 H   0  0  0  0  0  0  0  0  0  0  0  0
  141.8020   79.4990  220.1700 C   0  0  0  0  0  0  0  0  0  0  0  0
  142.0090   80.0790  218.5240 Cl  0  0  0  0  0  0  0  0  0  0  0  0
  1  2  1  0
  2  3  1  0
  3  4  1  0
  4  5  1  0
  5  6  2  0
  6  7  1  0
  6  8  1  0
  8  9  2  0
  9 10  1  0
  9 11  1  0
 11 12  1  0
 11 13  2  0
 13 14  1  0
 13 15  1  0
 15 16  1  0
 16 17  1  0
 16 18  1  0
 16 19  1  0
 15 20  2  0
 20 21  1  0
  3 22  2  0
 22 23  1  0
 22 24  1  0
 24 25  1  0
 24 26  1  0
 24 27  1  0
 27 28  1  0
 27 29  1  0
 27 30  1  0
 30 31  1  0
 31 32  2  0
 32 33  1  0
 32 34  1  0
 34 35  1  0
 34 36  2  0
 36 37  1  0
 36 38  1  0
 38 39  1  0
 38 40  2  0
 40 41  1  0
 20  8  1  0
 40 31  1  0
M  CHG  1   4  -1
M  END
>  <UniqueID>  (18) 
17

>  <SMILES>  (18) 
O/C(=C\CCOc1ccc(Cl)cc1Cl)[N-]/N=C/c1cccc(C(F)(F)F)c1

>  <Energy>  (18) 
36.18669450691413

>  <Genealogy>  (18) 
O=C(CCCOc1ccc(Cl)cc1Cl)[N-]N=Cc1cccc(C(F)(F)F)c1 (protonated)
OC(=CCCOc1ccc(Cl)cc1Cl)[N-]N=Cc1cccc(C(F)(F)F)c1 (tautomer)
O/C(=C\CCOc1ccc(Cl)cc1Cl)[N-]/N=C/c1cccc(C(F)(F)F)c1 (cis-trans isomerization)
O/C(=C\CCOc1ccc(Cl)cc1Cl)[N-]/N=C/c1cccc(C(F)(F)F)c1 (3D coordinates assigned)
O/C(=C\CCOc1ccc(Cl)cc1Cl)[N-]/N=C/c1cccc(C(F)(F)F)c1 (optimized conformer: 36.18669450691413 kcal/mol)

>  <smiles>  (18) 
O=C(CCCOc1ccc(Cl)cc1Cl)NN=Cc1cccc(C(F)(F)F)c1

>  <score_type>  (18) 
oracle

>  <origin>  (18) 
autodockgpu

>  <m_score__min__energy>  (18) 
-7.1100000000000003

>  <m_primary>  (18) 
energy

>  <meeko>  (18) 
{"free_energy": -6.2, "intermolecular_energy": -9.48, "internal_energy": -1.03, "cluster_size": 9, "cluster_id": 1, "rank_in_cluster": 8}

>  <energy>  (18) 
-5.95

>  <cluster_rmsd>  (18) 
0.79

>  <rmsd>  (18) 
272.5

>  <cluster>  (18) 
5

$$$$
JBHRSOAXAGIKHA-ZYTNAAKSNA-N
     RDKit          3D

 41 42  0  0  0  0  0  0  0  0999 V2000
  138.2600   74.8510  223.0340 H   0  0  0  0  0  0  0  0  0  0  0  0
  138.7420   75.5700  222.5090 O   0  0  0  0  0  0  0  0  0  0  0  0
  140.4840   71.8340  222.9240 C   0  0  0  0  0  0  0  0  0  0  0  0
  140.5750   74.0260  222.0840 N   0  0  0  0  0  0  0  0  0  0  0  0
  139.9070   72.9770  222.7290 N   0  0  0  0  0  0  0  0  0  0  0  0
  140.7060   76.3530  221.4470 C   0  0  0  0  0  0  0  0  0  0  0  0
  141.1528   77.1149  222.1026 H   0  0  0  0  0  0  0  0  0  0  0  0
  140.3510   71.1300  224.2140 C   0  0  0  0  0  0  0  0  0  0  0  0
  139.8410   69.8210  224.2800 C   0  0  0  0  0  0  0  0  0  0  0  0
  139.5345   69.3057  223.3578 H   0  0  0  0  0  0  0  0  0  0  0  0
  139.7220   69.1730  225.5100 C   0  0  0  0  0  0  0  0  0  0  0  0
  139.3174   68.1511  225.5545 H   0  0  0  0  0  0  0  0  0  0  0  0
  140.1150   69.8180  226.6850 C   0  0  0  0  0  0  0  0  0  0  0  0
  140.0074   69.3053  227.6522 H   0  0  0  0  0  0  0  0  0  0  0  0
  140.6470   71.1180  226.6390 C   0  0  0  0  0  0  0  0  0  0  0  0
  141.0260   71.8340  227.9110 C   0  0  0  0  0  0  0  0  0  0  0  0
  141.7630   71.0030  228.7360 F   0  0  0  0  0  0  0  0  0  0  0  0
  139.8960   72.2380  228.6020 F   0  0  0  0  0  0  0  0  0  0  0  0
  141.7840   72.9470  227.5980 F   0  0  0  0  0  0  0  0  0  0  0  0
  140.7390   71.7750  225.3990 C   0  0  0  0  0  0  0  0  0  0  0  0
  141.1194   72.8063  225.3571 H   0  0  0  0  0  0  0  0  0  0  0  0
  140.0180   75.3440  221.9970 C   0  0  0  0  0  0  0  0  0  0  0  0
  141.0807   71.3823  222.1178 H   0  0  0  0  0  0  0  0  0  0  0  0
  140.8850   76.4740  219.9590 C   0  0  0  0  0  0  0  0  0  0  0  0
  140.2818   77.3202  219.5982 H   0  0  0  0  0  0  0  0  0  0  0  0
  141.9559   76.6294  219.7613 H   0  0  0  0  0  0  0  0  0  0  0  0
  140.4510   75.2070  219.2140 C   0  0  0  0  0  0  0  0  0  0  0  0
  139.8635   74.5718  219.8932 H   0  0  0  0  0  0  0  0  0  0  0  0
  139.8440   75.4981  218.3441 H   0  0  0  0  0  0  0  0  0  0  0  0
  141.5910   74.4760  218.7560 O   0  0  0  0  0  0  0  0  0  0  0  0
  142.7580   74.2420  219.5030 C   0  0  0  0  0  0  0  0  0  0  0  0
  143.7130   75.2510  219.7310 C   0  0  0  0  0  0  0  0  0  0  0  0
  143.5505   76.2604  219.3251 H   0  0  0  0  0  0  0  0  0  0  0  0
  144.8670   74.9760  220.4710 C   0  0  0  0  0  0  0  0  0  0  0  0
  145.6097   75.7687  220.6443 H   0  0  0  0  0  0  0  0  0  0  0  0
  145.0790   73.6960  220.9910 C   0  0  0  0  0  0  0  0  0  0  0  0
  146.5370   73.3490  221.9020 Cl  0  0  0  0  0  0  0  0  0  0  0  0
  144.1260   72.6950  220.7870 C   0  0  0  0  0  0  0  0  0  0  0  0
  144.2886   71.6900  221.2037 H   0  0  0  0  0  0  0  0  0  0  0  0
  142.9650   72.9670  220.0540 C   0  0  0  0  0  0  0  0  0  0  0  0
  141.7880   71.6860  219.7990 Cl  0  0  0  0  0  0  0  0  0  0  0  0
  1  2  1  0
  2  3  1  0
  3  4  1  0
  4  5  1  0
  5  6  2  0
  6  7  1  0
  6  8  1  0
  8  9  2  0
  9 10  1  0
  9 11  1  0
 11 12  1  0
 11 13  2  0
 13 14  1  0
 13 15  1  0
 15 16  1  0
 16 17  1  0
 16 18  1  0
 16 19  1  0
 15 20  2  0
 20 21  1  0
  3 22  2  0
 22 23  1  0
 22 24  1  0
 24 25  1  0
 24 26  1  0
 24 27  1  0
 27 28  1  0
 27 29  1  0
 27 30  1  0
 30 31  1  0
 31 32  2  0
 32 33  1  0
 32 34  1  0
 34 35  1  0
 34 36  2  0
 36 37  1  0
 36 38  1  0
 38 39  1  0
 38 40  2  0
 40 41  1  0
 20  8  1  0
 40 31  1  0
M  CHG  1   4  -1
M  END
>  <UniqueID>  (19) 
17

>  <SMILES>  (19) 
O/C(=C\CCOc1ccc(Cl)cc1Cl)[N-]/N=C/c1cccc(C(F)(F)F)c1

>  <Energy>  (19) 
36.18669450691413

>  <Genealogy>  (19) 
O=C(CCCOc1ccc(Cl)cc1Cl)[N-]N=Cc1cccc(C(F)(F)F)c1 (protonated)
OC(=CCCOc1ccc(Cl)cc1Cl)[N-]N=Cc1cccc(C(F)(F)F)c1 (tautomer)
O/C(=C\CCOc1ccc(Cl)cc1Cl)[N-]/N=C/c1cccc(C(F)(F)F)c1 (cis-trans isomerization)
O/C(=C\CCOc1ccc(Cl)cc1Cl)[N-]/N=C/c1cccc(C(F)(F)F)c1 (3D coordinates assigned)
O/C(=C\CCOc1ccc(Cl)cc1Cl)[N-]/N=C/c1cccc(C(F)(F)F)c1 (optimized conformer: 36.18669450691413 kcal/mol)

>  <smiles>  (19) 
O=C(CCCOc1ccc(Cl)cc1Cl)NN=Cc1cccc(C(F)(F)F)c1

>  <score_type>  (19) 
oracle

>  <origin>  (19) 
autodockgpu

>  <m_score__min__energy>  (19) 
-7.1100000000000003

>  <m_primary>  (19) 
energy

>  <meeko>  (19) 
{"free_energy": -6.39, "intermolecular_energy": -9.68, "internal_energy": -1.52, "cluster_size": 5, "cluster_id": 3, "rank_in_cluster": 1}

>  <energy>  (19) 
-5.71

>  <cluster_rmsd>  (19) 
0.0

>  <rmsd>  (19) 
272.19

>  <cluster>  (19) 
6

$$$$
JBHRSOAXAGIKHA-ZYTNAAKSNA-N
     RDKit          3D

 41 42  0  0  0  0  0  0  0  0999 V2000
  138.8320   74.9250  223.4470 H   0  0  0  0  0  0  0  0  0  0  0  0
  138.6350   75.3130  222.5330 O   0  0  0  0  0  0  0  0  0  0  0  0
  140.5490   71.8980  222.7710 C   0  0  0  0  0  0  0  0  0  0  0  0
  140.3240   73.8780  221.5270 N   0  0  0  0  0  0  0  0  0  0  0  0
  140.5840   73.1910  222.7210 N   0  0  0  0  0  0  0  0  0  0  0  0
  138.7130   75.0730  220.1810 C   0  0  0  0  0  0  0  0  0  0  0  0
  137.7259   74.6842  219.8905 H   0  0  0  0  0  0  0  0  0  0  0  0
  140.2330   71.1970  224.0320 C   0  0  0  0  0  0  0  0  0  0  0  0
  139.4670   70.0180  224.0380 C   0  0  0  0  0  0  0  0  0  0  0  0
  139.0938   69.6030  223.0901 H   0  0  0  0  0  0  0  0  0  0  0  0
  139.1780   69.3720  225.2400 C   0  0  0  0  0  0  0  0  0  0  0  0
  138.5731   68.4533  225.2373 H   0  0  0  0  0  0  0  0  0  0  0  0
  139.6550   69.8890  226.4480 C   0  0  0  0  0  0  0  0  0  0  0  0
  139.4144   69.3809  227.3935 H   0  0  0  0  0  0  0  0  0  0  0  0
  140.4400   71.0540  226.4610 C   0  0  0  0  0  0  0  0  0  0  0  0
  140.9140   71.6400  227.7680 C   0  0  0  0  0  0  0  0  0  0  0  0
  139.8520   72.1770  228.4740 F   0  0  0  0  0  0  0  0  0  0  0  0
  141.8390   72.6460  227.5480 F   0  0  0  0  0  0  0  0  0  0  0  0
  141.5020   70.6450  228.5270 F   0  0  0  0  0  0  0  0  0  0  0  0
  140.7040   71.7140  225.2490 C   0  0  0  0  0  0  0  0  0  0  0  0
  141.2867   72.6470  225.2539 H   0  0  0  0  0  0  0  0  0  0  0  0
  139.2050   74.7630  221.3870 C   0  0  0  0  0  0  0  0  0  0  0  0
  140.7573   71.3138  221.8626 H   0  0  0  0  0  0  0  0  0  0  0  0
  139.4720   75.9380  219.2120 C   0  0  0  0  0  0  0  0  0  0  0  0
  139.3038   75.5589  218.1932 H   0  0  0  0  0  0  0  0  0  0  0  0
  139.1051   76.9689  219.3239 H   0  0  0  0  0  0  0  0  0  0  0  0
  140.9780   75.9450  219.4920 C   0  0  0  0  0  0  0  0  0  0  0  0
  141.1591   75.5515  220.5031 H   0  0  0  0  0  0  0  0  0  0  0  0
  141.4801   75.3160  218.7422 H   0  0  0  0  0  0  0  0  0  0  0  0
  141.5020   77.2720  219.4040 O   0  0  0  0  0  0  0  0  0  0  0  0
  141.5720   78.1880  220.4660 C   0  0  0  0  0  0  0  0  0  0  0  0
  141.3820   77.7950  221.8050 C   0  0  0  0  0  0  0  0  0  0  0  0
  141.1799   76.7401  222.0423 H   0  0  0  0  0  0  0  0  0  0  0  0
  141.4490   78.7390  222.8340 C   0  0  0  0  0  0  0  0  0  0  0  0
  141.2967   78.4254  223.8773 H   0  0  0  0  0  0  0  0  0  0  0  0
  141.7090   80.0800  222.5400 C   0  0  0  0  0  0  0  0  0  0  0  0
  141.7740   81.2660  223.8310 Cl  0  0  0  0  0  0  0  0  0  0  0  0
  141.9200   80.4750  221.2160 C   0  0  0  0  0  0  0  0  0  0  0  0
  142.1323   81.5294  220.9854 H   0  0  0  0  0  0  0  0  0  0  0  0
  141.8620   79.5330  220.1830 C   0  0  0  0  0  0  0  0  0  0  0  0
  142.1160   80.0580  218.5250 Cl  0  0  0  0  0  0  0  0  0  0  0  0
  1  2  1  0
  2  3  1  0
  3  4  1  0
  4  5  1  0
  5  6  2  0
  6  7  1  0
  6  8  1  0
  8  9  2  0
  9 10  1  0
  9 11  1  0
 11 12  1  0
 11 13  2  0
 13 14  1  0
 13 15  1  0
 15 16  1  0
 16 17  1  0
 16 18  1  0
 16 19  1  0
 15 20  2  0
 20 21  1  0
  3 22  2  0
 22 23  1  0
 22 24  1  0
 24 25  1  0
 24 26  1  0
 24 27  1  0
 27 28  1  0
 27 29  1  0
 27 30  1  0
 30 31  1  0
 31 32  2  0
 32 33  1  0
 32 34  1  0
 34 35  1  0
 34 36  2  0
 36 37  1  0
 36 38  1  0
 38 39  1  0
 38 40  2  0
 40 41  1  0
 20  8  1  0
 40 31  1  0
M  CHG  1   4  -1
M  END
>  <UniqueID>  (20) 
17

>  <SMILES>  (20) 
O/C(=C\CCOc1ccc(Cl)cc1Cl)[N-]/N=C/c1cccc(C(F)(F)F)c1

>  <Energy>  (20) 
36.18669450691413

>  <Genealogy>  (20) 
O=C(CCCOc1ccc(Cl)cc1Cl)[N-]N=Cc1cccc(C(F)(F)F)c1 (protonated)
OC(=CCCOc1ccc(Cl)cc1Cl)[N-]N=Cc1cccc(C(F)(F)F)c1 (tautomer)
O/C(=C\CCOc1ccc(Cl)cc1Cl)[N-]/N=C/c1cccc(C(F)(F)F)c1 (cis-trans isomerization)
O/C(=C\CCOc1ccc(Cl)cc1Cl)[N-]/N=C/c1cccc(C(F)(F)F)c1 (3D coordinates assigned)
O/C(=C\CCOc1ccc(Cl)cc1Cl)[N-]/N=C/c1cccc(C(F)(F)F)c1 (optimized conformer: 36.18669450691413 kcal/mol)

>  <smiles>  (20) 
O=C(CCCOc1ccc(Cl)cc1Cl)NN=Cc1cccc(C(F)(F)F)c1

>  <score_type>  (20) 
oracle

>  <origin>  (20) 
autodockgpu

>  <m_score__min__energy>  (20) 
-7.1100000000000003

>  <m_primary>  (20) 
energy

>  <meeko>  (20) 
{"free_energy": -5.88, "intermolecular_energy": -9.17, "internal_energy": -1.08, "cluster_size": 9, "cluster_id": 1, "rank_in_cluster": 9}

>  <energy>  (20) 
-5.48

>  <cluster_rmsd>  (20) 
0.0

>  <rmsd>  (20) 
271.5

>  <cluster>  (20) 
7

$$$$
VHXSVHVNRGGTDL-PKHXXGQGNA-M
     RDKit          3D

 41 42  0  0  0  0  0  0  0  0999 V2000
  138.3532   68.6863  223.6457 H   0  0  0  0  0  0  0  0  0  0  0  0
  139.1440   69.4030  223.9120 C   0  0  0  0  0  0  0  0  0  0  0  0
  139.5490   70.2590  223.0300 N   0  0  0  0  0  0  0  0  0  0  0  0
  139.0050   71.5470  222.9870 N   0  0  0  0  0  0  0  0  0  0  0  0
  139.7370   72.6430  222.4400 C   0  0  0  0  0  0  0  0  0  0  0  0
  140.9700   72.7630  222.6740 O   0  0  0  0  0  0  0  0  0  0  0  0
  139.0100   73.7010  221.6670 C   0  0  0  0  0  0  0  0  0  0  0  0
  139.4181   73.7374  220.6462 H   0  0  0  0  0  0  0  0  0  0  0  0
  137.9411   73.4411  221.6617 H   0  0  0  0  0  0  0  0  0  0  0  0
  139.1550   75.0930  222.3090 C   0  0  0  0  0  0  0  0  0  0  0  0
  138.7140   75.0612  223.3162 H   0  0  0  0  0  0  0  0  0  0  0  0
  140.2287   75.3307  222.3356 H   0  0  0  0  0  0  0  0  0  0  0  0
  138.4610   76.2040  221.5070 C   0  0  0  0  0  0  0  0  0  0  0  0
  139.0573   76.4395  220.6131 H   0  0  0  0  0  0  0  0  0  0  0  0
  137.4605   75.8665  221.1987 H   0  0  0  0  0  0  0  0  0  0  0  0
  138.3430   77.3690  222.3220 O   0  0  0  0  0  0  0  0  0  0  0  0
  139.3580   78.2790  222.6610 C   0  0  0  0  0  0  0  0  0  0  0  0
  140.6610   77.9150  222.2890 C   0  0  0  0  0  0  0  0  0  0  0  0
  140.8214   76.9940  221.7093 H   0  0  0  0  0  0  0  0  0  0  0  0
  141.7560   78.7030  222.6430 C   0  0  0  0  0  0  0  0  0  0  0  0
  142.7708   78.3989  222.3469 H   0  0  0  0  0  0  0  0  0  0  0  0
  141.5650   79.8760  223.3720 C   0  0  0  0  0  0  0  0  0  0  0  0
  142.9470   80.8430  223.8520 Cl  0  0  0  0  0  0  0  0  0  0  0  0
  140.2720   80.2810  223.7120 C   0  0  0  0  0  0  0  0  0  0  0  0
  140.1238   81.2181  224.2686 H   0  0  0  0  0  0  0  0  0  0  0  0
  139.1610   79.5050  223.3510 C   0  0  0  0  0  0  0  0  0  0  0  0
  137.5790   80.1740  223.7330 Cl  0  0  0  0  0  0  0  0  0  0  0  0
  139.7240   69.3710  225.2690 C   0  0  0  0  0  0  0  0  0  0  0  0
  139.9210   68.1340  225.9000 C   0  0  0  0  0  0  0  0  0  0  0  0
  139.6765   67.2031  225.3675 H   0  0  0  0  0  0  0  0  0  0  0  0
  140.4260   68.0780  227.2010 C   0  0  0  0  0  0  0  0  0  0  0  0
  140.5800   67.1036  227.6876 H   0  0  0  0  0  0  0  0  0  0  0  0
  140.7360   69.2540  227.8860 C   0  0  0  0  0  0  0  0  0  0  0  0
  141.1307   69.2017  228.9114 H   0  0  0  0  0  0  0  0  0  0  0  0
  140.5470   70.5030  227.2740 C   0  0  0  0  0  0  0  0  0  0  0  0
  140.8720   71.7570  228.0470 C   0  0  0  0  0  0  0  0  0  0  0  0
  139.7690   72.2390  228.7320 F   0  0  0  0  0  0  0  0  0  0  0  0
  141.8740   71.4870  228.9600 F   0  0  0  0  0  0  0  0  0  0  0  0
  141.3080   72.7360  227.1720 F   0  0  0  0  0  0  0  0  0  0  0  0
  140.0430   70.5540  225.9600 C   0  0  0  0  0  0  0  0  0  0  0  0
  139.8975   71.5278  225.4695 H   0  0  0  0  0  0  0  0  0  0  0  0
  1  2  1  0
  2  3  2  0
  3  4  1  0
  4  5  1  0
  5  6  2  0
  5  7  1  0
  7  8  1  0
  7  9  1  0
  7 10  1  0
 10 11  1  0
 10 12  1  0
 10 13  1  0
 13 14  1  0
 13 15  1  0
 13 16  1  0
 16 17  1  0
 17 18  2  0
 18 19  1  0
 18 20  1  0
 20 21  1  0
 20 22  2  0
 22 23  1  0
 22 24  1  0
 24 25  1  0
 24 26  2  0
 26 27  1  0
  2 28  1  0
 28 29  2  0
 29 30  1  0
 29 31  1  0
 31 32  1  0
 31 33  2  0
 33 34  1  0
 33 35  1  0
 35 36  1  0
 36 37  1  0
 36 38  1  0
 36 39  1  0
 35 40  2  0
 40 41  1  0
 26 17  1  0
 40 28  1  0
M  CHG  1   4  -1
M  END
>  <UniqueID>  (21) 
18

>  <SMILES>  (21) 
O=C(CCCOc1ccc(Cl)cc1Cl)[N-]/N=C/c1cccc(C(F)(F)F)c1

>  <Energy>  (21) 
36.590309119007514

>  <Genealogy>  (21) 
O=C(CCCOc1ccc(Cl)cc1Cl)[N-]N=Cc1cccc(C(F)(F)F)c1 (protonated)
O=C(CCCOc1ccc(Cl)cc1Cl)[N-]/N=C/c1cccc(C(F)(F)F)c1 (cis-trans isomerization)
O=C(CCCOc1ccc(Cl)cc1Cl)[N-]/N=C/c1cccc(C(F)(F)F)c1 (3D coordinates assigned)
O=C(CCCOc1ccc(Cl)cc1Cl)[N-]/N=C/c1cccc(C(F)(F)F)c1 (optimized conformer: 36.590309119007514 kcal/mol)

>  <smiles>  (21) 
O=C(CCCOc1ccc(Cl)cc1Cl)NN=Cc1cccc(C(F)(F)F)c1

>  <score_type>  (21) 
oracle

>  <origin>  (21) 
autodockgpu

>  <m_score__min__energy>  (21) 
-7.0300000000000002

>  <m_primary>  (21) 
energy

>  <meeko>  (21) 
{"free_energy": -6.66, "intermolecular_energy": -9.65, "internal_energy": -0.66, "cluster_size": 9, "cluster_id": 1, "rank_in_cluster": 5}

>  <energy>  (21) 
-7.03

>  <cluster_rmsd>  (21) 
0.0

>  <rmsd>  (21) 
272.97

>  <cluster>  (21) 
1

$$$$
VHXSVHVNRGGTDL-PKHXXGQGNA-M
     RDKit          3D

 41 42  0  0  0  0  0  0  0  0999 V2000
  138.7749   70.3073  222.6488 H   0  0  0  0  0  0  0  0  0  0  0  0
  139.6190   70.7500  223.1980 C   0  0  0  0  0  0  0  0  0  0  0  0
  140.3700   71.6260  222.6110 N   0  0  0  0  0  0  0  0  0  0  0  0
  140.0960   72.9930  222.7330 N   0  0  0  0  0  0  0  0  0  0  0  0
  139.8790   73.8100  221.5840 C   0  0  0  0  0  0  0  0  0  0  0  0
  139.6170   73.2830  220.4690 O   0  0  0  0  0  0  0  0  0  0  0  0
  140.0610   75.2940  221.6920 C   0  0  0  0  0  0  0  0  0  0  0  0
  139.2937   75.7905  221.0799 H   0  0  0  0  0  0  0  0  0  0  0  0
  139.9669   75.5695  222.7528 H   0  0  0  0  0  0  0  0  0  0  0  0
  141.4500   75.7460  221.2080 C   0  0  0  0  0  0  0  0  0  0  0  0
  142.1164   75.8222  222.0798 H   0  0  0  0  0  0  0  0  0  0  0  0
  141.8028   74.9982  220.4825 H   0  0  0  0  0  0  0  0  0  0  0  0
  141.4280   77.1040  220.4900 C   0  0  0  0  0  0  0  0  0  0  0  0
  142.1469   77.0912  219.6575 H   0  0  0  0  0  0  0  0  0  0  0  0
  140.4188   77.2969  220.0972 H   0  0  0  0  0  0  0  0  0  0  0  0
  141.7860   78.1310  221.4130 O   0  0  0  0  0  0  0  0  0  0  0  0
  140.9310   78.8380  222.2750 C   0  0  0  0  0  0  0  0  0  0  0  0
  139.5940   78.4120  222.3040 C   0  0  0  0  0  0  0  0  0  0  0  0
  139.2942   77.5298  221.7193 H   0  0  0  0  0  0  0  0  0  0  0  0
  138.6400   79.0890  223.0620 C   0  0  0  0  0  0  0  0  0  0  0  0
  137.5960   78.7427  223.0678 H   0  0  0  0  0  0  0  0  0  0  0  0
  139.0080   80.2050  223.8130 C   0  0  0  0  0  0  0  0  0  0  0  0
  137.7980   81.0800  224.7320 Cl  0  0  0  0  0  0  0  0  0  0  0  0
  140.3430   80.6180  223.8360 C   0  0  0  0  0  0  0  0  0  0  0  0
  140.6340   81.4852  224.4469 H   0  0  0  0  0  0  0  0  0  0  0  0
  141.3160   79.9380  223.0880 C   0  0  0  0  0  0  0  0  0  0  0  0
  142.9780   80.4790  223.2870 Cl  0  0  0  0  0  0  0  0  0  0  0  0
  139.8750   70.3350  224.5900 C   0  0  0  0  0  0  0  0  0  0  0  0
  139.6470   69.0010  224.9610 C   0  0  0  0  0  0  0  0  0  0  0  0
  139.3158   68.2726  224.2062 H   0  0  0  0  0  0  0  0  0  0  0  0
  139.8380   68.5930  226.2820 C   0  0  0  0  0  0  0  0  0  0  0  0
  139.6602   67.5444  226.5627 H   0  0  0  0  0  0  0  0  0  0  0  0
  140.2540   69.5110  227.2490 C   0  0  0  0  0  0  0  0  0  0  0  0
  140.3991   69.1824  228.2887 H   0  0  0  0  0  0  0  0  0  0  0  0
  140.4880   70.8510  226.9010 C   0  0  0  0  0  0  0  0  0  0  0  0
  140.9180   71.8240  227.9710 C   0  0  0  0  0  0  0  0  0  0  0  0
  139.8460   72.2540  228.7350 F   0  0  0  0  0  0  0  0  0  0  0  0
  141.8370   71.2140  228.8040 F   0  0  0  0  0  0  0  0  0  0  0  0
  141.5070   72.9270  227.3790 F   0  0  0  0  0  0  0  0  0  0  0  0
  140.3000   71.2560  225.5660 C   0  0  0  0  0  0  0  0  0  0  0  0
  140.4870   72.3023  225.2827 H   0  0  0  0  0  0  0  0  0  0  0  0
  1  2  1  0
  2  3  2  0
  3  4  1  0
  4  5  1  0
  5  6  2  0
  5  7  1  0
  7  8  1  0
  7  9  1  0
  7 10  1  0
 10 11  1  0
 10 12  1  0
 10 13  1  0
 13 14  1  0
 13 15  1  0
 13 16  1  0
 16 17  1  0
 17 18  2  0
 18 19  1  0
 18 20  1  0
 20 21  1  0
 20 22  2  0
 22 23  1  0
 22 24  1  0
 24 25  1  0
 24 26  2  0
 26 27  1  0
  2 28  1  0
 28 29  2  0
 29 30  1  0
 29 31  1  0
 31 32  1  0
 31 33  2  0
 33 34  1  0
 33 35  1  0
 35 36  1  0
 36 37  1  0
 36 38  1  0
 36 39  1  0
 35 40  2  0
 40 41  1  0
 26 17  1  0
 40 28  1  0
M  CHG  1   4  -1
M  END
>  <UniqueID>  (22) 
18

>  <SMILES>  (22) 
O=C(CCCOc1ccc(Cl)cc1Cl)[N-]/N=C/c1cccc(C(F)(F)F)c1

>  <Energy>  (22) 
36.590309119007514

>  <Genealogy>  (22) 
O=C(CCCOc1ccc(Cl)cc1Cl)[N-]N=Cc1cccc(C(F)(F)F)c1 (protonated)
O=C(CCCOc1ccc(Cl)cc1Cl)[N-]/N=C/c1cccc(C(F)(F)F)c1 (cis-trans isomerization)
O=C(CCCOc1ccc(Cl)cc1Cl)[N-]/N=C/c1cccc(C(F)(F)F)c1 (3D coordinates assigned)
O=C(CCCOc1ccc(Cl)cc1Cl)[N-]/N=C/c1cccc(C(F)(F)F)c1 (optimized conformer: 36.590309119007514 kcal/mol)

>  <smiles>  (22) 
O=C(CCCOc1ccc(Cl)cc1Cl)NN=Cc1cccc(C(F)(F)F)c1

>  <score_type>  (22) 
oracle

>  <origin>  (22) 
autodockgpu

>  <m_score__min__energy>  (22) 
-7.0300000000000002

>  <m_primary>  (22) 
energy

>  <meeko>  (22) 
{"free_energy": -6.46, "intermolecular_energy": -9.45, "internal_energy": -0.63, "cluster_size": 9, "cluster_id": 1, "rank_in_cluster": 8}

>  <energy>  (22) 
-7.0

>  <cluster_rmsd>  (22) 
1.69

>  <rmsd>  (22) 
272.85

>  <cluster>  (22) 
1

$$$$
VHXSVHVNRGGTDL-PKHXXGQGNA-M
     RDKit          3D

 41 42  0  0  0  0  0  0  0  0999 V2000
  139.6575   71.0030  222.1379 H   0  0  0  0  0  0  0  0  0  0  0  0
  140.1380   71.5370  222.9710 C   0  0  0  0  0  0  0  0  0  0  0  0
  140.6970   72.6840  222.7530 N   0  0  0  0  0  0  0  0  0  0  0  0
  139.9230   73.7980  222.4120 N   0  0  0  0  0  0  0  0  0  0  0  0
  140.3890   74.7640  221.4700 C   0  0  0  0  0  0  0  0  0  0  0  0
  140.3280   74.5270  220.2340 O   0  0  0  0  0  0  0  0  0  0  0  0
  141.0410   76.0190  221.9660 C   0  0  0  0  0  0  0  0  0  0  0  0
  141.1104   75.9727  223.0628 H   0  0  0  0  0  0  0  0  0  0  0  0
  142.0373   76.0874  221.5048 H   0  0  0  0  0  0  0  0  0  0  0  0
  140.2500   77.2790  221.5720 C   0  0  0  0  0  0  0  0  0  0  0  0
  140.9650   78.0784  221.3276 H   0  0  0  0  0  0  0  0  0  0  0  0
  139.6181   77.0126  220.7119 H   0  0  0  0  0  0  0  0  0  0  0  0
  139.3180   77.7810  222.6850 C   0  0  0  0  0  0  0  0  0  0  0  0
  138.3567   78.0893  222.2481 H   0  0  0  0  0  0  0  0  0  0  0  0
  139.1457   76.9746  223.4130 H   0  0  0  0  0  0  0  0  0  0  0  0
  139.9230   78.8950  223.3400 O   0  0  0  0  0  0  0  0  0  0  0  0
  140.1270   80.1830  222.8170 C   0  0  0  0  0  0  0  0  0  0  0  0
  138.9740   80.8810  222.4300 C   0  0  0  0  0  0  0  0  0  0  0  0
  137.9851   80.4326  222.6063 H   0  0  0  0  0  0  0  0  0  0  0  0
  139.0610   82.1350  221.8250 C   0  0  0  0  0  0  0  0  0  0  0  0
  138.1454   82.6646  221.5231 H   0  0  0  0  0  0  0  0  0  0  0  0
  140.3080   82.7170  221.6030 C   0  0  0  0  0  0  0  0  0  0  0  0
  140.4180   84.2750  220.8050 Cl  0  0  0  0  0  0  0  0  0  0  0  0
  141.4680   82.0600  222.0240 C   0  0  0  0  0  0  0  0  0  0  0  0
  142.4489   82.5325  221.8676 H   0  0  0  0  0  0  0  0  0  0  0  0
  141.3930   80.8040  222.6440 C   0  0  0  0  0  0  0  0  0  0  0  0
  142.9080   80.1290  223.2330 Cl  0  0  0  0  0  0  0  0  0  0  0  0
  140.1340   70.9330  224.3180 C   0  0  0  0  0  0  0  0  0  0  0  0
  139.5960   69.6490  224.4910 C   0  0  0  0  0  0  0  0  0  0  0  0
  139.2170   69.0929  223.6209 H   0  0  0  0  0  0  0  0  0  0  0  0
  139.5390   69.0730  225.7620 C   0  0  0  0  0  0  0  0  0  0  0  0
  139.1201   68.0637  225.8882 H   0  0  0  0  0  0  0  0  0  0  0  0
  140.0120   69.7740  226.8730 C   0  0  0  0  0  0  0  0  0  0  0  0
  139.9598   69.3156  227.8716 H   0  0  0  0  0  0  0  0  0  0  0  0
  140.5540   71.0610  226.7230 C   0  0  0  0  0  0  0  0  0  0  0  0
  141.0390   71.8010  227.9450 C   0  0  0  0  0  0  0  0  0  0  0  0
  139.9870   72.2790  228.7080 F   0  0  0  0  0  0  0  0  0  0  0  0
  141.7980   70.9490  228.7270 F   0  0  0  0  0  0  0  0  0  0  0  0
  141.8220   72.8720  227.5530 F   0  0  0  0  0  0  0  0  0  0  0  0
  140.6160   71.6340  225.4390 C   0  0  0  0  0  0  0  0  0  0  0  0
  141.0450   72.6387  225.3106 H   0  0  0  0  0  0  0  0  0  0  0  0
  1  2  1  0
  2  3  2  0
  3  4  1  0
  4  5  1  0
  5  6  2  0
  5  7  1  0
  7  8  1  0
  7  9  1  0
  7 10  1  0
 10 11  1  0
 10 12  1  0
 10 13  1  0
 13 14  1  0
 13 15  1  0
 13 16  1  0
 16 17  1  0
 17 18  2  0
 18 19  1  0
 18 20  1  0
 20 21  1  0
 20 22  2  0
 22 23  1  0
 22 24  1  0
 24 25  1  0
 24 26  2  0
 26 27  1  0
  2 28  1  0
 28 29  2  0
 29 30  1  0
 29 31  1  0
 31 32  1  0
 31 33  2  0
 33 34  1  0
 33 35  1  0
 35 36  1  0
 36 37  1  0
 36 38  1  0
 36 39  1  0
 35 40  2  0
 40 41  1  0
 26 17  1  0
 40 28  1  0
M  CHG  1   4  -1
M  END
>  <UniqueID>  (23) 
18

>  <SMILES>  (23) 
O=C(CCCOc1ccc(Cl)cc1Cl)[N-]/N=C/c1cccc(C(F)(F)F)c1

>  <Energy>  (23) 
36.590309119007514

>  <Genealogy>  (23) 
O=C(CCCOc1ccc(Cl)cc1Cl)[N-]N=Cc1cccc(C(F)(F)F)c1 (protonated)
O=C(CCCOc1ccc(Cl)cc1Cl)[N-]/N=C/c1cccc(C(F)(F)F)c1 (cis-trans isomerization)
O=C(CCCOc1ccc(Cl)cc1Cl)[N-]/N=C/c1cccc(C(F)(F)F)c1 (3D coordinates assigned)
O=C(CCCOc1ccc(Cl)cc1Cl)[N-]/N=C/c1cccc(C(F)(F)F)c1 (optimized conformer: 36.590309119007514 kcal/mol)

>  <smiles>  (23) 
O=C(CCCOc1ccc(Cl)cc1Cl)NN=Cc1cccc(C(F)(F)F)c1

>  <score_type>  (23) 
oracle

>  <origin>  (23) 
autodockgpu

>  <m_score__min__energy>  (23) 
-7.0300000000000002

>  <m_primary>  (23) 
energy

>  <meeko>  (23) 
{"free_energy": -6.49, "intermolecular_energy": -9.47, "internal_energy": -0.72, "cluster_size": 9, "cluster_id": 1, "rank_in_cluster": 7}

>  <energy>  (23) 
-6.96

>  <cluster_rmsd>  (23) 
1.19

>  <rmsd>  (23) 
273.04

>  <cluster>  (23) 
1

$$$$
VHXSVHVNRGGTDL-PKHXXGQGNA-M
     RDKit          3D

 41 42  0  0  0  0  0  0  0  0999 V2000
  139.3353   70.6272  222.3208 H   0  0  0  0  0  0  0  0  0  0  0  0
  139.6730   71.2790  223.1400 C   0  0  0  0  0  0  0  0  0  0  0  0
  139.8740   72.5370  222.9100 N   0  0  0  0  0  0  0  0  0  0  0  0
  141.0320   72.9620  222.2490 N   0  0  0  0  0  0  0  0  0  0  0  0
  141.0870   74.2260  221.5900 C   0  0  0  0  0  0  0  0  0  0  0  0
  140.4400   75.2080  222.0440 O   0  0  0  0  0  0  0  0  0  0  0  0
  141.8410   74.3510  220.3010 C   0  0  0  0  0  0  0  0  0  0  0  0
  142.7202   73.6910  220.3394 H   0  0  0  0  0  0  0  0  0  0  0  0
  141.1622   74.0662  219.4836 H   0  0  0  0  0  0  0  0  0  0  0  0
  142.3140   75.7920  220.0420 C   0  0  0  0  0  0  0  0  0  0  0  0
  142.3937   76.3127  221.0077 H   0  0  0  0  0  0  0  0  0  0  0  0
  143.2828   75.7300  219.5247 H   0  0  0  0  0  0  0  0  0  0  0  0
  141.3620   76.5880  219.1350 C   0  0  0  0  0  0  0  0  0  0  0  0
  141.9427   77.1071  218.3583 H   0  0  0  0  0  0  0  0  0  0  0  0
  140.6473   75.9014  218.6578 H   0  0  0  0  0  0  0  0  0  0  0  0
  140.6540   77.5450  219.9200 O   0  0  0  0  0  0  0  0  0  0  0  0
  141.1920   78.4510  220.8490 C   0  0  0  0  0  0  0  0  0  0  0  0
  141.1140   78.0720  222.1970 C   0  0  0  0  0  0  0  0  0  0  0  0
  140.7076   77.0838  222.4585 H   0  0  0  0  0  0  0  0  0  0  0  0
  141.5430   78.9270  223.2110 C   0  0  0  0  0  0  0  0  0  0  0  0
  141.4688   78.6136  224.2628 H   0  0  0  0  0  0  0  0  0  0  0  0
  142.0660   80.1790  222.8920 C   0  0  0  0  0  0  0  0  0  0  0  0
  142.5670   81.2700  224.1710 Cl  0  0  0  0  0  0  0  0  0  0  0  0
  142.1980   80.5590  221.5540 C   0  0  0  0  0  0  0  0  0  0  0  0
  142.6329   81.5385  221.3060 H   0  0  0  0  0  0  0  0  0  0  0  0
  141.7810   79.7030  220.5240 C   0  0  0  0  0  0  0  0  0  0  0  0
  142.1010   80.2400  218.8790 Cl  0  0  0  0  0  0  0  0  0  0  0  0
  139.8890   70.7040  224.4820 C   0  0  0  0  0  0  0  0  0  0  0  0
  139.5590   69.3610  224.7130 C   0  0  0  0  0  0  0  0  0  0  0  0
  139.1773   68.7420  223.8877 H   0  0  0  0  0  0  0  0  0  0  0  0
  139.7120   68.8050  225.9840 C   0  0  0  0  0  0  0  0  0  0  0  0
  139.4551   67.7491  226.1546 H   0  0  0  0  0  0  0  0  0  0  0  0
  140.1900   69.5840  227.0400 C   0  0  0  0  0  0  0  0  0  0  0  0
  140.3040   69.1397  228.0398 H   0  0  0  0  0  0  0  0  0  0  0  0
  140.5260   70.9320  226.8320 C   0  0  0  0  0  0  0  0  0  0  0  0
  141.0220   71.7530  227.9960 C   0  0  0  0  0  0  0  0  0  0  0  0
  141.8280   71.0120  228.8420 F   0  0  0  0  0  0  0  0  0  0  0  0
  141.7500   72.8280  227.5220 F   0  0  0  0  0  0  0  0  0  0  0  0
  139.9400   72.2240  228.7190 F   0  0  0  0  0  0  0  0  0  0  0  0
  140.3770   71.4850  225.5460 C   0  0  0  0  0  0  0  0  0  0  0  0
  140.6446   72.5376  225.3712 H   0  0  0  0  0  0  0  0  0  0  0  0
  1  2  1  0
  2  3  2  0
  3  4  1  0
  4  5  1  0
  5  6  2  0
  5  7  1  0
  7  8  1  0
  7  9  1  0
  7 10  1  0
 10 11  1  0
 10 12  1  0
 10 13  1  0
 13 14  1  0
 13 15  1  0
 13 16  1  0
 16 17  1  0
 17 18  2  0
 18 19  1  0
 18 20  1  0
 20 21  1  0
 20 22  2  0
 22 23  1  0
 22 24  1  0
 24 25  1  0
 24 26  2  0
 26 27  1  0
  2 28  1  0
 28 29  2  0
 29 30  1  0
 29 31  1  0
 31 32  1  0
 31 33  2  0
 33 34  1  0
 33 35  1  0
 35 36  1  0
 36 37  1  0
 36 38  1  0
 36 39  1  0
 35 40  2  0
 40 41  1  0
 26 17  1  0
 40 28  1  0
M  CHG  1   4  -1
M  END
>  <UniqueID>  (24) 
18

>  <SMILES>  (24) 
O=C(CCCOc1ccc(Cl)cc1Cl)[N-]/N=C/c1cccc(C(F)(F)F)c1

>  <Energy>  (24) 
36.590309119007514

>  <Genealogy>  (24) 
O=C(CCCOc1ccc(Cl)cc1Cl)[N-]N=Cc1cccc(C(F)(F)F)c1 (protonated)
O=C(CCCOc1ccc(Cl)cc1Cl)[N-]/N=C/c1cccc(C(F)(F)F)c1 (cis-trans isomerization)
O=C(CCCOc1ccc(Cl)cc1Cl)[N-]/N=C/c1cccc(C(F)(F)F)c1 (3D coordinates assigned)
O=C(CCCOc1ccc(Cl)cc1Cl)[N-]/N=C/c1cccc(C(F)(F)F)c1 (optimized conformer: 36.590309119007514 kcal/mol)

>  <smiles>  (24) 
O=C(CCCOc1ccc(Cl)cc1Cl)NN=Cc1cccc(C(F)(F)F)c1

>  <score_type>  (24) 
oracle

>  <origin>  (24) 
autodockgpu

>  <m_score__min__energy>  (24) 
-7.0300000000000002

>  <m_primary>  (24) 
energy

>  <meeko>  (24) 
{"free_energy": -7.0, "intermolecular_energy": -9.99, "internal_energy": -0.78, "cluster_size": 9, "cluster_id": 1, "rank_in_cluster": 2}

>  <energy>  (24) 
-6.77

>  <cluster_rmsd>  (24) 
0.52

>  <rmsd>  (24) 
273.03

>  <cluster>  (24) 
1

$$$$
VHXSVHVNRGGTDL-PKHXXGQGNA-M
     RDKit          3D

 41 42  0  0  0  0  0  0  0  0999 V2000
  139.7104   71.2592  222.0819 H   0  0  0  0  0  0  0  0  0  0  0  0
  140.0870   71.8010  222.9620 C   0  0  0  0  0  0  0  0  0  0  0  0
  140.5090   73.0170  222.8270 N   0  0  0  0  0  0  0  0  0  0  0  0
  139.8860   73.8910  221.9290 N   0  0  0  0  0  0  0  0  0  0  0  0
  139.5670   75.2310  222.3000 C   0  0  0  0  0  0  0  0  0  0  0  0
  140.4750   76.0180  222.6810 O   0  0  0  0  0  0  0  0  0  0  0  0
  138.1330   75.6650  222.3270 C   0  0  0  0  0  0  0  0  0  0  0  0
  137.5112   74.8146  222.6435 H   0  0  0  0  0  0  0  0  0  0  0  0
  138.0476   76.5064  223.0304 H   0  0  0  0  0  0  0  0  0  0  0  0
  137.6470   76.1490  220.9490 C   0  0  0  0  0  0  0  0  0  0  0  0
  137.3386   75.2730  220.3595 H   0  0  0  0  0  0  0  0  0  0  0  0
  136.8128   76.8448  221.1223 H   0  0  0  0  0  0  0  0  0  0  0  0
  138.7230   76.9130  220.1620 C   0  0  0  0  0  0  0  0  0  0  0  0
  139.6909   76.4019  220.2714 H   0  0  0  0  0  0  0  0  0  0  0  0
  138.4473   76.9468  219.0977 H   0  0  0  0  0  0  0  0  0  0  0  0
  138.8250   78.2410  220.6720 O   0  0  0  0  0  0  0  0  0  0  0  0
  139.8620   78.7780  221.4520 C   0  0  0  0  0  0  0  0  0  0  0  0
  139.4720   79.4390  222.6270 C   0  0  0  0  0  0  0  0  0  0  0  0
  138.4099   79.4526  222.9130 H   0  0  0  0  0  0  0  0  0  0  0  0
  140.4090   80.0790  223.4380 C   0  0  0  0  0  0  0  0  0  0  0  0
  140.0831   80.5977  224.3517 H   0  0  0  0  0  0  0  0  0  0  0  0
  141.7590   80.0610  223.0900 C   0  0  0  0  0  0  0  0  0  0  0  0
  142.9310   80.9010  224.0890 Cl  0  0  0  0  0  0  0  0  0  0  0  0
  142.1760   79.3680  221.9500 C   0  0  0  0  0  0  0  0  0  0  0  0
  143.2447   79.3378  221.6914 H   0  0  0  0  0  0  0  0  0  0  0  0
  141.2450   78.7110  221.1330 C   0  0  0  0  0  0  0  0  0  0  0  0
  141.9000   77.7770  219.7930 Cl  0  0  0  0  0  0  0  0  0  0  0  0
  140.1020   71.1280  224.2760 C   0  0  0  0  0  0  0  0  0  0  0  0
  139.5780   69.8320  224.3880 C   0  0  0  0  0  0  0  0  0  0  0  0
  139.1956   69.3175  223.4941 H   0  0  0  0  0  0  0  0  0  0  0  0
  139.5390   69.1910  225.6280 C   0  0  0  0  0  0  0  0  0  0  0  0
  139.1302   68.1728  225.7060 H   0  0  0  0  0  0  0  0  0  0  0  0
  140.0170   69.8380  226.7690 C   0  0  0  0  0  0  0  0  0  0  0  0
  139.9797   69.3278  227.7428 H   0  0  0  0  0  0  0  0  0  0  0  0
  140.5450   71.1360  226.6810 C   0  0  0  0  0  0  0  0  0  0  0  0
  141.0360   71.8170  227.9340 C   0  0  0  0  0  0  0  0  0  0  0  0
  141.7920   70.9630  228.7200 F   0  0  0  0  0  0  0  0  0  0  0  0
  141.8160   72.9060  227.5910 F   0  0  0  0  0  0  0  0  0  0  0  0
  139.9520   72.2530  228.6750 F   0  0  0  0  0  0  0  0  0  0  0  0
  140.5880   71.7750  225.4270 C   0  0  0  0  0  0  0  0  0  0  0  0
  141.0055   72.7895  225.3465 H   0  0  0  0  0  0  0  0  0  0  0  0
  1  2  1  0
  2  3  2  0
  3  4  1  0
  4  5  1  0
  5  6  2  0
  5  7  1  0
  7  8  1  0
  7  9  1  0
  7 10  1  0
 10 11  1  0
 10 12  1  0
 10 13  1  0
 13 14  1  0
 13 15  1  0
 13 16  1  0
 16 17  1  0
 17 18  2  0
 18 19  1  0
 18 20  1  0
 20 21  1  0
 20 22  2  0
 22 23  1  0
 22 24  1  0
 24 25  1  0
 24 26  2  0
 26 27  1  0
  2 28  1  0
 28 29  2  0
 29 30  1  0
 29 31  1  0
 31 32  1  0
 31 33  2  0
 33 34  1  0
 33 35  1  0
 35 36  1  0
 36 37  1  0
 36 38  1  0
 36 39  1  0
 35 40  2  0
 40 41  1  0
 26 17  1  0
 40 28  1  0
M  CHG  1   4  -1
M  END
>  <UniqueID>  (25) 
18

>  <SMILES>  (25) 
O=C(CCCOc1ccc(Cl)cc1Cl)[N-]/N=C/c1cccc(C(F)(F)F)c1

>  <Energy>  (25) 
36.590309119007514

>  <Genealogy>  (25) 
O=C(CCCOc1ccc(Cl)cc1Cl)[N-]N=Cc1cccc(C(F)(F)F)c1 (protonated)
O=C(CCCOc1ccc(Cl)cc1Cl)[N-]/N=C/c1cccc(C(F)(F)F)c1 (cis-trans isomerization)
O=C(CCCOc1ccc(Cl)cc1Cl)[N-]/N=C/c1cccc(C(F)(F)F)c1 (3D coordinates assigned)
O=C(CCCOc1ccc(Cl)cc1Cl)[N-]/N=C/c1cccc(C(F)(F)F)c1 (optimized conformer: 36.590309119007514 kcal/mol)

>  <smiles>  (25) 
O=C(CCCOc1ccc(Cl)cc1Cl)NN=Cc1cccc(C(F)(F)F)c1

>  <score_type>  (25) 
oracle

>  <origin>  (25) 
autodockgpu

>  <m_score__min__energy>  (25) 
-7.0300000000000002

>  <m_primary>  (25) 
energy

>  <meeko>  (25) 
{"free_energy": -6.28, "intermolecular_energy": -9.26, "internal_energy": -1.12, "cluster_size": 9, "cluster_id": 1, "rank_in_cluster": 9}

>  <energy>  (25) 
-6.66

>  <cluster_rmsd>  (25) 
1.23

>  <rmsd>  (25) 
273.0

>  <cluster>  (25) 
1

$$$$
VHXSVHVNRGGTDL-PKHXXGQGNA-M
     RDKit          3D

 41 42  0  0  0  0  0  0  0  0999 V2000
  139.3011   71.0125  222.4083 H   0  0  0  0  0  0  0  0  0  0  0  0
  139.8660   71.4890  223.2230 C   0  0  0  0  0  0  0  0  0  0  0  0
  140.4260   72.6380  223.0210 N   0  0  0  0  0  0  0  0  0  0  0  0
  140.3660   73.2460  221.7620 N   0  0  0  0  0  0  0  0  0  0  0  0
  139.9580   74.6050  221.6140 C   0  0  0  0  0  0  0  0  0  0  0  0
  140.7070   75.5400  222.0060 O   0  0  0  0  0  0  0  0  0  0  0  0
  138.5910   74.9080  221.0790 C   0  0  0  0  0  0  0  0  0  0  0  0
  138.5713   74.6748  220.0042 H   0  0  0  0  0  0  0  0  0  0  0  0
  137.8668   74.2942  221.6347 H   0  0  0  0  0  0  0  0  0  0  0  0
  138.2060   76.3860  221.2730 C   0  0  0  0  0  0  0  0  0  0  0  0
  139.0865   77.0083  221.0551 H   0  0  0  0  0  0  0  0  0  0  0  0
  137.3707   76.5990  220.5897 H   0  0  0  0  0  0  0  0  0  0  0  0
  137.7240   76.7030  222.6970 C   0  0  0  0  0  0  0  0  0  0  0  0
  136.6751   76.3909  222.8082 H   0  0  0  0  0  0  0  0  0  0  0  0
  138.3442   76.1607  223.4259 H   0  0  0  0  0  0  0  0  0  0  0  0
  137.8310   78.1070  222.9280 O   0  0  0  0  0  0  0  0  0  0  0  0
  139.0080   78.8550  223.1000 C   0  0  0  0  0  0  0  0  0  0  0  0
  140.2090   78.1920  222.8050 C   0  0  0  0  0  0  0  0  0  0  0  0
  140.1780   77.1690  222.4019 H   0  0  0  0  0  0  0  0  0  0  0  0
  141.4410   78.8100  223.0150 C   0  0  0  0  0  0  0  0  0  0  0  0
  142.3721   78.2724  222.7826 H   0  0  0  0  0  0  0  0  0  0  0  0
  141.4940   80.1080  223.5190 C   0  0  0  0  0  0  0  0  0  0  0  0
  143.0460   80.8670  223.8210 Cl  0  0  0  0  0  0  0  0  0  0  0  0
  140.3100   80.8050  223.7750 C   0  0  0  0  0  0  0  0  0  0  0  0
  140.3562   81.8377  224.1510 H   0  0  0  0  0  0  0  0  0  0  0  0
  139.0630   80.2000  223.5570 C   0  0  0  0  0  0  0  0  0  0  0  0
  137.6450   81.2120  223.8050 Cl  0  0  0  0  0  0  0  0  0  0  0  0
  139.9720   70.8070  224.5270 C   0  0  0  0  0  0  0  0  0  0  0  0
  139.5150   69.4860  224.6490 C   0  0  0  0  0  0  0  0  0  0  0  0
  139.1182   68.9610  223.7676 H   0  0  0  0  0  0  0  0  0  0  0  0
  139.5610   68.8340  225.8830 C   0  0  0  0  0  0  0  0  0  0  0  0
  139.2039   67.7971  225.9687 H   0  0  0  0  0  0  0  0  0  0  0  0
  140.0590   69.4940  227.0090 C   0  0  0  0  0  0  0  0  0  0  0  0
  140.0886   68.9753  227.9786 H   0  0  0  0  0  0  0  0  0  0  0  0
  140.5220   70.8160  226.9100 C   0  0  0  0  0  0  0  0  0  0  0  0
  141.0360   71.5090  228.1480 C   0  0  0  0  0  0  0  0  0  0  0  0
  140.0020   71.9410  228.9620 F   0  0  0  0  0  0  0  0  0  0  0  0
  141.8280   70.6340  228.8680 F   0  0  0  0  0  0  0  0  0  0  0  0
  141.7940   72.6060  227.7790 F   0  0  0  0  0  0  0  0  0  0  0  0
  140.4790   71.4660  225.6630 C   0  0  0  0  0  0  0  0  0  0  0  0
  140.8452   72.4995  225.5748 H   0  0  0  0  0  0  0  0  0  0  0  0
  1  2  1  0
  2  3  2  0
  3  4  1  0
  4  5  1  0
  5  6  2  0
  5  7  1  0
  7  8  1  0
  7  9  1  0
  7 10  1  0
 10 11  1  0
 10 12  1  0
 10 13  1  0
 13 14  1  0
 13 15  1  0
 13 16  1  0
 16 17  1  0
 17 18  2  0
 18 19  1  0
 18 20  1  0
 20 21  1  0
 20 22  2  0
 22 23  1  0
 22 24  1  0
 24 25  1  0
 24 26  2  0
 26 27  1  0
  2 28  1  0
 28 29  2  0
 29 30  1  0
 29 31  1  0
 31 32  1  0
 31 33  2  0
 33 34  1  0
 33 35  1  0
 35 36  1  0
 36 37  1  0
 36 38  1  0
 36 39  1  0
 35 40  2  0
 40 41  1  0
 26 17  1  0
 40 28  1  0
M  CHG  1   4  -1
M  END
>  <UniqueID>  (26) 
18

>  <SMILES>  (26) 
O=C(CCCOc1ccc(Cl)cc1Cl)[N-]/N=C/c1cccc(C(F)(F)F)c1

>  <Energy>  (26) 
36.590309119007514

>  <Genealogy>  (26) 
O=C(CCCOc1ccc(Cl)cc1Cl)[N-]N=Cc1cccc(C(F)(F)F)c1 (protonated)
O=C(CCCOc1ccc(Cl)cc1Cl)[N-]/N=C/c1cccc(C(F)(F)F)c1 (cis-trans isomerization)
O=C(CCCOc1ccc(Cl)cc1Cl)[N-]/N=C/c1cccc(C(F)(F)F)c1 (3D coordinates assigned)
O=C(CCCOc1ccc(Cl)cc1Cl)[N-]/N=C/c1cccc(C(F)(F)F)c1 (optimized conformer: 36.590309119007514 kcal/mol)

>  <smiles>  (26) 
O=C(CCCOc1ccc(Cl)cc1Cl)NN=Cc1cccc(C(F)(F)F)c1

>  <score_type>  (26) 
oracle

>  <origin>  (26) 
autodockgpu

>  <m_score__min__energy>  (26) 
-7.0300000000000002

>  <m_primary>  (26) 
energy

>  <meeko>  (26) 
{"free_energy": -6.77, "intermolecular_energy": -9.75, "internal_energy": -0.75, "cluster_size": 9, "cluster_id": 1, "rank_in_cluster": 4}

>  <energy>  (26) 
-6.51

>  <cluster_rmsd>  (26) 
1.31

>  <rmsd>  (26) 
272.99

>  <cluster>  (26) 
1

$$$$
VHXSVHVNRGGTDL-PKHXXGQGNA-M
     RDKit          3D

 41 42  0  0  0  0  0  0  0  0999 V2000
  139.9238   76.4236  220.8484 H   0  0  0  0  0  0  0  0  0  0  0  0
  139.9140   76.5320  221.9430 C   0  0  0  0  0  0  0  0  0  0  0  0
  139.8440   75.4750  222.6850 N   0  0  0  0  0  0  0  0  0  0  0  0
  139.5920   74.2220  222.1160 N   0  0  0  0  0  0  0  0  0  0  0  0
  140.6490   73.4190  221.5930 C   0  0  0  0  0  0  0  0  0  0  0  0
  141.8310   73.8570  221.5760 O   0  0  0  0  0  0  0  0  0  0  0  0
  140.3290   72.0920  220.9750 C   0  0  0  0  0  0  0  0  0  0  0  0
  140.3782   72.1896  219.8805 H   0  0  0  0  0  0  0  0  0  0  0  0
  141.0632   71.3609  221.3445 H   0  0  0  0  0  0  0  0  0  0  0  0
  138.9260   71.5930  221.3660 C   0  0  0  0  0  0  0  0  0  0  0  0
  138.1779   72.2244  220.8644 H   0  0  0  0  0  0  0  0  0  0  0  0
  138.8543   70.5407  221.0537 H   0  0  0  0  0  0  0  0  0  0  0  0
  138.6680   71.6390  222.8800 C   0  0  0  0  0  0  0  0  0  0  0  0
  138.2814   72.6309  223.1571 H   0  0  0  0  0  0  0  0  0  0  0  0
  137.9287   70.8712  223.1518 H   0  0  0  0  0  0  0  0  0  0  0  0
  139.8900   71.3930  223.5730 O   0  0  0  0  0  0  0  0  0  0  0  0
  140.0630   70.6650  224.7630 C   0  0  0  0  0  0  0  0  0  0  0  0
  140.7250   71.3340  225.8040 C   0  0  0  0  0  0  0  0  0  0  0  0
  141.0133   72.3875  225.6736 H   0  0  0  0  0  0  0  0  0  0  0  0
  141.0230   70.6840  227.0010 C   0  0  0  0  0  0  0  0  0  0  0  0
  141.5472   71.2233  227.8037 H   0  0  0  0  0  0  0  0  0  0  0  0
  140.6570   69.3510  227.1810 C   0  0  0  0  0  0  0  0  0  0  0  0
  141.0700   68.5230  228.6710 Cl  0  0  0  0  0  0  0  0  0  0  0  0
  139.9550   68.6800  226.1760 C   0  0  0  0  0  0  0  0  0  0  0  0
  139.6471   67.6355  226.3314 H   0  0  0  0  0  0  0  0  0  0  0  0
  139.6390   69.3250  224.9710 C   0  0  0  0  0  0  0  0  0  0  0  0
  138.6550   68.4180  223.8290 Cl  0  0  0  0  0  0  0  0  0  0  0  0
  139.9810   77.8810  222.5380 C   0  0  0  0  0  0  0  0  0  0  0  0
  138.8150   78.4560  223.0650 C   0  0  0  0  0  0  0  0  0  0  0  0
  137.8744   77.8857  223.0625 H   0  0  0  0  0  0  0  0  0  0  0  0
  138.8420   79.7490  223.5930 C   0  0  0  0  0  0  0  0  0  0  0  0
  137.9238   80.1911  224.0071 H   0  0  0  0  0  0  0  0  0  0  0  0
  140.0300   80.4820  223.5970 C   0  0  0  0  0  0  0  0  0  0  0  0
  140.0426   81.5009  224.0114 H   0  0  0  0  0  0  0  0  0  0  0  0
  141.2090   79.9260  223.0750 C   0  0  0  0  0  0  0  0  0  0  0  0
  142.4730   80.7500  223.0750 C   0  0  0  0  0  0  0  0  0  0  0  0
  142.5930   81.5070  224.2290 F   0  0  0  0  0  0  0  0  0  0  0  0
  143.5680   79.9120  222.9820 F   0  0  0  0  0  0  0  0  0  0  0  0
  142.4650   81.6050  221.9870 F   0  0  0  0  0  0  0  0  0  0  0  0
  141.1780   78.6210  222.5500 C   0  0  0  0  0  0  0  0  0  0  0  0
  142.0983   78.1748  222.1450 H   0  0  0  0  0  0  0  0  0  0  0  0
  1  2  1  0
  2  3  2  0
  3  4  1  0
  4  5  1  0
  5  6  2  0
  5  7  1  0
  7  8  1  0
  7  9  1  0
  7 10  1  0
 10 11  1  0
 10 12  1  0
 10 13  1  0
 13 14  1  0
 13 15  1  0
 13 16  1  0
 16 17  1  0
 17 18  2  0
 18 19  1  0
 18 20  1  0
 20 21  1  0
 20 22  2  0
 22 23  1  0
 22 24  1  0
 24 25  1  0
 24 26  2  0
 26 27  1  0
  2 28  1  0
 28 29  2  0
 29 30  1  0
 29 31  1  0
 31 32  1  0
 31 33  2  0
 33 34  1  0
 33 35  1  0
 35 36  1  0
 36 37  1  0
 36 38  1  0
 36 39  1  0
 35 40  2  0
 40 41  1  0
 26 17  1  0
 40 28  1  0
M  CHG  1   4  -1
M  END
>  <UniqueID>  (27) 
18

>  <SMILES>  (27) 
O=C(CCCOc1ccc(Cl)cc1Cl)[N-]/N=C/c1cccc(C(F)(F)F)c1

>  <Energy>  (27) 
36.590309119007514

>  <Genealogy>  (27) 
O=C(CCCOc1ccc(Cl)cc1Cl)[N-]N=Cc1cccc(C(F)(F)F)c1 (protonated)
O=C(CCCOc1ccc(Cl)cc1Cl)[N-]/N=C/c1cccc(C(F)(F)F)c1 (cis-trans isomerization)
O=C(CCCOc1ccc(Cl)cc1Cl)[N-]/N=C/c1cccc(C(F)(F)F)c1 (3D coordinates assigned)
O=C(CCCOc1ccc(Cl)cc1Cl)[N-]/N=C/c1cccc(C(F)(F)F)c1 (optimized conformer: 36.590309119007514 kcal/mol)

>  <smiles>  (27) 
O=C(CCCOc1ccc(Cl)cc1Cl)NN=Cc1cccc(C(F)(F)F)c1

>  <score_type>  (27) 
oracle

>  <origin>  (27) 
autodockgpu

>  <m_score__min__energy>  (27) 
-7.0300000000000002

>  <m_primary>  (27) 
energy

>  <meeko>  (27) 
{"free_energy": -6.4, "intermolecular_energy": -9.38, "internal_energy": -0.53, "cluster_size": 3, "cluster_id": 4, "rank_in_cluster": 2}

>  <energy>  (27) 
-6.49

>  <cluster_rmsd>  (27) 
1.76

>  <rmsd>  (27) 
273.1

>  <cluster>  (27) 
1

$$$$
VHXSVHVNRGGTDL-PKHXXGQGNA-M
     RDKit          3D

 41 42  0  0  0  0  0  0  0  0999 V2000
  140.0711   70.7335  222.0809 H   0  0  0  0  0  0  0  0  0  0  0  0
  140.2800   71.3800  222.9460 C   0  0  0  0  0  0  0  0  0  0  0  0
  140.5940   72.6200  222.7510 N   0  0  0  0  0  0  0  0  0  0  0  0
  139.6270   73.5410  222.3330 N   0  0  0  0  0  0  0  0  0  0  0  0
  139.9950   74.8270  221.8360 C   0  0  0  0  0  0  0  0  0  0  0  0
  141.0650   75.3720  222.2150 O   0  0  0  0  0  0  0  0  0  0  0  0
  139.0510   75.5640  220.9360 C   0  0  0  0  0  0  0  0  0  0  0  0
  139.4781   76.5515  220.7072 H   0  0  0  0  0  0  0  0  0  0  0  0
  138.9171   74.9643  220.0237 H   0  0  0  0  0  0  0  0  0  0  0  0
  137.6660   75.7600  221.5800 C   0  0  0  0  0  0  0  0  0  0  0  0
  136.9862   76.1829  220.8256 H   0  0  0  0  0  0  0  0  0  0  0  0
  137.3278   74.7752  221.9347 H   0  0  0  0  0  0  0  0  0  0  0  0
  137.6920   76.6990  222.7950 C   0  0  0  0  0  0  0  0  0  0  0  0
  136.6948   76.7281  223.2585 H   0  0  0  0  0  0  0  0  0  0  0  0
  138.4243   76.3319  223.5291 H   0  0  0  0  0  0  0  0  0  0  0  0
  138.0580   78.0100  222.3690 O   0  0  0  0  0  0  0  0  0  0  0  0
  139.2440   78.7020  222.6660 C   0  0  0  0  0  0  0  0  0  0  0  0
  140.4110   78.2120  222.0610 C   0  0  0  0  0  0  0  0  0  0  0  0
  140.3420   77.3737  221.3522 H   0  0  0  0  0  0  0  0  0  0  0  0
  141.6580   78.7710  222.3440 C   0  0  0  0  0  0  0  0  0  0  0  0
  142.5625   78.3703  221.8631 H   0  0  0  0  0  0  0  0  0  0  0  0
  141.7570   79.8370  223.2360 C   0  0  0  0  0  0  0  0  0  0  0  0
  143.3290   80.5110  223.6240 Cl  0  0  0  0  0  0  0  0  0  0  0  0
  140.6020   80.3720  223.8140 C   0  0  0  0  0  0  0  0  0  0  0  0
  140.6828   81.2281  224.4999 H   0  0  0  0  0  0  0  0  0  0  0  0
  139.3410   79.8280  223.5280 C   0  0  0  0  0  0  0  0  0  0  0  0
  137.9530   80.6560  224.2220 Cl  0  0  0  0  0  0  0  0  0  0  0  0
  140.1970   70.8170  224.3080 C   0  0  0  0  0  0  0  0  0  0  0  0
  139.5830   69.5710  224.4980 C   0  0  0  0  0  0  0  0  0  0  0  0
  139.2023   69.0109  223.6312 H   0  0  0  0  0  0  0  0  0  0  0  0
  139.4520   69.0370  225.7820 C   0  0  0  0  0  0  0  0  0  0  0  0
  138.9732   68.0566  225.9218 H   0  0  0  0  0  0  0  0  0  0  0  0
  139.9270   69.7440  226.8890 C   0  0  0  0  0  0  0  0  0  0  0  0
  139.8167   69.3191  227.8976 H   0  0  0  0  0  0  0  0  0  0  0  0
  140.5440   70.9930  226.7220 C   0  0  0  0  0  0  0  0  0  0  0  0
  141.0300   71.7420  227.9390 C   0  0  0  0  0  0  0  0  0  0  0  0
  141.8030   72.8370  227.5940 F   0  0  0  0  0  0  0  0  0  0  0  0
  139.9430   72.1820  228.6700 F   0  0  0  0  0  0  0  0  0  0  0  0
  141.7910   70.8950  228.7250 F   0  0  0  0  0  0  0  0  0  0  0  0
  140.6800   71.5240  225.4250 C   0  0  0  0  0  0  0  0  0  0  0  0
  141.1679   72.4997  225.2836 H   0  0  0  0  0  0  0  0  0  0  0  0
  1  2  1  0
  2  3  2  0
  3  4  1  0
  4  5  1  0
  5  6  2  0
  5  7  1  0
  7  8  1  0
  7  9  1  0
  7 10  1  0
 10 11  1  0
 10 12  1  0
 10 13  1  0
 13 14  1  0
 13 15  1  0
 13 16  1  0
 16 17  1  0
 17 18  2  0
 18 19  1  0
 18 20  1  0
 20 21  1  0
 20 22  2  0
 22 23  1  0
 22 24  1  0
 24 25  1  0
 24 26  2  0
 26 27  1  0
  2 28  1  0
 28 29  2  0
 29 30  1  0
 29 31  1  0
 31 32  1  0
 31 33  2  0
 33 34  1  0
 33 35  1  0
 35 36  1  0
 36 37  1  0
 36 38  1  0
 36 39  1  0
 35 40  2  0
 40 41  1  0
 26 17  1  0
 40 28  1  0
M  CHG  1   4  -1
M  END
>  <UniqueID>  (28) 
18

>  <SMILES>  (28) 
O=C(CCCOc1ccc(Cl)cc1Cl)[N-]/N=C/c1cccc(C(F)(F)F)c1

>  <Energy>  (28) 
36.590309119007514

>  <Genealogy>  (28) 
O=C(CCCOc1ccc(Cl)cc1Cl)[N-]N=Cc1cccc(C(F)(F)F)c1 (protonated)
O=C(CCCOc1ccc(Cl)cc1Cl)[N-]/N=C/c1cccc(C(F)(F)F)c1 (cis-trans isomerization)
O=C(CCCOc1ccc(Cl)cc1Cl)[N-]/N=C/c1cccc(C(F)(F)F)c1 (3D coordinates assigned)
O=C(CCCOc1ccc(Cl)cc1Cl)[N-]/N=C/c1cccc(C(F)(F)F)c1 (optimized conformer: 36.590309119007514 kcal/mol)

>  <smiles>  (28) 
O=C(CCCOc1ccc(Cl)cc1Cl)NN=Cc1cccc(C(F)(F)F)c1

>  <score_type>  (28) 
oracle

>  <origin>  (28) 
autodockgpu

>  <m_score__min__energy>  (28) 
-7.0300000000000002

>  <m_primary>  (28) 
energy

>  <meeko>  (28) 
{"free_energy": -7.03, "intermolecular_energy": -10.01, "internal_energy": -0.87, "cluster_size": 9, "cluster_id": 1, "rank_in_cluster": 1}

>  <energy>  (28) 
-6.46

>  <cluster_rmsd>  (28) 
1.2

>  <rmsd>  (28) 
272.99

>  <cluster>  (28) 
1

$$$$
VHXSVHVNRGGTDL-PKHXXGQGNA-M
     RDKit          3D

 41 42  0  0  0  0  0  0  0  0999 V2000
  145.7688   71.1128  216.5327 H   0  0  0  0  0  0  0  0  0  0  0  0
  145.5660   71.1550  217.6130 C   0  0  0  0  0  0  0  0  0  0  0  0
  145.5860   72.2980  218.2190 N   0  0  0  0  0  0  0  0  0  0  0  0
  146.2920   72.4560  219.4170 N   0  0  0  0  0  0  0  0  0  0  0  0
  145.8660   73.3870  220.4110 C   0  0  0  0  0  0  0  0  0  0  0  0
  146.5670   73.5830  221.4390 O   0  0  0  0  0  0  0  0  0  0  0  0
  144.5330   74.0560  220.2690 C   0  0  0  0  0  0  0  0  0  0  0  0
  144.3293   74.6370  221.1805 H   0  0  0  0  0  0  0  0  0  0  0  0
  144.5734   74.7048  219.3816 H   0  0  0  0  0  0  0  0  0  0  0  0
  143.3930   73.0420  220.0620 C   0  0  0  0  0  0  0  0  0  0  0  0
  143.1368   73.0172  218.9925 H   0  0  0  0  0  0  0  0  0  0  0  0
  143.7526   72.0671  220.4230 H   0  0  0  0  0  0  0  0  0  0  0  0
  142.1260   73.3860  220.8600 C   0  0  0  0  0  0  0  0  0  0  0  0
  141.4169   72.5470  220.8035 H   0  0  0  0  0  0  0  0  0  0  0  0
  142.3910   73.5688  221.9118 H   0  0  0  0  0  0  0  0  0  0  0  0
  141.5250   74.5560  220.3080 O   0  0  0  0  0  0  0  0  0  0  0  0
  141.5590   75.8590  220.8320 C   0  0  0  0  0  0  0  0  0  0  0  0
  141.0260   76.0200  222.1200 C   0  0  0  0  0  0  0  0  0  0  0  0
  140.6745   75.1376  222.6747 H   0  0  0  0  0  0  0  0  0  0  0  0
  140.9350   77.2820  222.7080 C   0  0  0  0  0  0  0  0  0  0  0  0
  140.5094   77.3891  223.7167 H   0  0  0  0  0  0  0  0  0  0  0  0
  141.3830   78.4070  222.0180 C   0  0  0  0  0  0  0  0  0  0  0  0
  141.2300   79.9970  222.7420 Cl  0  0  0  0  0  0  0  0  0  0  0  0
  141.9620   78.2640  220.7540 C   0  0  0  0  0  0  0  0  0  0  0  0
  142.3367   79.1515  220.2230 H   0  0  0  0  0  0  0  0  0  0  0  0
  142.0700   77.0000  220.1560 C   0  0  0  0  0  0  0  0  0  0  0  0
  142.9190   76.9300  218.6160 Cl  0  0  0  0  0  0  0  0  0  0  0  0
  145.2760   69.9070  218.3450 C   0  0  0  0  0  0  0  0  0  0  0  0
  146.3180   69.2430  219.0080 C   0  0  0  0  0  0  0  0  0  0  0  0
  147.3296   69.6750  219.0072 H   0  0  0  0  0  0  0  0  0  0  0  0
  146.0790   68.0370  219.6690 C   0  0  0  0  0  0  0  0  0  0  0  0
  146.9015   67.5252  220.1901 H   0  0  0  0  0  0  0  0  0  0  0  0
  144.7990   67.4780  219.6710 C   0  0  0  0  0  0  0  0  0  0  0  0
  144.6192   66.5252  220.1905 H   0  0  0  0  0  0  0  0  0  0  0  0
  143.7410   68.1250  219.0140 C   0  0  0  0  0  0  0  0  0  0  0  0
  142.3740   67.4870  219.0170 C   0  0  0  0  0  0  0  0  0  0  0  0
  141.5310   68.0820  219.9400 F   0  0  0  0  0  0  0  0  0  0  0  0
  141.8080   67.6070  217.7620 F   0  0  0  0  0  0  0  0  0  0  0  0
  142.4940   66.1450  219.3320 F   0  0  0  0  0  0  0  0  0  0  0  0
  143.9860   69.3440  218.3540 C   0  0  0  0  0  0  0  0  0  0  0  0
  143.1619   69.8612  217.8407 H   0  0  0  0  0  0  0  0  0  0  0  0
  1  2  1  0
  2  3  2  0
  3  4  1  0
  4  5  1  0
  5  6  2  0
  5  7  1  0
  7  8  1  0
  7  9  1  0
  7 10  1  0
 10 11  1  0
 10 12  1  0
 10 13  1  0
 13 14  1  0
 13 15  1  0
 13 16  1  0
 16 17  1  0
 17 18  2  0
 18 19  1  0
 18 20  1  0
 20 21  1  0
 20 22  2  0
 22 23  1  0
 22 24  1  0
 24 25  1  0
 24 26  2  0
 26 27  1  0
  2 28  1  0
 28 29  2  0
 29 30  1  0
 29 31  1  0
 31 32  1  0
 31 33  2  0
 33 34  1  0
 33 35  1  0
 35 36  1  0
 36 37  1  0
 36 38  1  0
 36 39  1  0
 35 40  2  0
 40 41  1  0
 26 17  1  0
 40 28  1  0
M  CHG  1   4  -1
M  END
>  <UniqueID>  (29) 
18

>  <SMILES>  (29) 
O=C(CCCOc1ccc(Cl)cc1Cl)[N-]/N=C/c1cccc(C(F)(F)F)c1

>  <Energy>  (29) 
36.590309119007514

>  <Genealogy>  (29) 
O=C(CCCOc1ccc(Cl)cc1Cl)[N-]N=Cc1cccc(C(F)(F)F)c1 (protonated)
O=C(CCCOc1ccc(Cl)cc1Cl)[N-]/N=C/c1cccc(C(F)(F)F)c1 (cis-trans isomerization)
O=C(CCCOc1ccc(Cl)cc1Cl)[N-]/N=C/c1cccc(C(F)(F)F)c1 (3D coordinates assigned)
O=C(CCCOc1ccc(Cl)cc1Cl)[N-]/N=C/c1cccc(C(F)(F)F)c1 (optimized conformer: 36.590309119007514 kcal/mol)

>  <smiles>  (29) 
O=C(CCCOc1ccc(Cl)cc1Cl)NN=Cc1cccc(C(F)(F)F)c1

>  <score_type>  (29) 
oracle

>  <origin>  (29) 
autodockgpu

>  <m_score__min__energy>  (29) 
-7.0300000000000002

>  <m_primary>  (29) 
energy

>  <meeko>  (29) 
{"free_energy": -5.98, "intermolecular_energy": -8.97, "internal_energy": -0.94, "cluster_size": 2, "cluster_id": 6, "rank_in_cluster": 2}

>  <energy>  (29) 
-6.28

>  <cluster_rmsd>  (29) 
1.2

>  <rmsd>  (29) 
272.76

>  <cluster>  (29) 
1

$$$$
VHXSVHVNRGGTDL-PKHXXGQGNA-M
     RDKit          3D

 41 42  0  0  0  0  0  0  0  0999 V2000
  141.3931   76.0000  220.9815 H   0  0  0  0  0  0  0  0  0  0  0  0
  140.6800   76.1230  221.8100 C   0  0  0  0  0  0  0  0  0  0  0  0
  140.0820   75.0820  222.2930 N   0  0  0  0  0  0  0  0  0  0  0  0
  140.6880   73.8230  222.2360 N   0  0  0  0  0  0  0  0  0  0  0  0
  139.9140   72.6250  222.2940 C   0  0  0  0  0  0  0  0  0  0  0  0
  140.2060   71.7200  223.1210 O   0  0  0  0  0  0  0  0  0  0  0  0
  138.8140   72.4110  221.2990 C   0  0  0  0  0  0  0  0  0  0  0  0
  138.3366   71.4410  221.5019 H   0  0  0  0  0  0  0  0  0  0  0  0
  138.0979   73.2394  221.4039 H   0  0  0  0  0  0  0  0  0  0  0  0
  139.3320   72.4150  219.8500 C   0  0  0  0  0  0  0  0  0  0  0  0
  140.1345   71.6677  219.7637 H   0  0  0  0  0  0  0  0  0  0  0  0
  138.4778   72.1820  219.1973 H   0  0  0  0  0  0  0  0  0  0  0  0
  139.8850   73.7780  219.4080 C   0  0  0  0  0  0  0  0  0  0  0  0
  139.1955   74.2370  218.6842 H   0  0  0  0  0  0  0  0  0  0  0  0
  139.9858   74.4361  220.2836 H   0  0  0  0  0  0  0  0  0  0  0  0
  141.1620   73.5940  218.7990 O   0  0  0  0  0  0  0  0  0  0  0  0
  142.4190   73.6290  219.4250 C   0  0  0  0  0  0  0  0  0  0  0  0
  142.9320   72.3930  219.8480 C   0  0  0  0  0  0  0  0  0  0  0  0
  142.3779   71.4702  219.6210 H   0  0  0  0  0  0  0  0  0  0  0  0
  144.1340   72.3170  220.5520 C   0  0  0  0  0  0  0  0  0  0  0  0
  144.5176   71.3399  220.8808 H   0  0  0  0  0  0  0  0  0  0  0  0
  144.8490   73.4780  220.8390 C   0  0  0  0  0  0  0  0  0  0  0  0
  146.3380   73.3830  221.7600 Cl  0  0  0  0  0  0  0  0  0  0  0  0
  144.3800   74.7150  220.3860 C   0  0  0  0  0  0  0  0  0  0  0  0
  144.9587   75.6267  220.5956 H   0  0  0  0  0  0  0  0  0  0  0  0
  143.1790   74.8050  219.6670 C   0  0  0  0  0  0  0  0  0  0  0  0
  142.7510   76.3960  219.0510 Cl  0  0  0  0  0  0  0  0  0  0  0  0
  140.4230   77.4720  222.3500 C   0  0  0  0  0  0  0  0  0  0  0  0
  139.1140   77.8310  222.7030 C   0  0  0  0  0  0  0  0  0  0  0  0
  138.3010   77.0962  222.6083 H   0  0  0  0  0  0  0  0  0  0  0  0
  138.8370   79.1160  223.1740 C   0  0  0  0  0  0  0  0  0  0  0  0
  137.8081   79.3880  223.4522 H   0  0  0  0  0  0  0  0  0  0  0  0
  139.8620   80.0570  223.2930 C   0  0  0  0  0  0  0  0  0  0  0  0
  139.6355   81.0684  223.6616 H   0  0  0  0  0  0  0  0  0  0  0  0
  141.1800   79.7200  222.9450 C   0  0  0  0  0  0  0  0  0  0  0  0
  142.2620   80.7640  223.0660 C   0  0  0  0  0  0  0  0  0  0  0  0
  143.5260   80.1970  223.0680 F   0  0  0  0  0  0  0  0  0  0  0  0
  142.1740   81.6420  222.0020 F   0  0  0  0  0  0  0  0  0  0  0  0
  142.0930   81.4660  224.2470 F   0  0  0  0  0  0  0  0  0  0  0  0
  141.4550   78.4210  222.4780 C   0  0  0  0  0  0  0  0  0  0  0  0
  142.4856   78.1448  222.2106 H   0  0  0  0  0  0  0  0  0  0  0  0
  1  2  1  0
  2  3  2  0
  3  4  1  0
  4  5  1  0
  5  6  2  0
  5  7  1  0
  7  8  1  0
  7  9  1  0
  7 10  1  0
 10 11  1  0
 10 12  1  0
 10 13  1  0
 13 14  1  0
 13 15  1  0
 13 16  1  0
 16 17  1  0
 17 18  2  0
 18 19  1  0
 18 20  1  0
 20 21  1  0
 20 22  2  0
 22 23  1  0
 22 24  1  0
 24 25  1  0
 24 26  2  0
 26 27  1  0
  2 28  1  0
 28 29  2  0
 29 30  1  0
 29 31  1  0
 31 32  1  0
 31 33  2  0
 33 34  1  0
 33 35  1  0
 35 36  1  0
 36 37  1  0
 36 38  1  0
 36 39  1  0
 35 40  2  0
 40 41  1  0
 26 17  1  0
 40 28  1  0
M  CHG  1   4  -1
M  END
>  <UniqueID>  (30) 
18

>  <SMILES>  (30) 
O=C(CCCOc1ccc(Cl)cc1Cl)[N-]/N=C/c1cccc(C(F)(F)F)c1

>  <Energy>  (30) 
36.590309119007514

>  <Genealogy>  (30) 
O=C(CCCOc1ccc(Cl)cc1Cl)[N-]N=Cc1cccc(C(F)(F)F)c1 (protonated)
O=C(CCCOc1ccc(Cl)cc1Cl)[N-]/N=C/c1cccc(C(F)(F)F)c1 (cis-trans isomerization)
O=C(CCCOc1ccc(Cl)cc1Cl)[N-]/N=C/c1cccc(C(F)(F)F)c1 (3D coordinates assigned)
O=C(CCCOc1ccc(Cl)cc1Cl)[N-]/N=C/c1cccc(C(F)(F)F)c1 (optimized conformer: 36.590309119007514 kcal/mol)

>  <smiles>  (30) 
O=C(CCCOc1ccc(Cl)cc1Cl)NN=Cc1cccc(C(F)(F)F)c1

>  <score_type>  (30) 
oracle

>  <origin>  (30) 
autodockgpu

>  <m_score__min__energy>  (30) 
-7.0300000000000002

>  <m_primary>  (30) 
energy

>  <meeko>  (30) 
{"free_energy": -5.62, "intermolecular_energy": -8.6, "internal_energy": -1.61, "cluster_size": 2, "cluster_id": 7, "rank_in_cluster": 2}

>  <energy>  (30) 
-6.75

>  <cluster_rmsd>  (30) 
0.0

>  <rmsd>  (30) 
272.83

>  <cluster>  (30) 
2

$$$$
VHXSVHVNRGGTDL-PKHXXGQGNA-M
     RDKit          3D

 41 42  0  0  0  0  0  0  0  0999 V2000
  141.2605   71.4757  222.2216 H   0  0  0  0  0  0  0  0  0  0  0  0
  140.5570   71.8860  222.9610 C   0  0  0  0  0  0  0  0  0  0  0  0
  139.9540   73.0040  222.7130 N   0  0  0  0  0  0  0  0  0  0  0  0
  140.6410   74.0640  222.1120 N   0  0  0  0  0  0  0  0  0  0  0  0
  139.9960   75.3080  221.8440 C   0  0  0  0  0  0  0  0  0  0  0  0
  139.2100   75.8120  222.6900 O   0  0  0  0  0  0  0  0  0  0  0  0
  140.1850   75.9620  220.5080 C   0  0  0  0  0  0  0  0  0  0  0  0
  139.6279   76.9104  220.4958 H   0  0  0  0  0  0  0  0  0  0  0  0
  141.2626   76.1288  220.3631 H   0  0  0  0  0  0  0  0  0  0  0  0
  139.6840   75.0780  219.3520 C   0  0  0  0  0  0  0  0  0  0  0  0
  138.5917   74.9791  219.4356 H   0  0  0  0  0  0  0  0  0  0  0  0
  139.9841   75.5665  218.4132 H   0  0  0  0  0  0  0  0  0  0  0  0
  140.3030   73.6720  219.3530 C   0  0  0  0  0  0  0  0  0  0  0  0
  140.3726   73.3017  220.3864 H   0  0  0  0  0  0  0  0  0  0  0  0
  139.6717   72.9905  218.7638 H   0  0  0  0  0  0  0  0  0  0  0  0
  141.6080   73.7320  218.7790 O   0  0  0  0  0  0  0  0  0  0  0  0
  142.8390   73.7250  219.4570 C   0  0  0  0  0  0  0  0  0  0  0  0
  143.2770   72.4780  219.9270 C   0  0  0  0  0  0  0  0  0  0  0  0
  142.6906   71.5764  219.6964 H   0  0  0  0  0  0  0  0  0  0  0  0
  144.4440   72.3630  220.6820 C   0  0  0  0  0  0  0  0  0  0  0  0
  144.7687   71.3771  221.0462 H   0  0  0  0  0  0  0  0  0  0  0  0
  145.1990   73.4980  220.9750 C   0  0  0  0  0  0  0  0  0  0  0  0
  146.6440   73.3570  221.9590 Cl  0  0  0  0  0  0  0  0  0  0  0  0
  144.8070   74.7430  220.4760 C   0  0  0  0  0  0  0  0  0  0  0  0
  145.4187   75.6320  220.6894 H   0  0  0  0  0  0  0  0  0  0  0  0
  143.6420   74.8710  219.7060 C   0  0  0  0  0  0  0  0  0  0  0  0
  143.3130   76.4650  219.0380 Cl  0  0  0  0  0  0  0  0  0  0  0  0
  140.3170   71.1520  224.2190 C   0  0  0  0  0  0  0  0  0  0  0  0
  139.5900   69.9530  224.1840 C   0  0  0  0  0  0  0  0  0  0  0  0
  139.2377   69.5548  223.2210 H   0  0  0  0  0  0  0  0  0  0  0  0
  139.3110   69.2620  225.3650 C   0  0  0  0  0  0  0  0  0  0  0  0
  138.7449   68.3196  225.3278 H   0  0  0  0  0  0  0  0  0  0  0  0
  139.7480   69.7630  226.5930 C   0  0  0  0  0  0  0  0  0  0  0  0
  139.5200   69.2155  227.5194 H   0  0  0  0  0  0  0  0  0  0  0  0
  140.4770   70.9620  226.6520 C   0  0  0  0  0  0  0  0  0  0  0  0
  140.9190   71.4880  227.9950 C   0  0  0  0  0  0  0  0  0  0  0  0
  141.6080   70.5310  228.7200 F   0  0  0  0  0  0  0  0  0  0  0  0
  141.7460   72.5810  227.8100 F   0  0  0  0  0  0  0  0  0  0  0  0
  139.8100   71.8790  228.7230 F   0  0  0  0  0  0  0  0  0  0  0  0
  140.7620   71.6510  225.4580 C   0  0  0  0  0  0  0  0  0  0  0  0
  141.3376   72.5877  225.4933 H   0  0  0  0  0  0  0  0  0  0  0  0
  1  2  1  0
  2  3  2  0
  3  4  1  0
  4  5  1  0
  5  6  2  0
  5  7  1  0
  7  8  1  0
  7  9  1  0
  7 10  1  0
 10 11  1  0
 10 12  1  0
 10 13  1  0
 13 14  1  0
 13 15  1  0
 13 16  1  0
 16 17  1  0
 17 18  2  0
 18 19  1  0
 18 20  1  0
 20 21  1  0
 20 22  2  0
 22 23  1  0
 22 24  1  0
 24 25  1  0
 24 26  2  0
 26 27  1  0
  2 28  1  0
 28 29  2  0
 29 30  1  0
 29 31  1  0
 31 32  1  0
 31 33  2  0
 33 34  1  0
 33 35  1  0
 35 36  1  0
 36 37  1  0
 36 38  1  0
 36 39  1  0
 35 40  2  0
 40 41  1  0
 26 17  1  0
 40 28  1  0
M  CHG  1   4  -1
M  END
>  <UniqueID>  (31) 
18

>  <SMILES>  (31) 
O=C(CCCOc1ccc(Cl)cc1Cl)[N-]/N=C/c1cccc(C(F)(F)F)c1

>  <Energy>  (31) 
36.590309119007514

>  <Genealogy>  (31) 
O=C(CCCOc1ccc(Cl)cc1Cl)[N-]N=Cc1cccc(C(F)(F)F)c1 (protonated)
O=C(CCCOc1ccc(Cl)cc1Cl)[N-]/N=C/c1cccc(C(F)(F)F)c1 (cis-trans isomerization)
O=C(CCCOc1ccc(Cl)cc1Cl)[N-]/N=C/c1cccc(C(F)(F)F)c1 (3D coordinates assigned)
O=C(CCCOc1ccc(Cl)cc1Cl)[N-]/N=C/c1cccc(C(F)(F)F)c1 (optimized conformer: 36.590309119007514 kcal/mol)

>  <smiles>  (31) 
O=C(CCCOc1ccc(Cl)cc1Cl)NN=Cc1cccc(C(F)(F)F)c1

>  <score_type>  (31) 
oracle

>  <origin>  (31) 
autodockgpu

>  <m_score__min__energy>  (31) 
-7.0300000000000002

>  <m_primary>  (31) 
energy

>  <meeko>  (31) 
{"free_energy": -6.42, "intermolecular_energy": -9.4, "internal_energy": -1.22, "cluster_size": 2, "cluster_id": 5, "rank_in_cluster": 1}

>  <energy>  (31) 
-6.62

>  <cluster_rmsd>  (31) 
0.0

>  <rmsd>  (31) 
272.7

>  <cluster>  (31) 
3

$$$$
VHXSVHVNRGGTDL-PKHXXGQGNA-M
     RDKit          3D

 41 42  0  0  0  0  0  0  0  0999 V2000
  141.3338   76.0405  220.7711 H   0  0  0  0  0  0  0  0  0  0  0  0
  140.6290   76.0930  221.6140 C   0  0  0  0  0  0  0  0  0  0  0  0
  139.9960   75.0250  221.9810 N   0  0  0  0  0  0  0  0  0  0  0  0
  140.6990   73.8720  222.3450 N   0  0  0  0  0  0  0  0  0  0  0  0
  141.1790   72.9550  221.3620 C   0  0  0  0  0  0  0  0  0  0  0  0
  141.7680   73.3790  220.3320 O   0  0  0  0  0  0  0  0  0  0  0  0
  140.8920   71.4930  221.5180 C   0  0  0  0  0  0  0  0  0  0  0  0
  141.5554   70.9281  220.8467 H   0  0  0  0  0  0  0  0  0  0  0  0
  141.0656   71.2250  222.5707 H   0  0  0  0  0  0  0  0  0  0  0  0
  139.4310   71.1480  221.1770 C   0  0  0  0  0  0  0  0  0  0  0  0
  139.0639   71.8742  220.4368 H   0  0  0  0  0  0  0  0  0  0  0  0
  139.4203   70.1195  220.7871 H   0  0  0  0  0  0  0  0  0  0  0  0
  138.5000   71.1830  222.3990 C   0  0  0  0  0  0  0  0  0  0  0  0
  137.6690   71.8780  222.2084 H   0  0  0  0  0  0  0  0  0  0  0  0
  138.0971   70.1765  222.5851 H   0  0  0  0  0  0  0  0  0  0  0  0
  139.2370   71.6220  223.5390 O   0  0  0  0  0  0  0  0  0  0  0  0
  139.5400   70.8820  224.6950 C   0  0  0  0  0  0  0  0  0  0  0  0
  140.7050   71.2580  225.3800 C   0  0  0  0  0  0  0  0  0  0  0  0
  141.2797   72.1295  225.0332 H   0  0  0  0  0  0  0  0  0  0  0  0
  141.1460   70.5440  226.4940 C   0  0  0  0  0  0  0  0  0  0  0  0
  142.0648   70.8508  227.0152 H   0  0  0  0  0  0  0  0  0  0  0  0
  140.4230   69.4420  226.9470 C   0  0  0  0  0  0  0  0  0  0  0  0
  141.0030   68.5210  228.3220 Cl  0  0  0  0  0  0  0  0  0  0  0  0
  139.2340   69.0790  226.3090 C   0  0  0  0  0  0  0  0  0  0  0  0
  138.6539   68.2231  226.6844 H   0  0  0  0  0  0  0  0  0  0  0  0
  138.7730   69.7950  225.1950 C   0  0  0  0  0  0  0  0  0  0  0  0
  137.2080   69.3170  224.5470 Cl  0  0  0  0  0  0  0  0  0  0  0  0
  140.4220   77.3790  222.3060 C   0  0  0  0  0  0  0  0  0  0  0  0
  139.1300   77.7380  222.7160 C   0  0  0  0  0  0  0  0  0  0  0  0
  138.2918   77.0449  222.5514 H   0  0  0  0  0  0  0  0  0  0  0  0
  138.9010   78.9700  223.3320 C   0  0  0  0  0  0  0  0  0  0  0  0
  137.8845   79.2417  223.6529 H   0  0  0  0  0  0  0  0  0  0  0  0
  139.9570   79.8580  223.5420 C   0  0  0  0  0  0  0  0  0  0  0  0
  139.7681   80.8275  224.0261 H   0  0  0  0  0  0  0  0  0  0  0  0
  141.2590   79.5210  223.1390 C   0  0  0  0  0  0  0  0  0  0  0  0
  142.3760   80.5100  223.3610 C   0  0  0  0  0  0  0  0  0  0  0  0
  141.9260   81.8180  223.2950 F   0  0  0  0  0  0  0  0  0  0  0  0
  142.9360   80.2990  224.6080 F   0  0  0  0  0  0  0  0  0  0  0  0
  143.3490   80.3300  222.3930 F   0  0  0  0  0  0  0  0  0  0  0  0
  141.4860   78.2750  222.5240 C   0  0  0  0  0  0  0  0  0  0  0  0
  142.5038   77.9990  222.2110 H   0  0  0  0  0  0  0  0  0  0  0  0
  1  2  1  0
  2  3  2  0
  3  4  1  0
  4  5  1  0
  5  6  2  0
  5  7  1  0
  7  8  1  0
  7  9  1  0
  7 10  1  0
 10 11  1  0
 10 12  1  0
 10 13  1  0
 13 14  1  0
 13 15  1  0
 13 16  1  0
 16 17  1  0
 17 18  2  0
 18 19  1  0
 18 20  1  0
 20 21  1  0
 20 22  2  0
 22 23  1  0
 22 24  1  0
 24 25  1  0
 24 26  2  0
 26 27  1  0
  2 28  1  0
 28 29  2  0
 29 30  1  0
 29 31  1  0
 31 32  1  0
 31 33  2  0
 33 34  1  0
 33 35  1  0
 35 36  1  0
 36 37  1  0
 36 38  1  0
 36 39  1  0
 35 40  2  0
 40 41  1  0
 26 17  1  0
 40 28  1  0
M  CHG  1   4  -1
M  END
>  <UniqueID>  (32) 
18

>  <SMILES>  (32) 
O=C(CCCOc1ccc(Cl)cc1Cl)[N-]/N=C/c1cccc(C(F)(F)F)c1

>  <Energy>  (32) 
36.590309119007514

>  <Genealogy>  (32) 
O=C(CCCOc1ccc(Cl)cc1Cl)[N-]N=Cc1cccc(C(F)(F)F)c1 (protonated)
O=C(CCCOc1ccc(Cl)cc1Cl)[N-]/N=C/c1cccc(C(F)(F)F)c1 (cis-trans isomerization)
O=C(CCCOc1ccc(Cl)cc1Cl)[N-]/N=C/c1cccc(C(F)(F)F)c1 (3D coordinates assigned)
O=C(CCCOc1ccc(Cl)cc1Cl)[N-]/N=C/c1cccc(C(F)(F)F)c1 (optimized conformer: 36.590309119007514 kcal/mol)

>  <smiles>  (32) 
O=C(CCCOc1ccc(Cl)cc1Cl)NN=Cc1cccc(C(F)(F)F)c1

>  <score_type>  (32) 
oracle

>  <origin>  (32) 
autodockgpu

>  <m_score__min__energy>  (32) 
-7.0300000000000002

>  <m_primary>  (32) 
energy

>  <meeko>  (32) 
{"free_energy": -6.44, "intermolecular_energy": -9.42, "internal_energy": -0.56, "cluster_size": 3, "cluster_id": 4, "rank_in_cluster": 1}

>  <energy>  (32) 
-6.44

>  <cluster_rmsd>  (32) 
0.0

>  <rmsd>  (32) 
272.57

>  <cluster>  (32) 
4

$$$$
VHXSVHVNRGGTDL-PKHXXGQGNA-M
     RDKit          3D

 41 42  0  0  0  0  0  0  0  0999 V2000
  139.7955   71.2197  221.9840 H   0  0  0  0  0  0  0  0  0  0  0  0
  140.1820   71.7660  222.8570 C   0  0  0  0  0  0  0  0  0  0  0  0
  140.5560   72.9970  222.7220 N   0  0  0  0  0  0  0  0  0  0  0  0
  139.7890   73.8950  221.9710 N   0  0  0  0  0  0  0  0  0  0  0  0
  140.2490   75.2190  221.7040 C   0  0  0  0  0  0  0  0  0  0  0  0
  140.4100   76.0390  222.6480 O   0  0  0  0  0  0  0  0  0  0  0  0
  140.4450   75.6570  220.2840 C   0  0  0  0  0  0  0  0  0  0  0  0
  140.0954   76.6949  220.1819 H   0  0  0  0  0  0  0  0  0  0  0  0
  141.5160   75.5705  220.0486 H   0  0  0  0  0  0  0  0  0  0  0  0
  139.6700   74.7730  219.2910 C   0  0  0  0  0  0  0  0  0  0  0  0
  138.6756   74.5633  219.7121 H   0  0  0  0  0  0  0  0  0  0  0  0
  139.6088   75.3247  218.3413 H   0  0  0  0  0  0  0  0  0  0  0  0
  140.3680   73.4360  218.9980 C   0  0  0  0  0  0  0  0  0  0  0  0
  140.4279   72.8422  219.9220 H   0  0  0  0  0  0  0  0  0  0  0  0
  139.7945   72.8778  218.2433 H   0  0  0  0  0  0  0  0  0  0  0  0
  141.6840   73.6900  218.5080 O   0  0  0  0  0  0  0  0  0  0  0  0
  142.8800   73.7000  219.2450 C   0  0  0  0  0  0  0  0  0  0  0  0
  143.3170   72.4570  219.7270 C   0  0  0  0  0  0  0  0  0  0  0  0
  142.7589   71.5468  219.4624 H   0  0  0  0  0  0  0  0  0  0  0  0
  144.4490   72.3580  220.5370 C   0  0  0  0  0  0  0  0  0  0  0  0
  144.7742   71.3755  220.9097 H   0  0  0  0  0  0  0  0  0  0  0  0
  145.1680   73.5040  220.8740 C   0  0  0  0  0  0  0  0  0  0  0  0
  146.5660   73.3820  221.9260 Cl  0  0  0  0  0  0  0  0  0  0  0  0
  144.7780   74.7460  220.3650 C   0  0  0  0  0  0  0  0  0  0  0  0
  145.3621   75.6443  220.6138 H   0  0  0  0  0  0  0  0  0  0  0  0
  143.6490   74.8580  219.5400 C   0  0  0  0  0  0  0  0  0  0  0  0
  143.3240   76.4510  218.8670 Cl  0  0  0  0  0  0  0  0  0  0  0  0
  140.2650   71.0820  224.1620 C   0  0  0  0  0  0  0  0  0  0  0  0
  139.8980   69.7310  224.2530 C   0  0  0  0  0  0  0  0  0  0  0  0
  139.5878   69.1868  223.3488 H   0  0  0  0  0  0  0  0  0  0  0  0
  139.9240   69.0730  225.4840 C   0  0  0  0  0  0  0  0  0  0  0  0
  139.6380   68.0126  225.5451 H   0  0  0  0  0  0  0  0  0  0  0  0
  140.3120   69.7570  226.6380 C   0  0  0  0  0  0  0  0  0  0  0  0
  140.3270   69.2328  227.6050 H   0  0  0  0  0  0  0  0  0  0  0  0
  140.6830   71.1090  226.5720 C   0  0  0  0  0  0  0  0  0  0  0  0
  141.0780   71.8260  227.8390 C   0  0  0  0  0  0  0  0  0  0  0  0
  141.8630   72.9370  227.5780 F   0  0  0  0  0  0  0  0  0  0  0  0
  139.9400   72.2370  228.5080 F   0  0  0  0  0  0  0  0  0  0  0  0
  141.7930   70.9630  228.6510 F   0  0  0  0  0  0  0  0  0  0  0  0
  140.6610   71.7660  225.3270 C   0  0  0  0  0  0  0  0  0  0  0  0
  140.9560   72.8238  225.2639 H   0  0  0  0  0  0  0  0  0  0  0  0
  1  2  1  0
  2  3  2  0
  3  4  1  0
  4  5  1  0
  5  6  2  0
  5  7  1  0
  7  8  1  0
  7  9  1  0
  7 10  1  0
 10 11  1  0
 10 12  1  0
 10 13  1  0
 13 14  1  0
 13 15  1  0
 13 16  1  0
 16 17  1  0
 17 18  2  0
 18 19  1  0
 18 20  1  0
 20 21  1  0
 20 22  2  0
 22 23  1  0
 22 24  1  0
 24 25  1  0
 24 26  2  0
 26 27  1  0
  2 28  1  0
 28 29  2  0
 29 30  1  0
 29 31  1  0
 31 32  1  0
 31 33  2  0
 33 34  1  0
 33 35  1  0
 35 36  1  0
 36 37  1  0
 36 38  1  0
 36 39  1  0
 35 40  2  0
 40 41  1  0
 26 17  1  0
 40 28  1  0
M  CHG  1   4  -1
M  END
>  <UniqueID>  (33) 
18

>  <SMILES>  (33) 
O=C(CCCOc1ccc(Cl)cc1Cl)[N-]/N=C/c1cccc(C(F)(F)F)c1

>  <Energy>  (33) 
36.590309119007514

>  <Genealogy>  (33) 
O=C(CCCOc1ccc(Cl)cc1Cl)[N-]N=Cc1cccc(C(F)(F)F)c1 (protonated)
O=C(CCCOc1ccc(Cl)cc1Cl)[N-]/N=C/c1cccc(C(F)(F)F)c1 (cis-trans isomerization)
O=C(CCCOc1ccc(Cl)cc1Cl)[N-]/N=C/c1cccc(C(F)(F)F)c1 (3D coordinates assigned)
O=C(CCCOc1ccc(Cl)cc1Cl)[N-]/N=C/c1cccc(C(F)(F)F)c1 (optimized conformer: 36.590309119007514 kcal/mol)

>  <smiles>  (33) 
O=C(CCCOc1ccc(Cl)cc1Cl)NN=Cc1cccc(C(F)(F)F)c1

>  <score_type>  (33) 
oracle

>  <origin>  (33) 
autodockgpu

>  <m_score__min__energy>  (33) 
-7.0300000000000002

>  <m_primary>  (33) 
energy

>  <meeko>  (33) 
{"free_energy": -6.17, "intermolecular_energy": -9.16, "internal_energy": -1.28, "cluster_size": 2, "cluster_id": 5, "rank_in_cluster": 2}

>  <energy>  (33) 
-6.4

>  <cluster_rmsd>  (33) 
0.86

>  <rmsd>  (33) 
272.72

>  <cluster>  (33) 
4

$$$$
VHXSVHVNRGGTDL-PKHXXGQGNA-M
     RDKit          3D

 41 42  0  0  0  0  0  0  0  0999 V2000
  139.7809   70.8743  222.0478 H   0  0  0  0  0  0  0  0  0  0  0  0
  139.9150   71.5050  222.9390 C   0  0  0  0  0  0  0  0  0  0  0  0
  139.9490   72.7920  222.8080 N   0  0  0  0  0  0  0  0  0  0  0  0
  140.9550   73.4030  222.0500 N   0  0  0  0  0  0  0  0  0  0  0  0
  140.8710   74.7780  221.6800 C   0  0  0  0  0  0  0  0  0  0  0  0
  140.1290   75.5660  222.3250 O   0  0  0  0  0  0  0  0  0  0  0  0
  141.5990   75.2570  220.4610 C   0  0  0  0  0  0  0  0  0  0  0  0
  142.6417   75.4762  220.7344 H   0  0  0  0  0  0  0  0  0  0  0  0
  141.5427   74.4641  219.7007 H   0  0  0  0  0  0  0  0  0  0  0  0
  140.9650   76.5270  219.8670 C   0  0  0  0  0  0  0  0  0  0  0  0
  140.9184   76.4160  218.7736 H   0  0  0  0  0  0  0  0  0  0  0  0
  139.9657   76.6335  220.3144 H   0  0  0  0  0  0  0  0  0  0  0  0
  141.7510   77.8060  220.1950 C   0  0  0  0  0  0  0  0  0  0  0  0
  142.7776   77.7154  219.8105 H   0  0  0  0  0  0  0  0  0  0  0  0
  141.2610   78.6711  219.7244 H   0  0  0  0  0  0  0  0  0  0  0  0
  141.7860   77.9870  221.6100 O   0  0  0  0  0  0  0  0  0  0  0  0
  140.9050   78.7520  222.3930 C   0  0  0  0  0  0  0  0  0  0  0  0
  139.5690   78.3240  222.4150 C   0  0  0  0  0  0  0  0  0  0  0  0
  139.2877   77.4000  221.8886 H   0  0  0  0  0  0  0  0  0  0  0  0
  138.5920   79.0520  223.0940 C   0  0  0  0  0  0  0  0  0  0  0  0
  137.5487   78.7033  223.0959 H   0  0  0  0  0  0  0  0  0  0  0  0
  138.9370   80.2210  223.7700 C   0  0  0  0  0  0  0  0  0  0  0  0
  137.6990   81.1570  224.5880 Cl  0  0  0  0  0  0  0  0  0  0  0  0
  140.2700   80.6400  223.8010 C   0  0  0  0  0  0  0  0  0  0  0  0
  140.5421   81.5503  224.3554 H   0  0  0  0  0  0  0  0  0  0  0  0
  141.2640   79.9110  223.1320 C   0  0  0  0  0  0  0  0  0  0  0  0
  142.9190   80.4720  223.3380 Cl  0  0  0  0  0  0  0  0  0  0  0  0
  140.0530   70.8690  224.2630 C   0  0  0  0  0  0  0  0  0  0  0  0
  139.6700   69.5290  224.4230 C   0  0  0  0  0  0  0  0  0  0  0  0
  139.3069   68.9569  223.5565 H   0  0  0  0  0  0  0  0  0  0  0  0
  139.7470   68.9170  225.6760 C   0  0  0  0  0  0  0  0  0  0  0  0
  139.4474   67.8649  225.7914 H   0  0  0  0  0  0  0  0  0  0  0  0
  140.2030   69.6360  226.7830 C   0  0  0  0  0  0  0  0  0  0  0  0
  140.2584   69.1482  227.7673 H   0  0  0  0  0  0  0  0  0  0  0  0
  140.5910   70.9780  226.6460 C   0  0  0  0  0  0  0  0  0  0  0  0
  141.0600   71.7350  227.8650 C   0  0  0  0  0  0  0  0  0  0  0  0
  141.8150   70.9360  228.7070 F   0  0  0  0  0  0  0  0  0  0  0  0
  141.8330   72.8100  227.4680 F   0  0  0  0  0  0  0  0  0  0  0  0
  139.9630   72.2010  228.5670 F   0  0  0  0  0  0  0  0  0  0  0  0
  140.5170   71.5880  225.3800 C   0  0  0  0  0  0  0  0  0  0  0  0
  140.8250   72.6374  225.2624 H   0  0  0  0  0  0  0  0  0  0  0  0
  1  2  1  0
  2  3  2  0
  3  4  1  0
  4  5  1  0
  5  6  2  0
  5  7  1  0
  7  8  1  0
  7  9  1  0
  7 10  1  0
 10 11  1  0
 10 12  1  0
 10 13  1  0
 13 14  1  0
 13 15  1  0
 13 16  1  0
 16 17  1  0
 17 18  2  0
 18 19  1  0
 18 20  1  0
 20 21  1  0
 20 22  2  0
 22 23  1  0
 22 24  1  0
 24 25  1  0
 24 26  2  0
 26 27  1  0
  2 28  1  0
 28 29  2  0
 29 30  1  0
 29 31  1  0
 31 32  1  0
 31 33  2  0
 33 34  1  0
 33 35  1  0
 35 36  1  0
 36 37  1  0
 36 38  1  0
 36 39  1  0
 35 40  2  0
 40 41  1  0
 26 17  1  0
 40 28  1  0
M  CHG  1   4  -1
M  END
>  <UniqueID>  (34) 
18

>  <SMILES>  (34) 
O=C(CCCOc1ccc(Cl)cc1Cl)[N-]/N=C/c1cccc(C(F)(F)F)c1

>  <Energy>  (34) 
36.590309119007514

>  <Genealogy>  (34) 
O=C(CCCOc1ccc(Cl)cc1Cl)[N-]N=Cc1cccc(C(F)(F)F)c1 (protonated)
O=C(CCCOc1ccc(Cl)cc1Cl)[N-]/N=C/c1cccc(C(F)(F)F)c1 (cis-trans isomerization)
O=C(CCCOc1ccc(Cl)cc1Cl)[N-]/N=C/c1cccc(C(F)(F)F)c1 (3D coordinates assigned)
O=C(CCCOc1ccc(Cl)cc1Cl)[N-]/N=C/c1cccc(C(F)(F)F)c1 (optimized conformer: 36.590309119007514 kcal/mol)

>  <smiles>  (34) 
O=C(CCCOc1ccc(Cl)cc1Cl)NN=Cc1cccc(C(F)(F)F)c1

>  <score_type>  (34) 
oracle

>  <origin>  (34) 
autodockgpu

>  <m_score__min__energy>  (34) 
-7.0300000000000002

>  <m_primary>  (34) 
energy

>  <meeko>  (34) 
{"free_energy": -6.96, "intermolecular_energy": -9.95, "internal_energy": -0.68, "cluster_size": 9, "cluster_id": 1, "rank_in_cluster": 3}

>  <energy>  (34) 
-5.94

>  <cluster_rmsd>  (34) 
0.96

>  <rmsd>  (34) 
272.67

>  <cluster>  (34) 
4

$$$$
VHXSVHVNRGGTDL-PKHXXGQGNA-M
     RDKit          3D

 41 42  0  0  0  0  0  0  0  0999 V2000
  138.3599   75.8480  221.9270 H   0  0  0  0  0  0  0  0  0  0  0  0
  139.3710   76.1810  222.2040 C   0  0  0  0  0  0  0  0  0  0  0  0
  140.3590   75.3500  222.1190 N   0  0  0  0  0  0  0  0  0  0  0  0
  140.4980   74.5230  220.9990 N   0  0  0  0  0  0  0  0  0  0  0  0
  141.4090   73.4250  220.9970 C   0  0  0  0  0  0  0  0  0  0  0  0
  142.6390   73.6200  221.1900 O   0  0  0  0  0  0  0  0  0  0  0  0
  140.9070   72.0530  220.6670 C   0  0  0  0  0  0  0  0  0  0  0  0
  140.7179   71.9958  219.5849 H   0  0  0  0  0  0  0  0  0  0  0  0
  141.6743   71.3289  220.9783 H   0  0  0  0  0  0  0  0  0  0  0  0
  139.6060   71.7140  221.4160 C   0  0  0  0  0  0  0  0  0  0  0  0
  138.7588   72.1317  220.8522 H   0  0  0  0  0  0  0  0  0  0  0  0
  139.5495   70.6182  221.4943 H   0  0  0  0  0  0  0  0  0  0  0  0
  139.5670   72.2770  222.8450 C   0  0  0  0  0  0  0  0  0  0  0  0
  139.7141   73.3667  222.8149 H   0  0  0  0  0  0  0  0  0  0  0  0
  138.5921   72.0535  223.3029 H   0  0  0  0  0  0  0  0  0  0  0  0
  140.6060   71.6770  223.6160 O   0  0  0  0  0  0  0  0  0  0  0  0
  140.4650   70.9080  224.7840 C   0  0  0  0  0  0  0  0  0  0  0  0
  141.0550   71.4330  225.9430 C   0  0  0  0  0  0  0  0  0  0  0  0
  141.5323   72.4234  225.9066 H   0  0  0  0  0  0  0  0  0  0  0  0
  141.0460   70.7190  227.1410 C   0  0  0  0  0  0  0  0  0  0  0  0
  141.5172   71.1455  228.0388 H   0  0  0  0  0  0  0  0  0  0  0  0
  140.4400   69.4650  227.2010 C   0  0  0  0  0  0  0  0  0  0  0  0
  140.4680   68.5510  228.6980 Cl  0  0  0  0  0  0  0  0  0  0  0  0
  139.8060   68.9430  226.0710 C   0  0  0  0  0  0  0  0  0  0  0  0
  139.3096   67.9631  226.1290 H   0  0  0  0  0  0  0  0  0  0  0  0
  139.7960   69.6560  224.8630 C   0  0  0  0  0  0  0  0  0  0  0  0
  138.8690   68.9530  223.5440 Cl  0  0  0  0  0  0  0  0  0  0  0  0
  139.5760   77.5680  222.6660 C   0  0  0  0  0  0  0  0  0  0  0  0
  138.4700   78.3210  223.0850 C   0  0  0  0  0  0  0  0  0  0  0  0
  137.4702   77.8626  223.1004 H   0  0  0  0  0  0  0  0  0  0  0  0
  138.6310   79.6500  223.4830 C   0  0  0  0  0  0  0  0  0  0  0  0
  137.7584   80.2325  223.8135 H   0  0  0  0  0  0  0  0  0  0  0  0
  139.8950   80.2420  223.4630 C   0  0  0  0  0  0  0  0  0  0  0  0
  140.0131   81.2900  223.7756 H   0  0  0  0  0  0  0  0  0  0  0  0
  141.0170   79.5070  223.0460 C   0  0  0  0  0  0  0  0  0  0  0  0
  142.3670   80.1800  223.0150 C   0  0  0  0  0  0  0  0  0  0  0  0
  142.4280   81.1660  222.0450 F   0  0  0  0  0  0  0  0  0  0  0  0
  142.6200   80.7570  224.2460 F   0  0  0  0  0  0  0  0  0  0  0  0
  143.3440   79.2370  222.7480 F   0  0  0  0  0  0  0  0  0  0  0  0
  140.8500   78.1660  222.6520 C   0  0  0  0  0  0  0  0  0  0  0  0
  141.7234   77.5799  222.3301 H   0  0  0  0  0  0  0  0  0  0  0  0
  1  2  1  0
  2  3  2  0
  3  4  1  0
  4  5  1  0
  5  6  2  0
  5  7  1  0
  7  8  1  0
  7  9  1  0
  7 10  1  0
 10 11  1  0
 10 12  1  0
 10 13  1  0
 13 14  1  0
 13 15  1  0
 13 16  1  0
 16 17  1  0
 17 18  2  0
 18 19  1  0
 18 20  1  0
 20 21  1  0
 20 22  2  0
 22 23  1  0
 22 24  1  0
 24 25  1  0
 24 26  2  0
 26 27  1  0
  2 28  1  0
 28 29  2  0
 29 30  1  0
 29 31  1  0
 31 32  1  0
 31 33  2  0
 33 34  1  0
 33 35  1  0
 35 36  1  0
 36 37  1  0
 36 38  1  0
 36 39  1  0
 35 40  2  0
 40 41  1  0
 26 17  1  0
 40 28  1  0
M  CHG  1   4  -1
M  END
>  <UniqueID>  (35) 
18

>  <SMILES>  (35) 
O=C(CCCOc1ccc(Cl)cc1Cl)[N-]/N=C/c1cccc(C(F)(F)F)c1

>  <Energy>  (35) 
36.590309119007514

>  <Genealogy>  (35) 
O=C(CCCOc1ccc(Cl)cc1Cl)[N-]N=Cc1cccc(C(F)(F)F)c1 (protonated)
O=C(CCCOc1ccc(Cl)cc1Cl)[N-]/N=C/c1cccc(C(F)(F)F)c1 (cis-trans isomerization)
O=C(CCCOc1ccc(Cl)cc1Cl)[N-]/N=C/c1cccc(C(F)(F)F)c1 (3D coordinates assigned)
O=C(CCCOc1ccc(Cl)cc1Cl)[N-]/N=C/c1cccc(C(F)(F)F)c1 (optimized conformer: 36.590309119007514 kcal/mol)

>  <smiles>  (35) 
O=C(CCCOc1ccc(Cl)cc1Cl)NN=Cc1cccc(C(F)(F)F)c1

>  <score_type>  (35) 
oracle

>  <origin>  (35) 
autodockgpu

>  <m_score__min__energy>  (35) 
-7.0300000000000002

>  <m_primary>  (35) 
energy

>  <meeko>  (35) 
{"free_energy": -5.94, "intermolecular_energy": -8.92, "internal_energy": -0.81, "cluster_size": 3, "cluster_id": 4, "rank_in_cluster": 3}

>  <energy>  (35) 
-6.42

>  <cluster_rmsd>  (35) 
0.0

>  <rmsd>  (35) 
272.16

>  <cluster>  (35) 
5

$$$$
VHXSVHVNRGGTDL-PKHXXGQGNA-M
     RDKit          3D

 41 42  0  0  0  0  0  0  0  0999 V2000
  141.5602   72.3250  223.7140 H   0  0  0  0  0  0  0  0  0  0  0  0
  140.6800   71.8600  224.1820 C   0  0  0  0  0  0  0  0  0  0  0  0
  139.5810   71.7560  223.5060 N   0  0  0  0  0  0  0  0  0  0  0  0
  139.5160   72.2030  222.1820 N   0  0  0  0  0  0  0  0  0  0  0  0
  139.6080   73.5910  221.8630 C   0  0  0  0  0  0  0  0  0  0  0  0
  140.5680   74.2810  222.3000 O   0  0  0  0  0  0  0  0  0  0  0  0
  138.5040   74.2410  221.0860 C   0  0  0  0  0  0  0  0  0  0  0  0
  138.9237   75.0742  220.5032 H   0  0  0  0  0  0  0  0  0  0  0  0
  138.0581   73.4788  220.4300 H   0  0  0  0  0  0  0  0  0  0  0  0
  137.3930   74.7860  222.0010 C   0  0  0  0  0  0  0  0  0  0  0  0
  136.4987   74.9764  221.3895 H   0  0  0  0  0  0  0  0  0  0  0  0
  137.2092   74.0293  222.7780 H   0  0  0  0  0  0  0  0  0  0  0  0
  137.7820   76.0890  222.7160 C   0  0  0  0  0  0  0  0  0  0  0  0
  136.8759   76.6732  222.9346 H   0  0  0  0  0  0  0  0  0  0  0  0
  138.2988   75.8532  223.6580 H   0  0  0  0  0  0  0  0  0  0  0  0
  138.6470   76.8480  221.8720 O   0  0  0  0  0  0  0  0  0  0  0  0
  139.6750   77.7210  222.2690 C   0  0  0  0  0  0  0  0  0  0  0  0
  139.3590   78.6160  223.3030 C   0  0  0  0  0  0  0  0  0  0  0  0
  138.3739   78.5559  223.7888 H   0  0  0  0  0  0  0  0  0  0  0  0
  140.2740   79.5800  223.7240 C   0  0  0  0  0  0  0  0  0  0  0  0
  140.0061   80.2768  224.5319 H   0  0  0  0  0  0  0  0  0  0  0  0
  141.5290   79.6610  223.1210 C   0  0  0  0  0  0  0  0  0  0  0  0
  142.6630   80.9010  223.6230 Cl  0  0  0  0  0  0  0  0  0  0  0  0
  141.8820   78.7490  222.1230 C   0  0  0  0  0  0  0  0  0  0  0  0
  142.8811   78.8021  221.6658 H   0  0  0  0  0  0  0  0  0  0  0  0
  140.9750   77.7660  221.6980 C   0  0  0  0  0  0  0  0  0  0  0  0
  141.5720   76.6040  220.5200 Cl  0  0  0  0  0  0  0  0  0  0  0  0
  140.7730   71.3660  225.5690 C   0  0  0  0  0  0  0  0  0  0  0  0
  141.0830   72.2670  226.5990 C   0  0  0  0  0  0  0  0  0  0  0  0
  141.2181   73.3343  226.3696 H   0  0  0  0  0  0  0  0  0  0  0  0
  141.2210   71.8170  227.9130 C   0  0  0  0  0  0  0  0  0  0  0  0
  141.4598   72.5315  228.7146 H   0  0  0  0  0  0  0  0  0  0  0  0
  141.0570   70.4630  228.2140 C   0  0  0  0  0  0  0  0  0  0  0  0
  141.1712   70.1154  229.2514 H   0  0  0  0  0  0  0  0  0  0  0  0
  140.7470   69.5430  227.1990 C   0  0  0  0  0  0  0  0  0  0  0  0
  140.5950   68.0840  227.5520 C   0  0  0  0  0  0  0  0  0  0  0  0
  141.0880   67.8060  228.8160 F   0  0  0  0  0  0  0  0  0  0  0  0
  139.2570   67.7400  227.5160 F   0  0  0  0  0  0  0  0  0  0  0  0
  141.2850   67.3140  226.6320 F   0  0  0  0  0  0  0  0  0  0  0  0
  140.6020   70.0030  225.8770 C   0  0  0  0  0  0  0  0  0  0  0  0
  140.3527   69.2908  225.0766 H   0  0  0  0  0  0  0  0  0  0  0  0
  1  2  1  0
  2  3  2  0
  3  4  1  0
  4  5  1  0
  5  6  2  0
  5  7  1  0
  7  8  1  0
  7  9  1  0
  7 10  1  0
 10 11  1  0
 10 12  1  0
 10 13  1  0
 13 14  1  0
 13 15  1  0
 13 16  1  0
 16 17  1  0
 17 18  2  0
 18 19  1  0
 18 20  1  0
 20 21  1  0
 20 22  2  0
 22 23  1  0
 22 24  1  0
 24 25  1  0
 24 26  2  0
 26 27  1  0
  2 28  1  0
 28 29  2  0
 29 30  1  0
 29 31  1  0
 31 32  1  0
 31 33  2  0
 33 34  1  0
 33 35  1  0
 35 36  1  0
 36 37  1  0
 36 38  1  0
 36 39  1  0
 35 40  2  0
 40 41  1  0
 26 17  1  0
 40 28  1  0
M  CHG  1   4  -1
M  END
>  <UniqueID>  (36) 
18

>  <SMILES>  (36) 
O=C(CCCOc1ccc(Cl)cc1Cl)[N-]/N=C/c1cccc(C(F)(F)F)c1

>  <Energy>  (36) 
36.590309119007514

>  <Genealogy>  (36) 
O=C(CCCOc1ccc(Cl)cc1Cl)[N-]N=Cc1cccc(C(F)(F)F)c1 (protonated)
O=C(CCCOc1ccc(Cl)cc1Cl)[N-]/N=C/c1cccc(C(F)(F)F)c1 (cis-trans isomerization)
O=C(CCCOc1ccc(Cl)cc1Cl)[N-]/N=C/c1cccc(C(F)(F)F)c1 (3D coordinates assigned)
O=C(CCCOc1ccc(Cl)cc1Cl)[N-]/N=C/c1cccc(C(F)(F)F)c1 (optimized conformer: 36.590309119007514 kcal/mol)

>  <smiles>  (36) 
O=C(CCCOc1ccc(Cl)cc1Cl)NN=Cc1cccc(C(F)(F)F)c1

>  <score_type>  (36) 
oracle

>  <origin>  (36) 
autodockgpu

>  <m_score__min__energy>  (36) 
-7.0300000000000002

>  <m_primary>  (36) 
energy

>  <meeko>  (36) 
{"free_energy": -6.75, "intermolecular_energy": -9.73, "internal_energy": -0.88, "cluster_size": 1, "cluster_id": 2, "rank_in_cluster": 1}

>  <energy>  (36) 
-6.17

>  <cluster_rmsd>  (36) 
0.45

>  <rmsd>  (36) 
272.13

>  <cluster>  (36) 
5

$$$$
VHXSVHVNRGGTDL-PKHXXGQGNA-M
     RDKit          3D

 41 42  0  0  0  0  0  0  0  0999 V2000
  144.5802   72.1200  216.5040 H   0  0  0  0  0  0  0  0  0  0  0  0
  145.3380   71.7590  217.2150 C   0  0  0  0  0  0  0  0  0  0  0  0
  145.8950   72.5960  218.0290 N   0  0  0  0  0  0  0  0  0  0  0  0
  146.1410   72.2370  219.3590 N   0  0  0  0  0  0  0  0  0  0  0  0
  145.7330   73.0750  220.4400 C   0  0  0  0  0  0  0  0  0  0  0  0
  146.5810   73.7700  221.0610 O   0  0  0  0  0  0  0  0  0  0  0  0
  144.3040   73.0470  220.8920 C   0  0  0  0  0  0  0  0  0  0  0  0
  143.9095   72.0291  220.7566 H   0  0  0  0  0  0  0  0  0  0  0  0
  144.2784   73.3490  221.9494 H   0  0  0  0  0  0  0  0  0  0  0  0
  143.4240   74.0290  220.0990 C   0  0  0  0  0  0  0  0  0  0  0  0
  143.9130   75.0143  220.0981 H   0  0  0  0  0  0  0  0  0  0  0  0
  143.3133   73.6218  219.0831 H   0  0  0  0  0  0  0  0  0  0  0  0
  142.0120   74.1850  220.6850 C   0  0  0  0  0  0  0  0  0  0  0  0
  141.3857   73.3391  220.3655 H   0  0  0  0  0  0  0  0  0  0  0  0
  142.0678   74.2017  221.7835 H   0  0  0  0  0  0  0  0  0  0  0  0
  141.4410   75.4050  220.2160 O   0  0  0  0  0  0  0  0  0  0  0  0
  141.4600   76.6560  220.8550 C   0  0  0  0  0  0  0  0  0  0  0  0
  141.0710   76.6660  222.2030 C   0  0  0  0  0  0  0  0  0  0  0  0
  140.8373   75.7162  222.7062 H   0  0  0  0  0  0  0  0  0  0  0  0
  140.9760   77.8620  222.9150 C   0  0  0  0  0  0  0  0  0  0  0  0
  140.6650   77.8506  223.9700 H   0  0  0  0  0  0  0  0  0  0  0  0
  141.2750   79.0710  222.2900 C   0  0  0  0  0  0  0  0  0  0  0  0
  141.1150   80.5770  223.1760 Cl  0  0  0  0  0  0  0  0  0  0  0  0
  141.7100   79.0800  220.9620 C   0  0  0  0  0  0  0  0  0  0  0  0
  141.9671   80.0346  220.4797 H   0  0  0  0  0  0  0  0  0  0  0  0
  141.8220   77.8840  220.2380 C   0  0  0  0  0  0  0  0  0  0  0  0
  142.4870   78.0090  218.6140 Cl  0  0  0  0  0  0  0  0  0  0  0  0
  145.7010   70.3280  217.2230 C   0  0  0  0  0  0  0  0  0  0  0  0
  146.2890   69.7640  216.0820 C   0  0  0  0  0  0  0  0  0  0  0  0
  146.5066   70.3972  215.2093 H   0  0  0  0  0  0  0  0  0  0  0  0
  146.6000   68.4030  216.0470 C   0  0  0  0  0  0  0  0  0  0  0  0
  147.0648   67.9699  215.1490 H   0  0  0  0  0  0  0  0  0  0  0  0
  146.3230   67.5900  217.1480 C   0  0  0  0  0  0  0  0  0  0  0  0
  146.5674   66.5181  217.1120 H   0  0  0  0  0  0  0  0  0  0  0  0
  145.7340   68.1340  218.3010 C   0  0  0  0  0  0  0  0  0  0  0  0
  145.4290   67.2270  219.4680 C   0  0  0  0  0  0  0  0  0  0  0  0
  145.9270   65.9500  219.2700 F   0  0  0  0  0  0  0  0  0  0  0  0
  145.9960   67.7480  220.6160 F   0  0  0  0  0  0  0  0  0  0  0  0
  144.0590   67.1430  219.6380 F   0  0  0  0  0  0  0  0  0  0  0  0
  145.4290   69.5070  218.3330 C   0  0  0  0  0  0  0  0  0  0  0  0
  144.9735   69.9430  219.2344 H   0  0  0  0  0  0  0  0  0  0  0  0
  1  2  1  0
  2  3  2  0
  3  4  1  0
  4  5  1  0
  5  6  2  0
  5  7  1  0
  7  8  1  0
  7  9  1  0
  7 10  1  0
 10 11  1  0
 10 12  1  0
 10 13  1  0
 13 14  1  0
 13 15  1  0
 13 16  1  0
 16 17  1  0
 17 18  2  0
 18 19  1  0
 18 20  1  0
 20 21  1  0
 20 22  2  0
 22 23  1  0
 22 24  1  0
 24 25  1  0
 24 26  2  0
 26 27  1  0
  2 28  1  0
 28 29  2  0
 29 30  1  0
 29 31  1  0
 31 32  1  0
 31 33  2  0
 33 34  1  0
 33 35  1  0
 35 36  1  0
 36 37  1  0
 36 38  1  0
 36 39  1  0
 35 40  2  0
 40 41  1  0
 26 17  1  0
 40 28  1  0
M  CHG  1   4  -1
M  END
>  <UniqueID>  (37) 
18

>  <SMILES>  (37) 
O=C(CCCOc1ccc(Cl)cc1Cl)[N-]/N=C/c1cccc(C(F)(F)F)c1

>  <Energy>  (37) 
36.590309119007514

>  <Genealogy>  (37) 
O=C(CCCOc1ccc(Cl)cc1Cl)[N-]N=Cc1cccc(C(F)(F)F)c1 (protonated)
O=C(CCCOc1ccc(Cl)cc1Cl)[N-]/N=C/c1cccc(C(F)(F)F)c1 (cis-trans isomerization)
O=C(CCCOc1ccc(Cl)cc1Cl)[N-]/N=C/c1cccc(C(F)(F)F)c1 (3D coordinates assigned)
O=C(CCCOc1ccc(Cl)cc1Cl)[N-]/N=C/c1cccc(C(F)(F)F)c1 (optimized conformer: 36.590309119007514 kcal/mol)

>  <smiles>  (37) 
O=C(CCCOc1ccc(Cl)cc1Cl)NN=Cc1cccc(C(F)(F)F)c1

>  <score_type>  (37) 
oracle

>  <origin>  (37) 
autodockgpu

>  <m_score__min__energy>  (37) 
-7.0300000000000002

>  <m_primary>  (37) 
energy

>  <meeko>  (37) 
{"free_energy": -6.03, "intermolecular_energy": -9.01, "internal_energy": -0.74, "cluster_size": 2, "cluster_id": 6, "rank_in_cluster": 1}

>  <energy>  (37) 
-6.03

>  <cluster_rmsd>  (37) 
0.0

>  <rmsd>  (37) 
270.92

>  <cluster>  (37) 
6

$$$$
VHXSVHVNRGGTDL-PKHXXGQGNA-M
     RDKit          3D

 41 42  0  0  0  0  0  0  0  0999 V2000
  140.4063   76.3500  220.3839 H   0  0  0  0  0  0  0  0  0  0  0  0
  140.4840   76.3320  221.4810 C   0  0  0  0  0  0  0  0  0  0  0  0
  140.7070   75.2090  222.0840 N   0  0  0  0  0  0  0  0  0  0  0  0
  139.6620   74.3100  222.3220 N   0  0  0  0  0  0  0  0  0  0  0  0
  139.8790   72.9000  222.3020 C   0  0  0  0  0  0  0  0  0  0  0  0
  140.7040   72.3720  223.0950 O   0  0  0  0  0  0  0  0  0  0  0  0
  139.1900   72.0640  221.2660 C   0  0  0  0  0  0  0  0  0  0  0  0
  139.8096   71.1801  221.0544 H   0  0  0  0  0  0  0  0  0  0  0  0
  138.2055   71.7764  221.6637 H   0  0  0  0  0  0  0  0  0  0  0  0
  138.9630   72.8360  219.9540 C   0  0  0  0  0  0  0  0  0  0  0  0
  138.0626   72.4365  219.4644 H   0  0  0  0  0  0  0  0  0  0  0  0
  138.8538   73.8991  220.2145 H   0  0  0  0  0  0  0  0  0  0  0  0
  140.1420   72.7240  218.9750 C   0  0  0  0  0  0  0  0  0  0  0  0
  140.6867   71.7867  219.1613 H   0  0  0  0  0  0  0  0  0  0  0  0
  139.7650   72.7268  217.9416 H   0  0  0  0  0  0  0  0  0  0  0  0
  141.0200   73.8320  219.1670 O   0  0  0  0  0  0  0  0  0  0  0  0
  142.3320   73.8020  219.6700 C   0  0  0  0  0  0  0  0  0  0  0  0
  142.7820   72.5620  220.1470 C   0  0  0  0  0  0  0  0  0  0  0  0
  142.1345   71.6779  220.0510 H   0  0  0  0  0  0  0  0  0  0  0  0
  144.0370   72.4320  220.7410 C   0  0  0  0  0  0  0  0  0  0  0  0
  144.3702   71.4520  221.1133 H   0  0  0  0  0  0  0  0  0  0  0  0
  144.8690   73.5430  220.8630 C   0  0  0  0  0  0  0  0  0  0  0  0
  146.4300   73.3870  221.6480 Cl  0  0  0  0  0  0  0  0  0  0  0  0
  144.4610   74.7790  220.3520 C   0  0  0  0  0  0  0  0  0  0  0  0
  145.1303   75.6485  220.4291 H   0  0  0  0  0  0  0  0  0  0  0  0
  143.2060   74.9200  219.7420 C   0  0  0  0  0  0  0  0  0  0  0  0
  142.8500   76.4920  219.0360 Cl  0  0  0  0  0  0  0  0  0  0  0  0
  140.3320   77.5890  222.2390 C   0  0  0  0  0  0  0  0  0  0  0  0
  139.0660   77.9490  222.7210 C   0  0  0  0  0  0  0  0  0  0  0  0
  138.2093   77.2774  222.5626 H   0  0  0  0  0  0  0  0  0  0  0  0
  138.8860   79.1550  223.4010 C   0  0  0  0  0  0  0  0  0  0  0  0
  137.8896   79.4276  223.7791 H   0  0  0  0  0  0  0  0  0  0  0  0
  139.9670   80.0170  223.6030 C   0  0  0  0  0  0  0  0  0  0  0  0
  139.8169   80.9669  224.1369 H   0  0  0  0  0  0  0  0  0  0  0  0
  141.2440   79.6770  223.1280 C   0  0  0  0  0  0  0  0  0  0  0  0
  142.3880   80.6360  223.3440 C   0  0  0  0  0  0  0  0  0  0  0  0
  141.9690   81.9550  223.2910 F   0  0  0  0  0  0  0  0  0  0  0  0
  142.9550   80.4030  224.5820 F   0  0  0  0  0  0  0  0  0  0  0  0
  143.3440   80.4390  222.3640 F   0  0  0  0  0  0  0  0  0  0  0  0
  141.4200   78.4570  222.4490 C   0  0  0  0  0  0  0  0  0  0  0  0
  142.4178   78.1789  222.0787 H   0  0  0  0  0  0  0  0  0  0  0  0
  1  2  1  0
  2  3  2  0
  3  4  1  0
  4  5  1  0
  5  6  2  0
  5  7  1  0
  7  8  1  0
  7  9  1  0
  7 10  1  0
 10 11  1  0
 10 12  1  0
 10 13  1  0
 13 14  1  0
 13 15  1  0
 13 16  1  0
 16 17  1  0
 17 18  2  0
 18 19  1  0
 18 20  1  0
 20 21  1  0
 20 22  2  0
 22 23  1  0
 22 24  1  0
 24 25  1  0
 24 26  2  0
 26 27  1  0
  2 28  1  0
 28 29  2  0
 29 30  1  0
 29 31  1  0
 31 32  1  0
 31 33  2  0
 33 34  1  0
 33 35  1  0
 35 36  1  0
 36 37  1  0
 36 38  1  0
 36 39  1  0
 35 40  2  0
 40 41  1  0
 26 17  1  0
 40 28  1  0
M  CHG  1   4  -1
M  END
>  <UniqueID>  (38) 
18

>  <SMILES>  (38) 
O=C(CCCOc1ccc(Cl)cc1Cl)[N-]/N=C/c1cccc(C(F)(F)F)c1

>  <Energy>  (38) 
36.590309119007514

>  <Genealogy>  (38) 
O=C(CCCOc1ccc(Cl)cc1Cl)[N-]N=Cc1cccc(C(F)(F)F)c1 (protonated)
O=C(CCCOc1ccc(Cl)cc1Cl)[N-]/N=C/c1cccc(C(F)(F)F)c1 (cis-trans isomerization)
O=C(CCCOc1ccc(Cl)cc1Cl)[N-]/N=C/c1cccc(C(F)(F)F)c1 (3D coordinates assigned)
O=C(CCCOc1ccc(Cl)cc1Cl)[N-]/N=C/c1cccc(C(F)(F)F)c1 (optimized conformer: 36.590309119007514 kcal/mol)

>  <smiles>  (38) 
O=C(CCCOc1ccc(Cl)cc1Cl)NN=Cc1cccc(C(F)(F)F)c1

>  <score_type>  (38) 
oracle

>  <origin>  (38) 
autodockgpu

>  <m_score__min__energy>  (38) 
-7.0300000000000002

>  <m_primary>  (38) 
energy

>  <meeko>  (38) 
{"free_energy": -5.64, "intermolecular_energy": -8.62, "internal_energy": -1.56, "cluster_size": 2, "cluster_id": 7, "rank_in_cluster": 1}

>  <energy>  (38) 
-5.98

>  <cluster_rmsd>  (38) 
1.4

>  <rmsd>  (38) 
270.7

>  <cluster>  (38) 
6

$$$$
VHXSVHVNRGGTDL-PKHXXGQGNA-M
     RDKit          3D

 41 42  0  0  0  0  0  0  0  0999 V2000
  140.9624   71.3910  222.1299 H   0  0  0  0  0  0  0  0  0  0  0  0
  140.4320   71.8560  222.9740 C   0  0  0  0  0  0  0  0  0  0  0  0
  139.9470   73.0480  222.8410 N   0  0  0  0  0  0  0  0  0  0  0  0
  140.0860   73.7410  221.6330 N   0  0  0  0  0  0  0  0  0  0  0  0
  141.0440   74.7870  221.4850 C   0  0  0  0  0  0  0  0  0  0  0  0
  141.0940   75.7270  222.3230 O   0  0  0  0  0  0  0  0  0  0  0  0
  141.9250   74.8110  220.2730 C   0  0  0  0  0  0  0  0  0  0  0  0
  142.6966   74.0344  220.3803 H   0  0  0  0  0  0  0  0  0  0  0  0
  141.2927   74.6275  219.3918 H   0  0  0  0  0  0  0  0  0  0  0  0
  142.6160   76.1740  220.0840 C   0  0  0  0  0  0  0  0  0  0  0  0
  143.2543   76.3667  220.9589 H   0  0  0  0  0  0  0  0  0  0  0  0
  143.1978   76.1191  219.1521 H   0  0  0  0  0  0  0  0  0  0  0  0
  141.6260   77.3390  219.9360 C   0  0  0  0  0  0  0  0  0  0  0  0
  141.6944   77.7528  218.9191 H   0  0  0  0  0  0  0  0  0  0  0  0
  140.6022   76.9782  220.1139 H   0  0  0  0  0  0  0  0  0  0  0  0
  141.9480   78.3530  220.8860 O   0  0  0  0  0  0  0  0  0  0  0  0
  141.0950   78.9210  221.8480 C   0  0  0  0  0  0  0  0  0  0  0  0
  139.7510   78.5240  221.7910 C   0  0  0  0  0  0  0  0  0  0  0  0
  139.4427   77.7599  221.0623 H   0  0  0  0  0  0  0  0  0  0  0  0
  138.7990   79.0830  222.6440 C   0  0  0  0  0  0  0  0  0  0  0  0
  137.7481   78.7643  222.5799 H   0  0  0  0  0  0  0  0  0  0  0  0
  139.1800   80.0460  223.5780 C   0  0  0  0  0  0  0  0  0  0  0  0
  137.9750   80.7770  224.6220 Cl  0  0  0  0  0  0  0  0  0  0  0  0
  140.5220   80.4210  223.6840 C   0  0  0  0  0  0  0  0  0  0  0  0
  140.8216   81.1651  224.4367 H   0  0  0  0  0  0  0  0  0  0  0  0
  141.4910   79.8580  222.8400 C   0  0  0  0  0  0  0  0  0  0  0  0
  143.1610   80.3220  223.1440 Cl  0  0  0  0  0  0  0  0  0  0  0  0
  140.2860   71.1090  224.2390 C   0  0  0  0  0  0  0  0  0  0  0  0
  139.6460   69.8610  224.2270 C   0  0  0  0  0  0  0  0  0  0  0  0
  139.2934   69.4360  223.2757 H   0  0  0  0  0  0  0  0  0  0  0  0
  139.4540   69.1550  225.4170 C   0  0  0  0  0  0  0  0  0  0  0  0
  138.9542   68.1753  225.3983 H   0  0  0  0  0  0  0  0  0  0  0  0
  139.8940   69.6880  226.6300 C   0  0  0  0  0  0  0  0  0  0  0  0
  139.7362   69.1275  227.5632 H   0  0  0  0  0  0  0  0  0  0  0  0
  140.5370   70.9360  226.6650 C   0  0  0  0  0  0  0  0  0  0  0  0
  140.9830   71.4960  227.9930 C   0  0  0  0  0  0  0  0  0  0  0  0
  141.8300   72.5800  227.8360 F   0  0  0  0  0  0  0  0  0  0  0  0
  139.8770   71.9010  228.7160 F   0  0  0  0  0  0  0  0  0  0  0  0
  141.6520   70.5140  228.7040 F   0  0  0  0  0  0  0  0  0  0  0  0
  140.7330   71.6410  225.4630 C   0  0  0  0  0  0  0  0  0  0  0  0
  141.2403   72.6169  225.4802 H   0  0  0  0  0  0  0  0  0  0  0  0
  1  2  1  0
  2  3  2  0
  3  4  1  0
  4  5  1  0
  5  6  2  0
  5  7  1  0
  7  8  1  0
  7  9  1  0
  7 10  1  0
 10 11  1  0
 10 12  1  0
 10 13  1  0
 13 14  1  0
 13 15  1  0
 13 16  1  0
 16 17  1  0
 17 18  2  0
 18 19  1  0
 18 20  1  0
 20 21  1  0
 20 22  2  0
 22 23  1  0
 22 24  1  0
 24 25  1  0
 24 26  2  0
 26 27  1  0
  2 28  1  0
 28 29  2  0
 29 30  1  0
 29 31  1  0
 31 32  1  0
 31 33  2  0
 33 34  1  0
 33 35  1  0
 35 36  1  0
 36 37  1  0
 36 38  1  0
 36 39  1  0
 35 40  2  0
 40 41  1  0
 26 17  1  0
 40 28  1  0
M  CHG  1   4  -1
M  END
>  <UniqueID>  (39) 
18

>  <SMILES>  (39) 
O=C(CCCOc1ccc(Cl)cc1Cl)[N-]/N=C/c1cccc(C(F)(F)F)c1

>  <Energy>  (39) 
36.590309119007514

>  <Genealogy>  (39) 
O=C(CCCOc1ccc(Cl)cc1Cl)[N-]N=Cc1cccc(C(F)(F)F)c1 (protonated)
O=C(CCCOc1ccc(Cl)cc1Cl)[N-]/N=C/c1cccc(C(F)(F)F)c1 (cis-trans isomerization)
O=C(CCCOc1ccc(Cl)cc1Cl)[N-]/N=C/c1cccc(C(F)(F)F)c1 (3D coordinates assigned)
O=C(CCCOc1ccc(Cl)cc1Cl)[N-]/N=C/c1cccc(C(F)(F)F)c1 (optimized conformer: 36.590309119007514 kcal/mol)

>  <smiles>  (39) 
O=C(CCCOc1ccc(Cl)cc1Cl)NN=Cc1cccc(C(F)(F)F)c1

>  <score_type>  (39) 
oracle

>  <origin>  (39) 
autodockgpu

>  <m_score__min__energy>  (39) 
-7.0300000000000002

>  <m_primary>  (39) 
energy

>  <meeko>  (39) 
{"free_energy": -6.51, "intermolecular_energy": -9.49, "internal_energy": -0.83, "cluster_size": 9, "cluster_id": 1, "rank_in_cluster": 6}

>  <energy>  (39) 
-5.64

>  <cluster_rmsd>  (39) 
0.0

>  <rmsd>  (39) 
272.04

>  <cluster>  (39) 
7

$$$$
VHXSVHVNRGGTDL-PKHXXGQGNA-M
     RDKit          3D

 41 42  0  0  0  0  0  0  0  0999 V2000
  141.9967   76.5127  221.7714 H   0  0  0  0  0  0  0  0  0  0  0  0
  141.0510   76.8270  222.2370 C   0  0  0  0  0  0  0  0  0  0  0  0
  140.0810   75.9770  222.3420 N   0  0  0  0  0  0  0  0  0  0  0  0
  140.3130   74.6090  222.1630 N   0  0  0  0  0  0  0  0  0  0  0  0
  140.2200   74.0030  220.8740 C   0  0  0  0  0  0  0  0  0  0  0  0
  139.6230   74.5960  219.9360 O   0  0  0  0  0  0  0  0  0  0  0  0
  140.7520   72.6170  220.6730 C   0  0  0  0  0  0  0  0  0  0  0  0
  140.0080   72.0292  220.1154 H   0  0  0  0  0  0  0  0  0  0  0  0
  141.6980   72.6953  220.1171 H   0  0  0  0  0  0  0  0  0  0  0  0
  141.0450   71.9080  222.0080 C   0  0  0  0  0  0  0  0  0  0  0  0
  141.6594   71.0187  221.8039 H   0  0  0  0  0  0  0  0  0  0  0  0
  141.5649   72.6306  222.6542 H   0  0  0  0  0  0  0  0  0  0  0  0
  139.7750   71.4640  222.7500 C   0  0  0  0  0  0  0  0  0  0  0  0
  138.9029   71.9886  222.3325 H   0  0  0  0  0  0  0  0  0  0  0  0
  139.6386   70.3790  222.6311 H   0  0  0  0  0  0  0  0  0  0  0  0
  139.9040   71.7810  224.1350 O   0  0  0  0  0  0  0  0  0  0  0  0
  140.0680   70.8830  225.2030 C   0  0  0  0  0  0  0  0  0  0  0  0
  140.7830   71.3650  226.3100 C   0  0  0  0  0  0  0  0  0  0  0  0
  141.1190   72.4123  226.3237 H   0  0  0  0  0  0  0  0  0  0  0  0
  141.0740   70.5360  227.3930 C   0  0  0  0  0  0  0  0  0  0  0  0
  141.6404   70.9299  228.2498 H   0  0  0  0  0  0  0  0  0  0  0  0
  140.6480   69.2090  227.3910 C   0  0  0  0  0  0  0  0  0  0  0  0
  141.0510   68.1580  228.7360 Cl  0  0  0  0  0  0  0  0  0  0  0  0
  139.8930   68.7220  226.3200 C   0  0  0  0  0  0  0  0  0  0  0  0
  139.5386   67.6807  226.3328 H   0  0  0  0  0  0  0  0  0  0  0  0
  139.5830   69.5470  225.2300 C   0  0  0  0  0  0  0  0  0  0  0  0
  138.5330   68.8580  223.9980 Cl  0  0  0  0  0  0  0  0  0  0  0  0
  140.9110   78.2110  222.7310 C   0  0  0  0  0  0  0  0  0  0  0  0
  142.0640   78.9660  222.9900 C   0  0  0  0  0  0  0  0  0  0  0  0
  143.0563   78.5356  222.7898 H   0  0  0  0  0  0  0  0  0  0  0  0
  141.9590   80.2620  223.5010 C   0  0  0  0  0  0  0  0  0  0  0  0
  142.8683   80.8487  223.6984 H   0  0  0  0  0  0  0  0  0  0  0  0
  140.7040   80.8150  223.7620 C   0  0  0  0  0  0  0  0  0  0  0  0
  140.6296   81.8351  224.1667 H   0  0  0  0  0  0  0  0  0  0  0  0
  139.5360   80.0770  223.5110 C   0  0  0  0  0  0  0  0  0  0  0  0
  138.1950   80.6940  223.8220 C   0  0  0  0  0  0  0  0  0  0  0  0
  138.0580   81.9440  223.2410 F   0  0  0  0  0  0  0  0  0  0  0  0
  137.1900   79.8730  223.3450 F   0  0  0  0  0  0  0  0  0  0  0  0
  138.0580   80.8280  225.1920 F   0  0  0  0  0  0  0  0  0  0  0  0
  139.6470   78.7740  222.9900 C   0  0  0  0  0  0  0  0  0  0  0  0
  138.7378   78.1904  222.7834 H   0  0  0  0  0  0  0  0  0  0  0  0
  1  2  1  0
  2  3  2  0
  3  4  1  0
  4  5  1  0
  5  6  2  0
  5  7  1  0
  7  8  1  0
  7  9  1  0
  7 10  1  0
 10 11  1  0
 10 12  1  0
 10 13  1  0
 13 14  1  0
 13 15  1  0
 13 16  1  0
 16 17  1  0
 17 18  2  0
 18 19  1  0
 18 20  1  0
 20 21  1  0
 20 22  2  0
 22 23  1  0
 22 24  1  0
 24 25  1  0
 24 26  2  0
 26 27  1  0
  2 28  1  0
 28 29  2  0
 29 30  1  0
 29 31  1  0
 31 32  1  0
 31 33  2  0
 33 34  1  0
 33 35  1  0
 35 36  1  0
 36 37  1  0
 36 38  1  0
 36 39  1  0
 35 40  2  0
 40 41  1  0
 26 17  1  0
 40 28  1  0
M  CHG  1   4  -1
M  END
>  <UniqueID>  (40) 
18

>  <SMILES>  (40) 
O=C(CCCOc1ccc(Cl)cc1Cl)[N-]/N=C/c1cccc(C(F)(F)F)c1

>  <Energy>  (40) 
36.590309119007514

>  <Genealogy>  (40) 
O=C(CCCOc1ccc(Cl)cc1Cl)[N-]N=Cc1cccc(C(F)(F)F)c1 (protonated)
O=C(CCCOc1ccc(Cl)cc1Cl)[N-]/N=C/c1cccc(C(F)(F)F)c1 (cis-trans isomerization)
O=C(CCCOc1ccc(Cl)cc1Cl)[N-]/N=C/c1cccc(C(F)(F)F)c1 (3D coordinates assigned)
O=C(CCCOc1ccc(Cl)cc1Cl)[N-]/N=C/c1cccc(C(F)(F)F)c1 (optimized conformer: 36.590309119007514 kcal/mol)

>  <smiles>  (40) 
O=C(CCCOc1ccc(Cl)cc1Cl)NN=Cc1cccc(C(F)(F)F)c1

>  <score_type>  (40) 
oracle

>  <origin>  (40) 
autodockgpu

>  <m_score__min__energy>  (40) 
-7.0300000000000002

>  <m_primary>  (40) 
energy

>  <meeko>  (40) 
{"free_energy": -6.62, "intermolecular_energy": -9.6, "internal_energy": -0.47, "cluster_size": 1, "cluster_id": 3, "rank_in_cluster": 1}

>  <energy>  (40) 
-5.62

>  <cluster_rmsd>  (40) 
0.58

>  <rmsd>  (40) 
271.96

>  <cluster>  (40) 
7

$$$$
JBHRSOAXAGIKHA-MUXIEFDRNA-N
     RDKit          3D

 41 42  0  0  0  0  0  0  0  0999 V2000
  138.8840   75.0890  223.4020 H   0  0  0  0  0  0  0  0  0  0  0  0
  139.3250   75.6480  222.6820 O   0  0  0  0  0  0  0  0  0  0  0  0
  140.5880   75.8770  220.6570 C   0  0  0  0  0  0  0  0  0  0  0  0
  140.4710   73.7320  221.7540 N   0  0  0  0  0  0  0  0  0  0  0  0
  139.9880   72.8920  222.7700 N   0  0  0  0  0  0  0  0  0  0  0  0
  140.1230   75.1180  221.6670 C   0  0  0  0  0  0  0  0  0  0  0  0
  140.0339   75.8626  219.7069 H   0  0  0  0  0  0  0  0  0  0  0  0
  140.3180   70.9490  224.2230 C   0  0  0  0  0  0  0  0  0  0  0  0
  139.8100   69.6420  224.2400 C   0  0  0  0  0  0  0  0  0  0  0  0
  139.4758   69.1730  223.3028 H   0  0  0  0  0  0  0  0  0  0  0  0
  139.7260   68.9330  225.4390 C   0  0  0  0  0  0  0  0  0  0  0  0
  139.3450   67.9011  225.4399 H   0  0  0  0  0  0  0  0  0  0  0  0
  140.1240   69.5290  226.6380 C   0  0  0  0  0  0  0  0  0  0  0  0
  140.0788   68.9560  227.5759 H   0  0  0  0  0  0  0  0  0  0  0  0
  140.5820   70.8580  226.6510 C   0  0  0  0  0  0  0  0  0  0  0  0
  141.0390   71.4970  227.9390 C   0  0  0  0  0  0  0  0  0  0  0  0
  141.8560   72.5740  227.6470 F   0  0  0  0  0  0  0  0  0  0  0  0
  139.9520   71.9430  228.6720 F   0  0  0  0  0  0  0  0  0  0  0  0
  141.7430   70.5940  228.7160 F   0  0  0  0  0  0  0  0  0  0  0  0
  140.6890   71.5570  225.4350 C   0  0  0  0  0  0  0  0  0  0  0  0
  141.0669   72.5901  225.4324 H   0  0  0  0  0  0  0  0  0  0  0  0
  140.3950   71.6690  222.9330 C   0  0  0  0  0  0  0  0  0  0  0  0
  140.8192   71.1411  222.0662 H   0  0  0  0  0  0  0  0  0  0  0  0
  141.8140   76.7430  220.7410 C   0  0  0  0  0  0  0  0  0  0  0  0
  141.5119   77.7959  220.6408 H   0  0  0  0  0  0  0  0  0  0  0  0
  142.2945   76.5560  221.7127 H   0  0  0  0  0  0  0  0  0  0  0  0
  142.8320   76.4130  219.6390 C   0  0  0  0  0  0  0  0  0  0  0  0
  142.2942   76.0597  218.7469 H   0  0  0  0  0  0  0  0  0  0  0  0
  143.4057   77.3229  219.4088 H   0  0  0  0  0  0  0  0  0  0  0  0
  143.7440   75.3960  220.0690 O   0  0  0  0  0  0  0  0  0  0  0  0
  143.5480   74.0100  219.9260 C   0  0  0  0  0  0  0  0  0  0  0  0
  142.3890   73.4710  219.3330 C   0  0  0  0  0  0  0  0  0  0  0  0
  141.5816   74.1408  219.0021 H   0  0  0  0  0  0  0  0  0  0  0  0
  142.2600   72.0890  219.1630 C   0  0  0  0  0  0  0  0  0  0  0  0
  141.3596   71.6766  218.6841 H   0  0  0  0  0  0  0  0  0  0  0  0
  143.2720   71.2310  219.6000 C   0  0  0  0  0  0  0  0  0  0  0  0
  143.1120   69.4990  219.3710 Cl  0  0  0  0  0  0  0  0  0  0  0  0
  144.4080   71.7540  220.2230 C   0  0  0  0  0  0  0  0  0  0  0  0
  145.1976   71.0773  220.5816 H   0  0  0  0  0  0  0  0  0  0  0  0
  144.5440   73.1370  220.3920 C   0  0  0  0  0  0  0  0  0  0  0  0
  145.9960   73.7700  221.1530 Cl  0  0  0  0  0  0  0  0  0  0  0  0
  1  2  1  0
  2  3  1  0
  3  4  1  0
  4  5  1  0
  5  6  2  0
  6  7  1  0
  6  8  1  0
  8  9  2  0
  9 10  1  0
  9 11  1  0
 11 12  1  0
 11 13  2  0
 13 14  1  0
 13 15  1  0
 15 16  1  0
 16 17  1  0
 16 18  1  0
 16 19  1  0
 15 20  2  0
 20 21  1  0
  3 22  2  0
 22 23  1  0
 22 24  1  0
 24 25  1  0
 24 26  1  0
 24 27  1  0
 27 28  1  0
 27 29  1  0
 27 30  1  0
 30 31  1  0
 31 32  2  0
 32 33  1  0
 32 34  1  0
 34 35  1  0
 34 36  2  0
 36 37  1  0
 36 38  1  0
 38 39  1  0
 38 40  2  0
 40 41  1  0
 20  8  1  0
 40 31  1  0
M  CHG  1   4  -1
M  END
>  <UniqueID>  (41) 
19

>  <SMILES>  (41) 
O/C(=C\CCOc1ccc(Cl)cc1Cl)[N-]/N=C\c1cccc(C(F)(F)F)c1

>  <Energy>  (41) 
44.14522116514075

>  <Genealogy>  (41) 
O=C(CCCOc1ccc(Cl)cc1Cl)[N-]N=Cc1cccc(C(F)(F)F)c1 (protonated)
OC(=CCCOc1ccc(Cl)cc1Cl)[N-]N=Cc1cccc(C(F)(F)F)c1 (tautomer)
O/C(=C\CCOc1ccc(Cl)cc1Cl)[N-]/N=C\c1cccc(C(F)(F)F)c1 (cis-trans isomerization)
O/C(=C\CCOc1ccc(Cl)cc1Cl)[N-]/N=C\c1cccc(C(F)(F)F)c1 (3D coordinates assigned)
O/C(=C\CCOc1ccc(Cl)cc1Cl)[N-]/N=C\c1cccc(C(F)(F)F)c1 (optimized conformer: 44.14522116514075 kcal/mol)

>  <smiles>  (41) 
O=C(CCCOc1ccc(Cl)cc1Cl)NN=Cc1cccc(C(F)(F)F)c1

>  <score_type>  (41) 
oracle

>  <origin>  (41) 
autodockgpu

>  <m_score__min__energy>  (41) 
-7.1500000000000004

>  <m_primary>  (41) 
energy

>  <meeko>  (41) 
{"free_energy": -6.14, "intermolecular_energy": -9.42, "internal_energy": -1.36, "cluster_size": 4, "cluster_id": 5, "rank_in_cluster": 2}

>  <energy>  (41) 
-7.15

>  <cluster_rmsd>  (41) 
0.0

>  <rmsd>  (41) 
272.9

>  <cluster>  (41) 
1

$$$$
JBHRSOAXAGIKHA-MUXIEFDRNA-N
     RDKit          3D

 41 42  0  0  0  0  0  0  0  0999 V2000
  142.3580   75.6390  221.8710 H   0  0  0  0  0  0  0  0  0  0  0  0
  141.5390   75.4550  221.3060 O   0  0  0  0  0  0  0  0  0  0  0  0
  139.4210   76.0490  222.2590 C   0  0  0  0  0  0  0  0  0  0  0  0
  139.9470   73.7260  221.8750 N   0  0  0  0  0  0  0  0  0  0  0  0
  140.3500   72.8760  222.9160 N   0  0  0  0  0  0  0  0  0  0  0  0
  140.2920   75.1150  221.8340 C   0  0  0  0  0  0  0  0  0  0  0  0
  138.4098   75.7185  222.5387 H   0  0  0  0  0  0  0  0  0  0  0  0
  139.9560   70.9320  224.3530 C   0  0  0  0  0  0  0  0  0  0  0  0
  139.5330   69.5960  224.3850 C   0  0  0  0  0  0  0  0  0  0  0  0
  139.1483   69.1224  223.4698 H   0  0  0  0  0  0  0  0  0  0  0  0
  139.5970   68.8630  225.5710 C   0  0  0  0  0  0  0  0  0  0  0  0
  139.2833   67.8087  225.5817 H   0  0  0  0  0  0  0  0  0  0  0  0
  140.0580   69.4640  226.7440 C   0  0  0  0  0  0  0  0  0  0  0  0
  140.1281   68.8746  227.6701 H   0  0  0  0  0  0  0  0  0  0  0  0
  140.4330   70.8190  226.7470 C   0  0  0  0  0  0  0  0  0  0  0  0
  140.9580   71.4660  228.0050 C   0  0  0  0  0  0  0  0  0  0  0  0
  141.6840   70.5350  228.7260 F   0  0  0  0  0  0  0  0  0  0  0  0
  141.7800   72.5360  227.6940 F   0  0  0  0  0  0  0  0  0  0  0  0
  139.9180   71.9340  228.7900 F   0  0  0  0  0  0  0  0  0  0  0  0
  140.3920   71.5430  225.5420 C   0  0  0  0  0  0  0  0  0  0  0  0
  140.7041   72.5977  225.5295 H   0  0  0  0  0  0  0  0  0  0  0  0
  139.8780   71.6760  223.0770 C   0  0  0  0  0  0  0  0  0  0  0  0
  139.3945   71.1873  222.2183 H   0  0  0  0  0  0  0  0  0  0  0  0
  139.7380   77.5140  222.3770 C   0  0  0  0  0  0  0  0  0  0  0  0
  139.7764   77.9511  221.3683 H   0  0  0  0  0  0  0  0  0  0  0  0
  138.9507   77.9833  222.9853 H   0  0  0  0  0  0  0  0  0  0  0  0
  141.0850   77.7590  223.0750 C   0  0  0  0  0  0  0  0  0  0  0  0
  141.2304   76.9958  223.8537 H   0  0  0  0  0  0  0  0  0  0  0  0
  141.8849   77.6999  222.3223 H   0  0  0  0  0  0  0  0  0  0  0  0
  141.1230   79.0570  223.6790 O   0  0  0  0  0  0  0  0  0  0  0  0
  140.9650   80.2780  223.0000 C   0  0  0  0  0  0  0  0  0  0  0  0
  142.0150   80.8770  222.2740 C   0  0  0  0  0  0  0  0  0  0  0  0
  143.0094   80.4068  222.2616 H   0  0  0  0  0  0  0  0  0  0  0  0
  141.7990   82.0650  221.5700 C   0  0  0  0  0  0  0  0  0  0  0  0
  142.6184   82.5172  220.9920 H   0  0  0  0  0  0  0  0  0  0  0  0
  140.5450   82.6790  221.5990 C   0  0  0  0  0  0  0  0  0  0  0  0
  140.2740   84.1620  220.7010 Cl  0  0  0  0  0  0  0  0  0  0  0  0
  139.5080   82.1140  222.3460 C   0  0  0  0  0  0  0  0  0  0  0  0
  138.5251   82.6067  222.3814 H   0  0  0  0  0  0  0  0  0  0  0  0
  139.7180   80.9210  223.0500 C   0  0  0  0  0  0  0  0  0  0  0  0
  138.3890   80.2160  223.9590 Cl  0  0  0  0  0  0  0  0  0  0  0  0
  1  2  1  0
  2  3  1  0
  3  4  1  0
  4  5  1  0
  5  6  2  0
  6  7  1  0
  6  8  1  0
  8  9  2  0
  9 10  1  0
  9 11  1  0
 11 12  1  0
 11 13  2  0
 13 14  1  0
 13 15  1  0
 15 16  1  0
 16 17  1  0
 16 18  1  0
 16 19  1  0
 15 20  2  0
 20 21  1  0
  3 22  2  0
 22 23  1  0
 22 24  1  0
 24 25  1  0
 24 26  1  0
 24 27  1  0
 27 28  1  0
 27 29  1  0
 27 30  1  0
 30 31  1  0
 31 32  2  0
 32 33  1  0
 32 34  1  0
 34 35  1  0
 34 36  2  0
 36 37  1  0
 36 38  1  0
 38 39  1  0
 38 40  2  0
 40 41  1  0
 20  8  1  0
 40 31  1  0
M  CHG  1   4  -1
M  END
>  <UniqueID>  (42) 
19

>  <SMILES>  (42) 
O/C(=C\CCOc1ccc(Cl)cc1Cl)[N-]/N=C\c1cccc(C(F)(F)F)c1

>  <Energy>  (42) 
44.14522116514075

>  <Genealogy>  (42) 
O=C(CCCOc1ccc(Cl)cc1Cl)[N-]N=Cc1cccc(C(F)(F)F)c1 (protonated)
OC(=CCCOc1ccc(Cl)cc1Cl)[N-]N=Cc1cccc(C(F)(F)F)c1 (tautomer)
O/C(=C\CCOc1ccc(Cl)cc1Cl)[N-]/N=C\c1cccc(C(F)(F)F)c1 (cis-trans isomerization)
O/C(=C\CCOc1ccc(Cl)cc1Cl)[N-]/N=C\c1cccc(C(F)(F)F)c1 (3D coordinates assigned)
O/C(=C\CCOc1ccc(Cl)cc1Cl)[N-]/N=C\c1cccc(C(F)(F)F)c1 (optimized conformer: 44.14522116514075 kcal/mol)

>  <smiles>  (42) 
O=C(CCCOc1ccc(Cl)cc1Cl)NN=Cc1cccc(C(F)(F)F)c1

>  <score_type>  (42) 
oracle

>  <origin>  (42) 
autodockgpu

>  <m_score__min__energy>  (42) 
-7.1500000000000004

>  <m_primary>  (42) 
energy

>  <meeko>  (42) 
{"free_energy": -6.51, "intermolecular_energy": -9.79, "internal_energy": -0.61, "cluster_size": 1, "cluster_id": 3, "rank_in_cluster": 1}

>  <energy>  (42) 
-7.13

>  <cluster_rmsd>  (42) 
0.52

>  <rmsd>  (42) 
272.81

>  <cluster>  (42) 
1

$$$$
JBHRSOAXAGIKHA-MUXIEFDRNA-N
     RDKit          3D

 41 42  0  0  0  0  0  0  0  0999 V2000
  138.7550   75.1930  223.1530 H   0  0  0  0  0  0  0  0  0  0  0  0
  139.3420   75.7710  222.5650 O   0  0  0  0  0  0  0  0  0  0  0  0
  141.1710   76.0840  221.0460 C   0  0  0  0  0  0  0  0  0  0  0  0
  140.7720   73.9040  222.0000 N   0  0  0  0  0  0  0  0  0  0  0  0
  139.9970   73.0170  222.7630 N   0  0  0  0  0  0  0  0  0  0  0  0
  140.4330   75.2860  221.8400 C   0  0  0  0  0  0  0  0  0  0  0  0
  142.2439   75.8616  220.9491 H   0  0  0  0  0  0  0  0  0  0  0  0
  140.2080   71.0450  224.2000 C   0  0  0  0  0  0  0  0  0  0  0  0
  139.6460   69.7610  224.2290 C   0  0  0  0  0  0  0  0  0  0  0  0
  139.2752   69.3054  223.2989 H   0  0  0  0  0  0  0  0  0  0  0  0
  139.5540   69.0570  225.4310 C   0  0  0  0  0  0  0  0  0  0  0  0
  139.1313   68.0415  225.4407 H   0  0  0  0  0  0  0  0  0  0  0  0
  139.9970   69.6380  226.6210 C   0  0  0  0  0  0  0  0  0  0  0  0
  139.9436   69.0689  227.5608 H   0  0  0  0  0  0  0  0  0  0  0  0
  140.5110   70.9470  226.6240 C   0  0  0  0  0  0  0  0  0  0  0  0
  141.0160   71.5680  227.9020 C   0  0  0  0  0  0  0  0  0  0  0  0
  141.8450   72.6310  227.5940 F   0  0  0  0  0  0  0  0  0  0  0  0
  139.9590   72.0280  228.6690 F   0  0  0  0  0  0  0  0  0  0  0  0
  141.7260   70.6460  228.6520 F   0  0  0  0  0  0  0  0  0  0  0  0
  140.6260   71.6390  225.4050 C   0  0  0  0  0  0  0  0  0  0  0  0
  141.0471   72.6551  225.3936 H   0  0  0  0  0  0  0  0  0  0  0  0
  140.2930   71.7600  222.9080 C   0  0  0  0  0  0  0  0  0  0  0  0
  140.6245   71.1977  222.0226 H   0  0  0  0  0  0  0  0  0  0  0  0
  140.6260   77.2590  220.2830 C   0  0  0  0  0  0  0  0  0  0  0  0
  140.0874   76.8884  219.3984 H   0  0  0  0  0  0  0  0  0  0  0  0
  139.9561   77.8169  220.9537 H   0  0  0  0  0  0  0  0  0  0  0  0
  141.7370   78.2150  219.8220 C   0  0  0  0  0  0  0  0  0  0  0  0
  142.6976   77.6792  219.8284 H   0  0  0  0  0  0  0  0  0  0  0  0
  141.4971   78.5663  218.8076 H   0  0  0  0  0  0  0  0  0  0  0  0
  141.8300   79.3520  220.6870 O   0  0  0  0  0  0  0  0  0  0  0  0
  140.8460   79.7620  221.6050 C   0  0  0  0  0  0  0  0  0  0  0  0
  139.4750   79.7860  221.2780 C   0  0  0  0  0  0  0  0  0  0  0  0
  139.1499   79.5172  220.2621 H   0  0  0  0  0  0  0  0  0  0  0  0
  138.5260   80.1500  222.2390 C   0  0  0  0  0  0  0  0  0  0  0  0
  137.4564   80.1495  221.9821 H   0  0  0  0  0  0  0  0  0  0  0  0
  138.9340   80.5140  223.5240 C   0  0  0  0  0  0  0  0  0  0  0  0
  137.7380   80.9550  224.7300 Cl  0  0  0  0  0  0  0  0  0  0  0  0
  140.2930   80.5290  223.8460 C   0  0  0  0  0  0  0  0  0  0  0  0
  140.6144   80.8302  224.8540 H   0  0  0  0  0  0  0  0  0  0  0  0
  141.2470   80.1620  222.8900 C   0  0  0  0  0  0  0  0  0  0  0  0
  142.9490   80.1630  223.3300 Cl  0  0  0  0  0  0  0  0  0  0  0  0
  1  2  1  0
  2  3  1  0
  3  4  1  0
  4  5  1  0
  5  6  2  0
  6  7  1  0
  6  8  1  0
  8  9  2  0
  9 10  1  0
  9 11  1  0
 11 12  1  0
 11 13  2  0
 13 14  1  0
 13 15  1  0
 15 16  1  0
 16 17  1  0
 16 18  1  0
 16 19  1  0
 15 20  2  0
 20 21  1  0
  3 22  2  0
 22 23  1  0
 22 24  1  0
 24 25  1  0
 24 26  1  0
 24 27  1  0
 27 28  1  0
 27 29  1  0
 27 30  1  0
 30 31  1  0
 31 32  2  0
 32 33  1  0
 32 34  1  0
 34 35  1  0
 34 36  2  0
 36 37  1  0
 36 38  1  0
 38 39  1  0
 38 40  2  0
 40 41  1  0
 20  8  1  0
 40 31  1  0
M  CHG  1   4  -1
M  END
>  <UniqueID>  (43) 
19

>  <SMILES>  (43) 
O/C(=C\CCOc1ccc(Cl)cc1Cl)[N-]/N=C\c1cccc(C(F)(F)F)c1

>  <Energy>  (43) 
44.14522116514075

>  <Genealogy>  (43) 
O=C(CCCOc1ccc(Cl)cc1Cl)[N-]N=Cc1cccc(C(F)(F)F)c1 (protonated)
OC(=CCCOc1ccc(Cl)cc1Cl)[N-]N=Cc1cccc(C(F)(F)F)c1 (tautomer)
O/C(=C\CCOc1ccc(Cl)cc1Cl)[N-]/N=C\c1cccc(C(F)(F)F)c1 (cis-trans isomerization)
O/C(=C\CCOc1ccc(Cl)cc1Cl)[N-]/N=C\c1cccc(C(F)(F)F)c1 (3D coordinates assigned)
O/C(=C\CCOc1ccc(Cl)cc1Cl)[N-]/N=C\c1cccc(C(F)(F)F)c1 (optimized conformer: 44.14522116514075 kcal/mol)

>  <smiles>  (43) 
O=C(CCCOc1ccc(Cl)cc1Cl)NN=Cc1cccc(C(F)(F)F)c1

>  <score_type>  (43) 
oracle

>  <origin>  (43) 
autodockgpu

>  <m_score__min__energy>  (43) 
-7.1500000000000004

>  <m_primary>  (43) 
energy

>  <meeko>  (43) 
{"free_energy": -6.8, "intermolecular_energy": -10.09, "internal_energy": -0.82, "cluster_size": 9, "cluster_id": 1, "rank_in_cluster": 4}

>  <energy>  (43) 
-6.82

>  <cluster_rmsd>  (43) 
0.8

>  <rmsd>  (43) 
272.73

>  <cluster>  (43) 
1

$$$$
JBHRSOAXAGIKHA-MUXIEFDRNA-N
     RDKit          3D

 41 42  0  0  0  0  0  0  0  0999 V2000
  138.7400   75.1290  223.3540 H   0  0  0  0  0  0  0  0  0  0  0  0
  139.1810   75.6910  222.6370 O   0  0  0  0  0  0  0  0  0  0  0  0
  140.1170   75.1930  221.7280 C   0  0  0  0  0  0  0  0  0  0  0  0
  140.5560   73.8420  221.9020 N   0  0  0  0  0  0  0  0  0  0  0  0
  140.0000   72.9820  222.8620 N   0  0  0  0  0  0  0  0  0  0  0  0
  140.3440   71.7360  222.9830 C   0  0  0  0  0  0  0  0  0  0  0  0
  140.6992   71.2049  222.0876 H   0  0  0  0  0  0  0  0  0  0  0  0
  140.2840   70.9920  224.2600 C   0  0  0  0  0  0  0  0  0  0  0  0
  139.7850   69.6820  224.2590 C   0  0  0  0  0  0  0  0  0  0  0  0
  139.4442   69.2275  223.3170 H   0  0  0  0  0  0  0  0  0  0  0  0
  139.7180   68.9510  225.4460 C   0  0  0  0  0  0  0  0  0  0  0  0
  139.3457   67.9160  225.4321 H   0  0  0  0  0  0  0  0  0  0  0  0
  140.1220   69.5290  226.6510 C   0  0  0  0  0  0  0  0  0  0  0  0
  140.0888   68.9394  227.5791 H   0  0  0  0  0  0  0  0  0  0  0  0
  140.5710   70.8610  226.6840 C   0  0  0  0  0  0  0  0  0  0  0  0
  141.0350   71.4820  227.9780 C   0  0  0  0  0  0  0  0  0  0  0  0
  141.8210   72.5840  227.6980 F   0  0  0  0  0  0  0  0  0  0  0  0
  139.9510   71.8830  228.7400 F   0  0  0  0  0  0  0  0  0  0  0  0
  141.7750   70.5780  228.7220 F   0  0  0  0  0  0  0  0  0  0  0  0
  140.6620   71.5820  225.4800 C   0  0  0  0  0  0  0  0  0  0  0  0
  141.0325   72.6177  225.4922 H   0  0  0  0  0  0  0  0  0  0  0  0
  140.6240   75.9560  220.7410 C   0  0  0  0  0  0  0  0  0  0  0  0
  139.9167   76.4998  220.0976 H   0  0  0  0  0  0  0  0  0  0  0  0
  142.0920   76.1140  220.4600 C   0  0  0  0  0  0  0  0  0  0  0  0
  142.2425   77.0250  219.8621 H   0  0  0  0  0  0  0  0  0  0  0  0
  142.6163   76.1783  221.4249 H   0  0  0  0  0  0  0  0  0  0  0  0
  142.6660   74.9150  219.6890 C   0  0  0  0  0  0  0  0  0  0  0  0
  141.8816   74.4951  219.0422 H   0  0  0  0  0  0  0  0  0  0  0  0
  143.5187   75.2628  219.0873 H   0  0  0  0  0  0  0  0  0  0  0  0
  143.1270   73.8980  220.5850 O   0  0  0  0  0  0  0  0  0  0  0  0
  143.6190   72.6370  220.2050 C   0  0  0  0  0  0  0  0  0  0  0  0
  142.7660   71.5540  219.9100 C   0  0  0  0  0  0  0  0  0  0  0  0
  141.6773   71.6709  220.0155 H   0  0  0  0  0  0  0  0  0  0  0  0
  143.2960   70.3320  219.4840 C   0  0  0  0  0  0  0  0  0  0  0  0
  142.6230   69.4971  219.2391 H   0  0  0  0  0  0  0  0  0  0  0  0
  144.6780   70.1700  219.3690 C   0  0  0  0  0  0  0  0  0  0  0  0
  145.3380   68.6400  218.8200 Cl  0  0  0  0  0  0  0  0  0  0  0  0
  145.5340   71.2250  219.6950 C   0  0  0  0  0  0  0  0  0  0  0  0
  146.6232   71.0913  219.6195 H   0  0  0  0  0  0  0  0  0  0  0  0
  145.0080   72.4530  220.1180 C   0  0  0  0  0  0  0  0  0  0  0  0
  146.1060   73.7720  220.4950 Cl  0  0  0  0  0  0  0  0  0  0  0  0
  1  2  1  0
  2  3  1  0
  3  4  1  0
  4  5  1  0
  5  6  2  0
  6  7  1  0
  6  8  1  0
  8  9  2  0
  9 10  1  0
  9 11  1  0
 11 12  1  0
 11 13  2  0
 13 14  1  0
 13 15  1  0
 15 16  1  0
 16 17  1  0
 16 18  1  0
 16 19  1  0
 15 20  2  0
 20 21  1  0
  3 22  2  0
 22 23  1  0
 22 24  1  0
 24 25  1  0
 24 26  1  0
 24 27  1  0
 27 28  1  0
 27 29  1  0
 27 30  1  0
 30 31  1  0
 31 32  2  0
 32 33  1  0
 32 34  1  0
 34 35  1  0
 34 36  2  0
 36 37  1  0
 36 38  1  0
 38 39  1  0
 38 40  2  0
 40 41  1  0
 20  8  1  0
 40 31  1  0
M  CHG  1   4  -1
M  END
>  <UniqueID>  (44) 
19

>  <SMILES>  (44) 
O/C(=C\CCOc1ccc(Cl)cc1Cl)[N-]/N=C\c1cccc(C(F)(F)F)c1

>  <Energy>  (44) 
44.14522116514075

>  <Genealogy>  (44) 
O=C(CCCOc1ccc(Cl)cc1Cl)[N-]N=Cc1cccc(C(F)(F)F)c1 (protonated)
OC(=CCCOc1ccc(Cl)cc1Cl)[N-]N=Cc1cccc(C(F)(F)F)c1 (tautomer)
O/C(=C\CCOc1ccc(Cl)cc1Cl)[N-]/N=C\c1cccc(C(F)(F)F)c1 (cis-trans isomerization)
O/C(=C\CCOc1ccc(Cl)cc1Cl)[N-]/N=C\c1cccc(C(F)(F)F)c1 (3D coordinates assigned)
O/C(=C\CCOc1ccc(Cl)cc1Cl)[N-]/N=C\c1cccc(C(F)(F)F)c1 (optimized conformer: 44.14522116514075 kcal/mol)

>  <smiles>  (44) 
O=C(CCCOc1ccc(Cl)cc1Cl)NN=Cc1cccc(C(F)(F)F)c1

>  <score_type>  (44) 
oracle

>  <origin>  (44) 
autodockgpu

>  <m_score__min__energy>  (44) 
-7.1500000000000004

>  <m_primary>  (44) 
energy

>  <meeko>  (44) 
{"free_energy": -6.39, "intermolecular_energy": -9.67, "internal_energy": -0.98, "cluster_size": 4, "cluster_id": 5, "rank_in_cluster": 1}

>  <energy>  (44) 
-6.8

>  <cluster_rmsd>  (44) 
1.86

>  <rmsd>  (44) 
272.87

>  <cluster>  (44) 
1

$$$$
JBHRSOAXAGIKHA-MUXIEFDRNA-N
     RDKit          3D

 41 42  0  0  0  0  0  0  0  0999 V2000
  138.0010   73.9790  223.0740 H   0  0  0  0  0  0  0  0  0  0  0  0
  138.1970   74.6320  222.3260 O   0  0  0  0  0  0  0  0  0  0  0  0
  139.4750   74.8700  221.8180 C   0  0  0  0  0  0  0  0  0  0  0  0
  140.4030   73.7800  221.8220 N   0  0  0  0  0  0  0  0  0  0  0  0
  140.6000   72.9570  222.9410 N   0  0  0  0  0  0  0  0  0  0  0  0
  140.1130   71.7560  223.0350 C   0  0  0  0  0  0  0  0  0  0  0  0
  139.7294   71.2767  222.1222 H   0  0  0  0  0  0  0  0  0  0  0  0
  140.0470   70.9990  224.3040 C   0  0  0  0  0  0  0  0  0  0  0  0
  139.4780   69.7170  224.2990 C   0  0  0  0  0  0  0  0  0  0  0  0
  139.0881   69.2951  223.3609 H   0  0  0  0  0  0  0  0  0  0  0  0
  139.4040   68.9740  225.4780 C   0  0  0  0  0  0  0  0  0  0  0  0
  138.9752   67.9612  225.4613 H   0  0  0  0  0  0  0  0  0  0  0  0
  139.8720   69.5110  226.6780 C   0  0  0  0  0  0  0  0  0  0  0  0
  139.8323   68.9104  227.5987 H   0  0  0  0  0  0  0  0  0  0  0  0
  140.3940   70.8160  226.7160 C   0  0  0  0  0  0  0  0  0  0  0  0
  140.9270   71.3910  228.0050 C   0  0  0  0  0  0  0  0  0  0  0  0
  141.5620   70.3920  228.7200 F   0  0  0  0  0  0  0  0  0  0  0  0
  141.8320   72.4060  227.7470 F   0  0  0  0  0  0  0  0  0  0  0  0
  139.9000   71.9120  228.7740 F   0  0  0  0  0  0  0  0  0  0  0  0
  140.4910   71.5490  225.5200 C   0  0  0  0  0  0  0  0  0  0  0  0
  140.9183   72.5625  225.5355 H   0  0  0  0  0  0  0  0  0  0  0  0
  139.8490   76.0840  221.3710 C   0  0  0  0  0  0  0  0  0  0  0  0
  139.2147   76.5709  220.6156 H   0  0  0  0  0  0  0  0  0  0  0  0
  141.0760   76.8180  221.8360 C   0  0  0  0  0  0  0  0  0  0  0  0
  140.7925   77.5047  222.6472 H   0  0  0  0  0  0  0  0  0  0  0  0
  141.8065   76.0719  222.1820 H   0  0  0  0  0  0  0  0  0  0  0  0
  141.7270   77.6290  220.7050 C   0  0  0  0  0  0  0  0  0  0  0  0
  142.8210   77.5623  220.7986 H   0  0  0  0  0  0  0  0  0  0  0  0
  141.3959   77.2140  219.7416 H   0  0  0  0  0  0  0  0  0  0  0  0
  141.3350   79.0050  220.7670 O   0  0  0  0  0  0  0  0  0  0  0  0
  140.4490   79.5600  221.7080 C   0  0  0  0  0  0  0  0  0  0  0  0
  139.0500   79.5260  221.5370 C   0  0  0  0  0  0  0  0  0  0  0  0
  138.6211   79.0912  220.6222 H   0  0  0  0  0  0  0  0  0  0  0  0
  138.2050   80.0420  222.5240 C   0  0  0  0  0  0  0  0  0  0  0  0
  137.1140   79.9965  222.3912 H   0  0  0  0  0  0  0  0  0  0  0  0
  138.7430   80.6150  223.6780 C   0  0  0  0  0  0  0  0  0  0  0  0
  137.6770   81.2480  224.9200 Cl  0  0  0  0  0  0  0  0  0  0  0  0
  140.1280   80.6870  223.8400 C   0  0  0  0  0  0  0  0  0  0  0  0
  140.5512   81.1527  224.7423 H   0  0  0  0  0  0  0  0  0  0  0  0
  140.9800   80.1680  222.8570 C   0  0  0  0  0  0  0  0  0  0  0  0
  142.7190   80.2460  223.0990 Cl  0  0  0  0  0  0  0  0  0  0  0  0
  1  2  1  0
  2  3  1  0
  3  4  1  0
  4  5  1  0
  5  6  2  0
  6  7  1  0
  6  8  1  0
  8  9  2  0
  9 10  1  0
  9 11  1  0
 11 12  1  0
 11 13  2  0
 13 14  1  0
 13 15  1  0
 15 16  1  0
 16 17  1  0
 16 18  1  0
 16 19  1  0
 15 20  2  0
 20 21  1  0
  3 22  2  0
 22 23  1  0
 22 24  1  0
 24 25  1  0
 24 26  1  0
 24 27  1  0
 27 28  1  0
 27 29  1  0
 27 30  1  0
 30 31  1  0
 31 32  2  0
 32 33  1  0
 32 34  1  0
 34 35  1  0
 34 36  2  0
 36 37  1  0
 36 38  1  0
 38 39  1  0
 38 40  2  0
 40 41  1  0
 20  8  1  0
 40 31  1  0
M  CHG  1   4  -1
M  END
>  <UniqueID>  (45) 
19

>  <SMILES>  (45) 
O/C(=C\CCOc1ccc(Cl)cc1Cl)[N-]/N=C\c1cccc(C(F)(F)F)c1

>  <Energy>  (45) 
44.14522116514075

>  <Genealogy>  (45) 
O=C(CCCOc1ccc(Cl)cc1Cl)[N-]N=Cc1cccc(C(F)(F)F)c1 (protonated)
OC(=CCCOc1ccc(Cl)cc1Cl)[N-]N=Cc1cccc(C(F)(F)F)c1 (tautomer)
O/C(=C\CCOc1ccc(Cl)cc1Cl)[N-]/N=C\c1cccc(C(F)(F)F)c1 (cis-trans isomerization)
O/C(=C\CCOc1ccc(Cl)cc1Cl)[N-]/N=C\c1cccc(C(F)(F)F)c1 (3D coordinates assigned)
O/C(=C\CCOc1ccc(Cl)cc1Cl)[N-]/N=C\c1cccc(C(F)(F)F)c1 (optimized conformer: 44.14522116514075 kcal/mol)

>  <smiles>  (45) 
O=C(CCCOc1ccc(Cl)cc1Cl)NN=Cc1cccc(C(F)(F)F)c1

>  <score_type>  (45) 
oracle

>  <origin>  (45) 
autodockgpu

>  <m_score__min__energy>  (45) 
-7.1500000000000004

>  <m_primary>  (45) 
energy

>  <meeko>  (45) 
{"free_energy": -6.46, "intermolecular_energy": -9.74, "internal_energy": -0.88, "cluster_size": 9, "cluster_id": 1, "rank_in_cluster": 7}

>  <energy>  (45) 
-6.51

>  <cluster_rmsd>  (45) 
1.78

>  <rmsd>  (45) 
272.75

>  <cluster>  (45) 
1

$$$$
JBHRSOAXAGIKHA-MUXIEFDRNA-N
     RDKit          3D

 41 42  0  0  0  0  0  0  0  0999 V2000
  139.3870   71.9310  220.5840 H   0  0  0  0  0  0  0  0  0  0  0  0
  138.9910   72.8390  220.3790 O   0  0  0  0  0  0  0  0  0  0  0  0
  139.2140   73.9770  221.1560 C   0  0  0  0  0  0  0  0  0  0  0  0
  140.0020   73.8240  222.3420 N   0  0  0  0  0  0  0  0  0  0  0  0
  140.5440   72.5920  222.7380 N   0  0  0  0  0  0  0  0  0  0  0  0
  139.8500   71.6690  223.3330 C   0  0  0  0  0  0  0  0  0  0  0  0
  138.9393   71.3019  222.8371 H   0  0  0  0  0  0  0  0  0  0  0  0
  140.2180   71.0850  224.6410 C   0  0  0  0  0  0  0  0  0  0  0  0
  140.7760   71.9180  225.6210 C   0  0  0  0  0  0  0  0  0  0  0  0
  140.9342   72.9852  225.4065 H   0  0  0  0  0  0  0  0  0  0  0  0
  141.1320   71.4000  226.8680 C   0  0  0  0  0  0  0  0  0  0  0  0
  141.5485   72.0647  227.6392 H   0  0  0  0  0  0  0  0  0  0  0  0
  140.9610   70.0410  227.1390 C   0  0  0  0  0  0  0  0  0  0  0  0
  141.2221   69.6438  228.1310 H   0  0  0  0  0  0  0  0  0  0  0  0
  140.4570   69.1780  226.1510 C   0  0  0  0  0  0  0  0  0  0  0  0
  140.2430   67.7150  226.4480 C   0  0  0  0  0  0  0  0  0  0  0  0
  141.3990   67.1890  226.9950 F   0  0  0  0  0  0  0  0  0  0  0  0
  139.2030   67.5480  227.3470 F   0  0  0  0  0  0  0  0  0  0  0  0
  139.9330   67.0170  225.2930 F   0  0  0  0  0  0  0  0  0  0  0  0
  140.0740   69.7120  224.9070 C   0  0  0  0  0  0  0  0  0  0  0  0
  139.6577   69.0485  224.1347 H   0  0  0  0  0  0  0  0  0  0  0  0
  138.6850   75.1730  220.8360 C   0  0  0  0  0  0  0  0  0  0  0  0
  139.2406   75.8080  220.1302 H   0  0  0  0  0  0  0  0  0  0  0  0
  137.3860   75.6980  221.3790 C   0  0  0  0  0  0  0  0  0  0  0  0
  136.9849   76.4453  220.6785 H   0  0  0  0  0  0  0  0  0  0  0  0
  136.6977   74.8474  221.4924 H   0  0  0  0  0  0  0  0  0  0  0  0
  137.5590   76.3540  222.7580 C   0  0  0  0  0  0  0  0  0  0  0  0
  136.6365   76.2143  223.3406 H   0  0  0  0  0  0  0  0  0  0  0  0
  138.4122   75.8805  223.2658 H   0  0  0  0  0  0  0  0  0  0  0  0
  137.8250   77.7550  222.6320 O   0  0  0  0  0  0  0  0  0  0  0  0
  139.0520   78.3810  222.9140 C   0  0  0  0  0  0  0  0  0  0  0  0
  140.2920   77.7680  222.6380 C   0  0  0  0  0  0  0  0  0  0  0  0
  140.3188   76.7483  222.2264 H   0  0  0  0  0  0  0  0  0  0  0  0
  141.4870   78.4500  222.8850 C   0  0  0  0  0  0  0  0  0  0  0  0
  142.4497   77.9724  222.6502 H   0  0  0  0  0  0  0  0  0  0  0  0
  141.4620   79.7360  223.4290 C   0  0  0  0  0  0  0  0  0  0  0  0
  142.9650   80.5930  223.7220 Cl  0  0  0  0  0  0  0  0  0  0  0  0
  140.2400   80.3370  223.7400 C   0  0  0  0  0  0  0  0  0  0  0  0
  140.2210   81.3442  224.1818 H   0  0  0  0  0  0  0  0  0  0  0  0
  139.0390   79.6610  223.4910 C   0  0  0  0  0  0  0  0  0  0  0  0
  137.5150   80.4520  223.8660 Cl  0  0  0  0  0  0  0  0  0  0  0  0
  1  2  1  0
  2  3  1  0
  3  4  1  0
  4  5  1  0
  5  6  2  0
  6  7  1  0
  6  8  1  0
  8  9  2  0
  9 10  1  0
  9 11  1  0
 11 12  1  0
 11 13  2  0
 13 14  1  0
 13 15  1  0
 15 16  1  0
 16 17  1  0
 16 18  1  0
 16 19  1  0
 15 20  2  0
 20 21  1  0
  3 22  2  0
 22 23  1  0
 22 24  1  0
 24 25  1  0
 24 26  1  0
 24 27  1  0
 27 28  1  0
 27 29  1  0
 27 30  1  0
 30 31  1  0
 31 32  2  0
 32 33  1  0
 32 34  1  0
 34 35  1  0
 34 36  2  0
 36 37  1  0
 36 38  1  0
 38 39  1  0
 38 40  2  0
 40 41  1  0
 20  8  1  0
 40 31  1  0
M  CHG  1   4  -1
M  END
>  <UniqueID>  (46) 
19

>  <SMILES>  (46) 
O/C(=C\CCOc1ccc(Cl)cc1Cl)[N-]/N=C\c1cccc(C(F)(F)F)c1

>  <Energy>  (46) 
44.14522116514075

>  <Genealogy>  (46) 
O=C(CCCOc1ccc(Cl)cc1Cl)[N-]N=Cc1cccc(C(F)(F)F)c1 (protonated)
OC(=CCCOc1ccc(Cl)cc1Cl)[N-]N=Cc1cccc(C(F)(F)F)c1 (tautomer)
O/C(=C\CCOc1ccc(Cl)cc1Cl)[N-]/N=C\c1cccc(C(F)(F)F)c1 (cis-trans isomerization)
O/C(=C\CCOc1ccc(Cl)cc1Cl)[N-]/N=C\c1cccc(C(F)(F)F)c1 (3D coordinates assigned)
O/C(=C\CCOc1ccc(Cl)cc1Cl)[N-]/N=C\c1cccc(C(F)(F)F)c1 (optimized conformer: 44.14522116514075 kcal/mol)

>  <smiles>  (46) 
O=C(CCCOc1ccc(Cl)cc1Cl)NN=Cc1cccc(C(F)(F)F)c1

>  <score_type>  (46) 
oracle

>  <origin>  (46) 
autodockgpu

>  <m_score__min__energy>  (46) 
-7.1500000000000004

>  <m_primary>  (46) 
energy

>  <meeko>  (46) 
{"free_energy": -6.14, "intermolecular_energy": -9.42, "internal_energy": -1.0, "cluster_size": 1, "cluster_id": 6, "rank_in_cluster": 1}

>  <energy>  (46) 
-6.47

>  <cluster_rmsd>  (46) 
1.22

>  <rmsd>  (46) 
272.8

>  <cluster>  (46) 
1

$$$$
JBHRSOAXAGIKHA-MUXIEFDRNA-N
     RDKit          3D

 41 42  0  0  0  0  0  0  0  0999 V2000
  139.2510   75.2690  223.0330 H   0  0  0  0  0  0  0  0  0  0  0  0
  139.2080   74.5280  222.3440 O   0  0  0  0  0  0  0  0  0  0  0  0
  140.3200   73.7960  221.9210 C   0  0  0  0  0  0  0  0  0  0  0  0
  140.7050   72.6640  222.7070 N   0  0  0  0  0  0  0  0  0  0  0  0
  140.2100   71.3720  222.4680 N   0  0  0  0  0  0  0  0  0  0  0  0
  139.3920   70.7650  223.2730 C   0  0  0  0  0  0  0  0  0  0  0  0
  138.3640   70.5799  222.9281 H   0  0  0  0  0  0  0  0  0  0  0  0
  139.7680   70.3090  224.6290 C   0  0  0  0  0  0  0  0  0  0  0  0
  139.6520   68.9470  224.9430 C   0  0  0  0  0  0  0  0  0  0  0  0
  139.2828   68.2406  224.1849 H   0  0  0  0  0  0  0  0  0  0  0  0
  140.0020   68.4830  226.2110 C   0  0  0  0  0  0  0  0  0  0  0  0
  139.9288   67.4099  226.4414 H   0  0  0  0  0  0  0  0  0  0  0  0
  140.4450   69.3760  227.1890 C   0  0  0  0  0  0  0  0  0  0  0  0
  140.7406   69.0002  228.1796 H   0  0  0  0  0  0  0  0  0  0  0  0
  140.5150   70.7520  226.9140 C   0  0  0  0  0  0  0  0  0  0  0  0
  141.0190   71.7180  227.9570 C   0  0  0  0  0  0  0  0  0  0  0  0
  139.9420   72.2730  228.6220 F   0  0  0  0  0  0  0  0  0  0  0  0
  141.8260   71.0650  228.8730 F   0  0  0  0  0  0  0  0  0  0  0  0
  141.7610   72.7320  227.3740 F   0  0  0  0  0  0  0  0  0  0  0  0
  140.1870   71.2100  225.6240 C   0  0  0  0  0  0  0  0  0  0  0  0
  140.2591   72.2829  225.3921 H   0  0  0  0  0  0  0  0  0  0  0  0
  141.0350   74.1520  220.8370 C   0  0  0  0  0  0  0  0  0  0  0  0
  141.0136   73.4817  219.9651 H   0  0  0  0  0  0  0  0  0  0  0  0
  141.8610   75.4050  220.7390 C   0  0  0  0  0  0  0  0  0  0  0  0
  142.6094   75.4007  221.5452 H   0  0  0  0  0  0  0  0  0  0  0  0
  142.3412   75.4181  219.7494 H   0  0  0  0  0  0  0  0  0  0  0  0
  141.0030   76.6730  220.8660 C   0  0  0  0  0  0  0  0  0  0  0  0
  141.6078   77.5460  220.5795 H   0  0  0  0  0  0  0  0  0  0  0  0
  140.1308   76.5721  220.2033 H   0  0  0  0  0  0  0  0  0  0  0  0
  140.5360   76.8480  222.2080 O   0  0  0  0  0  0  0  0  0  0  0  0
  139.7470   77.9180  222.6650 C   0  0  0  0  0  0  0  0  0  0  0  0
  138.3410   77.9170  222.5590 C   0  0  0  0  0  0  0  0  0  0  0  0
  137.8305   77.0759  222.0671 H   0  0  0  0  0  0  0  0  0  0  0  0
  137.5920   78.9780  223.0750 C   0  0  0  0  0  0  0  0  0  0  0  0
  136.4945   78.9614  223.0032 H   0  0  0  0  0  0  0  0  0  0  0  0
  138.2350   80.0600  223.6820 C   0  0  0  0  0  0  0  0  0  0  0  0
  137.2890   81.3820  224.3420 Cl  0  0  0  0  0  0  0  0  0  0  0  0
  139.6290   80.0880  223.7590 C   0  0  0  0  0  0  0  0  0  0  0  0
  140.1354   80.9470  224.2233 H   0  0  0  0  0  0  0  0  0  0  0  0
  140.3840   79.0260  223.2470 C   0  0  0  0  0  0  0  0  0  0  0  0
  142.1360   79.0740  223.3820 Cl  0  0  0  0  0  0  0  0  0  0  0  0
  1  2  1  0
  2  3  1  0
  3  4  1  0
  4  5  1  0
  5  6  2  0
  6  7  1  0
  6  8  1  0
  8  9  2  0
  9 10  1  0
  9 11  1  0
 11 12  1  0
 11 13  2  0
 13 14  1  0
 13 15  1  0
 15 16  1  0
 16 17  1  0
 16 18  1  0
 16 19  1  0
 15 20  2  0
 20 21  1  0
  3 22  2  0
 22 23  1  0
 22 24  1  0
 24 25  1  0
 24 26  1  0
 24 27  1  0
 27 28  1  0
 27 29  1  0
 27 30  1  0
 30 31  1  0
 31 32  2  0
 32 33  1  0
 32 34  1  0
 34 35  1  0
 34 36  2  0
 36 37  1  0
 36 38  1  0
 38 39  1  0
 38 40  2  0
 40 41  1  0
 20  8  1  0
 40 31  1  0
M  CHG  1   4  -1
M  END
>  <UniqueID>  (47) 
19

>  <SMILES>  (47) 
O/C(=C\CCOc1ccc(Cl)cc1Cl)[N-]/N=C\c1cccc(C(F)(F)F)c1

>  <Energy>  (47) 
44.14522116514075

>  <Genealogy>  (47) 
O=C(CCCOc1ccc(Cl)cc1Cl)[N-]N=Cc1cccc(C(F)(F)F)c1 (protonated)
OC(=CCCOc1ccc(Cl)cc1Cl)[N-]N=Cc1cccc(C(F)(F)F)c1 (tautomer)
O/C(=C\CCOc1ccc(Cl)cc1Cl)[N-]/N=C\c1cccc(C(F)(F)F)c1 (cis-trans isomerization)
O/C(=C\CCOc1ccc(Cl)cc1Cl)[N-]/N=C\c1cccc(C(F)(F)F)c1 (3D coordinates assigned)
O/C(=C\CCOc1ccc(Cl)cc1Cl)[N-]/N=C\c1cccc(C(F)(F)F)c1 (optimized conformer: 44.14522116514075 kcal/mol)

>  <smiles>  (47) 
O=C(CCCOc1ccc(Cl)cc1Cl)NN=Cc1cccc(C(F)(F)F)c1

>  <score_type>  (47) 
oracle

>  <origin>  (47) 
autodockgpu

>  <m_score__min__energy>  (47) 
-7.1500000000000004

>  <m_primary>  (47) 
energy

>  <meeko>  (47) 
{"free_energy": -6.51, "intermolecular_energy": -9.79, "internal_energy": -1.21, "cluster_size": 9, "cluster_id": 1, "rank_in_cluster": 5}

>  <energy>  (47) 
-6.46

>  <cluster_rmsd>  (47) 
1.9

>  <rmsd>  (47) 
272.8

>  <cluster>  (47) 
1

$$$$
JBHRSOAXAGIKHA-MUXIEFDRNA-N
     RDKit          3D

 41 42  0  0  0  0  0  0  0  0999 V2000
  138.2880   73.8080  223.0260 H   0  0  0  0  0  0  0  0  0  0  0  0
  138.6860   74.4220  222.3260 O   0  0  0  0  0  0  0  0  0  0  0  0
  139.9970   74.3200  221.8580 C   0  0  0  0  0  0  0  0  0  0  0  0
  140.8110   73.2700  222.3920 N   0  0  0  0  0  0  0  0  0  0  0  0
  140.4250   71.9210  222.3610 N   0  0  0  0  0  0  0  0  0  0  0  0
  139.5020   71.4290  223.1310 C   0  0  0  0  0  0  0  0  0  0  0  0
  138.4560   71.4924  222.7964 H   0  0  0  0  0  0  0  0  0  0  0  0
  139.7830   70.7880  224.4340 C   0  0  0  0  0  0  0  0  0  0  0  0
  139.5240   69.4180  224.5850 C   0  0  0  0  0  0  0  0  0  0  0  0
  139.1160   68.8422  223.7412 H   0  0  0  0  0  0  0  0  0  0  0  0
  139.7810   68.7810  225.8000 C   0  0  0  0  0  0  0  0  0  0  0  0
  139.5960   67.7016  225.9029 H   0  0  0  0  0  0  0  0  0  0  0  0
  140.2720   69.5090  226.8850 C   0  0  0  0  0  0  0  0  0  0  0  0
  140.4934   68.9963  227.8327 H   0  0  0  0  0  0  0  0  0  0  0  0
  140.4850   70.8940  226.7730 C   0  0  0  0  0  0  0  0  0  0  0  0
  141.0420   71.6810  227.9330 C   0  0  0  0  0  0  0  0  0  0  0  0
  141.8160   70.8460  228.7180 F   0  0  0  0  0  0  0  0  0  0  0  0
  141.8270   72.7270  227.4790 F   0  0  0  0  0  0  0  0  0  0  0  0
  140.0230   72.2090  228.7070 F   0  0  0  0  0  0  0  0  0  0  0  0
  140.2500   71.5240  225.5370 C   0  0  0  0  0  0  0  0  0  0  0  0
  140.4336   72.6035  225.4327 H   0  0  0  0  0  0  0  0  0  0  0  0
  140.5030   75.1910  220.9640 C   0  0  0  0  0  0  0  0  0  0  0  0
  139.8226   75.9422  220.5365 H   0  0  0  0  0  0  0  0  0  0  0  0
  141.9370   75.2040  220.5120 C   0  0  0  0  0  0  0  0  0  0  0  0
  142.5883   75.2226  221.3982 H   0  0  0  0  0  0  0  0  0  0  0  0
  142.1108   74.3008  219.9087 H   0  0  0  0  0  0  0  0  0  0  0  0
  142.2550   76.4270  219.6370 C   0  0  0  0  0  0  0  0  0  0  0  0
  143.2915   76.7436  219.8252 H   0  0  0  0  0  0  0  0  0  0  0  0
  142.1222   76.1458  218.5819 H   0  0  0  0  0  0  0  0  0  0  0  0
  141.3730   77.5150  219.9320 O   0  0  0  0  0  0  0  0  0  0  0  0
  141.5540   78.4560  220.9620 C   0  0  0  0  0  0  0  0  0  0  0  0
  141.4160   78.1170  222.3240 C   0  0  0  0  0  0  0  0  0  0  0  0
  141.1165   77.0969  222.6065 H   0  0  0  0  0  0  0  0  0  0  0  0
  141.6580   79.0710  223.3170 C   0  0  0  0  0  0  0  0  0  0  0  0
  141.5669   78.7944  224.3778 H   0  0  0  0  0  0  0  0  0  0  0  0
  142.0150   80.3740  222.9650 C   0  0  0  0  0  0  0  0  0  0  0  0
  142.3320   81.5640  224.2150 Cl  0  0  0  0  0  0  0  0  0  0  0  0
  142.1180   80.7300  221.6180 C   0  0  0  0  0  0  0  0  0  0  0  0
  142.3857   81.7605  221.3414 H   0  0  0  0  0  0  0  0  0  0  0  0
  141.8810   79.7770  220.6190 C   0  0  0  0  0  0  0  0  0  0  0  0
  142.0440   80.2430  218.9320 Cl  0  0  0  0  0  0  0  0  0  0  0  0
  1  2  1  0
  2  3  1  0
  3  4  1  0
  4  5  1  0
  5  6  2  0
  6  7  1  0
  6  8  1  0
  8  9  2  0
  9 10  1  0
  9 11  1  0
 11 12  1  0
 11 13  2  0
 13 14  1  0
 13 15  1  0
 15 16  1  0
 16 17  1  0
 16 18  1  0
 16 19  1  0
 15 20  2  0
 20 21  1  0
  3 22  2  0
 22 23  1  0
 22 24  1  0
 24 25  1  0
 24 26  1  0
 24 27  1  0
 27 28  1  0
 27 29  1  0
 27 30  1  0
 30 31  1  0
 31 32  2  0
 32 33  1  0
 32 34  1  0
 34 35  1  0
 34 36  2  0
 36 37  1  0
 36 38  1  0
 38 39  1  0
 38 40  2  0
 40 41  1  0
 20  8  1  0
 40 31  1  0
M  CHG  1   4  -1
M  END
>  <UniqueID>  (48) 
19

>  <SMILES>  (48) 
O/C(=C\CCOc1ccc(Cl)cc1Cl)[N-]/N=C\c1cccc(C(F)(F)F)c1

>  <Energy>  (48) 
44.14522116514075

>  <Genealogy>  (48) 
O=C(CCCOc1ccc(Cl)cc1Cl)[N-]N=Cc1cccc(C(F)(F)F)c1 (protonated)
OC(=CCCOc1ccc(Cl)cc1Cl)[N-]N=Cc1cccc(C(F)(F)F)c1 (tautomer)
O/C(=C\CCOc1ccc(Cl)cc1Cl)[N-]/N=C\c1cccc(C(F)(F)F)c1 (cis-trans isomerization)
O/C(=C\CCOc1ccc(Cl)cc1Cl)[N-]/N=C\c1cccc(C(F)(F)F)c1 (3D coordinates assigned)
O/C(=C\CCOc1ccc(Cl)cc1Cl)[N-]/N=C\c1cccc(C(F)(F)F)c1 (optimized conformer: 44.14522116514075 kcal/mol)

>  <smiles>  (48) 
O=C(CCCOc1ccc(Cl)cc1Cl)NN=Cc1cccc(C(F)(F)F)c1

>  <score_type>  (48) 
oracle

>  <origin>  (48) 
autodockgpu

>  <m_score__min__energy>  (48) 
-7.1500000000000004

>  <m_primary>  (48) 
energy

>  <meeko>  (48) 
{"free_energy": -6.82, "intermolecular_energy": -10.1, "internal_energy": -0.73, "cluster_size": 9, "cluster_id": 1, "rank_in_cluster": 3}

>  <energy>  (48) 
-6.45

>  <cluster_rmsd>  (48) 
1.03

>  <rmsd>  (48) 
272.62

>  <cluster>  (48) 
1

$$$$
JBHRSOAXAGIKHA-MUXIEFDRNA-N
     RDKit          3D

 41 42  0  0  0  0  0  0  0  0999 V2000
  138.8460   74.3990  223.0050 H   0  0  0  0  0  0  0  0  0  0  0  0
  139.5980   74.5020  222.3360 O   0  0  0  0  0  0  0  0  0  0  0  0
  140.7250   73.4510  220.4980 C   0  0  0  0  0  0  0  0  0  0  0  0
  140.5570   72.2990  222.6110 N   0  0  0  0  0  0  0  0  0  0  0  0
  139.5410   71.4770  223.1220 N   0  0  0  0  0  0  0  0  0  0  0  0
  140.2880   73.4270  221.7720 C   0  0  0  0  0  0  0  0  0  0  0  0
  140.8737   72.4878  219.9879 H   0  0  0  0  0  0  0  0  0  0  0  0
  140.0170   70.0230  225.0350 C   0  0  0  0  0  0  0  0  0  0  0  0
  139.8730   68.7140  225.5170 C   0  0  0  0  0  0  0  0  0  0  0  0
  139.5724   67.9084  224.8310 H   0  0  0  0  0  0  0  0  0  0  0  0
  140.1090   68.4280  226.8620 C   0  0  0  0  0  0  0  0  0  0  0  0
  140.0142   67.3948  227.2272 H   0  0  0  0  0  0  0  0  0  0  0  0
  140.4650   69.4480  227.7460 C   0  0  0  0  0  0  0  0  0  0  0  0
  140.6729   69.2112  228.7999 H   0  0  0  0  0  0  0  0  0  0  0  0
  140.5590   70.7760  227.2960 C   0  0  0  0  0  0  0  0  0  0  0  0
  140.9710   71.8780  228.2410 C   0  0  0  0  0  0  0  0  0  0  0  0
  141.3950   72.9710  227.5080 F   0  0  0  0  0  0  0  0  0  0  0  0
  139.9050   72.2560  229.0390 F   0  0  0  0  0  0  0  0  0  0  0  0
  142.0020   71.4610  229.0660 F   0  0  0  0  0  0  0  0  0  0  0  0
  140.3470   71.0540  225.9330 C   0  0  0  0  0  0  0  0  0  0  0  0
  140.4402   72.0870  225.5665 H   0  0  0  0  0  0  0  0  0  0  0  0
  139.7620   70.2900  223.6020 C   0  0  0  0  0  0  0  0  0  0  0  0
  139.7594   69.4381  222.9061 H   0  0  0  0  0  0  0  0  0  0  0  0
  141.0230   74.7070  219.7270 C   0  0  0  0  0  0  0  0  0  0  0  0
  141.6453   74.4501  218.8571 H   0  0  0  0  0  0  0  0  0  0  0  0
  140.0650   75.1489  219.4155 H   0  0  0  0  0  0  0  0  0  0  0  0
  141.7680   75.7450  220.5800 C   0  0  0  0  0  0  0  0  0  0  0  0
  141.9640   75.3185  221.5748 H   0  0  0  0  0  0  0  0  0  0  0  0
  142.7119   75.9992  220.0755 H   0  0  0  0  0  0  0  0  0  0  0  0
  140.9950   76.9410  220.7280 O   0  0  0  0  0  0  0  0  0  0  0  0
  141.3130   78.0200  221.5720 C   0  0  0  0  0  0  0  0  0  0  0  0
  141.2340   77.9260  222.9770 C   0  0  0  0  0  0  0  0  0  0  0  0
  140.8732   76.9977  223.4441 H   0  0  0  0  0  0  0  0  0  0  0  0
  141.6120   79.0070  223.7790 C   0  0  0  0  0  0  0  0  0  0  0  0
  141.5652   78.9203  224.8746 H   0  0  0  0  0  0  0  0  0  0  0  0
  142.0490   80.1970  223.1920 C   0  0  0  0  0  0  0  0  0  0  0  0
  142.5360   81.5450  224.2040 Cl  0  0  0  0  0  0  0  0  0  0  0  0
  142.0950   80.3120  221.8010 C   0  0  0  0  0  0  0  0  0  0  0  0
  142.4254   81.2542  221.3395 H   0  0  0  0  0  0  0  0  0  0  0  0
  141.7220   79.2320  220.9920 C   0  0  0  0  0  0  0  0  0  0  0  0
  141.8160   79.3950  219.2450 Cl  0  0  0  0  0  0  0  0  0  0  0  0
  1  2  1  0
  2  3  1  0
  3  4  1  0
  4  5  1  0
  5  6  2  0
  6  7  1  0
  6  8  1  0
  8  9  2  0
  9 10  1  0
  9 11  1  0
 11 12  1  0
 11 13  2  0
 13 14  1  0
 13 15  1  0
 15 16  1  0
 16 17  1  0
 16 18  1  0
 16 19  1  0
 15 20  2  0
 20 21  1  0
  3 22  2  0
 22 23  1  0
 22 24  1  0
 24 25  1  0
 24 26  1  0
 24 27  1  0
 27 28  1  0
 27 29  1  0
 27 30  1  0
 30 31  1  0
 31 32  2  0
 32 33  1  0
 32 34  1  0
 34 35  1  0
 34 36  2  0
 36 37  1  0
 36 38  1  0
 38 39  1  0
 38 40  2  0
 40 41  1  0
 20  8  1  0
 40 31  1  0
M  CHG  1   4  -1
M  END
>  <UniqueID>  (49) 
19

>  <SMILES>  (49) 
O/C(=C\CCOc1ccc(Cl)cc1Cl)[N-]/N=C\c1cccc(C(F)(F)F)c1

>  <Energy>  (49) 
44.14522116514075

>  <Genealogy>  (49) 
O=C(CCCOc1ccc(Cl)cc1Cl)[N-]N=Cc1cccc(C(F)(F)F)c1 (protonated)
OC(=CCCOc1ccc(Cl)cc1Cl)[N-]N=Cc1cccc(C(F)(F)F)c1 (tautomer)
O/C(=C\CCOc1ccc(Cl)cc1Cl)[N-]/N=C\c1cccc(C(F)(F)F)c1 (cis-trans isomerization)
O/C(=C\CCOc1ccc(Cl)cc1Cl)[N-]/N=C\c1cccc(C(F)(F)F)c1 (3D coordinates assigned)
O/C(=C\CCOc1ccc(Cl)cc1Cl)[N-]/N=C\c1cccc(C(F)(F)F)c1 (optimized conformer: 44.14522116514075 kcal/mol)

>  <smiles>  (49) 
O=C(CCCOc1ccc(Cl)cc1Cl)NN=Cc1cccc(C(F)(F)F)c1

>  <score_type>  (49) 
oracle

>  <origin>  (49) 
autodockgpu

>  <m_score__min__energy>  (49) 
-7.1500000000000004

>  <m_primary>  (49) 
energy

>  <meeko>  (49) 
{"free_energy": -7.15, "intermolecular_energy": -10.43, "internal_energy": -0.66, "cluster_size": 9, "cluster_id": 1, "rank_in_cluster": 1}

>  <energy>  (49) 
-5.97

>  <cluster_rmsd>  (49) 
1.43

>  <rmsd>  (49) 
272.58

>  <cluster>  (49) 
1

$$$$
JBHRSOAXAGIKHA-MUXIEFDRNA-N
     RDKit          3D

 41 42  0  0  0  0  0  0  0  0999 V2000
  142.0890   76.2050  221.9630 H   0  0  0  0  0  0  0  0  0  0  0  0
  141.6300   75.3030  221.9630 O   0  0  0  0  0  0  0  0  0  0  0  0
  140.3030   75.1070  221.5760 C   0  0  0  0  0  0  0  0  0  0  0  0
  139.5100   74.2100  222.3610 N   0  0  0  0  0  0  0  0  0  0  0  0
  139.6880   72.8190  222.3330 N   0  0  0  0  0  0  0  0  0  0  0  0
  140.6250   72.2090  222.9960 C   0  0  0  0  0  0  0  0  0  0  0  0
  141.6606   72.2980  222.6358 H   0  0  0  0  0  0  0  0  0  0  0  0
  140.3720   71.4010  224.2100 C   0  0  0  0  0  0  0  0  0  0  0  0
  139.7060   70.1740  224.0800 C   0  0  0  0  0  0  0  0  0  0  0  0
  139.3797   69.8309  223.0871 H   0  0  0  0  0  0  0  0  0  0  0  0
  139.4550   69.3860  225.2040 C   0  0  0  0  0  0  0  0  0  0  0  0
  138.9503   68.4152  225.0908 H   0  0  0  0  0  0  0  0  0  0  0  0
  139.8420   69.8250  226.4720 C   0  0  0  0  0  0  0  0  0  0  0  0
  139.6632   69.1874  227.3503 H   0  0  0  0  0  0  0  0  0  0  0  0
  140.4590   71.0780  226.6310 C   0  0  0  0  0  0  0  0  0  0  0  0
  140.9040   71.5450  227.9940 C   0  0  0  0  0  0  0  0  0  0  0  0
  139.7990   71.9550  228.7170 F   0  0  0  0  0  0  0  0  0  0  0  0
  141.5350   70.5200  228.6780 F   0  0  0  0  0  0  0  0  0  0  0  0
  141.7910   72.6040  227.8880 F   0  0  0  0  0  0  0  0  0  0  0  0
  140.7340   71.8550  225.4910 C   0  0  0  0  0  0  0  0  0  0  0  0
  141.2369   72.8269  225.6025 H   0  0  0  0  0  0  0  0  0  0  0  0
  139.7850   75.7020  220.4850 C   0  0  0  0  0  0  0  0  0  0  0  0
  139.7760   76.8016  220.4556 H   0  0  0  0  0  0  0  0  0  0  0  0
  139.2180   74.9640  219.3040 C   0  0  0  0  0  0  0  0  0  0  0  0
  138.1863   74.6614  219.5365 H   0  0  0  0  0  0  0  0  0  0  0  0
  139.2493   75.6384  218.4356 H   0  0  0  0  0  0  0  0  0  0  0  0
  140.0370   73.7100  218.9600 C   0  0  0  0  0  0  0  0  0  0  0  0
  140.0769   73.0538  219.8420 H   0  0  0  0  0  0  0  0  0  0  0  0
  139.5516   73.1958  218.1174 H   0  0  0  0  0  0  0  0  0  0  0  0
  141.3710   74.0560  218.5740 O   0  0  0  0  0  0  0  0  0  0  0  0
  142.5220   73.8750  219.3610 C   0  0  0  0  0  0  0  0  0  0  0  0
  142.8560   72.6290  219.9320 C   0  0  0  0  0  0  0  0  0  0  0  0
  142.1828   71.7689  219.8012 H   0  0  0  0  0  0  0  0  0  0  0  0
  144.0380   72.4820  220.6630 C   0  0  0  0  0  0  0  0  0  0  0  0
  144.3003   71.5028  221.0900 H   0  0  0  0  0  0  0  0  0  0  0  0
  144.8870   73.5740  220.8530 C   0  0  0  0  0  0  0  0  0  0  0  0
  146.3770   73.3800  221.7590 Cl  0  0  0  0  0  0  0  0  0  0  0  0
  144.5460   74.8220  220.3230 C   0  0  0  0  0  0  0  0  0  0  0  0
  145.2071   75.6861  220.4853 H   0  0  0  0  0  0  0  0  0  0  0  0
  143.3650   74.9750  219.5860 C   0  0  0  0  0  0  0  0  0  0  0  0
  142.9750   76.5480  218.9080 Cl  0  0  0  0  0  0  0  0  0  0  0  0
  1  2  1  0
  2  3  1  0
  3  4  1  0
  4  5  1  0
  5  6  2  0
  6  7  1  0
  6  8  1  0
  8  9  2  0
  9 10  1  0
  9 11  1  0
 11 12  1  0
 11 13  2  0
 13 14  1  0
 13 15  1  0
 15 16  1  0
 16 17  1  0
 16 18  1  0
 16 19  1  0
 15 20  2  0
 20 21  1  0
  3 22  2  0
 22 23  1  0
 22 24  1  0
 24 25  1  0
 24 26  1  0
 24 27  1  0
 27 28  1  0
 27 29  1  0
 27 30  1  0
 30 31  1  0
 31 32  2  0
 32 33  1  0
 32 34  1  0
 34 35  1  0
 34 36  2  0
 36 37  1  0
 36 38  1  0
 38 39  1  0
 38 40  2  0
 40 41  1  0
 20  8  1  0
 40 31  1  0
M  CHG  1   4  -1
M  END
>  <UniqueID>  (50) 
19

>  <SMILES>  (50) 
O/C(=C\CCOc1ccc(Cl)cc1Cl)[N-]/N=C\c1cccc(C(F)(F)F)c1

>  <Energy>  (50) 
44.14522116514075

>  <Genealogy>  (50) 
O=C(CCCOc1ccc(Cl)cc1Cl)[N-]N=Cc1cccc(C(F)(F)F)c1 (protonated)
OC(=CCCOc1ccc(Cl)cc1Cl)[N-]N=Cc1cccc(C(F)(F)F)c1 (tautomer)
O/C(=C\CCOc1ccc(Cl)cc1Cl)[N-]/N=C\c1cccc(C(F)(F)F)c1 (cis-trans isomerization)
O/C(=C\CCOc1ccc(Cl)cc1Cl)[N-]/N=C\c1cccc(C(F)(F)F)c1 (3D coordinates assigned)
O/C(=C\CCOc1ccc(Cl)cc1Cl)[N-]/N=C\c1cccc(C(F)(F)F)c1 (optimized conformer: 44.14522116514075 kcal/mol)

>  <smiles>  (50) 
O=C(CCCOc1ccc(Cl)cc1Cl)NN=Cc1cccc(C(F)(F)F)c1

>  <score_type>  (50) 
oracle

>  <origin>  (50) 
autodockgpu

>  <m_score__min__energy>  (50) 
-7.1500000000000004

>  <m_primary>  (50) 
energy

>  <meeko>  (50) 
{"free_energy": -5.85, "intermolecular_energy": -9.13, "internal_energy": -1.43, "cluster_size": 4, "cluster_id": 5, "rank_in_cluster": 4}

>  <energy>  (50) 
-6.71

>  <cluster_rmsd>  (50) 
0.0

>  <rmsd>  (50) 
272.52

>  <cluster>  (50) 
2

$$$$
JBHRSOAXAGIKHA-MUXIEFDRNA-N
     RDKit          3D

 41 42  0  0  0  0  0  0  0  0999 V2000
  137.3740   73.0960  223.4100 H   0  0  0  0  0  0  0  0  0  0  0  0
  137.5250   73.1900  222.4130 O   0  0  0  0  0  0  0  0  0  0  0  0
  138.7130   73.6600  221.8490 C   0  0  0  0  0  0  0  0  0  0  0  0
  139.9360   73.3430  222.5220 N   0  0  0  0  0  0  0  0  0  0  0  0
  140.4350   72.0350  222.6120 N   0  0  0  0  0  0  0  0  0  0  0  0
  139.7570   71.0500  223.1200 C   0  0  0  0  0  0  0  0  0  0  0  0
  138.9985   70.5609  222.4912 H   0  0  0  0  0  0  0  0  0  0  0  0
  139.9510   70.5510  224.5000 C   0  0  0  0  0  0  0  0  0  0  0  0
  139.7000   69.1990  224.7730 C   0  0  0  0  0  0  0  0  0  0  0  0
  139.3625   68.5316  223.9663 H   0  0  0  0  0  0  0  0  0  0  0  0
  139.8760   68.6950  226.0630 C   0  0  0  0  0  0  0  0  0  0  0  0
  139.6975   67.6284  226.2641 H   0  0  0  0  0  0  0  0  0  0  0  0
  140.2780   69.5410  227.0990 C   0  0  0  0  0  0  0  0  0  0  0  0
  140.4381   69.1329  228.1079 H   0  0  0  0  0  0  0  0  0  0  0  0
  140.4790   70.9110  226.8590 C   0  0  0  0  0  0  0  0  0  0  0  0
  140.9400   71.8240  227.9680 C   0  0  0  0  0  0  0  0  0  0  0  0
  141.8270   71.1410  228.7790 F   0  0  0  0  0  0  0  0  0  0  0  0
  141.5720   72.9400  227.4480 F   0  0  0  0  0  0  0  0  0  0  0  0
  139.8670   72.2510  228.7330 F   0  0  0  0  0  0  0  0  0  0  0  0
  140.3260   71.4070  225.5510 C   0  0  0  0  0  0  0  0  0  0  0  0
  140.5013   72.4739  225.3487 H   0  0  0  0  0  0  0  0  0  0  0  0
  138.7220   74.4160  220.7350 C   0  0  0  0  0  0  0  0  0  0  0  0
  138.3054   73.9796  219.8152 H   0  0  0  0  0  0  0  0  0  0  0  0
  139.2630   75.8160  220.6640 C   0  0  0  0  0  0  0  0  0  0  0  0
  138.8876   76.2952  219.7478 H   0  0  0  0  0  0  0  0  0  0  0  0
  138.9275   76.3546  221.5625 H   0  0  0  0  0  0  0  0  0  0  0  0
  140.7990   75.8420  220.6430 C   0  0  0  0  0  0  0  0  0  0  0  0
  141.1773   75.5353  221.6293 H   0  0  0  0  0  0  0  0  0  0  0  0
  141.1501   75.1505  219.8629 H   0  0  0  0  0  0  0  0  0  0  0  0
  141.2870   77.1540  220.3420 O   0  0  0  0  0  0  0  0  0  0  0  0
  141.4980   78.1820  221.2780 C   0  0  0  0  0  0  0  0  0  0  0  0
  141.4020   77.9660  222.6680 C   0  0  0  0  0  0  0  0  0  0  0  0
  141.1131   76.9753  223.0489 H   0  0  0  0  0  0  0  0  0  0  0  0
  141.6720   79.0040  223.5650 C   0  0  0  0  0  0  0  0  0  0  0  0
  141.6110   78.8232  224.6483 H   0  0  0  0  0  0  0  0  0  0  0  0
  142.0190   80.2700  223.0880 C   0  0  0  0  0  0  0  0  0  0  0  0
  142.3720   81.5650  224.2170 Cl  0  0  0  0  0  0  0  0  0  0  0  0
  142.0810   80.5040  221.7120 C   0  0  0  0  0  0  0  0  0  0  0  0
  142.3394   81.5053  221.3369 H   0  0  0  0  0  0  0  0  0  0  0  0
  141.8150   79.4670  220.8090 C   0  0  0  0  0  0  0  0  0  0  0  0
  141.9280   79.7810  219.0840 Cl  0  0  0  0  0  0  0  0  0  0  0  0
  1  2  1  0
  2  3  1  0
  3  4  1  0
  4  5  1  0
  5  6  2  0
  6  7  1  0
  6  8  1  0
  8  9  2  0
  9 10  1  0
  9 11  1  0
 11 12  1  0
 11 13  2  0
 13 14  1  0
 13 15  1  0
 15 16  1  0
 16 17  1  0
 16 18  1  0
 16 19  1  0
 15 20  2  0
 20 21  1  0
  3 22  2  0
 22 23  1  0
 22 24  1  0
 24 25  1  0
 24 26  1  0
 24 27  1  0
 27 28  1  0
 27 29  1  0
 27 30  1  0
 30 31  1  0
 31 32  2  0
 32 33  1  0
 32 34  1  0
 34 35  1  0
 34 36  2  0
 36 37  1  0
 36 38  1  0
 38 39  1  0
 38 40  2  0
 40 41  1  0
 20  8  1  0
 40 31  1  0
M  CHG  1   4  -1
M  END
>  <UniqueID>  (51) 
19

>  <SMILES>  (51) 
O/C(=C\CCOc1ccc(Cl)cc1Cl)[N-]/N=C\c1cccc(C(F)(F)F)c1

>  <Energy>  (51) 
44.14522116514075

>  <Genealogy>  (51) 
O=C(CCCOc1ccc(Cl)cc1Cl)[N-]N=Cc1cccc(C(F)(F)F)c1 (protonated)
OC(=CCCOc1ccc(Cl)cc1Cl)[N-]N=Cc1cccc(C(F)(F)F)c1 (tautomer)
O/C(=C\CCOc1ccc(Cl)cc1Cl)[N-]/N=C\c1cccc(C(F)(F)F)c1 (cis-trans isomerization)
O/C(=C\CCOc1ccc(Cl)cc1Cl)[N-]/N=C\c1cccc(C(F)(F)F)c1 (3D coordinates assigned)
O/C(=C\CCOc1ccc(Cl)cc1Cl)[N-]/N=C\c1cccc(C(F)(F)F)c1 (optimized conformer: 44.14522116514075 kcal/mol)

>  <smiles>  (51) 
O=C(CCCOc1ccc(Cl)cc1Cl)NN=Cc1cccc(C(F)(F)F)c1

>  <score_type>  (51) 
oracle

>  <origin>  (51) 
autodockgpu

>  <m_score__min__energy>  (51) 
-7.1500000000000004

>  <m_primary>  (51) 
energy

>  <meeko>  (51) 
{"free_energy": -6.45, "intermolecular_energy": -9.73, "internal_energy": -0.65, "cluster_size": 9, "cluster_id": 1, "rank_in_cluster": 8}

>  <energy>  (51) 
-6.51

>  <cluster_rmsd>  (51) 
0.0

>  <rmsd>  (51) 
273.12

>  <cluster>  (51) 
3

$$$$
JBHRSOAXAGIKHA-MUXIEFDRNA-N
     RDKit          3D

 41 42  0  0  0  0  0  0  0  0999 V2000
  142.0890   76.4020  222.2710 H   0  0  0  0  0  0  0  0  0  0  0  0
  141.0940   76.2950  222.4210 O   0  0  0  0  0  0  0  0  0  0  0  0
  139.2470   75.5490  221.0870 C   0  0  0  0  0  0  0  0  0  0  0  0
  140.7520   73.9290  222.0530 N   0  0  0  0  0  0  0  0  0  0  0  0
  139.9660   72.9840  222.7300 N   0  0  0  0  0  0  0  0  0  0  0  0
  140.3270   75.2810  221.8450 C   0  0  0  0  0  0  0  0  0  0  0  0
  138.2544   75.3667  221.5245 H   0  0  0  0  0  0  0  0  0  0  0  0
  140.2290   71.0810  224.2480 C   0  0  0  0  0  0  0  0  0  0  0  0
  139.6280   69.8150  224.3010 C   0  0  0  0  0  0  0  0  0  0  0  0
  139.2531   69.3482  223.3782 H   0  0  0  0  0  0  0  0  0  0  0  0
  139.5030   69.1440  225.5190 C   0  0  0  0  0  0  0  0  0  0  0  0
  139.0502   68.1420  225.5491 H   0  0  0  0  0  0  0  0  0  0  0  0
  139.9510   69.7410  226.6990 C   0  0  0  0  0  0  0  0  0  0  0  0
  139.8707   69.1972  227.6518 H   0  0  0  0  0  0  0  0  0  0  0  0
  140.5040   71.0330  226.6760 C   0  0  0  0  0  0  0  0  0  0  0  0
  141.0150   71.6700  227.9440 C   0  0  0  0  0  0  0  0  0  0  0  0
  139.9440   72.1570  228.6710 F   0  0  0  0  0  0  0  0  0  0  0  0
  141.6970   70.7430  228.7130 F   0  0  0  0  0  0  0  0  0  0  0  0
  141.8780   72.7140  227.6590 F   0  0  0  0  0  0  0  0  0  0  0  0
  140.6530   71.6910  225.4420 C   0  0  0  0  0  0  0  0  0  0  0  0
  141.1058   72.6930  225.4105 H   0  0  0  0  0  0  0  0  0  0  0  0
  140.3490   71.7610  222.9400 C   0  0  0  0  0  0  0  0  0  0  0  0
  140.7860   71.2009  222.1002 H   0  0  0  0  0  0  0  0  0  0  0  0
  139.3080   76.0810  219.6820 C   0  0  0  0  0  0  0  0  0  0  0  0
  138.3617   76.5941  219.4556 H   0  0  0  0  0  0  0  0  0  0  0  0
  140.1617   76.7717  219.6181 H   0  0  0  0  0  0  0  0  0  0  0  0
  139.5250   74.9640  218.6500 C   0  0  0  0  0  0  0  0  0  0  0  0
  139.3016   73.9940  219.1181 H   0  0  0  0  0  0  0  0  0  0  0  0
  138.8567   75.1435  217.7949 H   0  0  0  0  0  0  0  0  0  0  0  0
  140.8770   74.9550  218.1770 O   0  0  0  0  0  0  0  0  0  0  0  0
  142.0010   74.5680  218.9280 C   0  0  0  0  0  0  0  0  0  0  0  0
  142.2420   73.2250  219.2850 C   0  0  0  0  0  0  0  0  0  0  0  0
  141.5146   72.4468  219.0106 H   0  0  0  0  0  0  0  0  0  0  0  0
  143.4010   72.8780  219.9860 C   0  0  0  0  0  0  0  0  0  0  0  0
  143.5907   71.8261  220.2458 H   0  0  0  0  0  0  0  0  0  0  0  0
  144.3180   73.8630  220.3570 C   0  0  0  0  0  0  0  0  0  0  0  0
  145.7780   73.4200  221.2230 Cl  0  0  0  0  0  0  0  0  0  0  0  0
  144.0710   75.2010  220.0400 C   0  0  0  0  0  0  0  0  0  0  0  0
  144.7871   75.9783  220.3449 H   0  0  0  0  0  0  0  0  0  0  0  0
  142.9140   75.5550  219.3350 C   0  0  0  0  0  0  0  0  0  0  0  0
  142.6410   77.2420  218.9240 Cl  0  0  0  0  0  0  0  0  0  0  0  0
  1  2  1  0
  2  3  1  0
  3  4  1  0
  4  5  1  0
  5  6  2  0
  6  7  1  0
  6  8  1  0
  8  9  2  0
  9 10  1  0
  9 11  1  0
 11 12  1  0
 11 13  2  0
 13 14  1  0
 13 15  1  0
 15 16  1  0
 16 17  1  0
 16 18  1  0
 16 19  1  0
 15 20  2  0
 20 21  1  0
  3 22  2  0
 22 23  1  0
 22 24  1  0
 24 25  1  0
 24 26  1  0
 24 27  1  0
 27 28  1  0
 27 29  1  0
 27 30  1  0
 30 31  1  0
 31 32  2  0
 32 33  1  0
 32 34  1  0
 34 35  1  0
 34 36  2  0
 36 37  1  0
 36 38  1  0
 38 39  1  0
 38 40  2  0
 40 41  1  0
 20  8  1  0
 40 31  1  0
M  CHG  1   4  -1
M  END
>  <UniqueID>  (52) 
19

>  <SMILES>  (52) 
O/C(=C\CCOc1ccc(Cl)cc1Cl)[N-]/N=C\c1cccc(C(F)(F)F)c1

>  <Energy>  (52) 
44.14522116514075

>  <Genealogy>  (52) 
O=C(CCCOc1ccc(Cl)cc1Cl)[N-]N=Cc1cccc(C(F)(F)F)c1 (protonated)
OC(=CCCOc1ccc(Cl)cc1Cl)[N-]N=Cc1cccc(C(F)(F)F)c1 (tautomer)
O/C(=C\CCOc1ccc(Cl)cc1Cl)[N-]/N=C\c1cccc(C(F)(F)F)c1 (cis-trans isomerization)
O/C(=C\CCOc1ccc(Cl)cc1Cl)[N-]/N=C\c1cccc(C(F)(F)F)c1 (3D coordinates assigned)
O/C(=C\CCOc1ccc(Cl)cc1Cl)[N-]/N=C\c1cccc(C(F)(F)F)c1 (optimized conformer: 44.14522116514075 kcal/mol)

>  <smiles>  (52) 
O=C(CCCOc1ccc(Cl)cc1Cl)NN=Cc1cccc(C(F)(F)F)c1

>  <score_type>  (52) 
oracle

>  <origin>  (52) 
autodockgpu

>  <m_score__min__energy>  (52) 
-7.1500000000000004

>  <m_primary>  (52) 
energy

>  <meeko>  (52) 
{"free_energy": -6.13, "intermolecular_energy": -9.41, "internal_energy": -1.4, "cluster_size": 4, "cluster_id": 5, "rank_in_cluster": 3}

>  <energy>  (52) 
-6.5

>  <cluster_rmsd>  (52) 
0.0

>  <rmsd>  (52) 
272.51

>  <cluster>  (52) 
4

$$$$
JBHRSOAXAGIKHA-MUXIEFDRNA-N
     RDKit          3D

 41 42  0  0  0  0  0  0  0  0999 V2000
  138.0900   73.7990  222.7710 H   0  0  0  0  0  0  0  0  0  0  0  0
  138.4420   72.9560  222.3360 O   0  0  0  0  0  0  0  0  0  0  0  0
  140.2780   71.5090  221.8000 C   0  0  0  0  0  0  0  0  0  0  0  0
  140.6370   73.8910  221.9410 N   0  0  0  0  0  0  0  0  0  0  0  0
  140.1920   75.1880  222.2410 N   0  0  0  0  0  0  0  0  0  0  0  0
  139.7890   72.7420  222.0340 C   0  0  0  0  0  0  0  0  0  0  0  0
  141.3598   71.3537  221.9246 H   0  0  0  0  0  0  0  0  0  0  0  0
  140.5330   77.6050  222.4300 C   0  0  0  0  0  0  0  0  0  0  0  0
  139.2060   77.9100  222.7660 C   0  0  0  0  0  0  0  0  0  0  0  0
  138.4201   77.1519  222.6332 H   0  0  0  0  0  0  0  0  0  0  0  0
  138.8770   79.1700  223.2680 C   0  0  0  0  0  0  0  0  0  0  0  0
  137.8372   79.3936  223.5489 H   0  0  0  0  0  0  0  0  0  0  0  0
  139.8630   80.1480  223.4150 C   0  0  0  0  0  0  0  0  0  0  0  0
  139.6009   81.1311  223.8332 H   0  0  0  0  0  0  0  0  0  0  0  0
  141.1890   79.8820  223.0310 C   0  0  0  0  0  0  0  0  0  0  0  0
  142.2630   80.9250  223.2130 C   0  0  0  0  0  0  0  0  0  0  0  0
  142.1600   81.4670  224.4810 F   0  0  0  0  0  0  0  0  0  0  0  0
  143.5180   80.3610  223.0650 F   0  0  0  0  0  0  0  0  0  0  0  0
  142.1310   81.9380  222.2780 F   0  0  0  0  0  0  0  0  0  0  0  0
  141.5190   78.6010  222.5510 C   0  0  0  0  0  0  0  0  0  0  0  0
  142.5579   78.3764  222.2677 H   0  0  0  0  0  0  0  0  0  0  0  0
  140.8460   76.2590  221.9040 C   0  0  0  0  0  0  0  0  0  0  0  0
  141.6764   76.1591  221.1896 H   0  0  0  0  0  0  0  0  0  0  0  0
  139.4440   70.3310  221.3800 C   0  0  0  0  0  0  0  0  0  0  0  0
  138.8085   70.6300  220.5334 H   0  0  0  0  0  0  0  0  0  0  0  0
  140.1265   69.5158  221.0979 H   0  0  0  0  0  0  0  0  0  0  0  0
  138.5460   69.8240  222.5190 C   0  0  0  0  0  0  0  0  0  0  0  0
  137.9994   70.6749  222.9517 H   0  0  0  0  0  0  0  0  0  0  0  0
  137.8444   69.0832  222.1080 H   0  0  0  0  0  0  0  0  0  0  0  0
  139.3220   69.1960  223.5450 O   0  0  0  0  0  0  0  0  0  0  0  0
  139.8560   69.8410  224.6750 C   0  0  0  0  0  0  0  0  0  0  0  0
  140.2050   71.2070  224.6670 C   0  0  0  0  0  0  0  0  0  0  0  0
  140.1008   71.7929  223.7419 H   0  0  0  0  0  0  0  0  0  0  0  0
  140.6830   71.8210  225.8290 C   0  0  0  0  0  0  0  0  0  0  0  0
  140.9359   72.8915  225.8198 H   0  0  0  0  0  0  0  0  0  0  0  0
  140.8400   71.0780  227.0010 C   0  0  0  0  0  0  0  0  0  0  0  0
  141.4260   71.8560  228.4600 Cl  0  0  0  0  0  0  0  0  0  0  0  0
  140.5320   69.7150  227.0080 C   0  0  0  0  0  0  0  0  0  0  0  0
  140.6695   69.1266  227.9271 H   0  0  0  0  0  0  0  0  0  0  0  0
  140.0490   69.0960  225.8490 C   0  0  0  0  0  0  0  0  0  0  0  0
  139.6430   67.3870  225.8940 Cl  0  0  0  0  0  0  0  0  0  0  0  0
  1  2  1  0
  2  3  1  0
  3  4  1  0
  4  5  1  0
  5  6  2  0
  6  7  1  0
  6  8  1  0
  8  9  2  0
  9 10  1  0
  9 11  1  0
 11 12  1  0
 11 13  2  0
 13 14  1  0
 13 15  1  0
 15 16  1  0
 16 17  1  0
 16 18  1  0
 16 19  1  0
 15 20  2  0
 20 21  1  0
  3 22  2  0
 22 23  1  0
 22 24  1  0
 24 25  1  0
 24 26  1  0
 24 27  1  0
 27 28  1  0
 27 29  1  0
 27 30  1  0
 30 31  1  0
 31 32  2  0
 32 33  1  0
 32 34  1  0
 34 35  1  0
 34 36  2  0
 36 37  1  0
 36 38  1  0
 38 39  1  0
 38 40  2  0
 40 41  1  0
 20  8  1  0
 40 31  1  0
M  CHG  1   4  -1
M  END
>  <UniqueID>  (53) 
19

>  <SMILES>  (53) 
O/C(=C\CCOc1ccc(Cl)cc1Cl)[N-]/N=C\c1cccc(C(F)(F)F)c1

>  <Energy>  (53) 
44.14522116514075

>  <Genealogy>  (53) 
O=C(CCCOc1ccc(Cl)cc1Cl)[N-]N=Cc1cccc(C(F)(F)F)c1 (protonated)
OC(=CCCOc1ccc(Cl)cc1Cl)[N-]N=Cc1cccc(C(F)(F)F)c1 (tautomer)
O/C(=C\CCOc1ccc(Cl)cc1Cl)[N-]/N=C\c1cccc(C(F)(F)F)c1 (cis-trans isomerization)
O/C(=C\CCOc1ccc(Cl)cc1Cl)[N-]/N=C\c1cccc(C(F)(F)F)c1 (3D coordinates assigned)
O/C(=C\CCOc1ccc(Cl)cc1Cl)[N-]/N=C\c1cccc(C(F)(F)F)c1 (optimized conformer: 44.14522116514075 kcal/mol)

>  <smiles>  (53) 
O=C(CCCOc1ccc(Cl)cc1Cl)NN=Cc1cccc(C(F)(F)F)c1

>  <score_type>  (53) 
oracle

>  <origin>  (53) 
autodockgpu

>  <m_score__min__energy>  (53) 
-7.1500000000000004

>  <m_primary>  (53) 
energy

>  <meeko>  (53) 
{"free_energy": -6.71, "intermolecular_energy": -9.99, "internal_energy": -0.7, "cluster_size": 1, "cluster_id": 2, "rank_in_cluster": 1}

>  <energy>  (53) 
-6.39

>  <cluster_rmsd>  (53) 
0.0

>  <rmsd>  (53) 
272.06

>  <cluster>  (53) 
5

$$$$
JBHRSOAXAGIKHA-MUXIEFDRNA-N
     RDKit          3D

 41 42  0  0  0  0  0  0  0  0999 V2000
  138.1710   73.7180  222.7310 H   0  0  0  0  0  0  0  0  0  0  0  0
  138.1480   72.7240  222.5430 O   0  0  0  0  0  0  0  0  0  0  0  0
  139.1250   71.8280  222.9800 C   0  0  0  0  0  0  0  0  0  0  0  0
  138.7090   70.7630  223.8430 N   0  0  0  0  0  0  0  0  0  0  0  0
  139.0360   69.4200  223.6000 N   0  0  0  0  0  0  0  0  0  0  0  0
  139.1700   68.5390  224.5460 C   0  0  0  0  0  0  0  0  0  0  0  0
  138.7574   67.5325  224.3826 H   0  0  0  0  0  0  0  0  0  0  0  0
  139.8480   68.8180  225.8310 C   0  0  0  0  0  0  0  0  0  0  0  0
  140.3020   67.7400  226.6040 C   0  0  0  0  0  0  0  0  0  0  0  0
  140.1476   66.7099  226.2504 H   0  0  0  0  0  0  0  0  0  0  0  0
  140.9490   67.9670  227.8200 C   0  0  0  0  0  0  0  0  0  0  0  0
  141.3205   67.1165  228.4105 H   0  0  0  0  0  0  0  0  0  0  0  0
  141.1260   69.2700  228.2890 C   0  0  0  0  0  0  0  0  0  0  0  0
  141.6579   69.4431  229.2362 H   0  0  0  0  0  0  0  0  0  0  0  0
  140.6280   70.3620  227.5570 C   0  0  0  0  0  0  0  0  0  0  0  0
  140.8400   71.7730  228.0460 C   0  0  0  0  0  0  0  0  0  0  0  0
  141.9020   71.7930  228.9310 F   0  0  0  0  0  0  0  0  0  0  0  0
  141.1220   72.6170  226.9850 F   0  0  0  0  0  0  0  0  0  0  0  0
  139.7090   72.2490  228.6880 F   0  0  0  0  0  0  0  0  0  0  0  0
  140.0010   70.1270  226.3200 C   0  0  0  0  0  0  0  0  0  0  0  0
  139.6266   70.9761  225.7294 H   0  0  0  0  0  0  0  0  0  0  0  0
  140.4210   71.9680  222.6430 C   0  0  0  0  0  0  0  0  0  0  0  0
  141.1788   71.6868  223.3891 H   0  0  0  0  0  0  0  0  0  0  0  0
  140.9010   72.4830  221.3150 C   0  0  0  0  0  0  0  0  0  0  0  0
  141.8707   72.0181  221.0836 H   0  0  0  0  0  0  0  0  0  0  0  0
  140.1449   72.2261  220.5585 H   0  0  0  0  0  0  0  0  0  0  0  0
  141.0710   74.0100  221.3150 C   0  0  0  0  0  0  0  0  0  0  0  0
  142.0139   74.2666  221.8201 H   0  0  0  0  0  0  0  0  0  0  0  0
  141.0834   74.3604  220.2724 H   0  0  0  0  0  0  0  0  0  0  0  0
  139.9860   74.6490  221.9970 O   0  0  0  0  0  0  0  0  0  0  0  0
  139.9200   76.0150  222.3260 C   0  0  0  0  0  0  0  0  0  0  0  0
  141.0730   76.7900  222.5640 C   0  0  0  0  0  0  0  0  0  0  0  0
  142.0654   76.3163  222.5363 H   0  0  0  0  0  0  0  0  0  0  0  0
  140.9630   78.1570  222.8350 C   0  0  0  0  0  0  0  0  0  0  0  0
  141.8688   78.7580  223.0029 H   0  0  0  0  0  0  0  0  0  0  0  0
  139.7050   78.7610  222.8930 C   0  0  0  0  0  0  0  0  0  0  0  0
  139.5720   80.4800  223.2180 Cl  0  0  0  0  0  0  0  0  0  0  0  0
  138.5540   77.9940  222.6950 C   0  0  0  0  0  0  0  0  0  0  0  0
  137.5628   78.4671  222.7561 H   0  0  0  0  0  0  0  0  0  0  0  0
  138.6580   76.6250  222.4190 C   0  0  0  0  0  0  0  0  0  0  0  0
  137.1950   75.6900  222.1460 Cl  0  0  0  0  0  0  0  0  0  0  0  0
  1  2  1  0
  2  3  1  0
  3  4  1  0
  4  5  1  0
  5  6  2  0
  6  7  1  0
  6  8  1  0
  8  9  2  0
  9 10  1  0
  9 11  1  0
 11 12  1  0
 11 13  2  0
 13 14  1  0
 13 15  1  0
 15 16  1  0
 16 17  1  0
 16 18  1  0
 16 19  1  0
 15 20  2  0
 20 21  1  0
  3 22  2  0
 22 23  1  0
 22 24  1  0
 24 25  1  0
 24 26  1  0
 24 27  1  0
 27 28  1  0
 27 29  1  0
 27 30  1  0
 30 31  1  0
 31 32  2  0
 32 33  1  0
 32 34  1  0
 34 35  1  0
 34 36  2  0
 36 37  1  0
 36 38  1  0
 38 39  1  0
 38 40  2  0
 40 41  1  0
 20  8  1  0
 40 31  1  0
M  CHG  1   4  -1
M  END
>  <UniqueID>  (54) 
19

>  <SMILES>  (54) 
O/C(=C\CCOc1ccc(Cl)cc1Cl)[N-]/N=C\c1cccc(C(F)(F)F)c1

>  <Energy>  (54) 
44.14522116514075

>  <Genealogy>  (54) 
O=C(CCCOc1ccc(Cl)cc1Cl)[N-]N=Cc1cccc(C(F)(F)F)c1 (protonated)
OC(=CCCOc1ccc(Cl)cc1Cl)[N-]N=Cc1cccc(C(F)(F)F)c1 (tautomer)
O/C(=C\CCOc1ccc(Cl)cc1Cl)[N-]/N=C\c1cccc(C(F)(F)F)c1 (cis-trans isomerization)
O/C(=C\CCOc1ccc(Cl)cc1Cl)[N-]/N=C\c1cccc(C(F)(F)F)c1 (3D coordinates assigned)
O/C(=C\CCOc1ccc(Cl)cc1Cl)[N-]/N=C\c1cccc(C(F)(F)F)c1 (optimized conformer: 44.14522116514075 kcal/mol)

>  <smiles>  (54) 
O=C(CCCOc1ccc(Cl)cc1Cl)NN=Cc1cccc(C(F)(F)F)c1

>  <score_type>  (54) 
oracle

>  <origin>  (54) 
autodockgpu

>  <m_score__min__energy>  (54) 
-7.1500000000000004

>  <m_primary>  (54) 
energy

>  <meeko>  (54) 
{"free_energy": -6.5, "intermolecular_energy": -9.79, "internal_energy": -1.24, "cluster_size": 1, "cluster_id": 4, "rank_in_cluster": 1}

>  <energy>  (54) 
-6.14

>  <cluster_rmsd>  (54) 
0.83

>  <rmsd>  (54) 
272.06

>  <cluster>  (54) 
5

$$$$
JBHRSOAXAGIKHA-MUXIEFDRNA-N
     RDKit          3D

 41 42  0  0  0  0  0  0  0  0999 V2000
  138.9640   74.0520  222.9880 H   0  0  0  0  0  0  0  0  0  0  0  0
  139.6770   74.1760  222.2810 O   0  0  0  0  0  0  0  0  0  0  0  0
  141.5620   73.3470  221.0510 C   0  0  0  0  0  0  0  0  0  0  0  0
  139.9740   71.7930  221.9910 N   0  0  0  0  0  0  0  0  0  0  0  0
  139.4010   71.4010  223.2110 N   0  0  0  0  0  0  0  0  0  0  0  0
  140.4290   73.1280  221.7440 C   0  0  0  0  0  0  0  0  0  0  0  0
  142.0145   72.4942  220.5237 H   0  0  0  0  0  0  0  0  0  0  0  0
  139.9500   69.9650  225.1170 C   0  0  0  0  0  0  0  0  0  0  0  0
  139.9610   68.6470  225.5960 C   0  0  0  0  0  0  0  0  0  0  0  0
  139.6701   67.8208  224.9307 H   0  0  0  0  0  0  0  0  0  0  0  0
  140.3390   68.3780  226.9120 C   0  0  0  0  0  0  0  0  0  0  0  0
  140.3661   67.3393  227.2732 H   0  0  0  0  0  0  0  0  0  0  0  0
  140.6830   69.4230  227.7720 C   0  0  0  0  0  0  0  0  0  0  0  0
  141.0027   69.2018  228.8010 H   0  0  0  0  0  0  0  0  0  0  0  0
  140.6230   70.7560  227.3300 C   0  0  0  0  0  0  0  0  0  0  0  0
  141.0200   71.8860  228.2460 C   0  0  0  0  0  0  0  0  0  0  0  0
  139.9270   72.2610  229.0050 F   0  0  0  0  0  0  0  0  0  0  0  0
  142.0410   71.4890  229.0930 F   0  0  0  0  0  0  0  0  0  0  0  0
  141.4610   72.9790  227.5200 F   0  0  0  0  0  0  0  0  0  0  0  0
  140.2680   71.0180  225.9940 C   0  0  0  0  0  0  0  0  0  0  0  0
  140.2388   72.0562  225.6317 H   0  0  0  0  0  0  0  0  0  0  0  0
  139.5470   70.2130  223.7150 C   0  0  0  0  0  0  0  0  0  0  0  0
  139.3612   69.3451  223.0652 H   0  0  0  0  0  0  0  0  0  0  0  0
  142.2500   74.6800  220.9500 C   0  0  0  0  0  0  0  0  0  0  0  0
  142.1652   75.1972  221.9171 H   0  0  0  0  0  0  0  0  0  0  0  0
  143.3022   74.4991  220.6853 H   0  0  0  0  0  0  0  0  0  0  0  0
  141.6330   75.5670  219.8580 C   0  0  0  0  0  0  0  0  0  0  0  0
  142.4394   76.0799  219.3134 H   0  0  0  0  0  0  0  0  0  0  0  0
  141.0516   74.9289  219.1763 H   0  0  0  0  0  0  0  0  0  0  0  0
  140.7550   76.5460  220.4250 O   0  0  0  0  0  0  0  0  0  0  0  0
  141.1450   77.5990  221.2710 C   0  0  0  0  0  0  0  0  0  0  0  0
  141.0240   77.5230  222.6730 C   0  0  0  0  0  0  0  0  0  0  0  0
  140.5734   76.6327  223.1359 H   0  0  0  0  0  0  0  0  0  0  0  0
  141.4740   78.5740  223.4790 C   0  0  0  0  0  0  0  0  0  0  0  0
  141.3918   78.5001  224.5734 H   0  0  0  0  0  0  0  0  0  0  0  0
  142.0270   79.7160  222.8980 C   0  0  0  0  0  0  0  0  0  0  0  0
  142.6040   81.0250  223.9140 Cl  0  0  0  0  0  0  0  0  0  0  0  0
  142.1170   79.8170  221.5070 C   0  0  0  0  0  0  0  0  0  0  0  0
  142.5386   80.7239  221.0490 H   0  0  0  0  0  0  0  0  0  0  0  0
  141.6720   78.7670  220.6950 C   0  0  0  0  0  0  0  0  0  0  0  0
  141.8230   78.9080  218.9500 Cl  0  0  0  0  0  0  0  0  0  0  0  0
  1  2  1  0
  2  3  1  0
  3  4  1  0
  4  5  1  0
  5  6  2  0
  6  7  1  0
  6  8  1  0
  8  9  2  0
  9 10  1  0
  9 11  1  0
 11 12  1  0
 11 13  2  0
 13 14  1  0
 13 15  1  0
 15 16  1  0
 16 17  1  0
 16 18  1  0
 16 19  1  0
 15 20  2  0
 20 21  1  0
  3 22  2  0
 22 23  1  0
 22 24  1  0
 24 25  1  0
 24 26  1  0
 24 27  1  0
 27 28  1  0
 27 29  1  0
 27 30  1  0
 30 31  1  0
 31 32  2  0
 32 33  1  0
 32 34  1  0
 34 35  1  0
 34 36  2  0
 36 37  1  0
 36 38  1  0
 38 39  1  0
 38 40  2  0
 40 41  1  0
 20  8  1  0
 40 31  1  0
M  CHG  1   4  -1
M  END
>  <UniqueID>  (55) 
19

>  <SMILES>  (55) 
O/C(=C\CCOc1ccc(Cl)cc1Cl)[N-]/N=C\c1cccc(C(F)(F)F)c1

>  <Energy>  (55) 
44.14522116514075

>  <Genealogy>  (55) 
O=C(CCCOc1ccc(Cl)cc1Cl)[N-]N=Cc1cccc(C(F)(F)F)c1 (protonated)
OC(=CCCOc1ccc(Cl)cc1Cl)[N-]N=Cc1cccc(C(F)(F)F)c1 (tautomer)
O/C(=C\CCOc1ccc(Cl)cc1Cl)[N-]/N=C\c1cccc(C(F)(F)F)c1 (cis-trans isomerization)
O/C(=C\CCOc1ccc(Cl)cc1Cl)[N-]/N=C\c1cccc(C(F)(F)F)c1 (3D coordinates assigned)
O/C(=C\CCOc1ccc(Cl)cc1Cl)[N-]/N=C\c1cccc(C(F)(F)F)c1 (optimized conformer: 44.14522116514075 kcal/mol)

>  <smiles>  (55) 
O=C(CCCOc1ccc(Cl)cc1Cl)NN=Cc1cccc(C(F)(F)F)c1

>  <score_type>  (55) 
oracle

>  <origin>  (55) 
autodockgpu

>  <m_score__min__energy>  (55) 
-7.1500000000000004

>  <m_primary>  (55) 
energy

>  <meeko>  (55) 
{"free_energy": -7.13, "intermolecular_energy": -10.41, "internal_energy": -0.8, "cluster_size": 9, "cluster_id": 1, "rank_in_cluster": 2}

>  <energy>  (55) 
-6.13

>  <cluster_rmsd>  (55) 
1.88

>  <rmsd>  (55) 
271.95

>  <cluster>  (55) 
5

$$$$
JBHRSOAXAGIKHA-MUXIEFDRNA-N
     RDKit          3D

 41 42  0  0  0  0  0  0  0  0999 V2000
  139.4130   73.5990  223.0440 H   0  0  0  0  0  0  0  0  0  0  0  0
  139.3930   74.3380  222.3530 O   0  0  0  0  0  0  0  0  0  0  0  0
  140.3610   74.4970  221.3590 C   0  0  0  0  0  0  0  0  0  0  0  0
  140.4190   75.7600  220.6870 N   0  0  0  0  0  0  0  0  0  0  0  0
  141.4880   76.6550  220.8460 N   0  0  0  0  0  0  0  0  0  0  0  0
  142.4180   76.8160  219.9540 C   0  0  0  0  0  0  0  0  0  0  0  0
  142.6160   77.8337  219.5864 H   0  0  0  0  0  0  0  0  0  0  0  0
  143.2250   75.7050  219.4060 C   0  0  0  0  0  0  0  0  0  0  0  0
  143.1730   75.4430  218.0290 C   0  0  0  0  0  0  0  0  0  0  0  0
  142.5352   76.0599  217.3789 H   0  0  0  0  0  0  0  0  0  0  0  0
  143.9250   74.4050  217.4790 C   0  0  0  0  0  0  0  0  0  0  0  0
  143.8950   74.2213  216.3949 H   0  0  0  0  0  0  0  0  0  0  0  0
  144.7160   73.5980  218.3000 C   0  0  0  0  0  0  0  0  0  0  0  0
  145.3237   72.7953  217.8569 H   0  0  0  0  0  0  0  0  0  0  0  0
  144.7390   73.8070  219.6900 C   0  0  0  0  0  0  0  0  0  0  0  0
  145.6130   72.9570  220.5770 C   0  0  0  0  0  0  0  0  0  0  0  0
  146.3050   72.0480  219.7980 F   0  0  0  0  0  0  0  0  0  0  0  0
  146.5210   73.7450  221.2640 F   0  0  0  0  0  0  0  0  0  0  0  0
  144.8520   72.2670  221.5060 F   0  0  0  0  0  0  0  0  0  0  0  0
  144.0000   74.8730  220.2340 C   0  0  0  0  0  0  0  0  0  0  0  0
  144.0284   75.0579  221.3180 H   0  0  0  0  0  0  0  0  0  0  0  0
  141.1920   73.4970  221.0080 C   0  0  0  0  0  0  0  0  0  0  0  0
  141.7540   73.6019  220.0682 H   0  0  0  0  0  0  0  0  0  0  0  0
  141.4020   72.2470  221.8160 C   0  0  0  0  0  0  0  0  0  0  0  0
  142.0665   71.5713  221.2575 H   0  0  0  0  0  0  0  0  0  0  0  0
  141.8458   72.5376  222.7796 H   0  0  0  0  0  0  0  0  0  0  0  0
  140.0820   71.5160  222.1050 C   0  0  0  0  0  0  0  0  0  0  0  0
  139.3200   71.8526  221.3866 H   0  0  0  0  0  0  0  0  0  0  0  0
  140.2530   70.4337  222.0079 H   0  0  0  0  0  0  0  0  0  0  0  0
  139.6240   71.7870  223.4340 O   0  0  0  0  0  0  0  0  0  0  0  0
  139.9260   71.0220  224.5740 C   0  0  0  0  0  0  0  0  0  0  0  0
  140.8470   71.4540  225.5490 C   0  0  0  0  0  0  0  0  0  0  0  0
  141.3880   72.4014  225.4086 H   0  0  0  0  0  0  0  0  0  0  0  0
  141.0770   70.6850  226.6940 C   0  0  0  0  0  0  0  0  0  0  0  0
  141.7844   71.0374  227.4591 H   0  0  0  0  0  0  0  0  0  0  0  0
  140.4100   69.4700  226.8680 C   0  0  0  0  0  0  0  0  0  0  0  0
  140.6900   68.5170  228.3140 Cl  0  0  0  0  0  0  0  0  0  0  0  0
  139.5230   69.0150  225.8900 C   0  0  0  0  0  0  0  0  0  0  0  0
  139.0093   68.0512  226.0208 H   0  0  0  0  0  0  0  0  0  0  0  0
  139.2860   69.7830  224.7430 C   0  0  0  0  0  0  0  0  0  0  0  0
  138.1440   69.2000  223.5410 Cl  0  0  0  0  0  0  0  0  0  0  0  0
  1  2  1  0
  2  3  1  0
  3  4  1  0
  4  5  1  0
  5  6  2  0
  6  7  1  0
  6  8  1  0
  8  9  2  0
  9 10  1  0
  9 11  1  0
 11 12  1  0
 11 13  2  0
 13 14  1  0
 13 15  1  0
 15 16  1  0
 16 17  1  0
 16 18  1  0
 16 19  1  0
 15 20  2  0
 20 21  1  0
  3 22  2  0
 22 23  1  0
 22 24  1  0
 24 25  1  0
 24 26  1  0
 24 27  1  0
 27 28  1  0
 27 29  1  0
 27 30  1  0
 30 31  1  0
 31 32  2  0
 32 33  1  0
 32 34  1  0
 34 35  1  0
 34 36  2  0
 36 37  1  0
 36 38  1  0
 38 39  1  0
 38 40  2  0
 40 41  1  0
 20  8  1  0
 40 31  1  0
M  CHG  1   4  -1
M  END
>  <UniqueID>  (56) 
19

>  <SMILES>  (56) 
O/C(=C\CCOc1ccc(Cl)cc1Cl)[N-]/N=C\c1cccc(C(F)(F)F)c1

>  <Energy>  (56) 
44.14522116514075

>  <Genealogy>  (56) 
O=C(CCCOc1ccc(Cl)cc1Cl)[N-]N=Cc1cccc(C(F)(F)F)c1 (protonated)
OC(=CCCOc1ccc(Cl)cc1Cl)[N-]N=Cc1cccc(C(F)(F)F)c1 (tautomer)
O/C(=C\CCOc1ccc(Cl)cc1Cl)[N-]/N=C\c1cccc(C(F)(F)F)c1 (cis-trans isomerization)
O/C(=C\CCOc1ccc(Cl)cc1Cl)[N-]/N=C\c1cccc(C(F)(F)F)c1 (3D coordinates assigned)
O/C(=C\CCOc1ccc(Cl)cc1Cl)[N-]/N=C\c1cccc(C(F)(F)F)c1 (optimized conformer: 44.14522116514075 kcal/mol)

>  <smiles>  (56) 
O=C(CCCOc1ccc(Cl)cc1Cl)NN=Cc1cccc(C(F)(F)F)c1

>  <score_type>  (56) 
oracle

>  <origin>  (56) 
autodockgpu

>  <m_score__min__energy>  (56) 
-7.1500000000000004

>  <m_primary>  (56) 
energy

>  <meeko>  (56) 
{"free_energy": -5.48, "intermolecular_energy": -8.76, "internal_energy": -1.62, "cluster_size": 1, "cluster_id": 8, "rank_in_cluster": 1}

>  <energy>  (56) 
-5.85

>  <cluster_rmsd>  (56) 
1.74

>  <rmsd>  (56) 
272.0

>  <cluster>  (56) 
5

$$$$
JBHRSOAXAGIKHA-MUXIEFDRNA-N
     RDKit          3D

 41 42  0  0  0  0  0  0  0  0999 V2000
  139.2140   75.2140  223.3860 H   0  0  0  0  0  0  0  0  0  0  0  0
  139.5770   75.1400  222.4440 O   0  0  0  0  0  0  0  0  0  0  0  0
  138.6710   73.8930  220.6080 C   0  0  0  0  0  0  0  0  0  0  0  0
  140.3540   72.8910  222.0160 N   0  0  0  0  0  0  0  0  0  0  0  0
  140.6890   72.5830  223.3440 N   0  0  0  0  0  0  0  0  0  0  0  0
  139.4950   73.9820  221.6690 C   0  0  0  0  0  0  0  0  0  0  0  0
  137.7328   73.3323  220.7321 H   0  0  0  0  0  0  0  0  0  0  0  0
  140.7190   71.0840  225.2800 C   0  0  0  0  0  0  0  0  0  0  0  0
  141.0520   72.1210  226.1640 C   0  0  0  0  0  0  0  0  0  0  0  0
  141.2314   73.1343  225.7753 H   0  0  0  0  0  0  0  0  0  0  0  0
  141.1570   71.8750  227.5330 C   0  0  0  0  0  0  0  0  0  0  0  0
  141.3973   72.6988  228.2211 H   0  0  0  0  0  0  0  0  0  0  0  0
  140.9580   70.5860  228.0330 C   0  0  0  0  0  0  0  0  0  0  0  0
  141.0191   70.4035  229.1160 H   0  0  0  0  0  0  0  0  0  0  0  0
  140.6800   69.5210  227.1590 C   0  0  0  0  0  0  0  0  0  0  0  0
  140.4370   68.1330  227.6960 C   0  0  0  0  0  0  0  0  0  0  0  0
  140.4240   68.1760  229.0780 F   0  0  0  0  0  0  0  0  0  0  0  0
  139.2210   67.6450  227.2480 F   0  0  0  0  0  0  0  0  0  0  0  0
  141.4310   67.2620  227.2820 F   0  0  0  0  0  0  0  0  0  0  0  0
  140.5490   69.7820  225.7830 C   0  0  0  0  0  0  0  0  0  0  0  0
  140.3111   68.9589  225.0932 H   0  0  0  0  0  0  0  0  0  0  0  0
  140.6130   71.3830  223.8350 C   0  0  0  0  0  0  0  0  0  0  0  0
  140.4618   70.5444  223.1394 H   0  0  0  0  0  0  0  0  0  0  0  0
  138.9480   74.5090  219.2650 C   0  0  0  0  0  0  0  0  0  0  0  0
  138.0220   74.4966  218.6714 H   0  0  0  0  0  0  0  0  0  0  0  0
  139.3024   75.5371  219.4308 H   0  0  0  0  0  0  0  0  0  0  0  0
  140.0400   73.7510  218.4950 C   0  0  0  0  0  0  0  0  0  0  0  0
  140.2144   72.7798  218.9812 H   0  0  0  0  0  0  0  0  0  0  0  0
  139.7020   73.6083  217.4580 H   0  0  0  0  0  0  0  0  0  0  0  0
  141.2650   74.4920  218.4770 O   0  0  0  0  0  0  0  0  0  0  0  0
  142.4050   74.2040  219.2480 C   0  0  0  0  0  0  0  0  0  0  0  0
  142.6890   72.9060  219.7190 C   0  0  0  0  0  0  0  0  0  0  0  0
  141.9833   72.0860  219.5200 H   0  0  0  0  0  0  0  0  0  0  0  0
  143.8610   72.6540  220.4370 C   0  0  0  0  0  0  0  0  0  0  0  0
  144.0830   71.6348  220.7861 H   0  0  0  0  0  0  0  0  0  0  0  0
  144.7510   73.6950  220.7120 C   0  0  0  0  0  0  0  0  0  0  0  0
  146.2290   73.3720  221.6010 Cl  0  0  0  0  0  0  0  0  0  0  0  0
  144.4620   74.9920  220.2830 C   0  0  0  0  0  0  0  0  0  0  0  0
  145.1558   75.8138  220.5139 H   0  0  0  0  0  0  0  0  0  0  0  0
  143.2900   75.2490  219.5590 C   0  0  0  0  0  0  0  0  0  0  0  0
  142.9640   76.8850  219.0070 Cl  0  0  0  0  0  0  0  0  0  0  0  0
  1  2  1  0
  2  3  1  0
  3  4  1  0
  4  5  1  0
  5  6  2  0
  6  7  1  0
  6  8  1  0
  8  9  2  0
  9 10  1  0
  9 11  1  0
 11 12  1  0
 11 13  2  0
 13 14  1  0
 13 15  1  0
 15 16  1  0
 16 17  1  0
 16 18  1  0
 16 19  1  0
 15 20  2  0
 20 21  1  0
  3 22  2  0
 22 23  1  0
 22 24  1  0
 24 25  1  0
 24 26  1  0
 24 27  1  0
 27 28  1  0
 27 29  1  0
 27 30  1  0
 30 31  1  0
 31 32  2  0
 32 33  1  0
 32 34  1  0
 34 35  1  0
 34 36  2  0
 36 37  1  0
 36 38  1  0
 38 39  1  0
 38 40  2  0
 40 41  1  0
 20  8  1  0
 40 31  1  0
M  CHG  1   4  -1
M  END
>  <UniqueID>  (57) 
19

>  <SMILES>  (57) 
O/C(=C\CCOc1ccc(Cl)cc1Cl)[N-]/N=C\c1cccc(C(F)(F)F)c1

>  <Energy>  (57) 
44.14522116514075

>  <Genealogy>  (57) 
O=C(CCCOc1ccc(Cl)cc1Cl)[N-]N=Cc1cccc(C(F)(F)F)c1 (protonated)
OC(=CCCOc1ccc(Cl)cc1Cl)[N-]N=Cc1cccc(C(F)(F)F)c1 (tautomer)
O/C(=C\CCOc1ccc(Cl)cc1Cl)[N-]/N=C\c1cccc(C(F)(F)F)c1 (cis-trans isomerization)
O/C(=C\CCOc1ccc(Cl)cc1Cl)[N-]/N=C\c1cccc(C(F)(F)F)c1 (3D coordinates assigned)
O/C(=C\CCOc1ccc(Cl)cc1Cl)[N-]/N=C\c1cccc(C(F)(F)F)c1 (optimized conformer: 44.14522116514075 kcal/mol)

>  <smiles>  (57) 
O=C(CCCOc1ccc(Cl)cc1Cl)NN=Cc1cccc(C(F)(F)F)c1

>  <score_type>  (57) 
oracle

>  <origin>  (57) 
autodockgpu

>  <m_score__min__energy>  (57) 
-7.1500000000000004

>  <m_primary>  (57) 
energy

>  <meeko>  (57) 
{"free_energy": -6.04, "intermolecular_energy": -9.32, "internal_energy": -1.1, "cluster_size": 1, "cluster_id": 7, "rank_in_cluster": 1}

>  <energy>  (57) 
-6.14

>  <cluster_rmsd>  (57) 
0.0

>  <rmsd>  (57) 
272.27

>  <cluster>  (57) 
6

$$$$
JBHRSOAXAGIKHA-MUXIEFDRNA-N
     RDKit          3D

 41 42  0  0  0  0  0  0  0  0999 V2000
  142.1940   75.2560  221.9830 H   0  0  0  0  0  0  0  0  0  0  0  0
  141.4420   75.9290  222.0600 O   0  0  0  0  0  0  0  0  0  0  0  0
  140.0890   75.5940  221.9710 C   0  0  0  0  0  0  0  0  0  0  0  0
  139.7460   74.2060  222.0250 N   0  0  0  0  0  0  0  0  0  0  0  0
  140.6080   73.2320  222.5510 N   0  0  0  0  0  0  0  0  0  0  0  0
  140.2970   71.9730  222.6270 C   0  0  0  0  0  0  0  0  0  0  0  0
  140.1130   71.4248  221.6913 H   0  0  0  0  0  0  0  0  0  0  0  0
  140.1770   71.2370  223.9050 C   0  0  0  0  0  0  0  0  0  0  0  0
  139.5750   69.9710  223.9040 C   0  0  0  0  0  0  0  0  0  0  0  0
  139.1997   69.5449  222.9619 H   0  0  0  0  0  0  0  0  0  0  0  0
  139.4490   69.2480  225.0910 C   0  0  0  0  0  0  0  0  0  0  0  0
  138.9945   68.2464  225.0773 H   0  0  0  0  0  0  0  0  0  0  0  0
  139.8980   69.7920  226.2960 C   0  0  0  0  0  0  0  0  0  0  0  0
  139.8179   69.2070  227.2241 H   0  0  0  0  0  0  0  0  0  0  0  0
  140.4520   71.0840  226.3290 C   0  0  0  0  0  0  0  0  0  0  0  0
  140.9630   71.6660  227.6230 C   0  0  0  0  0  0  0  0  0  0  0  0
  141.5390   70.6600  228.3770 F   0  0  0  0  0  0  0  0  0  0  0  0
  141.9120   72.6430  227.3750 F   0  0  0  0  0  0  0  0  0  0  0  0
  139.9320   72.2390  228.3480 F   0  0  0  0  0  0  0  0  0  0  0  0
  140.6010   71.7950  225.1240 C   0  0  0  0  0  0  0  0  0  0  0  0
  141.0537   72.7974  225.1357 H   0  0  0  0  0  0  0  0  0  0  0  0
  139.1350   76.5290  221.8020 C   0  0  0  0  0  0  0  0  0  0  0  0
  139.2096   77.1857  220.9227 H   0  0  0  0  0  0  0  0  0  0  0  0
  137.9750   76.7350  222.7350 C   0  0  0  0  0  0  0  0  0  0  0  0
  138.0963   76.0710  223.6036 H   0  0  0  0  0  0  0  0  0  0  0  0
  137.9683   77.7923  223.0385 H   0  0  0  0  0  0  0  0  0  0  0  0
  136.6290   76.4280  222.0610 C   0  0  0  0  0  0  0  0  0  0  0  0
  136.1644   77.3718  221.7396 H   0  0  0  0  0  0  0  0  0  0  0  0
  136.8120   75.7736  221.1959 H   0  0  0  0  0  0  0  0  0  0  0  0
  135.7440   75.7540  222.9630 O   0  0  0  0  0  0  0  0  0  0  0  0
  135.7940   74.3860  223.2860 C   0  0  0  0  0  0  0  0  0  0  0  0
  136.4850   73.4490  222.4910 C   0  0  0  0  0  0  0  0  0  0  0  0
  136.9725   73.7750  221.5604 H   0  0  0  0  0  0  0  0  0  0  0  0
  136.5540   72.1080  222.8790 C   0  0  0  0  0  0  0  0  0  0  0  0
  137.1090   71.3860  222.2620 H   0  0  0  0  0  0  0  0  0  0  0  0
  135.9200   71.6830  224.0480 C   0  0  0  0  0  0  0  0  0  0  0  0
  136.0220   70.0010  224.5390 Cl  0  0  0  0  0  0  0  0  0  0  0  0
  135.2020   72.5960  224.8240 C   0  0  0  0  0  0  0  0  0  0  0  0
  134.6904   72.2573  225.7370 H   0  0  0  0  0  0  0  0  0  0  0  0
  135.1320   73.9420  224.4420 C   0  0  0  0  0  0  0  0  0  0  0  0
  134.2460   75.0760  225.4510 Cl  0  0  0  0  0  0  0  0  0  0  0  0
  1  2  1  0
  2  3  1  0
  3  4  1  0
  4  5  1  0
  5  6  2  0
  6  7  1  0
  6  8  1  0
  8  9  2  0
  9 10  1  0
  9 11  1  0
 11 12  1  0
 11 13  2  0
 13 14  1  0
 13 15  1  0
 15 16  1  0
 16 17  1  0
 16 18  1  0
 16 19  1  0
 15 20  2  0
 20 21  1  0
  3 22  2  0
 22 23  1  0
 22 24  1  0
 24 25  1  0
 24 26  1  0
 24 27  1  0
 27 28  1  0
 27 29  1  0
 27 30  1  0
 30 31  1  0
 31 32  2  0
 32 33  1  0
 32 34  1  0
 34 35  1  0
 34 36  2  0
 36 37  1  0
 36 38  1  0
 38 39  1  0
 38 40  2  0
 40 41  1  0
 20  8  1  0
 40 31  1  0
M  CHG  1   4  -1
M  END
>  <UniqueID>  (58) 
19

>  <SMILES>  (58) 
O/C(=C\CCOc1ccc(Cl)cc1Cl)[N-]/N=C\c1cccc(C(F)(F)F)c1

>  <Energy>  (58) 
44.14522116514075

>  <Genealogy>  (58) 
O=C(CCCOc1ccc(Cl)cc1Cl)[N-]N=Cc1cccc(C(F)(F)F)c1 (protonated)
OC(=CCCOc1ccc(Cl)cc1Cl)[N-]N=Cc1cccc(C(F)(F)F)c1 (tautomer)
O/C(=C\CCOc1ccc(Cl)cc1Cl)[N-]/N=C\c1cccc(C(F)(F)F)c1 (cis-trans isomerization)
O/C(=C\CCOc1ccc(Cl)cc1Cl)[N-]/N=C\c1cccc(C(F)(F)F)c1 (3D coordinates assigned)
O/C(=C\CCOc1ccc(Cl)cc1Cl)[N-]/N=C\c1cccc(C(F)(F)F)c1 (optimized conformer: 44.14522116514075 kcal/mol)

>  <smiles>  (58) 
O=C(CCCOc1ccc(Cl)cc1Cl)NN=Cc1cccc(C(F)(F)F)c1

>  <score_type>  (58) 
oracle

>  <origin>  (58) 
autodockgpu

>  <m_score__min__energy>  (58) 
-7.1500000000000004

>  <m_primary>  (58) 
energy

>  <meeko>  (58) 
{"free_energy": -5.17, "intermolecular_energy": -8.45, "internal_energy": -1.79, "cluster_size": 1, "cluster_id": 9, "rank_in_cluster": 1}

>  <energy>  (58) 
-6.04

>  <cluster_rmsd>  (58) 
0.0

>  <rmsd>  (58) 
271.99

>  <cluster>  (58) 
7

$$$$
JBHRSOAXAGIKHA-MUXIEFDRNA-N
     RDKit          3D

 41 42  0  0  0  0  0  0  0  0999 V2000
  140.5720   75.8010  222.4990 H   0  0  0  0  0  0  0  0  0  0  0  0
  140.8850   74.8740  222.2400 O   0  0  0  0  0  0  0  0  0  0  0  0
  140.0240   73.7980  222.0170 C   0  0  0  0  0  0  0  0  0  0  0  0
  140.3220   72.5640  222.6790 N   0  0  0  0  0  0  0  0  0  0  0  0
  139.6300   71.3730  222.4100 N   0  0  0  0  0  0  0  0  0  0  0  0
  138.9260   70.7430  223.3030 C   0  0  0  0  0  0  0  0  0  0  0  0
  137.8686   70.5359  223.0817 H   0  0  0  0  0  0  0  0  0  0  0  0
  139.4720   70.2900  224.6010 C   0  0  0  0  0  0  0  0  0  0  0  0
  139.4730   68.9180  224.8930 C   0  0  0  0  0  0  0  0  0  0  0  0
  139.0697   68.2026  224.1612 H   0  0  0  0  0  0  0  0  0  0  0  0
  139.9830   68.4560  226.1070 C   0  0  0  0  0  0  0  0  0  0  0  0
  139.9991   67.3769  226.3196 H   0  0  0  0  0  0  0  0  0  0  0  0
  140.4730   69.3590  227.0530 C   0  0  0  0  0  0  0  0  0  0  0  0
  140.8955   68.9863  227.9977 H   0  0  0  0  0  0  0  0  0  0  0  0
  140.4290   70.7420  226.8040 C   0  0  0  0  0  0  0  0  0  0  0  0
  140.9830   71.7200  227.8100 C   0  0  0  0  0  0  0  0  0  0  0  0
  141.7400   72.6700  227.1510 F   0  0  0  0  0  0  0  0  0  0  0  0
  139.9550   72.3530  228.4880 F   0  0  0  0  0  0  0  0  0  0  0  0
  141.7800   71.0730  228.7390 F   0  0  0  0  0  0  0  0  0  0  0  0
  139.9390   71.1990  225.5670 C   0  0  0  0  0  0  0  0  0  0  0  0
  139.9210   72.2779  225.3533 H   0  0  0  0  0  0  0  0  0  0  0  0
  138.9700   73.8900  221.1840 C   0  0  0  0  0  0  0  0  0  0  0  0
  139.0183   73.3411  220.2320 H   0  0  0  0  0  0  0  0  0  0  0  0
  137.7320   74.6930  221.4690 C   0  0  0  0  0  0  0  0  0  0  0  0
  137.2456   74.9455  220.5152 H   0  0  0  0  0  0  0  0  0  0  0  0
  137.0721   74.0842  222.1045 H   0  0  0  0  0  0  0  0  0  0  0  0
  138.0480   75.9940  222.2240 C   0  0  0  0  0  0  0  0  0  0  0  0
  137.1164   76.5606  222.3694 H   0  0  0  0  0  0  0  0  0  0  0  0
  138.4979   75.7352  223.1939 H   0  0  0  0  0  0  0  0  0  0  0  0
  138.9770   76.8010  221.4920 O   0  0  0  0  0  0  0  0  0  0  0  0
  139.7960   77.8040  222.0410 C   0  0  0  0  0  0  0  0  0  0  0  0
  139.3790   78.6100  223.1200 C   0  0  0  0  0  0  0  0  0  0  0  0
  138.3660   78.4914  223.5320 H   0  0  0  0  0  0  0  0  0  0  0  0
  140.2460   79.5590  223.6690 C   0  0  0  0  0  0  0  0  0  0  0  0
  139.9199   80.1717  224.5224 H   0  0  0  0  0  0  0  0  0  0  0  0
  141.5260   79.7310  223.1360 C   0  0  0  0  0  0  0  0  0  0  0  0
  142.6150   80.9140  223.8380 Cl  0  0  0  0  0  0  0  0  0  0  0  0
  141.9350   78.9640  222.0430 C   0  0  0  0  0  0  0  0  0  0  0  0
  142.9373   79.1107  221.6143 H   0  0  0  0  0  0  0  0  0  0  0  0
  141.0720   78.0080  221.4910 C   0  0  0  0  0  0  0  0  0  0  0  0
  141.6220   77.0370  220.1340 Cl  0  0  0  0  0  0  0  0  0  0  0  0
  1  2  1  0
  2  3  1  0
  3  4  1  0
  4  5  1  0
  5  6  2  0
  6  7  1  0
  6  8  1  0
  8  9  2  0
  9 10  1  0
  9 11  1  0
 11 12  1  0
 11 13  2  0
 13 14  1  0
 13 15  1  0
 15 16  1  0
 16 17  1  0
 16 18  1  0
 16 19  1  0
 15 20  2  0
 20 21  1  0
  3 22  2  0
 22 23  1  0
 22 24  1  0
 24 25  1  0
 24 26  1  0
 24 27  1  0
 27 28  1  0
 27 29  1  0
 27 30  1  0
 30 31  1  0
 31 32  2  0
 32 33  1  0
 32 34  1  0
 34 35  1  0
 34 36  2  0
 36 37  1  0
 36 38  1  0
 38 39  1  0
 38 40  2  0
 40 41  1  0
 20  8  1  0
 40 31  1  0
M  CHG  1   4  -1
M  END
>  <UniqueID>  (59) 
19

>  <SMILES>  (59) 
O/C(=C\CCOc1ccc(Cl)cc1Cl)[N-]/N=C\c1cccc(C(F)(F)F)c1

>  <Energy>  (59) 
44.14522116514075

>  <Genealogy>  (59) 
O=C(CCCOc1ccc(Cl)cc1Cl)[N-]N=Cc1cccc(C(F)(F)F)c1 (protonated)
OC(=CCCOc1ccc(Cl)cc1Cl)[N-]N=Cc1cccc(C(F)(F)F)c1 (tautomer)
O/C(=C\CCOc1ccc(Cl)cc1Cl)[N-]/N=C\c1cccc(C(F)(F)F)c1 (cis-trans isomerization)
O/C(=C\CCOc1ccc(Cl)cc1Cl)[N-]/N=C\c1cccc(C(F)(F)F)c1 (3D coordinates assigned)
O/C(=C\CCOc1ccc(Cl)cc1Cl)[N-]/N=C\c1cccc(C(F)(F)F)c1 (optimized conformer: 44.14522116514075 kcal/mol)

>  <smiles>  (59) 
O=C(CCCOc1ccc(Cl)cc1Cl)NN=Cc1cccc(C(F)(F)F)c1

>  <score_type>  (59) 
oracle

>  <origin>  (59) 
autodockgpu

>  <m_score__min__energy>  (59) 
-7.1500000000000004

>  <m_primary>  (59) 
energy

>  <meeko>  (59) 
{"free_energy": -5.97, "intermolecular_energy": -9.26, "internal_energy": -1.33, "cluster_size": 9, "cluster_id": 1, "rank_in_cluster": 9}

>  <energy>  (59) 
-5.48

>  <cluster_rmsd>  (59) 
0.0

>  <rmsd>  (59) 
271.61

>  <cluster>  (59) 
8

$$$$
JBHRSOAXAGIKHA-MUXIEFDRNA-N
     RDKit          3D

 41 42  0  0  0  0  0  0  0  0999 V2000
  142.2010   75.5420  221.5940 H   0  0  0  0  0  0  0  0  0  0  0  0
  141.8670   74.6060  221.4040 O   0  0  0  0  0  0  0  0  0  0  0  0
  139.6050   74.6070  220.6070 C   0  0  0  0  0  0  0  0  0  0  0  0
  140.1690   73.3640  222.5960 N   0  0  0  0  0  0  0  0  0  0  0  0
  140.3330   71.9710  222.5480 N   0  0  0  0  0  0  0  0  0  0  0  0
  140.5280   74.2220  221.5080 C   0  0  0  0  0  0  0  0  0  0  0  0
  139.2673   73.8649  219.8686 H   0  0  0  0  0  0  0  0  0  0  0  0
  139.8680   70.6030  224.5260 C   0  0  0  0  0  0  0  0  0  0  0  0
  139.7340   69.2260  224.7500 C   0  0  0  0  0  0  0  0  0  0  0  0
  139.4016   68.5688  223.9330 H   0  0  0  0  0  0  0  0  0  0  0  0
  140.0200   68.6840  226.0040 C   0  0  0  0  0  0  0  0  0  0  0  0
  139.9331   67.5994  226.1653 H   0  0  0  0  0  0  0  0  0  0  0  0
  140.4160   69.5140  227.0540 C   0  0  0  0  0  0  0  0  0  0  0  0
  140.6629   69.0776  228.0331 H   0  0  0  0  0  0  0  0  0  0  0  0
  140.5010   70.9050  226.8670 C   0  0  0  0  0  0  0  0  0  0  0  0
  140.9540   71.8030  227.9910 C   0  0  0  0  0  0  0  0  0  0  0  0
  141.7880   71.0910  228.8330 F   0  0  0  0  0  0  0  0  0  0  0  0
  141.6430   72.8950  227.4920 F   0  0  0  0  0  0  0  0  0  0  0  0
  139.8720   72.2690  228.7170 F   0  0  0  0  0  0  0  0  0  0  0  0
  140.2380   71.4400  225.5930 C   0  0  0  0  0  0  0  0  0  0  0  0
  140.3227   72.5245  225.4300 H   0  0  0  0  0  0  0  0  0  0  0  0
  139.5600   71.1420  223.1830 C   0  0  0  0  0  0  0  0  0  0  0  0
  138.6264   70.8238  222.6960 H   0  0  0  0  0  0  0  0  0  0  0  0
  139.0050   75.9840  220.5430 C   0  0  0  0  0  0  0  0  0  0  0  0
  138.0639   75.9347  219.9757 H   0  0  0  0  0  0  0  0  0  0  0  0
  138.8324   76.3263  221.5740 H   0  0  0  0  0  0  0  0  0  0  0  0
  139.9420   76.9920  219.8610 C   0  0  0  0  0  0  0  0  0  0  0  0
  140.1780   76.6347  218.8478 H   0  0  0  0  0  0  0  0  0  0  0  0
  139.4350   77.9672  219.8184 H   0  0  0  0  0  0  0  0  0  0  0  0
  141.1600   77.1440  220.5990 O   0  0  0  0  0  0  0  0  0  0  0  0
  141.4530   78.1970  221.4830 C   0  0  0  0  0  0  0  0  0  0  0  0
  141.4120   78.0390  222.8830 C   0  0  0  0  0  0  0  0  0  0  0  0
  141.1021   77.0764  223.3158 H   0  0  0  0  0  0  0  0  0  0  0  0
  141.7630   79.0990  223.7250 C   0  0  0  0  0  0  0  0  0  0  0  0
  141.7451   78.9624  224.8163 H   0  0  0  0  0  0  0  0  0  0  0  0
  142.1360   80.3300  223.1830 C   0  0  0  0  0  0  0  0  0  0  0  0
  142.5910   81.6520  224.2430 Cl  0  0  0  0  0  0  0  0  0  0  0  0
  142.1440   80.5090  221.7970 C   0  0  0  0  0  0  0  0  0  0  0  0
  142.4225   81.4842  221.3711 H   0  0  0  0  0  0  0  0  0  0  0  0
  141.7980   79.4490  220.9490 C   0  0  0  0  0  0  0  0  0  0  0  0
  141.8430   79.6920  219.2090 Cl  0  0  0  0  0  0  0  0  0  0  0  0
  1  2  1  0
  2  3  1  0
  3  4  1  0
  4  5  1  0
  5  6  2  0
  6  7  1  0
  6  8  1  0
  8  9  2  0
  9 10  1  0
  9 11  1  0
 11 12  1  0
 11 13  2  0
 13 14  1  0
 13 15  1  0
 15 16  1  0
 16 17  1  0
 16 18  1  0
 16 19  1  0
 15 20  2  0
 20 21  1  0
  3 22  2  0
 22 23  1  0
 22 24  1  0
 24 25  1  0
 24 26  1  0
 24 27  1  0
 27 28  1  0
 27 29  1  0
 27 30  1  0
 30 31  1  0
 31 32  2  0
 32 33  1  0
 32 34  1  0
 34 35  1  0
 34 36  2  0
 36 37  1  0
 36 38  1  0
 38 39  1  0
 38 40  2  0
 40 41  1  0
 20  8  1  0
 40 31  1  0
M  CHG  1   4  -1
M  END
>  <UniqueID>  (60) 
19

>  <SMILES>  (60) 
O/C(=C\CCOc1ccc(Cl)cc1Cl)[N-]/N=C\c1cccc(C(F)(F)F)c1

>  <Energy>  (60) 
44.14522116514075

>  <Genealogy>  (60) 
O=C(CCCOc1ccc(Cl)cc1Cl)[N-]N=Cc1cccc(C(F)(F)F)c1 (protonated)
OC(=CCCOc1ccc(Cl)cc1Cl)[N-]N=Cc1cccc(C(F)(F)F)c1 (tautomer)
O/C(=C\CCOc1ccc(Cl)cc1Cl)[N-]/N=C\c1cccc(C(F)(F)F)c1 (cis-trans isomerization)
O/C(=C\CCOc1ccc(Cl)cc1Cl)[N-]/N=C\c1cccc(C(F)(F)F)c1 (3D coordinates assigned)
O/C(=C\CCOc1ccc(Cl)cc1Cl)[N-]/N=C\c1cccc(C(F)(F)F)c1 (optimized conformer: 44.14522116514075 kcal/mol)

>  <smiles>  (60) 
O=C(CCCOc1ccc(Cl)cc1Cl)NN=Cc1cccc(C(F)(F)F)c1

>  <score_type>  (60) 
oracle

>  <origin>  (60) 
autodockgpu

>  <m_score__min__energy>  (60) 
-7.1500000000000004

>  <m_primary>  (60) 
energy

>  <meeko>  (60) 
{"free_energy": -6.47, "intermolecular_energy": -9.75, "internal_energy": -1.24, "cluster_size": 9, "cluster_id": 1, "rank_in_cluster": 6}

>  <energy>  (60) 
-5.17

>  <cluster_rmsd>  (60) 
0.0

>  <rmsd>  (60) 
271.71

>  <cluster>  (60) 
9

$$$$
VHXSVHVNRGGTDL-UPLQUKELNA-M
     RDKit          3D

 41 42  0  0  0  0  0  0  0  0999 V2000
  141.3860   71.6622  222.3522 H   0  0  0  0  0  0  0  0  0  0  0  0
  140.5380   71.9890  222.9720 C   0  0  0  0  0  0  0  0  0  0  0  0
  139.8230   72.9920  222.5600 N   0  0  0  0  0  0  0  0  0  0  0  0
  140.3630   74.2620  222.3210 N   0  0  0  0  0  0  0  0  0  0  0  0
  140.5310   74.7610  220.9970 C   0  0  0  0  0  0  0  0  0  0  0  0
  141.6860   74.9530  220.5360 O   0  0  0  0  0  0  0  0  0  0  0  0
  139.3290   75.1000  220.1740 C   0  0  0  0  0  0  0  0  0  0  0  0
  139.6242   75.1821  219.1175 H   0  0  0  0  0  0  0  0  0  0  0  0
  138.5774   74.3060  220.2951 H   0  0  0  0  0  0  0  0  0  0  0  0
  138.7260   76.4310  220.6350 C   0  0  0  0  0  0  0  0  0  0  0  0
  139.5310   77.1781  220.6963 H   0  0  0  0  0  0  0  0  0  0  0  0
  137.9570   76.7156  219.9017 H   0  0  0  0  0  0  0  0  0  0  0  0
  138.0420   76.3360  222.0040 C   0  0  0  0  0  0  0  0  0  0  0  0
  136.9837   76.0739  221.8580 H   0  0  0  0  0  0  0  0  0  0  0  0
  138.5568   75.5647  222.5957 H   0  0  0  0  0  0  0  0  0  0  0  0
  138.1210   77.5750  222.7130 O   0  0  0  0  0  0  0  0  0  0  0  0
  139.2860   78.3200  222.9710 C   0  0  0  0  0  0  0  0  0  0  0  0
  140.5830   77.8150  222.7380 C   0  0  0  0  0  0  0  0  0  0  0  0
  140.7103   76.7954  222.3453 H   0  0  0  0  0  0  0  0  0  0  0  0
  141.7060   78.6020  223.0030 C   0  0  0  0  0  0  0  0  0  0  0  0
  142.7132   78.1998  222.8192 H   0  0  0  0  0  0  0  0  0  0  0  0
  141.5540   79.8990  223.5010 C   0  0  0  0  0  0  0  0  0  0  0  0
  142.9670   80.8860  223.8290 Cl  0  0  0  0  0  0  0  0  0  0  0  0
  140.2750   80.4090  223.7340 C   0  0  0  0  0  0  0  0  0  0  0  0
  140.1546   81.4299  224.1254 H   0  0  0  0  0  0  0  0  0  0  0  0
  139.1460   79.6250  223.4710 C   0  0  0  0  0  0  0  0  0  0  0  0
  137.5520   80.2960  223.7800 Cl  0  0  0  0  0  0  0  0  0  0  0  0
  140.2690   71.2650  224.2320 C   0  0  0  0  0  0  0  0  0  0  0  0
  139.5800   70.0420  224.1820 C   0  0  0  0  0  0  0  0  0  0  0  0
  139.2601   69.6337  223.2120 H   0  0  0  0  0  0  0  0  0  0  0  0
  139.2990   69.3420  225.3560 C   0  0  0  0  0  0  0  0  0  0  0  0
  138.7381   68.3969  225.3100 H   0  0  0  0  0  0  0  0  0  0  0  0
  139.7280   69.8380  226.5900 C   0  0  0  0  0  0  0  0  0  0  0  0
  139.4846   69.2928  227.5138 H   0  0  0  0  0  0  0  0  0  0  0  0
  140.4700   71.0320  226.6560 C   0  0  0  0  0  0  0  0  0  0  0  0
  140.9260   71.5940  227.9810 C   0  0  0  0  0  0  0  0  0  0  0  0
  141.5730   70.6150  228.7170 F   0  0  0  0  0  0  0  0  0  0  0  0
  141.8020   72.6390  227.7540 F   0  0  0  0  0  0  0  0  0  0  0  0
  139.8550   72.0590  228.7260 F   0  0  0  0  0  0  0  0  0  0  0  0
  140.7270   71.7450  225.4720 C   0  0  0  0  0  0  0  0  0  0  0  0
  141.2920   72.6878  225.5159 H   0  0  0  0  0  0  0  0  0  0  0  0
  1  2  1  0
  2  3  2  0
  3  4  1  0
  4  5  1  0
  5  6  2  0
  5  7  1  0
  7  8  1  0
  7  9  1  0
  7 10  1  0
 10 11  1  0
 10 12  1  0
 10 13  1  0
 13 14  1  0
 13 15  1  0
 13 16  1  0
 16 17  1  0
 17 18  2  0
 18 19  1  0
 18 20  1  0
 20 21  1  0
 20 22  2  0
 22 23  1  0
 22 24  1  0
 24 25  1  0
 24 26  2  0
 26 27  1  0
  2 28  1  0
 28 29  2  0
 29 30  1  0
 29 31  1  0
 31 32  1  0
 31 33  2  0
 33 34  1  0
 33 35  1  0
 35 36  1  0
 36 37  1  0
 36 38  1  0
 36 39  1  0
 35 40  2  0
 40 41  1  0
 26 17  1  0
 40 28  1  0
M  CHG  1   4  -1
M  END
>  <UniqueID>  (61) 
20

>  <SMILES>  (61) 
O=C(CCCOc1ccc(Cl)cc1Cl)[N-]/N=C\c1cccc(C(F)(F)F)c1

>  <Energy>  (61) 
42.0688937200415

>  <Genealogy>  (61) 
O=C(CCCOc1ccc(Cl)cc1Cl)[N-]N=Cc1cccc(C(F)(F)F)c1 (protonated)
O=C(CCCOc1ccc(Cl)cc1Cl)[N-]/N=C\c1cccc(C(F)(F)F)c1 (cis-trans isomerization)
O=C(CCCOc1ccc(Cl)cc1Cl)[N-]/N=C\c1cccc(C(F)(F)F)c1 (3D coordinates assigned)
O=C(CCCOc1ccc(Cl)cc1Cl)[N-]/N=C\c1cccc(C(F)(F)F)c1 (optimized conformer: 42.0688937200415 kcal/mol)

>  <smiles>  (61) 
O=C(CCCOc1ccc(Cl)cc1Cl)NN=Cc1cccc(C(F)(F)F)c1

>  <score_type>  (61) 
oracle

>  <origin>  (61) 
autodockgpu

>  <m_score__min__energy>  (61) 
-6.9299999999999997

>  <m_primary>  (61) 
energy

>  <meeko>  (61) 
{"free_energy": -6.67, "intermolecular_energy": -9.65, "internal_energy": -0.95, "cluster_size": 12, "cluster_id": 1, "rank_in_cluster": 2}

>  <energy>  (61) 
-6.93

>  <cluster_rmsd>  (61) 
0.0

>  <rmsd>  (61) 
272.72

>  <cluster>  (61) 
1

$$$$
VHXSVHVNRGGTDL-UPLQUKELNA-M
     RDKit          3D

 41 42  0  0  0  0  0  0  0  0999 V2000
  140.0895   71.1158  221.9906 H   0  0  0  0  0  0  0  0  0  0  0  0
  140.0370   71.7220  222.9070 C   0  0  0  0  0  0  0  0  0  0  0  0
  139.9140   73.0090  222.7890 N   0  0  0  0  0  0  0  0  0  0  0  0
  140.7470   73.7810  221.9690 N   0  0  0  0  0  0  0  0  0  0  0  0
  140.4910   75.1640  221.7400 C   0  0  0  0  0  0  0  0  0  0  0  0
  141.2090   76.0390  222.2900 O   0  0  0  0  0  0  0  0  0  0  0  0
  139.3380   75.5720  220.8800 C   0  0  0  0  0  0  0  0  0  0  0  0
  138.5014   74.8762  221.0408 H   0  0  0  0  0  0  0  0  0  0  0  0
  139.0351   76.5945  221.1495 H   0  0  0  0  0  0  0  0  0  0  0  0
  139.7410   75.5450  219.4010 C   0  0  0  0  0  0  0  0  0  0  0  0
  138.9254   75.9834  218.8072 H   0  0  0  0  0  0  0  0  0  0  0  0
  140.6740   76.1194  219.3033 H   0  0  0  0  0  0  0  0  0  0  0  0
  140.0170   74.1290  218.8820 C   0  0  0  0  0  0  0  0  0  0  0  0
  139.8654   73.4114  219.7018 H   0  0  0  0  0  0  0  0  0  0  0  0
  139.3260   73.9237  218.0511 H   0  0  0  0  0  0  0  0  0  0  0  0
  141.3550   74.0040  218.3960 O   0  0  0  0  0  0  0  0  0  0  0  0
  142.5140   73.8210  219.1730 C   0  0  0  0  0  0  0  0  0  0  0  0
  142.8810   72.5710  219.7150 C   0  0  0  0  0  0  0  0  0  0  0  0
  142.2439   71.6912  219.5417 H   0  0  0  0  0  0  0  0  0  0  0  0
  144.0500   72.4450  220.4710 C   0  0  0  0  0  0  0  0  0  0  0  0
  144.3289   71.4672  220.8907 H   0  0  0  0  0  0  0  0  0  0  0  0
  144.8650   73.5570  220.6950 C   0  0  0  0  0  0  0  0  0  0  0  0
  146.3340   73.3930  221.6420 Cl  0  0  0  0  0  0  0  0  0  0  0  0
  144.5120   74.7980  220.1620 C   0  0  0  0  0  0  0  0  0  0  0  0
  145.1545   75.6733  220.3383 H   0  0  0  0  0  0  0  0  0  0  0  0
  143.3430   74.9320  219.4040 C   0  0  0  0  0  0  0  0  0  0  0  0
  142.9260   76.5080  218.7520 Cl  0  0  0  0  0  0  0  0  0  0  0  0
  140.1100   71.0310  224.2110 C   0  0  0  0  0  0  0  0  0  0  0  0
  139.7640   69.6710  224.2830 C   0  0  0  0  0  0  0  0  0  0  0  0
  139.4549   69.1368  223.3725 H   0  0  0  0  0  0  0  0  0  0  0  0
  139.8100   68.9940  225.5020 C   0  0  0  0  0  0  0  0  0  0  0  0
  139.5145   67.9357  225.5534 H   0  0  0  0  0  0  0  0  0  0  0  0
  140.2310   69.6580  226.6590 C   0  0  0  0  0  0  0  0  0  0  0  0
  140.2446   69.1257  227.6216 H   0  0  0  0  0  0  0  0  0  0  0  0
  140.6370   71.0030  226.5970 C   0  0  0  0  0  0  0  0  0  0  0  0
  141.0770   71.7420  227.8380 C   0  0  0  0  0  0  0  0  0  0  0  0
  141.8900   72.8090  227.4950 F   0  0  0  0  0  0  0  0  0  0  0  0
  139.9620   72.2210  228.5020 F   0  0  0  0  0  0  0  0  0  0  0  0
  141.7870   70.9140  228.6920 F   0  0  0  0  0  0  0  0  0  0  0  0
  140.5630   71.6860  225.3700 C   0  0  0  0  0  0  0  0  0  0  0  0
  140.8624   72.7431  225.3163 H   0  0  0  0  0  0  0  0  0  0  0  0
  1  2  1  0
  2  3  2  0
  3  4  1  0
  4  5  1  0
  5  6  2  0
  5  7  1  0
  7  8  1  0
  7  9  1  0
  7 10  1  0
 10 11  1  0
 10 12  1  0
 10 13  1  0
 13 14  1  0
 13 15  1  0
 13 16  1  0
 16 17  1  0
 17 18  2  0
 18 19  1  0
 18 20  1  0
 20 21  1  0
 20 22  2  0
 22 23  1  0
 22 24  1  0
 24 25  1  0
 24 26  2  0
 26 27  1  0
  2 28  1  0
 28 29  2  0
 29 30  1  0
 29 31  1  0
 31 32  1  0
 31 33  2  0
 33 34  1  0
 33 35  1  0
 35 36  1  0
 36 37  1  0
 36 38  1  0
 36 39  1  0
 35 40  2  0
 40 41  1  0
 26 17  1  0
 40 28  1  0
M  CHG  1   4  -1
M  END
>  <UniqueID>  (62) 
20

>  <SMILES>  (62) 
O=C(CCCOc1ccc(Cl)cc1Cl)[N-]/N=C\c1cccc(C(F)(F)F)c1

>  <Energy>  (62) 
42.0688937200415

>  <Genealogy>  (62) 
O=C(CCCOc1ccc(Cl)cc1Cl)[N-]N=Cc1cccc(C(F)(F)F)c1 (protonated)
O=C(CCCOc1ccc(Cl)cc1Cl)[N-]/N=C\c1cccc(C(F)(F)F)c1 (cis-trans isomerization)
O=C(CCCOc1ccc(Cl)cc1Cl)[N-]/N=C\c1cccc(C(F)(F)F)c1 (3D coordinates assigned)
O=C(CCCOc1ccc(Cl)cc1Cl)[N-]/N=C\c1cccc(C(F)(F)F)c1 (optimized conformer: 42.0688937200415 kcal/mol)

>  <smiles>  (62) 
O=C(CCCOc1ccc(Cl)cc1Cl)NN=Cc1cccc(C(F)(F)F)c1

>  <score_type>  (62) 
oracle

>  <origin>  (62) 
autodockgpu

>  <m_score__min__energy>  (62) 
-6.9299999999999997

>  <m_primary>  (62) 
energy

>  <meeko>  (62) 
{"free_energy": -6.12, "intermolecular_energy": -9.1, "internal_energy": -1.49, "cluster_size": 4, "cluster_id": 4, "rank_in_cluster": 1}

>  <energy>  (62) 
-6.67

>  <cluster_rmsd>  (62) 
0.55

>  <rmsd>  (62) 
272.6

>  <cluster>  (62) 
1

$$$$
VHXSVHVNRGGTDL-UPLQUKELNA-M
     RDKit          3D

 41 42  0  0  0  0  0  0  0  0999 V2000
  139.1138   70.2776  222.6812 H   0  0  0  0  0  0  0  0  0  0  0  0
  139.8180   70.9980  223.1230 C   0  0  0  0  0  0  0  0  0  0  0  0
  140.2540   71.9700  222.3800 N   0  0  0  0  0  0  0  0  0  0  0  0
  139.9470   73.3140  222.6300 N   0  0  0  0  0  0  0  0  0  0  0  0
  140.2840   74.3400  221.7000 C   0  0  0  0  0  0  0  0  0  0  0  0
  141.4900   74.5570  221.4100 O   0  0  0  0  0  0  0  0  0  0  0  0
  139.2050   75.1860  221.1050 C   0  0  0  0  0  0  0  0  0  0  0  0
  139.5596   76.2243  221.0269 H   0  0  0  0  0  0  0  0  0  0  0  0
  138.9549   74.7970  220.1069 H   0  0  0  0  0  0  0  0  0  0  0  0
  137.9500   75.1450  221.9850 C   0  0  0  0  0  0  0  0  0  0  0  0
  137.0806   74.9309  221.3460 H   0  0  0  0  0  0  0  0  0  0  0  0
  138.1050   74.3630  222.7430 H   0  0  0  0  0  0  0  0  0  0  0  0
  137.6970   76.4610  222.7290 C   0  0  0  0  0  0  0  0  0  0  0  0
  136.6122   76.6259  222.8058 H   0  0  0  0  0  0  0  0  0  0  0  0
  138.1521   76.3873  223.7277 H   0  0  0  0  0  0  0  0  0  0  0  0
  138.2890   77.5690  222.0450 O   0  0  0  0  0  0  0  0  0  0  0  0
  139.4130   78.3060  222.4610 C   0  0  0  0  0  0  0  0  0  0  0  0
  140.7360   77.8590  222.2630 C   0  0  0  0  0  0  0  0  0  0  0  0
  140.9186   76.8922  221.7711 H   0  0  0  0  0  0  0  0  0  0  0  0
  141.8160   78.6370  222.6880 C   0  0  0  0  0  0  0  0  0  0  0  0
  142.8446   78.2801  222.5309 H   0  0  0  0  0  0  0  0  0  0  0  0
  141.5930   79.8670  223.3120 C   0  0  0  0  0  0  0  0  0  0  0  0
  142.9520   80.8430  223.8400 Cl  0  0  0  0  0  0  0  0  0  0  0  0
  140.2880   80.3200  223.5110 C   0  0  0  0  0  0  0  0  0  0  0  0
  140.1127   81.2888  224.0016 H   0  0  0  0  0  0  0  0  0  0  0  0
  139.2010   79.5450  223.0880 C   0  0  0  0  0  0  0  0  0  0  0  0
  137.5720   80.1420  223.3590 Cl  0  0  0  0  0  0  0  0  0  0  0  0
  140.2210   70.8120  224.5320 C   0  0  0  0  0  0  0  0  0  0  0  0
  140.7670   71.8990  225.2350 C   0  0  0  0  0  0  0  0  0  0  0  0
  140.8783   72.8727  224.7355 H   0  0  0  0  0  0  0  0  0  0  0  0
  141.1690   71.7510  226.5630 C   0  0  0  0  0  0  0  0  0  0  0  0
  141.6176   72.6008  227.0984 H   0  0  0  0  0  0  0  0  0  0  0  0
  141.0030   70.5250  227.2150 C   0  0  0  0  0  0  0  0  0  0  0  0
  141.3415   70.4080  228.2551 H   0  0  0  0  0  0  0  0  0  0  0  0
  140.4050   69.4400  226.5470 C   0  0  0  0  0  0  0  0  0  0  0  0
  140.2350   68.1040  227.2270 C   0  0  0  0  0  0  0  0  0  0  0  0
  140.0610   68.2800  228.5890 F   0  0  0  0  0  0  0  0  0  0  0  0
  139.1220   67.4680  226.7100 F   0  0  0  0  0  0  0  0  0  0  0  0
  141.3440   67.2960  227.0340 F   0  0  0  0  0  0  0  0  0  0  0  0
  140.0270   69.5900  225.2010 C   0  0  0  0  0  0  0  0  0  0  0  0
  139.5746   68.7424  224.6653 H   0  0  0  0  0  0  0  0  0  0  0  0
  1  2  1  0
  2  3  2  0
  3  4  1  0
  4  5  1  0
  5  6  2  0
  5  7  1  0
  7  8  1  0
  7  9  1  0
  7 10  1  0
 10 11  1  0
 10 12  1  0
 10 13  1  0
 13 14  1  0
 13 15  1  0
 13 16  1  0
 16 17  1  0
 17 18  2  0
 18 19  1  0
 18 20  1  0
 20 21  1  0
 20 22  2  0
 22 23  1  0
 22 24  1  0
 24 25  1  0
 24 26  2  0
 26 27  1  0
  2 28  1  0
 28 29  2  0
 29 30  1  0
 29 31  1  0
 31 32  1  0
 31 33  2  0
 33 34  1  0
 33 35  1  0
 35 36  1  0
 36 37  1  0
 36 38  1  0
 36 39  1  0
 35 40  2  0
 40 41  1  0
 26 17  1  0
 40 28  1  0
M  CHG  1   4  -1
M  END
>  <UniqueID>  (63) 
20

>  <SMILES>  (63) 
O=C(CCCOc1ccc(Cl)cc1Cl)[N-]/N=C\c1cccc(C(F)(F)F)c1

>  <Energy>  (63) 
42.0688937200415

>  <Genealogy>  (63) 
O=C(CCCOc1ccc(Cl)cc1Cl)[N-]N=Cc1cccc(C(F)(F)F)c1 (protonated)
O=C(CCCOc1ccc(Cl)cc1Cl)[N-]/N=C\c1cccc(C(F)(F)F)c1 (cis-trans isomerization)
O=C(CCCOc1ccc(Cl)cc1Cl)[N-]/N=C\c1cccc(C(F)(F)F)c1 (3D coordinates assigned)
O=C(CCCOc1ccc(Cl)cc1Cl)[N-]/N=C\c1cccc(C(F)(F)F)c1 (optimized conformer: 42.0688937200415 kcal/mol)

>  <smiles>  (63) 
O=C(CCCOc1ccc(Cl)cc1Cl)NN=Cc1cccc(C(F)(F)F)c1

>  <score_type>  (63) 
oracle

>  <origin>  (63) 
autodockgpu

>  <m_score__min__energy>  (63) 
-6.9299999999999997

>  <m_primary>  (63) 
energy

>  <meeko>  (63) 
{"free_energy": -6.6, "intermolecular_energy": -9.58, "internal_energy": -0.91, "cluster_size": 12, "cluster_id": 1, "rank_in_cluster": 4}

>  <energy>  (63) 
-6.63

>  <cluster_rmsd>  (63) 
0.88

>  <rmsd>  (63) 
272.64

>  <cluster>  (63) 
1

$$$$
VHXSVHVNRGGTDL-UPLQUKELNA-M
     RDKit          3D

 41 42  0  0  0  0  0  0  0  0999 V2000
  141.1773   71.4970  222.3030 H   0  0  0  0  0  0  0  0  0  0  0  0
  140.4090   71.8570  223.0030 C   0  0  0  0  0  0  0  0  0  0  0  0
  139.7190   72.9060  222.6750 N   0  0  0  0  0  0  0  0  0  0  0  0
  140.3110   74.1200  222.3040 N   0  0  0  0  0  0  0  0  0  0  0  0
  139.5330   75.2090  221.8150 C   0  0  0  0  0  0  0  0  0  0  0  0
  139.7300   75.6560  220.6550 O   0  0  0  0  0  0  0  0  0  0  0  0
  138.5140   75.8500  222.7030 C   0  0  0  0  0  0  0  0  0  0  0  0
  138.1857   75.1241  223.4615 H   0  0  0  0  0  0  0  0  0  0  0  0
  138.9652   76.7267  223.1907 H   0  0  0  0  0  0  0  0  0  0  0  0
  137.3030   76.3050  221.8810 C   0  0  0  0  0  0  0  0  0  0  0  0
  137.1647   75.6052  221.0436 H   0  0  0  0  0  0  0  0  0  0  0  0
  136.4334   76.3160  222.5545 H   0  0  0  0  0  0  0  0  0  0  0  0
  137.4620   77.7200  221.3140 C   0  0  0  0  0  0  0  0  0  0  0  0
  138.2238   77.7041  220.5206 H   0  0  0  0  0  0  0  0  0  0  0  0
  136.4896   78.0444  220.9150 H   0  0  0  0  0  0  0  0  0  0  0  0
  137.8640   78.6450  222.3260 O   0  0  0  0  0  0  0  0  0  0  0  0
  139.1790   79.0550  222.6120 C   0  0  0  0  0  0  0  0  0  0  0  0
  140.3110   78.4640  222.0110 C   0  0  0  0  0  0  0  0  0  0  0  0
  140.1815   77.6418  221.2918 H   0  0  0  0  0  0  0  0  0  0  0  0
  141.5950   78.9170  222.3240 C   0  0  0  0  0  0  0  0  0  0  0  0
  142.4717   78.4491  221.8522 H   0  0  0  0  0  0  0  0  0  0  0  0
  141.7690   79.9620  223.2340 C   0  0  0  0  0  0  0  0  0  0  0  0
  143.3830   80.5310  223.6210 Cl  0  0  0  0  0  0  0  0  0  0  0  0
  140.6560   80.5560  223.8340 C   0  0  0  0  0  0  0  0  0  0  0  0
  140.7928   81.3791  224.5508 H   0  0  0  0  0  0  0  0  0  0  0  0
  139.3670   80.1060  223.5250 C   0  0  0  0  0  0  0  0  0  0  0  0
  137.9890   80.8710  224.3000 Cl  0  0  0  0  0  0  0  0  0  0  0  0
  140.2140   71.1220  224.2700 C   0  0  0  0  0  0  0  0  0  0  0  0
  139.5880   69.8650  224.2400 C   0  0  0  0  0  0  0  0  0  0  0  0
  139.2621   69.4392  223.2795 H   0  0  0  0  0  0  0  0  0  0  0  0
  139.3770   69.1530  225.4220 C   0  0  0  0  0  0  0  0  0  0  0  0
  138.8641   68.1803  225.3923 H   0  0  0  0  0  0  0  0  0  0  0  0
  139.8160   69.6730  226.6440 C   0  0  0  0  0  0  0  0  0  0  0  0
  139.6288   69.1172  227.5746 H   0  0  0  0  0  0  0  0  0  0  0  0
  140.4960   70.9040  226.6880 C   0  0  0  0  0  0  0  0  0  0  0  0
  140.9600   71.4910  227.9980 C   0  0  0  0  0  0  0  0  0  0  0  0
  139.8730   71.9220  228.7400 F   0  0  0  0  0  0  0  0  0  0  0  0
  141.6390   70.5240  228.7160 F   0  0  0  0  0  0  0  0  0  0  0  0
  141.8020   72.5730  227.7960 F   0  0  0  0  0  0  0  0  0  0  0  0
  140.6820   71.6280  225.4960 C   0  0  0  0  0  0  0  0  0  0  0  0
  141.1983   72.5989  225.5232 H   0  0  0  0  0  0  0  0  0  0  0  0
  1  2  1  0
  2  3  2  0
  3  4  1  0
  4  5  1  0
  5  6  2  0
  5  7  1  0
  7  8  1  0
  7  9  1  0
  7 10  1  0
 10 11  1  0
 10 12  1  0
 10 13  1  0
 13 14  1  0
 13 15  1  0
 13 16  1  0
 16 17  1  0
 17 18  2  0
 18 19  1  0
 18 20  1  0
 20 21  1  0
 20 22  2  0
 22 23  1  0
 22 24  1  0
 24 25  1  0
 24 26  2  0
 26 27  1  0
  2 28  1  0
 28 29  2  0
 29 30  1  0
 29 31  1  0
 31 32  1  0
 31 33  2  0
 33 34  1  0
 33 35  1  0
 35 36  1  0
 36 37  1  0
 36 38  1  0
 36 39  1  0
 35 40  2  0
 40 41  1  0
 26 17  1  0
 40 28  1  0
M  CHG  1   4  -1
M  END
>  <UniqueID>  (64) 
20

>  <SMILES>  (64) 
O=C(CCCOc1ccc(Cl)cc1Cl)[N-]/N=C\c1cccc(C(F)(F)F)c1

>  <Energy>  (64) 
42.0688937200415

>  <Genealogy>  (64) 
O=C(CCCOc1ccc(Cl)cc1Cl)[N-]N=Cc1cccc(C(F)(F)F)c1 (protonated)
O=C(CCCOc1ccc(Cl)cc1Cl)[N-]/N=C\c1cccc(C(F)(F)F)c1 (cis-trans isomerization)
O=C(CCCOc1ccc(Cl)cc1Cl)[N-]/N=C\c1cccc(C(F)(F)F)c1 (3D coordinates assigned)
O=C(CCCOc1ccc(Cl)cc1Cl)[N-]/N=C\c1cccc(C(F)(F)F)c1 (optimized conformer: 42.0688937200415 kcal/mol)

>  <smiles>  (64) 
O=C(CCCOc1ccc(Cl)cc1Cl)NN=Cc1cccc(C(F)(F)F)c1

>  <score_type>  (64) 
oracle

>  <origin>  (64) 
autodockgpu

>  <m_score__min__energy>  (64) 
-6.9299999999999997

>  <m_primary>  (64) 
energy

>  <meeko>  (64) 
{"free_energy": -6.48, "intermolecular_energy": -9.46, "internal_energy": -0.91, "cluster_size": 12, "cluster_id": 1, "rank_in_cluster": 7}

>  <energy>  (64) 
-6.6

>  <cluster_rmsd>  (64) 
1.66

>  <rmsd>  (64) 
272.39

>  <cluster>  (64) 
1

$$$$
VHXSVHVNRGGTDL-UPLQUKELNA-M
     RDKit          3D

 41 42  0  0  0  0  0  0  0  0999 V2000
  140.5713   70.3368  222.9958 H   0  0  0  0  0  0  0  0  0  0  0  0
  140.3890   71.1770  223.6820 C   0  0  0  0  0  0  0  0  0  0  0  0
  140.0070   72.3120  223.1800 N   0  0  0  0  0  0  0  0  0  0  0  0
  140.8150   73.0750  222.3270 N   0  0  0  0  0  0  0  0  0  0  0  0
  140.3320   74.2680  221.7160 C   0  0  0  0  0  0  0  0  0  0  0  0
  140.8520   75.3780  222.0010 O   0  0  0  0  0  0  0  0  0  0  0  0
  139.1740   74.2020  220.7720 C   0  0  0  0  0  0  0  0  0  0  0  0
  138.3745   73.5938  221.2203 H   0  0  0  0  0  0  0  0  0  0  0  0
  138.8092   75.2220  220.5811 H   0  0  0  0  0  0  0  0  0  0  0  0
  139.6060   73.5700  219.4440 C   0  0  0  0  0  0  0  0  0  0  0  0
  140.5223   72.9860  219.6154 H   0  0  0  0  0  0  0  0  0  0  0  0
  138.7759   72.9384  219.0947 H   0  0  0  0  0  0  0  0  0  0  0  0
  139.8850   74.6070  218.3500 C   0  0  0  0  0  0  0  0  0  0  0  0
  139.2455   74.3917  217.4813 H   0  0  0  0  0  0  0  0  0  0  0  0
  139.6680   75.6059  218.7563 H   0  0  0  0  0  0  0  0  0  0  0  0
  141.2540   74.5760  217.9390 O   0  0  0  0  0  0  0  0  0  0  0  0
  142.3630   74.2570  218.7430 C   0  0  0  0  0  0  0  0  0  0  0  0
  142.7790   72.9290  218.9780 C   0  0  0  0  0  0  0  0  0  0  0  0
  142.2222   72.0935  218.5286 H   0  0  0  0  0  0  0  0  0  0  0  0
  143.8950   72.6700  219.7790 C   0  0  0  0  0  0  0  0  0  0  0  0
  144.2119   71.6321  219.9587 H   0  0  0  0  0  0  0  0  0  0  0  0
  144.6090   73.7250  220.3520 C   0  0  0  0  0  0  0  0  0  0  0  0
  146.0120   73.3950  221.3540 Cl  0  0  0  0  0  0  0  0  0  0  0  0
  144.2060   75.0430  220.1250 C   0  0  0  0  0  0  0  0  0  0  0  0
  144.7680   75.8740  220.5762 H   0  0  0  0  0  0  0  0  0  0  0  0
  143.0890   75.3090  219.3250 C   0  0  0  0  0  0  0  0  0  0  0  0
  142.6070   76.9770  219.0630 Cl  0  0  0  0  0  0  0  0  0  0  0  0
  140.5910   70.9580  225.1300 C   0  0  0  0  0  0  0  0  0  0  0  0
  140.9640   72.0440  225.9380 C   0  0  0  0  0  0  0  0  0  0  0  0
  141.0908   73.0407  225.4902 H   0  0  0  0  0  0  0  0  0  0  0  0
  141.1750   71.8660  227.3070 C   0  0  0  0  0  0  0  0  0  0  0  0
  141.4899   72.7170  227.9288 H   0  0  0  0  0  0  0  0  0  0  0  0
  140.9870   70.6090  227.8890 C   0  0  0  0  0  0  0  0  0  0  0  0
  141.1754   70.4699  228.9638 H   0  0  0  0  0  0  0  0  0  0  0  0
  140.5580   69.5210  227.1070 C   0  0  0  0  0  0  0  0  0  0  0  0
  140.3680   68.1520  227.7130 C   0  0  0  0  0  0  0  0  0  0  0  0
  140.2380   68.2530  229.0880 F   0  0  0  0  0  0  0  0  0  0  0  0
  139.2220   67.5780  227.1940 F   0  0  0  0  0  0  0  0  0  0  0  0
  141.4470   67.3270  227.4400 F   0  0  0  0  0  0  0  0  0  0  0  0
  140.3720   69.7020  225.7240 C   0  0  0  0  0  0  0  0  0  0  0  0
  140.0523   68.8533  225.1016 H   0  0  0  0  0  0  0  0  0  0  0  0
  1  2  1  0
  2  3  2  0
  3  4  1  0
  4  5  1  0
  5  6  2  0
  5  7  1  0
  7  8  1  0
  7  9  1  0
  7 10  1  0
 10 11  1  0
 10 12  1  0
 10 13  1  0
 13 14  1  0
 13 15  1  0
 13 16  1  0
 16 17  1  0
 17 18  2  0
 18 19  1  0
 18 20  1  0
 20 21  1  0
 20 22  2  0
 22 23  1  0
 22 24  1  0
 24 25  1  0
 24 26  2  0
 26 27  1  0
  2 28  1  0
 28 29  2  0
 29 30  1  0
 29 31  1  0
 31 32  1  0
 31 33  2  0
 33 34  1  0
 33 35  1  0
 35 36  1  0
 36 37  1  0
 36 38  1  0
 36 39  1  0
 35 40  2  0
 40 41  1  0
 26 17  1  0
 40 28  1  0
M  CHG  1   4  -1
M  END
>  <UniqueID>  (65) 
20

>  <SMILES>  (65) 
O=C(CCCOc1ccc(Cl)cc1Cl)[N-]/N=C\c1cccc(C(F)(F)F)c1

>  <Energy>  (65) 
42.0688937200415

>  <Genealogy>  (65) 
O=C(CCCOc1ccc(Cl)cc1Cl)[N-]N=Cc1cccc(C(F)(F)F)c1 (protonated)
O=C(CCCOc1ccc(Cl)cc1Cl)[N-]/N=C\c1cccc(C(F)(F)F)c1 (cis-trans isomerization)
O=C(CCCOc1ccc(Cl)cc1Cl)[N-]/N=C\c1cccc(C(F)(F)F)c1 (3D coordinates assigned)
O=C(CCCOc1ccc(Cl)cc1Cl)[N-]/N=C\c1cccc(C(F)(F)F)c1 (optimized conformer: 42.0688937200415 kcal/mol)

>  <smiles>  (65) 
O=C(CCCOc1ccc(Cl)cc1Cl)NN=Cc1cccc(C(F)(F)F)c1

>  <score_type>  (65) 
oracle

>  <origin>  (65) 
autodockgpu

>  <m_score__min__energy>  (65) 
-6.9299999999999997

>  <m_primary>  (65) 
energy

>  <meeko>  (65) 
{"free_energy": -5.92, "intermolecular_energy": -8.9, "internal_energy": -1.39, "cluster_size": 4, "cluster_id": 4, "rank_in_cluster": 2}

>  <energy>  (65) 
-6.57

>  <cluster_rmsd>  (65) 
1.84

>  <rmsd>  (65) 
272.51

>  <cluster>  (65) 
1

$$$$
VHXSVHVNRGGTDL-UPLQUKELNA-M
     RDKit          3D

 41 42  0  0  0  0  0  0  0  0999 V2000
  139.4250   69.7417  223.2598 H   0  0  0  0  0  0  0  0  0  0  0  0
  139.9580   70.6430  223.5970 C   0  0  0  0  0  0  0  0  0  0  0  0
  140.2330   71.5620  222.7210 N   0  0  0  0  0  0  0  0  0  0  0  0
  139.5700   72.7950  222.6800 N   0  0  0  0  0  0  0  0  0  0  0  0
  140.0260   73.8570  221.8450 C   0  0  0  0  0  0  0  0  0  0  0  0
  140.8020   74.7340  222.3060 O   0  0  0  0  0  0  0  0  0  0  0  0
  139.5420   73.9500  220.4340 C   0  0  0  0  0  0  0  0  0  0  0  0
  138.4783   74.2303  220.4332 H   0  0  0  0  0  0  0  0  0  0  0  0
  140.1332   74.7106  219.9029 H   0  0  0  0  0  0  0  0  0  0  0  0
  139.7100   72.6030  219.7230 C   0  0  0  0  0  0  0  0  0  0  0  0
  140.2303   71.9110  220.4016 H   0  0  0  0  0  0  0  0  0  0  0  0
  138.7046   72.2424  219.4600 H   0  0  0  0  0  0  0  0  0  0  0  0
  140.5140   72.7080  218.4220 C   0  0  0  0  0  0  0  0  0  0  0  0
  140.9519   71.7256  218.1915 H   0  0  0  0  0  0  0  0  0  0  0  0
  139.8340   73.0300  217.6196 H   0  0  0  0  0  0  0  0  0  0  0  0
  141.5650   73.6710  218.5350 O   0  0  0  0  0  0  0  0  0  0  0  0
  142.7180   73.5610  219.3320 C   0  0  0  0  0  0  0  0  0  0  0  0
  143.2250   72.3220  219.7760 C   0  0  0  0  0  0  0  0  0  0  0  0
  142.7067   71.3906  219.5044 H   0  0  0  0  0  0  0  0  0  0  0  0
  144.3820   72.2700  220.5590 C   0  0  0  0  0  0  0  0  0  0  0  0
  144.7697   71.2991  220.9012 H   0  0  0  0  0  0  0  0  0  0  0  0
  145.0470   73.4480  220.9080 C   0  0  0  0  0  0  0  0  0  0  0  0
  146.5010   73.3790  221.8880 Cl  0  0  0  0  0  0  0  0  0  0  0  0
  144.5550   74.6810  220.4730 C   0  0  0  0  0  0  0  0  0  0  0  0
  145.0789   75.6085  220.7473 H   0  0  0  0  0  0  0  0  0  0  0  0
  143.3970   74.7390  219.6890 C   0  0  0  0  0  0  0  0  0  0  0  0
  142.8010   76.3050  219.1630 Cl  0  0  0  0  0  0  0  0  0  0  0  0
  140.3260   70.7490  225.0240 C   0  0  0  0  0  0  0  0  0  0  0  0
  140.9550   71.9180  225.4820 C   0  0  0  0  0  0  0  0  0  0  0  0
  141.1550   72.7414  224.7806 H   0  0  0  0  0  0  0  0  0  0  0  0
  141.3280   72.0420  226.8210 C   0  0  0  0  0  0  0  0  0  0  0  0
  141.8410   72.9519  227.1659 H   0  0  0  0  0  0  0  0  0  0  0  0
  141.0510   71.0120  227.7250 C   0  0  0  0  0  0  0  0  0  0  0  0
  141.3680   71.1051  228.7742 H   0  0  0  0  0  0  0  0  0  0  0  0
  140.3690   69.8570  227.3000 C   0  0  0  0  0  0  0  0  0  0  0  0
  140.0780   68.7270  228.2560 C   0  0  0  0  0  0  0  0  0  0  0  0
  139.4200   67.7020  227.5980 F   0  0  0  0  0  0  0  0  0  0  0  0
  141.2680   68.2430  228.7660 F   0  0  0  0  0  0  0  0  0  0  0  0
  139.2790   69.1490  229.3060 F   0  0  0  0  0  0  0  0  0  0  0  0
  140.0200   69.7280  225.9430 C   0  0  0  0  0  0  0  0  0  0  0  0
  139.5032   68.8206  225.5972 H   0  0  0  0  0  0  0  0  0  0  0  0
  1  2  1  0
  2  3  2  0
  3  4  1  0
  4  5  1  0
  5  6  2  0
  5  7  1  0
  7  8  1  0
  7  9  1  0
  7 10  1  0
 10 11  1  0
 10 12  1  0
 10 13  1  0
 13 14  1  0
 13 15  1  0
 13 16  1  0
 16 17  1  0
 17 18  2  0
 18 19  1  0
 18 20  1  0
 20 21  1  0
 20 22  2  0
 22 23  1  0
 22 24  1  0
 24 25  1  0
 24 26  2  0
 26 27  1  0
  2 28  1  0
 28 29  2  0
 29 30  1  0
 29 31  1  0
 31 32  1  0
 31 33  2  0
 33 34  1  0
 33 35  1  0
 35 36  1  0
 36 37  1  0
 36 38  1  0
 36 39  1  0
 35 40  2  0
 40 41  1  0
 26 17  1  0
 40 28  1  0
M  CHG  1   4  -1
M  END
>  <UniqueID>  (66) 
20

>  <SMILES>  (66) 
O=C(CCCOc1ccc(Cl)cc1Cl)[N-]/N=C\c1cccc(C(F)(F)F)c1

>  <Energy>  (66) 
42.0688937200415

>  <Genealogy>  (66) 
O=C(CCCOc1ccc(Cl)cc1Cl)[N-]N=Cc1cccc(C(F)(F)F)c1 (protonated)
O=C(CCCOc1ccc(Cl)cc1Cl)[N-]/N=C\c1cccc(C(F)(F)F)c1 (cis-trans isomerization)
O=C(CCCOc1ccc(Cl)cc1Cl)[N-]/N=C\c1cccc(C(F)(F)F)c1 (3D coordinates assigned)
O=C(CCCOc1ccc(Cl)cc1Cl)[N-]/N=C\c1cccc(C(F)(F)F)c1 (optimized conformer: 42.0688937200415 kcal/mol)

>  <smiles>  (66) 
O=C(CCCOc1ccc(Cl)cc1Cl)NN=Cc1cccc(C(F)(F)F)c1

>  <score_type>  (66) 
oracle

>  <origin>  (66) 
autodockgpu

>  <m_score__min__energy>  (66) 
-6.9299999999999997

>  <m_primary>  (66) 
energy

>  <meeko>  (66) 
{"free_energy": -5.74, "intermolecular_energy": -8.72, "internal_energy": -1.35, "cluster_size": 4, "cluster_id": 4, "rank_in_cluster": 4}

>  <energy>  (66) 
-6.56

>  <cluster_rmsd>  (66) 
1.41

>  <rmsd>  (66) 
272.67

>  <cluster>  (66) 
1

$$$$
VHXSVHVNRGGTDL-UPLQUKELNA-M
     RDKit          3D

 41 42  0  0  0  0  0  0  0  0999 V2000
  139.9410   77.1045  220.7827 H   0  0  0  0  0  0  0  0  0  0  0  0
  140.5000   77.1080  221.7300 C   0  0  0  0  0  0  0  0  0  0  0  0
  140.6770   75.9790  222.3460 N   0  0  0  0  0  0  0  0  0  0  0  0
  139.7170   74.9580  222.3530 N   0  0  0  0  0  0  0  0  0  0  0  0
  140.0040   73.6640  221.8300 C   0  0  0  0  0  0  0  0  0  0  0  0
  140.9720   72.9990  222.2840 O   0  0  0  0  0  0  0  0  0  0  0  0
  139.1810   73.1180  220.7080 C   0  0  0  0  0  0  0  0  0  0  0  0
  139.6598   72.2085  220.3161 H   0  0  0  0  0  0  0  0  0  0  0  0
  138.1747   72.8822  221.0846 H   0  0  0  0  0  0  0  0  0  0  0  0
  139.0620   74.1520  219.5820 C   0  0  0  0  0  0  0  0  0  0  0  0
  138.7609   73.6333  218.6599 H   0  0  0  0  0  0  0  0  0  0  0  0
  138.3158   74.8966  219.8961 H   0  0  0  0  0  0  0  0  0  0  0  0
  140.3730   74.9000  219.3160 C   0  0  0  0  0  0  0  0  0  0  0  0
  140.2168   75.6146  218.4945 H   0  0  0  0  0  0  0  0  0  0  0  0
  140.6662   75.4230  220.2383 H   0  0  0  0  0  0  0  0  0  0  0  0
  141.4240   74.0000  218.9560 O   0  0  0  0  0  0  0  0  0  0  0  0
  142.6380   73.8120  219.6420 C   0  0  0  0  0  0  0  0  0  0  0  0
  143.0360   72.5630  220.1630 C   0  0  0  0  0  0  0  0  0  0  0  0
  142.3805   71.6876  220.0451 H   0  0  0  0  0  0  0  0  0  0  0  0
  144.2580   72.4310  220.8280 C   0  0  0  0  0  0  0  0  0  0  0  0
  144.5597   71.4537  221.2327 H   0  0  0  0  0  0  0  0  0  0  0  0
  145.0970   73.5370  220.9800 C   0  0  0  0  0  0  0  0  0  0  0  0
  146.6330   73.3670  221.8120 Cl  0  0  0  0  0  0  0  0  0  0  0  0
  144.7140   74.7780  220.4670 C   0  0  0  0  0  0  0  0  0  0  0  0
  145.3751   75.6489  220.5873 H   0  0  0  0  0  0  0  0  0  0  0  0
  143.4910   74.9170  219.8000 C   0  0  0  0  0  0  0  0  0  0  0  0
  143.0380   76.4930  219.1710 Cl  0  0  0  0  0  0  0  0  0  0  0  0
  141.0120   78.3970  222.2380 C   0  0  0  0  0  0  0  0  0  0  0  0
  141.7100   78.4210  223.4570 C   0  0  0  0  0  0  0  0  0  0  0  0
  141.8760   77.4852  224.0109 H   0  0  0  0  0  0  0  0  0  0  0  0
  142.1940   79.6260  223.9690 C   0  0  0  0  0  0  0  0  0  0  0  0
  142.7187   79.6395  224.9357 H   0  0  0  0  0  0  0  0  0  0  0  0
  142.0140   80.8160  223.2570 C   0  0  0  0  0  0  0  0  0  0  0  0
  142.3784   81.7655  223.6762 H   0  0  0  0  0  0  0  0  0  0  0  0
  141.3690   80.8040  222.0070 C   0  0  0  0  0  0  0  0  0  0  0  0
  141.1480   82.0800  221.2320 C   0  0  0  0  0  0  0  0  0  0  0  0
  139.7930   82.3050  221.0580 F   0  0  0  0  0  0  0  0  0  0  0  0
  141.6930   83.1400  221.9340 F   0  0  0  0  0  0  0  0  0  0  0  0
  141.7400   82.0190  219.9820 F   0  0  0  0  0  0  0  0  0  0  0  0
  140.8610   79.5910  221.5090 C   0  0  0  0  0  0  0  0  0  0  0  0
  140.3405   79.5754  220.5401 H   0  0  0  0  0  0  0  0  0  0  0  0
  1  2  1  0
  2  3  2  0
  3  4  1  0
  4  5  1  0
  5  6  2  0
  5  7  1  0
  7  8  1  0
  7  9  1  0
  7 10  1  0
 10 11  1  0
 10 12  1  0
 10 13  1  0
 13 14  1  0
 13 15  1  0
 13 16  1  0
 16 17  1  0
 17 18  2  0
 18 19  1  0
 18 20  1  0
 20 21  1  0
 20 22  2  0
 22 23  1  0
 22 24  1  0
 24 25  1  0
 24 26  2  0
 26 27  1  0
  2 28  1  0
 28 29  2  0
 29 30  1  0
 29 31  1  0
 31 32  1  0
 31 33  2  0
 33 34  1  0
 33 35  1  0
 35 36  1  0
 36 37  1  0
 36 38  1  0
 36 39  1  0
 35 40  2  0
 40 41  1  0
 26 17  1  0
 40 28  1  0
M  CHG  1   4  -1
M  END
>  <UniqueID>  (67) 
20

>  <SMILES>  (67) 
O=C(CCCOc1ccc(Cl)cc1Cl)[N-]/N=C\c1cccc(C(F)(F)F)c1

>  <Energy>  (67) 
42.0688937200415

>  <Genealogy>  (67) 
O=C(CCCOc1ccc(Cl)cc1Cl)[N-]N=Cc1cccc(C(F)(F)F)c1 (protonated)
O=C(CCCOc1ccc(Cl)cc1Cl)[N-]/N=C\c1cccc(C(F)(F)F)c1 (cis-trans isomerization)
O=C(CCCOc1ccc(Cl)cc1Cl)[N-]/N=C\c1cccc(C(F)(F)F)c1 (3D coordinates assigned)
O=C(CCCOc1ccc(Cl)cc1Cl)[N-]/N=C\c1cccc(C(F)(F)F)c1 (optimized conformer: 42.0688937200415 kcal/mol)

>  <smiles>  (67) 
O=C(CCCOc1ccc(Cl)cc1Cl)NN=Cc1cccc(C(F)(F)F)c1

>  <score_type>  (67) 
oracle

>  <origin>  (67) 
autodockgpu

>  <m_score__min__energy>  (67) 
-6.9299999999999997

>  <m_primary>  (67) 
energy

>  <meeko>  (67) 
{"free_energy": -5.49, "intermolecular_energy": -8.47, "internal_energy": -1.5, "cluster_size": 2, "cluster_id": 5, "rank_in_cluster": 2}

>  <energy>  (67) 
-6.48

>  <cluster_rmsd>  (67) 
0.84

>  <rmsd>  (67) 
272.64

>  <cluster>  (67) 
1

$$$$
VHXSVHVNRGGTDL-UPLQUKELNA-M
     RDKit          3D

 41 42  0  0  0  0  0  0  0  0999 V2000
  139.6530   70.7595  222.2179 H   0  0  0  0  0  0  0  0  0  0  0  0
  140.1420   71.3360  223.0170 C   0  0  0  0  0  0  0  0  0  0  0  0
  140.6930   72.4710  222.7100 N   0  0  0  0  0  0  0  0  0  0  0  0
  139.9490   73.6070  222.3640 N   0  0  0  0  0  0  0  0  0  0  0  0
  140.4090   74.5240  221.3750 C   0  0  0  0  0  0  0  0  0  0  0  0
  141.5430   74.3720  220.8520 O   0  0  0  0  0  0  0  0  0  0  0  0
  139.5580   75.6940  220.9960 C   0  0  0  0  0  0  0  0  0  0  0  0
  140.0051   76.6139  221.4007 H   0  0  0  0  0  0  0  0  0  0  0  0
  139.5002   75.7535  219.8991 H   0  0  0  0  0  0  0  0  0  0  0  0
  138.1430   75.5290  221.5610 C   0  0  0  0  0  0  0  0  0  0  0  0
  137.4189   75.7618  220.7664 H   0  0  0  0  0  0  0  0  0  0  0  0
  138.0477   74.4908  221.9119 H   0  0  0  0  0  0  0  0  0  0  0  0
  137.8660   76.4450  222.7580 C   0  0  0  0  0  0  0  0  0  0  0  0
  136.8016   76.3719  223.0257 H   0  0  0  0  0  0  0  0  0  0  0  0
  138.5023   76.1223  223.5952 H   0  0  0  0  0  0  0  0  0  0  0  0
  138.1770   77.8070  222.4560 O   0  0  0  0  0  0  0  0  0  0  0  0
  139.3380   78.5050  222.8360 C   0  0  0  0  0  0  0  0  0  0  0  0
  140.6340   77.9640  222.7000 C   0  0  0  0  0  0  0  0  0  0  0  0
  140.7635   76.9519  222.2891 H   0  0  0  0  0  0  0  0  0  0  0  0
  141.7540   78.7060  223.0840 C   0  0  0  0  0  0  0  0  0  0  0  0
  142.7608   78.2766  222.9743 H   0  0  0  0  0  0  0  0  0  0  0  0
  141.5980   79.9920  223.6070 C   0  0  0  0  0  0  0  0  0  0  0  0
  143.0070   80.9220  224.0860 Cl  0  0  0  0  0  0  0  0  0  0  0  0
  140.3200   80.5380  223.7450 C   0  0  0  0  0  0  0  0  0  0  0  0
  140.1977   81.5510  224.1559 H   0  0  0  0  0  0  0  0  0  0  0  0
  139.1950   79.8000  223.3620 C   0  0  0  0  0  0  0  0  0  0  0  0
  137.6020   80.5140  223.5540 Cl  0  0  0  0  0  0  0  0  0  0  0  0
  140.1390   70.7800  224.3860 C   0  0  0  0  0  0  0  0  0  0  0  0
  139.7240   69.4530  224.5830 C   0  0  0  0  0  0  0  0  0  0  0  0
  139.4182   68.8423  223.7207 H   0  0  0  0  0  0  0  0  0  0  0  0
  139.6970   68.9040  225.8660 C   0  0  0  0  0  0  0  0  0  0  0  0
  139.3478   67.8714  226.0139 H   0  0  0  0  0  0  0  0  0  0  0  0
  140.1130   69.6640  226.9640 C   0  0  0  0  0  0  0  0  0  0  0  0
  140.0701   69.2337  227.9754 H   0  0  0  0  0  0  0  0  0  0  0  0
  140.5860   70.9760  226.7810 C   0  0  0  0  0  0  0  0  0  0  0  0
  141.0210   71.8190  227.9550 C   0  0  0  0  0  0  0  0  0  0  0  0
  139.9150   72.2390  228.6760 F   0  0  0  0  0  0  0  0  0  0  0  0
  141.8340   71.0650  228.7810 F   0  0  0  0  0  0  0  0  0  0  0  0
  141.7180   72.9410  227.5400 F   0  0  0  0  0  0  0  0  0  0  0  0
  140.5860   71.5310  225.4890 C   0  0  0  0  0  0  0  0  0  0  0  0
  140.9388   72.5620  225.3390 H   0  0  0  0  0  0  0  0  0  0  0  0
  1  2  1  0
  2  3  2  0
  3  4  1  0
  4  5  1  0
  5  6  2  0
  5  7  1  0
  7  8  1  0
  7  9  1  0
  7 10  1  0
 10 11  1  0
 10 12  1  0
 10 13  1  0
 13 14  1  0
 13 15  1  0
 13 16  1  0
 16 17  1  0
 17 18  2  0
 18 19  1  0
 18 20  1  0
 20 21  1  0
 20 22  2  0
 22 23  1  0
 22 24  1  0
 24 25  1  0
 24 26  2  0
 26 27  1  0
  2 28  1  0
 28 29  2  0
 29 30  1  0
 29 31  1  0
 31 32  1  0
 31 33  2  0
 33 34  1  0
 33 35  1  0
 35 36  1  0
 36 37  1  0
 36 38  1  0
 36 39  1  0
 35 40  2  0
 40 41  1  0
 26 17  1  0
 40 28  1  0
M  CHG  1   4  -1
M  END
>  <UniqueID>  (68) 
20

>  <SMILES>  (68) 
O=C(CCCOc1ccc(Cl)cc1Cl)[N-]/N=C\c1cccc(C(F)(F)F)c1

>  <Energy>  (68) 
42.0688937200415

>  <Genealogy>  (68) 
O=C(CCCOc1ccc(Cl)cc1Cl)[N-]N=Cc1cccc(C(F)(F)F)c1 (protonated)
O=C(CCCOc1ccc(Cl)cc1Cl)[N-]/N=C\c1cccc(C(F)(F)F)c1 (cis-trans isomerization)
O=C(CCCOc1ccc(Cl)cc1Cl)[N-]/N=C\c1cccc(C(F)(F)F)c1 (3D coordinates assigned)
O=C(CCCOc1ccc(Cl)cc1Cl)[N-]/N=C\c1cccc(C(F)(F)F)c1 (optimized conformer: 42.0688937200415 kcal/mol)

>  <smiles>  (68) 
O=C(CCCOc1ccc(Cl)cc1Cl)NN=Cc1cccc(C(F)(F)F)c1

>  <score_type>  (68) 
oracle

>  <origin>  (68) 
autodockgpu

>  <m_score__min__energy>  (68) 
-6.9299999999999997

>  <m_primary>  (68) 
energy

>  <meeko>  (68) 
{"free_energy": -6.93, "intermolecular_energy": -9.92, "internal_energy": -0.72, "cluster_size": 12, "cluster_id": 1, "rank_in_cluster": 1}

>  <energy>  (68) 
-6.41

>  <cluster_rmsd>  (68) 
0.97

>  <rmsd>  (68) 
272.56

>  <cluster>  (68) 
1

$$$$
VHXSVHVNRGGTDL-UPLQUKELNA-M
     RDKit          3D

 41 42  0  0  0  0  0  0  0  0999 V2000
  140.9701   70.8490  222.5088 H   0  0  0  0  0  0  0  0  0  0  0  0
  140.4180   71.4480  223.2480 C   0  0  0  0  0  0  0  0  0  0  0  0
  140.0220   72.6370  222.9070 N   0  0  0  0  0  0  0  0  0  0  0  0
  140.6630   73.3970  221.9190 N   0  0  0  0  0  0  0  0  0  0  0  0
  140.1920   74.6920  221.5560 C   0  0  0  0  0  0  0  0  0  0  0  0
  140.9550   75.6890  221.6480 O   0  0  0  0  0  0  0  0  0  0  0  0
  138.7770   74.8690  221.1090 C   0  0  0  0  0  0  0  0  0  0  0  0
  138.6196   74.3110  220.1742 H   0  0  0  0  0  0  0  0  0  0  0  0
  138.1047   74.4899  221.8928 H   0  0  0  0  0  0  0  0  0  0  0  0
  138.4750   76.3520  220.8690 C   0  0  0  0  0  0  0  0  0  0  0  0
  139.4266   76.8841  220.7229 H   0  0  0  0  0  0  0  0  0  0  0  0
  137.8277   76.4162  219.9819 H   0  0  0  0  0  0  0  0  0  0  0  0
  137.7230   77.0070  222.0330 C   0  0  0  0  0  0  0  0  0  0  0  0
  136.6411   76.9082  221.8607 H   0  0  0  0  0  0  0  0  0  0  0  0
  138.0183   76.5009  222.9639 H   0  0  0  0  0  0  0  0  0  0  0  0
  138.0500   78.3930  222.1520 O   0  0  0  0  0  0  0  0  0  0  0  0
  139.2940   78.9310  222.5310 C   0  0  0  0  0  0  0  0  0  0  0  0
  140.5180   78.4740  221.9990 C   0  0  0  0  0  0  0  0  0  0  0  0
  140.5228   77.6585  221.2608 H   0  0  0  0  0  0  0  0  0  0  0  0
  141.7240   79.0510  222.4040 C   0  0  0  0  0  0  0  0  0  0  0  0
  142.6737   78.6876  221.9845 H   0  0  0  0  0  0  0  0  0  0  0  0
  141.7280   80.0880  223.3400 C   0  0  0  0  0  0  0  0  0  0  0  0
  143.2440   80.8130  223.8440 Cl  0  0  0  0  0  0  0  0  0  0  0  0
  140.5220   80.5490  223.8730 C   0  0  0  0  0  0  0  0  0  0  0  0
  140.5247   81.3655  224.6101 H   0  0  0  0  0  0  0  0  0  0  0  0
  139.3100   79.9750  223.4720 C   0  0  0  0  0  0  0  0  0  0  0  0
  137.8120   80.5740  224.1640 Cl  0  0  0  0  0  0  0  0  0  0  0  0
  140.1640   70.8600  224.5790 C   0  0  0  0  0  0  0  0  0  0  0  0
  139.3890   69.6920  224.6720 C   0  0  0  0  0  0  0  0  0  0  0  0
  138.9920   69.2248  223.7587 H   0  0  0  0  0  0  0  0  0  0  0  0
  139.1200   69.1210  225.9170 C   0  0  0  0  0  0  0  0  0  0  0  0
  138.4933   68.2194  225.9829 H   0  0  0  0  0  0  0  0  0  0  0  0
  139.6450   69.6920  227.0810 C   0  0  0  0  0  0  0  0  0  0  0  0
  139.4109   69.2507  228.0610 H   0  0  0  0  0  0  0  0  0  0  0  0
  140.4710   70.8280  227.0040 C   0  0  0  0  0  0  0  0  0  0  0  0
  141.0310   71.4700  228.2500 C   0  0  0  0  0  0  0  0  0  0  0  0
  141.8060   72.5670  227.9140 F   0  0  0  0  0  0  0  0  0  0  0  0
  139.9880   71.8860  229.0560 F   0  0  0  0  0  0  0  0  0  0  0  0
  141.8220   70.5830  228.9610 F   0  0  0  0  0  0  0  0  0  0  0  0
  140.7160   71.4130  225.7490 C   0  0  0  0  0  0  0  0  0  0  0  0
  141.3458   72.3123  225.6813 H   0  0  0  0  0  0  0  0  0  0  0  0
  1  2  1  0
  2  3  2  0
  3  4  1  0
  4  5  1  0
  5  6  2  0
  5  7  1  0
  7  8  1  0
  7  9  1  0
  7 10  1  0
 10 11  1  0
 10 12  1  0
 10 13  1  0
 13 14  1  0
 13 15  1  0
 13 16  1  0
 16 17  1  0
 17 18  2  0
 18 19  1  0
 18 20  1  0
 20 21  1  0
 20 22  2  0
 22 23  1  0
 22 24  1  0
 24 25  1  0
 24 26  2  0
 26 27  1  0
  2 28  1  0
 28 29  2  0
 29 30  1  0
 29 31  1  0
 31 32  1  0
 31 33  2  0
 33 34  1  0
 33 35  1  0
 35 36  1  0
 36 37  1  0
 36 38  1  0
 36 39  1  0
 35 40  2  0
 40 41  1  0
 26 17  1  0
 40 28  1  0
M  CHG  1   4  -1
M  END
>  <UniqueID>  (69) 
20

>  <SMILES>  (69) 
O=C(CCCOc1ccc(Cl)cc1Cl)[N-]/N=C\c1cccc(C(F)(F)F)c1

>  <Energy>  (69) 
42.0688937200415

>  <Genealogy>  (69) 
O=C(CCCOc1ccc(Cl)cc1Cl)[N-]N=Cc1cccc(C(F)(F)F)c1 (protonated)
O=C(CCCOc1ccc(Cl)cc1Cl)[N-]/N=C\c1cccc(C(F)(F)F)c1 (cis-trans isomerization)
O=C(CCCOc1ccc(Cl)cc1Cl)[N-]/N=C\c1cccc(C(F)(F)F)c1 (3D coordinates assigned)
O=C(CCCOc1ccc(Cl)cc1Cl)[N-]/N=C\c1cccc(C(F)(F)F)c1 (optimized conformer: 42.0688937200415 kcal/mol)

>  <smiles>  (69) 
O=C(CCCOc1ccc(Cl)cc1Cl)NN=Cc1cccc(C(F)(F)F)c1

>  <score_type>  (69) 
oracle

>  <origin>  (69) 
autodockgpu

>  <m_score__min__energy>  (69) 
-6.9299999999999997

>  <m_primary>  (69) 
energy

>  <meeko>  (69) 
{"free_energy": -6.37, "intermolecular_energy": -9.35, "internal_energy": -0.78, "cluster_size": 12, "cluster_id": 1, "rank_in_cluster": 10}

>  <energy>  (69) 
-6.4

>  <cluster_rmsd>  (69) 
1.36

>  <rmsd>  (69) 
272.44

>  <cluster>  (69) 
1

$$$$
VHXSVHVNRGGTDL-UPLQUKELNA-M
     RDKit          3D

 41 42  0  0  0  0  0  0  0  0999 V2000
  138.1334   69.8574  223.3932 H   0  0  0  0  0  0  0  0  0  0  0  0
  139.0810   70.3520  223.6530 C   0  0  0  0  0  0  0  0  0  0  0  0
  139.6090   71.1660  222.7900 N   0  0  0  0  0  0  0  0  0  0  0  0
  139.8930   72.5060  223.0840 N   0  0  0  0  0  0  0  0  0  0  0  0
  139.8870   73.5070  222.0690 C   0  0  0  0  0  0  0  0  0  0  0  0
  140.8690   74.2850  221.9440 O   0  0  0  0  0  0  0  0  0  0  0  0
  138.6920   73.6600  221.1840 C   0  0  0  0  0  0  0  0  0  0  0  0
  139.0255   73.8086  220.1464 H   0  0  0  0  0  0  0  0  0  0  0  0
  138.0754   72.7519  221.2552 H   0  0  0  0  0  0  0  0  0  0  0  0
  137.8550   74.8670  221.6240 C   0  0  0  0  0  0  0  0  0  0  0  0
  136.8688   74.8048  221.1407 H   0  0  0  0  0  0  0  0  0  0  0  0
  137.7771   74.8318  222.7207 H   0  0  0  0  0  0  0  0  0  0  0  0
  138.4980   76.2080  221.2520 C   0  0  0  0  0  0  0  0  0  0  0  0
  139.5472   76.0359  220.9700 H   0  0  0  0  0  0  0  0  0  0  0  0
  137.9345   76.6414  220.4126 H   0  0  0  0  0  0  0  0  0  0  0  0
  138.4550   77.1280  222.3460 O   0  0  0  0  0  0  0  0  0  0  0  0
  139.4610   78.0410  222.7120 C   0  0  0  0  0  0  0  0  0  0  0  0
  140.8340   77.7200  222.6730 C   0  0  0  0  0  0  0  0  0  0  0  0
  141.1525   76.7170  222.3529 H   0  0  0  0  0  0  0  0  0  0  0  0
  141.7920   78.6700  223.0390 C   0  0  0  0  0  0  0  0  0  0  0  0
  142.8607   78.4113  223.0080 H   0  0  0  0  0  0  0  0  0  0  0  0
  141.3960   79.9470  223.4440 C   0  0  0  0  0  0  0  0  0  0  0  0
  142.6020   81.1380  223.8990 Cl  0  0  0  0  0  0  0  0  0  0  0  0
  140.0400   80.2750  223.4840 C   0  0  0  0  0  0  0  0  0  0  0  0
  139.7284   81.2807  223.8025 H   0  0  0  0  0  0  0  0  0  0  0  0
  139.0750   79.3280  223.1200 C   0  0  0  0  0  0  0  0  0  0  0  0
  137.3770   79.7720  223.1870 Cl  0  0  0  0  0  0  0  0  0  0  0  0
  139.6900   70.0570  224.9670 C   0  0  0  0  0  0  0  0  0  0  0  0
  139.9000   68.7180  225.3360 C   0  0  0  0  0  0  0  0  0  0  0  0
  139.6209   67.9096  224.6442 H   0  0  0  0  0  0  0  0  0  0  0  0
  140.4610   68.4080  226.5760 C   0  0  0  0  0  0  0  0  0  0  0  0
  140.6005   67.3564  226.8670 H   0  0  0  0  0  0  0  0  0  0  0  0
  140.8460   69.4290  227.4490 C   0  0  0  0  0  0  0  0  0  0  0  0
  141.2667   69.1777  228.4338 H   0  0  0  0  0  0  0  0  0  0  0  0
  140.6980   70.7770  227.0740 C   0  0  0  0  0  0  0  0  0  0  0  0
  141.0900   71.8940  228.0100 C   0  0  0  0  0  0  0  0  0  0  0  0
  141.8130   71.3900  229.0780 F   0  0  0  0  0  0  0  0  0  0  0  0
  141.8730   72.8070  227.3280 F   0  0  0  0  0  0  0  0  0  0  0  0
  139.9750   72.5450  228.5120 F   0  0  0  0  0  0  0  0  0  0  0  0
  140.1080   71.0830  225.8340 C   0  0  0  0  0  0  0  0  0  0  0  0
  139.9723   72.1342  225.5397 H   0  0  0  0  0  0  0  0  0  0  0  0
  1  2  1  0
  2  3  2  0
  3  4  1  0
  4  5  1  0
  5  6  2  0
  5  7  1  0
  7  8  1  0
  7  9  1  0
  7 10  1  0
 10 11  1  0
 10 12  1  0
 10 13  1  0
 13 14  1  0
 13 15  1  0
 13 16  1  0
 16 17  1  0
 17 18  2  0
 18 19  1  0
 18 20  1  0
 20 21  1  0
 20 22  2  0
 22 23  1  0
 22 24  1  0
 24 25  1  0
 24 26  2  0
 26 27  1  0
  2 28  1  0
 28 29  2  0
 29 30  1  0
 29 31  1  0
 31 32  1  0
 31 33  2  0
 33 34  1  0
 33 35  1  0
 35 36  1  0
 36 37  1  0
 36 38  1  0
 36 39  1  0
 35 40  2  0
 40 41  1  0
 26 17  1  0
 40 28  1  0
M  CHG  1   4  -1
M  END
>  <UniqueID>  (70) 
20

>  <SMILES>  (70) 
O=C(CCCOc1ccc(Cl)cc1Cl)[N-]/N=C\c1cccc(C(F)(F)F)c1

>  <Energy>  (70) 
42.0688937200415

>  <Genealogy>  (70) 
O=C(CCCOc1ccc(Cl)cc1Cl)[N-]N=Cc1cccc(C(F)(F)F)c1 (protonated)
O=C(CCCOc1ccc(Cl)cc1Cl)[N-]/N=C\c1cccc(C(F)(F)F)c1 (cis-trans isomerization)
O=C(CCCOc1ccc(Cl)cc1Cl)[N-]/N=C\c1cccc(C(F)(F)F)c1 (3D coordinates assigned)
O=C(CCCOc1ccc(Cl)cc1Cl)[N-]/N=C\c1cccc(C(F)(F)F)c1 (optimized conformer: 42.0688937200415 kcal/mol)

>  <smiles>  (70) 
O=C(CCCOc1ccc(Cl)cc1Cl)NN=Cc1cccc(C(F)(F)F)c1

>  <score_type>  (70) 
oracle

>  <origin>  (70) 
autodockgpu

>  <m_score__min__energy>  (70) 
-6.9299999999999997

>  <m_primary>  (70) 
energy

>  <meeko>  (70) 
{"free_energy": -6.63, "intermolecular_energy": -9.61, "internal_energy": -0.81, "cluster_size": 12, "cluster_id": 1, "rank_in_cluster": 3}

>  <energy>  (70) 
-6.37

>  <cluster_rmsd>  (70) 
0.67

>  <rmsd>  (70) 
272.73

>  <cluster>  (70) 
1

$$$$
VHXSVHVNRGGTDL-UPLQUKELNA-M
     RDKit          3D

 41 42  0  0  0  0  0  0  0  0999 V2000
  139.7173   71.1761  222.1177 H   0  0  0  0  0  0  0  0  0  0  0  0
  140.0820   71.6870  223.0210 C   0  0  0  0  0  0  0  0  0  0  0  0
  140.5200   72.9040  222.9070 N   0  0  0  0  0  0  0  0  0  0  0  0
  140.2410   73.7110  221.7960 N   0  0  0  0  0  0  0  0  0  0  0  0
  138.9940   74.3860  221.6620 C   0  0  0  0  0  0  0  0  0  0  0  0
  138.0630   73.8670  220.9910 O   0  0  0  0  0  0  0  0  0  0  0  0
  138.8090   75.7340  222.2810 C   0  0  0  0  0  0  0  0  0  0  0  0
  138.9558   75.6568  223.3684 H   0  0  0  0  0  0  0  0  0  0  0  0
  139.5440   76.4292  221.8491 H   0  0  0  0  0  0  0  0  0  0  0  0
  137.3990   76.2620  221.9980 C   0  0  0  0  0  0  0  0  0  0  0  0
  137.2944   76.4182  220.9142 H   0  0  0  0  0  0  0  0  0  0  0  0
  136.6861   75.5146  222.3763 H   0  0  0  0  0  0  0  0  0  0  0  0
  137.0990   77.5840  222.7130 C   0  0  0  0  0  0  0  0  0  0  0  0
  136.0222   77.7955  222.6374 H   0  0  0  0  0  0  0  0  0  0  0  0
  137.4044   77.4858  223.7652 H   0  0  0  0  0  0  0  0  0  0  0  0
  137.8280   78.6680  222.1320 O   0  0  0  0  0  0  0  0  0  0  0  0
  139.1360   79.0690  222.4590 C   0  0  0  0  0  0  0  0  0  0  0  0
  140.2800   78.5200  221.8420 C   0  0  0  0  0  0  0  0  0  0  0  0
  140.1662   77.7394  221.0754 H   0  0  0  0  0  0  0  0  0  0  0  0
  141.5570   78.9620  222.1990 C   0  0  0  0  0  0  0  0  0  0  0  0
  142.4433   78.5273  221.7138 H   0  0  0  0  0  0  0  0  0  0  0  0
  141.7110   79.9540  223.1700 C   0  0  0  0  0  0  0  0  0  0  0  0
  143.3150   80.5090  223.6130 Cl  0  0  0  0  0  0  0  0  0  0  0  0
  140.5850   80.5050  223.7860 C   0  0  0  0  0  0  0  0  0  0  0  0
  140.7058   81.2867  224.5504 H   0  0  0  0  0  0  0  0  0  0  0  0
  139.3040   80.0660  223.4340 C   0  0  0  0  0  0  0  0  0  0  0  0
  137.9100   80.7770  224.2320 Cl  0  0  0  0  0  0  0  0  0  0  0  0
  140.0490   70.9540  224.3040 C   0  0  0  0  0  0  0  0  0  0  0  0
  139.5530   69.6400  224.3260 C   0  0  0  0  0  0  0  0  0  0  0  0
  139.2068   69.1703  223.3935 H   0  0  0  0  0  0  0  0  0  0  0  0
  139.4970   68.9270  225.5250 C   0  0  0  0  0  0  0  0  0  0  0  0
  139.0858   67.9068  225.5379 H   0  0  0  0  0  0  0  0  0  0  0  0
  139.9620   69.5060  226.7090 C   0  0  0  0  0  0  0  0  0  0  0  0
  139.8944   68.9477  227.6544 H   0  0  0  0  0  0  0  0  0  0  0  0
  140.5160   70.7990  226.6980 C   0  0  0  0  0  0  0  0  0  0  0  0
  141.0060   71.4490  227.9690 C   0  0  0  0  0  0  0  0  0  0  0  0
  141.7550   70.5480  228.7070 F   0  0  0  0  0  0  0  0  0  0  0  0
  141.7980   72.5360  227.6490 F   0  0  0  0  0  0  0  0  0  0  0  0
  139.9490   71.8780  228.7550 F   0  0  0  0  0  0  0  0  0  0  0  0
  140.5460   71.5210  225.4910 C   0  0  0  0  0  0  0  0  0  0  0  0
  140.9623   72.5391  225.4756 H   0  0  0  0  0  0  0  0  0  0  0  0
  1  2  1  0
  2  3  2  0
  3  4  1  0
  4  5  1  0
  5  6  2  0
  5  7  1  0
  7  8  1  0
  7  9  1  0
  7 10  1  0
 10 11  1  0
 10 12  1  0
 10 13  1  0
 13 14  1  0
 13 15  1  0
 13 16  1  0
 16 17  1  0
 17 18  2  0
 18 19  1  0
 18 20  1  0
 20 21  1  0
 20 22  2  0
 22 23  1  0
 22 24  1  0
 24 25  1  0
 24 26  2  0
 26 27  1  0
  2 28  1  0
 28 29  2  0
 29 30  1  0
 29 31  1  0
 31 32  1  0
 31 33  2  0
 33 34  1  0
 33 35  1  0
 35 36  1  0
 36 37  1  0
 36 38  1  0
 36 39  1  0
 35 40  2  0
 40 41  1  0
 26 17  1  0
 40 28  1  0
M  CHG  1   4  -1
M  END
>  <UniqueID>  (71) 
20

>  <SMILES>  (71) 
O=C(CCCOc1ccc(Cl)cc1Cl)[N-]/N=C\c1cccc(C(F)(F)F)c1

>  <Energy>  (71) 
42.0688937200415

>  <Genealogy>  (71) 
O=C(CCCOc1ccc(Cl)cc1Cl)[N-]N=Cc1cccc(C(F)(F)F)c1 (protonated)
O=C(CCCOc1ccc(Cl)cc1Cl)[N-]/N=C\c1cccc(C(F)(F)F)c1 (cis-trans isomerization)
O=C(CCCOc1ccc(Cl)cc1Cl)[N-]/N=C\c1cccc(C(F)(F)F)c1 (3D coordinates assigned)
O=C(CCCOc1ccc(Cl)cc1Cl)[N-]/N=C\c1cccc(C(F)(F)F)c1 (optimized conformer: 42.0688937200415 kcal/mol)

>  <smiles>  (71) 
O=C(CCCOc1ccc(Cl)cc1Cl)NN=Cc1cccc(C(F)(F)F)c1

>  <score_type>  (71) 
oracle

>  <origin>  (71) 
autodockgpu

>  <m_score__min__energy>  (71) 
-6.9299999999999997

>  <m_primary>  (71) 
energy

>  <meeko>  (71) 
{"free_energy": -6.41, "intermolecular_energy": -9.39, "internal_energy": -0.73, "cluster_size": 12, "cluster_id": 1, "rank_in_cluster": 8}

>  <energy>  (71) 
-6.16

>  <cluster_rmsd>  (71) 
1.57

>  <rmsd>  (71) 
272.48

>  <cluster>  (71) 
1

$$$$
VHXSVHVNRGGTDL-UPLQUKELNA-M
     RDKit          3D

 41 42  0  0  0  0  0  0  0  0999 V2000
  140.1458   71.0905  222.1250 H   0  0  0  0  0  0  0  0  0  0  0  0
  140.2020   71.6720  223.0570 C   0  0  0  0  0  0  0  0  0  0  0  0
  140.3230   72.9620  222.9730 N   0  0  0  0  0  0  0  0  0  0  0  0
  140.4870   73.6320  221.7540 N   0  0  0  0  0  0  0  0  0  0  0  0
  141.7220   73.5900  221.0430 C   0  0  0  0  0  0  0  0  0  0  0  0
  142.2730   72.4850  220.7990 O   0  0  0  0  0  0  0  0  0  0  0  0
  142.3830   74.8660  220.6280 C   0  0  0  0  0  0  0  0  0  0  0  0
  142.1318   75.6564  221.3506 H   0  0  0  0  0  0  0  0  0  0  0  0
  143.4718   74.7121  220.6006 H   0  0  0  0  0  0  0  0  0  0  0  0
  141.9040   75.2850  219.2340 C   0  0  0  0  0  0  0  0  0  0  0  0
  142.4926   74.7389  218.4821 H   0  0  0  0  0  0  0  0  0  0  0  0
  140.8322   75.0464  219.1685 H   0  0  0  0  0  0  0  0  0  0  0  0
  142.0560   76.7880  218.9760 C   0  0  0  0  0  0  0  0  0  0  0  0
  143.0819   77.0927  219.2301 H   0  0  0  0  0  0  0  0  0  0  0  0
  141.8433   76.9800  217.9140 H   0  0  0  0  0  0  0  0  0  0  0  0
  141.1370   77.5480  219.7630 O   0  0  0  0  0  0  0  0  0  0  0  0
  141.4580   78.3960  220.8400 C   0  0  0  0  0  0  0  0  0  0  0  0
  141.4260   77.9680  222.1840 C   0  0  0  0  0  0  0  0  0  0  0  0
  141.1328   76.9350  222.4225 H   0  0  0  0  0  0  0  0  0  0  0  0
  141.7650   78.8500  223.2140 C   0  0  0  0  0  0  0  0  0  0  0  0
  141.7364   78.5090  224.2594 H   0  0  0  0  0  0  0  0  0  0  0  0
  142.1400   80.1630  222.9200 C   0  0  0  0  0  0  0  0  0  0  0  0
  142.5680   81.2660  224.2160 Cl  0  0  0  0  0  0  0  0  0  0  0  0
  142.1760   80.5960  221.5930 C   0  0  0  0  0  0  0  0  0  0  0  0
  142.4708   81.6301  221.3613 H   0  0  0  0  0  0  0  0  0  0  0  0
  141.8380   79.7180  220.5570 C   0  0  0  0  0  0  0  0  0  0  0  0
  141.8890   80.2960  218.8990 Cl  0  0  0  0  0  0  0  0  0  0  0  0
  140.1360   70.9460  224.3430 C   0  0  0  0  0  0  0  0  0  0  0  0
  139.6080   69.6450  224.3640 C   0  0  0  0  0  0  0  0  0  0  0  0
  139.2619   69.1798  223.4292 H   0  0  0  0  0  0  0  0  0  0  0  0
  139.5200   68.9390  225.5650 C   0  0  0  0  0  0  0  0  0  0  0  0
  139.0838   67.9293  225.5770 H   0  0  0  0  0  0  0  0  0  0  0  0
  139.9850   69.5120  226.7530 C   0  0  0  0  0  0  0  0  0  0  0  0
  139.8928   68.9597  227.6998 H   0  0  0  0  0  0  0  0  0  0  0  0
  140.5700   70.7910  226.7430 C   0  0  0  0  0  0  0  0  0  0  0  0
  141.0590   71.4350  228.0170 C   0  0  0  0  0  0  0  0  0  0  0  0
  139.9850   71.8480  228.7870 F   0  0  0  0  0  0  0  0  0  0  0  0
  141.8000   70.5140  228.7360 F   0  0  0  0  0  0  0  0  0  0  0  0
  141.8520   72.5390  227.7510 F   0  0  0  0  0  0  0  0  0  0  0  0
  140.6310   71.5070  225.5340 C   0  0  0  0  0  0  0  0  0  0  0  0
  141.0701   72.5155  225.5197 H   0  0  0  0  0  0  0  0  0  0  0  0
  1  2  1  0
  2  3  2  0
  3  4  1  0
  4  5  1  0
  5  6  2  0
  5  7  1  0
  7  8  1  0
  7  9  1  0
  7 10  1  0
 10 11  1  0
 10 12  1  0
 10 13  1  0
 13 14  1  0
 13 15  1  0
 13 16  1  0
 16 17  1  0
 17 18  2  0
 18 19  1  0
 18 20  1  0
 20 21  1  0
 20 22  2  0
 22 23  1  0
 22 24  1  0
 24 25  1  0
 24 26  2  0
 26 27  1  0
  2 28  1  0
 28 29  2  0
 29 30  1  0
 29 31  1  0
 31 32  1  0
 31 33  2  0
 33 34  1  0
 33 35  1  0
 35 36  1  0
 36 37  1  0
 36 38  1  0
 36 39  1  0
 35 40  2  0
 40 41  1  0
 26 17  1  0
 40 28  1  0
M  CHG  1   4  -1
M  END
>  <UniqueID>  (72) 
20

>  <SMILES>  (72) 
O=C(CCCOc1ccc(Cl)cc1Cl)[N-]/N=C\c1cccc(C(F)(F)F)c1

>  <Energy>  (72) 
42.0688937200415

>  <Genealogy>  (72) 
O=C(CCCOc1ccc(Cl)cc1Cl)[N-]N=Cc1cccc(C(F)(F)F)c1 (protonated)
O=C(CCCOc1ccc(Cl)cc1Cl)[N-]/N=C\c1cccc(C(F)(F)F)c1 (cis-trans isomerization)
O=C(CCCOc1ccc(Cl)cc1Cl)[N-]/N=C\c1cccc(C(F)(F)F)c1 (3D coordinates assigned)
O=C(CCCOc1ccc(Cl)cc1Cl)[N-]/N=C\c1cccc(C(F)(F)F)c1 (optimized conformer: 42.0688937200415 kcal/mol)

>  <smiles>  (72) 
O=C(CCCOc1ccc(Cl)cc1Cl)NN=Cc1cccc(C(F)(F)F)c1

>  <score_type>  (72) 
oracle

>  <origin>  (72) 
autodockgpu

>  <m_score__min__energy>  (72) 
-6.9299999999999997

>  <m_primary>  (72) 
energy

>  <meeko>  (72) 
{"free_energy": -6.57, "intermolecular_energy": -9.55, "internal_energy": -0.67, "cluster_size": 12, "cluster_id": 1, "rank_in_cluster": 5}

>  <energy>  (72) 
-6.03

>  <cluster_rmsd>  (72) 
1.61

>  <rmsd>  (72) 
272.4

>  <cluster>  (72) 
1

$$$$
VHXSVHVNRGGTDL-UPLQUKELNA-M
     RDKit          3D

 41 42  0  0  0  0  0  0  0  0999 V2000
  141.2242   71.2622  222.2140 H   0  0  0  0  0  0  0  0  0  0  0  0
  140.6530   71.8290  222.9640 C   0  0  0  0  0  0  0  0  0  0  0  0
  140.3060   73.0480  222.6830 N   0  0  0  0  0  0  0  0  0  0  0  0
  139.3620   73.3620  221.6970 N   0  0  0  0  0  0  0  0  0  0  0  0
  137.9630   73.3230  221.9680 C   0  0  0  0  0  0  0  0  0  0  0  0
  137.4120   72.2390  222.2930 O   0  0  0  0  0  0  0  0  0  0  0  0
  137.1440   74.5650  221.8210 C   0  0  0  0  0  0  0  0  0  0  0  0
  136.1788   74.3106  221.3587 H   0  0  0  0  0  0  0  0  0  0  0  0
  136.9809   75.0059  222.8155 H   0  0  0  0  0  0  0  0  0  0  0  0
  137.8750   75.5830  220.9380 C   0  0  0  0  0  0  0  0  0  0  0  0
  138.9490   75.3452  220.9445 H   0  0  0  0  0  0  0  0  0  0  0  0
  137.4445   75.5116  219.9283 H   0  0  0  0  0  0  0  0  0  0  0  0
  137.6920   77.0290  221.4130 C   0  0  0  0  0  0  0  0  0  0  0  0
  138.1435   77.7081  220.6748 H   0  0  0  0  0  0  0  0  0  0  0  0
  136.6147   77.2259  221.5166 H   0  0  0  0  0  0  0  0  0  0  0  0
  138.3130   77.2430  222.6830 O   0  0  0  0  0  0  0  0  0  0  0  0
  139.3650   78.1340  222.9610 C   0  0  0  0  0  0  0  0  0  0  0  0
  139.1580   79.4020  223.5440 C   0  0  0  0  0  0  0  0  0  0  0  0
  138.1377   79.7298  223.7922 H   0  0  0  0  0  0  0  0  0  0  0  0
  140.2420   80.2440  223.8080 C   0  0  0  0  0  0  0  0  0  0  0  0
  140.0714   81.2312  224.2622 H   0  0  0  0  0  0  0  0  0  0  0  0
  141.5410   79.8360  223.4970 C   0  0  0  0  0  0  0  0  0  0  0  0
  142.9000   80.8950  223.8320 Cl  0  0  0  0  0  0  0  0  0  0  0  0
  141.7580   78.5820  222.9200 C   0  0  0  0  0  0  0  0  0  0  0  0
  142.7810   78.2605  222.6750 H   0  0  0  0  0  0  0  0  0  0  0  0
  140.6770   77.7340  222.6530 C   0  0  0  0  0  0  0  0  0  0  0  0
  140.9830   76.1660  221.9240 Cl  0  0  0  0  0  0  0  0  0  0  0  0
  140.3190   71.1650  224.2410 C   0  0  0  0  0  0  0  0  0  0  0  0
  139.5470   69.9920  224.2190 C   0  0  0  0  0  0  0  0  0  0  0  0
  139.2107   69.5769  223.2574 H   0  0  0  0  0  0  0  0  0  0  0  0
  139.2040   69.3500  225.4090 C   0  0  0  0  0  0  0  0  0  0  0  0
  138.5794   68.4449  225.3837 H   0  0  0  0  0  0  0  0  0  0  0  0
  139.6520   69.8540  226.6340 C   0  0  0  0  0  0  0  0  0  0  0  0
  139.3604   69.3561  227.5705 H   0  0  0  0  0  0  0  0  0  0  0  0
  140.4740   70.9950  226.6740 C   0  0  0  0  0  0  0  0  0  0  0  0
  140.9520   71.5650  227.9870 C   0  0  0  0  0  0  0  0  0  0  0  0
  139.8760   72.0290  228.7260 F   0  0  0  0  0  0  0  0  0  0  0  0
  141.5970   70.5760  228.7060 F   0  0  0  0  0  0  0  0  0  0  0  0
  141.8270   72.6200  227.7890 F   0  0  0  0  0  0  0  0  0  0  0  0
  140.7940   71.6520  225.4730 C   0  0  0  0  0  0  0  0  0  0  0  0
  141.4215   72.5551  225.4965 H   0  0  0  0  0  0  0  0  0  0  0  0
  1  2  1  0
  2  3  2  0
  3  4  1  0
  4  5  1  0
  5  6  2  0
  5  7  1  0
  7  8  1  0
  7  9  1  0
  7 10  1  0
 10 11  1  0
 10 12  1  0
 10 13  1  0
 13 14  1  0
 13 15  1  0
 13 16  1  0
 16 17  1  0
 17 18  2  0
 18 19  1  0
 18 20  1  0
 20 21  1  0
 20 22  2  0
 22 23  1  0
 22 24  1  0
 24 25  1  0
 24 26  2  0
 26 27  1  0
  2 28  1  0
 28 29  2  0
 29 30  1  0
 29 31  1  0
 31 32  1  0
 31 33  2  0
 33 34  1  0
 33 35  1  0
 35 36  1  0
 36 37  1  0
 36 38  1  0
 36 39  1  0
 35 40  2  0
 40 41  1  0
 26 17  1  0
 40 28  1  0
M  CHG  1   4  -1
M  END
>  <UniqueID>  (73) 
20

>  <SMILES>  (73) 
O=C(CCCOc1ccc(Cl)cc1Cl)[N-]/N=C\c1cccc(C(F)(F)F)c1

>  <Energy>  (73) 
42.0688937200415

>  <Genealogy>  (73) 
O=C(CCCOc1ccc(Cl)cc1Cl)[N-]N=Cc1cccc(C(F)(F)F)c1 (protonated)
O=C(CCCOc1ccc(Cl)cc1Cl)[N-]/N=C\c1cccc(C(F)(F)F)c1 (cis-trans isomerization)
O=C(CCCOc1ccc(Cl)cc1Cl)[N-]/N=C\c1cccc(C(F)(F)F)c1 (3D coordinates assigned)
O=C(CCCOc1ccc(Cl)cc1Cl)[N-]/N=C\c1cccc(C(F)(F)F)c1 (optimized conformer: 42.0688937200415 kcal/mol)

>  <smiles>  (73) 
O=C(CCCOc1ccc(Cl)cc1Cl)NN=Cc1cccc(C(F)(F)F)c1

>  <score_type>  (73) 
oracle

>  <origin>  (73) 
autodockgpu

>  <m_score__min__energy>  (73) 
-6.9299999999999997

>  <m_primary>  (73) 
energy

>  <meeko>  (73) 
{"free_energy": -6.03, "intermolecular_energy": -9.01, "internal_energy": -0.88, "cluster_size": 12, "cluster_id": 1, "rank_in_cluster": 12}

>  <energy>  (73) 
-6.56

>  <cluster_rmsd>  (73) 
0.0

>  <rmsd>  (73) 
272.11

>  <cluster>  (73) 
2

$$$$
VHXSVHVNRGGTDL-UPLQUKELNA-M
     RDKit          3D

 41 42  0  0  0  0  0  0  0  0999 V2000
  139.9311   71.0454  222.0529 H   0  0  0  0  0  0  0  0  0  0  0  0
  140.2380   71.6280  222.9340 C   0  0  0  0  0  0  0  0  0  0  0  0
  140.6640   72.8410  222.7540 N   0  0  0  0  0  0  0  0  0  0  0  0
  139.8470   73.8680  222.2650 N   0  0  0  0  0  0  0  0  0  0  0  0
  140.3930   75.1120  221.8340 C   0  0  0  0  0  0  0  0  0  0  0  0
  140.2150   76.1520  222.5200 O   0  0  0  0  0  0  0  0  0  0  0  0
  141.1390   75.1860  220.5400 C   0  0  0  0  0  0  0  0  0  0  0  0
  142.1932   74.9244  220.7137 H   0  0  0  0  0  0  0  0  0  0  0  0
  140.6877   74.4808  219.8266 H   0  0  0  0  0  0  0  0  0  0  0  0
  141.0590   76.6010  219.9590 C   0  0  0  0  0  0  0  0  0  0  0  0
  141.1342   76.5348  218.8636 H   0  0  0  0  0  0  0  0  0  0  0  0
  140.1001   77.0343  220.2797 H   0  0  0  0  0  0  0  0  0  0  0  0
  142.1720   77.5230  220.4700 C   0  0  0  0  0  0  0  0  0  0  0  0
  142.5214   77.1553  221.4461 H   0  0  0  0  0  0  0  0  0  0  0  0
  142.9905   77.5178  219.7351 H   0  0  0  0  0  0  0  0  0  0  0  0
  141.7090   78.8670  220.6180 O   0  0  0  0  0  0  0  0  0  0  0  0
  140.7630   79.3290  221.5510 C   0  0  0  0  0  0  0  0  0  0  0  0
  139.3720   79.1950  221.3580 C   0  0  0  0  0  0  0  0  0  0  0  0
  138.9903   78.7193  220.4425 H   0  0  0  0  0  0  0  0  0  0  0  0
  138.4760   79.6630  222.3230 C   0  0  0  0  0  0  0  0  0  0  0  0
  137.3929   79.5563  222.1633 H   0  0  0  0  0  0  0  0  0  0  0  0
  138.9520   80.2660  223.4900 C   0  0  0  0  0  0  0  0  0  0  0  0
  137.8240   80.8490  224.7010 Cl  0  0  0  0  0  0  0  0  0  0  0  0
  140.3270   80.4020  223.6920 C   0  0  0  0  0  0  0  0  0  0  0  0
  140.7021   80.8768  224.6106 H   0  0  0  0  0  0  0  0  0  0  0  0
  141.2290   79.9360  222.7290 C   0  0  0  0  0  0  0  0  0  0  0  0
  142.9520   80.1260  223.0120 Cl  0  0  0  0  0  0  0  0  0  0  0  0
  140.1450   70.9910  224.2650 C   0  0  0  0  0  0  0  0  0  0  0  0
  139.5960   69.7020  224.3670 C   0  0  0  0  0  0  0  0  0  0  0  0
  139.2540   69.1798  223.4613 H   0  0  0  0  0  0  0  0  0  0  0  0
  139.4820   69.0800  225.6120 C   0  0  0  0  0  0  0  0  0  0  0  0
  139.0292   68.0803  225.6865 H   0  0  0  0  0  0  0  0  0  0  0  0
  139.9420   69.7250  226.7640 C   0  0  0  0  0  0  0  0  0  0  0  0
  139.8296   69.2394  227.7446 H   0  0  0  0  0  0  0  0  0  0  0  0
  140.5480   70.9920  226.6760 C   0  0  0  0  0  0  0  0  0  0  0  0
  141.0330   71.7120  227.9100 C   0  0  0  0  0  0  0  0  0  0  0  0
  141.8370   72.7810  227.5540 F   0  0  0  0  0  0  0  0  0  0  0  0
  139.9440   72.1840  228.6190 F   0  0  0  0  0  0  0  0  0  0  0  0
  141.7690   70.8700  228.7270 F   0  0  0  0  0  0  0  0  0  0  0  0
  140.6350   71.6230  225.4220 C   0  0  0  0  0  0  0  0  0  0  0  0
  141.0910   72.6211  225.3454 H   0  0  0  0  0  0  0  0  0  0  0  0
  1  2  1  0
  2  3  2  0
  3  4  1  0
  4  5  1  0
  5  6  2  0
  5  7  1  0
  7  8  1  0
  7  9  1  0
  7 10  1  0
 10 11  1  0
 10 12  1  0
 10 13  1  0
 13 14  1  0
 13 15  1  0
 13 16  1  0
 16 17  1  0
 17 18  2  0
 18 19  1  0
 18 20  1  0
 20 21  1  0
 20 22  2  0
 22 23  1  0
 22 24  1  0
 24 25  1  0
 24 26  2  0
 26 27  1  0
  2 28  1  0
 28 29  2  0
 29 30  1  0
 29 31  1  0
 31 32  1  0
 31 33  2  0
 33 34  1  0
 33 35  1  0
 35 36  1  0
 36 37  1  0
 36 38  1  0
 36 39  1  0
 35 40  2  0
 40 41  1  0
 26 17  1  0
 40 28  1  0
M  CHG  1   4  -1
M  END
>  <UniqueID>  (74) 
20

>  <SMILES>  (74) 
O=C(CCCOc1ccc(Cl)cc1Cl)[N-]/N=C\c1cccc(C(F)(F)F)c1

>  <Energy>  (74) 
42.0688937200415

>  <Genealogy>  (74) 
O=C(CCCOc1ccc(Cl)cc1Cl)[N-]N=Cc1cccc(C(F)(F)F)c1 (protonated)
O=C(CCCOc1ccc(Cl)cc1Cl)[N-]/N=C\c1cccc(C(F)(F)F)c1 (cis-trans isomerization)
O=C(CCCOc1ccc(Cl)cc1Cl)[N-]/N=C\c1cccc(C(F)(F)F)c1 (3D coordinates assigned)
O=C(CCCOc1ccc(Cl)cc1Cl)[N-]/N=C\c1cccc(C(F)(F)F)c1 (optimized conformer: 42.0688937200415 kcal/mol)

>  <smiles>  (74) 
O=C(CCCOc1ccc(Cl)cc1Cl)NN=Cc1cccc(C(F)(F)F)c1

>  <score_type>  (74) 
oracle

>  <origin>  (74) 
autodockgpu

>  <m_score__min__energy>  (74) 
-6.9299999999999997

>  <m_primary>  (74) 
energy

>  <meeko>  (74) 
{"free_energy": -6.56, "intermolecular_energy": -9.55, "internal_energy": -1.0, "cluster_size": 12, "cluster_id": 1, "rank_in_cluster": 6}

>  <energy>  (74) 
-6.24

>  <cluster_rmsd>  (74) 
0.0

>  <rmsd>  (74) 
272.54

>  <cluster>  (74) 
3

$$$$
VHXSVHVNRGGTDL-UPLQUKELNA-M
     RDKit          3D

 41 42  0  0  0  0  0  0  0  0999 V2000
  139.1600   68.4633  223.6668 H   0  0  0  0  0  0  0  0  0  0  0  0
  138.7540   69.0400  224.5110 C   0  0  0  0  0  0  0  0  0  0  0  0
  137.6020   69.6190  224.3650 N   0  0  0  0  0  0  0  0  0  0  0  0
  136.5900   69.5530  225.3310 N   0  0  0  0  0  0  0  0  0  0  0  0
  135.2130   69.5040  224.9640 C   0  0  0  0  0  0  0  0  0  0  0  0
  134.6970   68.4180  224.5930 O   0  0  0  0  0  0  0  0  0  0  0  0
  134.3970   70.7560  224.9790 C   0  0  0  0  0  0  0  0  0  0  0  0
  133.3694   70.5230  224.6632 H   0  0  0  0  0  0  0  0  0  0  0  0
  134.3940   71.1684  225.9988 H   0  0  0  0  0  0  0  0  0  0  0  0
  134.9960   71.7940  224.0240 C   0  0  0  0  0  0  0  0  0  0  0  0
  136.0274   71.4959  223.7846 H   0  0  0  0  0  0  0  0  0  0  0  0
  134.3584   71.8232  223.1281 H   0  0  0  0  0  0  0  0  0  0  0  0
  135.0210   73.2080  224.6150 C   0  0  0  0  0  0  0  0  0  0  0  0
  136.0655   73.5429  224.6982 H   0  0  0  0  0  0  0  0  0  0  0  0
  134.4504   73.8720  223.9490 H   0  0  0  0  0  0  0  0  0  0  0  0
  134.4170   73.2420  225.9100 O   0  0  0  0  0  0  0  0  0  0  0  0
  133.6750   74.3040  226.4610 C   0  0  0  0  0  0  0  0  0  0  0  0
  134.0940   75.6490  226.3840 C   0  0  0  0  0  0  0  0  0  0  0  0
  135.0411   75.8992  225.8837 H   0  0  0  0  0  0  0  0  0  0  0  0
  133.3120   76.6650  226.9400 C   0  0  0  0  0  0  0  0  0  0  0  0
  133.6468   77.7109  226.8772 H   0  0  0  0  0  0  0  0  0  0  0  0
  132.1070   76.3570  227.5750 C   0  0  0  0  0  0  0  0  0  0  0  0
  131.1270   77.6360  228.2680 Cl  0  0  0  0  0  0  0  0  0  0  0  0
  131.6820   75.0290  227.6550 C   0  0  0  0  0  0  0  0  0  0  0  0
  130.7326   74.7861  228.1547 H   0  0  0  0  0  0  0  0  0  0  0  0
  132.4610   74.0060  227.1010 C   0  0  0  0  0  0  0  0  0  0  0  0
  131.9000   72.3460  227.2240 Cl  0  0  0  0  0  0  0  0  0  0  0  0
  139.5480   69.1170  225.7560 C   0  0  0  0  0  0  0  0  0  0  0  0
  139.9920   67.9280  226.3570 C   0  0  0  0  0  0  0  0  0  0  0  0
  139.7553   66.9593  225.8928 H   0  0  0  0  0  0  0  0  0  0  0  0
  140.7320   67.9680  227.5400 C   0  0  0  0  0  0  0  0  0  0  0  0
  141.0561   67.0312  228.0168 H   0  0  0  0  0  0  0  0  0  0  0  0
  141.0620   69.1970  228.1200 C   0  0  0  0  0  0  0  0  0  0  0  0
  141.6265   69.2225  229.0638 H   0  0  0  0  0  0  0  0  0  0  0  0
  140.6760   70.4010  227.5030 C   0  0  0  0  0  0  0  0  0  0  0  0
  141.0060   71.7360  228.1250 C   0  0  0  0  0  0  0  0  0  0  0  0
  139.8830   72.2700  228.7330 F   0  0  0  0  0  0  0  0  0  0  0  0
  141.9940   71.5630  229.0770 F   0  0  0  0  0  0  0  0  0  0  0  0
  141.4530   72.6370  227.1730 F   0  0  0  0  0  0  0  0  0  0  0  0
  139.9090   70.3520  226.3260 C   0  0  0  0  0  0  0  0  0  0  0  0
  139.5878   71.2881  225.8458 H   0  0  0  0  0  0  0  0  0  0  0  0
  1  2  1  0
  2  3  2  0
  3  4  1  0
  4  5  1  0
  5  6  2  0
  5  7  1  0
  7  8  1  0
  7  9  1  0
  7 10  1  0
 10 11  1  0
 10 12  1  0
 10 13  1  0
 13 14  1  0
 13 15  1  0
 13 16  1  0
 16 17  1  0
 17 18  2  0
 18 19  1  0
 18 20  1  0
 20 21  1  0
 20 22  2  0
 22 23  1  0
 22 24  1  0
 24 25  1  0
 24 26  2  0
 26 27  1  0
  2 28  1  0
 28 29  2  0
 29 30  1  0
 29 31  1  0
 31 32  1  0
 31 33  2  0
 33 34  1  0
 33 35  1  0
 35 36  1  0
 36 37  1  0
 36 38  1  0
 36 39  1  0
 35 40  2  0
 40 41  1  0
 26 17  1  0
 40 28  1  0
M  CHG  1   4  -1
M  END
>  <UniqueID>  (75) 
20

>  <SMILES>  (75) 
O=C(CCCOc1ccc(Cl)cc1Cl)[N-]/N=C\c1cccc(C(F)(F)F)c1

>  <Energy>  (75) 
42.0688937200415

>  <Genealogy>  (75) 
O=C(CCCOc1ccc(Cl)cc1Cl)[N-]N=Cc1cccc(C(F)(F)F)c1 (protonated)
O=C(CCCOc1ccc(Cl)cc1Cl)[N-]/N=C\c1cccc(C(F)(F)F)c1 (cis-trans isomerization)
O=C(CCCOc1ccc(Cl)cc1Cl)[N-]/N=C\c1cccc(C(F)(F)F)c1 (3D coordinates assigned)
O=C(CCCOc1ccc(Cl)cc1Cl)[N-]/N=C\c1cccc(C(F)(F)F)c1 (optimized conformer: 42.0688937200415 kcal/mol)

>  <smiles>  (75) 
O=C(CCCOc1ccc(Cl)cc1Cl)NN=Cc1cccc(C(F)(F)F)c1

>  <score_type>  (75) 
oracle

>  <origin>  (75) 
autodockgpu

>  <m_score__min__energy>  (75) 
-6.9299999999999997

>  <m_primary>  (75) 
energy

>  <meeko>  (75) 
{"free_energy": -6.56, "intermolecular_energy": -9.54, "internal_energy": -0.77, "cluster_size": 1, "cluster_id": 2, "rank_in_cluster": 1}

>  <energy>  (75) 
-6.12

>  <cluster_rmsd>  (75) 
0.0

>  <rmsd>  (75) 
271.74

>  <cluster>  (75) 
4

$$$$
VHXSVHVNRGGTDL-UPLQUKELNA-M
     RDKit          3D

 41 42  0  0  0  0  0  0  0  0999 V2000
  141.1000   71.6685  222.1935 H   0  0  0  0  0  0  0  0  0  0  0  0
  140.3450   71.9810  222.9300 C   0  0  0  0  0  0  0  0  0  0  0  0
  139.5650   72.9750  222.6300 N   0  0  0  0  0  0  0  0  0  0  0  0
  140.0160   74.1210  221.9630 N   0  0  0  0  0  0  0  0  0  0  0  0
  139.5740   75.4230  222.3390 C   0  0  0  0  0  0  0  0  0  0  0  0
  140.4120   76.3100  222.6470 O   0  0  0  0  0  0  0  0  0  0  0  0
  138.1100   75.7170  222.4090 C   0  0  0  0  0  0  0  0  0  0  0  0
  137.5483   74.8587  222.0119 H   0  0  0  0  0  0  0  0  0  0  0  0
  137.8314   75.8976  223.4577 H   0  0  0  0  0  0  0  0  0  0  0  0
  137.7770   76.9650  221.5830 C   0  0  0  0  0  0  0  0  0  0  0  0
  136.7114   76.9320  221.3118 H   0  0  0  0  0  0  0  0  0  0  0  0
  138.0159   77.8427  222.2014 H   0  0  0  0  0  0  0  0  0  0  0  0
  138.6050   77.0700  220.2980 C   0  0  0  0  0  0  0  0  0  0  0  0
  139.3960   76.3058  220.3186 H   0  0  0  0  0  0  0  0  0  0  0  0
  137.9338   76.9146  219.4404 H   0  0  0  0  0  0  0  0  0  0  0  0
  139.2080   78.3600  220.1690 O   0  0  0  0  0  0  0  0  0  0  0  0
  140.0540   78.9850  221.1030 C   0  0  0  0  0  0  0  0  0  0  0  0
  139.5910   79.9320  222.0400 C   0  0  0  0  0  0  0  0  0  0  0  0
  138.5275   80.2129  222.0533 H   0  0  0  0  0  0  0  0  0  0  0  0
  140.4750   80.5160  222.9520 C   0  0  0  0  0  0  0  0  0  0  0  0
  140.1054   81.2554  223.6777 H   0  0  0  0  0  0  0  0  0  0  0  0
  141.8260   80.1630  222.9440 C   0  0  0  0  0  0  0  0  0  0  0  0
  142.9320   80.8950  224.0930 Cl  0  0  0  0  0  0  0  0  0  0  0  0
  142.2960   79.2250  222.0220 C   0  0  0  0  0  0  0  0  0  0  0  0
  143.3602   78.9468  222.0164 H   0  0  0  0  0  0  0  0  0  0  0  0
  141.4160   78.6380  221.1050 C   0  0  0  0  0  0  0  0  0  0  0  0
  142.0400   77.4660  219.9560 Cl  0  0  0  0  0  0  0  0  0  0  0  0
  140.2690   71.2490  224.2110 C   0  0  0  0  0  0  0  0  0  0  0  0
  139.8070   69.9230  224.2120 C   0  0  0  0  0  0  0  0  0  0  0  0
  139.5199   69.4433  223.2647 H   0  0  0  0  0  0  0  0  0  0  0  0
  139.7100   69.2100  225.4080 C   0  0  0  0  0  0  0  0  0  0  0  0
  139.3239   68.1800  225.4027 H   0  0  0  0  0  0  0  0  0  0  0  0
  140.1020   69.8010  226.6120 C   0  0  0  0  0  0  0  0  0  0  0  0
  140.0038   69.2415  227.5540 H   0  0  0  0  0  0  0  0  0  0  0  0
  140.6220   71.1090  226.6250 C   0  0  0  0  0  0  0  0  0  0  0  0
  141.0330   71.7720  227.9170 C   0  0  0  0  0  0  0  0  0  0  0  0
  141.8130   72.8850  227.6560 F   0  0  0  0  0  0  0  0  0  0  0  0
  139.9010   72.1670  228.6060 F   0  0  0  0  0  0  0  0  0  0  0  0
  141.7650   70.9090  228.7150 F   0  0  0  0  0  0  0  0  0  0  0  0
  140.6920   71.8300  225.4200 C   0  0  0  0  0  0  0  0  0  0  0  0
  141.0815   72.8587  225.4228 H   0  0  0  0  0  0  0  0  0  0  0  0
  1  2  1  0
  2  3  2  0
  3  4  1  0
  4  5  1  0
  5  6  2  0
  5  7  1  0
  7  8  1  0
  7  9  1  0
  7 10  1  0
 10 11  1  0
 10 12  1  0
 10 13  1  0
 13 14  1  0
 13 15  1  0
 13 16  1  0
 16 17  1  0
 17 18  2  0
 18 19  1  0
 18 20  1  0
 20 21  1  0
 20 22  2  0
 22 23  1  0
 22 24  1  0
 24 25  1  0
 24 26  2  0
 26 27  1  0
  2 28  1  0
 28 29  2  0
 29 30  1  0
 29 31  1  0
 31 32  1  0
 31 33  2  0
 33 34  1  0
 33 35  1  0
 35 36  1  0
 36 37  1  0
 36 38  1  0
 36 39  1  0
 35 40  2  0
 40 41  1  0
 26 17  1  0
 40 28  1  0
M  CHG  1   4  -1
M  END
>  <UniqueID>  (76) 
20

>  <SMILES>  (76) 
O=C(CCCOc1ccc(Cl)cc1Cl)[N-]/N=C\c1cccc(C(F)(F)F)c1

>  <Energy>  (76) 
42.0688937200415

>  <Genealogy>  (76) 
O=C(CCCOc1ccc(Cl)cc1Cl)[N-]N=Cc1cccc(C(F)(F)F)c1 (protonated)
O=C(CCCOc1ccc(Cl)cc1Cl)[N-]/N=C\c1cccc(C(F)(F)F)c1 (cis-trans isomerization)
O=C(CCCOc1ccc(Cl)cc1Cl)[N-]/N=C\c1cccc(C(F)(F)F)c1 (3D coordinates assigned)
O=C(CCCOc1ccc(Cl)cc1Cl)[N-]/N=C\c1cccc(C(F)(F)F)c1 (optimized conformer: 42.0688937200415 kcal/mol)

>  <smiles>  (76) 
O=C(CCCOc1ccc(Cl)cc1Cl)NN=Cc1cccc(C(F)(F)F)c1

>  <score_type>  (76) 
oracle

>  <origin>  (76) 
autodockgpu

>  <m_score__min__energy>  (76) 
-6.9299999999999997

>  <m_primary>  (76) 
energy

>  <meeko>  (76) 
{"free_energy": -6.16, "intermolecular_energy": -9.14, "internal_energy": -1.18, "cluster_size": 12, "cluster_id": 1, "rank_in_cluster": 11}

>  <energy>  (76) 
-5.92

>  <cluster_rmsd>  (76) 
1.65

>  <rmsd>  (76) 
271.63

>  <cluster>  (76) 
4

$$$$
VHXSVHVNRGGTDL-UPLQUKELNA-M
     RDKit          3D

 41 42  0  0  0  0  0  0  0  0999 V2000
  140.2108   70.9047  222.0325 H   0  0  0  0  0  0  0  0  0  0  0  0
  140.3290   71.5560  222.9110 C   0  0  0  0  0  0  0  0  0  0  0  0
  140.5970   72.8120  222.7170 N   0  0  0  0  0  0  0  0  0  0  0  0
  139.6550   73.7230  222.2240 N   0  0  0  0  0  0  0  0  0  0  0  0
  139.9980   75.0820  221.9680 C   0  0  0  0  0  0  0  0  0  0  0  0
  141.1930   75.4630  222.0750 O   0  0  0  0  0  0  0  0  0  0  0  0
  138.9260   76.0640  221.6170 C   0  0  0  0  0  0  0  0  0  0  0  0
  138.0082   75.8115  222.1682 H   0  0  0  0  0  0  0  0  0  0  0  0
  139.2639   77.0747  221.8897 H   0  0  0  0  0  0  0  0  0  0  0  0
  138.6390   76.0240  220.1130 C   0  0  0  0  0  0  0  0  0  0  0  0
  138.4898   74.9764  219.8125 H   0  0  0  0  0  0  0  0  0  0  0  0
  137.7421   76.6349  219.9331 H   0  0  0  0  0  0  0  0  0  0  0  0
  139.7740   76.6170  219.2700 C   0  0  0  0  0  0  0  0  0  0  0  0
  139.3398   77.2130  218.4538 H   0  0  0  0  0  0  0  0  0  0  0  0
  140.3982   77.2451  219.9226 H   0  0  0  0  0  0  0  0  0  0  0  0
  140.5980   75.5920  218.7100 O   0  0  0  0  0  0  0  0  0  0  0  0
  141.8050   75.1040  219.2430 C   0  0  0  0  0  0  0  0  0  0  0  0
  142.9140   75.9350  219.5080 C   0  0  0  0  0  0  0  0  0  0  0  0
  142.8554   77.0114  219.2893 H   0  0  0  0  0  0  0  0  0  0  0  0
  144.0870   75.3980  220.0470 C   0  0  0  0  0  0  0  0  0  0  0  0
  144.9475   76.0526  220.2494 H   0  0  0  0  0  0  0  0  0  0  0  0
  144.1690   74.0330  220.3290 C   0  0  0  0  0  0  0  0  0  0  0  0
  145.6420   73.3640  221.0090 Cl  0  0  0  0  0  0  0  0  0  0  0  0
  143.0770   73.2020  220.0720 C   0  0  0  0  0  0  0  0  0  0  0  0
  143.1418   72.1267  220.2946 H   0  0  0  0  0  0  0  0  0  0  0  0
  141.9000   73.7330  219.5320 C   0  0  0  0  0  0  0  0  0  0  0  0
  140.5470   72.6590  219.2160 Cl  0  0  0  0  0  0  0  0  0  0  0  0
  140.1750   70.9590  224.2540 C   0  0  0  0  0  0  0  0  0  0  0  0
  139.5740   69.6950  224.3740 C   0  0  0  0  0  0  0  0  0  0  0  0
  139.2362   69.1624  223.4728 H   0  0  0  0  0  0  0  0  0  0  0  0
  139.4030   69.1110  225.6300 C   0  0  0  0  0  0  0  0  0  0  0  0
  138.9111   68.1309  225.7168 H   0  0  0  0  0  0  0  0  0  0  0  0
  139.8550   69.7680  226.7780 C   0  0  0  0  0  0  0  0  0  0  0  0
  139.6972   69.3128  227.7669 H   0  0  0  0  0  0  0  0  0  0  0  0
  140.5110   71.0090  226.6750 C   0  0  0  0  0  0  0  0  0  0  0  0
  140.9900   71.7420  227.9040 C   0  0  0  0  0  0  0  0  0  0  0  0
  139.9090   72.2170  228.6270 F   0  0  0  0  0  0  0  0  0  0  0  0
  141.7160   70.8750  228.6980 F   0  0  0  0  0  0  0  0  0  0  0  0
  141.7910   72.8200  227.5660 F   0  0  0  0  0  0  0  0  0  0  0  0
  140.6570   71.6030  225.4080 C   0  0  0  0  0  0  0  0  0  0  0  0
  141.1530   72.5808  225.3189 H   0  0  0  0  0  0  0  0  0  0  0  0
  1  2  1  0
  2  3  2  0
  3  4  1  0
  4  5  1  0
  5  6  2  0
  5  7  1  0
  7  8  1  0
  7  9  1  0
  7 10  1  0
 10 11  1  0
 10 12  1  0
 10 13  1  0
 13 14  1  0
 13 15  1  0
 13 16  1  0
 16 17  1  0
 17 18  2  0
 18 19  1  0
 18 20  1  0
 20 21  1  0
 20 22  2  0
 22 23  1  0
 22 24  1  0
 24 25  1  0
 24 26  2  0
 26 27  1  0
  2 28  1  0
 28 29  2  0
 29 30  1  0
 29 31  1  0
 31 32  1  0
 31 33  2  0
 33 34  1  0
 33 35  1  0
 35 36  1  0
 36 37  1  0
 36 38  1  0
 36 39  1  0
 35 40  2  0
 40 41  1  0
 26 17  1  0
 40 28  1  0
M  CHG  1   4  -1
M  END
>  <UniqueID>  (77) 
20

>  <SMILES>  (77) 
O=C(CCCOc1ccc(Cl)cc1Cl)[N-]/N=C\c1cccc(C(F)(F)F)c1

>  <Energy>  (77) 
42.0688937200415

>  <Genealogy>  (77) 
O=C(CCCOc1ccc(Cl)cc1Cl)[N-]N=Cc1cccc(C(F)(F)F)c1 (protonated)
O=C(CCCOc1ccc(Cl)cc1Cl)[N-]/N=C\c1cccc(C(F)(F)F)c1 (cis-trans isomerization)
O=C(CCCOc1ccc(Cl)cc1Cl)[N-]/N=C\c1cccc(C(F)(F)F)c1 (3D coordinates assigned)
O=C(CCCOc1ccc(Cl)cc1Cl)[N-]/N=C\c1cccc(C(F)(F)F)c1 (optimized conformer: 42.0688937200415 kcal/mol)

>  <smiles>  (77) 
O=C(CCCOc1ccc(Cl)cc1Cl)NN=Cc1cccc(C(F)(F)F)c1

>  <score_type>  (77) 
oracle

>  <origin>  (77) 
autodockgpu

>  <m_score__min__energy>  (77) 
-6.9299999999999997

>  <m_primary>  (77) 
energy

>  <meeko>  (77) 
{"free_energy": -5.75, "intermolecular_energy": -8.73, "internal_energy": -1.46, "cluster_size": 4, "cluster_id": 4, "rank_in_cluster": 3}

>  <energy>  (77) 
-5.75

>  <cluster_rmsd>  (77) 
1.16

>  <rmsd>  (77) 
271.64

>  <cluster>  (77) 
4

$$$$
VHXSVHVNRGGTDL-UPLQUKELNA-M
     RDKit          3D

 41 42  0  0  0  0  0  0  0  0999 V2000
  141.6025   75.9119  221.3072 H   0  0  0  0  0  0  0  0  0  0  0  0
  140.7420   76.0740  221.9730 C   0  0  0  0  0  0  0  0  0  0  0  0
  140.0380   75.0440  222.3330 N   0  0  0  0  0  0  0  0  0  0  0  0
  140.5430   73.7380  222.3260 N   0  0  0  0  0  0  0  0  0  0  0  0
  139.7650   72.6420  221.8540 C   0  0  0  0  0  0  0  0  0  0  0  0
  140.0540   71.4660  222.2000 O   0  0  0  0  0  0  0  0  0  0  0  0
  138.6320   72.8880  220.9100 C   0  0  0  0  0  0  0  0  0  0  0  0
  137.9433   72.0308  220.9387 H   0  0  0  0  0  0  0  0  0  0  0  0
  138.1058   73.8049  221.2141 H   0  0  0  0  0  0  0  0  0  0  0  0
  139.1580   73.0660  219.4820 C   0  0  0  0  0  0  0  0  0  0  0  0
  139.8335   72.2292  219.2506 H   0  0  0  0  0  0  0  0  0  0  0  0
  138.2866   73.0884  218.8111 H   0  0  0  0  0  0  0  0  0  0  0  0
  139.9220   74.3790  219.2840 C   0  0  0  0  0  0  0  0  0  0  0  0
  139.3498   75.0268  218.6036 H   0  0  0  0  0  0  0  0  0  0  0  0
  140.0471   74.8578  220.2664 H   0  0  0  0  0  0  0  0  0  0  0  0
  141.2190   74.1500  218.7270 O   0  0  0  0  0  0  0  0  0  0  0  0
  142.4100   73.9320  219.4430 C   0  0  0  0  0  0  0  0  0  0  0  0
  142.8110   72.6550  219.8900 C   0  0  0  0  0  0  0  0  0  0  0  0
  142.1754   71.7804  219.6875 H   0  0  0  0  0  0  0  0  0  0  0  0
  144.0100   72.4950  220.5880 C   0  0  0  0  0  0  0  0  0  0  0  0
  144.3135   71.4960  220.9342 H   0  0  0  0  0  0  0  0  0  0  0  0
  144.8250   73.5990  220.8480 C   0  0  0  0  0  0  0  0  0  0  0  0
  146.3330   73.3930  221.7220 Cl  0  0  0  0  0  0  0  0  0  0  0  0
  144.4390   74.8680  220.4090 C   0  0  0  0  0  0  0  0  0  0  0  0
  145.0801   75.7380  220.6142 H   0  0  0  0  0  0  0  0  0  0  0  0
  143.2390   75.0350  219.7090 C   0  0  0  0  0  0  0  0  0  0  0  0
  142.7810   76.6440  219.1750 Cl  0  0  0  0  0  0  0  0  0  0  0  0
  140.4450   77.4530  222.4130 C   0  0  0  0  0  0  0  0  0  0  0  0
  139.1180   77.8010  222.7170 C   0  0  0  0  0  0  0  0  0  0  0  0
  138.3225   77.0457  222.6353 H   0  0  0  0  0  0  0  0  0  0  0  0
  138.8030   79.0990  223.1220 C   0  0  0  0  0  0  0  0  0  0  0  0
  137.7582   79.3691  223.3354 H   0  0  0  0  0  0  0  0  0  0  0  0
  139.8130   80.0570  223.2570 C   0  0  0  0  0  0  0  0  0  0  0  0
  139.5564   81.0841  223.5556 H   0  0  0  0  0  0  0  0  0  0  0  0
  141.1550   79.7140  223.0130 C   0  0  0  0  0  0  0  0  0  0  0  0
  142.2560   80.7390  223.1340 C   0  0  0  0  0  0  0  0  0  0  0  0
  142.1870   81.6400  222.0850 F   0  0  0  0  0  0  0  0  0  0  0  0
  142.1110   81.4240  224.3260 F   0  0  0  0  0  0  0  0  0  0  0  0
  143.5050   80.1410  223.1090 F   0  0  0  0  0  0  0  0  0  0  0  0
  141.4610   78.4110  222.5800 C   0  0  0  0  0  0  0  0  0  0  0  0
  142.5058   78.1386  222.3699 H   0  0  0  0  0  0  0  0  0  0  0  0
  1  2  1  0
  2  3  2  0
  3  4  1  0
  4  5  1  0
  5  6  2  0
  5  7  1  0
  7  8  1  0
  7  9  1  0
  7 10  1  0
 10 11  1  0
 10 12  1  0
 10 13  1  0
 13 14  1  0
 13 15  1  0
 13 16  1  0
 16 17  1  0
 17 18  2  0
 18 19  1  0
 18 20  1  0
 20 21  1  0
 20 22  2  0
 22 23  1  0
 22 24  1  0
 24 25  1  0
 24 26  2  0
 26 27  1  0
  2 28  1  0
 28 29  2  0
 29 30  1  0
 29 31  1  0
 31 32  1  0
 31 33  2  0
 33 34  1  0
 33 35  1  0
 35 36  1  0
 36 37  1  0
 36 38  1  0
 36 39  1  0
 35 40  2  0
 40 41  1  0
 26 17  1  0
 40 28  1  0
M  CHG  1   4  -1
M  END
>  <UniqueID>  (78) 
20

>  <SMILES>  (78) 
O=C(CCCOc1ccc(Cl)cc1Cl)[N-]/N=C\c1cccc(C(F)(F)F)c1

>  <Energy>  (78) 
42.0688937200415

>  <Genealogy>  (78) 
O=C(CCCOc1ccc(Cl)cc1Cl)[N-]N=Cc1cccc(C(F)(F)F)c1 (protonated)
O=C(CCCOc1ccc(Cl)cc1Cl)[N-]/N=C\c1cccc(C(F)(F)F)c1 (cis-trans isomerization)
O=C(CCCOc1ccc(Cl)cc1Cl)[N-]/N=C\c1cccc(C(F)(F)F)c1 (3D coordinates assigned)
O=C(CCCOc1ccc(Cl)cc1Cl)[N-]/N=C\c1cccc(C(F)(F)F)c1 (optimized conformer: 42.0688937200415 kcal/mol)

>  <smiles>  (78) 
O=C(CCCOc1ccc(Cl)cc1Cl)NN=Cc1cccc(C(F)(F)F)c1

>  <score_type>  (78) 
oracle

>  <origin>  (78) 
autodockgpu

>  <m_score__min__energy>  (78) 
-6.9299999999999997

>  <m_primary>  (78) 
energy

>  <meeko>  (78) 
{"free_energy": -5.51, "intermolecular_energy": -8.49, "internal_energy": -1.7, "cluster_size": 2, "cluster_id": 5, "rank_in_cluster": 1}

>  <energy>  (78) 
-5.74

>  <cluster_rmsd>  (78) 
1.58

>  <rmsd>  (78) 
271.77

>  <cluster>  (78) 
4

$$$$
VHXSVHVNRGGTDL-UPLQUKELNA-M
     RDKit          3D

 41 42  0  0  0  0  0  0  0  0999 V2000
  142.1610   76.2569  221.1498 H   0  0  0  0  0  0  0  0  0  0  0  0
  141.1160   76.4020  221.4610 C   0  0  0  0  0  0  0  0  0  0  0  0
  140.2510   75.4790  221.1680 N   0  0  0  0  0  0  0  0  0  0  0  0
  139.9970   74.3830  222.0030 N   0  0  0  0  0  0  0  0  0  0  0  0
  138.8370   73.5720  221.8340 C   0  0  0  0  0  0  0  0  0  0  0  0
  137.7390   73.9270  222.3370 O   0  0  0  0  0  0  0  0  0  0  0  0
  138.9400   72.2760  221.0960 C   0  0  0  0  0  0  0  0  0  0  0  0
  137.9290   71.8950  220.8891 H   0  0  0  0  0  0  0  0  0  0  0  0
  139.4802   72.4437  220.1525 H   0  0  0  0  0  0  0  0  0  0  0  0
  139.7070   71.2460  221.9330 C   0  0  0  0  0  0  0  0  0  0  0  0
  139.0423   70.3931  222.1347 H   0  0  0  0  0  0  0  0  0  0  0  0
  140.5942   70.9473  221.3553 H   0  0  0  0  0  0  0  0  0  0  0  0
  140.1990   71.8090  223.2710 C   0  0  0  0  0  0  0  0  0  0  0  0
  141.2517   71.5237  223.4140 H   0  0  0  0  0  0  0  0  0  0  0  0
  140.0911   72.9034  223.2468 H   0  0  0  0  0  0  0  0  0  0  0  0
  139.4280   71.3050  224.3640 O   0  0  0  0  0  0  0  0  0  0  0  0
  139.9160   70.5910  225.4740 C   0  0  0  0  0  0  0  0  0  0  0  0
  140.6150   71.2080  226.5320 C   0  0  0  0  0  0  0  0  0  0  0  0
  140.8034   72.2914  226.5040 H   0  0  0  0  0  0  0  0  0  0  0  0
  141.0700   70.4520  227.6160 C   0  0  0  0  0  0  0  0  0  0  0  0
  141.6161   70.9417  228.4357 H   0  0  0  0  0  0  0  0  0  0  0  0
  140.8330   69.0760  227.6610 C   0  0  0  0  0  0  0  0  0  0  0  0
  141.4010   68.1300  229.0250 Cl  0  0  0  0  0  0  0  0  0  0  0  0
  140.1400   68.4550  226.6190 C   0  0  0  0  0  0  0  0  0  0  0  0
  139.9530   67.3716  226.6539 H   0  0  0  0  0  0  0  0  0  0  0  0
  139.6830   69.2070  225.5310 C   0  0  0  0  0  0  0  0  0  0  0  0
  138.8200   68.3930  224.2350 Cl  0  0  0  0  0  0  0  0  0  0  0  0
  140.7660   77.6380  222.1920 C   0  0  0  0  0  0  0  0  0  0  0  0
  139.4680   77.7790  222.7110 C   0  0  0  0  0  0  0  0  0  0  0  0
  138.7348   76.9698  222.5782 H   0  0  0  0  0  0  0  0  0  0  0  0
  139.1040   78.9400  223.3940 C   0  0  0  0  0  0  0  0  0  0  0  0
  138.0787   79.0524  223.7764 H   0  0  0  0  0  0  0  0  0  0  0  0
  140.0380   79.9610  223.5940 C   0  0  0  0  0  0  0  0  0  0  0  0
  139.7387   80.8830  224.1139 H   0  0  0  0  0  0  0  0  0  0  0  0
  141.3590   79.8140  223.1330 C   0  0  0  0  0  0  0  0  0  0  0  0
  142.3770   80.9120  223.3220 C   0  0  0  0  0  0  0  0  0  0  0  0
  143.6590   80.3920  223.2560 F   0  0  0  0  0  0  0  0  0  0  0  0
  142.2220   81.8540  222.3210 F   0  0  0  0  0  0  0  0  0  0  0  0
  142.2250   81.5340  224.5500 F   0  0  0  0  0  0  0  0  0  0  0  0
  141.7120   78.6530  222.4220 C   0  0  0  0  0  0  0  0  0  0  0  0
  142.7379   78.5377  222.0421 H   0  0  0  0  0  0  0  0  0  0  0  0
  1  2  1  0
  2  3  2  0
  3  4  1  0
  4  5  1  0
  5  6  2  0
  5  7  1  0
  7  8  1  0
  7  9  1  0
  7 10  1  0
 10 11  1  0
 10 12  1  0
 10 13  1  0
 13 14  1  0
 13 15  1  0
 13 16  1  0
 16 17  1  0
 17 18  2  0
 18 19  1  0
 18 20  1  0
 20 21  1  0
 20 22  2  0
 22 23  1  0
 22 24  1  0
 24 25  1  0
 24 26  2  0
 26 27  1  0
  2 28  1  0
 28 29  2  0
 29 30  1  0
 29 31  1  0
 31 32  1  0
 31 33  2  0
 33 34  1  0
 33 35  1  0
 35 36  1  0
 36 37  1  0
 36 38  1  0
 36 39  1  0
 35 40  2  0
 40 41  1  0
 26 17  1  0
 40 28  1  0
M  CHG  1   4  -1
M  END
>  <UniqueID>  (79) 
20

>  <SMILES>  (79) 
O=C(CCCOc1ccc(Cl)cc1Cl)[N-]/N=C\c1cccc(C(F)(F)F)c1

>  <Energy>  (79) 
42.0688937200415

>  <Genealogy>  (79) 
O=C(CCCOc1ccc(Cl)cc1Cl)[N-]N=Cc1cccc(C(F)(F)F)c1 (protonated)
O=C(CCCOc1ccc(Cl)cc1Cl)[N-]/N=C\c1cccc(C(F)(F)F)c1 (cis-trans isomerization)
O=C(CCCOc1ccc(Cl)cc1Cl)[N-]/N=C\c1cccc(C(F)(F)F)c1 (3D coordinates assigned)
O=C(CCCOc1ccc(Cl)cc1Cl)[N-]/N=C\c1cccc(C(F)(F)F)c1 (optimized conformer: 42.0688937200415 kcal/mol)

>  <smiles>  (79) 
O=C(CCCOc1ccc(Cl)cc1Cl)NN=Cc1cccc(C(F)(F)F)c1

>  <score_type>  (79) 
oracle

>  <origin>  (79) 
autodockgpu

>  <m_score__min__energy>  (79) 
-6.9299999999999997

>  <m_primary>  (79) 
energy

>  <meeko>  (79) 
{"free_energy": -6.24, "intermolecular_energy": -9.22, "internal_energy": -0.77, "cluster_size": 1, "cluster_id": 3, "rank_in_cluster": 1}

>  <energy>  (79) 
-5.51

>  <cluster_rmsd>  (79) 
0.0

>  <rmsd>  (79) 
271.6

>  <cluster>  (79) 
5

$$$$
VHXSVHVNRGGTDL-UPLQUKELNA-M
     RDKit          3D

 41 42  0  0  0  0  0  0  0  0999 V2000
  137.9605   70.8907  223.0711 H   0  0  0  0  0  0  0  0  0  0  0  0
  139.0190   71.0570  223.3200 C   0  0  0  0  0  0  0  0  0  0  0  0
  139.7590   71.7020  222.4700 N   0  0  0  0  0  0  0  0  0  0  0  0
  140.2600   72.9860  222.7190 N   0  0  0  0  0  0  0  0  0  0  0  0
  140.4740   73.9190  221.6630 C   0  0  0  0  0  0  0  0  0  0  0  0
  141.6090   74.4350  221.4970 O   0  0  0  0  0  0  0  0  0  0  0  0
  139.3320   74.3170  220.7830 C   0  0  0  0  0  0  0  0  0  0  0  0
  139.6379   75.1655  220.1533 H   0  0  0  0  0  0  0  0  0  0  0  0
  139.0517   73.4607  220.1520 H   0  0  0  0  0  0  0  0  0  0  0  0
  138.1240   74.7270  221.6310 C   0  0  0  0  0  0  0  0  0  0  0  0
  137.2064   74.4480  221.0922 H   0  0  0  0  0  0  0  0  0  0  0  0
  138.2073   74.2063  222.5964 H   0  0  0  0  0  0  0  0  0  0  0  0
  138.0810   76.2310  221.9230 C   0  0  0  0  0  0  0  0  0  0  0  0
  137.1459   76.6471  221.5198 H   0  0  0  0  0  0  0  0  0  0  0  0
  138.1344   76.3734  223.0124 H   0  0  0  0  0  0  0  0  0  0  0  0
  139.1880   76.9110  221.3260 O   0  0  0  0  0  0  0  0  0  0  0  0
  140.0290   77.8510  221.9490 C   0  0  0  0  0  0  0  0  0  0  0  0
  139.6420   78.5820  223.0920 C   0  0  0  0  0  0  0  0  0  0  0  0
  138.6422   78.4310  223.5252 H   0  0  0  0  0  0  0  0  0  0  0  0
  140.5220   79.4970  223.6770 C   0  0  0  0  0  0  0  0  0  0  0  0
  140.2117   80.0643  224.5669 H   0  0  0  0  0  0  0  0  0  0  0  0
  141.7940   79.6930  223.1350 C   0  0  0  0  0  0  0  0  0  0  0  0
  142.8970   80.8400  223.8750 Cl  0  0  0  0  0  0  0  0  0  0  0  0
  142.1880   78.9740  222.0050 C   0  0  0  0  0  0  0  0  0  0  0  0
  143.1898   79.1289  221.5778 H   0  0  0  0  0  0  0  0  0  0  0  0
  141.3110   78.0560  221.4140 C   0  0  0  0  0  0  0  0  0  0  0  0
  141.8360   77.1710  219.9900 Cl  0  0  0  0  0  0  0  0  0  0  0  0
  139.5290   70.5350  224.6060 C   0  0  0  0  0  0  0  0  0  0  0  0
  139.6230   69.1460  224.7880 C   0  0  0  0  0  0  0  0  0  0  0  0
  139.3284   68.4668  223.9744 H   0  0  0  0  0  0  0  0  0  0  0  0
  140.0880   68.6220  225.9950 C   0  0  0  0  0  0  0  0  0  0  0  0
  140.1369   67.5324  226.1375 H   0  0  0  0  0  0  0  0  0  0  0  0
  140.4920   69.4790  227.0240 C   0  0  0  0  0  0  0  0  0  0  0  0
  140.8370   69.0609  227.9812 H   0  0  0  0  0  0  0  0  0  0  0  0
  140.4590   70.8740  226.8400 C   0  0  0  0  0  0  0  0  0  0  0  0
  140.8730   71.8150  227.9450 C   0  0  0  0  0  0  0  0  0  0  0  0
  141.7750   71.1910  228.7900 F   0  0  0  0  0  0  0  0  0  0  0  0
  141.4720   72.9310  227.3910 F   0  0  0  0  0  0  0  0  0  0  0  0
  139.7820   72.2180  228.6970 F   0  0  0  0  0  0  0  0  0  0  0  0
  139.9650   71.3940  225.6300 C   0  0  0  0  0  0  0  0  0  0  0  0
  139.9194   72.4832  225.4835 H   0  0  0  0  0  0  0  0  0  0  0  0
  1  2  1  0
  2  3  2  0
  3  4  1  0
  4  5  1  0
  5  6  2  0
  5  7  1  0
  7  8  1  0
  7  9  1  0
  7 10  1  0
 10 11  1  0
 10 12  1  0
 10 13  1  0
 13 14  1  0
 13 15  1  0
 13 16  1  0
 16 17  1  0
 17 18  2  0
 18 19  1  0
 18 20  1  0
 20 21  1  0
 20 22  2  0
 22 23  1  0
 22 24  1  0
 24 25  1  0
 24 26  2  0
 26 27  1  0
  2 28  1  0
 28 29  2  0
 29 30  1  0
 29 31  1  0
 31 32  1  0
 31 33  2  0
 33 34  1  0
 33 35  1  0
 35 36  1  0
 36 37  1  0
 36 38  1  0
 36 39  1  0
 35 40  2  0
 40 41  1  0
 26 17  1  0
 40 28  1  0
M  CHG  1   4  -1
M  END
>  <UniqueID>  (80) 
20

>  <SMILES>  (80) 
O=C(CCCOc1ccc(Cl)cc1Cl)[N-]/N=C\c1cccc(C(F)(F)F)c1

>  <Energy>  (80) 
42.0688937200415

>  <Genealogy>  (80) 
O=C(CCCOc1ccc(Cl)cc1Cl)[N-]N=Cc1cccc(C(F)(F)F)c1 (protonated)
O=C(CCCOc1ccc(Cl)cc1Cl)[N-]/N=C\c1cccc(C(F)(F)F)c1 (cis-trans isomerization)
O=C(CCCOc1ccc(Cl)cc1Cl)[N-]/N=C\c1cccc(C(F)(F)F)c1 (3D coordinates assigned)
O=C(CCCOc1ccc(Cl)cc1Cl)[N-]/N=C\c1cccc(C(F)(F)F)c1 (optimized conformer: 42.0688937200415 kcal/mol)

>  <smiles>  (80) 
O=C(CCCOc1ccc(Cl)cc1Cl)NN=Cc1cccc(C(F)(F)F)c1

>  <score_type>  (80) 
oracle

>  <origin>  (80) 
autodockgpu

>  <m_score__min__energy>  (80) 
-6.9299999999999997

>  <m_primary>  (80) 
energy

>  <meeko>  (80) 
{"free_energy": -6.4, "intermolecular_energy": -9.38, "internal_energy": -1.0, "cluster_size": 12, "cluster_id": 1, "rank_in_cluster": 9}

>  <energy>  (80) 
-5.49

>  <cluster_rmsd>  (80) 
1.22

>  <rmsd>  (80) 
271.66

>  <cluster>  (80) 
5

$$$$
