MCZRVQBLWAUNOI-VDNHLTQINA-O
     RDKit          3D

 62 65  0  0  0  0  0  0  0  0999 V2000
  140.2390   72.9980  221.9290 C   0  0  0  0  0  0  0  0  0  0  0  0
  140.1390   74.0150  220.7980 C   0  0  0  0  0  0  0  0  0  0  0  0
  141.3390   74.9220  220.7940 C   0  0  0  0  0  0  0  0  0  0  0  0
  141.3950   75.8190  221.6810 O   0  0  0  0  0  0  0  0  0  0  0  0
  142.3760   74.8530  219.7830 N   0  0  0  0  0  0  0  0  0  0  0  0
  143.5800   74.1360  220.1170 C   0  0  0  0  0  0  0  0  0  0  0  0
  143.6050   72.7340  220.0550 C   0  0  0  0  0  0  0  0  0  0  0  0
  144.7780   72.0380  220.3590 C   0  0  0  0  0  0  0  0  0  0  0  0
  145.9350   72.7380  220.7100 C   0  0  0  0  0  0  0  0  0  0  0  0
  145.9220   74.1370  220.7570 C   0  0  0  0  0  0  0  0  0  0  0  0
  144.7480   74.8360  220.4590 C   0  0  0  0  0  0  0  0  0  0  0  0
  142.1410   75.2850  218.3870 C   0  0  1  0  0  0  0  0  0  0  0  0
  140.7960   76.0070  218.2130 C   0  0  0  0  0  0  0  0  0  0  0  0
  140.6000   76.4150  216.7450 C   0  0  0  0  0  0  0  0  0  0  0  0
  141.7080   77.2480  216.2240 N   0  0  1  0  0  0  0  0  0  0  0  0
  141.6130   78.6210  216.6980 C   0  0  0  0  0  0  0  0  0  0  0  0
  141.1320   79.4890  215.9830 O   0  0  0  0  0  0  0  0  0  0  0  0
  142.1780   79.0150  218.0570 C   0  0  1  0  0  0  0  0  0  0  0  0
  143.1100   80.1340  217.8970 N   0  0  0  0  0  0  0  0  0  0  0  0
  141.0750   79.3730  219.0930 C   0  0  0  0  0  0  0  0  0  0  0  0
  140.9700   78.3630  220.2660 C   0  0  0  0  0  0  0  0  0  0  0  0
  141.4720   79.1260  221.4320 C   0  0  0  0  0  0  0  0  0  0  0  0
  141.7490   78.6230  222.7050 C   0  0  0  0  0  0  0  0  0  0  0  0
  142.2150   79.5060  223.6930 C   0  0  0  0  0  0  0  0  0  0  0  0
  142.3920   80.8710  223.3950 C   0  0  0  0  0  0  0  0  0  0  0  0
  142.1000   81.3540  222.1090 C   0  0  0  0  0  0  0  0  0  0  0  0
  141.6410   80.4580  221.1430 C   0  0  0  0  0  0  0  0  0  0  0  0
  141.2980   80.7680  219.7340 C   0  0  0  0  0  0  0  0  0  0  0  0
  143.0480   76.6500  216.4530 C   0  0  0  0  0  0  0  0  0  0  0  0
  143.2820   76.1870  217.9030 C   0  0  0  0  0  0  0  0  0  0  0  0
  140.1878   73.5192  222.8963 H   0  0  0  0  0  0  0  0  0  0  0  0
  139.4069   72.2826  221.8534 H   0  0  0  0  0  0  0  0  0  0  0  0
  141.1945   72.4583  221.8534 H   0  0  0  0  0  0  0  0  0  0  0  0
  140.0850   73.4827  219.8369 H   0  0  0  0  0  0  0  0  0  0  0  0
  139.2349   74.6236  220.9472 H   0  0  0  0  0  0  0  0  0  0  0  0
  142.6987   72.1816  219.7663 H   0  0  0  0  0  0  0  0  0  0  0  0
  144.7904   70.9387  220.3219 H   0  0  0  0  0  0  0  0  0  0  0  0
  146.8575   72.1890  220.9498 H   0  0  0  0  0  0  0  0  0  0  0  0
  146.8354   74.6866  221.0284 H   0  0  0  0  0  0  0  0  0  0  0  0
  144.7397   75.9355  220.4926 H   0  0  0  0  0  0  0  0  0  0  0  0
  142.1080   74.3719  217.7745 H   0  0  0  0  0  0  0  0  0  0  0  0
  140.7820   76.9069  218.8454 H   0  0  0  0  0  0  0  0  0  0  0  0
  139.9828   75.3280  218.5089 H   0  0  0  0  0  0  0  0  0  0  0  0
  139.6632   76.9855  216.6616 H   0  0  0  0  0  0  0  0  0  0  0  0
  140.5727   75.4919  216.1474 H   0  0  0  0  0  0  0  0  0  0  0  0
  141.5850   77.2650  215.1840 H   0  0  0  0  0  0  0  0  0  0  0  0
  142.7077   78.1376  218.4566 H   0  0  0  0  0  0  0  0  0  0  0  0
  144.0840   79.7540  217.8710 H   0  0  0  0  0  0  0  0  0  0  0  0
  142.9430   80.5710  216.9620 H   0  0  0  0  0  0  0  0  0  0  0  0
  140.1489   79.3518  218.4999 H   0  0  0  0  0  0  0  0  0  0  0  0
  139.9271   78.0497  220.4217 H   0  0  0  0  0  0  0  0  0  0  0  0
  141.5380   77.4386  220.0848 H   0  0  0  0  0  0  0  0  0  0  0  0
  141.6050   77.5559  222.9297 H   0  0  0  0  0  0  0  0  0  0  0  0
  142.4422   79.1305  224.7017 H   0  0  0  0  0  0  0  0  0  0  0  0
  142.7593   81.5595  224.1703 H   0  0  0  0  0  0  0  0  0  0  0  0
  142.2308   82.4192  221.8677 H   0  0  0  0  0  0  0  0  0  0  0  0
  140.3830   81.3760  219.6779 H   0  0  0  0  0  0  0  0  0  0  0  0
  142.0790   81.3510  219.2240 H   0  0  0  0  0  0  0  0  0  0  0  0
  143.8108   77.4015  216.2015 H   0  0  0  0  0  0  0  0  0  0  0  0
  143.1128   75.7553  215.8164 H   0  0  0  0  0  0  0  0  0  0  0  0
  143.3434   77.0699  218.5562 H   0  0  0  0  0  0  0  0  0  0  0  0
  144.2195   75.6127  217.9386 H   0  0  0  0  0  0  0  0  0  0  0  0
  1  2  1  0
  2  3  1  0
  3  4  2  0
  3  5  1  0
  5  6  1  0
  6  7  2  0
  7  8  1  0
  8  9  2  0
  9 10  1  0
 10 11  2  0
  5 12  1  0
 12 13  1  0
 13 14  1  0
 14 15  1  0
 15 16  1  0
 16 17  2  0
 16 18  1  0
 18 19  1  0
 18 20  1  0
 20 21  1  0
 21 22  1  0
 22 23  2  0
 23 24  1  0
 24 25  2  0
 25 26  1  0
 26 27  2  0
 27 28  1  0
 15 29  1  0
 29 30  1  0
 11  6  1  0
 30 12  1  0
 28 20  1  0
 27 22  1  0
  1 31  1  0
  1 32  1  0
  1 33  1  0
  2 34  1  0
  2 35  1  0
  7 36  1  0
  8 37  1  0
  9 38  1  0
 10 39  1  0
 11 40  1  0
 12 41  1  6
 13 42  1  0
 13 43  1  0
 14 44  1  0
 14 45  1  0
 15 46  1  6
 18 47  1  1
 19 48  1  0
 19 49  1  0
 20 50  1  0
 21 51  1  0
 21 52  1  0
 23 53  1  0
 24 54  1  0
 25 55  1  0
 26 56  1  0
 28 57  1  0
 28 58  1  0
 29 59  1  0
 29 60  1  0
 30 61  1  0
 30 62  1  0
M  CHG  1  15   1
M  END
>  <UniqueID>  (1) 
43

>  <SMILES>  (1) 
CCC(=O)N(c1ccccc1)C1CC[NH+](C(=O)[C@@H](N)C2Cc3ccccc3C2)CC1

>  <Energy>  (1) 
78.2390549836364

>  <Genealogy>  (1) 
CCC(=O)N(c1ccccc1)C1CC[NH+](C(=O)[C@@H](N)C2Cc3ccccc3C2)CC1 (protonated)
CCC(=O)N(c1ccccc1)C1CC[NH+](C(=O)[C@@H](N)C2Cc3ccccc3C2)CC1 (3D coordinates assigned)
CCC(=O)N(c1ccccc1)C1CC[NH+](C(=O)[C@@H](N)C2Cc3ccccc3C2)CC1 (nonaromatic ring conformer: 78.2390549836364 kcal/mol)

>  <smiles>  (1) 
CCC(=O)N(c1ccccc1)C1CCN(C(=O)[C@@H](N)C2Cc3ccccc3C2)CC1

>  <score_type>  (1) 
oracle

>  <origin>  (1) 
autodockgpu

>  <m_score__min__energy>  (1) 
-8.5800000000000001

>  <m_primary>  (1) 
energy

>  <meeko>  (1) 
{"free_energy": -7.31, "intermolecular_energy": -9.69, "internal_energy": -2.55, "cluster_size": 3, "cluster_id": 5, "rank_in_cluster": 1}

>  <energy>  (1) 
-8.58

>  <cluster_rmsd>  (1) 
0.0

>  <rmsd>  (1) 
271.59

>  <cluster>  (1) 
1

$$$$
MCZRVQBLWAUNOI-VDNHLTQINA-O
     RDKit          3D

 62 65  0  0  0  0  0  0  0  0999 V2000
  137.1200   75.7680  222.4820 C   0  0  0  0  0  0  0  0  0  0  0  0
  138.1360   76.9040  222.4780 C   0  0  0  0  0  0  0  0  0  0  0  0
  139.4980   76.3940  222.0900 C   0  0  0  0  0  0  0  0  0  0  0  0
  139.8100   75.2270  222.4580 O   0  0  0  0  0  0  0  0  0  0  0  0
  140.4730   77.2070  221.3910 N   0  0  0  0  0  0  0  0  0  0  0  0
  140.9780   78.3700  222.0740 C   0  0  0  0  0  0  0  0  0  0  0  0
  141.4570   78.2620  223.3890 C   0  0  0  0  0  0  0  0  0  0  0  0
  141.9660   79.3850  224.0450 C   0  0  0  0  0  0  0  0  0  0  0  0
  142.0150   80.6170  223.3880 C   0  0  0  0  0  0  0  0  0  0  0  0
  141.5550   80.7280  222.0710 C   0  0  0  0  0  0  0  0  0  0  0  0
  141.0400   79.6070  221.4130 C   0  0  0  0  0  0  0  0  0  0  0  0
  141.1120   76.7580  220.1330 C   0  0  1  0  0  0  0  0  0  0  0  0
  142.5720   77.2230  220.0160 C   0  0  0  0  0  0  0  0  0  0  0  0
  143.1760   76.7440  218.6870 C   0  0  0  0  0  0  0  0  0  0  0  0
  143.0830   75.2780  218.5050 N   0  0  1  0  0  0  0  0  0  0  0  0
  144.0800   74.5760  219.2990 C   0  0  0  0  0  0  0  0  0  0  0  0
  144.4340   75.0240  220.3810 O   0  0  0  0  0  0  0  0  0  0  0  0
  144.7550   73.3180  218.7660 C   0  0  1  0  0  0  0  0  0  0  0  0
  146.2010   73.4080  218.9780 N   0  0  0  0  0  0  0  0  0  0  0  0
  144.1950   72.0130  219.3990 C   0  0  0  0  0  0  0  0  0  0  0  0
  143.8050   72.1630  220.8930 C   0  0  0  0  0  0  0  0  0  0  0  0
  142.3260   72.0800  220.8800 C   0  0  0  0  0  0  0  0  0  0  0  0
  141.4640   72.3300  221.9500 C   0  0  0  0  0  0  0  0  0  0  0  0
  140.0800   72.1940  221.7470 C   0  0  0  0  0  0  0  0  0  0  0  0
  139.5850   71.8070  220.4880 C   0  0  0  0  0  0  0  0  0  0  0  0
  140.4710   71.5540  219.4290 C   0  0  0  0  0  0  0  0  0  0  0  0
  141.8420   71.7000  219.6520 C   0  0  0  0  0  0  0  0  0  0  0  0
  142.9290   71.4970  218.6640 C   0  0  0  0  0  0  0  0  0  0  0  0
  141.7090   74.7500  218.7060 C   0  0  0  0  0  0  0  0  0  0  0  0
  141.0420   75.2310  220.0080 C   0  0  0  0  0  0  0  0  0  0  0  0
  136.8774   75.4967  223.5200 H   0  0  0  0  0  0  0  0  0  0  0  0
  136.2052   76.0924  221.9644 H   0  0  0  0  0  0  0  0  0  0  0  0
  137.5441   74.8949  221.9644 H   0  0  0  0  0  0  0  0  0  0  0  0
  137.8180   77.6711  221.7566 H   0  0  0  0  0  0  0  0  0  0  0  0
  138.1925   77.3334  223.4892 H   0  0  0  0  0  0  0  0  0  0  0  0
  141.4314   77.2904  223.9041 H   0  0  0  0  0  0  0  0  0  0  0  0
  142.3287   79.2994  225.0800 H   0  0  0  0  0  0  0  0  0  0  0  0
  142.4155   81.5006  223.9064 H   0  0  0  0  0  0  0  0  0  0  0  0
  141.5986   81.6976  221.5533 H   0  0  0  0  0  0  0  0  0  0  0  0
  140.6830   79.6944  220.3762 H   0  0  0  0  0  0  0  0  0  0  0  0
  140.5492   77.2219  219.3095 H   0  0  0  0  0  0  0  0  0  0  0  0
  143.1542   76.8061  220.8510 H   0  0  0  0  0  0  0  0  0  0  0  0
  142.6026   78.3221  220.0490 H   0  0  0  0  0  0  0  0  0  0  0  0
  144.2367   77.0342  218.6591 H   0  0  0  0  0  0  0  0  0  0  0  0
  142.6006   77.2136  217.8756 H   0  0  0  0  0  0  0  0  0  0  0  0
  143.3030   75.1030  217.4970 H   0  0  0  0  0  0  0  0  0  0  0  0
  144.5349   73.2612  217.6898 H   0  0  0  0  0  0  0  0  0  0  0  0
  146.6380   73.8160  218.1190 H   0  0  0  0  0  0  0  0  0  0  0  0
  146.3800   74.0910  219.7480 H   0  0  0  0  0  0  0  0  0  0  0  0
  145.0282   71.3015  219.3019 H   0  0  0  0  0  0  0  0  0  0  0  0
  144.2382   71.3506  221.4949 H   0  0  0  0  0  0  0  0  0  0  0  0
  144.1755   73.0980  221.3384 H   0  0  0  0  0  0  0  0  0  0  0  0
  141.8604   72.6274  222.9320 H   0  0  0  0  0  0  0  0  0  0  0  0
  139.3821   72.3905  222.5742 H   0  0  0  0  0  0  0  0  0  0  0  0
  138.5010   71.7024  220.3332 H   0  0  0  0  0  0  0  0  0  0  0  0
  140.0929   71.2468  218.4428 H   0  0  0  0  0  0  0  0  0  0  0  0
  143.0314   70.4325  218.4066 H   0  0  0  0  0  0  0  0  0  0  0  0
  142.7447   72.0198  217.7139 H   0  0  0  0  0  0  0  0  0  0  0  0
  141.7595   73.6514  218.7277 H   0  0  0  0  0  0  0  0  0  0  0  0
  141.0962   75.1273  217.8741 H   0  0  0  0  0  0  0  0  0  0  0  0
  141.5591   74.7763  220.8658 H   0  0  0  0  0  0  0  0  0  0  0  0
  139.9841   74.9301  219.9904 H   0  0  0  0  0  0  0  0  0  0  0  0
  1  2  1  0
  2  3  1  0
  3  4  2  0
  3  5  1  0
  5  6  1  0
  6  7  2  0
  7  8  1  0
  8  9  2  0
  9 10  1  0
 10 11  2  0
  5 12  1  0
 12 13  1  0
 13 14  1  0
 14 15  1  0
 15 16  1  0
 16 17  2  0
 16 18  1  0
 18 19  1  0
 18 20  1  0
 20 21  1  0
 21 22  1  0
 22 23  2  0
 23 24  1  0
 24 25  2  0
 25 26  1  0
 26 27  2  0
 27 28  1  0
 15 29  1  0
 29 30  1  0
 11  6  1  0
 30 12  1  0
 28 20  1  0
 27 22  1  0
  1 31  1  0
  1 32  1  0
  1 33  1  0
  2 34  1  0
  2 35  1  0
  7 36  1  0
  8 37  1  0
  9 38  1  0
 10 39  1  0
 11 40  1  0
 12 41  1  6
 13 42  1  0
 13 43  1  0
 14 44  1  0
 14 45  1  0
 15 46  1  6
 18 47  1  6
 19 48  1  0
 19 49  1  0
 20 50  1  0
 21 51  1  0
 21 52  1  0
 23 53  1  0
 24 54  1  0
 25 55  1  0
 26 56  1  0
 28 57  1  0
 28 58  1  0
 29 59  1  0
 29 60  1  0
 30 61  1  0
 30 62  1  0
M  CHG  1  15   1
M  END
>  <UniqueID>  (2) 
43

>  <SMILES>  (2) 
CCC(=O)N(c1ccccc1)C1CC[NH+](C(=O)[C@@H](N)C2Cc3ccccc3C2)CC1

>  <Energy>  (2) 
78.2390549836364

>  <Genealogy>  (2) 
CCC(=O)N(c1ccccc1)C1CC[NH+](C(=O)[C@@H](N)C2Cc3ccccc3C2)CC1 (protonated)
CCC(=O)N(c1ccccc1)C1CC[NH+](C(=O)[C@@H](N)C2Cc3ccccc3C2)CC1 (3D coordinates assigned)
CCC(=O)N(c1ccccc1)C1CC[NH+](C(=O)[C@@H](N)C2Cc3ccccc3C2)CC1 (nonaromatic ring conformer: 78.2390549836364 kcal/mol)

>  <smiles>  (2) 
CCC(=O)N(c1ccccc1)C1CCN(C(=O)[C@@H](N)C2Cc3ccccc3C2)CC1

>  <score_type>  (2) 
oracle

>  <origin>  (2) 
autodockgpu

>  <m_score__min__energy>  (2) 
-8.5800000000000001

>  <m_primary>  (2) 
energy

>  <meeko>  (2) 
{"free_energy": -6.96, "intermolecular_energy": -9.35, "internal_energy": -2.94, "cluster_size": 4, "cluster_id": 6, "rank_in_cluster": 2}

>  <energy>  (2) 
-8.01

>  <cluster_rmsd>  (2) 
0.0

>  <rmsd>  (2) 
271.06

>  <cluster>  (2) 
2

$$$$
MCZRVQBLWAUNOI-VDNHLTQINA-O
     RDKit          3D

 62 65  0  0  0  0  0  0  0  0999 V2000
  136.9020   82.1600  225.6700 C   0  0  0  0  0  0  0  0  0  0  0  0
  137.6130   80.9670  225.0410 C   0  0  0  0  0  0  0  0  0  0  0  0
  137.9710   81.2590  223.6100 C   0  0  0  0  0  0  0  0  0  0  0  0
  137.5990   82.3660  223.1290 O   0  0  0  0  0  0  0  0  0  0  0  0
  138.6480   80.3020  222.7560 N   0  0  0  0  0  0  0  0  0  0  0  0
  140.0870   80.2730  222.8060 C   0  0  0  0  0  0  0  0  0  0  0  0
  140.8400   80.9610  221.8420 C   0  0  0  0  0  0  0  0  0  0  0  0
  142.2350   80.9500  221.9010 C   0  0  0  0  0  0  0  0  0  0  0  0
  142.8860   80.2660  222.9320 C   0  0  0  0  0  0  0  0  0  0  0  0
  142.1420   79.5920  223.9060 C   0  0  0  0  0  0  0  0  0  0  0  0
  140.7450   79.5960  223.8460 C   0  0  0  0  0  0  0  0  0  0  0  0
  137.9150   79.2370  222.0350 C   0  0  1  0  0  0  0  0  0  0  0  0
  138.5180   78.9410  220.6530 C   0  0  0  0  0  0  0  0  0  0  0  0
  137.7080   77.8430  219.9460 C   0  0  0  0  0  0  0  0  0  0  0  0
  137.6020   76.6000  220.7430 N   0  0  1  0  0  0  0  0  0  0  0  0
  138.8350   75.8280  220.6960 C   0  0  0  0  0  0  0  0  0  0  0  0
  139.2220   75.3470  219.6410 O   0  0  0  0  0  0  0  0  0  0  0  0
  139.6220   75.5400  221.9690 C   0  0  1  0  0  0  0  0  0  0  0  0
  139.5880   74.1040  222.2550 N   0  0  0  0  0  0  0  0  0  0  0  0
  141.0910   76.0450  221.9030 C   0  0  0  0  0  0  0  0  0  0  0  0
  141.9620   75.2900  220.8640 C   0  0  0  0  0  0  0  0  0  0  0  0
  142.1990   76.3000  219.8060 C   0  0  0  0  0  0  0  0  0  0  0  0
  142.7850   76.0820  218.5570 C   0  0  0  0  0  0  0  0  0  0  0  0
  142.9330   77.1700  217.6820 C   0  0  0  0  0  0  0  0  0  0  0  0
  142.5000   78.4520  218.0690 C   0  0  0  0  0  0  0  0  0  0  0  0
  141.9200   78.6490  219.3320 C   0  0  0  0  0  0  0  0  0  0  0  0
  141.7800   77.5510  220.1850 C   0  0  0  0  0  0  0  0  0  0  0  0
  141.1820   77.5510  221.5410 C   0  0  0  0  0  0  0  0  0  0  0  0
  137.1190   76.8330  222.1280 C   0  0  0  0  0  0  0  0  0  0  0  0
  137.8740   77.9520  222.8700 C   0  0  0  0  0  0  0  0  0  0  0  0
  136.9500   82.0794  226.7660 H   0  0  0  0  0  0  0  0  0  0  0  0
  137.3930   83.0905  225.3489 H   0  0  0  0  0  0  0  0  0  0  0  0
  135.8500   82.1709  225.3489 H   0  0  0  0  0  0  0  0  0  0  0  0
  138.5316   80.7538  225.6073 H   0  0  0  0  0  0  0  0  0  0  0  0
  136.9393   80.0979  225.0680 H   0  0  0  0  0  0  0  0  0  0  0  0
  140.3296   81.5106  221.0374 H   0  0  0  0  0  0  0  0  0  0  0  0
  142.8219   81.4796  221.1361 H   0  0  0  0  0  0  0  0  0  0  0  0
  143.9850   80.2579  222.9773 H   0  0  0  0  0  0  0  0  0  0  0  0
  142.6560   79.0587  224.7193 H   0  0  0  0  0  0  0  0  0  0  0  0
  140.1606   79.0683  224.6142 H   0  0  0  0  0  0  0  0  0  0  0  0
  136.8912   79.6073  221.8776 H   0  0  0  0  0  0  0  0  0  0  0  0
  139.5581   78.6042  220.7747 H   0  0  0  0  0  0  0  0  0  0  0  0
  138.4893   79.8570  220.0446 H   0  0  0  0  0  0  0  0  0  0  0  0
  138.1981   77.6060  218.9901 H   0  0  0  0  0  0  0  0  0  0  0  0
  136.6882   78.2285  219.7995 H   0  0  0  0  0  0  0  0  0  0  0  0
  136.8560   76.0300  220.2810 H   0  0  0  0  0  0  0  0  0  0  0  0
  139.1378   76.0976  222.7843 H   0  0  0  0  0  0  0  0  0  0  0  0
  138.7940   73.9140  222.9100 H   0  0  0  0  0  0  0  0  0  0  0  0
  139.3630   73.5970  221.3700 H   0  0  0  0  0  0  0  0  0  0  0  0
  141.4739   75.8573  222.9170 H   0  0  0  0  0  0  0  0  0  0  0  0
  142.9111   74.9612  221.3124 H   0  0  0  0  0  0  0  0  0  0  0  0
  141.4781   74.3785  220.4832 H   0  0  0  0  0  0  0  0  0  0  0  0
  143.1240   75.0773  218.2645 H   0  0  0  0  0  0  0  0  0  0  0  0
  143.3883   77.0201  216.6919 H   0  0  0  0  0  0  0  0  0  0  0  0
  142.6164   79.3016  217.3801 H   0  0  0  0  0  0  0  0  0  0  0  0
  141.5823   79.6482  219.6442 H   0  0  0  0  0  0  0  0  0  0  0  0
  141.8258   78.0875  222.2536 H   0  0  0  0  0  0  0  0  0  0  0  0
  140.2063   78.0576  221.5765 H   0  0  0  0  0  0  0  0  0  0  0  0
  137.2357   75.8992  222.6976 H   0  0  0  0  0  0  0  0  0  0  0  0
  136.0688   77.1513  222.0516 H   0  0  0  0  0  0  0  0  0  0  0  0
  138.9036   77.6199  223.0692 H   0  0  0  0  0  0  0  0  0  0  0  0
  137.3472   78.1639  223.8121 H   0  0  0  0  0  0  0  0  0  0  0  0
  1  2  1  0
  2  3  1  0
  3  4  2  0
  3  5  1  0
  5  6  1  0
  6  7  2  0
  7  8  1  0
  8  9  2  0
  9 10  1  0
 10 11  2  0
  5 12  1  0
 12 13  1  0
 13 14  1  0
 14 15  1  0
 15 16  1  0
 16 17  2  0
 16 18  1  0
 18 19  1  0
 18 20  1  0
 20 21  1  0
 21 22  1  0
 22 23  2  0
 23 24  1  0
 24 25  2  0
 25 26  1  0
 26 27  2  0
 27 28  1  0
 15 29  1  0
 29 30  1  0
 11  6  1  0
 30 12  1  0
 28 20  1  0
 27 22  1  0
  1 31  1  0
  1 32  1  0
  1 33  1  0
  2 34  1  0
  2 35  1  0
  7 36  1  0
  8 37  1  0
  9 38  1  0
 10 39  1  0
 11 40  1  0
 12 41  1  6
 13 42  1  0
 13 43  1  0
 14 44  1  0
 14 45  1  0
 15 46  1  6
 18 47  1  1
 19 48  1  0
 19 49  1  0
 20 50  1  0
 21 51  1  0
 21 52  1  0
 23 53  1  0
 24 54  1  0
 25 55  1  0
 26 56  1  0
 28 57  1  0
 28 58  1  0
 29 59  1  0
 29 60  1  0
 30 61  1  0
 30 62  1  0
M  CHG  1  15   1
M  END
>  <UniqueID>  (3) 
43

>  <SMILES>  (3) 
CCC(=O)N(c1ccccc1)C1CC[NH+](C(=O)[C@@H](N)C2Cc3ccccc3C2)CC1

>  <Energy>  (3) 
78.2390549836364

>  <Genealogy>  (3) 
CCC(=O)N(c1ccccc1)C1CC[NH+](C(=O)[C@@H](N)C2Cc3ccccc3C2)CC1 (protonated)
CCC(=O)N(c1ccccc1)C1CC[NH+](C(=O)[C@@H](N)C2Cc3ccccc3C2)CC1 (3D coordinates assigned)
CCC(=O)N(c1ccccc1)C1CC[NH+](C(=O)[C@@H](N)C2Cc3ccccc3C2)CC1 (nonaromatic ring conformer: 78.2390549836364 kcal/mol)

>  <smiles>  (3) 
CCC(=O)N(c1ccccc1)C1CCN(C(=O)[C@@H](N)C2Cc3ccccc3C2)CC1

>  <score_type>  (3) 
oracle

>  <origin>  (3) 
autodockgpu

>  <m_score__min__energy>  (3) 
-8.5800000000000001

>  <m_primary>  (3) 
energy

>  <meeko>  (3) 
{"free_energy": -6.63, "intermolecular_energy": -9.02, "internal_energy": -3.1, "cluster_size": 6, "cluster_id": 7, "rank_in_cluster": 2}

>  <energy>  (3) 
-7.84

>  <cluster_rmsd>  (3) 
0.11

>  <rmsd>  (3) 
271.04

>  <cluster>  (3) 
2

$$$$
MCZRVQBLWAUNOI-VDNHLTQINA-O
     RDKit          3D

 62 65  0  0  0  0  0  0  0  0999 V2000
  137.7810   78.1780  222.7000 C   0  0  0  0  0  0  0  0  0  0  0  0
  137.9550   76.8350  221.9990 C   0  0  0  0  0  0  0  0  0  0  0  0
  139.4060   76.4400  221.9650 C   0  0  0  0  0  0  0  0  0  0  0  0
  139.7410   75.3950  222.5890 O   0  0  0  0  0  0  0  0  0  0  0  0
  140.4260   77.2430  221.3180 N   0  0  0  0  0  0  0  0  0  0  0  0
  140.9420   78.3710  222.0490 C   0  0  0  0  0  0  0  0  0  0  0  0
  141.4220   78.2040  223.3570 C   0  0  0  0  0  0  0  0  0  0  0  0
  141.9420   79.2940  224.0600 C   0  0  0  0  0  0  0  0  0  0  0  0
  142.0000   80.5520  223.4550 C   0  0  0  0  0  0  0  0  0  0  0  0
  141.5390   80.7230  222.1450 C   0  0  0  0  0  0  0  0  0  0  0  0
  141.0130   79.6350  221.4410 C   0  0  0  0  0  0  0  0  0  0  0  0
  141.0900   76.8100  220.0680 C   0  0  1  0  0  0  0  0  0  0  0  0
  142.5610   77.2500  220.0020 C   0  0  0  0  0  0  0  0  0  0  0  0
  143.1920   76.7900  218.6780 C   0  0  0  0  0  0  0  0  0  0  0  0
  143.0780   75.3300  218.4610 N   0  0  1  0  0  0  0  0  0  0  0  0
  144.0400   74.5920  219.2660 C   0  0  0  0  0  0  0  0  0  0  0  0
  144.3670   75.0060  220.3690 O   0  0  0  0  0  0  0  0  0  0  0  0
  144.7110   73.3380  218.7200 C   0  0  1  0  0  0  0  0  0  0  0  0
  146.1540   73.4050  218.9650 N   0  0  0  0  0  0  0  0  0  0  0  0
  144.1220   72.0260  219.3120 C   0  0  0  0  0  0  0  0  0  0  0  0
  143.7720   72.1250  220.8200 C   0  0  0  0  0  0  0  0  0  0  0  0
  142.2920   72.0920  220.8400 C   0  0  0  0  0  0  0  0  0  0  0  0
  141.4630   72.3240  221.9400 C   0  0  0  0  0  0  0  0  0  0  0  0
  140.0720   72.2430  221.7670 C   0  0  0  0  0  0  0  0  0  0  0  0
  139.5340   71.9260  220.5050 C   0  0  0  0  0  0  0  0  0  0  0  0
  140.3870   71.6890  219.4150 C   0  0  0  0  0  0  0  0  0  0  0  0
  141.7670   71.7800  219.6100 C   0  0  0  0  0  0  0  0  0  0  0  0
  142.8230   71.5840  218.5880 C   0  0  0  0  0  0  0  0  0  0  0  0
  141.6890   74.8230  218.6130 C   0  0  0  0  0  0  0  0  0  0  0  0
  140.9960   75.2880  219.9070 C   0  0  0  0  0  0  0  0  0  0  0  0
  137.8004   78.0281  223.7896 H   0  0  0  0  0  0  0  0  0  0  0  0
  138.5992   78.8527  222.4080 H   0  0  0  0  0  0  0  0  0  0  0  0
  136.8178   78.6219  222.4080 H   0  0  0  0  0  0  0  0  0  0  0  0
  137.3839   76.0673  222.5416 H   0  0  0  0  0  0  0  0  0  0  0  0
  137.5871   76.9236  220.9661 H   0  0  0  0  0  0  0  0  0  0  0  0
  141.3888   77.2117  223.8305 H   0  0  0  0  0  0  0  0  0  0  0  0
  142.3057   79.1616  225.0897 H   0  0  0  0  0  0  0  0  0  0  0  0
  142.4088   81.4096  224.0095 H   0  0  0  0  0  0  0  0  0  0  0  0
  141.5903   81.7133  221.6688 H   0  0  0  0  0  0  0  0  0  0  0  0
  140.6545   79.7695  220.4098 H   0  0  0  0  0  0  0  0  0  0  0  0
  140.5584   77.3018  219.2400 H   0  0  0  0  0  0  0  0  0  0  0  0
  143.1124   76.8029  220.8423 H   0  0  0  0  0  0  0  0  0  0  0  0
  142.6113   78.3472  220.0623 H   0  0  0  0  0  0  0  0  0  0  0  0
  144.2579   77.0615  218.6844 H   0  0  0  0  0  0  0  0  0  0  0  0
  142.6471   77.2880  217.8625 H   0  0  0  0  0  0  0  0  0  0  0  0
  143.3220   75.1730  217.4550 H   0  0  0  0  0  0  0  0  0  0  0  0
  144.5132   73.3079  217.6383 H   0  0  0  0  0  0  0  0  0  0  0  0
  146.6180   73.7950  218.1120 H   0  0  0  0  0  0  0  0  0  0  0  0
  146.3260   74.0950  219.7310 H   0  0  0  0  0  0  0  0  0  0  0  0
  144.9283   71.2924  219.1649 H   0  0  0  0  0  0  0  0  0  0  0  0
  144.1908   71.2736  221.3766 H   0  0  0  0  0  0  0  0  0  0  0  0
  144.1846   73.0273  221.2949 H   0  0  0  0  0  0  0  0  0  0  0  0
  141.8920   72.5657  222.9236 H   0  0  0  0  0  0  0  0  0  0  0  0
  139.4012   72.4275  222.6190 H   0  0  0  0  0  0  0  0  0  0  0  0
  138.4437   71.8639  220.3727 H   0  0  0  0  0  0  0  0  0  0  0  0
  139.9761   71.4365  218.4263 H   0  0  0  0  0  0  0  0  0  0  0  0
  142.8833   70.5287  218.2836 H   0  0  0  0  0  0  0  0  0  0  0  0
  142.6344   72.1529  217.6656 H   0  0  0  0  0  0  0  0  0  0  0  0
  141.7190   73.7234  218.6115 H   0  0  0  0  0  0  0  0  0  0  0  0
  141.1059   75.2293  217.7734 H   0  0  0  0  0  0  0  0  0  0  0  0
  141.4815   74.8051  220.7679 H   0  0  0  0  0  0  0  0  0  0  0  0
  139.9337   75.0075  219.8543 H   0  0  0  0  0  0  0  0  0  0  0  0
  1  2  1  0
  2  3  1  0
  3  4  2  0
  3  5  1  0
  5  6  1  0
  6  7  2  0
  7  8  1  0
  8  9  2  0
  9 10  1  0
 10 11  2  0
  5 12  1  0
 12 13  1  0
 13 14  1  0
 14 15  1  0
 15 16  1  0
 16 17  2  0
 16 18  1  0
 18 19  1  0
 18 20  1  0
 20 21  1  0
 21 22  1  0
 22 23  2  0
 23 24  1  0
 24 25  2  0
 25 26  1  0
 26 27  2  0
 27 28  1  0
 15 29  1  0
 29 30  1  0
 11  6  1  0
 30 12  1  0
 28 20  1  0
 27 22  1  0
  1 31  1  0
  1 32  1  0
  1 33  1  0
  2 34  1  0
  2 35  1  0
  7 36  1  0
  8 37  1  0
  9 38  1  0
 10 39  1  0
 11 40  1  0
 12 41  1  6
 13 42  1  0
 13 43  1  0
 14 44  1  0
 14 45  1  0
 15 46  1  6
 18 47  1  6
 19 48  1  0
 19 49  1  0
 20 50  1  0
 21 51  1  0
 21 52  1  0
 23 53  1  0
 24 54  1  0
 25 55  1  0
 26 56  1  0
 28 57  1  0
 28 58  1  0
 29 59  1  0
 29 60  1  0
 30 61  1  0
 30 62  1  0
M  CHG  1  15   1
M  END
>  <UniqueID>  (4) 
43

>  <SMILES>  (4) 
CCC(=O)N(c1ccccc1)C1CC[NH+](C(=O)[C@@H](N)C2Cc3ccccc3C2)CC1

>  <Energy>  (4) 
78.2390549836364

>  <Genealogy>  (4) 
CCC(=O)N(c1ccccc1)C1CC[NH+](C(=O)[C@@H](N)C2Cc3ccccc3C2)CC1 (protonated)
CCC(=O)N(c1ccccc1)C1CC[NH+](C(=O)[C@@H](N)C2Cc3ccccc3C2)CC1 (3D coordinates assigned)
CCC(=O)N(c1ccccc1)C1CC[NH+](C(=O)[C@@H](N)C2Cc3ccccc3C2)CC1 (nonaromatic ring conformer: 78.2390549836364 kcal/mol)

>  <smiles>  (4) 
CCC(=O)N(c1ccccc1)C1CCN(C(=O)[C@@H](N)C2Cc3ccccc3C2)CC1

>  <score_type>  (4) 
oracle

>  <origin>  (4) 
autodockgpu

>  <m_score__min__energy>  (4) 
-8.5800000000000001

>  <m_primary>  (4) 
energy

>  <meeko>  (4) 
{"free_energy": -6.78, "intermolecular_energy": -9.16, "internal_energy": -3.03, "cluster_size": 4, "cluster_id": 6, "rank_in_cluster": 4}

>  <energy>  (4) 
-7.84

>  <cluster_rmsd>  (4) 
0.0

>  <rmsd>  (4) 
271.21

>  <cluster>  (4) 
3

$$$$
MCZRVQBLWAUNOI-VDNHLTQINA-O
     RDKit          3D

 62 65  0  0  0  0  0  0  0  0999 V2000
  134.8740   69.3240  225.3230 C   0  0  0  0  0  0  0  0  0  0  0  0
  135.6760   70.3920  224.5870 C   0  0  0  0  0  0  0  0  0  0  0  0
  136.8320   69.7720  223.8510 C   0  0  0  0  0  0  0  0  0  0  0  0
  136.7170   68.5660  223.4950 O   0  0  0  0  0  0  0  0  0  0  0  0
  138.0790   70.4710  223.6100 N   0  0  0  0  0  0  0  0  0  0  0  0
  139.1200   70.3270  224.5950 C   0  0  0  0  0  0  0  0  0  0  0  0
  139.8830   71.4410  224.9810 C   0  0  0  0  0  0  0  0  0  0  0  0
  140.8790   71.3070  225.9510 C   0  0  0  0  0  0  0  0  0  0  0  0
  141.1090   70.0660  226.5520 C   0  0  0  0  0  0  0  0  0  0  0  0
  140.3400   68.9560  226.1840 C   0  0  0  0  0  0  0  0  0  0  0  0
  139.3450   69.0850  225.2090 C   0  0  0  0  0  0  0  0  0  0  0  0
  138.3790   71.1160  222.3120 C   0  0  1  0  0  0  0  0  0  0  0  0
  138.0270   72.6120  222.3030 C   0  0  0  0  0  0  0  0  0  0  0  0
  138.3420   73.2220  220.9280 C   0  0  0  0  0  0  0  0  0  0  0  0
  139.7490   73.0180  220.5150 N   0  0  1  0  0  0  0  0  0  0  0  0
  140.6480   73.9260  221.2100 C   0  0  0  0  0  0  0  0  0  0  0  0
  141.0660   73.6480  222.3250 O   0  0  0  0  0  0  0  0  0  0  0  0
  141.0230   75.2700  220.5970 C   0  0  1  0  0  0  0  0  0  0  0  0
  141.4180   76.2020  221.6560 N   0  0  0  0  0  0  0  0  0  0  0  0
  142.1470   75.1590  219.5280 C   0  0  0  0  0  0  0  0  0  0  0  0
  143.5360   75.6310  220.0320 C   0  0  0  0  0  0  0  0  0  0  0  0
  144.3210   74.3790  220.1200 C   0  0  0  0  0  0  0  0  0  0  0  0
  145.5880   74.2230  220.6870 C   0  0  0  0  0  0  0  0  0  0  0  0
  146.1820   72.9500  220.6730 C   0  0  0  0  0  0  0  0  0  0  0  0
  145.5060   71.8610  220.0910 C   0  0  0  0  0  0  0  0  0  0  0  0
  144.2360   72.0430  219.5200 C   0  0  0  0  0  0  0  0  0  0  0  0
  143.6640   73.3160  219.5490 C   0  0  0  0  0  0  0  0  0  0  0  0
  142.3350   73.7050  219.0200 C   0  0  0  0  0  0  0  0  0  0  0  0
  140.1830   71.6000  220.5990 C   0  0  0  0  0  0  0  0  0  0  0  0
  139.8560   70.9280  221.9460 C   0  0  0  0  0  0  0  0  0  0  0  0
  134.9817   69.4675  226.4083 H   0  0  0  0  0  0  0  0  0  0  0  0
  133.8127   69.4064  225.0458 H   0  0  0  0  0  0  0  0  0  0  0  0
  135.2491   68.3278  225.0458 H   0  0  0  0  0  0  0  0  0  0  0  0
  135.0210   70.9035  223.8663 H   0  0  0  0  0  0  0  0  0  0  0  0
  136.0677   71.1108  225.3218 H   0  0  0  0  0  0  0  0  0  0  0  0
  139.6958   72.4213  224.5184 H   0  0  0  0  0  0  0  0  0  0  0  0
  141.4831   72.1789  226.2423 H   0  0  0  0  0  0  0  0  0  0  0  0
  141.8948   69.9618  227.3146 H   0  0  0  0  0  0  0  0  0  0  0  0
  140.5181   67.9813  226.6618 H   0  0  0  0  0  0  0  0  0  0  0  0
  138.7387   68.2127  224.9234 H   0  0  0  0  0  0  0  0  0  0  0  0
  137.7465   70.6222  221.5596 H   0  0  0  0  0  0  0  0  0  0  0  0
  138.6172   73.1290  223.0739 H   0  0  0  0  0  0  0  0  0  0  0  0
  136.9533   72.7298  222.5110 H   0  0  0  0  0  0  0  0  0  0  0  0
  138.1417   74.3028  220.9695 H   0  0  0  0  0  0  0  0  0  0  0  0
  137.7045   72.7152  220.1886 H   0  0  0  0  0  0  0  0  0  0  0  0
  139.7830   73.2590  219.4970 H   0  0  0  0  0  0  0  0  0  0  0  0
  140.1321   75.6485  220.0745 H   0  0  0  0  0  0  0  0  0  0  0  0
  141.8590   75.6550  222.4320 H   0  0  0  0  0  0  0  0  0  0  0  0
  142.1650   76.8300  221.2820 H   0  0  0  0  0  0  0  0  0  0  0  0
  141.8006   75.8208  218.7206 H   0  0  0  0  0  0  0  0  0  0  0  0
  143.9945   76.3322  219.3192 H   0  0  0  0  0  0  0  0  0  0  0  0
  143.4819   76.1686  220.9901 H   0  0  0  0  0  0  0  0  0  0  0  0
  146.1107   75.0805  221.1359 H   0  0  0  0  0  0  0  0  0  0  0  0
  147.1774   72.8039  221.1178 H   0  0  0  0  0  0  0  0  0  0  0  0
  145.9736   70.8653  220.0835 H   0  0  0  0  0  0  0  0  0  0  0  0
  143.7023   71.1989  219.0589 H   0  0  0  0  0  0  0  0  0  0  0  0
  142.3248   73.6694  217.9206 H   0  0  0  0  0  0  0  0  0  0  0  0
  141.5310   73.0310  219.3507 H   0  0  0  0  0  0  0  0  0  0  0  0
  141.2718   71.5611  220.4474 H   0  0  0  0  0  0  0  0  0  0  0  0
  139.6298   71.0494  219.8239 H   0  0  0  0  0  0  0  0  0  0  0  0
  140.4810   71.3764  222.7324 H   0  0  0  0  0  0  0  0  0  0  0  0
  140.0599   69.8507  221.8578 H   0  0  0  0  0  0  0  0  0  0  0  0
  1  2  1  0
  2  3  1  0
  3  4  2  0
  3  5  1  0
  5  6  1  0
  6  7  2  0
  7  8  1  0
  8  9  2  0
  9 10  1  0
 10 11  2  0
  5 12  1  0
 12 13  1  0
 13 14  1  0
 14 15  1  0
 15 16  1  0
 16 17  2  0
 16 18  1  0
 18 19  1  0
 18 20  1  0
 20 21  1  0
 21 22  1  0
 22 23  2  0
 23 24  1  0
 24 25  2  0
 25 26  1  0
 26 27  2  0
 27 28  1  0
 15 29  1  0
 29 30  1  0
 11  6  1  0
 30 12  1  0
 28 20  1  0
 27 22  1  0
  1 31  1  0
  1 32  1  0
  1 33  1  0
  2 34  1  0
  2 35  1  0
  7 36  1  0
  8 37  1  0
  9 38  1  0
 10 39  1  0
 11 40  1  0
 12 41  1  6
 13 42  1  0
 13 43  1  0
 14 44  1  0
 14 45  1  0
 15 46  1  6
 18 47  1  6
 19 48  1  0
 19 49  1  0
 20 50  1  0
 21 51  1  0
 21 52  1  0
 23 53  1  0
 24 54  1  0
 25 55  1  0
 26 56  1  0
 28 57  1  0
 28 58  1  0
 29 59  1  0
 29 60  1  0
 30 61  1  0
 30 62  1  0
M  CHG  1  15   1
M  END
>  <UniqueID>  (5) 
43

>  <SMILES>  (5) 
CCC(=O)N(c1ccccc1)C1CC[NH+](C(=O)[C@@H](N)C2Cc3ccccc3C2)CC1

>  <Energy>  (5) 
78.2390549836364

>  <Genealogy>  (5) 
CCC(=O)N(c1ccccc1)C1CC[NH+](C(=O)[C@@H](N)C2Cc3ccccc3C2)CC1 (protonated)
CCC(=O)N(c1ccccc1)C1CC[NH+](C(=O)[C@@H](N)C2Cc3ccccc3C2)CC1 (3D coordinates assigned)
CCC(=O)N(c1ccccc1)C1CC[NH+](C(=O)[C@@H](N)C2Cc3ccccc3C2)CC1 (nonaromatic ring conformer: 78.2390549836364 kcal/mol)

>  <smiles>  (5) 
CCC(=O)N(c1ccccc1)C1CCN(C(=O)[C@@H](N)C2Cc3ccccc3C2)CC1

>  <score_type>  (5) 
oracle

>  <origin>  (5) 
autodockgpu

>  <m_score__min__energy>  (5) 
-8.5800000000000001

>  <m_primary>  (5) 
energy

>  <meeko>  (5) 
{"free_energy": -7.31, "intermolecular_energy": -9.69, "internal_energy": -2.39, "cluster_size": 2, "cluster_id": 3, "rank_in_cluster": 2}

>  <energy>  (5) 
-7.31

>  <cluster_rmsd>  (5) 
1.32

>  <rmsd>  (5) 
271.09

>  <cluster>  (5) 
3

$$$$
MCZRVQBLWAUNOI-VDNHLTQINA-O
     RDKit          3D

 62 65  0  0  0  0  0  0  0  0999 V2000
  137.7850   78.2460  221.7320 C   0  0  0  0  0  0  0  0  0  0  0  0
  138.1750   77.0590  222.6060 C   0  0  0  0  0  0  0  0  0  0  0  0
  139.5000   76.4940  222.1690 C   0  0  0  0  0  0  0  0  0  0  0  0
  139.7700   75.3090  222.5100 O   0  0  0  0  0  0  0  0  0  0  0  0
  140.4890   77.2730  221.4500 N   0  0  0  0  0  0  0  0  0  0  0  0
  141.0420   78.4210  222.1200 C   0  0  0  0  0  0  0  0  0  0  0  0
  141.1270   79.6530  221.4520 C   0  0  0  0  0  0  0  0  0  0  0  0
  141.6450   80.7730  222.1070 C   0  0  0  0  0  0  0  0  0  0  0  0
  142.0650   80.6740  223.4360 C   0  0  0  0  0  0  0  0  0  0  0  0
  141.9680   79.4530  224.1130 C   0  0  0  0  0  0  0  0  0  0  0  0
  141.4550   78.3290  223.4580 C   0  0  0  0  0  0  0  0  0  0  0  0
  141.0920   76.7990  220.1830 C   0  0  1  0  0  0  0  0  0  0  0  0
  142.5460   77.2650  220.0140 C   0  0  0  0  0  0  0  0  0  0  0  0
  143.1120   76.7600  218.6780 C   0  0  0  0  0  0  0  0  0  0  0  0
  143.0180   75.2900  218.5290 N   0  0  1  0  0  0  0  0  0  0  0  0
  144.0400   74.6070  219.3070 C   0  0  0  0  0  0  0  0  0  0  0  0
  144.4000   75.0600  220.3850 O   0  0  0  0  0  0  0  0  0  0  0  0
  144.7310   73.3630  218.7620 C   0  0  1  0  0  0  0  0  0  0  0  0
  146.1740   73.4590  218.9970 N   0  0  0  0  0  0  0  0  0  0  0  0
  144.1710   72.0430  219.3650 C   0  0  0  0  0  0  0  0  0  0  0  0
  143.7920   72.1550  220.8650 C   0  0  0  0  0  0  0  0  0  0  0  0
  142.3120   72.0760  220.8590 C   0  0  0  0  0  0  0  0  0  0  0  0
  141.4580   72.3000  221.9400 C   0  0  0  0  0  0  0  0  0  0  0  0
  140.0730   72.1730  221.7430 C   0  0  0  0  0  0  0  0  0  0  0  0
  139.5680   71.8210  220.4780 C   0  0  0  0  0  0  0  0  0  0  0  0
  140.4470   71.5940  219.4070 C   0  0  0  0  0  0  0  0  0  0  0  0
  141.8190   71.7300  219.6250 C   0  0  0  0  0  0  0  0  0  0  0  0
  142.9000   71.5500  218.6250 C   0  0  0  0  0  0  0  0  0  0  0  0
  141.6520   74.7640  218.7810 C   0  0  0  0  0  0  0  0  0  0  0  0
  141.0220   75.2700  220.0920 C   0  0  0  0  0  0  0  0  0  0  0  0
  137.5057   79.0962  222.3716 H   0  0  0  0  0  0  0  0  0  0  0  0
  138.6373   78.5294  221.0969 H   0  0  0  0  0  0  0  0  0  0  0  0
  136.9307   77.9687  221.0969 H   0  0  0  0  0  0  0  0  0  0  0  0
  138.2500   77.3895  223.6525 H   0  0  0  0  0  0  0  0  0  0  0  0
  137.4063   76.2782  222.5085 H   0  0  0  0  0  0  0  0  0  0  0  0
  140.7847   79.7366  220.4099 H   0  0  0  0  0  0  0  0  0  0  0  0
  141.7223   81.7333  221.5762 H   0  0  0  0  0  0  0  0  0  0  0  0
  142.4723   81.5567  223.9507 H   0  0  0  0  0  0  0  0  0  0  0  0
  142.2953   79.3774  225.1605 H   0  0  0  0  0  0  0  0  0  0  0  0
  141.3751   77.3710  223.9926 H   0  0  0  0  0  0  0  0  0  0  0  0
  140.5044   77.2439  219.3664 H   0  0  0  0  0  0  0  0  0  0  0  0
  143.1537   76.8669  220.8400 H   0  0  0  0  0  0  0  0  0  0  0  0
  142.5744   78.3646  220.0237 H   0  0  0  0  0  0  0  0  0  0  0  0
  144.1705   77.0520  218.6129 H   0  0  0  0  0  0  0  0  0  0  0  0
  142.5115   77.2114  217.8744 H   0  0  0  0  0  0  0  0  0  0  0  0
  143.2090   75.0950  217.5180 H   0  0  0  0  0  0  0  0  0  0  0  0
  144.5266   73.3233  217.6819 H   0  0  0  0  0  0  0  0  0  0  0  0
  146.6200   73.8870  218.1530 H   0  0  0  0  0  0  0  0  0  0  0  0
  146.3360   74.1300  219.7830 H   0  0  0  0  0  0  0  0  0  0  0  0
  145.0013   71.3316  219.2443 H   0  0  0  0  0  0  0  0  0  0  0  0
  144.2269   71.3261  221.4427 H   0  0  0  0  0  0  0  0  0  0  0  0
  144.1683   73.0768  221.3326 H   0  0  0  0  0  0  0  0  0  0  0  0
  141.8616   72.5707  222.9268 H   0  0  0  0  0  0  0  0  0  0  0  0
  139.3814   72.3492  222.5801 H   0  0  0  0  0  0  0  0  0  0  0  0
  138.4827   71.7235  220.3277 H   0  0  0  0  0  0  0  0  0  0  0  0
  140.0619   71.3144  218.4153 H   0  0  0  0  0  0  0  0  0  0  0  0
  142.9979   70.4923  218.3392 H   0  0  0  0  0  0  0  0  0  0  0  0
  142.7115   72.0980  217.6900 H   0  0  0  0  0  0  0  0  0  0  0  0
  141.7057   73.6661  218.8234 H   0  0  0  0  0  0  0  0  0  0  0  0
  141.0143   75.1235  217.9600 H   0  0  0  0  0  0  0  0  0  0  0  0
  141.5651   74.8340  220.9434 H   0  0  0  0  0  0  0  0  0  0  0  0
  139.9649   74.9665  220.1119 H   0  0  0  0  0  0  0  0  0  0  0  0
  1  2  1  0
  2  3  1  0
  3  4  2  0
  3  5  1  0
  5  6  1  0
  6  7  2  0
  7  8  1  0
  8  9  2  0
  9 10  1  0
 10 11  2  0
  5 12  1  0
 12 13  1  0
 13 14  1  0
 14 15  1  0
 15 16  1  0
 16 17  2  0
 16 18  1  0
 18 19  1  0
 18 20  1  0
 20 21  1  0
 21 22  1  0
 22 23  2  0
 23 24  1  0
 24 25  2  0
 25 26  1  0
 26 27  2  0
 27 28  1  0
 15 29  1  0
 29 30  1  0
 11  6  1  0
 30 12  1  0
 28 20  1  0
 27 22  1  0
  1 31  1  0
  1 32  1  0
  1 33  1  0
  2 34  1  0
  2 35  1  0
  7 36  1  0
  8 37  1  0
  9 38  1  0
 10 39  1  0
 11 40  1  0
 12 41  1  6
 13 42  1  0
 13 43  1  0
 14 44  1  0
 14 45  1  0
 15 46  1  6
 18 47  1  6
 19 48  1  0
 19 49  1  0
 20 50  1  0
 21 51  1  0
 21 52  1  0
 23 53  1  0
 24 54  1  0
 25 55  1  0
 26 56  1  0
 28 57  1  0
 28 58  1  0
 29 59  1  0
 29 60  1  0
 30 61  1  0
 30 62  1  0
M  CHG  1  15   1
M  END
>  <UniqueID>  (6) 
43

>  <SMILES>  (6) 
CCC(=O)N(c1ccccc1)C1CC[NH+](C(=O)[C@@H](N)C2Cc3ccccc3C2)CC1

>  <Energy>  (6) 
78.2390549836364

>  <Genealogy>  (6) 
CCC(=O)N(c1ccccc1)C1CC[NH+](C(=O)[C@@H](N)C2Cc3ccccc3C2)CC1 (protonated)
CCC(=O)N(c1ccccc1)C1CC[NH+](C(=O)[C@@H](N)C2Cc3ccccc3C2)CC1 (3D coordinates assigned)
CCC(=O)N(c1ccccc1)C1CC[NH+](C(=O)[C@@H](N)C2Cc3ccccc3C2)CC1 (nonaromatic ring conformer: 78.2390549836364 kcal/mol)

>  <smiles>  (6) 
CCC(=O)N(c1ccccc1)C1CCN(C(=O)[C@@H](N)C2Cc3ccccc3C2)CC1

>  <score_type>  (6) 
oracle

>  <origin>  (6) 
autodockgpu

>  <m_score__min__energy>  (6) 
-8.5800000000000001

>  <m_primary>  (6) 
energy

>  <meeko>  (6) 
{"free_energy": -6.84, "intermolecular_energy": -9.23, "internal_energy": -2.91, "cluster_size": 4, "cluster_id": 6, "rank_in_cluster": 3}

>  <energy>  (6) 
-7.73

>  <cluster_rmsd>  (6) 
0.0

>  <rmsd>  (6) 
271.25

>  <cluster>  (6) 
4

$$$$
MCZRVQBLWAUNOI-VDNHLTQINA-O
     RDKit          3D

 62 65  0  0  0  0  0  0  0  0999 V2000
  137.2440   81.7350  225.7470 C   0  0  0  0  0  0  0  0  0  0  0  0
  136.8570   80.9040  224.5290 C   0  0  0  0  0  0  0  0  0  0  0  0
  137.7590   81.2180  223.3670 C   0  0  0  0  0  0  0  0  0  0  0  0
  137.8190   82.4190  222.9820 O   0  0  0  0  0  0  0  0  0  0  0  0
  138.4890   80.1980  222.6380 N   0  0  0  0  0  0  0  0  0  0  0  0
  139.9160   80.1430  222.8270 C   0  0  0  0  0  0  0  0  0  0  0  0
  140.7660   80.8780  221.9860 C   0  0  0  0  0  0  0  0  0  0  0  0
  142.1490   80.8420  222.1810 C   0  0  0  0  0  0  0  0  0  0  0  0
  142.6890   80.0870  223.2260 C   0  0  0  0  0  0  0  0  0  0  0  0
  141.8460   79.3650  224.0780 C   0  0  0  0  0  0  0  0  0  0  0  0
  140.4610   79.3950  223.8820 C   0  0  0  0  0  0  0  0  0  0  0  0
  137.8010   79.1060  221.9140 C   0  0  1  0  0  0  0  0  0  0  0  0
  138.4530   78.7990  220.5570 C   0  0  0  0  0  0  0  0  0  0  0  0
  137.6870   77.6730  219.8440 C   0  0  0  0  0  0  0  0  0  0  0  0
  137.5820   76.4420  220.6590 N   0  0  1  0  0  0  0  0  0  0  0  0
  138.8300   75.6950  220.6630 C   0  0  0  0  0  0  0  0  0  0  0  0
  139.2450   75.1810  219.6340 O   0  0  0  0  0  0  0  0  0  0  0  0
  139.6000   75.4750  221.9600 C   0  0  1  0  0  0  0  0  0  0  0  0
  139.5600   74.0560  222.3220 N   0  0  0  0  0  0  0  0  0  0  0  0
  141.0720   75.9720  221.8850 C   0  0  0  0  0  0  0  0  0  0  0  0
  141.9300   75.2230  220.8310 C   0  0  0  0  0  0  0  0  0  0  0  0
  142.1620   76.2420  219.7800 C   0  0  0  0  0  0  0  0  0  0  0  0
  142.7360   76.0330  218.5240 C   0  0  0  0  0  0  0  0  0  0  0  0
  142.8810   77.1290  217.6580 C   0  0  0  0  0  0  0  0  0  0  0  0
  142.4590   78.4100  218.0620 C   0  0  0  0  0  0  0  0  0  0  0  0
  141.8910   78.5970  219.3320 C   0  0  0  0  0  0  0  0  0  0  0  0
  141.7530   77.4920  220.1750 C   0  0  0  0  0  0  0  0  0  0  0  0
  141.1670   77.4810  221.5370 C   0  0  0  0  0  0  0  0  0  0  0  0
  137.0510   76.6880  222.0240 C   0  0  0  0  0  0  0  0  0  0  0  0
  137.7590   77.8350  222.7690 C   0  0  0  0  0  0  0  0  0  0  0  0
  136.9873   81.1837  226.6636 H   0  0  0  0  0  0  0  0  0  0  0  0
  138.3262   81.9313  225.7281 H   0  0  0  0  0  0  0  0  0  0  0  0
  136.6978   82.6896  225.7281 H   0  0  0  0  0  0  0  0  0  0  0  0
  136.9451   79.8359  224.7770 H   0  0  0  0  0  0  0  0  0  0  0  0
  135.8208   81.1449  224.2494 H   0  0  0  0  0  0  0  0  0  0  0  0
  140.3423   81.4838  221.1714 H   0  0  0  0  0  0  0  0  0  0  0  0
  142.8134   81.4082  221.5117 H   0  0  0  0  0  0  0  0  0  0  0  0
  143.7780   80.0604  223.3788 H   0  0  0  0  0  0  0  0  0  0  0  0
  142.2722   78.7738  224.9019 H   0  0  0  0  0  0  0  0  0  0  0  0
  139.7985   78.8316  224.5556 H   0  0  0  0  0  0  0  0  0  0  0  0
  136.7754   79.4527  221.7188 H   0  0  0  0  0  0  0  0  0  0  0  0
  139.4951   78.4851  220.7170 H   0  0  0  0  0  0  0  0  0  0  0  0
  138.4257   79.7039  219.9322 H   0  0  0  0  0  0  0  0  0  0  0  0
  138.2108   77.4304  218.9077 H   0  0  0  0  0  0  0  0  0  0  0  0
  136.6647   78.0348  219.6593 H   0  0  0  0  0  0  0  0  0  0  0  0
  136.8620   75.8490  220.1830 H   0  0  0  0  0  0  0  0  0  0  0  0
  139.1065   76.0768  222.7374 H   0  0  0  0  0  0  0  0  0  0  0  0
  138.7550   73.9020  222.9740 H   0  0  0  0  0  0  0  0  0  0  0  0
  139.3470   73.5020  221.4620 H   0  0  0  0  0  0  0  0  0  0  0  0
  141.4636   75.7711  222.8931 H   0  0  0  0  0  0  0  0  0  0  0  0
  142.8817   74.8858  221.2676 H   0  0  0  0  0  0  0  0  0  0  0  0
  141.4384   74.3173  220.4461 H   0  0  0  0  0  0  0  0  0  0  0  0
  143.0680   75.0296  218.2191 H   0  0  0  0  0  0  0  0  0  0  0  0
  143.3253   76.9863  216.6619 H   0  0  0  0  0  0  0  0  0  0  0  0
  142.5746   79.2661  217.3810 H   0  0  0  0  0  0  0  0  0  0  0  0
  141.5609   79.5947  219.6570 H   0  0  0  0  0  0  0  0  0  0  0  0
  141.8197   78.0073  222.2490 H   0  0  0  0  0  0  0  0  0  0  0  0
  140.1940   77.9917  221.5863 H   0  0  0  0  0  0  0  0  0  0  0  0
  137.1690   75.7667  222.6133 H   0  0  0  0  0  0  0  0  0  0  0  0
  135.9973   76.9825  221.9096 H   0  0  0  0  0  0  0  0  0  0  0  0
  138.7882   77.5277  223.0064 H   0  0  0  0  0  0  0  0  0  0  0  0
  137.1978   78.0521  223.6898 H   0  0  0  0  0  0  0  0  0  0  0  0
  1  2  1  0
  2  3  1  0
  3  4  2  0
  3  5  1  0
  5  6  1  0
  6  7  2  0
  7  8  1  0
  8  9  2  0
  9 10  1  0
 10 11  2  0
  5 12  1  0
 12 13  1  0
 13 14  1  0
 14 15  1  0
 15 16  1  0
 16 17  2  0
 16 18  1  0
 18 19  1  0
 18 20  1  0
 20 21  1  0
 21 22  1  0
 22 23  2  0
 23 24  1  0
 24 25  2  0
 25 26  1  0
 26 27  2  0
 27 28  1  0
 15 29  1  0
 29 30  1  0
 11  6  1  0
 30 12  1  0
 28 20  1  0
 27 22  1  0
  1 31  1  0
  1 32  1  0
  1 33  1  0
  2 34  1  0
  2 35  1  0
  7 36  1  0
  8 37  1  0
  9 38  1  0
 10 39  1  0
 11 40  1  0
 12 41  1  6
 13 42  1  0
 13 43  1  0
 14 44  1  0
 14 45  1  0
 15 46  1  6
 18 47  1  1
 19 48  1  0
 19 49  1  0
 20 50  1  0
 21 51  1  0
 21 52  1  0
 23 53  1  0
 24 54  1  0
 25 55  1  0
 26 56  1  0
 28 57  1  0
 28 58  1  0
 29 59  1  0
 29 60  1  0
 30 61  1  0
 30 62  1  0
M  CHG  1  15   1
M  END
>  <UniqueID>  (7) 
43

>  <SMILES>  (7) 
CCC(=O)N(c1ccccc1)C1CC[NH+](C(=O)[C@@H](N)C2Cc3ccccc3C2)CC1

>  <Energy>  (7) 
78.2390549836364

>  <Genealogy>  (7) 
CCC(=O)N(c1ccccc1)C1CC[NH+](C(=O)[C@@H](N)C2Cc3ccccc3C2)CC1 (protonated)
CCC(=O)N(c1ccccc1)C1CC[NH+](C(=O)[C@@H](N)C2Cc3ccccc3C2)CC1 (3D coordinates assigned)
CCC(=O)N(c1ccccc1)C1CC[NH+](C(=O)[C@@H](N)C2Cc3ccccc3C2)CC1 (nonaromatic ring conformer: 78.2390549836364 kcal/mol)

>  <smiles>  (7) 
CCC(=O)N(c1ccccc1)C1CCN(C(=O)[C@@H](N)C2Cc3ccccc3C2)CC1

>  <score_type>  (7) 
oracle

>  <origin>  (7) 
autodockgpu

>  <m_score__min__energy>  (7) 
-8.5800000000000001

>  <m_primary>  (7) 
energy

>  <meeko>  (7) 
{"free_energy": -6.59, "intermolecular_energy": -8.98, "internal_energy": -3.11, "cluster_size": 6, "cluster_id": 7, "rank_in_cluster": 5}

>  <energy>  (7) 
-7.31

>  <cluster_rmsd>  (7) 
0.0

>  <rmsd>  (7) 
271.06

>  <cluster>  (7) 
5

$$$$
MCZRVQBLWAUNOI-VDNHLTQINA-O
     RDKit          3D

 62 65  0  0  0  0  0  0  0  0999 V2000
  139.0830   76.6100  222.0610 C   0  0  0  0  0  0  0  0  0  0  0  0
  140.5710   76.4230  222.3330 C   0  0  0  0  0  0  0  0  0  0  0  0
  141.0980   75.2260  221.5910 C   0  0  0  0  0  0  0  0  0  0  0  0
  140.7210   74.0850  221.9790 O   0  0  0  0  0  0  0  0  0  0  0  0
  142.0640   75.3290  220.5140 N   0  0  0  0  0  0  0  0  0  0  0  0
  143.1140   74.3440  220.4700 C   0  0  0  0  0  0  0  0  0  0  0  0
  144.4580   74.7470  220.4640 C   0  0  0  0  0  0  0  0  0  0  0  0
  145.4780   73.7920  220.4420 C   0  0  0  0  0  0  0  0  0  0  0  0
  145.1610   72.4310  220.4420 C   0  0  0  0  0  0  0  0  0  0  0  0
  143.8230   72.0220  220.4650 C   0  0  0  0  0  0  0  0  0  0  0  0
  142.8000   72.9750  220.4820 C   0  0  0  0  0  0  0  0  0  0  0  0
  141.8700   76.2480  219.3700 C   0  0  1  0  0  0  0  0  0  0  0  0
  140.4030   76.3230  218.9180 C   0  0  0  0  0  0  0  0  0  0  0  0
  140.2660   77.2750  217.7200 C   0  0  0  0  0  0  0  0  0  0  0  0
  140.7940   78.6310  217.9960 N   0  0  1  0  0  0  0  0  0  0  0  0
  139.8750   79.4060  218.8150 C   0  0  0  0  0  0  0  0  0  0  0  0
  139.1100   78.8430  219.5860 O   0  0  0  0  0  0  0  0  0  0  0  0
  139.7940   80.9210  218.6720 C   0  0  1  0  0  0  0  0  0  0  0  0
  138.4060   81.3190  218.4270 N   0  0  0  0  0  0  0  0  0  0  0  0
  140.3650   81.6790  219.9040 C   0  0  0  0  0  0  0  0  0  0  0  0
  139.4960   81.5350  221.1820 C   0  0  0  0  0  0  0  0  0  0  0  0
  140.3220   80.6880  222.0730 C   0  0  0  0  0  0  0  0  0  0  0  0
  139.9280   80.1160  223.2850 C   0  0  0  0  0  0  0  0  0  0  0  0
  140.8580   79.3420  223.9990 C   0  0  0  0  0  0  0  0  0  0  0  0
  142.1590   79.1590  223.4970 C   0  0  0  0  0  0  0  0  0  0  0  0
  142.5350   79.7490  222.2800 C   0  0  0  0  0  0  0  0  0  0  0  0
  141.5930   80.5110  221.5850 C   0  0  0  0  0  0  0  0  0  0  0  0
  141.7890   81.1970  220.2850 C   0  0  0  0  0  0  0  0  0  0  0  0
  142.1790   78.6210  218.5340 C   0  0  0  0  0  0  0  0  0  0  0  0
  142.3800   77.6520  219.7140 C   0  0  0  0  0  0  0  0  0  0  0  0
  138.5414   76.6781  223.0160 H   0  0  0  0  0  0  0  0  0  0  0  0
  138.9288   77.5346  221.4854 H   0  0  0  0  0  0  0  0  0  0  0  0
  138.7048   75.7523  221.4854 H   0  0  0  0  0  0  0  0  0  0  0  0
  141.1144   77.3208  222.0034 H   0  0  0  0  0  0  0  0  0  0  0  0
  140.7173   76.2644  223.4116 H   0  0  0  0  0  0  0  0  0  0  0  0
  144.7095   75.8178  220.4767 H   0  0  0  0  0  0  0  0  0  0  0  0
  146.5304   74.1116  220.4247 H   0  0  0  0  0  0  0  0  0  0  0  0
  145.9645   71.6800  220.4239 H   0  0  0  0  0  0  0  0  0  0  0  0
  143.5759   70.9501  220.4697 H   0  0  0  0  0  0  0  0  0  0  0  0
  141.7486   72.6524  220.5048 H   0  0  0  0  0  0  0  0  0  0  0  0
  142.4543   75.8386  218.5327 H   0  0  0  0  0  0  0  0  0  0  0  0
  139.7850   76.6934  219.7492 H   0  0  0  0  0  0  0  0  0  0  0  0
  140.0672   75.3190  218.6194 H   0  0  0  0  0  0  0  0  0  0  0  0
  139.2007   77.3598  217.4595 H   0  0  0  0  0  0  0  0  0  0  0  0
  140.8578   76.8528  216.8945 H   0  0  0  0  0  0  0  0  0  0  0  0
  140.8610   79.1030  217.0640 H   0  0  0  0  0  0  0  0  0  0  0  0
  140.4232   81.2014  217.8144 H   0  0  0  0  0  0  0  0  0  0  0  0
  138.2570   81.3890  217.3930 H   0  0  0  0  0  0  0  0  0  0  0  0
  137.7790   80.5520  218.7590 H   0  0  0  0  0  0  0  0  0  0  0  0
  140.3754   82.7294  219.5777 H   0  0  0  0  0  0  0  0  0  0  0  0
  139.3054   82.5169  221.6397 H   0  0  0  0  0  0  0  0  0  0  0  0
  138.5058   81.1014  220.9782 H   0  0  0  0  0  0  0  0  0  0  0  0
  138.9099   80.2685  223.6726 H   0  0  0  0  0  0  0  0  0  0  0  0
  140.5679   78.8779  224.9532 H   0  0  0  0  0  0  0  0  0  0  0  0
  142.8837   78.5520  224.0594 H   0  0  0  0  0  0  0  0  0  0  0  0
  143.5514   79.6139  221.8816 H   0  0  0  0  0  0  0  0  0  0  0  0
  142.4761   82.0494  220.3912 H   0  0  0  0  0  0  0  0  0  0  0  0
  142.2357   80.5431  219.5215 H   0  0  0  0  0  0  0  0  0  0  0  0
  142.4265   79.6375  218.8738 H   0  0  0  0  0  0  0  0  0  0  0  0
  142.8360   78.2773  217.7215 H   0  0  0  0  0  0  0  0  0  0  0  0
  141.8284   78.0304  220.5872 H   0  0  0  0  0  0  0  0  0  0  0  0
  143.4560   77.5882  219.9335 H   0  0  0  0  0  0  0  0  0  0  0  0
  1  2  1  0
  2  3  1  0
  3  4  2  0
  3  5  1  0
  5  6  1  0
  6  7  2  0
  7  8  1  0
  8  9  2  0
  9 10  1  0
 10 11  2  0
  5 12  1  0
 12 13  1  0
 13 14  1  0
 14 15  1  0
 15 16  1  0
 16 17  2  0
 16 18  1  0
 18 19  1  0
 18 20  1  0
 20 21  1  0
 21 22  1  0
 22 23  2  0
 23 24  1  0
 24 25  2  0
 25 26  1  0
 26 27  2  0
 27 28  1  0
 15 29  1  0
 29 30  1  0
 11  6  1  0
 30 12  1  0
 28 20  1  0
 27 22  1  0
  1 31  1  0
  1 32  1  0
  1 33  1  0
  2 34  1  0
  2 35  1  0
  7 36  1  0
  8 37  1  0
  9 38  1  0
 10 39  1  0
 11 40  1  0
 12 41  1  6
 13 42  1  0
 13 43  1  0
 14 44  1  0
 14 45  1  0
 15 46  1  6
 18 47  1  6
 19 48  1  0
 19 49  1  0
 20 50  1  0
 21 51  1  0
 21 52  1  0
 23 53  1  0
 24 54  1  0
 25 55  1  0
 26 56  1  0
 28 57  1  0
 28 58  1  0
 29 59  1  0
 29 60  1  0
 30 61  1  0
 30 62  1  0
M  CHG  1  15   1
M  END
>  <UniqueID>  (8) 
43

>  <SMILES>  (8) 
CCC(=O)N(c1ccccc1)C1CC[NH+](C(=O)[C@@H](N)C2Cc3ccccc3C2)CC1

>  <Energy>  (8) 
78.2390549836364

>  <Genealogy>  (8) 
CCC(=O)N(c1ccccc1)C1CC[NH+](C(=O)[C@@H](N)C2Cc3ccccc3C2)CC1 (protonated)
CCC(=O)N(c1ccccc1)C1CC[NH+](C(=O)[C@@H](N)C2Cc3ccccc3C2)CC1 (3D coordinates assigned)
CCC(=O)N(c1ccccc1)C1CC[NH+](C(=O)[C@@H](N)C2Cc3ccccc3C2)CC1 (nonaromatic ring conformer: 78.2390549836364 kcal/mol)

>  <smiles>  (8) 
CCC(=O)N(c1ccccc1)C1CCN(C(=O)[C@@H](N)C2Cc3ccccc3C2)CC1

>  <score_type>  (8) 
oracle

>  <origin>  (8) 
autodockgpu

>  <m_score__min__energy>  (8) 
-8.5800000000000001

>  <m_primary>  (8) 
energy

>  <meeko>  (8) 
{"free_energy": -6.36, "intermolecular_energy": -8.75, "internal_energy": -3.08, "cluster_size": 1, "cluster_id": 8, "rank_in_cluster": 1}

>  <energy>  (8) 
-7.15

>  <cluster_rmsd>  (8) 
0.85

>  <rmsd>  (8) 
271.24

>  <cluster>  (8) 
5

$$$$
MCZRVQBLWAUNOI-VDNHLTQINA-O
     RDKit          3D

 62 65  0  0  0  0  0  0  0  0999 V2000
  146.3150   73.0300  221.7040 C   0  0  0  0  0  0  0  0  0  0  0  0
  145.7780   74.1450  220.8130 C   0  0  0  0  0  0  0  0  0  0  0  0
  144.9900   73.5720  219.6680 C   0  0  0  0  0  0  0  0  0  0  0  0
  145.5820   72.7670  218.8960 O   0  0  0  0  0  0  0  0  0  0  0  0
  143.6240   73.9630  219.3780 N   0  0  0  0  0  0  0  0  0  0  0  0
  143.4150   75.2700  218.8110 C   0  0  0  0  0  0  0  0  0  0  0  0
  143.6380   75.4890  217.4420 C   0  0  0  0  0  0  0  0  0  0  0  0
  143.4170   76.7510  216.8880 C   0  0  0  0  0  0  0  0  0  0  0  0
  142.9570   77.7980  217.6910 C   0  0  0  0  0  0  0  0  0  0  0  0
  142.7170   77.5830  219.0530 C   0  0  0  0  0  0  0  0  0  0  0  0
  142.9430   76.3220  219.6130 C   0  0  0  0  0  0  0  0  0  0  0  0
  142.5020   72.9980  219.4310 C   0  0  1  0  0  0  0  0  0  0  0  0
  142.5670   72.0880  220.6680 C   0  0  0  0  0  0  0  0  0  0  0  0
  141.3920   71.0990  220.6600 C   0  0  0  0  0  0  0  0  0  0  0  0
  140.0740   71.7680  220.5770 N   0  0  1  0  0  0  0  0  0  0  0  0
  139.6840   72.3410  221.8570 C   0  0  0  0  0  0  0  0  0  0  0  0
  139.9340   73.5100  222.1120 O   0  0  0  0  0  0  0  0  0  0  0  0
  139.0290   71.4770  222.9280 C   0  0  1  0  0  0  0  0  0  0  0  0
  137.9890   70.6430  222.3210 N   0  0  0  0  0  0  0  0  0  0  0  0
  140.0480   70.5930  223.7030 C   0  0  0  0  0  0  0  0  0  0  0  0
  141.0400   71.4050  224.5760 C   0  0  0  0  0  0  0  0  0  0  0  0
  140.6240   71.0920  225.9630 C   0  0  0  0  0  0  0  0  0  0  0  0
  141.0830   71.7020  227.1330 C   0  0  0  0  0  0  0  0  0  0  0  0
  140.5740   71.2630  228.3660 C   0  0  0  0  0  0  0  0  0  0  0  0
  139.6240   70.2260  228.4110 C   0  0  0  0  0  0  0  0  0  0  0  0
  139.1830   69.6230  227.2220 C   0  0  0  0  0  0  0  0  0  0  0  0
  139.7000   70.0770  226.0070 C   0  0  0  0  0  0  0  0  0  0  0  0
  139.3500   69.5840  224.6530 C   0  0  0  0  0  0  0  0  0  0  0  0
  139.9810   72.7400  219.4580 C   0  0  0  0  0  0  0  0  0  0  0  0
  141.1570   73.7330  219.3970 C   0  0  0  0  0  0  0  0  0  0  0  0
  146.1812   73.3078  222.7599 H   0  0  0  0  0  0  0  0  0  0  0  0
  145.7664   72.0992  221.4974 H   0  0  0  0  0  0  0  0  0  0  0  0
  147.3848   72.8787  221.4974 H   0  0  0  0  0  0  0  0  0  0  0  0
  145.1262   74.8015  221.4081 H   0  0  0  0  0  0  0  0  0  0  0  0
  146.6264   74.7171  220.4094 H   0  0  0  0  0  0  0  0  0  0  0  0
  143.9878   74.6637  216.8044 H   0  0  0  0  0  0  0  0  0  0  0  0
  143.6052   76.9216  215.8177 H   0  0  0  0  0  0  0  0  0  0  0  0
  142.7834   78.7917  217.2524 H   0  0  0  0  0  0  0  0  0  0  0  0
  142.3503   78.4066  219.6832 H   0  0  0  0  0  0  0  0  0  0  0  0
  142.7509   76.1536  220.6829 H   0  0  0  0  0  0  0  0  0  0  0  0
  142.5940   72.3565  218.5422 H   0  0  0  0  0  0  0  0  0  0  0  0
  142.5161   72.7057  221.5768 H   0  0  0  0  0  0  0  0  0  0  0  0
  143.5114   71.5242  220.6501 H   0  0  0  0  0  0  0  0  0  0  0  0
  141.4265   70.5060  221.5858 H   0  0  0  0  0  0  0  0  0  0  0  0
  141.4983   70.4687  219.7648 H   0  0  0  0  0  0  0  0  0  0  0  0
  139.3860   71.0130  220.3480 H   0  0  0  0  0  0  0  0  0  0  0  0
  138.5817   72.1581  223.6669 H   0  0  0  0  0  0  0  0  0  0  0  0
  137.4020   70.2340  223.0850 H   0  0  0  0  0  0  0  0  0  0  0  0
  137.3540   71.2600  221.7650 H   0  0  0  0  0  0  0  0  0  0  0  0
  140.5968   70.0722  222.9045 H   0  0  0  0  0  0  0  0  0  0  0  0
  142.0761   71.0831  224.3951 H   0  0  0  0  0  0  0  0  0  0  0  0
  141.0174   72.4827  224.3569 H   0  0  0  0  0  0  0  0  0  0  0  0
  141.8282   72.5100  227.0893 H   0  0  0  0  0  0  0  0  0  0  0  0
  140.9191   71.7313  229.2996 H   0  0  0  0  0  0  0  0  0  0  0  0
  139.2262   69.8872  229.3790 H   0  0  0  0  0  0  0  0  0  0  0  0
  138.4442   68.8084  227.2473 H   0  0  0  0  0  0  0  0  0  0  0  0
  139.7345   68.5656  224.4947 H   0  0  0  0  0  0  0  0  0  0  0  0
  138.2640   69.5243  224.4883 H   0  0  0  0  0  0  0  0  0  0  0  0
  139.0491   73.3129  219.5730 H   0  0  0  0  0  0  0  0  0  0  0  0
  140.0051   72.1575  218.5252 H   0  0  0  0  0  0  0  0  0  0  0  0
  141.0976   74.4136  220.2591 H   0  0  0  0  0  0  0  0  0  0  0  0
  141.0903   74.2963  218.4545 H   0  0  0  0  0  0  0  0  0  0  0  0
  1  2  1  0
  2  3  1  0
  3  4  2  0
  3  5  1  0
  5  6  1  0
  6  7  2  0
  7  8  1  0
  8  9  2  0
  9 10  1  0
 10 11  2  0
  5 12  1  0
 12 13  1  0
 13 14  1  0
 14 15  1  0
 15 16  1  0
 16 17  2  0
 16 18  1  0
 18 19  1  0
 18 20  1  0
 20 21  1  0
 21 22  1  0
 22 23  2  0
 23 24  1  0
 24 25  2  0
 25 26  1  0
 26 27  2  0
 27 28  1  0
 15 29  1  0
 29 30  1  0
 11  6  1  0
 30 12  1  0
 28 20  1  0
 27 22  1  0
  1 31  1  0
  1 32  1  0
  1 33  1  0
  2 34  1  0
  2 35  1  0
  7 36  1  0
  8 37  1  0
  9 38  1  0
 10 39  1  0
 11 40  1  0
 12 41  1  6
 13 42  1  0
 13 43  1  0
 14 44  1  0
 14 45  1  0
 15 46  1  6
 18 47  1  1
 19 48  1  0
 19 49  1  0
 20 50  1  0
 21 51  1  0
 21 52  1  0
 23 53  1  0
 24 54  1  0
 25 55  1  0
 26 56  1  0
 28 57  1  0
 28 58  1  0
 29 59  1  0
 29 60  1  0
 30 61  1  0
 30 62  1  0
M  CHG  1  15   1
M  END
>  <UniqueID>  (9) 
43

>  <SMILES>  (9) 
CCC(=O)N(c1ccccc1)C1CC[NH+](C(=O)[C@@H](N)C2Cc3ccccc3C2)CC1

>  <Energy>  (9) 
78.2390549836364

>  <Genealogy>  (9) 
CCC(=O)N(c1ccccc1)C1CC[NH+](C(=O)[C@@H](N)C2Cc3ccccc3C2)CC1 (protonated)
CCC(=O)N(c1ccccc1)C1CC[NH+](C(=O)[C@@H](N)C2Cc3ccccc3C2)CC1 (3D coordinates assigned)
CCC(=O)N(c1ccccc1)C1CC[NH+](C(=O)[C@@H](N)C2Cc3ccccc3C2)CC1 (nonaromatic ring conformer: 78.2390549836364 kcal/mol)

>  <smiles>  (9) 
CCC(=O)N(c1ccccc1)C1CCN(C(=O)[C@@H](N)C2Cc3ccccc3C2)CC1

>  <score_type>  (9) 
oracle

>  <origin>  (9) 
autodockgpu

>  <m_score__min__energy>  (9) 
-8.5800000000000001

>  <m_primary>  (9) 
energy

>  <meeko>  (9) 
{"free_energy": -7.73, "intermolecular_energy": -10.12, "internal_energy": -1.97, "cluster_size": 1, "cluster_id": 4, "rank_in_cluster": 1}

>  <energy>  (9) 
-7.14

>  <cluster_rmsd>  (9) 
0.78

>  <rmsd>  (9) 
271.01

>  <cluster>  (9) 
5

$$$$
MCZRVQBLWAUNOI-VDNHLTQINA-O
     RDKit          3D

 62 65  0  0  0  0  0  0  0  0999 V2000
  136.9270   67.8140  222.1020 C   0  0  0  0  0  0  0  0  0  0  0  0
  138.4030   67.4870  222.2930 C   0  0  0  0  0  0  0  0  0  0  0  0
  138.9250   68.1160  223.5560 C   0  0  0  0  0  0  0  0  0  0  0  0
  139.1730   67.3510  224.5290 O   0  0  0  0  0  0  0  0  0  0  0  0
  139.0770   69.5480  223.7180 N   0  0  0  0  0  0  0  0  0  0  0  0
  139.6970   70.0150  224.9320 C   0  0  0  0  0  0  0  0  0  0  0  0
  140.7850   70.8990  224.8730 C   0  0  0  0  0  0  0  0  0  0  0  0
  141.3740   71.3680  226.0500 C   0  0  0  0  0  0  0  0  0  0  0  0
  140.8690   70.9710  227.2910 C   0  0  0  0  0  0  0  0  0  0  0  0
  139.7740   70.1030  227.3570 C   0  0  0  0  0  0  0  0  0  0  0  0
  139.1850   69.6270  226.1810 C   0  0  0  0  0  0  0  0  0  0  0  0
  138.8330   70.4950  222.6070 C   0  0  1  0  0  0  0  0  0  0  0  0
  138.4580   71.9000  223.1030 C   0  0  0  0  0  0  0  0  0  0  0  0
  138.1990   72.8320  221.9090 C   0  0  0  0  0  0  0  0  0  0  0  0
  139.3440   72.9020  220.9720 N   0  0  1  0  0  0  0  0  0  0  0  0
  140.4120   73.7410  221.4940 C   0  0  0  0  0  0  0  0  0  0  0  0
  141.0540   73.3850  222.4720 O   0  0  0  0  0  0  0  0  0  0  0  0
  140.6980   75.1060  220.8820 C   0  0  1  0  0  0  0  0  0  0  0  0
  141.1830   76.0190  221.9200 N   0  0  0  0  0  0  0  0  0  0  0  0
  141.7080   75.0440  219.7010 C   0  0  0  0  0  0  0  0  0  0  0  0
  143.0900   75.6670  220.0290 C   0  0  0  0  0  0  0  0  0  0  0  0
  143.9980   74.4980  220.0820 C   0  0  0  0  0  0  0  0  0  0  0  0
  145.3270   74.4890  220.5120 C   0  0  0  0  0  0  0  0  0  0  0  0
  146.0370   73.2770  220.4850 C   0  0  0  0  0  0  0  0  0  0  0  0
  145.4120   72.1020  220.0270 C   0  0  0  0  0  0  0  0  0  0  0  0
  144.0780   72.1370  219.5930 C   0  0  0  0  0  0  0  0  0  0  0  0
  143.3900   73.3520  219.6320 C   0  0  0  0  0  0  0  0  0  0  0  0
  141.9810   73.5890  219.2360 C   0  0  0  0  0  0  0  0  0  0  0  0
  139.8220   71.5650  220.5330 C   0  0  0  0  0  0  0  0  0  0  0  0
  140.0600   70.5780  221.6910 C   0  0  0  0  0  0  0  0  0  0  0  0
  136.4449   67.9208  223.0850 H   0  0  0  0  0  0  0  0  0  0  0  0
  136.8296   68.7555  221.5416 H   0  0  0  0  0  0  0  0  0  0  0  0
  136.4410   67.0017  221.5416 H   0  0  0  0  0  0  0  0  0  0  0  0
  138.5266   66.3957  222.3547 H   0  0  0  0  0  0  0  0  0  0  0  0
  138.9684   67.8860  221.4379 H   0  0  0  0  0  0  0  0  0  0  0  0
  141.1754   71.2238  223.8972 H   0  0  0  0  0  0  0  0  0  0  0  0
  142.2356   72.0500  225.9997 H   0  0  0  0  0  0  0  0  0  0  0  0
  141.3330   71.3414  228.2170 H   0  0  0  0  0  0  0  0  0  0  0  0
  139.3757   69.7944  228.3348 H   0  0  0  0  0  0  0  0  0  0  0  0
  138.3207   68.9487  226.2344 H   0  0  0  0  0  0  0  0  0  0  0  0
  137.9751   70.1038  222.0404 H   0  0  0  0  0  0  0  0  0  0  0  0
  139.2833   72.3044  223.7074 H   0  0  0  0  0  0  0  0  0  0  0  0
  137.5443   71.8340  223.7119 H   0  0  0  0  0  0  0  0  0  0  0  0
  137.9961   73.8434  222.2910 H   0  0  0  0  0  0  0  0  0  0  0  0
  137.3422   72.4244  221.3525 H   0  0  0  0  0  0  0  0  0  0  0  0
  138.9750   73.3630  220.1080 H   0  0  0  0  0  0  0  0  0  0  0  0
  139.7519   75.4795  220.4631 H   0  0  0  0  0  0  0  0  0  0  0  0
  141.7730   75.4750  222.5920 H   0  0  0  0  0  0  0  0  0  0  0  0
  141.8210   76.7170  221.4730 H   0  0  0  0  0  0  0  0  0  0  0  0
  141.2158   75.6288  218.9099 H   0  0  0  0  0  0  0  0  0  0  0  0
  143.4005   76.3695  219.2416 H   0  0  0  0  0  0  0  0  0  0  0  0
  143.0855   76.2462  220.9641 H   0  0  0  0  0  0  0  0  0  0  0  0
  145.8083   75.4130  220.8649 H   0  0  0  0  0  0  0  0  0  0  0  0
  147.0835   73.2463  220.8225 H   0  0  0  0  0  0  0  0  0  0  0  0
  145.9703   71.1544  220.0092 H   0  0  0  0  0  0  0  0  0  0  0  0
  143.5833   71.2245  219.2288 H   0  0  0  0  0  0  0  0  0  0  0  0
  141.8587   73.4958  218.1468 H   0  0  0  0  0  0  0  0  0  0  0  0
  141.2853   72.8619  219.6802 H   0  0  0  0  0  0  0  0  0  0  0  0
  140.7693   71.6968  219.9896 H   0  0  0  0  0  0  0  0  0  0  0  0
  139.0308   71.1335  219.9023 H   0  0  0  0  0  0  0  0  0  0  0  0
  140.9254   70.9167  222.2795 H   0  0  0  0  0  0  0  0  0  0  0  0
  140.2473   69.5805  221.2668 H   0  0  0  0  0  0  0  0  0  0  0  0
  1  2  1  0
  2  3  1  0
  3  4  2  0
  3  5  1  0
  5  6  1  0
  6  7  2  0
  7  8  1  0
  8  9  2  0
  9 10  1  0
 10 11  2  0
  5 12  1  0
 12 13  1  0
 13 14  1  0
 14 15  1  0
 15 16  1  0
 16 17  2  0
 16 18  1  0
 18 19  1  0
 18 20  1  0
 20 21  1  0
 21 22  1  0
 22 23  2  0
 23 24  1  0
 24 25  2  0
 25 26  1  0
 26 27  2  0
 27 28  1  0
 15 29  1  0
 29 30  1  0
 11  6  1  0
 30 12  1  0
 28 20  1  0
 27 22  1  0
  1 31  1  0
  1 32  1  0
  1 33  1  0
  2 34  1  0
  2 35  1  0
  7 36  1  0
  8 37  1  0
  9 38  1  0
 10 39  1  0
 11 40  1  0
 12 41  1  6
 13 42  1  0
 13 43  1  0
 14 44  1  0
 14 45  1  0
 15 46  1  6
 18 47  1  6
 19 48  1  0
 19 49  1  0
 20 50  1  0
 21 51  1  0
 21 52  1  0
 23 53  1  0
 24 54  1  0
 25 55  1  0
 26 56  1  0
 28 57  1  0
 28 58  1  0
 29 59  1  0
 29 60  1  0
 30 61  1  0
 30 62  1  0
M  CHG  1  15   1
M  END
>  <UniqueID>  (10) 
43

>  <SMILES>  (10) 
CCC(=O)N(c1ccccc1)C1CC[NH+](C(=O)[C@@H](N)C2Cc3ccccc3C2)CC1

>  <Energy>  (10) 
78.2390549836364

>  <Genealogy>  (10) 
CCC(=O)N(c1ccccc1)C1CC[NH+](C(=O)[C@@H](N)C2Cc3ccccc3C2)CC1 (protonated)
CCC(=O)N(c1ccccc1)C1CC[NH+](C(=O)[C@@H](N)C2Cc3ccccc3C2)CC1 (3D coordinates assigned)
CCC(=O)N(c1ccccc1)C1CC[NH+](C(=O)[C@@H](N)C2Cc3ccccc3C2)CC1 (nonaromatic ring conformer: 78.2390549836364 kcal/mol)

>  <smiles>  (10) 
CCC(=O)N(c1ccccc1)C1CCN(C(=O)[C@@H](N)C2Cc3ccccc3C2)CC1

>  <score_type>  (10) 
oracle

>  <origin>  (10) 
autodockgpu

>  <m_score__min__energy>  (10) 
-8.5800000000000001

>  <m_primary>  (10) 
energy

>  <meeko>  (10) 
{"free_energy": -7.84, "intermolecular_energy": -10.23, "internal_energy": -2.35, "cluster_size": 2, "cluster_id": 3, "rank_in_cluster": 1}

>  <energy>  (10) 
-6.97

>  <cluster_rmsd>  (10) 
0.0

>  <rmsd>  (10) 
271.26

>  <cluster>  (10) 
6

$$$$
MCZRVQBLWAUNOI-VDNHLTQINA-O
     RDKit          3D

 62 65  0  0  0  0  0  0  0  0999 V2000
  139.6970   76.3880  222.1620 C   0  0  0  0  0  0  0  0  0  0  0  0
  141.0320   75.6970  221.9060 C   0  0  0  0  0  0  0  0  0  0  0  0
  141.0290   75.0250  220.5600 C   0  0  0  0  0  0  0  0  0  0  0  0
  139.9890   74.3930  220.2250 O   0  0  0  0  0  0  0  0  0  0  0  0
  142.1840   75.0130  219.6830 N   0  0  0  0  0  0  0  0  0  0  0  0
  143.3280   74.2470  220.1050 C   0  0  0  0  0  0  0  0  0  0  0  0
  143.2730   72.8440  220.1090 C   0  0  0  0  0  0  0  0  0  0  0  0
  144.3890   72.0990  220.4980 C   0  0  0  0  0  0  0  0  0  0  0  0
  145.5690   72.7480  220.8710 C   0  0  0  0  0  0  0  0  0  0  0  0
  145.6350   74.1460  220.8540 C   0  0  0  0  0  0  0  0  0  0  0  0
  144.5190   74.8950  220.4700 C   0  0  0  0  0  0  0  0  0  0  0  0
  142.1320   75.5590  218.3080 C   0  0  1  0  0  0  0  0  0  0  0  0
  140.8360   76.3360  218.0320 C   0  0  0  0  0  0  0  0  0  0  0  0
  140.8300   76.8620  216.5880 C   0  0  0  0  0  0  0  0  0  0  0  0
  142.0120   77.6960  216.2730 N   0  0  1  0  0  0  0  0  0  0  0  0
  141.8910   79.0300  216.8410 C   0  0  0  0  0  0  0  0  0  0  0  0
  141.3950   79.9370  216.1870 O   0  0  0  0  0  0  0  0  0  0  0  0
  142.4470   79.3400  218.2260 C   0  0  1  0  0  0  0  0  0  0  0  0
  143.0960   80.6530  218.2130 N   0  0  0  0  0  0  0  0  0  0  0  0
  141.3660   79.2800  219.3420 C   0  0  0  0  0  0  0  0  0  0  0  0
  141.7820   78.4220  220.5660 C   0  0  0  0  0  0  0  0  0  0  0  0
  141.9800   79.4200  221.6430 C   0  0  0  0  0  0  0  0  0  0  0  0
  142.5270   79.1900  222.9070 C   0  0  0  0  0  0  0  0  0  0  0  0
  142.6310   80.2660  223.8040 C   0  0  0  0  0  0  0  0  0  0  0  0
  142.1840   81.5460  223.4260 C   0  0  0  0  0  0  0  0  0  0  0  0
  141.6310   81.7520  222.1520 C   0  0  0  0  0  0  0  0  0  0  0  0
  141.5410   80.6680  221.2760 C   0  0  0  0  0  0  0  0  0  0  0  0
  141.0090   80.6860  219.8920 C   0  0  0  0  0  0  0  0  0  0  0  0
  143.2990   77.0380  216.6130 C   0  0  0  0  0  0  0  0  0  0  0  0
  143.3440   76.4590  218.0390 C   0  0  0  0  0  0  0  0  0  0  0  0
  139.5306   76.4741  223.2459 H   0  0  0  0  0  0  0  0  0  0  0  0
  139.7115   77.3918  221.7124 H   0  0  0  0  0  0  0  0  0  0  0  0
  138.8858   75.7965  221.7124 H   0  0  0  0  0  0  0  0  0  0  0  0
  141.8380   76.4450  221.9352 H   0  0  0  0  0  0  0  0  0  0  0  0
  141.1926   74.9352  222.6831 H   0  0  0  0  0  0  0  0  0  0  0  0
  142.3490   72.3302  219.8051 H   0  0  0  0  0  0  0  0  0  0  0  0
  144.3388   71.0002  220.5107 H   0  0  0  0  0  0  0  0  0  0  0  0
  146.4464   72.1599  221.1781 H   0  0  0  0  0  0  0  0  0  0  0  0
  146.5659   74.6557  221.1431 H   0  0  0  0  0  0  0  0  0  0  0  0
  144.5739   75.9935  220.4537 H   0  0  0  0  0  0  0  0  0  0  0  0
  142.1537   74.6971  217.6249 H   0  0  0  0  0  0  0  0  0  0  0  0
  140.7659   77.1848  218.7282 H   0  0  0  0  0  0  0  0  0  0  0  0
  139.9772   75.6632  218.1725 H   0  0  0  0  0  0  0  0  0  0  0  0
  139.9237   77.4673  216.4388 H   0  0  0  0  0  0  0  0  0  0  0  0
  140.8545   75.9892  215.9190 H   0  0  0  0  0  0  0  0  0  0  0  0
  142.0170   77.7970  215.2310 H   0  0  0  0  0  0  0  0  0  0  0  0
  143.1836   78.5586  218.4645 H   0  0  0  0  0  0  0  0  0  0  0  0
  144.0700   80.5390  217.8490 H   0  0  0  0  0  0  0  0  0  0  0  0
  142.5970   81.2610  217.5240 H   0  0  0  0  0  0  0  0  0  0  0  0
  140.5025   78.8185  218.8407 H   0  0  0  0  0  0  0  0  0  0  0  0
  140.9883   77.7088  220.8331 H   0  0  0  0  0  0  0  0  0  0  0  0
  142.6799   77.8155  220.3763 H   0  0  0  0  0  0  0  0  0  0  0  0
  142.8700   78.1853  223.1949 H   0  0  0  0  0  0  0  0  0  0  0  0
  143.0625   80.1080  224.8034 H   0  0  0  0  0  0  0  0  0  0  0  0
  142.2681   82.3868  224.1302 H   0  0  0  0  0  0  0  0  0  0  0  0
  141.2754   82.7481  221.8496 H   0  0  0  0  0  0  0  0  0  0  0  0
  139.9201   80.8421  219.8924 H   0  0  0  0  0  0  0  0  0  0  0  0
  141.4297   81.5007  219.2843 H   0  0  0  0  0  0  0  0  0  0  0  0
  144.1046   77.7806  216.5148 H   0  0  0  0  0  0  0  0  0  0  0  0
  143.4189   76.1921  215.9201 H   0  0  0  0  0  0  0  0  0  0  0  0
  143.3443   77.2871  218.7631 H   0  0  0  0  0  0  0  0  0  0  0  0
  144.2574   75.8549  218.1421 H   0  0  0  0  0  0  0  0  0  0  0  0
  1  2  1  0
  2  3  1  0
  3  4  2  0
  3  5  1  0
  5  6  1  0
  6  7  2  0
  7  8  1  0
  8  9  2  0
  9 10  1  0
 10 11  2  0
  5 12  1  0
 12 13  1  0
 13 14  1  0
 14 15  1  0
 15 16  1  0
 16 17  2  0
 16 18  1  0
 18 19  1  0
 18 20  1  0
 20 21  1  0
 21 22  1  0
 22 23  2  0
 23 24  1  0
 24 25  2  0
 25 26  1  0
 26 27  2  0
 27 28  1  0
 15 29  1  0
 29 30  1  0
 11  6  1  0
 30 12  1  0
 28 20  1  0
 27 22  1  0
  1 31  1  0
  1 32  1  0
  1 33  1  0
  2 34  1  0
  2 35  1  0
  7 36  1  0
  8 37  1  0
  9 38  1  0
 10 39  1  0
 11 40  1  0
 12 41  1  6
 13 42  1  0
 13 43  1  0
 14 44  1  0
 14 45  1  0
 15 46  1  6
 18 47  1  1
 19 48  1  0
 19 49  1  0
 20 50  1  0
 21 51  1  0
 21 52  1  0
 23 53  1  0
 24 54  1  0
 25 55  1  0
 26 56  1  0
 28 57  1  0
 28 58  1  0
 29 59  1  0
 29 60  1  0
 30 61  1  0
 30 62  1  0
M  CHG  1  15   1
M  END
>  <UniqueID>  (11) 
43

>  <SMILES>  (11) 
CCC(=O)N(c1ccccc1)C1CC[NH+](C(=O)[C@@H](N)C2Cc3ccccc3C2)CC1

>  <Energy>  (11) 
78.2390549836364

>  <Genealogy>  (11) 
CCC(=O)N(c1ccccc1)C1CC[NH+](C(=O)[C@@H](N)C2Cc3ccccc3C2)CC1 (protonated)
CCC(=O)N(c1ccccc1)C1CC[NH+](C(=O)[C@@H](N)C2Cc3ccccc3C2)CC1 (3D coordinates assigned)
CCC(=O)N(c1ccccc1)C1CC[NH+](C(=O)[C@@H](N)C2Cc3ccccc3C2)CC1 (nonaromatic ring conformer: 78.2390549836364 kcal/mol)

>  <smiles>  (11) 
CCC(=O)N(c1ccccc1)C1CCN(C(=O)[C@@H](N)C2Cc3ccccc3C2)CC1

>  <score_type>  (11) 
oracle

>  <origin>  (11) 
autodockgpu

>  <m_score__min__energy>  (11) 
-8.5800000000000001

>  <m_primary>  (11) 
energy

>  <meeko>  (11) 
{"free_energy": -7.15, "intermolecular_energy": -9.53, "internal_energy": -2.75, "cluster_size": 3, "cluster_id": 5, "rank_in_cluster": 2}

>  <energy>  (11) 
-6.96

>  <cluster_rmsd>  (11) 
0.08

>  <rmsd>  (11) 
271.29

>  <cluster>  (11) 
6

$$$$
MCZRVQBLWAUNOI-VDNHLTQINA-O
     RDKit          3D

 62 65  0  0  0  0  0  0  0  0999 V2000
  137.1040   75.8060  222.5110 C   0  0  0  0  0  0  0  0  0  0  0  0
  138.1430   76.9210  222.4740 C   0  0  0  0  0  0  0  0  0  0  0  0
  139.4890   76.3760  222.0820 C   0  0  0  0  0  0  0  0  0  0  0  0
  139.7660   75.1960  222.4340 O   0  0  0  0  0  0  0  0  0  0  0  0
  140.4900   77.1690  221.3960 N   0  0  0  0  0  0  0  0  0  0  0  0
  141.0330   78.3030  222.0990 C   0  0  0  0  0  0  0  0  0  0  0  0
  141.0920   79.5580  221.4720 C   0  0  0  0  0  0  0  0  0  0  0  0
  141.6000   80.6630  222.1600 C   0  0  0  0  0  0  0  0  0  0  0  0
  142.0360   80.5250  223.4800 C   0  0  0  0  0  0  0  0  0  0  0  0
  141.9640   79.2810  224.1160 C   0  0  0  0  0  0  0  0  0  0  0  0
  141.4620   78.1710  223.4290 C   0  0  0  0  0  0  0  0  0  0  0  0
  141.1130   76.7220  220.1290 C   0  0  1  0  0  0  0  0  0  0  0  0
  142.5740   77.1790  219.9990 C   0  0  0  0  0  0  0  0  0  0  0  0
  143.1610   76.7030  218.6610 C   0  0  0  0  0  0  0  0  0  0  0  0
  143.0580   75.2380  218.4740 N   0  0  1  0  0  0  0  0  0  0  0  0
  144.0600   74.5280  219.2540 C   0  0  0  0  0  0  0  0  0  0  0  0
  144.4280   74.9690  220.3340 O   0  0  0  0  0  0  0  0  0  0  0  0
  144.7210   73.2670  218.7090 C   0  0  1  0  0  0  0  0  0  0  0  0
  146.1690   73.3460  218.9080 N   0  0  0  0  0  0  0  0  0  0  0  0
  144.1570   71.9630  219.3420 C   0  0  0  0  0  0  0  0  0  0  0  0
  143.7770   72.1100  220.8380 C   0  0  0  0  0  0  0  0  0  0  0  0
  142.2980   72.0350  220.8340 C   0  0  0  0  0  0  0  0  0  0  0  0
  141.4440   72.2870  221.9100 C   0  0  0  0  0  0  0  0  0  0  0  0
  140.0580   72.1590  221.7160 C   0  0  0  0  0  0  0  0  0  0  0  0
  139.5530   71.7790  220.4580 C   0  0  0  0  0  0  0  0  0  0  0  0
  140.4310   71.5250  219.3930 C   0  0  0  0  0  0  0  0  0  0  0  0
  141.8040   71.6620  219.6080 C   0  0  0  0  0  0  0  0  0  0  0  0
  142.8840   71.4570  218.6130 C   0  0  0  0  0  0  0  0  0  0  0  0
  141.6830   74.7170  218.6880 C   0  0  0  0  0  0  0  0  0  0  0  0
  141.0330   75.1970  219.9990 C   0  0  0  0  0  0  0  0  0  0  0  0
  136.8713   75.5562  223.5567 H   0  0  0  0  0  0  0  0  0  0  0  0
  136.1884   76.1409  222.0015 H   0  0  0  0  0  0  0  0  0  0  0  0
  137.5026   74.9163  222.0015 H   0  0  0  0  0  0  0  0  0  0  0  0
  137.8328   77.6803  221.7411 H   0  0  0  0  0  0  0  0  0  0  0  0
  138.2192   77.3688  223.4758 H   0  0  0  0  0  0  0  0  0  0  0  0
  140.7375   79.6715  220.4369 H   0  0  0  0  0  0  0  0  0  0  0  0
  141.6567   81.6421  221.6619 H   0  0  0  0  0  0  0  0  0  0  0  0
  142.4364   81.3956  224.0200 H   0  0  0  0  0  0  0  0  0  0  0  0
  142.3025   79.1758  225.1573 H   0  0  0  0  0  0  0  0  0  0  0  0
  141.4033   77.1941  223.9312 H   0  0  0  0  0  0  0  0  0  0  0  0
  140.5445   77.1925  219.3132 H   0  0  0  0  0  0  0  0  0  0  0  0
  143.1626   76.7545  220.8257 H   0  0  0  0  0  0  0  0  0  0  0  0
  142.6115   78.2777  220.0372 H   0  0  0  0  0  0  0  0  0  0  0  0
  144.2228   76.9877  218.6227 H   0  0  0  0  0  0  0  0  0  0  0  0
  142.5796   77.1794  217.8579 H   0  0  0  0  0  0  0  0  0  0  0  0
  143.2670   75.0660  217.4630 H   0  0  0  0  0  0  0  0  0  0  0  0
  144.4906   73.2160  217.6346 H   0  0  0  0  0  0  0  0  0  0  0  0
  146.6000   73.7700  218.0540 H   0  0  0  0  0  0  0  0  0  0  0  0
  146.3600   74.0120  219.6900 H   0  0  0  0  0  0  0  0  0  0  0  0
  144.9857   71.2471  219.2381 H   0  0  0  0  0  0  0  0  0  0  0  0
  144.2095   71.2933  221.4346 H   0  0  0  0  0  0  0  0  0  0  0  0
  144.1552   73.0416  221.2841 H   0  0  0  0  0  0  0  0  0  0  0  0
  141.8483   72.5799  222.8902 H   0  0  0  0  0  0  0  0  0  0  0  0
  139.3665   72.3560  222.5485 H   0  0  0  0  0  0  0  0  0  0  0  0
  138.4675   71.6809  220.3094 H   0  0  0  0  0  0  0  0  0  0  0  0
  140.0451   71.2238  218.4079 H   0  0  0  0  0  0  0  0  0  0  0  0
  142.9790   70.3929  218.3509 H   0  0  0  0  0  0  0  0  0  0  0  0
  142.6969   71.9847  217.6662 H   0  0  0  0  0  0  0  0  0  0  0  0
  141.7274   73.6180  218.7051 H   0  0  0  0  0  0  0  0  0  0  0  0
  141.0634   75.1008  217.8642 H   0  0  0  0  0  0  0  0  0  0  0  0
  141.5568   74.7361  220.8494 H   0  0  0  0  0  0  0  0  0  0  0  0
  139.9732   74.9023  219.9916 H   0  0  0  0  0  0  0  0  0  0  0  0
  1  2  1  0
  2  3  1  0
  3  4  2  0
  3  5  1  0
  5  6  1  0
  6  7  2  0
  7  8  1  0
  8  9  2  0
  9 10  1  0
 10 11  2  0
  5 12  1  0
 12 13  1  0
 13 14  1  0
 14 15  1  0
 15 16  1  0
 16 17  2  0
 16 18  1  0
 18 19  1  0
 18 20  1  0
 20 21  1  0
 21 22  1  0
 22 23  2  0
 23 24  1  0
 24 25  2  0
 25 26  1  0
 26 27  2  0
 27 28  1  0
 15 29  1  0
 29 30  1  0
 11  6  1  0
 30 12  1  0
 28 20  1  0
 27 22  1  0
  1 31  1  0
  1 32  1  0
  1 33  1  0
  2 34  1  0
  2 35  1  0
  7 36  1  0
  8 37  1  0
  9 38  1  0
 10 39  1  0
 11 40  1  0
 12 41  1  6
 13 42  1  0
 13 43  1  0
 14 44  1  0
 14 45  1  0
 15 46  1  6
 18 47  1  6
 19 48  1  0
 19 49  1  0
 20 50  1  0
 21 51  1  0
 21 52  1  0
 23 53  1  0
 24 54  1  0
 25 55  1  0
 26 56  1  0
 28 57  1  0
 28 58  1  0
 29 59  1  0
 29 60  1  0
 30 61  1  0
 30 62  1  0
M  CHG  1  15   1
M  END
>  <UniqueID>  (12) 
43

>  <SMILES>  (12) 
CCC(=O)N(c1ccccc1)C1CC[NH+](C(=O)[C@@H](N)C2Cc3ccccc3C2)CC1

>  <Energy>  (12) 
78.2390549836364

>  <Genealogy>  (12) 
CCC(=O)N(c1ccccc1)C1CC[NH+](C(=O)[C@@H](N)C2Cc3ccccc3C2)CC1 (protonated)
CCC(=O)N(c1ccccc1)C1CC[NH+](C(=O)[C@@H](N)C2Cc3ccccc3C2)CC1 (3D coordinates assigned)
CCC(=O)N(c1ccccc1)C1CC[NH+](C(=O)[C@@H](N)C2Cc3ccccc3C2)CC1 (nonaromatic ring conformer: 78.2390549836364 kcal/mol)

>  <smiles>  (12) 
CCC(=O)N(c1ccccc1)C1CCN(C(=O)[C@@H](N)C2Cc3ccccc3C2)CC1

>  <score_type>  (12) 
oracle

>  <origin>  (12) 
autodockgpu

>  <m_score__min__energy>  (12) 
-8.5800000000000001

>  <m_primary>  (12) 
energy

>  <meeko>  (12) 
{"free_energy": -6.97, "intermolecular_energy": -9.36, "internal_energy": -2.94, "cluster_size": 4, "cluster_id": 6, "rank_in_cluster": 1}

>  <energy>  (12) 
-6.84

>  <cluster_rmsd>  (12) 
0.29

>  <rmsd>  (12) 
271.33

>  <cluster>  (12) 
6

$$$$
MCZRVQBLWAUNOI-VDNHLTQINA-O
     RDKit          3D

 62 65  0  0  0  0  0  0  0  0999 V2000
  139.1470   66.1450  222.3850 C   0  0  0  0  0  0  0  0  0  0  0  0
  138.3120   67.3860  222.6810 C   0  0  0  0  0  0  0  0  0  0  0  0
  138.8720   68.1310  223.8610 C   0  0  0  0  0  0  0  0  0  0  0  0
  139.2540   67.4500  224.8540 O   0  0  0  0  0  0  0  0  0  0  0  0
  138.9180   69.5780  223.9300 N   0  0  0  0  0  0  0  0  0  0  0  0
  139.5780   70.1670  225.0670 C   0  0  0  0  0  0  0  0  0  0  0  0
  139.2760   69.7220  226.3640 C   0  0  0  0  0  0  0  0  0  0  0  0
  139.9300   70.2770  227.4670 C   0  0  0  0  0  0  0  0  0  0  0  0
  140.8990   71.2660  227.2810 C   0  0  0  0  0  0  0  0  0  0  0  0
  141.2170   71.7020  225.9890 C   0  0  0  0  0  0  0  0  0  0  0  0
  140.5600   71.1520  224.8840 C   0  0  0  0  0  0  0  0  0  0  0  0
  138.5230   70.4320  222.7870 C   0  0  1  0  0  0  0  0  0  0  0  0
  137.7540   71.6870  223.2280 C   0  0  0  0  0  0  0  0  0  0  0  0
  137.3560   72.5220  222.0010 C   0  0  0  0  0  0  0  0  0  0  0  0
  138.5130   72.8940  221.1560 N   0  0  1  0  0  0  0  0  0  0  0  0
  139.2780   73.9820  221.7450 C   0  0  0  0  0  0  0  0  0  0  0  0
  140.3190   73.7510  222.3430 O   0  0  0  0  0  0  0  0  0  0  0  0
  138.7600   75.4150  221.6940 C   0  0  1  0  0  0  0  0  0  0  0  0
  138.3650   75.8440  223.0370 N   0  0  0  0  0  0  0  0  0  0  0  0
  139.7880   76.4120  221.0870 C   0  0  0  0  0  0  0  0  0  0  0  0
  139.2390   77.8540  220.9290 C   0  0  0  0  0  0  0  0  0  0  0  0
  139.9890   78.6280  221.9450 C   0  0  0  0  0  0  0  0  0  0  0  0
  139.7510   79.9480  222.3360 C   0  0  0  0  0  0  0  0  0  0  0  0
  140.5770   80.5200  223.3170 C   0  0  0  0  0  0  0  0  0  0  0  0
  141.6240   79.7700  223.8850 C   0  0  0  0  0  0  0  0  0  0  0  0
  141.8490   78.4480  223.4710 C   0  0  0  0  0  0  0  0  0  0  0  0
  141.0130   77.8980  222.4970 C   0  0  0  0  0  0  0  0  0  0  0  0
  141.0770   76.5240  221.9440 C   0  0  0  0  0  0  0  0  0  0  0  0
  139.3590   71.7320  220.7780 C   0  0  0  0  0  0  0  0  0  0  0  0
  139.7540   70.8380  221.9680 C   0  0  0  0  0  0  0  0  0  0  0  0
  139.4602   65.6795  223.3312 H   0  0  0  0  0  0  0  0  0  0  0  0
  138.5464   65.4287  221.8051 H   0  0  0  0  0  0  0  0  0  0  0  0
  140.0368   66.4315  221.8051 H   0  0  0  0  0  0  0  0  0  0  0  0
  138.3194   68.0453  221.8005 H   0  0  0  0  0  0  0  0  0  0  0  0
  137.2832   67.0742  222.9140 H   0  0  0  0  0  0  0  0  0  0  0  0
  138.5226   68.9344  226.5122 H   0  0  0  0  0  0  0  0  0  0  0  0
  139.6817   69.9349  228.4825 H   0  0  0  0  0  0  0  0  0  0  0  0
  141.4126   71.7025  228.1503 H   0  0  0  0  0  0  0  0  0  0  0  0
  141.9837   72.4772  225.8433 H   0  0  0  0  0  0  0  0  0  0  0  0
  140.8136   71.4924  223.8692 H   0  0  0  0  0  0  0  0  0  0  0  0
  137.8456   69.8313  222.1623 H   0  0  0  0  0  0  0  0  0  0  0  0
  138.3932   72.2920  223.8878 H   0  0  0  0  0  0  0  0  0  0  0  0
  136.8442   71.3810  223.7652 H   0  0  0  0  0  0  0  0  0  0  0  0
  136.8645   73.4429  222.3479 H   0  0  0  0  0  0  0  0  0  0  0  0
  136.6839   71.9051  221.3865 H   0  0  0  0  0  0  0  0  0  0  0  0
  138.1060   73.2460  220.2570 H   0  0  0  0  0  0  0  0  0  0  0  0
  137.8871   75.4221  221.0247 H   0  0  0  0  0  0  0  0  0  0  0  0
  137.5460   75.2670  223.3430 H   0  0  0  0  0  0  0  0  0  0  0  0
  139.1420   75.6170  223.6980 H   0  0  0  0  0  0  0  0  0  0  0  0
  140.0053   75.9866  220.0961 H   0  0  0  0  0  0  0  0  0  0  0  0
  139.4355   78.2400  219.9179 H   0  0  0  0  0  0  0  0  0  0  0  0
  138.1493   77.9129  221.0668 H   0  0  0  0  0  0  0  0  0  0  0  0
  138.9326   80.5278  221.8842 H   0  0  0  0  0  0  0  0  0  0  0  0
  140.4054   81.5567  223.6424 H   0  0  0  0  0  0  0  0  0  0  0  0
  142.2672   80.2210  224.6550 H   0  0  0  0  0  0  0  0  0  0  0  0
  142.6683   77.8564  223.9055 H   0  0  0  0  0  0  0  0  0  0  0  0
  141.9745   76.3931  221.3216 H   0  0  0  0  0  0  0  0  0  0  0  0
  141.1377   75.7523  222.7255 H   0  0  0  0  0  0  0  0  0  0  0  0
  140.2788   72.1108  220.3084 H   0  0  0  0  0  0  0  0  0  0  0  0
  138.7625   71.1103  220.0941 H   0  0  0  0  0  0  0  0  0  0  0  0
  140.4505   71.3900  222.6162 H   0  0  0  0  0  0  0  0  0  0  0  0
  140.2293   69.9263  221.5770 H   0  0  0  0  0  0  0  0  0  0  0  0
  1  2  1  0
  2  3  1  0
  3  4  2  0
  3  5  1  0
  5  6  1  0
  6  7  2  0
  7  8  1  0
  8  9  2  0
  9 10  1  0
 10 11  2  0
  5 12  1  0
 12 13  1  0
 13 14  1  0
 14 15  1  0
 15 16  1  0
 16 17  2  0
 16 18  1  0
 18 19  1  0
 18 20  1  0
 20 21  1  0
 21 22  1  0
 22 23  2  0
 23 24  1  0
 24 25  2  0
 25 26  1  0
 26 27  2  0
 27 28  1  0
 15 29  1  0
 29 30  1  0
 11  6  1  0
 30 12  1  0
 28 20  1  0
 27 22  1  0
  1 31  1  0
  1 32  1  0
  1 33  1  0
  2 34  1  0
  2 35  1  0
  7 36  1  0
  8 37  1  0
  9 38  1  0
 10 39  1  0
 11 40  1  0
 12 41  1  6
 13 42  1  0
 13 43  1  0
 14 44  1  0
 14 45  1  0
 15 46  1  6
 18 47  1  6
 19 48  1  0
 19 49  1  0
 20 50  1  0
 21 51  1  0
 21 52  1  0
 23 53  1  0
 24 54  1  0
 25 55  1  0
 26 56  1  0
 28 57  1  0
 28 58  1  0
 29 59  1  0
 29 60  1  0
 30 61  1  0
 30 62  1  0
M  CHG  1  15   1
M  END
>  <UniqueID>  (13) 
43

>  <SMILES>  (13) 
CCC(=O)N(c1ccccc1)C1CC[NH+](C(=O)[C@@H](N)C2Cc3ccccc3C2)CC1

>  <Energy>  (13) 
78.2390549836364

>  <Genealogy>  (13) 
CCC(=O)N(c1ccccc1)C1CC[NH+](C(=O)[C@@H](N)C2Cc3ccccc3C2)CC1 (protonated)
CCC(=O)N(c1ccccc1)C1CC[NH+](C(=O)[C@@H](N)C2Cc3ccccc3C2)CC1 (3D coordinates assigned)
CCC(=O)N(c1ccccc1)C1CC[NH+](C(=O)[C@@H](N)C2Cc3ccccc3C2)CC1 (nonaromatic ring conformer: 78.2390549836364 kcal/mol)

>  <smiles>  (13) 
CCC(=O)N(c1ccccc1)C1CCN(C(=O)[C@@H](N)C2Cc3ccccc3C2)CC1

>  <score_type>  (13) 
oracle

>  <origin>  (13) 
autodockgpu

>  <m_score__min__energy>  (13) 
-8.5800000000000001

>  <m_primary>  (13) 
energy

>  <meeko>  (13) 
{"free_energy": -8.58, "intermolecular_energy": -10.96, "internal_energy": -1.59, "cluster_size": 1, "cluster_id": 1, "rank_in_cluster": 1}

>  <energy>  (13) 
-6.78

>  <cluster_rmsd>  (13) 
0.27

>  <rmsd>  (13) 
271.28

>  <cluster>  (13) 
6

$$$$
MCZRVQBLWAUNOI-VDNHLTQINA-O
     RDKit          3D

 62 65  0  0  0  0  0  0  0  0999 V2000
  137.2980   82.0190  225.7460 C   0  0  0  0  0  0  0  0  0  0  0  0
  137.0580   80.9470  224.6900 C   0  0  0  0  0  0  0  0  0  0  0  0
  137.8200   81.2650  223.4320 C   0  0  0  0  0  0  0  0  0  0  0  0
  137.7610   82.4490  222.9980 O   0  0  0  0  0  0  0  0  0  0  0  0
  138.5410   80.2620  222.6720 N   0  0  0  0  0  0  0  0  0  0  0  0
  139.9710   80.2100  222.8360 C   0  0  0  0  0  0  0  0  0  0  0  0
  140.8050   80.9470  221.9800 C   0  0  0  0  0  0  0  0  0  0  0  0
  142.1910   80.9140  222.1500 C   0  0  0  0  0  0  0  0  0  0  0  0
  142.7510   80.1590  223.1840 C   0  0  0  0  0  0  0  0  0  0  0  0
  141.9250   79.4360  224.0510 C   0  0  0  0  0  0  0  0  0  0  0  0
  140.5370   79.4620  223.8800 C   0  0  0  0  0  0  0  0  0  0  0  0
  137.8450   79.1810  221.9400 C   0  0  1  0  0  0  0  0  0  0  0  0
  138.4960   78.8770  220.5820 C   0  0  0  0  0  0  0  0  0  0  0  0
  137.7230   77.7620  219.8610 C   0  0  0  0  0  0  0  0  0  0  0  0
  137.6060   76.5260  220.6680 N   0  0  1  0  0  0  0  0  0  0  0  0
  138.8480   75.7680  220.6700 C   0  0  0  0  0  0  0  0  0  0  0  0
  139.2650   75.2650  219.6370 O   0  0  0  0  0  0  0  0  0  0  0  0
  139.6080   75.5250  221.9680 C   0  0  1  0  0  0  0  0  0  0  0  0
  139.5620   74.1010  222.3060 N   0  0  0  0  0  0  0  0  0  0  0  0
  141.0820   76.0200  221.9110 C   0  0  0  0  0  0  0  0  0  0  0  0
  141.9510   75.2700  220.8680 C   0  0  0  0  0  0  0  0  0  0  0  0
  142.1990   76.2890  219.8210 C   0  0  0  0  0  0  0  0  0  0  0  0
  142.7870   76.0790  218.5710 C   0  0  0  0  0  0  0  0  0  0  0  0
  142.9450   77.1750  217.7080 C   0  0  0  0  0  0  0  0  0  0  0  0
  142.5190   78.4560  218.1060 C   0  0  0  0  0  0  0  0  0  0  0  0
  141.9370   78.6440  219.3690 C   0  0  0  0  0  0  0  0  0  0  0  0
  141.7860   77.5390  220.2100 C   0  0  0  0  0  0  0  0  0  0  0  0
  141.1830   77.5290  221.5650 C   0  0  0  0  0  0  0  0  0  0  0  0
  137.0750   76.7680  222.0340 C   0  0  0  0  0  0  0  0  0  0  0  0
  137.7910   77.9040  222.7870 C   0  0  0  0  0  0  0  0  0  0  0  0
  137.1987   81.5756  226.7478 H   0  0  0  0  0  0  0  0  0  0  0  0
  138.3107   82.4314  225.6263 H   0  0  0  0  0  0  0  0  0  0  0  0
  136.5578   82.8239  225.6263 H   0  0  0  0  0  0  0  0  0  0  0  0
  137.3925   79.9742  225.0795 H   0  0  0  0  0  0  0  0  0  0  0  0
  135.9838   80.9132  224.4558 H   0  0  0  0  0  0  0  0  0  0  0  0
  140.3656   81.5521  221.1732 H   0  0  0  0  0  0  0  0  0  0  0  0
  142.8420   81.4826  221.4696 H   0  0  0  0  0  0  0  0  0  0  0  0
  143.8427   80.1332  223.3163 H   0  0  0  0  0  0  0  0  0  0  0  0
  142.3673   78.8466  224.8677 H   0  0  0  0  0  0  0  0  0  0  0  0
  139.8884   78.8956  224.5645 H   0  0  0  0  0  0  0  0  0  0  0  0
  136.8229   79.5380  221.7457 H   0  0  0  0  0  0  0  0  0  0  0  0
  139.5354   78.5541  220.7414 H   0  0  0  0  0  0  0  0  0  0  0  0
  138.4760   79.7859  219.9628 H   0  0  0  0  0  0  0  0  0  0  0  0
  138.2470   77.5211  218.9243 H   0  0  0  0  0  0  0  0  0  0  0  0
  136.7040   78.1332  219.6769 H   0  0  0  0  0  0  0  0  0  0  0  0
  136.8820   75.9420  220.1880 H   0  0  0  0  0  0  0  0  0  0  0  0
  139.1108   76.1149  222.7521 H   0  0  0  0  0  0  0  0  0  0  0  0
  138.7530   73.9380  222.9500 H   0  0  0  0  0  0  0  0  0  0  0  0
  139.3540   73.5610  221.4350 H   0  0  0  0  0  0  0  0  0  0  0  0
  141.4616   75.8185  222.9236 H   0  0  0  0  0  0  0  0  0  0  0  0
  142.8962   74.9300  221.3164 H   0  0  0  0  0  0  0  0  0  0  0  0
  141.4620   74.3659  220.4762 H   0  0  0  0  0  0  0  0  0  0  0  0
  143.1195   75.0749  218.2691 H   0  0  0  0  0  0  0  0  0  0  0  0
  143.4030   77.0322  216.7181 H   0  0  0  0  0  0  0  0  0  0  0  0
  142.6425   79.3115  217.4257 H   0  0  0  0  0  0  0  0  0  0  0  0
  141.6060   79.6425  219.6906 H   0  0  0  0  0  0  0  0  0  0  0  0
  141.8275   78.0543  222.2851 H   0  0  0  0  0  0  0  0  0  0  0  0
  140.2102   78.0412  221.6027 H   0  0  0  0  0  0  0  0  0  0  0  0
  137.1846   75.8421  222.6177 H   0  0  0  0  0  0  0  0  0  0  0  0
  136.0240   77.0720  221.9199 H   0  0  0  0  0  0  0  0  0  0  0  0
  138.8172   77.5867  223.0240 H   0  0  0  0  0  0  0  0  0  0  0  0
  137.2300   78.1198  223.7082 H   0  0  0  0  0  0  0  0  0  0  0  0
  1  2  1  0
  2  3  1  0
  3  4  2  0
  3  5  1  0
  5  6  1  0
  6  7  2  0
  7  8  1  0
  8  9  2  0
  9 10  1  0
 10 11  2  0
  5 12  1  0
 12 13  1  0
 13 14  1  0
 14 15  1  0
 15 16  1  0
 16 17  2  0
 16 18  1  0
 18 19  1  0
 18 20  1  0
 20 21  1  0
 21 22  1  0
 22 23  2  0
 23 24  1  0
 24 25  2  0
 25 26  1  0
 26 27  2  0
 27 28  1  0
 15 29  1  0
 29 30  1  0
 11  6  1  0
 30 12  1  0
 28 20  1  0
 27 22  1  0
  1 31  1  0
  1 32  1  0
  1 33  1  0
  2 34  1  0
  2 35  1  0
  7 36  1  0
  8 37  1  0
  9 38  1  0
 10 39  1  0
 11 40  1  0
 12 41  1  6
 13 42  1  0
 13 43  1  0
 14 44  1  0
 14 45  1  0
 15 46  1  6
 18 47  1  1
 19 48  1  0
 19 49  1  0
 20 50  1  0
 21 51  1  0
 21 52  1  0
 23 53  1  0
 24 54  1  0
 25 55  1  0
 26 56  1  0
 28 57  1  0
 28 58  1  0
 29 59  1  0
 29 60  1  0
 30 61  1  0
 30 62  1  0
M  CHG  1  15   1
M  END
>  <UniqueID>  (14) 
43

>  <SMILES>  (14) 
CCC(=O)N(c1ccccc1)C1CC[NH+](C(=O)[C@@H](N)C2Cc3ccccc3C2)CC1

>  <Energy>  (14) 
78.2390549836364

>  <Genealogy>  (14) 
CCC(=O)N(c1ccccc1)C1CC[NH+](C(=O)[C@@H](N)C2Cc3ccccc3C2)CC1 (protonated)
CCC(=O)N(c1ccccc1)C1CC[NH+](C(=O)[C@@H](N)C2Cc3ccccc3C2)CC1 (3D coordinates assigned)
CCC(=O)N(c1ccccc1)C1CC[NH+](C(=O)[C@@H](N)C2Cc3ccccc3C2)CC1 (nonaromatic ring conformer: 78.2390549836364 kcal/mol)

>  <smiles>  (14) 
CCC(=O)N(c1ccccc1)C1CCN(C(=O)[C@@H](N)C2Cc3ccccc3C2)CC1

>  <score_type>  (14) 
oracle

>  <origin>  (14) 
autodockgpu

>  <m_score__min__energy>  (14) 
-8.5800000000000001

>  <m_primary>  (14) 
energy

>  <meeko>  (14) 
{"free_energy": -6.62, "intermolecular_energy": -9.01, "internal_energy": -3.1, "cluster_size": 6, "cluster_id": 7, "rank_in_cluster": 3}

>  <energy>  (14) 
-6.64

>  <cluster_rmsd>  (14) 
0.0

>  <rmsd>  (14) 
271.71

>  <cluster>  (14) 
7

$$$$
MCZRVQBLWAUNOI-VDNHLTQINA-O
     RDKit          3D

 62 65  0  0  0  0  0  0  0  0999 V2000
  139.7250   76.2540  222.0320 C   0  0  0  0  0  0  0  0  0  0  0  0
  141.0720   75.6220  221.6990 C   0  0  0  0  0  0  0  0  0  0  0  0
  141.0450   75.0130  220.3240 C   0  0  0  0  0  0  0  0  0  0  0  0
  139.9710   74.4640  219.9500 O   0  0  0  0  0  0  0  0  0  0  0  0
  142.2090   74.9660  219.4610 N   0  0  0  0  0  0  0  0  0  0  0  0
  143.3460   74.2130  219.9220 C   0  0  0  0  0  0  0  0  0  0  0  0
  144.4970   74.8790  220.3710 C   0  0  0  0  0  0  0  0  0  0  0  0
  145.5930   74.1490  220.8380 C   0  0  0  0  0  0  0  0  0  0  0  0
  145.5400   72.7530  220.8750 C   0  0  0  0  0  0  0  0  0  0  0  0
  144.3890   72.0840  220.4460 C   0  0  0  0  0  0  0  0  0  0  0  0
  143.2920   72.8100  219.9720 C   0  0  0  0  0  0  0  0  0  0  0  0
  142.1720   75.4620  218.0660 C   0  0  1  0  0  0  0  0  0  0  0  0
  140.8930   76.2540  217.7570 C   0  0  0  0  0  0  0  0  0  0  0  0
  140.9020   76.7260  216.2940 C   0  0  0  0  0  0  0  0  0  0  0  0
  142.1020   77.5240  215.9530 N   0  0  1  0  0  0  0  0  0  0  0  0
  142.0060   78.8810  216.4710 C   0  0  0  0  0  0  0  0  0  0  0  0
  141.5920   79.7850  215.7600 O   0  0  0  0  0  0  0  0  0  0  0  0
  142.4910   79.2120  217.8770 C   0  0  1  0  0  0  0  0  0  0  0  0
  143.2710   80.4510  217.8500 N   0  0  0  0  0  0  0  0  0  0  0  0
  141.3320   79.3250  218.9090 C   0  0  0  0  0  0  0  0  0  0  0  0
  141.4870   78.3770  220.1260 C   0  0  0  0  0  0  0  0  0  0  0  0
  141.7770   79.2950  221.2520 C   0  0  0  0  0  0  0  0  0  0  0  0
  142.1710   78.9380  222.5430 C   0  0  0  0  0  0  0  0  0  0  0  0
  142.3970   79.9560  223.4850 C   0  0  0  0  0  0  0  0  0  0  0  0
  142.2210   81.3050  223.1240 C   0  0  0  0  0  0  0  0  0  0  0  0
  141.8170   81.6390  221.8220 C   0  0  0  0  0  0  0  0  0  0  0  0
  141.6020   80.6110  220.9010 C   0  0  0  0  0  0  0  0  0  0  0  0
  141.1930   80.7600  219.4840 C   0  0  0  0  0  0  0  0  0  0  0  0
  143.3750   76.8530  216.3230 C   0  0  0  0  0  0  0  0  0  0  0  0
  143.4030   76.3260  217.7690 C   0  0  0  0  0  0  0  0  0  0  0  0
  139.6061   76.3098  223.1241 H   0  0  0  0  0  0  0  0  0  0  0  0
  139.6800   77.2672  221.6060 H   0  0  0  0  0  0  0  0  0  0  0  0
  138.9171   75.6410  221.6060 H   0  0  0  0  0  0  0  0  0  0  0  0
  141.8534   76.3953  221.7367 H   0  0  0  0  0  0  0  0  0  0  0  0
  141.2841   74.8310  222.4334 H   0  0  0  0  0  0  0  0  0  0  0  0
  144.5363   75.9782  220.3552 H   0  0  0  0  0  0  0  0  0  0  0  0
  146.4985   74.6736  221.1769 H   0  0  0  0  0  0  0  0  0  0  0  0
  146.4042   72.1798  221.2418 H   0  0  0  0  0  0  0  0  0  0  0  0
  144.3468   70.9854  220.4815 H   0  0  0  0  0  0  0  0  0  0  0  0
  142.3864   72.2824  219.6381 H   0  0  0  0  0  0  0  0  0  0  0  0
  142.1777   74.5756  217.4147 H   0  0  0  0  0  0  0  0  0  0  0  0
  140.8382   77.1293  218.4210 H   0  0  0  0  0  0  0  0  0  0  0  0
  140.0202   75.6045  217.9195 H   0  0  0  0  0  0  0  0  0  0  0  0
  140.0086   77.3434  216.1190 H   0  0  0  0  0  0  0  0  0  0  0  0
  140.9107   75.8287  215.6578 H   0  0  0  0  0  0  0  0  0  0  0  0
  142.1130   77.5860  214.9080 H   0  0  0  0  0  0  0  0  0  0  0  0
  143.1237   78.3754  218.2085 H   0  0  0  0  0  0  0  0  0  0  0  0
  144.2880   80.2040  217.8450 H   0  0  0  0  0  0  0  0  0  0  0  0
  143.0860   80.9380  216.9430 H   0  0  0  0  0  0  0  0  0  0  0  0
  140.4415   79.0415  218.3288 H   0  0  0  0  0  0  0  0  0  0  0  0
  140.5584   77.8158  220.3067 H   0  0  0  0  0  0  0  0  0  0  0  0
  142.2722   77.6207  219.9797 H   0  0  0  0  0  0  0  0  0  0  0  0
  142.3019   77.8808  222.8173 H   0  0  0  0  0  0  0  0  0  0  0  0
  142.7122   79.6980  224.5068 H   0  0  0  0  0  0  0  0  0  0  0  0
  142.4004   82.0991  223.8637 H   0  0  0  0  0  0  0  0  0  0  0  0
  141.6724   82.6903  221.5324 H   0  0  0  0  0  0  0  0  0  0  0  0
  140.1538   81.1132  219.4106 H   0  0  0  0  0  0  0  0  0  0  0  0
  141.8004   81.4983  218.9400 H   0  0  0  0  0  0  0  0  0  0  0  0
  144.1957   77.5753  216.2013 H   0  0  0  0  0  0  0  0  0  0  0  0
  143.4804   75.9800  215.6621 H   0  0  0  0  0  0  0  0  0  0  0  0
  143.4182   77.1799  218.4623 H   0  0  0  0  0  0  0  0  0  0  0  0
  144.3032   75.7071  217.8977 H   0  0  0  0  0  0  0  0  0  0  0  0
  1  2  1  0
  2  3  1  0
  3  4  2  0
  3  5  1  0
  5  6  1  0
  6  7  2  0
  7  8  1  0
  8  9  2  0
  9 10  1  0
 10 11  2  0
  5 12  1  0
 12 13  1  0
 13 14  1  0
 14 15  1  0
 15 16  1  0
 16 17  2  0
 16 18  1  0
 18 19  1  0
 18 20  1  0
 20 21  1  0
 21 22  1  0
 22 23  2  0
 23 24  1  0
 24 25  2  0
 25 26  1  0
 26 27  2  0
 27 28  1  0
 15 29  1  0
 29 30  1  0
 11  6  1  0
 30 12  1  0
 28 20  1  0
 27 22  1  0
  1 31  1  0
  1 32  1  0
  1 33  1  0
  2 34  1  0
  2 35  1  0
  7 36  1  0
  8 37  1  0
  9 38  1  0
 10 39  1  0
 11 40  1  0
 12 41  1  6
 13 42  1  0
 13 43  1  0
 14 44  1  0
 14 45  1  0
 15 46  1  6
 18 47  1  1
 19 48  1  0
 19 49  1  0
 20 50  1  0
 21 51  1  0
 21 52  1  0
 23 53  1  0
 24 54  1  0
 25 55  1  0
 26 56  1  0
 28 57  1  0
 28 58  1  0
 29 59  1  0
 29 60  1  0
 30 61  1  0
 30 62  1  0
M  CHG  1  15   1
M  END
>  <UniqueID>  (15) 
43

>  <SMILES>  (15) 
CCC(=O)N(c1ccccc1)C1CC[NH+](C(=O)[C@@H](N)C2Cc3ccccc3C2)CC1

>  <Energy>  (15) 
78.2390549836364

>  <Genealogy>  (15) 
CCC(=O)N(c1ccccc1)C1CC[NH+](C(=O)[C@@H](N)C2Cc3ccccc3C2)CC1 (protonated)
CCC(=O)N(c1ccccc1)C1CC[NH+](C(=O)[C@@H](N)C2Cc3ccccc3C2)CC1 (3D coordinates assigned)
CCC(=O)N(c1ccccc1)C1CC[NH+](C(=O)[C@@H](N)C2Cc3ccccc3C2)CC1 (nonaromatic ring conformer: 78.2390549836364 kcal/mol)

>  <smiles>  (15) 
CCC(=O)N(c1ccccc1)C1CCN(C(=O)[C@@H](N)C2Cc3ccccc3C2)CC1

>  <score_type>  (15) 
oracle

>  <origin>  (15) 
autodockgpu

>  <m_score__min__energy>  (15) 
-8.5800000000000001

>  <m_primary>  (15) 
energy

>  <meeko>  (15) 
{"free_energy": -7.14, "intermolecular_energy": -9.53, "internal_energy": -2.77, "cluster_size": 3, "cluster_id": 5, "rank_in_cluster": 3}

>  <energy>  (15) 
-6.63

>  <cluster_rmsd>  (15) 
0.07

>  <rmsd>  (15) 
271.71

>  <cluster>  (15) 
7

$$$$
MCZRVQBLWAUNOI-VDNHLTQINA-O
     RDKit          3D

 62 65  0  0  0  0  0  0  0  0999 V2000
  146.1930   73.3440  221.5880 C   0  0  0  0  0  0  0  0  0  0  0  0
  144.8660   73.4300  220.8420 C   0  0  0  0  0  0  0  0  0  0  0  0
  144.9120   72.6030  219.5860 C   0  0  0  0  0  0  0  0  0  0  0  0
  145.7870   72.8990  218.7240 O   0  0  0  0  0  0  0  0  0  0  0  0
  143.9590   71.5480  219.3010 N   0  0  0  0  0  0  0  0  0  0  0  0
  144.4480   70.1940  219.3080 C   0  0  0  0  0  0  0  0  0  0  0  0
  145.8300   69.9440  219.3050 C   0  0  0  0  0  0  0  0  0  0  0  0
  146.3060   68.6310  219.3310 C   0  0  0  0  0  0  0  0  0  0  0  0
  145.4080   67.5620  219.3780 C   0  0  0  0  0  0  0  0  0  0  0  0
  144.0300   67.8040  219.3980 C   0  0  0  0  0  0  0  0  0  0  0  0
  143.5490   69.1170  219.3660 C   0  0  0  0  0  0  0  0  0  0  0  0
  142.5020   71.8030  219.2370 C   0  0  1  0  0  0  0  0  0  0  0  0
  141.7810   71.4240  220.5390 C   0  0  0  0  0  0  0  0  0  0  0  0
  140.2730   71.6920  220.4080 C   0  0  0  0  0  0  0  0  0  0  0  0
  139.9670   73.0920  220.0340 N   0  0  1  0  0  0  0  0  0  0  0  0
  140.1060   73.9910  221.1690 C   0  0  0  0  0  0  0  0  0  0  0  0
  140.9110   73.7450  222.0560 O   0  0  0  0  0  0  0  0  0  0  0  0
  139.2010   75.2090  221.3130 C   0  0  1  0  0  0  0  0  0  0  0  0
  138.8190   75.3760  222.7170 N   0  0  0  0  0  0  0  0  0  0  0  0
  139.8480   76.5140  220.7680 C   0  0  0  0  0  0  0  0  0  0  0  0
  138.9690   77.7760  220.9720 C   0  0  0  0  0  0  0  0  0  0  0  0
  139.7030   78.5520  221.9990 C   0  0  0  0  0  0  0  0  0  0  0  0
  139.2530   79.6930  222.6670 C   0  0  0  0  0  0  0  0  0  0  0  0
  140.0980   80.2990  223.6110 C   0  0  0  0  0  0  0  0  0  0  0  0
  141.3730   79.7620  223.8670 C   0  0  0  0  0  0  0  0  0  0  0  0
  141.8070   78.6190  223.1780 C   0  0  0  0  0  0  0  0  0  0  0  0
  140.9490   78.0300  222.2470 C   0  0  0  0  0  0  0  0  0  0  0  0
  141.2150   76.8170  221.4360 C   0  0  0  0  0  0  0  0  0  0  0  0
  140.7140   73.5540  218.8360 C   0  0  0  0  0  0  0  0  0  0  0  0
  142.2270   73.2740  218.9000 C   0  0  0  0  0  0  0  0  0  0  0  0
  146.0058   73.3561  222.6719 H   0  0  0  0  0  0  0  0  0  0  0  0
  146.7072   72.4106  221.3152 H   0  0  0  0  0  0  0  0  0  0  0  0
  146.8234   74.2032  221.3152 H   0  0  0  0  0  0  0  0  0  0  0  0
  144.0608   73.0566  221.4918 H   0  0  0  0  0  0  0  0  0  0  0  0
  144.6786   74.4792  220.5700 H   0  0  0  0  0  0  0  0  0  0  0  0
  146.5394   70.7843  219.2821 H   0  0  0  0  0  0  0  0  0  0  0  0
  147.3889   68.4386  219.3144 H   0  0  0  0  0  0  0  0  0  0  0  0
  145.7846   66.5287  219.3993 H   0  0  0  0  0  0  0  0  0  0  0  0
  143.3245   66.9611  219.4389 H   0  0  0  0  0  0  0  0  0  0  0  0
  142.4655   69.3060  219.3863 H   0  0  0  0  0  0  0  0  0  0  0  0
  142.1029   71.1605  218.4382 H   0  0  0  0  0  0  0  0  0  0  0  0
  142.1862   72.0245  221.3668 H   0  0  0  0  0  0  0  0  0  0  0  0
  141.9394   70.3539  220.7387 H   0  0  0  0  0  0  0  0  0  0  0  0
  139.7925   71.4734  221.3731 H   0  0  0  0  0  0  0  0  0  0  0  0
  139.8911   71.0447  219.6048 H   0  0  0  0  0  0  0  0  0  0  0  0
  138.9590   73.0950  219.7510 H   0  0  0  0  0  0  0  0  0  0  0  0
  138.3067   75.0250  220.6995 H   0  0  0  0  0  0  0  0  0  0  0  0
  137.9440   74.8280  222.8910 H   0  0  0  0  0  0  0  0  0  0  0  0
  139.5580   74.9400  223.3140 H   0  0  0  0  0  0  0  0  0  0  0  0
  139.9675   76.3141  219.6929 H   0  0  0  0  0  0  0  0  0  0  0  0
  138.8807   78.3481  220.0366 H   0  0  0  0  0  0  0  0  0  0  0  0
  137.9395   77.5344  221.2748 H   0  0  0  0  0  0  0  0  0  0  0  0
  138.2563   80.1088  222.4579 H   0  0  0  0  0  0  0  0  0  0  0  0
  139.7621   81.1961  224.1518 H   0  0  0  0  0  0  0  0  0  0  0  0
  142.0308   80.2389  224.6085 H   0  0  0  0  0  0  0  0  0  0  0  0
  142.8042   78.1951  223.3677 H   0  0  0  0  0  0  0  0  0  0  0  0
  141.9871   77.0138  220.6776 H   0  0  0  0  0  0  0  0  0  0  0  0
  141.5912   75.9763  222.0374 H   0  0  0  0  0  0  0  0  0  0  0  0
  140.5663   74.6391  218.7325 H   0  0  0  0  0  0  0  0  0  0  0  0
  140.3204   72.9913  217.9767 H   0  0  0  0  0  0  0  0  0  0  0  0
  142.6778   73.9107  219.6755 H   0  0  0  0  0  0  0  0  0  0  0  0
  142.6654   73.4951  217.9157 H   0  0  0  0  0  0  0  0  0  0  0  0
  1  2  1  0
  2  3  1  0
  3  4  2  0
  3  5  1  0
  5  6  1  0
  6  7  2  0
  7  8  1  0
  8  9  2  0
  9 10  1  0
 10 11  2  0
  5 12  1  0
 12 13  1  0
 13 14  1  0
 14 15  1  0
 15 16  1  0
 16 17  2  0
 16 18  1  0
 18 19  1  0
 18 20  1  0
 20 21  1  0
 21 22  1  0
 22 23  2  0
 23 24  1  0
 24 25  2  0
 25 26  1  0
 26 27  2  0
 27 28  1  0
 15 29  1  0
 29 30  1  0
 11  6  1  0
 30 12  1  0
 28 20  1  0
 27 22  1  0
  1 31  1  0
  1 32  1  0
  1 33  1  0
  2 34  1  0
  2 35  1  0
  7 36  1  0
  8 37  1  0
  9 38  1  0
 10 39  1  0
 11 40  1  0
 12 41  1  6
 13 42  1  0
 13 43  1  0
 14 44  1  0
 14 45  1  0
 15 46  1  6
 18 47  1  6
 19 48  1  0
 19 49  1  0
 20 50  1  0
 21 51  1  0
 21 52  1  0
 23 53  1  0
 24 54  1  0
 25 55  1  0
 26 56  1  0
 28 57  1  0
 28 58  1  0
 29 59  1  0
 29 60  1  0
 30 61  1  0
 30 62  1  0
M  CHG  1  15   1
M  END
>  <UniqueID>  (16) 
43

>  <SMILES>  (16) 
CCC(=O)N(c1ccccc1)C1CC[NH+](C(=O)[C@@H](N)C2Cc3ccccc3C2)CC1

>  <Energy>  (16) 
78.2390549836364

>  <Genealogy>  (16) 
CCC(=O)N(c1ccccc1)C1CC[NH+](C(=O)[C@@H](N)C2Cc3ccccc3C2)CC1 (protonated)
CCC(=O)N(c1ccccc1)C1CC[NH+](C(=O)[C@@H](N)C2Cc3ccccc3C2)CC1 (3D coordinates assigned)
CCC(=O)N(c1ccccc1)C1CC[NH+](C(=O)[C@@H](N)C2Cc3ccccc3C2)CC1 (nonaromatic ring conformer: 78.2390549836364 kcal/mol)

>  <smiles>  (16) 
CCC(=O)N(c1ccccc1)C1CCN(C(=O)[C@@H](N)C2Cc3ccccc3C2)CC1

>  <score_type>  (16) 
oracle

>  <origin>  (16) 
autodockgpu

>  <m_score__min__energy>  (16) 
-8.5800000000000001

>  <m_primary>  (16) 
energy

>  <meeko>  (16) 
{"free_energy": -7.84, "intermolecular_energy": -10.23, "internal_energy": -2.2, "cluster_size": 2, "cluster_id": 2, "rank_in_cluster": 2}

>  <energy>  (16) 
-6.62

>  <cluster_rmsd>  (16) 
0.2

>  <rmsd>  (16) 
271.68

>  <cluster>  (16) 
7

$$$$
MCZRVQBLWAUNOI-VDNHLTQINA-O
     RDKit          3D

 62 65  0  0  0  0  0  0  0  0999 V2000
  146.2940   73.3820  221.5950 C   0  0  0  0  0  0  0  0  0  0  0  0
  144.9410   73.3610  220.8940 C   0  0  0  0  0  0  0  0  0  0  0  0
  145.0090   72.5360  219.6380 C   0  0  0  0  0  0  0  0  0  0  0  0
  145.9190   72.8120  218.8070 O   0  0  0  0  0  0  0  0  0  0  0  0
  144.0400   71.5070  219.3170 N   0  0  0  0  0  0  0  0  0  0  0  0
  144.5000   70.1420  219.3150 C   0  0  0  0  0  0  0  0  0  0  0  0
  145.8750   69.8630  219.3080 C   0  0  0  0  0  0  0  0  0  0  0  0
  146.3230   68.5400  219.3260 C   0  0  0  0  0  0  0  0  0  0  0  0
  145.4020   67.4900  219.3680 C   0  0  0  0  0  0  0  0  0  0  0  0
  144.0290   67.7620  219.3920 C   0  0  0  0  0  0  0  0  0  0  0  0
  143.5770   69.0850  219.3680 C   0  0  0  0  0  0  0  0  0  0  0  0
  142.5900   71.7950  219.2240 C   0  0  1  0  0  0  0  0  0  0  0  0
  141.8350   71.4300  220.5110 C   0  0  0  0  0  0  0  0  0  0  0  0
  140.3370   71.7320  220.3500 C   0  0  0  0  0  0  0  0  0  0  0  0
  140.0690   73.1380  219.9730 N   0  0  1  0  0  0  0  0  0  0  0  0
  140.2060   74.0330  221.1130 C   0  0  0  0  0  0  0  0  0  0  0  0
  141.0480   73.8130  221.9710 O   0  0  0  0  0  0  0  0  0  0  0  0
  139.2560   75.2100  221.2960 C   0  0  1  0  0  0  0  0  0  0  0  0
  138.9050   75.3440  222.7110 N   0  0  0  0  0  0  0  0  0  0  0  0
  139.8340   76.5480  220.7530 C   0  0  0  0  0  0  0  0  0  0  0  0
  138.9360   77.7790  221.0440 C   0  0  0  0  0  0  0  0  0  0  0  0
  139.7080   78.5470  222.0480 C   0  0  0  0  0  0  0  0  0  0  0  0
  139.2680   79.6550  222.7740 C   0  0  0  0  0  0  0  0  0  0  0  0
  140.1500   80.2600  223.6840 C   0  0  0  0  0  0  0  0  0  0  0  0
  141.4530   79.7530  223.8490 C   0  0  0  0  0  0  0  0  0  0  0  0
  141.8750   78.6410  223.1030 C   0  0  0  0  0  0  0  0  0  0  0  0
  140.9800   78.0540  222.2070 C   0  0  0  0  0  0  0  0  0  0  0  0
  141.2300   76.8720  221.3480 C   0  0  0  0  0  0  0  0  0  0  0  0
  140.8500   73.5850  218.7910 C   0  0  0  0  0  0  0  0  0  0  0  0
  142.3550   73.2710  218.8850 C   0  0  0  0  0  0  0  0  0  0  0  0
  146.1425   73.3797  222.6845 H   0  0  0  0  0  0  0  0  0  0  0  0
  146.8720   72.4927  221.3032 H   0  0  0  0  0  0  0  0  0  0  0  0
  146.8441   74.2888  221.3032 H   0  0  0  0  0  0  0  0  0  0  0  0
  144.1897   72.9280  221.5708 H   0  0  0  0  0  0  0  0  0  0  0  0
  144.6634   74.3914  220.6272 H   0  0  0  0  0  0  0  0  0  0  0  0
  146.6021   70.6882  219.2883 H   0  0  0  0  0  0  0  0  0  0  0  0
  147.4015   68.3246  219.3071 H   0  0  0  0  0  0  0  0  0  0  0  0
  145.7562   66.4487  219.3822 H   0  0  0  0  0  0  0  0  0  0  0  0
  143.3053   66.9345  219.4298 H   0  0  0  0  0  0  0  0  0  0  0  0
  142.4980   69.2979  219.3906 H   0  0  0  0  0  0  0  0  0  0  0  0
  142.1926   71.1633  218.4159 H   0  0  0  0  0  0  0  0  0  0  0  0
  142.2369   72.0199  221.3480 H   0  0  0  0  0  0  0  0  0  0  0  0
  141.9656   70.3564  220.7121 H   0  0  0  0  0  0  0  0  0  0  0  0
  139.8324   71.5225  221.3047 H   0  0  0  0  0  0  0  0  0  0  0  0
  139.9578   71.0949  219.5374 H   0  0  0  0  0  0  0  0  0  0  0  0
  139.0670   73.1640  219.6710 H   0  0  0  0  0  0  0  0  0  0  0  0
  138.3547   74.9961  220.7027 H   0  0  0  0  0  0  0  0  0  0  0  0
  137.9550   74.9290  222.8590 H   0  0  0  0  0  0  0  0  0  0  0  0
  139.5670   74.7610  223.2720 H   0  0  0  0  0  0  0  0  0  0  0  0
  139.8940   76.3804  219.6675 H   0  0  0  0  0  0  0  0  0  0  0  0
  138.7778   78.3735  220.1321 H   0  0  0  0  0  0  0  0  0  0  0  0
  137.9329   77.5006  221.3993 H   0  0  0  0  0  0  0  0  0  0  0  0
  138.2495   80.0469  222.6359 H   0  0  0  0  0  0  0  0  0  0  0  0
  139.8221   81.1319  224.2691 H   0  0  0  0  0  0  0  0  0  0  0  0
  142.1412   80.2287  224.5632 H   0  0  0  0  0  0  0  0  0  0  0  0
  142.8922   78.2397  223.2224 H   0  0  0  0  0  0  0  0  0  0  0  0
  141.9500   77.1112  220.5515 H   0  0  0  0  0  0  0  0  0  0  0  0
  141.6640   76.0266  221.9019 H   0  0  0  0  0  0  0  0  0  0  0  0
  140.7287   74.6733  218.6866 H   0  0  0  0  0  0  0  0  0  0  0  0
  140.4613   73.0327  217.9228 H   0  0  0  0  0  0  0  0  0  0  0  0
  142.8041   73.8961  219.6708 H   0  0  0  0  0  0  0  0  0  0  0  0
  142.8181   73.4838  217.9102 H   0  0  0  0  0  0  0  0  0  0  0  0
  1  2  1  0
  2  3  1  0
  3  4  2  0
  3  5  1  0
  5  6  1  0
  6  7  2  0
  7  8  1  0
  8  9  2  0
  9 10  1  0
 10 11  2  0
  5 12  1  0
 12 13  1  0
 13 14  1  0
 14 15  1  0
 15 16  1  0
 16 17  2  0
 16 18  1  0
 18 19  1  0
 18 20  1  0
 20 21  1  0
 21 22  1  0
 22 23  2  0
 23 24  1  0
 24 25  2  0
 25 26  1  0
 26 27  2  0
 27 28  1  0
 15 29  1  0
 29 30  1  0
 11  6  1  0
 30 12  1  0
 28 20  1  0
 27 22  1  0
  1 31  1  0
  1 32  1  0
  1 33  1  0
  2 34  1  0
  2 35  1  0
  7 36  1  0
  8 37  1  0
  9 38  1  0
 10 39  1  0
 11 40  1  0
 12 41  1  6
 13 42  1  0
 13 43  1  0
 14 44  1  0
 14 45  1  0
 15 46  1  6
 18 47  1  6
 19 48  1  0
 19 49  1  0
 20 50  1  0
 21 51  1  0
 21 52  1  0
 23 53  1  0
 24 54  1  0
 25 55  1  0
 26 56  1  0
 28 57  1  0
 28 58  1  0
 29 59  1  0
 29 60  1  0
 30 61  1  0
 30 62  1  0
M  CHG  1  15   1
M  END
>  <UniqueID>  (17) 
43

>  <SMILES>  (17) 
CCC(=O)N(c1ccccc1)C1CC[NH+](C(=O)[C@@H](N)C2Cc3ccccc3C2)CC1

>  <Energy>  (17) 
78.2390549836364

>  <Genealogy>  (17) 
CCC(=O)N(c1ccccc1)C1CC[NH+](C(=O)[C@@H](N)C2Cc3ccccc3C2)CC1 (protonated)
CCC(=O)N(c1ccccc1)C1CC[NH+](C(=O)[C@@H](N)C2Cc3ccccc3C2)CC1 (3D coordinates assigned)
CCC(=O)N(c1ccccc1)C1CC[NH+](C(=O)[C@@H](N)C2Cc3ccccc3C2)CC1 (nonaromatic ring conformer: 78.2390549836364 kcal/mol)

>  <smiles>  (17) 
CCC(=O)N(c1ccccc1)C1CCN(C(=O)[C@@H](N)C2Cc3ccccc3C2)CC1

>  <score_type>  (17) 
oracle

>  <origin>  (17) 
autodockgpu

>  <m_score__min__energy>  (17) 
-8.5800000000000001

>  <m_primary>  (17) 
energy

>  <meeko>  (17) 
{"free_energy": -8.01, "intermolecular_energy": -10.39, "internal_energy": -2.18, "cluster_size": 2, "cluster_id": 2, "rank_in_cluster": 1}

>  <energy>  (17) 
-6.62

>  <cluster_rmsd>  (17) 
0.05

>  <rmsd>  (17) 
271.74

>  <cluster>  (17) 
7

$$$$
MCZRVQBLWAUNOI-VDNHLTQINA-O
     RDKit          3D

 62 65  0  0  0  0  0  0  0  0999 V2000
  136.9590   82.1560  225.7310 C   0  0  0  0  0  0  0  0  0  0  0  0
  137.6040   80.9350  225.0830 C   0  0  0  0  0  0  0  0  0  0  0  0
  137.9940   81.2360  223.6620 C   0  0  0  0  0  0  0  0  0  0  0  0
  137.6550   82.3560  223.1880 O   0  0  0  0  0  0  0  0  0  0  0  0
  138.6650   80.2740  222.8090 N   0  0  0  0  0  0  0  0  0  0  0  0
  140.1040   80.2330  222.8620 C   0  0  0  0  0  0  0  0  0  0  0  0
  140.8640   80.9360  221.9140 C   0  0  0  0  0  0  0  0  0  0  0  0
  142.2590   80.9130  221.9760 C   0  0  0  0  0  0  0  0  0  0  0  0
  142.9030   80.2040  222.9940 C   0  0  0  0  0  0  0  0  0  0  0  0
  142.1510   79.5160  223.9530 C   0  0  0  0  0  0  0  0  0  0  0  0
  140.7540   79.5310  223.8900 C   0  0  0  0  0  0  0  0  0  0  0  0
  137.9260   79.2150  222.0860 C   0  0  1  0  0  0  0  0  0  0  0  0
  138.5230   78.9220  220.7010 C   0  0  0  0  0  0  0  0  0  0  0  0
  137.7060   77.8300  219.9920 C   0  0  0  0  0  0  0  0  0  0  0  0
  137.5970   76.5840  220.7850 N   0  0  1  0  0  0  0  0  0  0  0  0
  138.8260   75.8070  220.7310 C   0  0  0  0  0  0  0  0  0  0  0  0
  139.2090   75.3320  219.6710 O   0  0  0  0  0  0  0  0  0  0  0  0
  139.6130   75.5070  222.0010 C   0  0  1  0  0  0  0  0  0  0  0  0
  139.5710   74.0700  222.2790 N   0  0  0  0  0  0  0  0  0  0  0  0
  141.0860   76.0030  221.9340 C   0  0  0  0  0  0  0  0  0  0  0  0
  141.9540   75.2400  220.9000 C   0  0  0  0  0  0  0  0  0  0  0  0
  142.1980   76.2430  219.8390 C   0  0  0  0  0  0  0  0  0  0  0  0
  142.7850   76.0170  218.5910 C   0  0  0  0  0  0  0  0  0  0  0  0
  142.9400   77.1010  217.7120 C   0  0  0  0  0  0  0  0  0  0  0  0
  142.5140   78.3880  218.0930 C   0  0  0  0  0  0  0  0  0  0  0  0
  141.9330   78.5920  219.3550 C   0  0  0  0  0  0  0  0  0  0  0  0
  141.7860   77.4990  220.2110 C   0  0  0  0  0  0  0  0  0  0  0  0
  141.1850   77.5080  221.5670 C   0  0  0  0  0  0  0  0  0  0  0  0
  137.1190   76.8140  222.1720 C   0  0  0  0  0  0  0  0  0  0  0  0
  137.8810   77.9270  222.9160 C   0  0  0  0  0  0  0  0  0  0  0  0
  137.0097   82.0599  226.8256 H   0  0  0  0  0  0  0  0  0  0  0  0
  137.4952   83.0638  225.4173 H   0  0  0  0  0  0  0  0  0  0  0  0
  135.9069   82.2248  225.4173 H   0  0  0  0  0  0  0  0  0  0  0  0
  138.5021   80.6548  225.6531 H   0  0  0  0  0  0  0  0  0  0  0  0
  136.8795   80.1073  225.0849 H   0  0  0  0  0  0  0  0  0  0  0  0
  140.3595   81.5065  221.1203 H   0  0  0  0  0  0  0  0  0  0  0  0
  142.8515   81.4533  221.2230 H   0  0  0  0  0  0  0  0  0  0  0  0
  144.0018   80.1868  223.0414 H   0  0  0  0  0  0  0  0  0  0  0  0
  142.6591   78.9631  224.7568 H   0  0  0  0  0  0  0  0  0  0  0  0
  140.1639   78.9925  224.6462 H   0  0  0  0  0  0  0  0  0  0  0  0
  136.9035   79.5906  221.9330 H   0  0  0  0  0  0  0  0  0  0  0  0
  139.5620   78.5804  220.8179 H   0  0  0  0  0  0  0  0  0  0  0  0
  138.4959   79.8406  220.0964 H   0  0  0  0  0  0  0  0  0  0  0  0
  138.1922   77.5946  219.0338 H   0  0  0  0  0  0  0  0  0  0  0  0
  136.6875   78.2204  219.8498 H   0  0  0  0  0  0  0  0  0  0  0  0
  136.8470   76.0200  220.3220 H   0  0  0  0  0  0  0  0  0  0  0  0
  139.1336   76.0628  222.8204 H   0  0  0  0  0  0  0  0  0  0  0  0
  138.7260   73.8690  222.8630 H   0  0  0  0  0  0  0  0  0  0  0  0
  139.4270   73.5640  221.3760 H   0  0  0  0  0  0  0  0  0  0  0  0
  141.4674   75.8158  222.9486 H   0  0  0  0  0  0  0  0  0  0  0  0
  142.9007   74.9080  221.3513 H   0  0  0  0  0  0  0  0  0  0  0  0
  141.4655   74.3297  220.5221 H   0  0  0  0  0  0  0  0  0  0  0  0
  143.1192   75.0094  218.3029 H   0  0  0  0  0  0  0  0  0  0  0  0
  143.3955   76.9444  216.7230 H   0  0  0  0  0  0  0  0  0  0  0  0
  142.6365   79.2345  217.4013 H   0  0  0  0  0  0  0  0  0  0  0  0
  141.6000   79.5940  219.6633 H   0  0  0  0  0  0  0  0  0  0  0  0
  141.8302   78.0439  222.2787 H   0  0  0  0  0  0  0  0  0  0  0  0
  140.2120   78.0201  221.5993 H   0  0  0  0  0  0  0  0  0  0  0  0
  137.2332   75.8777  222.7379 H   0  0  0  0  0  0  0  0  0  0  0  0
  136.0700   77.1372  222.0998 H   0  0  0  0  0  0  0  0  0  0  0  0
  138.9095   77.5894  223.1114 H   0  0  0  0  0  0  0  0  0  0  0  0
  137.3573   78.1379  223.8601 H   0  0  0  0  0  0  0  0  0  0  0  0
  1  2  1  0
  2  3  1  0
  3  4  2  0
  3  5  1  0
  5  6  1  0
  6  7  2  0
  7  8  1  0
  8  9  2  0
  9 10  1  0
 10 11  2  0
  5 12  1  0
 12 13  1  0
 13 14  1  0
 14 15  1  0
 15 16  1  0
 16 17  2  0
 16 18  1  0
 18 19  1  0
 18 20  1  0
 20 21  1  0
 21 22  1  0
 22 23  2  0
 23 24  1  0
 24 25  2  0
 25 26  1  0
 26 27  2  0
 27 28  1  0
 15 29  1  0
 29 30  1  0
 11  6  1  0
 30 12  1  0
 28 20  1  0
 27 22  1  0
  1 31  1  0
  1 32  1  0
  1 33  1  0
  2 34  1  0
  2 35  1  0
  7 36  1  0
  8 37  1  0
  9 38  1  0
 10 39  1  0
 11 40  1  0
 12 41  1  6
 13 42  1  0
 13 43  1  0
 14 44  1  0
 14 45  1  0
 15 46  1  6
 18 47  1  1
 19 48  1  0
 19 49  1  0
 20 50  1  0
 21 51  1  0
 21 52  1  0
 23 53  1  0
 24 54  1  0
 25 55  1  0
 26 56  1  0
 28 57  1  0
 28 58  1  0
 29 59  1  0
 29 60  1  0
 30 61  1  0
 30 62  1  0
M  CHG  1  15   1
M  END
>  <UniqueID>  (18) 
43

>  <SMILES>  (18) 
CCC(=O)N(c1ccccc1)C1CC[NH+](C(=O)[C@@H](N)C2Cc3ccccc3C2)CC1

>  <Energy>  (18) 
78.2390549836364

>  <Genealogy>  (18) 
CCC(=O)N(c1ccccc1)C1CC[NH+](C(=O)[C@@H](N)C2Cc3ccccc3C2)CC1 (protonated)
CCC(=O)N(c1ccccc1)C1CC[NH+](C(=O)[C@@H](N)C2Cc3ccccc3C2)CC1 (3D coordinates assigned)
CCC(=O)N(c1ccccc1)C1CC[NH+](C(=O)[C@@H](N)C2Cc3ccccc3C2)CC1 (nonaromatic ring conformer: 78.2390549836364 kcal/mol)

>  <smiles>  (18) 
CCC(=O)N(c1ccccc1)C1CCN(C(=O)[C@@H](N)C2Cc3ccccc3C2)CC1

>  <score_type>  (18) 
oracle

>  <origin>  (18) 
autodockgpu

>  <m_score__min__energy>  (18) 
-8.5800000000000001

>  <m_primary>  (18) 
energy

>  <meeko>  (18) 
{"free_energy": -6.62, "intermolecular_energy": -9.01, "internal_energy": -3.1, "cluster_size": 6, "cluster_id": 7, "rank_in_cluster": 4}

>  <energy>  (18) 
-6.59

>  <cluster_rmsd>  (18) 
0.27

>  <rmsd>  (18) 
271.63

>  <cluster>  (18) 
7

$$$$
MCZRVQBLWAUNOI-VDNHLTQINA-O
     RDKit          3D

 62 65  0  0  0  0  0  0  0  0999 V2000
  137.6590   82.7540  222.2030 C   0  0  0  0  0  0  0  0  0  0  0  0
  137.1230   82.1480  223.4960 C   0  0  0  0  0  0  0  0  0  0  0  0
  137.9200   80.9320  223.8800 C   0  0  0  0  0  0  0  0  0  0  0  0
  138.0460   80.6820  225.1110 O   0  0  0  0  0  0  0  0  0  0  0  0
  138.6000   80.0970  222.9090 N   0  0  0  0  0  0  0  0  0  0  0  0
  140.0400   80.1370  222.8950 C   0  0  0  0  0  0  0  0  0  0  0  0
  140.7140   80.9150  221.9400 C   0  0  0  0  0  0  0  0  0  0  0  0
  142.1100   80.9710  221.9380 C   0  0  0  0  0  0  0  0  0  0  0  0
  142.8400   80.2650  222.8980 C   0  0  0  0  0  0  0  0  0  0  0  0
  142.1740   79.5020  223.8640 C   0  0  0  0  0  0  0  0  0  0  0  0
  140.7770   79.4390  223.8650 C   0  0  0  0  0  0  0  0  0  0  0  0
  137.8860   79.0690  222.1200 C   0  0  1  0  0  0  0  0  0  0  0  0
  138.5340   78.8240  220.7490 C   0  0  0  0  0  0  0  0  0  0  0  0
  137.7410   77.7630  219.9700 C   0  0  0  0  0  0  0  0  0  0  0  0
  137.5990   76.4890  220.7110 N   0  0  1  0  0  0  0  0  0  0  0  0
  138.8270   75.7100  220.6740 C   0  0  0  0  0  0  0  0  0  0  0  0
  139.2120   75.2150  219.6240 O   0  0  0  0  0  0  0  0  0  0  0  0
  139.6110   75.4320  221.9510 C   0  0  1  0  0  0  0  0  0  0  0  0
  139.5850   73.9970  222.2430 N   0  0  0  0  0  0  0  0  0  0  0  0
  141.0770   75.9460  221.8880 C   0  0  0  0  0  0  0  0  0  0  0  0
  141.9500   75.2110  220.8370 C   0  0  0  0  0  0  0  0  0  0  0  0
  142.1790   76.2360  219.7930 C   0  0  0  0  0  0  0  0  0  0  0  0
  142.7630   76.0390  218.5390 C   0  0  0  0  0  0  0  0  0  0  0  0
  142.9030   77.1400  217.6790 C   0  0  0  0  0  0  0  0  0  0  0  0
  142.4630   78.4140  218.0850 C   0  0  0  0  0  0  0  0  0  0  0  0
  141.8850   78.5900  219.3520 C   0  0  0  0  0  0  0  0  0  0  0  0
  141.7540   77.4800  220.1890 C   0  0  0  0  0  0  0  0  0  0  0  0
  141.1580   77.4570  221.5470 C   0  0  0  0  0  0  0  0  0  0  0  0
  137.0700   76.6690  222.0870 C   0  0  0  0  0  0  0  0  0  0  0  0
  137.8070   77.7510  222.9000 C   0  0  0  0  0  0  0  0  0  0  0  0
  138.3703   83.5582  222.4423 H   0  0  0  0  0  0  0  0  0  0  0  0
  138.1694   81.9754  221.6171 H   0  0  0  0  0  0  0  0  0  0  0  0
  136.8239   83.1654  221.6171 H   0  0  0  0  0  0  0  0  0  0  0  0
  137.1918   82.8945  224.3010 H   0  0  0  0  0  0  0  0  0  0  0  0
  136.0752   81.8513  223.3412 H   0  0  0  0  0  0  0  0  0  0  0  0
  140.1413   81.4820  221.1913 H   0  0  0  0  0  0  0  0  0  0  0  0
  142.6349   81.5712  221.1802 H   0  0  0  0  0  0  0  0  0  0  0  0
  143.9391   80.3090  222.8944 H   0  0  0  0  0  0  0  0  0  0  0  0
  142.7497   78.9516  224.6227 H   0  0  0  0  0  0  0  0  0  0  0  0
  140.2547   78.8417  224.6269 H   0  0  0  0  0  0  0  0  0  0  0  0
  136.8713   79.4546  221.9423 H   0  0  0  0  0  0  0  0  0  0  0  0
  139.5667   78.4733  220.8925 H   0  0  0  0  0  0  0  0  0  0  0  0
  138.5330   79.7642  220.1780 H   0  0  0  0  0  0  0  0  0  0  0  0
  138.2619   77.5614  219.0223 H   0  0  0  0  0  0  0  0  0  0  0  0
  136.7296   78.1628  219.8049 H   0  0  0  0  0  0  0  0  0  0  0  0
  136.8650   75.9450  220.2000 H   0  0  0  0  0  0  0  0  0  0  0  0
  139.1203   75.9897  222.7623 H   0  0  0  0  0  0  0  0  0  0  0  0
  138.7750   73.8000  222.8740 H   0  0  0  0  0  0  0  0  0  0  0  0
  139.3920   73.4830  221.3530 H   0  0  0  0  0  0  0  0  0  0  0  0
  141.4637   75.7458  222.8981 H   0  0  0  0  0  0  0  0  0  0  0  0
  142.9019   74.8816  221.2789 H   0  0  0  0  0  0  0  0  0  0  0  0
  141.4703   74.3022  220.4445 H   0  0  0  0  0  0  0  0  0  0  0  0
  143.1065   75.0403  218.2314 H   0  0  0  0  0  0  0  0  0  0  0  0
  143.3574   77.0068  216.6861 H   0  0  0  0  0  0  0  0  0  0  0  0
  142.5724   79.2738  217.4077 H   0  0  0  0  0  0  0  0  0  0  0  0
  141.5420   79.5827  219.6791 H   0  0  0  0  0  0  0  0  0  0  0  0
  141.7997   77.9874  222.2659 H   0  0  0  0  0  0  0  0  0  0  0  0
  140.1791   77.9569  221.5912 H   0  0  0  0  0  0  0  0  0  0  0  0
  137.1606   75.7118  222.6214 H   0  0  0  0  0  0  0  0  0  0  0  0
  136.0252   76.9986  221.9881 H   0  0  0  0  0  0  0  0  0  0  0  0
  138.8267   77.4024  223.1207 H   0  0  0  0  0  0  0  0  0  0  0  0
  137.2494   77.9289  223.8313 H   0  0  0  0  0  0  0  0  0  0  0  0
  1  2  1  0
  2  3  1  0
  3  4  2  0
  3  5  1  0
  5  6  1  0
  6  7  2  0
  7  8  1  0
  8  9  2  0
  9 10  1  0
 10 11  2  0
  5 12  1  0
 12 13  1  0
 13 14  1  0
 14 15  1  0
 15 16  1  0
 16 17  2  0
 16 18  1  0
 18 19  1  0
 18 20  1  0
 20 21  1  0
 21 22  1  0
 22 23  2  0
 23 24  1  0
 24 25  2  0
 25 26  1  0
 26 27  2  0
 27 28  1  0
 15 29  1  0
 29 30  1  0
 11  6  1  0
 30 12  1  0
 28 20  1  0
 27 22  1  0
  1 31  1  0
  1 32  1  0
  1 33  1  0
  2 34  1  0
  2 35  1  0
  7 36  1  0
  8 37  1  0
  9 38  1  0
 10 39  1  0
 11 40  1  0
 12 41  1  6
 13 42  1  0
 13 43  1  0
 14 44  1  0
 14 45  1  0
 15 46  1  6
 18 47  1  1
 19 48  1  0
 19 49  1  0
 20 50  1  0
 21 51  1  0
 21 52  1  0
 23 53  1  0
 24 54  1  0
 25 55  1  0
 26 56  1  0
 28 57  1  0
 28 58  1  0
 29 59  1  0
 29 60  1  0
 30 61  1  0
 30 62  1  0
M  CHG  1  15   1
M  END
>  <UniqueID>  (19) 
43

>  <SMILES>  (19) 
CCC(=O)N(c1ccccc1)C1CC[NH+](C(=O)[C@@H](N)C2Cc3ccccc3C2)CC1

>  <Energy>  (19) 
78.2390549836364

>  <Genealogy>  (19) 
CCC(=O)N(c1ccccc1)C1CC[NH+](C(=O)[C@@H](N)C2Cc3ccccc3C2)CC1 (protonated)
CCC(=O)N(c1ccccc1)C1CC[NH+](C(=O)[C@@H](N)C2Cc3ccccc3C2)CC1 (3D coordinates assigned)
CCC(=O)N(c1ccccc1)C1CC[NH+](C(=O)[C@@H](N)C2Cc3ccccc3C2)CC1 (nonaromatic ring conformer: 78.2390549836364 kcal/mol)

>  <smiles>  (19) 
CCC(=O)N(c1ccccc1)C1CCN(C(=O)[C@@H](N)C2Cc3ccccc3C2)CC1

>  <score_type>  (19) 
oracle

>  <origin>  (19) 
autodockgpu

>  <m_score__min__energy>  (19) 
-8.5800000000000001

>  <m_primary>  (19) 
energy

>  <meeko>  (19) 
{"free_energy": -6.47, "intermolecular_energy": -8.85, "internal_energy": -3.17, "cluster_size": 6, "cluster_id": 7, "rank_in_cluster": 6}

>  <energy>  (19) 
-6.47

>  <cluster_rmsd>  (19) 
0.64

>  <rmsd>  (19) 
271.63

>  <cluster>  (19) 
7

$$$$
MCZRVQBLWAUNOI-VDNHLTQINA-O
     RDKit          3D

 62 65  0  0  0  0  0  0  0  0999 V2000
  136.9690   82.1370  225.7330 C   0  0  0  0  0  0  0  0  0  0  0  0
  137.6300   80.9240  225.0890 C   0  0  0  0  0  0  0  0  0  0  0  0
  138.0010   81.2200  223.6620 C   0  0  0  0  0  0  0  0  0  0  0  0
  137.6500   82.3360  223.1870 O   0  0  0  0  0  0  0  0  0  0  0  0
  138.6660   80.2580  222.8050 N   0  0  0  0  0  0  0  0  0  0  0  0
  140.1050   80.2150  222.8510 C   0  0  0  0  0  0  0  0  0  0  0  0
  140.8620   80.9350  221.9120 C   0  0  0  0  0  0  0  0  0  0  0  0
  142.2570   80.9100  221.9680 C   0  0  0  0  0  0  0  0  0  0  0  0
  142.9050   80.1820  222.9700 C   0  0  0  0  0  0  0  0  0  0  0  0
  142.1570   79.4770  223.9190 C   0  0  0  0  0  0  0  0  0  0  0  0
  140.7590   79.4940  223.8620 C   0  0  0  0  0  0  0  0  0  0  0  0
  137.9220   79.2000  222.0850 C   0  0  1  0  0  0  0  0  0  0  0  0
  138.4980   78.9230  220.6880 C   0  0  0  0  0  0  0  0  0  0  0  0
  137.6770   77.8320  219.9830 C   0  0  0  0  0  0  0  0  0  0  0  0
  137.5890   76.5790  220.7660 N   0  0  1  0  0  0  0  0  0  0  0  0
  138.8220   75.8100  220.6850 C   0  0  0  0  0  0  0  0  0  0  0  0
  139.2020   75.3640  219.6120 O   0  0  0  0  0  0  0  0  0  0  0  0
  139.6190   75.4840  221.9420 C   0  0  1  0  0  0  0  0  0  0  0  0
  139.5910   74.0390  222.1820 N   0  0  0  0  0  0  0  0  0  0  0  0
  141.0870   75.9930  221.8810 C   0  0  0  0  0  0  0  0  0  0  0  0
  141.9620   75.2490  220.8380 C   0  0  0  0  0  0  0  0  0  0  0  0
  142.1970   76.2660  219.7870 C   0  0  0  0  0  0  0  0  0  0  0  0
  142.7850   76.0590  218.5370 C   0  0  0  0  0  0  0  0  0  0  0  0
  142.9300   77.1540  217.6700 C   0  0  0  0  0  0  0  0  0  0  0  0
  142.4930   78.4320  218.0650 C   0  0  0  0  0  0  0  0  0  0  0  0
  141.9110   78.6180  219.3290 C   0  0  0  0  0  0  0  0  0  0  0  0
  141.7730   77.5140  220.1740 C   0  0  0  0  0  0  0  0  0  0  0  0
  141.1730   77.5020  221.5300 C   0  0  0  0  0  0  0  0  0  0  0  0
  137.1330   76.7930  222.1630 C   0  0  0  0  0  0  0  0  0  0  0  0
  137.9000   77.9050  222.9040 C   0  0  0  0  0  0  0  0  0  0  0  0
  137.0197   82.0440  226.8279 H   0  0  0  0  0  0  0  0  0  0  0  0
  137.4938   83.0510  225.4179 H   0  0  0  0  0  0  0  0  0  0  0  0
  135.9165   82.1914  225.4179 H   0  0  0  0  0  0  0  0  0  0  0  0
  138.5385   80.6653  225.6527 H   0  0  0  0  0  0  0  0  0  0  0  0
  136.9209   80.0832  225.1044 H   0  0  0  0  0  0  0  0  0  0  0  0
  140.3546   81.5199  221.1307 H   0  0  0  0  0  0  0  0  0  0  0  0
  142.8467   81.4639  221.2227 H   0  0  0  0  0  0  0  0  0  0  0  0
  144.0040   80.1634  223.0124 H   0  0  0  0  0  0  0  0  0  0  0  0
  142.6681   78.9090  224.7104 H   0  0  0  0  0  0  0  0  0  0  0  0
  140.1719   78.9416  224.6105 H   0  0  0  0  0  0  0  0  0  0  0  0
  136.8945   79.5698  221.9523 H   0  0  0  0  0  0  0  0  0  0  0  0
  139.5411   78.5874  220.7849 H   0  0  0  0  0  0  0  0  0  0  0  0
  138.4548   79.8466  220.0920 H   0  0  0  0  0  0  0  0  0  0  0  0
  138.1491   77.6082  219.0150 H   0  0  0  0  0  0  0  0  0  0  0  0
  136.6538   78.2168  219.8610 H   0  0  0  0  0  0  0  0  0  0  0  0
  136.8350   76.0130  220.3110 H   0  0  0  0  0  0  0  0  0  0  0  0
  139.1395   76.0149  222.7776 H   0  0  0  0  0  0  0  0  0  0  0  0
  138.7910   73.8240  222.8220 H   0  0  0  0  0  0  0  0  0  0  0  0
  139.3770   73.5590  221.2780 H   0  0  0  0  0  0  0  0  0  0  0  0
  141.4697   75.7978  222.8937 H   0  0  0  0  0  0  0  0  0  0  0  0
  142.9117   74.9208  221.2855 H   0  0  0  0  0  0  0  0  0  0  0  0
  141.4814   74.3386  220.4503 H   0  0  0  0  0  0  0  0  0  0  0  0
  143.1278   75.0576  218.2376 H   0  0  0  0  0  0  0  0  0  0  0  0
  143.3865   77.0124  216.6792 H   0  0  0  0  0  0  0  0  0  0  0  0
  142.6076   79.2868  217.3822 H   0  0  0  0  0  0  0  0  0  0  0  0
  141.5701   79.6140  219.6480 H   0  0  0  0  0  0  0  0  0  0  0  0
  141.8139   78.0356  222.2472 H   0  0  0  0  0  0  0  0  0  0  0  0
  140.1954   78.0048  221.5680 H   0  0  0  0  0  0  0  0  0  0  0  0
  137.2634   75.8525  222.7183 H   0  0  0  0  0  0  0  0  0  0  0  0
  136.0807   77.1091  222.1116 H   0  0  0  0  0  0  0  0  0  0  0  0
  138.9340   77.5730  223.0790 H   0  0  0  0  0  0  0  0  0  0  0  0
  137.3910   78.1040  223.8587 H   0  0  0  0  0  0  0  0  0  0  0  0
  1  2  1  0
  2  3  1  0
  3  4  2  0
  3  5  1  0
  5  6  1  0
  6  7  2  0
  7  8  1  0
  8  9  2  0
  9 10  1  0
 10 11  2  0
  5 12  1  0
 12 13  1  0
 13 14  1  0
 14 15  1  0
 15 16  1  0
 16 17  2  0
 16 18  1  0
 18 19  1  0
 18 20  1  0
 20 21  1  0
 21 22  1  0
 22 23  2  0
 23 24  1  0
 24 25  2  0
 25 26  1  0
 26 27  2  0
 27 28  1  0
 15 29  1  0
 29 30  1  0
 11  6  1  0
 30 12  1  0
 28 20  1  0
 27 22  1  0
  1 31  1  0
  1 32  1  0
  1 33  1  0
  2 34  1  0
  2 35  1  0
  7 36  1  0
  8 37  1  0
  9 38  1  0
 10 39  1  0
 11 40  1  0
 12 41  1  6
 13 42  1  0
 13 43  1  0
 14 44  1  0
 14 45  1  0
 15 46  1  6
 18 47  1  1
 19 48  1  0
 19 49  1  0
 20 50  1  0
 21 51  1  0
 21 52  1  0
 23 53  1  0
 24 54  1  0
 25 55  1  0
 26 56  1  0
 28 57  1  0
 28 58  1  0
 29 59  1  0
 29 60  1  0
 30 61  1  0
 30 62  1  0
M  CHG  1  15   1
M  END
>  <UniqueID>  (20) 
43

>  <SMILES>  (20) 
CCC(=O)N(c1ccccc1)C1CC[NH+](C(=O)[C@@H](N)C2Cc3ccccc3C2)CC1

>  <Energy>  (20) 
78.2390549836364

>  <Genealogy>  (20) 
CCC(=O)N(c1ccccc1)C1CC[NH+](C(=O)[C@@H](N)C2Cc3ccccc3C2)CC1 (protonated)
CCC(=O)N(c1ccccc1)C1CC[NH+](C(=O)[C@@H](N)C2Cc3ccccc3C2)CC1 (3D coordinates assigned)
CCC(=O)N(c1ccccc1)C1CC[NH+](C(=O)[C@@H](N)C2Cc3ccccc3C2)CC1 (nonaromatic ring conformer: 78.2390549836364 kcal/mol)

>  <smiles>  (20) 
CCC(=O)N(c1ccccc1)C1CCN(C(=O)[C@@H](N)C2Cc3ccccc3C2)CC1

>  <score_type>  (20) 
oracle

>  <origin>  (20) 
autodockgpu

>  <m_score__min__energy>  (20) 
-8.5800000000000001

>  <m_primary>  (20) 
energy

>  <meeko>  (20) 
{"free_energy": -6.64, "intermolecular_energy": -9.02, "internal_energy": -3.11, "cluster_size": 6, "cluster_id": 7, "rank_in_cluster": 1}

>  <energy>  (20) 
-6.36

>  <cluster_rmsd>  (20) 
0.0

>  <rmsd>  (20) 
271.32

>  <cluster>  (20) 
8

$$$$
LLZHWBREMUWYMR-DZSPIUQSNA-O
     RDKit          3D

 62 65  0  0  0  0  0  0  0  0999 V2000
  143.1210   78.2810  221.3240 H   0  0  0  0  0  0  0  0  0  0  0  0
  142.2070   78.7170  221.2940 O   0  0  0  0  0  0  0  0  0  0  0  0
  141.3710   78.8510  222.4130 C   0  0  0  0  0  0  0  0  0  0  0  0
  141.8740   79.2390  223.6050 C   0  0  0  0  0  0  0  0  0  0  0  0
  141.7501   78.5685  224.4682 H   0  0  0  0  0  0  0  0  0  0  0  0
  142.5920   80.5370  223.8090 C   0  0  0  0  0  0  0  0  0  0  0  0
  142.6994   80.7312  224.8864 H   0  0  0  0  0  0  0  0  0  0  0  0
  143.5879   80.4819  223.3453 H   0  0  0  0  0  0  0  0  0  0  0  0
  142.0161   81.3514  223.3453 H   0  0  0  0  0  0  0  0  0  0  0  0
  139.9580   78.5710  222.2590 N   0  0  0  0  0  0  0  0  0  0  0  0
  138.9830   79.4840  222.7990 C   0  0  0  0  0  0  0  0  0  0  0  0
  138.0260   80.0730  221.9600 C   0  0  0  0  0  0  0  0  0  0  0  0
  138.0326   79.8552  220.8818 H   0  0  0  0  0  0  0  0  0  0  0  0
  137.0630   80.9370  222.4920 C   0  0  0  0  0  0  0  0  0  0  0  0
  136.3206   81.4073  221.8304 H   0  0  0  0  0  0  0  0  0  0  0  0
  137.0440   81.2030  223.8650 C   0  0  0  0  0  0  0  0  0  0  0  0
  136.2871   81.8835  224.2823 H   0  0  0  0  0  0  0  0  0  0  0  0
  137.9860   80.6050  224.7080 C   0  0  0  0  0  0  0  0  0  0  0  0
  137.9677   80.8119  225.7882 H   0  0  0  0  0  0  0  0  0  0  0  0
  138.9510   79.7440  224.1770 C   0  0  0  0  0  0  0  0  0  0  0  0
  139.6874   79.2690  224.8419 H   0  0  0  0  0  0  0  0  0  0  0  0
  139.5370   77.2200  221.8300 C   0  0  2  0  0  0  0  0  0  0  0  0
  139.2316   77.3006  220.7763 H   0  0  0  0  0  0  0  0  0  0  0  0
  138.3200   76.7030  222.6220 C   0  0  0  0  0  0  0  0  0  0  0  0
  138.5629   76.6947  223.6948 H   0  0  0  0  0  0  0  0  0  0  0  0
  137.4636   77.3670  222.4329 H   0  0  0  0  0  0  0  0  0  0  0  0
  137.9540   75.2790  222.1750 C   0  0  0  0  0  0  0  0  0  0  0  0
  137.1193   74.9114  222.7900 H   0  0  0  0  0  0  0  0  0  0  0  0
  137.6652   75.3059  221.1139 H   0  0  0  0  0  0  0  0  0  0  0  0
  139.1080   74.3670  222.3290 N   0  0  1  0  0  0  0  0  0  0  0  0
  139.3960   74.3680  223.3360 H   0  0  0  0  0  0  0  0  0  0  0  0
  138.7350   73.0190  221.9460 C   0  0  0  0  0  0  0  0  0  0  0  0
  137.7720   72.8350  221.2140 O   0  0  0  0  0  0  0  0  0  0  0  0
  139.5660   71.8320  222.4070 C   0  0  1  0  0  0  0  0  0  0  0  0
  139.3327   70.9844  221.7458 H   0  0  0  0  0  0  0  0  0  0  0  0
  141.0060   72.0860  222.2680 N   0  0  0  0  0  0  0  0  0  0  0  0
  141.5240   71.2230  222.5550 H   0  0  0  0  0  0  0  0  0  0  0  0
  141.2590   72.2740  221.2730 H   0  0  0  0  0  0  0  0  0  0  0  0
  139.1850   71.4130  223.8500 C   0  0  0  0  0  0  0  0  0  0  0  0
  138.3988   72.1385  224.1061 H   0  0  0  0  0  0  0  0  0  0  0  0
  138.6500   69.9600  223.9300 C   0  0  0  0  0  0  0  0  0  0  0  0
  137.5587   69.9515  224.0680 H   0  0  0  0  0  0  0  0  0  0  0  0
  138.8432   69.3850  223.0124 H   0  0  0  0  0  0  0  0  0  0  0  0
  139.3360   69.3940  225.1150 C   0  0  0  0  0  0  0  0  0  0  0  0
  139.1250   68.1340  225.6770 C   0  0  0  0  0  0  0  0  0  0  0  0
  138.3765   67.4491  225.2520 H   0  0  0  0  0  0  0  0  0  0  0  0
  139.8860   67.7570  226.7950 C   0  0  0  0  0  0  0  0  0  0  0  0
  139.7343   66.7691  227.2543 H   0  0  0  0  0  0  0  0  0  0  0  0
  140.8420   68.6400  227.3290 C   0  0  0  0  0  0  0  0  0  0  0  0
  141.4364   68.3407  228.2048 H   0  0  0  0  0  0  0  0  0  0  0  0
  141.0390   69.9000  226.7480 C   0  0  0  0  0  0  0  0  0  0  0  0
  141.7868   70.5951  227.1574 H   0  0  0  0  0  0  0  0  0  0  0  0
  140.2670   70.2570  225.6380 C   0  0  0  0  0  0  0  0  0  0  0  0
  140.3280   71.5350  224.8920 C   0  0  0  0  0  0  0  0  0  0  0  0
  140.1559   72.3890  225.5637 H   0  0  0  0  0  0  0  0  0  0  0  0
  141.3096   71.7086  224.4269 H   0  0  0  0  0  0  0  0  0  0  0  0
  140.2610   74.8220  221.5210 C   0  0  0  0  0  0  0  0  0  0  0  0
  141.0975   74.1214  221.6602 H   0  0  0  0  0  0  0  0  0  0  0  0
  139.9592   74.8538  220.4637 H   0  0  0  0  0  0  0  0  0  0  0  0
  140.7060   76.2270  221.9470 C   0  0  0  0  0  0  0  0  0  0  0  0
  141.0521   76.1964  222.9907 H   0  0  0  0  0  0  0  0  0  0  0  0
  141.5216   76.5577  221.2871 H   0  0  0  0  0  0  0  0  0  0  0  0
  1  2  1  0
  2  3  1  0
  3  4  2  0
  4  5  1  0
  4  6  1  0
  6  7  1  0
  6  8  1  0
  6  9  1  0
  3 10  1  0
 10 11  1  0
 11 12  2  0
 12 13  1  0
 12 14  1  0
 14 15  1  0
 14 16  2  0
 16 17  1  0
 16 18  1  0
 18 19  1  0
 18 20  2  0
 20 21  1  0
 10 22  1  0
 22 23  1  6
 22 24  1  0
 24 25  1  0
 24 26  1  0
 24 27  1  0
 27 28  1  0
 27 29  1  0
 27 30  1  0
 30 31  1  1
 30 32  1  0
 32 33  2  0
 32 34  1  0
 34 35  1  6
 34 36  1  0
 36 37  1  0
 36 38  1  0
 34 39  1  0
 39 40  1  0
 39 41  1  0
 41 42  1  0
 41 43  1  0
 41 44  1  0
 44 45  2  0
 45 46  1  0
 45 47  1  0
 47 48  1  0
 47 49  2  0
 49 50  1  0
 49 51  1  0
 51 52  1  0
 51 53  2  0
 53 54  1  0
 54 55  1  0
 54 56  1  0
 30 57  1  0
 57 58  1  0
 57 59  1  0
 57 60  1  0
 60 61  1  0
 60 62  1  0
 20 11  1  0
 60 22  1  0
 54 39  1  0
 53 44  1  0
M  CHG  1  30   1
M  END
>  <UniqueID>  (21) 
44

>  <SMILES>  (21) 
C/C=C(\O)N(c1ccccc1)C1CC[NH+](C(=O)[C@@H](N)C2Cc3ccccc3C2)CC1

>  <Energy>  (21) 
78.46698803806105

>  <Genealogy>  (21) 
CCC(=O)N(c1ccccc1)C1CC[NH+](C(=O)[C@@H](N)C2Cc3ccccc3C2)CC1 (protonated)
CC=C(O)N(c1ccccc1)C1CC[NH+](C(=O)[C@@H](N)C2Cc3ccccc3C2)CC1 (tautomer)
C/C=C(\O)N(c1ccccc1)C1CC[NH+](C(=O)[C@@H](N)C2Cc3ccccc3C2)CC1 (cis-trans isomerization)
C/C=C(\O)N(c1ccccc1)C1CC[NH+](C(=O)[C@@H](N)C2Cc3ccccc3C2)CC1 (3D coordinates assigned)
C/C=C(\O)N(c1ccccc1)C1CC[NH+](C(=O)[C@@H](N)C2Cc3ccccc3C2)CC1 (nonaromatic ring conformer: 78.46698803806105 kcal/mol)

>  <smiles>  (21) 
CCC(=O)N(c1ccccc1)C1CCN(C(=O)[C@@H](N)C2Cc3ccccc3C2)CC1

>  <score_type>  (21) 
oracle

>  <origin>  (21) 
autodockgpu

>  <m_score__min__energy>  (21) 
-8.9299999999999997

>  <m_primary>  (21) 
energy

>  <meeko>  (21) 
{"free_energy": -7.85, "intermolecular_energy": -10.54, "internal_energy": -1.19, "cluster_size": 1, "cluster_id": 5, "rank_in_cluster": 1}

>  <energy>  (21) 
-8.93

>  <cluster_rmsd>  (21) 
0.0

>  <rmsd>  (21) 
271.0

>  <cluster>  (21) 
1

$$$$
LLZHWBREMUWYMR-DZSPIUQSNA-O
     RDKit          3D

 62 65  0  0  0  0  0  0  0  0999 V2000
  140.4060   66.9230  225.1350 H   0  0  0  0  0  0  0  0  0  0  0  0
  139.4970   67.3630  225.0550 O   0  0  0  0  0  0  0  0  0  0  0  0
  139.1840   68.3340  224.0920 C   0  0  0  0  0  0  0  0  0  0  0  0
  138.4980   68.0020  222.9780 C   0  0  0  0  0  0  0  0  0  0  0  0
  139.0138   67.4205  222.1997 H   0  0  0  0  0  0  0  0  0  0  0  0
  137.0680   68.3870  222.7500 C   0  0  0  0  0  0  0  0  0  0  0  0
  136.5657   68.5222  223.7192 H   0  0  0  0  0  0  0  0  0  0  0  0
  137.0277   69.3280  222.1817 H   0  0  0  0  0  0  0  0  0  0  0  0
  136.5608   67.5934  222.1817 H   0  0  0  0  0  0  0  0  0  0  0  0
  139.6070   69.7000  224.3250 N   0  0  0  0  0  0  0  0  0  0  0  0
  139.8920   70.1440  225.6660 C   0  0  0  0  0  0  0  0  0  0  0  0
  139.2600   69.5350  226.7600 C   0  0  0  0  0  0  0  0  0  0  0  0
  138.5278   68.7312  226.5933 H   0  0  0  0  0  0  0  0  0  0  0  0
  139.5590   69.9480  228.0630 C   0  0  0  0  0  0  0  0  0  0  0  0
  139.0526   69.4785  228.9192 H   0  0  0  0  0  0  0  0  0  0  0  0
  140.5030   70.9590  228.2760 C   0  0  0  0  0  0  0  0  0  0  0  0
  140.7376   71.2842  229.3003 H   0  0  0  0  0  0  0  0  0  0  0  0
  141.1480   71.5560  227.1900 C   0  0  0  0  0  0  0  0  0  0  0  0
  141.8925   72.3477  227.3598 H   0  0  0  0  0  0  0  0  0  0  0  0
  140.8470   71.1470  225.8870 C   0  0  0  0  0  0  0  0  0  0  0  0
  141.3606   71.6132  225.0332 H   0  0  0  0  0  0  0  0  0  0  0  0
  139.4440   70.6960  223.2430 C   0  0  2  0  0  0  0  0  0  0  0  0
  139.3777   70.1344  222.2995 H   0  0  0  0  0  0  0  0  0  0  0  0
  140.6540   71.6440  223.1270 C   0  0  0  0  0  0  0  0  0  0  0  0
  140.8040   72.1593  224.0872 H   0  0  0  0  0  0  0  0  0  0  0  0
  141.5463   71.0537  222.8711 H   0  0  0  0  0  0  0  0  0  0  0  0
  140.4140   72.6870  222.0250 C   0  0  0  0  0  0  0  0  0  0  0  0
  141.2643   73.3843  221.9970 H   0  0  0  0  0  0  0  0  0  0  0  0
  140.3147   72.1656  221.0615 H   0  0  0  0  0  0  0  0  0  0  0  0
  139.1720   73.4470  222.2830 N   0  0  1  0  0  0  0  0  0  0  0  0
  139.2630   73.9180  223.2150 H   0  0  0  0  0  0  0  0  0  0  0  0
  138.9830   74.4580  221.2610 C   0  0  0  0  0  0  0  0  0  0  0  0
  139.1610   74.1780  220.0830 O   0  0  0  0  0  0  0  0  0  0  0  0
  138.5110   75.8540  221.6380 C   0  0  1  0  0  0  0  0  0  0  0  0
  137.6619   76.1070  220.9861 H   0  0  0  0  0  0  0  0  0  0  0  0
  138.0090   75.9070  223.0180 N   0  0  0  0  0  0  0  0  0  0  0  0
  137.3990   75.0720  223.1810 H   0  0  0  0  0  0  0  0  0  0  0  0
  138.7930   75.8480  223.7040 H   0  0  0  0  0  0  0  0  0  0  0  0
  139.6230   76.9050  221.3820 C   0  0  0  0  0  0  0  0  0  0  0  0
  139.9576   76.6526  220.3650 H   0  0  0  0  0  0  0  0  0  0  0  0
  139.0960   78.3610  221.4490 C   0  0  0  0  0  0  0  0  0  0  0  0
  139.0112   78.7937  220.4412 H   0  0  0  0  0  0  0  0  0  0  0  0
  138.0918   78.4296  221.8928 H   0  0  0  0  0  0  0  0  0  0  0  0
  140.1230   79.0730  222.2440 C   0  0  0  0  0  0  0  0  0  0  0  0
  140.1680   80.4420  222.5110 C   0  0  0  0  0  0  0  0  0  0  0  0
  139.3997   81.1171  222.1061 H   0  0  0  0  0  0  0  0  0  0  0  0
  141.2120   80.9420  223.3060 C   0  0  0  0  0  0  0  0  0  0  0  0
  141.2661   82.0180  223.5281 H   0  0  0  0  0  0  0  0  0  0  0  0
  142.1890   80.0690  223.8190 C   0  0  0  0  0  0  0  0  0  0  0  0
  143.0059   80.4644  224.4405 H   0  0  0  0  0  0  0  0  0  0  0  0
  142.1240   78.6960  223.5400 C   0  0  0  0  0  0  0  0  0  0  0  0
  142.8808   78.0057  223.9409 H   0  0  0  0  0  0  0  0  0  0  0  0
  141.0780   78.2220  222.7420 C   0  0  0  0  0  0  0  0  0  0  0  0
  140.8420   76.8160  222.3380 C   0  0  0  0  0  0  0  0  0  0  0  0
  141.7195   76.4055  221.8169 H   0  0  0  0  0  0  0  0  0  0  0  0
  140.6621   76.1514  223.1959 H   0  0  0  0  0  0  0  0  0  0  0  0
  137.9960   72.5520  222.3330 C   0  0  0  0  0  0  0  0  0  0  0  0
  137.0945   73.1518  222.5269 H   0  0  0  0  0  0  0  0  0  0  0  0
  137.9091   72.0303  221.3685 H   0  0  0  0  0  0  0  0  0  0  0  0
  138.1530   71.5060  223.4450 C   0  0  0  0  0  0  0  0  0  0  0  0
  138.1942   72.0161  224.4187 H   0  0  0  0  0  0  0  0  0  0  0  0
  137.2936   70.8201  223.4126 H   0  0  0  0  0  0  0  0  0  0  0  0
  1  2  1  0
  2  3  1  0
  3  4  2  0
  4  5  1  0
  4  6  1  0
  6  7  1  0
  6  8  1  0
  6  9  1  0
  3 10  1  0
 10 11  1  0
 11 12  2  0
 12 13  1  0
 12 14  1  0
 14 15  1  0
 14 16  2  0
 16 17  1  0
 16 18  1  0
 18 19  1  0
 18 20  2  0
 20 21  1  0
 10 22  1  0
 22 23  1  6
 22 24  1  0
 24 25  1  0
 24 26  1  0
 24 27  1  0
 27 28  1  0
 27 29  1  0
 27 30  1  0
 30 31  1  1
 30 32  1  0
 32 33  2  0
 32 34  1  0
 34 35  1  6
 34 36  1  0
 36 37  1  0
 36 38  1  0
 34 39  1  0
 39 40  1  0
 39 41  1  0
 41 42  1  0
 41 43  1  0
 41 44  1  0
 44 45  2  0
 45 46  1  0
 45 47  1  0
 47 48  1  0
 47 49  2  0
 49 50  1  0
 49 51  1  0
 51 52  1  0
 51 53  2  0
 53 54  1  0
 54 55  1  0
 54 56  1  0
 30 57  1  0
 57 58  1  0
 57 59  1  0
 57 60  1  0
 60 61  1  0
 60 62  1  0
 20 11  1  0
 60 22  1  0
 54 39  1  0
 53 44  1  0
M  CHG  1  30   1
M  END
>  <UniqueID>  (22) 
44

>  <SMILES>  (22) 
C/C=C(\O)N(c1ccccc1)C1CC[NH+](C(=O)[C@@H](N)C2Cc3ccccc3C2)CC1

>  <Energy>  (22) 
78.46698803806105

>  <Genealogy>  (22) 
CCC(=O)N(c1ccccc1)C1CC[NH+](C(=O)[C@@H](N)C2Cc3ccccc3C2)CC1 (protonated)
CC=C(O)N(c1ccccc1)C1CC[NH+](C(=O)[C@@H](N)C2Cc3ccccc3C2)CC1 (tautomer)
C/C=C(\O)N(c1ccccc1)C1CC[NH+](C(=O)[C@@H](N)C2Cc3ccccc3C2)CC1 (cis-trans isomerization)
C/C=C(\O)N(c1ccccc1)C1CC[NH+](C(=O)[C@@H](N)C2Cc3ccccc3C2)CC1 (3D coordinates assigned)
C/C=C(\O)N(c1ccccc1)C1CC[NH+](C(=O)[C@@H](N)C2Cc3ccccc3C2)CC1 (nonaromatic ring conformer: 78.46698803806105 kcal/mol)

>  <smiles>  (22) 
CCC(=O)N(c1ccccc1)C1CCN(C(=O)[C@@H](N)C2Cc3ccccc3C2)CC1

>  <score_type>  (22) 
oracle

>  <origin>  (22) 
autodockgpu

>  <m_score__min__energy>  (22) 
-8.9299999999999997

>  <m_primary>  (22) 
energy

>  <meeko>  (22) 
{"free_energy": -8.67, "intermolecular_energy": -11.35, "internal_energy": -1.28, "cluster_size": 9, "cluster_id": 2, "rank_in_cluster": 4}

>  <energy>  (22) 
-8.46

>  <cluster_rmsd>  (22) 
1.02

>  <rmsd>  (22) 
270.62

>  <cluster>  (22) 
1

$$$$
LLZHWBREMUWYMR-DZSPIUQSNA-O
     RDKit          3D

 62 65  0  0  0  0  0  0  0  0999 V2000
  145.3700   72.4730  217.9990 H   0  0  0  0  0  0  0  0  0  0  0  0
  145.7380   72.6230  218.9310 O   0  0  0  0  0  0  0  0  0  0  0  0
  145.2130   73.5590  219.8340 C   0  0  0  0  0  0  0  0  0  0  0  0
  145.9760   74.0520  220.8330 C   0  0  0  0  0  0  0  0  0  0  0  0
  146.2862   75.1061  220.7825 H   0  0  0  0  0  0  0  0  0  0  0  0
  146.4210   73.2340  222.0070 C   0  0  0  0  0  0  0  0  0  0  0  0
  146.1416   73.7476  222.9388 H   0  0  0  0  0  0  0  0  0  0  0  0
  145.9351   72.2478  221.9720 H   0  0  0  0  0  0  0  0  0  0  0  0
  147.5130   73.1062  221.9720 H   0  0  0  0  0  0  0  0  0  0  0  0
  143.8400   73.9890  219.6660 N   0  0  0  0  0  0  0  0  0  0  0  0
  143.5500   75.1840  218.9140 C   0  0  0  0  0  0  0  0  0  0  0  0
  143.4930   75.1400  217.5130 C   0  0  0  0  0  0  0  0  0  0  0  0
  143.6923   74.1962  216.9843 H   0  0  0  0  0  0  0  0  0  0  0  0
  143.1830   76.2950  216.7880 C   0  0  0  0  0  0  0  0  0  0  0  0
  143.1499   76.2615  215.6890 H   0  0  0  0  0  0  0  0  0  0  0  0
  142.9150   77.4930  217.4590 C   0  0  0  0  0  0  0  0  0  0  0  0
  142.6734   78.4011  216.8871 H   0  0  0  0  0  0  0  0  0  0  0  0
  142.9540   77.5370  218.8570 C   0  0  0  0  0  0  0  0  0  0  0  0
  142.7386   78.4780  219.3843 H   0  0  0  0  0  0  0  0  0  0  0  0
  143.2670   76.3840  219.5830 C   0  0  0  0  0  0  0  0  0  0  0  0
  143.2914   76.4179  220.6822 H   0  0  0  0  0  0  0  0  0  0  0  0
  142.7900   73.3840  220.5130 C   0  0  2  0  0  0  0  0  0  0  0  0
  143.1102   73.5117  221.5576 H   0  0  0  0  0  0  0  0  0  0  0  0
  142.6310   71.8710  220.2640 C   0  0  0  0  0  0  0  0  0  0  0  0
  142.3968   71.7011  219.2027 H   0  0  0  0  0  0  0  0  0  0  0  0
  143.5710   71.3653  220.5297 H   0  0  0  0  0  0  0  0  0  0  0  0
  141.4970   71.3010  221.1300 C   0  0  0  0  0  0  0  0  0  0  0  0
  141.3658   70.2343  220.8957 H   0  0  0  0  0  0  0  0  0  0  0  0
  141.7634   71.4307  222.1894 H   0  0  0  0  0  0  0  0  0  0  0  0
  140.2280   72.0140  220.8700 N   0  0  1  0  0  0  0  0  0  0  0  0
  139.9950   71.9110  219.8540 H   0  0  0  0  0  0  0  0  0  0  0  0
  139.1580   71.4360  221.6600 C   0  0  0  0  0  0  0  0  0  0  0  0
  138.3300   70.7080  221.1290 O   0  0  0  0  0  0  0  0  0  0  0  0
  139.0860   71.6880  223.1580 C   0  0  1  0  0  0  0  0  0  0  0  0
  139.3676   72.7366  223.3346 H   0  0  0  0  0  0  0  0  0  0  0  0
  137.7200   71.5310  223.6740 N   0  0  0  0  0  0  0  0  0  0  0  0
  137.3480   72.4770  223.9210 H   0  0  0  0  0  0  0  0  0  0  0  0
  137.0870   71.1370  222.9440 H   0  0  0  0  0  0  0  0  0  0  0  0
  140.1030   70.7980  223.9200 C   0  0  0  0  0  0  0  0  0  0  0  0
  140.9065   70.6701  223.1798 H   0  0  0  0  0  0  0  0  0  0  0  0
  140.6360   71.4710  225.2110 C   0  0  0  0  0  0  0  0  0  0  0  0
  141.6658   71.8306  225.0689 H   0  0  0  0  0  0  0  0  0  0  0  0
  140.0466   72.3517  225.5059 H   0  0  0  0  0  0  0  0  0  0  0  0
  140.5900   70.3870  226.2200 C   0  0  0  0  0  0  0  0  0  0  0  0
  141.0590   70.4520  227.5330 C   0  0  0  0  0  0  0  0  0  0  0  0
  141.5339   71.3682  227.9138 H   0  0  0  0  0  0  0  0  0  0  0  0
  140.9130   69.3250  228.3590 C   0  0  0  0  0  0  0  0  0  0  0  0
  141.2773   69.3539  229.3965 H   0  0  0  0  0  0  0  0  0  0  0  0
  140.3020   68.1600  227.8620 C   0  0  0  0  0  0  0  0  0  0  0  0
  140.1883   67.2801  228.5123 H   0  0  0  0  0  0  0  0  0  0  0  0
  139.8370   68.1170  226.5390 C   0  0  0  0  0  0  0  0  0  0  0  0
  139.3552   67.2109  226.1431 H   0  0  0  0  0  0  0  0  0  0  0  0
  139.9980   69.2480  225.7340 C   0  0  0  0  0  0  0  0  0  0  0  0
  139.5750   69.3950  224.3220 C   0  0  0  0  0  0  0  0  0  0  0  0
  140.0261   68.6122  223.6945 H   0  0  0  0  0  0  0  0  0  0  0  0
  138.4871   69.2972  224.1920 H   0  0  0  0  0  0  0  0  0  0  0  0
  140.3530   73.4570  221.1680 C   0  0  0  0  0  0  0  0  0  0  0  0
  139.3924   73.9522  220.9627 H   0  0  0  0  0  0  0  0  0  0  0  0
  140.6266   73.5759  222.2268 H   0  0  0  0  0  0  0  0  0  0  0  0
  141.4460   74.1000  220.3020 C   0  0  0  0  0  0  0  0  0  0  0  0
  141.1588   74.0263  219.2427 H   0  0  0  0  0  0  0  0  0  0  0  0
  141.5554   75.1553  220.5924 H   0  0  0  0  0  0  0  0  0  0  0  0
  1  2  1  0
  2  3  1  0
  3  4  2  0
  4  5  1  0
  4  6  1  0
  6  7  1  0
  6  8  1  0
  6  9  1  0
  3 10  1  0
 10 11  1  0
 11 12  2  0
 12 13  1  0
 12 14  1  0
 14 15  1  0
 14 16  2  0
 16 17  1  0
 16 18  1  0
 18 19  1  0
 18 20  2  0
 20 21  1  0
 10 22  1  0
 22 23  1  1
 22 24  1  0
 24 25  1  0
 24 26  1  0
 24 27  1  0
 27 28  1  0
 27 29  1  0
 27 30  1  0
 30 31  1  6
 30 32  1  0
 32 33  2  0
 32 34  1  0
 34 35  1  6
 34 36  1  0
 36 37  1  0
 36 38  1  0
 34 39  1  0
 39 40  1  0
 39 41  1  0
 41 42  1  0
 41 43  1  0
 41 44  1  0
 44 45  2  0
 45 46  1  0
 45 47  1  0
 47 48  1  0
 47 49  2  0
 49 50  1  0
 49 51  1  0
 51 52  1  0
 51 53  2  0
 53 54  1  0
 54 55  1  0
 54 56  1  0
 30 57  1  0
 57 58  1  0
 57 59  1  0
 57 60  1  0
 60 61  1  0
 60 62  1  0
 20 11  1  0
 60 22  1  0
 54 39  1  0
 53 44  1  0
M  CHG  1  30   1
M  END
>  <UniqueID>  (23) 
44

>  <SMILES>  (23) 
C/C=C(\O)N(c1ccccc1)C1CC[NH+](C(=O)[C@@H](N)C2Cc3ccccc3C2)CC1

>  <Energy>  (23) 
78.46698803806105

>  <Genealogy>  (23) 
CCC(=O)N(c1ccccc1)C1CC[NH+](C(=O)[C@@H](N)C2Cc3ccccc3C2)CC1 (protonated)
CC=C(O)N(c1ccccc1)C1CC[NH+](C(=O)[C@@H](N)C2Cc3ccccc3C2)CC1 (tautomer)
C/C=C(\O)N(c1ccccc1)C1CC[NH+](C(=O)[C@@H](N)C2Cc3ccccc3C2)CC1 (cis-trans isomerization)
C/C=C(\O)N(c1ccccc1)C1CC[NH+](C(=O)[C@@H](N)C2Cc3ccccc3C2)CC1 (3D coordinates assigned)
C/C=C(\O)N(c1ccccc1)C1CC[NH+](C(=O)[C@@H](N)C2Cc3ccccc3C2)CC1 (nonaromatic ring conformer: 78.46698803806105 kcal/mol)

>  <smiles>  (23) 
CCC(=O)N(c1ccccc1)C1CCN(C(=O)[C@@H](N)C2Cc3ccccc3C2)CC1

>  <score_type>  (23) 
oracle

>  <origin>  (23) 
autodockgpu

>  <m_score__min__energy>  (23) 
-8.9299999999999997

>  <m_primary>  (23) 
energy

>  <meeko>  (23) 
{"free_energy": -7.86, "intermolecular_energy": -10.55, "internal_energy": -1.75, "cluster_size": 1, "cluster_id": 4, "rank_in_cluster": 1}

>  <energy>  (23) 
-7.99

>  <cluster_rmsd>  (23) 
1.35

>  <rmsd>  (23) 
270.94

>  <cluster>  (23) 
1

$$$$
LLZHWBREMUWYMR-DZSPIUQSNA-O
     RDKit          3D

 62 65  0  0  0  0  0  0  0  0999 V2000
  140.5020   66.9710  225.1460 H   0  0  0  0  0  0  0  0  0  0  0  0
  139.5830   67.3940  225.1080 O   0  0  0  0  0  0  0  0  0  0  0  0
  139.1830   68.2990  224.1130 C   0  0  0  0  0  0  0  0  0  0  0  0
  138.5080   67.8720  223.0250 C   0  0  0  0  0  0  0  0  0  0  0  0
  137.6812   68.4907  222.6461 H   0  0  0  0  0  0  0  0  0  0  0  0
  138.8300   66.5960  222.3080 C   0  0  0  0  0  0  0  0  0  0  0  0
  139.0302   65.8027  223.0433 H   0  0  0  0  0  0  0  0  0  0  0  0
  137.9772   66.3046  221.6772 H   0  0  0  0  0  0  0  0  0  0  0  0
  139.7189   66.7441  221.6772 H   0  0  0  0  0  0  0  0  0  0  0  0
  139.5050   69.7020  224.2840 N   0  0  0  0  0  0  0  0  0  0  0  0
  139.8620   70.2010  225.5880 C   0  0  0  0  0  0  0  0  0  0  0  0
  139.3150   69.6180  226.7410 C   0  0  0  0  0  0  0  0  0  0  0  0
  138.5948   68.7916  226.6497 H   0  0  0  0  0  0  0  0  0  0  0  0
  139.6840   70.0860  228.0060 C   0  0  0  0  0  0  0  0  0  0  0  0
  139.2448   69.6359  228.9085 H   0  0  0  0  0  0  0  0  0  0  0  0
  140.6120   71.1270  228.1240 C   0  0  0  0  0  0  0  0  0  0  0  0
  140.9010   71.4954  229.1194 H   0  0  0  0  0  0  0  0  0  0  0  0
  141.1720   71.6990  226.9780 C   0  0  0  0  0  0  0  0  0  0  0  0
  141.9046   72.5142  227.0719 H   0  0  0  0  0  0  0  0  0  0  0  0
  140.8010   71.2350  225.7130 C   0  0  0  0  0  0  0  0  0  0  0  0
  141.2470   71.6823  224.8125 H   0  0  0  0  0  0  0  0  0  0  0  0
  139.1670   70.6520  223.2030 C   0  0  2  0  0  0  0  0  0  0  0  0
  138.9914   70.0543  222.2964 H   0  0  0  0  0  0  0  0  0  0  0  0
  140.3210   71.6270  222.8930 C   0  0  0  0  0  0  0  0  0  0  0  0
  140.5828   72.1807  223.8067 H   0  0  0  0  0  0  0  0  0  0  0  0
  141.1884   71.0512  222.5378 H   0  0  0  0  0  0  0  0  0  0  0  0
  139.9030   72.6230  221.8000 C   0  0  0  0  0  0  0  0  0  0  0  0
  140.7197   73.3411  221.6350 H   0  0  0  0  0  0  0  0  0  0  0  0
  139.6918   72.0647  220.8761 H   0  0  0  0  0  0  0  0  0  0  0  0
  138.6830   73.3590  222.1990 N   0  0  1  0  0  0  0  0  0  0  0  0
  138.8830   73.8660  223.0950 H   0  0  0  0  0  0  0  0  0  0  0  0
  138.3270   74.3270  221.1800 C   0  0  0  0  0  0  0  0  0  0  0  0
  137.2730   74.2110  220.5690 O   0  0  0  0  0  0  0  0  0  0  0  0
  139.2310   75.5170  220.9000 C   0  0  1  0  0  0  0  0  0  0  0  0
  140.1775   75.1291  220.4953 H   0  0  0  0  0  0  0  0  0  0  0  0
  138.6690   76.4010  219.8700 N   0  0  0  0  0  0  0  0  0  0  0  0
  139.2310   76.2910  218.9950 H   0  0  0  0  0  0  0  0  0  0  0  0
  137.6890   76.1280  219.6370 H   0  0  0  0  0  0  0  0  0  0  0  0
  139.5640   76.2820  222.2070 C   0  0  0  0  0  0  0  0  0  0  0  0
  139.3103   75.5454  222.9836 H   0  0  0  0  0  0  0  0  0  0  0  0
  141.0560   76.6930  222.2960 C   0  0  0  0  0  0  0  0  0  0  0  0
  141.5972   76.0516  223.0071 H   0  0  0  0  0  0  0  0  0  0  0  0
  141.5827   76.5913  221.3357 H   0  0  0  0  0  0  0  0  0  0  0  0
  141.0100   78.0930  222.7780 C   0  0  0  0  0  0  0  0  0  0  0  0
  142.1020   78.8930  223.1180 C   0  0  0  0  0  0  0  0  0  0  0  0
  143.1267   78.4976  223.0573 H   0  0  0  0  0  0  0  0  0  0  0  0
  141.8680   80.2120  223.5390 C   0  0  0  0  0  0  0  0  0  0  0  0
  142.7144   80.8589  223.8131 H   0  0  0  0  0  0  0  0  0  0  0  0
  140.5530   80.7080  223.6110 C   0  0  0  0  0  0  0  0  0  0  0  0
  140.3736   81.7419  223.9409 H   0  0  0  0  0  0  0  0  0  0  0  0
  139.4710   79.8870  223.2630 C   0  0  0  0  0  0  0  0  0  0  0  0
  138.4401   80.2676  223.3125 H   0  0  0  0  0  0  0  0  0  0  0  0
  139.7270   78.5760  222.8520 C   0  0  0  0  0  0  0  0  0  0  0  0
  138.7230   77.5640  222.4480 C   0  0  0  0  0  0  0  0  0  0  0  0
  137.9849   77.4036  223.2476 H   0  0  0  0  0  0  0  0  0  0  0  0
  138.1470   77.8673  221.5613 H   0  0  0  0  0  0  0  0  0  0  0  0
  137.5530   72.4350  222.4360 C   0  0  0  0  0  0  0  0  0  0  0  0
  136.6669   73.0170  222.7295 H   0  0  0  0  0  0  0  0  0  0  0  0
  137.3549   71.8760  221.5096 H   0  0  0  0  0  0  0  0  0  0  0  0
  137.8900   71.4350  223.5510 C   0  0  0  0  0  0  0  0  0  0  0  0
  138.0456   71.9816  224.4928 H   0  0  0  0  0  0  0  0  0  0  0  0
  137.0556   70.7262  223.6579 H   0  0  0  0  0  0  0  0  0  0  0  0
  1  2  1  0
  2  3  1  0
  3  4  2  0
  4  5  1  0
  4  6  1  0
  6  7  1  0
  6  8  1  0
  6  9  1  0
  3 10  1  0
 10 11  1  0
 11 12  2  0
 12 13  1  0
 12 14  1  0
 14 15  1  0
 14 16  2  0
 16 17  1  0
 16 18  1  0
 18 19  1  0
 18 20  2  0
 20 21  1  0
 10 22  1  0
 22 23  1  6
 22 24  1  0
 24 25  1  0
 24 26  1  0
 24 27  1  0
 27 28  1  0
 27 29  1  0
 27 30  1  0
 30 31  1  1
 30 32  1  0
 32 33  2  0
 32 34  1  0
 34 35  1  6
 34 36  1  0
 36 37  1  0
 36 38  1  0
 34 39  1  0
 39 40  1  0
 39 41  1  0
 41 42  1  0
 41 43  1  0
 41 44  1  0
 44 45  2  0
 45 46  1  0
 45 47  1  0
 47 48  1  0
 47 49  2  0
 49 50  1  0
 49 51  1  0
 51 52  1  0
 51 53  2  0
 53 54  1  0
 54 55  1  0
 54 56  1  0
 30 57  1  0
 57 58  1  0
 57 59  1  0
 57 60  1  0
 60 61  1  0
 60 62  1  0
 20 11  1  0
 60 22  1  0
 54 39  1  0
 53 44  1  0
M  CHG  1  30   1
M  END
>  <UniqueID>  (24) 
44

>  <SMILES>  (24) 
C/C=C(\O)N(c1ccccc1)C1CC[NH+](C(=O)[C@@H](N)C2Cc3ccccc3C2)CC1

>  <Energy>  (24) 
78.46698803806105

>  <Genealogy>  (24) 
CCC(=O)N(c1ccccc1)C1CC[NH+](C(=O)[C@@H](N)C2Cc3ccccc3C2)CC1 (protonated)
CC=C(O)N(c1ccccc1)C1CC[NH+](C(=O)[C@@H](N)C2Cc3ccccc3C2)CC1 (tautomer)
C/C=C(\O)N(c1ccccc1)C1CC[NH+](C(=O)[C@@H](N)C2Cc3ccccc3C2)CC1 (cis-trans isomerization)
C/C=C(\O)N(c1ccccc1)C1CC[NH+](C(=O)[C@@H](N)C2Cc3ccccc3C2)CC1 (3D coordinates assigned)
C/C=C(\O)N(c1ccccc1)C1CC[NH+](C(=O)[C@@H](N)C2Cc3ccccc3C2)CC1 (nonaromatic ring conformer: 78.46698803806105 kcal/mol)

>  <smiles>  (24) 
CCC(=O)N(c1ccccc1)C1CCN(C(=O)[C@@H](N)C2Cc3ccccc3C2)CC1

>  <score_type>  (24) 
oracle

>  <origin>  (24) 
autodockgpu

>  <m_score__min__energy>  (24) 
-8.9299999999999997

>  <m_primary>  (24) 
energy

>  <meeko>  (24) 
{"free_energy": -8.19, "intermolecular_energy": -10.88, "internal_energy": -1.58, "cluster_size": 9, "cluster_id": 2, "rank_in_cluster": 6}

>  <energy>  (24) 
-8.87

>  <cluster_rmsd>  (24) 
0.0

>  <rmsd>  (24) 
271.17

>  <cluster>  (24) 
2

$$$$
LLZHWBREMUWYMR-DZSPIUQSNA-O
     RDKit          3D

 62 65  0  0  0  0  0  0  0  0999 V2000
  146.2860   74.2130  217.5860 H   0  0  0  0  0  0  0  0  0  0  0  0
  146.3170   73.3140  218.0510 O   0  0  0  0  0  0  0  0  0  0  0  0
  145.9140   73.1090  219.3790 C   0  0  0  0  0  0  0  0  0  0  0  0
  146.5640   73.7130  220.3970 C   0  0  0  0  0  0  0  0  0  0  0  0
  147.3151   74.4796  220.1559 H   0  0  0  0  0  0  0  0  0  0  0  0
  146.3130   73.3910  221.8380 C   0  0  0  0  0  0  0  0  0  0  0  0
  146.8650   74.0991  222.4735 H   0  0  0  0  0  0  0  0  0  0  0  0
  145.2365   73.4708  222.0494 H   0  0  0  0  0  0  0  0  0  0  0  0
  146.6532   72.3665  222.0494 H   0  0  0  0  0  0  0  0  0  0  0  0
  144.7800   72.2430  219.6320 N   0  0  0  0  0  0  0  0  0  0  0  0
  144.8930   70.8270  219.3910 C   0  0  0  0  0  0  0  0  0  0  0  0
  143.7560   70.0070  219.4570 C   0  0  0  0  0  0  0  0  0  0  0  0
  142.7793   70.4422  219.7151 H   0  0  0  0  0  0  0  0  0  0  0  0
  143.8630   68.6370  219.1950 C   0  0  0  0  0  0  0  0  0  0  0  0
  142.9730   67.9937  219.2587 H   0  0  0  0  0  0  0  0  0  0  0  0
  145.1020   68.0850  218.8520 C   0  0  0  0  0  0  0  0  0  0  0  0
  145.1855   67.0074  218.6474 H   0  0  0  0  0  0  0  0  0  0  0  0
  146.2340   68.9010  218.7690 C   0  0  0  0  0  0  0  0  0  0  0  0
  147.2068   68.4665  218.4954 H   0  0  0  0  0  0  0  0  0  0  0  0
  146.1290   70.2700  219.0340 C   0  0  0  0  0  0  0  0  0  0  0  0
  147.0193   70.9121  218.9621 H   0  0  0  0  0  0  0  0  0  0  0  0
  143.4460   72.8480  219.8320 C   0  0  2  0  0  0  0  0  0  0  0  0
  142.7889   72.4359  219.0520 H   0  0  0  0  0  0  0  0  0  0  0  0
  143.4600   74.3790  219.6560 C   0  0  0  0  0  0  0  0  0  0  0  0
  144.1780   74.8184  220.3641 H   0  0  0  0  0  0  0  0  0  0  0  0
  143.7538   74.6162  218.6228 H   0  0  0  0  0  0  0  0  0  0  0  0
  142.0640   74.9630  219.9230 C   0  0  0  0  0  0  0  0  0  0  0  0
  142.1109   76.0592  219.8452 H   0  0  0  0  0  0  0  0  0  0  0  0
  141.3635   74.5557  219.1791 H   0  0  0  0  0  0  0  0  0  0  0  0
  141.5890   74.5930  221.2730 N   0  0  1  0  0  0  0  0  0  0  0  0
  142.2750   74.9590  221.9750 H   0  0  0  0  0  0  0  0  0  0  0  0
  140.2910   75.1880  221.5280 C   0  0  0  0  0  0  0  0  0  0  0  0
  139.4610   74.5830  222.1930 O   0  0  0  0  0  0  0  0  0  0  0  0
  139.9730   76.5840  221.0180 C   0  0  1  0  0  0  0  0  0  0  0  0
  139.8425   76.5186  219.9277 H   0  0  0  0  0  0  0  0  0  0  0  0
  138.7050   77.0890  221.5620 N   0  0  0  0  0  0  0  0  0  0  0  0
  138.3700   76.4230  222.2970 H   0  0  0  0  0  0  0  0  0  0  0  0
  138.8400   78.0130  222.0290 H   0  0  0  0  0  0  0  0  0  0  0  0
  141.1500   77.5570  221.2870 C   0  0  0  0  0  0  0  0  0  0  0  0
  142.0179   76.9799  220.9355 H   0  0  0  0  0  0  0  0  0  0  0  0
  141.0150   78.8900  220.5070 C   0  0  0  0  0  0  0  0  0  0  0  0
  141.7116   78.9183  219.6561 H   0  0  0  0  0  0  0  0  0  0  0  0
  140.0112   79.0333  220.0805 H   0  0  0  0  0  0  0  0  0  0  0  0
  141.3640   79.9230  221.5090 C   0  0  0  0  0  0  0  0  0  0  0  0
  141.4890   81.2950  221.2820 C   0  0  0  0  0  0  0  0  0  0  0  0
  141.3389   81.7124  220.2754 H   0  0  0  0  0  0  0  0  0  0  0  0
  141.8100   82.1320  222.3630 C   0  0  0  0  0  0  0  0  0  0  0  0
  141.9147   83.2156  222.2056 H   0  0  0  0  0  0  0  0  0  0  0  0
  141.9980   81.5880  223.6470 C   0  0  0  0  0  0  0  0  0  0  0  0
  142.2490   82.2473  224.4910 H   0  0  0  0  0  0  0  0  0  0  0  0
  141.8660   80.2070  223.8530 C   0  0  0  0  0  0  0  0  0  0  0  0
  142.0067   79.7734  224.8541 H   0  0  0  0  0  0  0  0  0  0  0  0
  141.5520   79.3920  222.7610 C   0  0  0  0  0  0  0  0  0  0  0  0
  141.3720   77.9220  222.7790 C   0  0  0  0  0  0  0  0  0  0  0  0
  142.2683   77.4224  223.1753 H   0  0  0  0  0  0  0  0  0  0  0  0
  140.5389   77.6036  223.4230 H   0  0  0  0  0  0  0  0  0  0  0  0
  141.5110   73.1240  221.4300 C   0  0  0  0  0  0  0  0  0  0  0  0
  141.1552   72.8883  222.4438 H   0  0  0  0  0  0  0  0  0  0  0  0
  140.8148   72.7259  220.6771 H   0  0  0  0  0  0  0  0  0  0  0  0
  142.8870   72.4780  221.2170 C   0  0  0  0  0  0  0  0  0  0  0  0
  143.5789   72.8349  221.9941 H   0  0  0  0  0  0  0  0  0  0  0  0
  142.7807   71.3848  221.2779 H   0  0  0  0  0  0  0  0  0  0  0  0
  1  2  1  0
  2  3  1  0
  3  4  2  0
  4  5  1  0
  4  6  1  0
  6  7  1  0
  6  8  1  0
  6  9  1  0
  3 10  1  0
 10 11  1  0
 11 12  2  0
 12 13  1  0
 12 14  1  0
 14 15  1  0
 14 16  2  0
 16 17  1  0
 16 18  1  0
 18 19  1  0
 18 20  2  0
 20 21  1  0
 10 22  1  0
 22 23  1  6
 22 24  1  0
 24 25  1  0
 24 26  1  0
 24 27  1  0
 27 28  1  0
 27 29  1  0
 27 30  1  0
 30 31  1  1
 30 32  1  0
 32 33  2  0
 32 34  1  0
 34 35  1  6
 34 36  1  0
 36 37  1  0
 36 38  1  0
 34 39  1  0
 39 40  1  0
 39 41  1  0
 41 42  1  0
 41 43  1  0
 41 44  1  0
 44 45  2  0
 45 46  1  0
 45 47  1  0
 47 48  1  0
 47 49  2  0
 49 50  1  0
 49 51  1  0
 51 52  1  0
 51 53  2  0
 53 54  1  0
 54 55  1  0
 54 56  1  0
 30 57  1  0
 57 58  1  0
 57 59  1  0
 57 60  1  0
 60 61  1  0
 60 62  1  0
 20 11  1  0
 60 22  1  0
 54 39  1  0
 53 44  1  0
M  CHG  1  30   1
M  END
>  <UniqueID>  (25) 
44

>  <SMILES>  (25) 
C/C=C(\O)N(c1ccccc1)C1CC[NH+](C(=O)[C@@H](N)C2Cc3ccccc3C2)CC1

>  <Energy>  (25) 
78.46698803806105

>  <Genealogy>  (25) 
CCC(=O)N(c1ccccc1)C1CC[NH+](C(=O)[C@@H](N)C2Cc3ccccc3C2)CC1 (protonated)
CC=C(O)N(c1ccccc1)C1CC[NH+](C(=O)[C@@H](N)C2Cc3ccccc3C2)CC1 (tautomer)
C/C=C(\O)N(c1ccccc1)C1CC[NH+](C(=O)[C@@H](N)C2Cc3ccccc3C2)CC1 (cis-trans isomerization)
C/C=C(\O)N(c1ccccc1)C1CC[NH+](C(=O)[C@@H](N)C2Cc3ccccc3C2)CC1 (3D coordinates assigned)
C/C=C(\O)N(c1ccccc1)C1CC[NH+](C(=O)[C@@H](N)C2Cc3ccccc3C2)CC1 (nonaromatic ring conformer: 78.46698803806105 kcal/mol)

>  <smiles>  (25) 
CCC(=O)N(c1ccccc1)C1CCN(C(=O)[C@@H](N)C2Cc3ccccc3C2)CC1

>  <score_type>  (25) 
oracle

>  <origin>  (25) 
autodockgpu

>  <m_score__min__energy>  (25) 
-8.9299999999999997

>  <m_primary>  (25) 
energy

>  <meeko>  (25) 
{"free_energy": -7.99, "intermolecular_energy": -10.67, "internal_energy": -1.82, "cluster_size": 3, "cluster_id": 1, "rank_in_cluster": 3}

>  <energy>  (25) 
-8.81

>  <cluster_rmsd>  (25) 
0.3

>  <rmsd>  (25) 
271.22

>  <cluster>  (25) 
2

$$$$
LLZHWBREMUWYMR-DZSPIUQSNA-O
     RDKit          3D

 62 65  0  0  0  0  0  0  0  0999 V2000
  136.6310   67.3070  222.7570 H   0  0  0  0  0  0  0  0  0  0  0  0
  136.4820   68.2980  222.9010 O   0  0  0  0  0  0  0  0  0  0  0  0
  136.9240   68.9960  224.0350 C   0  0  0  0  0  0  0  0  0  0  0  0
  136.0650   69.3100  225.0280 C   0  0  0  0  0  0  0  0  0  0  0  0
  136.1051   68.7248  225.9586 H   0  0  0  0  0  0  0  0  0  0  0  0
  135.0600   70.4160  224.9250 C   0  0  0  0  0  0  0  0  0  0  0  0
  134.7660   70.7395  225.9344 H   0  0  0  0  0  0  0  0  0  0  0  0
  135.5027   71.2643  224.3825 H   0  0  0  0  0  0  0  0  0  0  0  0
  134.1733   70.0563  224.3825 H   0  0  0  0  0  0  0  0  0  0  0  0
  138.3230   69.3650  224.1180 N   0  0  0  0  0  0  0  0  0  0  0  0
  139.0860   69.0190  225.2900 C   0  0  0  0  0  0  0  0  0  0  0  0
  139.2310   69.9420  226.3370 C   0  0  0  0  0  0  0  0  0  0  0  0
  138.7799   70.9418  226.2539 H   0  0  0  0  0  0  0  0  0  0  0  0
  139.9480   69.5930  227.4860 C   0  0  0  0  0  0  0  0  0  0  0  0
  140.0701   70.3222  228.3004 H   0  0  0  0  0  0  0  0  0  0  0  0
  140.5100   68.3170  227.6000 C   0  0  0  0  0  0  0  0  0  0  0  0
  141.0750   68.0440  228.5035 H   0  0  0  0  0  0  0  0  0  0  0  0
  140.3540   67.3880  226.5660 C   0  0  0  0  0  0  0  0  0  0  0  0
  140.7927   66.3835  226.6583 H   0  0  0  0  0  0  0  0  0  0  0  0
  139.6410   67.7360  225.4160 C   0  0  0  0  0  0  0  0  0  0  0  0
  139.5142   67.0020  224.6066 H   0  0  0  0  0  0  0  0  0  0  0  0
  138.8640   70.3480  223.1560 C   0  0  2  0  0  0  0  0  0  0  0  0
  139.1341   69.7894  222.2477 H   0  0  0  0  0  0  0  0  0  0  0  0
  140.1460   71.0330  223.6710 C   0  0  0  0  0  0  0  0  0  0  0  0
  139.9319   71.5292  224.6291 H   0  0  0  0  0  0  0  0  0  0  0  0
  140.9278   70.2711  223.8061 H   0  0  0  0  0  0  0  0  0  0  0  0
  140.6390   72.0790  222.6580 C   0  0  0  0  0  0  0  0  0  0  0  0
  141.5204   72.5925  223.0697 H   0  0  0  0  0  0  0  0  0  0  0  0
  140.8982   71.5667  221.7197 H   0  0  0  0  0  0  0  0  0  0  0  0
  139.5840   73.0760  222.3780 N   0  0  1  0  0  0  0  0  0  0  0  0
  139.3220   73.5400  223.2800 H   0  0  0  0  0  0  0  0  0  0  0  0
  140.0790   74.0820  221.4570 C   0  0  0  0  0  0  0  0  0  0  0  0
  140.8020   73.7550  220.5260 O   0  0  0  0  0  0  0  0  0  0  0  0
  139.6610   75.5360  221.6090 C   0  0  1  0  0  0  0  0  0  0  0  0
  139.1055   75.8202  220.7031 H   0  0  0  0  0  0  0  0  0  0  0  0
  138.7420   75.7250  222.7390 N   0  0  0  0  0  0  0  0  0  0  0  0
  138.0410   74.9470  222.7310 H   0  0  0  0  0  0  0  0  0  0  0  0
  139.2500   75.6660  223.6490 H   0  0  0  0  0  0  0  0  0  0  0  0
  140.9000   76.4640  221.7040 C   0  0  0  0  0  0  0  0  0  0  0  0
  141.7341   75.7621  221.5567 H   0  0  0  0  0  0  0  0  0  0  0  0
  140.9030   77.5690  220.6160 C   0  0  0  0  0  0  0  0  0  0  0  0
  141.6343   77.3402  219.8268 H   0  0  0  0  0  0  0  0  0  0  0  0
  139.9326   77.6689  220.1078 H   0  0  0  0  0  0  0  0  0  0  0  0
  141.2910   78.7920  221.3570 C   0  0  0  0  0  0  0  0  0  0  0  0
  141.5340   80.0530  220.8110 C   0  0  0  0  0  0  0  0  0  0  0  0
  141.4598   80.2170  219.7258 H   0  0  0  0  0  0  0  0  0  0  0  0
  141.8750   81.1090  221.6720 C   0  0  0  0  0  0  0  0  0  0  0  0
  142.0727   82.1104  221.2620 H   0  0  0  0  0  0  0  0  0  0  0  0
  141.9640   80.8870  223.0590 C   0  0  0  0  0  0  0  0  0  0  0  0
  142.2304   81.7159  223.7313 H   0  0  0  0  0  0  0  0  0  0  0  0
  141.7140   79.6120  223.5860 C   0  0  0  0  0  0  0  0  0  0  0  0
  141.7772   79.4311  224.6692 H   0  0  0  0  0  0  0  0  0  0  0  0
  141.3830   78.5750  222.7090 C   0  0  0  0  0  0  0  0  0  0  0  0
  141.0870   77.1700  223.0730 C   0  0  0  0  0  0  0  0  0  0  0  0
  141.9236   76.7255  223.6320 H   0  0  0  0  0  0  0  0  0  0  0  0
  140.2052   77.0761  223.7238 H   0  0  0  0  0  0  0  0  0  0  0  0
  138.3730   72.4340  221.8230 C   0  0  0  0  0  0  0  0  0  0  0  0
  137.6135   73.2054  221.6276 H   0  0  0  0  0  0  0  0  0  0  0  0
  138.6442   71.9179  220.8902 H   0  0  0  0  0  0  0  0  0  0  0  0
  137.8020   71.4040  222.8060 C   0  0  0  0  0  0  0  0  0  0  0  0
  137.4855   71.9179  223.7256 H   0  0  0  0  0  0  0  0  0  0  0  0
  136.9425   70.9027  222.3370 H   0  0  0  0  0  0  0  0  0  0  0  0
  1  2  1  0
  2  3  1  0
  3  4  2  0
  4  5  1  0
  4  6  1  0
  6  7  1  0
  6  8  1  0
  6  9  1  0
  3 10  1  0
 10 11  1  0
 11 12  2  0
 12 13  1  0
 12 14  1  0
 14 15  1  0
 14 16  2  0
 16 17  1  0
 16 18  1  0
 18 19  1  0
 18 20  2  0
 20 21  1  0
 10 22  1  0
 22 23  1  6
 22 24  1  0
 24 25  1  0
 24 26  1  0
 24 27  1  0
 27 28  1  0
 27 29  1  0
 27 30  1  0
 30 31  1  1
 30 32  1  0
 32 33  2  0
 32 34  1  0
 34 35  1  6
 34 36  1  0
 36 37  1  0
 36 38  1  0
 34 39  1  0
 39 40  1  0
 39 41  1  0
 41 42  1  0
 41 43  1  0
 41 44  1  0
 44 45  2  0
 45 46  1  0
 45 47  1  0
 47 48  1  0
 47 49  2  0
 49 50  1  0
 49 51  1  0
 51 52  1  0
 51 53  2  0
 53 54  1  0
 54 55  1  0
 54 56  1  0
 30 57  1  0
 57 58  1  0
 57 59  1  0
 57 60  1  0
 60 61  1  0
 60 62  1  0
 20 11  1  0
 60 22  1  0
 54 39  1  0
 53 44  1  0
M  CHG  1  30   1
M  END
>  <UniqueID>  (26) 
44

>  <SMILES>  (26) 
C/C=C(\O)N(c1ccccc1)C1CC[NH+](C(=O)[C@@H](N)C2Cc3ccccc3C2)CC1

>  <Energy>  (26) 
78.46698803806105

>  <Genealogy>  (26) 
CCC(=O)N(c1ccccc1)C1CC[NH+](C(=O)[C@@H](N)C2Cc3ccccc3C2)CC1 (protonated)
CC=C(O)N(c1ccccc1)C1CC[NH+](C(=O)[C@@H](N)C2Cc3ccccc3C2)CC1 (tautomer)
C/C=C(\O)N(c1ccccc1)C1CC[NH+](C(=O)[C@@H](N)C2Cc3ccccc3C2)CC1 (cis-trans isomerization)
C/C=C(\O)N(c1ccccc1)C1CC[NH+](C(=O)[C@@H](N)C2Cc3ccccc3C2)CC1 (3D coordinates assigned)
C/C=C(\O)N(c1ccccc1)C1CC[NH+](C(=O)[C@@H](N)C2Cc3ccccc3C2)CC1 (nonaromatic ring conformer: 78.46698803806105 kcal/mol)

>  <smiles>  (26) 
CCC(=O)N(c1ccccc1)C1CCN(C(=O)[C@@H](N)C2Cc3ccccc3C2)CC1

>  <score_type>  (26) 
oracle

>  <origin>  (26) 
autodockgpu

>  <m_score__min__energy>  (26) 
-8.9299999999999997

>  <m_primary>  (26) 
energy

>  <meeko>  (26) 
{"free_energy": -7.88, "intermolecular_energy": -10.56, "internal_energy": -1.6, "cluster_size": 9, "cluster_id": 2, "rank_in_cluster": 8}

>  <energy>  (26) 
-8.67

>  <cluster_rmsd>  (26) 
0.29

>  <rmsd>  (26) 
271.17

>  <cluster>  (26) 
2

$$$$
LLZHWBREMUWYMR-DZSPIUQSNA-O
     RDKit          3D

 62 65  0  0  0  0  0  0  0  0999 V2000
  146.5980   74.2310  217.8930 H   0  0  0  0  0  0  0  0  0  0  0  0
  146.6720   73.4030  218.4720 O   0  0  0  0  0  0  0  0  0  0  0  0
  146.0400   73.2660  219.7170 C   0  0  0  0  0  0  0  0  0  0  0  0
  146.6150   73.7520  220.8380 C   0  0  0  0  0  0  0  0  0  0  0  0
  147.3147   74.5955  220.7433 H   0  0  0  0  0  0  0  0  0  0  0  0
  146.3470   73.1990  222.2040 C   0  0  0  0  0  0  0  0  0  0  0  0
  146.6939   73.9147  222.9639 H   0  0  0  0  0  0  0  0  0  0  0  0
  145.2669   73.0298  222.3256 H   0  0  0  0  0  0  0  0  0  0  0  0
  146.8834   72.2464  222.3256 H   0  0  0  0  0  0  0  0  0  0  0  0
  144.7550   72.5980  219.7710 N   0  0  0  0  0  0  0  0  0  0  0  0
  144.6860   71.1650  219.6380 C   0  0  0  0  0  0  0  0  0  0  0  0
  143.4570   70.5020  219.7730 C   0  0  0  0  0  0  0  0  0  0  0  0
  142.5463   71.0747  220.0026 H   0  0  0  0  0  0  0  0  0  0  0  0
  143.3880   69.1130  219.6160 C   0  0  0  0  0  0  0  0  0  0  0  0
  142.4260   68.5930  219.7347 H   0  0  0  0  0  0  0  0  0  0  0  0
  144.5430   68.3860  219.3080 C   0  0  0  0  0  0  0  0  0  0  0  0
  144.4882   67.2943  219.1852 H   0  0  0  0  0  0  0  0  0  0  0  0
  145.7670   69.0450  219.1560 C   0  0  0  0  0  0  0  0  0  0  0  0
  146.6734   68.4724  218.9099 H   0  0  0  0  0  0  0  0  0  0  0  0
  145.8380   70.4320  219.3170 C   0  0  0  0  0  0  0  0  0  0  0  0
  146.8002   70.9500  219.1915 H   0  0  0  0  0  0  0  0  0  0  0  0
  143.5220   73.4050  219.6490 C   0  0  2  0  0  0  0  0  0  0  0  0
  143.0452   73.1179  218.7002 H   0  0  0  0  0  0  0  0  0  0  0  0
  143.8120   74.9170  219.5760 C   0  0  0  0  0  0  0  0  0  0  0  0
  144.3699   75.2227  220.4734 H   0  0  0  0  0  0  0  0  0  0  0  0
  144.4056   75.1230  218.6731 H   0  0  0  0  0  0  0  0  0  0  0  0
  142.4990   75.7120  219.5010 C   0  0  0  0  0  0  0  0  0  0  0  0
  142.7280   76.7879  219.5053 H   0  0  0  0  0  0  0  0  0  0  0  0
  141.9723   75.4365  218.5755 H   0  0  0  0  0  0  0  0  0  0  0  0
  141.6280   75.3970  220.6540 N   0  0  1  0  0  0  0  0  0  0  0  0
  142.1460   75.6360  221.5320 H   0  0  0  0  0  0  0  0  0  0  0  0
  140.4130   76.1880  220.5940 C   0  0  0  0  0  0  0  0  0  0  0  0
  140.1620   76.8470  219.5940 O   0  0  0  0  0  0  0  0  0  0  0  0
  139.4220   76.1620  221.7460 C   0  0  1  0  0  0  0  0  0  0  0  0
  138.4144   76.2851  221.3223 H   0  0  0  0  0  0  0  0  0  0  0  0
  139.4260   74.8690  222.4420 N   0  0  0  0  0  0  0  0  0  0  0  0
  139.5690   75.0430  223.4640 H   0  0  0  0  0  0  0  0  0  0  0  0
  138.5050   74.3880  222.3430 H   0  0  0  0  0  0  0  0  0  0  0  0
  139.6660   77.3470  222.7160 C   0  0  0  0  0  0  0  0  0  0  0  0
  139.0718   77.0579  223.5954 H   0  0  0  0  0  0  0  0  0  0  0  0
  141.1610   77.5190  223.0860 C   0  0  0  0  0  0  0  0  0  0  0  0
  141.3549   77.1634  224.1087 H   0  0  0  0  0  0  0  0  0  0  0  0
  141.8301   76.9396  222.4328 H   0  0  0  0  0  0  0  0  0  0  0  0
  141.3850   78.9800  222.9840 C   0  0  0  0  0  0  0  0  0  0  0  0
  142.5540   79.6680  223.3140 C   0  0  0  0  0  0  0  0  0  0  0  0
  143.4282   79.1299  223.7092 H   0  0  0  0  0  0  0  0  0  0  0  0
  142.5930   81.0600  223.1320 C   0  0  0  0  0  0  0  0  0  0  0  0
  143.5038   81.6214  223.3873 H   0  0  0  0  0  0  0  0  0  0  0  0
  141.4700   81.7380  222.6240 C   0  0  0  0  0  0  0  0  0  0  0  0
  141.5050   82.8283  222.4821 H   0  0  0  0  0  0  0  0  0  0  0  0
  140.3060   81.0270  222.2980 C   0  0  0  0  0  0  0  0  0  0  0  0
  139.4242   81.5485  221.8975 H   0  0  0  0  0  0  0  0  0  0  0  0
  140.2880   79.6420  222.4920 C   0  0  0  0  0  0  0  0  0  0  0  0
  139.1600   78.7250  222.2100 C   0  0  0  0  0  0  0  0  0  0  0  0
  138.2570   79.0353  222.7562 H   0  0  0  0  0  0  0  0  0  0  0  0
  138.8799   78.7104  221.1464 H   0  0  0  0  0  0  0  0  0  0  0  0
  141.2920   73.9580  220.6950 C   0  0  0  0  0  0  0  0  0  0  0  0
  140.6455   73.7634  221.5634 H   0  0  0  0  0  0  0  0  0  0  0  0
  140.7726   73.6909  219.7629 H   0  0  0  0  0  0  0  0  0  0  0  0
  142.5620   73.1040  220.8120 C   0  0  0  0  0  0  0  0  0  0  0  0
  143.0643   73.3306  221.7640 H   0  0  0  0  0  0  0  0  0  0  0  0
  142.2808   72.0412  220.7754 H   0  0  0  0  0  0  0  0  0  0  0  0
  1  2  1  0
  2  3  1  0
  3  4  2  0
  4  5  1  0
  4  6  1  0
  6  7  1  0
  6  8  1  0
  6  9  1  0
  3 10  1  0
 10 11  1  0
 11 12  2  0
 12 13  1  0
 12 14  1  0
 14 15  1  0
 14 16  2  0
 16 17  1  0
 16 18  1  0
 18 19  1  0
 18 20  2  0
 20 21  1  0
 10 22  1  0
 22 23  1  6
 22 24  1  0
 24 25  1  0
 24 26  1  0
 24 27  1  0
 27 28  1  0
 27 29  1  0
 27 30  1  0
 30 31  1  1
 30 32  1  0
 32 33  2  0
 32 34  1  0
 34 35  1  6
 34 36  1  0
 36 37  1  0
 36 38  1  0
 34 39  1  0
 39 40  1  0
 39 41  1  0
 41 42  1  0
 41 43  1  0
 41 44  1  0
 44 45  2  0
 45 46  1  0
 45 47  1  0
 47 48  1  0
 47 49  2  0
 49 50  1  0
 49 51  1  0
 51 52  1  0
 51 53  2  0
 53 54  1  0
 54 55  1  0
 54 56  1  0
 30 57  1  0
 57 58  1  0
 57 59  1  0
 57 60  1  0
 60 61  1  0
 60 62  1  0
 20 11  1  0
 60 22  1  0
 54 39  1  0
 53 44  1  0
M  CHG  1  30   1
M  END
>  <UniqueID>  (27) 
44

>  <SMILES>  (27) 
C/C=C(\O)N(c1ccccc1)C1CC[NH+](C(=O)[C@@H](N)C2Cc3ccccc3C2)CC1

>  <Energy>  (27) 
78.46698803806105

>  <Genealogy>  (27) 
CCC(=O)N(c1ccccc1)C1CC[NH+](C(=O)[C@@H](N)C2Cc3ccccc3C2)CC1 (protonated)
CC=C(O)N(c1ccccc1)C1CC[NH+](C(=O)[C@@H](N)C2Cc3ccccc3C2)CC1 (tautomer)
C/C=C(\O)N(c1ccccc1)C1CC[NH+](C(=O)[C@@H](N)C2Cc3ccccc3C2)CC1 (cis-trans isomerization)
C/C=C(\O)N(c1ccccc1)C1CC[NH+](C(=O)[C@@H](N)C2Cc3ccccc3C2)CC1 (3D coordinates assigned)
C/C=C(\O)N(c1ccccc1)C1CC[NH+](C(=O)[C@@H](N)C2Cc3ccccc3C2)CC1 (nonaromatic ring conformer: 78.46698803806105 kcal/mol)

>  <smiles>  (27) 
CCC(=O)N(c1ccccc1)C1CCN(C(=O)[C@@H](N)C2Cc3ccccc3C2)CC1

>  <score_type>  (27) 
oracle

>  <origin>  (27) 
autodockgpu

>  <m_score__min__energy>  (27) 
-8.9299999999999997

>  <m_primary>  (27) 
energy

>  <meeko>  (27) 
{"free_energy": -8.93, "intermolecular_energy": -11.61, "internal_energy": -1.18, "cluster_size": 3, "cluster_id": 1, "rank_in_cluster": 1}

>  <energy>  (27) 
-8.67

>  <cluster_rmsd>  (27) 
0.29

>  <rmsd>  (27) 
271.22

>  <cluster>  (27) 
2

$$$$
LLZHWBREMUWYMR-DZSPIUQSNA-O
     RDKit          3D

 62 65  0  0  0  0  0  0  0  0999 V2000
  135.4180   68.4720  222.7950 H   0  0  0  0  0  0  0  0  0  0  0  0
  136.3560   68.4330  223.1730 O   0  0  0  0  0  0  0  0  0  0  0  0
  136.8510   69.3390  224.1230 C   0  0  0  0  0  0  0  0  0  0  0  0
  136.0150   69.9620  224.9800 C   0  0  0  0  0  0  0  0  0  0  0  0
  136.3183   70.9359  225.3917 H   0  0  0  0  0  0  0  0  0  0  0  0
  134.6940   69.3920  225.3980 C   0  0  0  0  0  0  0  0  0  0  0  0
  134.6364   69.3671  226.4962 H   0  0  0  0  0  0  0  0  0  0  0  0
  133.8820   70.0198  225.0023 H   0  0  0  0  0  0  0  0  0  0  0  0
  134.5937   68.3705  225.0023 H   0  0  0  0  0  0  0  0  0  0  0  0
  138.2790   69.5840  224.1670 N   0  0  0  0  0  0  0  0  0  0  0  0
  139.0490   69.1290  225.2970 C   0  0  0  0  0  0  0  0  0  0  0  0
  139.2350   69.9650  226.4080 C   0  0  0  0  0  0  0  0  0  0  0  0
  138.8105   70.9798  226.4085 H   0  0  0  0  0  0  0  0  0  0  0  0
  139.9590   69.5110  227.5150 C   0  0  0  0  0  0  0  0  0  0  0  0
  140.1142   70.1730  228.3797 H   0  0  0  0  0  0  0  0  0  0  0  0
  140.4860   68.2150  227.5230 C   0  0  0  0  0  0  0  0  0  0  0  0
  141.0564   67.8589  228.3935 H   0  0  0  0  0  0  0  0  0  0  0  0
  140.2880   67.3720  226.4250 C   0  0  0  0  0  0  0  0  0  0  0  0
  140.6988   66.3516  226.4339 H   0  0  0  0  0  0  0  0  0  0  0  0
  139.5680   67.8260  225.3160 C   0  0  0  0  0  0  0  0  0  0  0  0
  139.4080   67.1594  224.4557 H   0  0  0  0  0  0  0  0  0  0  0  0
  138.8700   70.5540  223.2210 C   0  0  2  0  0  0  0  0  0  0  0  0
  139.3806   69.9685  222.4422 H   0  0  0  0  0  0  0  0  0  0  0  0
  139.9300   71.4560  223.8860 C   0  0  0  0  0  0  0  0  0  0  0  0
  139.4716   71.9919  224.7302 H   0  0  0  0  0  0  0  0  0  0  0  0
  140.7598   70.8278  224.2422 H   0  0  0  0  0  0  0  0  0  0  0  0
  140.4760   72.4760  222.8760 C   0  0  0  0  0  0  0  0  0  0  0  0
  141.1882   73.1420  223.3851 H   0  0  0  0  0  0  0  0  0  0  0  0
  140.9760   71.9324  222.0609 H   0  0  0  0  0  0  0  0  0  0  0  0
  139.3790   73.2860  222.3030 N   0  0  1  0  0  0  0  0  0  0  0  0
  138.8900   73.7790  223.0880 H   0  0  0  0  0  0  0  0  0  0  0  0
  139.9140   74.2750  221.3860 C   0  0  0  0  0  0  0  0  0  0  0  0
  140.6300   73.9240  220.4580 O   0  0  0  0  0  0  0  0  0  0  0  0
  139.5480   75.7430  221.5390 C   0  0  1  0  0  0  0  0  0  0  0  0
  139.0236   76.0531  220.6231 H   0  0  0  0  0  0  0  0  0  0  0  0
  138.6120   75.9600  222.6510 N   0  0  0  0  0  0  0  0  0  0  0  0
  138.9390   75.4020  223.4740 H   0  0  0  0  0  0  0  0  0  0  0  0
  138.6070   76.9610  222.9460 H   0  0  0  0  0  0  0  0  0  0  0  0
  140.8180   76.6230  221.6670 C   0  0  0  0  0  0  0  0  0  0  0  0
  141.6219   75.9169  221.4118 H   0  0  0  0  0  0  0  0  0  0  0  0
  140.8080   77.8310  220.6950 C   0  0  0  0  0  0  0  0  0  0  0  0
  141.4961   77.6626  219.8534 H   0  0  0  0  0  0  0  0  0  0  0  0
  139.8196   78.0076  220.2458 H   0  0  0  0  0  0  0  0  0  0  0  0
  141.2670   78.9630  221.5340 C   0  0  0  0  0  0  0  0  0  0  0  0
  141.5250   80.2660  221.1040 C   0  0  0  0  0  0  0  0  0  0  0  0
  141.4087   80.5404  220.0451 H   0  0  0  0  0  0  0  0  0  0  0  0
  141.9360   81.2200  222.0500 C   0  0  0  0  0  0  0  0  0  0  0  0
  142.1457   82.2522  221.7330 H   0  0  0  0  0  0  0  0  0  0  0  0
  142.0800   80.8580  223.4020 C   0  0  0  0  0  0  0  0  0  0  0  0
  142.4020   81.6078  224.1396 H   0  0  0  0  0  0  0  0  0  0  0  0
  141.8140   79.5440  223.8110 C   0  0  0  0  0  0  0  0  0  0  0  0
  141.9202   79.2535  224.8666 H   0  0  0  0  0  0  0  0  0  0  0  0
  141.4110   78.6090  222.8520 C   0  0  0  0  0  0  0  0  0  0  0  0
  141.0880   77.1830  223.0890 C   0  0  0  0  0  0  0  0  0  0  0  0
  141.9346   76.6627  223.5608 H   0  0  0  0  0  0  0  0  0  0  0  0
  140.2337   77.0477  223.7686 H   0  0  0  0  0  0  0  0  0  0  0  0
  138.3910   72.4350  221.6070 C   0  0  0  0  0  0  0  0  0  0  0  0
  137.5935   73.0711  221.1956 H   0  0  0  0  0  0  0  0  0  0  0  0
  138.9019   71.8906  220.7991 H   0  0  0  0  0  0  0  0  0  0  0  0
  137.7730   71.4150  222.5730 C   0  0  0  0  0  0  0  0  0  0  0  0
  137.2207   71.9499  223.3596 H   0  0  0  0  0  0  0  0  0  0  0  0
  137.0919   70.7595  222.0105 H   0  0  0  0  0  0  0  0  0  0  0  0
  1  2  1  0
  2  3  1  0
  3  4  2  0
  4  5  1  0
  4  6  1  0
  6  7  1  0
  6  8  1  0
  6  9  1  0
  3 10  1  0
 10 11  1  0
 11 12  2  0
 12 13  1  0
 12 14  1  0
 14 15  1  0
 14 16  2  0
 16 17  1  0
 16 18  1  0
 18 19  1  0
 18 20  2  0
 20 21  1  0
 10 22  1  0
 22 23  1  6
 22 24  1  0
 24 25  1  0
 24 26  1  0
 24 27  1  0
 27 28  1  0
 27 29  1  0
 27 30  1  0
 30 31  1  1
 30 32  1  0
 32 33  2  0
 32 34  1  0
 34 35  1  6
 34 36  1  0
 36 37  1  0
 36 38  1  0
 34 39  1  0
 39 40  1  0
 39 41  1  0
 41 42  1  0
 41 43  1  0
 41 44  1  0
 44 45  2  0
 45 46  1  0
 45 47  1  0
 47 48  1  0
 47 49  2  0
 49 50  1  0
 49 51  1  0
 51 52  1  0
 51 53  2  0
 53 54  1  0
 54 55  1  0
 54 56  1  0
 30 57  1  0
 57 58  1  0
 57 59  1  0
 57 60  1  0
 60 61  1  0
 60 62  1  0
 20 11  1  0
 60 22  1  0
 54 39  1  0
 53 44  1  0
M  CHG  1  30   1
M  END
>  <UniqueID>  (28) 
44

>  <SMILES>  (28) 
C/C=C(\O)N(c1ccccc1)C1CC[NH+](C(=O)[C@@H](N)C2Cc3ccccc3C2)CC1

>  <Energy>  (28) 
78.46698803806105

>  <Genealogy>  (28) 
CCC(=O)N(c1ccccc1)C1CC[NH+](C(=O)[C@@H](N)C2Cc3ccccc3C2)CC1 (protonated)
CC=C(O)N(c1ccccc1)C1CC[NH+](C(=O)[C@@H](N)C2Cc3ccccc3C2)CC1 (tautomer)
C/C=C(\O)N(c1ccccc1)C1CC[NH+](C(=O)[C@@H](N)C2Cc3ccccc3C2)CC1 (cis-trans isomerization)
C/C=C(\O)N(c1ccccc1)C1CC[NH+](C(=O)[C@@H](N)C2Cc3ccccc3C2)CC1 (3D coordinates assigned)
C/C=C(\O)N(c1ccccc1)C1CC[NH+](C(=O)[C@@H](N)C2Cc3ccccc3C2)CC1 (nonaromatic ring conformer: 78.46698803806105 kcal/mol)

>  <smiles>  (28) 
CCC(=O)N(c1ccccc1)C1CCN(C(=O)[C@@H](N)C2Cc3ccccc3C2)CC1

>  <score_type>  (28) 
oracle

>  <origin>  (28) 
autodockgpu

>  <m_score__min__energy>  (28) 
-8.9299999999999997

>  <m_primary>  (28) 
energy

>  <meeko>  (28) 
{"free_energy": -7.84, "intermolecular_energy": -10.52, "internal_energy": -1.67, "cluster_size": 9, "cluster_id": 2, "rank_in_cluster": 9}

>  <energy>  (28) 
-8.64

>  <cluster_rmsd>  (28) 
0.58

>  <rmsd>  (28) 
271.29

>  <cluster>  (28) 
2

$$$$
LLZHWBREMUWYMR-DZSPIUQSNA-O
     RDKit          3D

 62 65  0  0  0  0  0  0  0  0999 V2000
  135.7590   67.7580  222.7930 H   0  0  0  0  0  0  0  0  0  0  0  0
  136.6780   68.1680  222.9090 O   0  0  0  0  0  0  0  0  0  0  0  0
  137.0650   68.9060  224.0370 C   0  0  0  0  0  0  0  0  0  0  0  0
  136.1560   69.2670  224.9680 C   0  0  0  0  0  0  0  0  0  0  0  0
  136.1188   68.7007  225.9103 H   0  0  0  0  0  0  0  0  0  0  0  0
  135.1960   70.4010  224.7800 C   0  0  0  0  0  0  0  0  0  0  0  0
  134.8768   70.7780  225.7629 H   0  0  0  0  0  0  0  0  0  0  0  0
  135.6885   71.2093  224.2195 H   0  0  0  0  0  0  0  0  0  0  0  0
  134.3175   70.0486  224.2195 H   0  0  0  0  0  0  0  0  0  0  0  0
  138.4620   69.2640  224.1840 N   0  0  0  0  0  0  0  0  0  0  0  0
  139.1700   68.9080  225.3880 C   0  0  0  0  0  0  0  0  0  0  0  0
  139.8710   67.6960  225.4620 C   0  0  0  0  0  0  0  0  0  0  0  0
  139.8620   67.0034  224.6075 H   0  0  0  0  0  0  0  0  0  0  0  0
  140.5820   67.3660  226.6210 C   0  0  0  0  0  0  0  0  0  0  0  0
  141.1225   66.4099  226.6816 H   0  0  0  0  0  0  0  0  0  0  0  0
  140.6050   68.2530  227.7030 C   0  0  0  0  0  0  0  0  0  0  0  0
  141.1622   67.9923  228.6149 H   0  0  0  0  0  0  0  0  0  0  0  0
  139.9210   69.4700  227.6270 C   0  0  0  0  0  0  0  0  0  0  0  0
  139.9441   70.1682  228.4767 H   0  0  0  0  0  0  0  0  0  0  0  0
  139.2080   69.7990  226.4710 C   0  0  0  0  0  0  0  0  0  0  0  0
  138.6750   70.7593  226.4100 H   0  0  0  0  0  0  0  0  0  0  0  0
  139.0520   70.2460  223.2500 C   0  0  2  0  0  0  0  0  0  0  0  0
  139.5321   69.6707  222.4447 H   0  0  0  0  0  0  0  0  0  0  0  0
  140.1450   71.1070  223.9130 C   0  0  0  0  0  0  0  0  0  0  0  0
  139.7172   71.6301  224.7809 H   0  0  0  0  0  0  0  0  0  0  0  0
  140.9686   70.4522  224.2338 H   0  0  0  0  0  0  0  0  0  0  0  0
  140.6910   72.1420  222.9170 C   0  0  0  0  0  0  0  0  0  0  0  0
  141.4291   72.7787  223.4267 H   0  0  0  0  0  0  0  0  0  0  0  0
  141.1605   71.6096  222.0767 H   0  0  0  0  0  0  0  0  0  0  0  0
  139.6000   72.9900  222.3910 N   0  0  1  0  0  0  0  0  0  0  0  0
  139.1380   73.4720  223.1990 H   0  0  0  0  0  0  0  0  0  0  0  0
  140.1350   73.9910  221.4880 C   0  0  0  0  0  0  0  0  0  0  0  0
  140.9160   73.6630  220.6040 O   0  0  0  0  0  0  0  0  0  0  0  0
  139.6910   75.4410  221.5980 C   0  0  1  0  0  0  0  0  0  0  0  0
  139.1528   75.6959  220.6731 H   0  0  0  0  0  0  0  0  0  0  0  0
  138.7420   75.6410  222.7010 N   0  0  0  0  0  0  0  0  0  0  0  0
  138.0630   74.8440  222.7030 H   0  0  0  0  0  0  0  0  0  0  0  0
  139.2310   75.6230  223.6230 H   0  0  0  0  0  0  0  0  0  0  0  0
  140.9130   76.3900  221.7020 C   0  0  0  0  0  0  0  0  0  0  0  0
  141.7596   75.6967  221.5897 H   0  0  0  0  0  0  0  0  0  0  0  0
  140.9270   77.4720  220.5910 C   0  0  0  0  0  0  0  0  0  0  0  0
  141.6811   77.2374  219.8253 H   0  0  0  0  0  0  0  0  0  0  0  0
  139.9677   77.5460  220.0579 H   0  0  0  0  0  0  0  0  0  0  0  0
  141.2780   78.7170  221.3130 C   0  0  0  0  0  0  0  0  0  0  0  0
  141.5150   79.9700  220.7450 C   0  0  0  0  0  0  0  0  0  0  0  0
  141.4646   80.1102  219.6551 H   0  0  0  0  0  0  0  0  0  0  0  0
  141.8190   81.0480  221.5920 C   0  0  0  0  0  0  0  0  0  0  0  0
  142.0115   82.0435  221.1654 H   0  0  0  0  0  0  0  0  0  0  0  0
  141.8780   80.8580  222.9850 C   0  0  0  0  0  0  0  0  0  0  0  0
  142.1154   81.7055  223.6448 H   0  0  0  0  0  0  0  0  0  0  0  0
  141.6350   79.5910  223.5340 C   0  0  0  0  0  0  0  0  0  0  0  0
  141.6756   79.4345  224.6220 H   0  0  0  0  0  0  0  0  0  0  0  0
  141.3400   78.5300  222.6720 C   0  0  0  0  0  0  0  0  0  0  0  0
  141.0570   77.1290  223.0590 C   0  0  0  0  0  0  0  0  0  0  0  0
  141.8869   76.7099  223.6469 H   0  0  0  0  0  0  0  0  0  0  0  0
  140.1613   77.0356  223.6906 H   0  0  0  0  0  0  0  0  0  0  0  0
  138.5780   72.1780  221.6960 C   0  0  0  0  0  0  0  0  0  0  0  0
  137.7852   72.8412  221.3196 H   0  0  0  0  0  0  0  0  0  0  0  0
  139.0586   71.6444  220.8628 H   0  0  0  0  0  0  0  0  0  0  0  0
  137.9600   71.1460  222.6500 C   0  0  0  0  0  0  0  0  0  0  0  0
  137.4372   71.6717  223.4626 H   0  0  0  0  0  0  0  0  0  0  0  0
  137.2525   70.5197  222.0868 H   0  0  0  0  0  0  0  0  0  0  0  0
  1  2  1  0
  2  3  1  0
  3  4  2  0
  4  5  1  0
  4  6  1  0
  6  7  1  0
  6  8  1  0
  6  9  1  0
  3 10  1  0
 10 11  1  0
 11 12  2  0
 12 13  1  0
 12 14  1  0
 14 15  1  0
 14 16  2  0
 16 17  1  0
 16 18  1  0
 18 19  1  0
 18 20  2  0
 20 21  1  0
 10 22  1  0
 22 23  1  6
 22 24  1  0
 24 25  1  0
 24 26  1  0
 24 27  1  0
 27 28  1  0
 27 29  1  0
 27 30  1  0
 30 31  1  1
 30 32  1  0
 32 33  2  0
 32 34  1  0
 34 35  1  6
 34 36  1  0
 36 37  1  0
 36 38  1  0
 34 39  1  0
 39 40  1  0
 39 41  1  0
 41 42  1  0
 41 43  1  0
 41 44  1  0
 44 45  2  0
 45 46  1  0
 45 47  1  0
 47 48  1  0
 47 49  2  0
 49 50  1  0
 49 51  1  0
 51 52  1  0
 51 53  2  0
 53 54  1  0
 54 55  1  0
 54 56  1  0
 30 57  1  0
 57 58  1  0
 57 59  1  0
 57 60  1  0
 60 61  1  0
 60 62  1  0
 20 11  1  0
 60 22  1  0
 54 39  1  0
 53 44  1  0
M  CHG  1  30   1
M  END
>  <UniqueID>  (29) 
44

>  <SMILES>  (29) 
C/C=C(\O)N(c1ccccc1)C1CC[NH+](C(=O)[C@@H](N)C2Cc3ccccc3C2)CC1

>  <Energy>  (29) 
78.46698803806105

>  <Genealogy>  (29) 
CCC(=O)N(c1ccccc1)C1CC[NH+](C(=O)[C@@H](N)C2Cc3ccccc3C2)CC1 (protonated)
CC=C(O)N(c1ccccc1)C1CC[NH+](C(=O)[C@@H](N)C2Cc3ccccc3C2)CC1 (tautomer)
C/C=C(\O)N(c1ccccc1)C1CC[NH+](C(=O)[C@@H](N)C2Cc3ccccc3C2)CC1 (cis-trans isomerization)
C/C=C(\O)N(c1ccccc1)C1CC[NH+](C(=O)[C@@H](N)C2Cc3ccccc3C2)CC1 (3D coordinates assigned)
C/C=C(\O)N(c1ccccc1)C1CC[NH+](C(=O)[C@@H](N)C2Cc3ccccc3C2)CC1 (nonaromatic ring conformer: 78.46698803806105 kcal/mol)

>  <smiles>  (29) 
CCC(=O)N(c1ccccc1)C1CCN(C(=O)[C@@H](N)C2Cc3ccccc3C2)CC1

>  <score_type>  (29) 
oracle

>  <origin>  (29) 
autodockgpu

>  <m_score__min__energy>  (29) 
-8.9299999999999997

>  <m_primary>  (29) 
energy

>  <meeko>  (29) 
{"free_energy": -7.9, "intermolecular_energy": -10.58, "internal_energy": -1.67, "cluster_size": 9, "cluster_id": 2, "rank_in_cluster": 7}

>  <energy>  (29) 
-8.19

>  <cluster_rmsd>  (29) 
1.3

>  <rmsd>  (29) 
270.9

>  <cluster>  (29) 
2

$$$$
LLZHWBREMUWYMR-DZSPIUQSNA-O
     RDKit          3D

 62 65  0  0  0  0  0  0  0  0999 V2000
  140.0530   66.8560  225.1440 H   0  0  0  0  0  0  0  0  0  0  0  0
  139.1910   67.3840  225.0990 O   0  0  0  0  0  0  0  0  0  0  0  0
  138.9490   68.4020  224.1640 C   0  0  0  0  0  0  0  0  0  0  0  0
  138.1200   68.1920  223.1190 C   0  0  0  0  0  0  0  0  0  0  0  0
  137.1764   68.7559  223.0786 H   0  0  0  0  0  0  0  0  0  0  0  0
  138.4220   67.2290  222.0120 C   0  0  0  0  0  0  0  0  0  0  0  0
  138.7252   66.2620  222.4397 H   0  0  0  0  0  0  0  0  0  0  0  0
  137.5243   67.0902  221.3917 H   0  0  0  0  0  0  0  0  0  0  0  0
  139.2382   67.6277  221.3917 H   0  0  0  0  0  0  0  0  0  0  0  0
  139.6010   69.6820  224.3500 N   0  0  0  0  0  0  0  0  0  0  0  0
  140.0440   70.0760  225.6630 C   0  0  0  0  0  0  0  0  0  0  0  0
  140.6170   69.1320  226.5280 C   0  0  0  0  0  0  0  0  0  0  0  0
  140.7081   68.0823  226.2122 H   0  0  0  0  0  0  0  0  0  0  0  0
  141.0730   69.5230  227.7920 C   0  0  0  0  0  0  0  0  0  0  0  0
  141.5114   68.7789  228.4732 H   0  0  0  0  0  0  0  0  0  0  0  0
  140.9710   70.8610  228.1890 C   0  0  0  0  0  0  0  0  0  0  0  0
  141.3277   71.1677  229.1833 H   0  0  0  0  0  0  0  0  0  0  0  0
  140.4160   71.8090  227.3230 C   0  0  0  0  0  0  0  0  0  0  0  0
  140.3402   72.8613  227.6343 H   0  0  0  0  0  0  0  0  0  0  0  0
  139.9580   71.4180  226.0620 C   0  0  0  0  0  0  0  0  0  0  0  0
  139.5282   72.1658  225.3793 H   0  0  0  0  0  0  0  0  0  0  0  0
  139.5280   70.6880  223.2690 C   0  0  2  0  0  0  0  0  0  0  0  0
  139.5993   70.1397  222.3180 H   0  0  0  0  0  0  0  0  0  0  0  0
  140.7020   71.6860  223.3120 C   0  0  0  0  0  0  0  0  0  0  0  0
  140.7131   72.1904  224.2895 H   0  0  0  0  0  0  0  0  0  0  0  0
  141.6427   71.1367  223.1590 H   0  0  0  0  0  0  0  0  0  0  0  0
  140.5530   72.7380  222.2010 C   0  0  0  0  0  0  0  0  0  0  0  0
  141.3706   73.4691  222.2844 H   0  0  0  0  0  0  0  0  0  0  0  0
  140.5923   72.2300  221.2261 H   0  0  0  0  0  0  0  0  0  0  0  0
  139.2580   73.4430  222.3170 N   0  0  1  0  0  0  0  0  0  0  0  0
  139.2160   73.9010  223.2580 H   0  0  0  0  0  0  0  0  0  0  0  0
  139.1510   74.4630  221.2910 C   0  0  0  0  0  0  0  0  0  0  0  0
  139.2790   74.1600  220.1120 O   0  0  0  0  0  0  0  0  0  0  0  0
  138.8280   75.9000  221.6670 C   0  0  1  0  0  0  0  0  0  0  0  0
  138.0491   76.2580  220.9777 H   0  0  0  0  0  0  0  0  0  0  0  0
  138.2650   75.9980  223.0210 N   0  0  0  0  0  0  0  0  0  0  0  0
  137.5360   75.2550  223.1310 H   0  0  0  0  0  0  0  0  0  0  0  0
  138.9960   75.8160  223.7440 H   0  0  0  0  0  0  0  0  0  0  0  0
  140.0670   76.8150  221.4840 C   0  0  0  0  0  0  0  0  0  0  0  0
  140.5981   76.3303  220.6516 H   0  0  0  0  0  0  0  0  0  0  0  0
  139.6840   78.2750  221.1270 C   0  0  0  0  0  0  0  0  0  0  0  0
  139.8740   78.4811  220.0633 H   0  0  0  0  0  0  0  0  0  0  0  0
  138.6169   78.4867  221.2895 H   0  0  0  0  0  0  0  0  0  0  0  0
  140.5680   79.0930  221.9890 C   0  0  0  0  0  0  0  0  0  0  0  0
  140.6860   80.4840  221.9790 C   0  0  0  0  0  0  0  0  0  0  0  0
  140.1003   81.0908  221.2728 H   0  0  0  0  0  0  0  0  0  0  0  0
  141.5660   81.0940  222.8870 C   0  0  0  0  0  0  0  0  0  0  0  0
  141.6747   82.1886  222.8946 H   0  0  0  0  0  0  0  0  0  0  0  0
  142.3090   80.3090  223.7870 C   0  0  0  0  0  0  0  0  0  0  0  0
  142.9968   80.7912  224.4972 H   0  0  0  0  0  0  0  0  0  0  0  0
  142.1750   78.9130  223.7810 C   0  0  0  0  0  0  0  0  0  0  0  0
  142.7498   78.2917  224.4836 H   0  0  0  0  0  0  0  0  0  0  0  0
  141.2970   78.3260  222.8650 C   0  0  0  0  0  0  0  0  0  0  0  0
  141.0210   76.8800  222.7060 C   0  0  0  0  0  0  0  0  0  0  0  0
  141.9491   76.3238  222.5081 H   0  0  0  0  0  0  0  0  0  0  0  0
  140.5847   76.4293  223.6096 H   0  0  0  0  0  0  0  0  0  0  0  0
  138.1240   72.5000  222.2120 C   0  0  0  0  0  0  0  0  0  0  0  0
  137.1808   73.0590  222.3009 H   0  0  0  0  0  0  0  0  0  0  0  0
  138.1776   71.9914  221.2381 H   0  0  0  0  0  0  0  0  0  0  0  0
  138.1890   71.4430  223.3230 C   0  0  0  0  0  0  0  0  0  0  0  0
  138.0916   71.9383  224.3003 H   0  0  0  0  0  0  0  0  0  0  0  0
  137.3687   70.7243  223.1794 H   0  0  0  0  0  0  0  0  0  0  0  0
  1  2  1  0
  2  3  1  0
  3  4  2  0
  4  5  1  0
  4  6  1  0
  6  7  1  0
  6  8  1  0
  6  9  1  0
  3 10  1  0
 10 11  1  0
 11 12  2  0
 12 13  1  0
 12 14  1  0
 14 15  1  0
 14 16  2  0
 16 17  1  0
 16 18  1  0
 18 19  1  0
 18 20  2  0
 20 21  1  0
 10 22  1  0
 22 23  1  6
 22 24  1  0
 24 25  1  0
 24 26  1  0
 24 27  1  0
 27 28  1  0
 27 29  1  0
 27 30  1  0
 30 31  1  1
 30 32  1  0
 32 33  2  0
 32 34  1  0
 34 35  1  6
 34 36  1  0
 36 37  1  0
 36 38  1  0
 34 39  1  0
 39 40  1  0
 39 41  1  0
 41 42  1  0
 41 43  1  0
 41 44  1  0
 44 45  2  0
 45 46  1  0
 45 47  1  0
 47 48  1  0
 47 49  2  0
 49 50  1  0
 49 51  1  0
 51 52  1  0
 51 53  2  0
 53 54  1  0
 54 55  1  0
 54 56  1  0
 30 57  1  0
 57 58  1  0
 57 59  1  0
 57 60  1  0
 60 61  1  0
 60 62  1  0
 20 11  1  0
 60 22  1  0
 54 39  1  0
 53 44  1  0
M  CHG  1  30   1
M  END
>  <UniqueID>  (30) 
44

>  <SMILES>  (30) 
C/C=C(\O)N(c1ccccc1)C1CC[NH+](C(=O)[C@@H](N)C2Cc3ccccc3C2)CC1

>  <Energy>  (30) 
78.46698803806105

>  <Genealogy>  (30) 
CCC(=O)N(c1ccccc1)C1CC[NH+](C(=O)[C@@H](N)C2Cc3ccccc3C2)CC1 (protonated)
CC=C(O)N(c1ccccc1)C1CC[NH+](C(=O)[C@@H](N)C2Cc3ccccc3C2)CC1 (tautomer)
C/C=C(\O)N(c1ccccc1)C1CC[NH+](C(=O)[C@@H](N)C2Cc3ccccc3C2)CC1 (cis-trans isomerization)
C/C=C(\O)N(c1ccccc1)C1CC[NH+](C(=O)[C@@H](N)C2Cc3ccccc3C2)CC1 (3D coordinates assigned)
C/C=C(\O)N(c1ccccc1)C1CC[NH+](C(=O)[C@@H](N)C2Cc3ccccc3C2)CC1 (nonaromatic ring conformer: 78.46698803806105 kcal/mol)

>  <smiles>  (30) 
CCC(=O)N(c1ccccc1)C1CCN(C(=O)[C@@H](N)C2Cc3ccccc3C2)CC1

>  <score_type>  (30) 
oracle

>  <origin>  (30) 
autodockgpu

>  <m_score__min__energy>  (30) 
-8.9299999999999997

>  <m_primary>  (30) 
energy

>  <meeko>  (30) 
{"free_energy": -8.64, "intermolecular_energy": -11.32, "internal_energy": -1.26, "cluster_size": 9, "cluster_id": 2, "rank_in_cluster": 5}

>  <energy>  (30) 
-7.9

>  <cluster_rmsd>  (30) 
1.88

>  <rmsd>  (30) 
270.87

>  <cluster>  (30) 
2

$$$$
LLZHWBREMUWYMR-DZSPIUQSNA-O
     RDKit          3D

 62 65  0  0  0  0  0  0  0  0999 V2000
  133.1920   71.9630  228.4630 H   0  0  0  0  0  0  0  0  0  0  0  0
  133.6360   72.1800  227.5790 O   0  0  0  0  0  0  0  0  0  0  0  0
  132.9500   72.6990  226.4710 C   0  0  0  0  0  0  0  0  0  0  0  0
  131.6900   72.3000  226.1930 C   0  0  0  0  0  0  0  0  0  0  0  0
  131.4552   71.9869  225.1650 H   0  0  0  0  0  0  0  0  0  0  0  0
  130.5970   72.2630  227.2160 C   0  0  0  0  0  0  0  0  0  0  0  0
  131.0375   72.2779  228.2239 H   0  0  0  0  0  0  0  0  0  0  0  0
  129.9450   73.1396  227.0878 H   0  0  0  0  0  0  0  0  0  0  0  0
  130.0057   71.3443  227.0878 H   0  0  0  0  0  0  0  0  0  0  0  0
  133.6210   73.6760  225.6370 N   0  0  0  0  0  0  0  0  0  0  0  0
  133.2990   75.0740  225.7700 C   0  0  0  0  0  0  0  0  0  0  0  0
  133.8420   75.8270  226.8210 C   0  0  0  0  0  0  0  0  0  0  0  0
  134.4990   75.3445  227.5596 H   0  0  0  0  0  0  0  0  0  0  0  0
  133.5500   77.1900  226.9320 C   0  0  0  0  0  0  0  0  0  0  0  0
  133.9671   77.7758  227.7644 H   0  0  0  0  0  0  0  0  0  0  0  0
  132.7270   77.8090  225.9840 C   0  0  0  0  0  0  0  0  0  0  0  0
  132.4970   78.8811  226.0720 H   0  0  0  0  0  0  0  0  0  0  0  0
  132.1970   77.0650  224.9250 C   0  0  0  0  0  0  0  0  0  0  0  0
  131.5535   77.5527  224.1780 H   0  0  0  0  0  0  0  0  0  0  0  0
  132.4850   75.7020  224.8160 C   0  0  0  0  0  0  0  0  0  0  0  0
  132.0719   75.1197  223.9792 H   0  0  0  0  0  0  0  0  0  0  0  0
  134.3890   73.2100  224.4620 C   0  0  2  0  0  0  0  0  0  0  0  0
  133.6651   73.0597  223.6475 H   0  0  0  0  0  0  0  0  0  0  0  0
  135.0860   71.8570  224.7120 C   0  0  0  0  0  0  0  0  0  0  0  0
  135.7548   71.9487  225.5805 H   0  0  0  0  0  0  0  0  0  0  0  0
  134.3203   71.0910  224.9042 H   0  0  0  0  0  0  0  0  0  0  0  0
  135.9080   71.4430  223.4810 C   0  0  0  0  0  0  0  0  0  0  0  0
  136.4381   70.5045  223.7004 H   0  0  0  0  0  0  0  0  0  0  0  0
  135.2242   71.3069  222.6302 H   0  0  0  0  0  0  0  0  0  0  0  0
  136.8950   72.4870  223.1330 N   0  0  1  0  0  0  0  0  0  0  0  0
  137.5240   72.6330  223.9580 H   0  0  0  0  0  0  0  0  0  0  0  0
  137.6930   72.0630  222.0000 C   0  0  0  0  0  0  0  0  0  0  0  0
  137.1500   71.5870  221.0120 O   0  0  0  0  0  0  0  0  0  0  0  0
  139.2020   72.2540  222.0080 C   0  0  1  0  0  0  0  0  0  0  0  0
  139.5666   72.0735  220.9860 H   0  0  0  0  0  0  0  0  0  0  0  0
  139.5770   73.6330  222.3470 N   0  0  0  0  0  0  0  0  0  0  0  0
  139.7490   74.1580  221.4570 H   0  0  0  0  0  0  0  0  0  0  0  0
  138.7980   74.1220  222.8410 H   0  0  0  0  0  0  0  0  0  0  0  0
  139.8890   71.2180  222.9360 C   0  0  0  0  0  0  0  0  0  0  0  0
  140.5722   70.6997  222.2471 H   0  0  0  0  0  0  0  0  0  0  0  0
  140.6680   71.8830  224.1000 C   0  0  0  0  0  0  0  0  0  0  0  0
  141.7523   71.8425  223.9191 H   0  0  0  0  0  0  0  0  0  0  0  0
  140.4213   72.9480  224.2224 H   0  0  0  0  0  0  0  0  0  0  0  0
  140.3000   71.0710  225.2830 C   0  0  0  0  0  0  0  0  0  0  0  0
  140.8150   71.1990  226.5730 C   0  0  0  0  0  0  0  0  0  0  0  0
  141.5860   71.9511  226.7964 H   0  0  0  0  0  0  0  0  0  0  0  0
  140.3310   70.3500  227.5810 C   0  0  0  0  0  0  0  0  0  0  0  0
  140.7251   70.4332  228.6046 H   0  0  0  0  0  0  0  0  0  0  0  0
  139.3430   69.3930  227.2850 C   0  0  0  0  0  0  0  0  0  0  0  0
  138.9658   68.7304  228.0779 H   0  0  0  0  0  0  0  0  0  0  0  0
  138.8380   69.2820  225.9810 C   0  0  0  0  0  0  0  0  0  0  0  0
  138.0633   68.5389  225.7409 H   0  0  0  0  0  0  0  0  0  0  0  0
  139.3390   70.1350  224.9920 C   0  0  0  0  0  0  0  0  0  0  0  0
  138.9350   70.1690  223.5680 C   0  0  0  0  0  0  0  0  0  0  0  0
  139.0706   69.1834  223.0988 H   0  0  0  0  0  0  0  0  0  0  0  0
  137.8736   70.4245  223.4335 H   0  0  0  0  0  0  0  0  0  0  0  0
  136.2290   73.7730  222.8300 C   0  0  0  0  0  0  0  0  0  0  0  0
  136.9924   74.5231  222.5761 H   0  0  0  0  0  0  0  0  0  0  0  0
  135.5423   73.6229  221.9839 H   0  0  0  0  0  0  0  0  0  0  0  0
  135.4210   74.2670  224.0360 C   0  0  0  0  0  0  0  0  0  0  0  0
  136.1054   74.4633  224.8745 H   0  0  0  0  0  0  0  0  0  0  0  0
  134.8909   75.1891  223.7555 H   0  0  0  0  0  0  0  0  0  0  0  0
  1  2  1  0
  2  3  1  0
  3  4  2  0
  4  5  1  0
  4  6  1  0
  6  7  1  0
  6  8  1  0
  6  9  1  0
  3 10  1  0
 10 11  1  0
 11 12  2  0
 12 13  1  0
 12 14  1  0
 14 15  1  0
 14 16  2  0
 16 17  1  0
 16 18  1  0
 18 19  1  0
 18 20  2  0
 20 21  1  0
 10 22  1  0
 22 23  1  6
 22 24  1  0
 24 25  1  0
 24 26  1  0
 24 27  1  0
 27 28  1  0
 27 29  1  0
 27 30  1  0
 30 31  1  1
 30 32  1  0
 32 33  2  0
 32 34  1  0
 34 35  1  6
 34 36  1  0
 36 37  1  0
 36 38  1  0
 34 39  1  0
 39 40  1  0
 39 41  1  0
 41 42  1  0
 41 43  1  0
 41 44  1  0
 44 45  2  0
 45 46  1  0
 45 47  1  0
 47 48  1  0
 47 49  2  0
 49 50  1  0
 49 51  1  0
 51 52  1  0
 51 53  2  0
 53 54  1  0
 54 55  1  0
 54 56  1  0
 30 57  1  0
 57 58  1  0
 57 59  1  0
 57 60  1  0
 60 61  1  0
 60 62  1  0
 20 11  1  0
 60 22  1  0
 54 39  1  0
 53 44  1  0
M  CHG  1  30   1
M  END
>  <UniqueID>  (31) 
44

>  <SMILES>  (31) 
C/C=C(\O)N(c1ccccc1)C1CC[NH+](C(=O)[C@@H](N)C2Cc3ccccc3C2)CC1

>  <Energy>  (31) 
78.46698803806105

>  <Genealogy>  (31) 
CCC(=O)N(c1ccccc1)C1CC[NH+](C(=O)[C@@H](N)C2Cc3ccccc3C2)CC1 (protonated)
CC=C(O)N(c1ccccc1)C1CC[NH+](C(=O)[C@@H](N)C2Cc3ccccc3C2)CC1 (tautomer)
C/C=C(\O)N(c1ccccc1)C1CC[NH+](C(=O)[C@@H](N)C2Cc3ccccc3C2)CC1 (cis-trans isomerization)
C/C=C(\O)N(c1ccccc1)C1CC[NH+](C(=O)[C@@H](N)C2Cc3ccccc3C2)CC1 (3D coordinates assigned)
C/C=C(\O)N(c1ccccc1)C1CC[NH+](C(=O)[C@@H](N)C2Cc3ccccc3C2)CC1 (nonaromatic ring conformer: 78.46698803806105 kcal/mol)

>  <smiles>  (31) 
CCC(=O)N(c1ccccc1)C1CCN(C(=O)[C@@H](N)C2Cc3ccccc3C2)CC1

>  <score_type>  (31) 
oracle

>  <origin>  (31) 
autodockgpu

>  <m_score__min__energy>  (31) 
-8.9299999999999997

>  <m_primary>  (31) 
energy

>  <meeko>  (31) 
{"free_energy": -7.4, "intermolecular_energy": -10.09, "internal_energy": -1.74, "cluster_size": 1, "cluster_id": 7, "rank_in_cluster": 1}

>  <energy>  (31) 
-7.88

>  <cluster_rmsd>  (31) 
1.82

>  <rmsd>  (31) 
270.86

>  <cluster>  (31) 
2

$$$$
LLZHWBREMUWYMR-DZSPIUQSNA-O
     RDKit          3D

 62 65  0  0  0  0  0  0  0  0999 V2000
  135.9330   79.0300  221.8880 H   0  0  0  0  0  0  0  0  0  0  0  0
  136.8500   78.6050  221.8240 O   0  0  0  0  0  0  0  0  0  0  0  0
  137.9180   78.9260  222.6750 C   0  0  0  0  0  0  0  0  0  0  0  0
  137.7710   79.8560  223.6420 C   0  0  0  0  0  0  0  0  0  0  0  0
  137.3523   79.5426  224.6097 H   0  0  0  0  0  0  0  0  0  0  0  0
  138.1500   81.2940  223.4620 C   0  0  0  0  0  0  0  0  0  0  0  0
  138.2745   81.7665  224.4475 H   0  0  0  0  0  0  0  0  0  0  0  0
  139.0954   81.3568  222.9032 H   0  0  0  0  0  0  0  0  0  0  0  0
  137.3584   81.8146  222.9032 H   0  0  0  0  0  0  0  0  0  0  0  0
  139.1770   78.2310  222.4970 N   0  0  0  0  0  0  0  0  0  0  0  0
  140.4170   78.9600  222.5890 C   0  0  0  0  0  0  0  0  0  0  0  0
  141.0770   79.0780  223.8210 C   0  0  0  0  0  0  0  0  0  0  0  0
  140.6364   78.6321  224.7249 H   0  0  0  0  0  0  0  0  0  0  0  0
  142.2950   79.7620  223.9020 C   0  0  0  0  0  0  0  0  0  0  0  0
  142.8054   79.8638  224.8711 H   0  0  0  0  0  0  0  0  0  0  0  0
  142.8630   80.3160  222.7510 C   0  0  0  0  0  0  0  0  0  0  0  0
  143.8200   80.8544  222.8157 H   0  0  0  0  0  0  0  0  0  0  0  0
  142.2170   80.1870  221.5180 C   0  0  0  0  0  0  0  0  0  0  0  0
  142.6672   80.6205  220.6128 H   0  0  0  0  0  0  0  0  0  0  0  0
  140.9990   79.5070  221.4360 C   0  0  0  0  0  0  0  0  0  0  0  0
  140.4950   79.4004  220.4641 H   0  0  0  0  0  0  0  0  0  0  0  0
  139.1700   76.8680  221.9240 C   0  0  2  0  0  0  0  0  0  0  0  0
  139.0007   76.9776  220.8426 H   0  0  0  0  0  0  0  0  0  0  0  0
  138.0240   76.0000  222.4810 C   0  0  0  0  0  0  0  0  0  0  0  0
  138.1126   75.9420  223.5759 H   0  0  0  0  0  0  0  0  0  0  0  0
  137.0629   76.4572  222.2029 H   0  0  0  0  0  0  0  0  0  0  0  0
  138.0900   74.5820  221.8920 C   0  0  0  0  0  0  0  0  0  0  0  0
  137.2983   73.9664  222.3438 H   0  0  0  0  0  0  0  0  0  0  0  0
  137.9503   74.6452  220.8027 H   0  0  0  0  0  0  0  0  0  0  0  0
  139.4040   73.9610  222.1670 N   0  0  1  0  0  0  0  0  0  0  0  0
  139.5420   73.9300  223.2050 H   0  0  0  0  0  0  0  0  0  0  0  0
  139.4350   72.6080  221.6460 C   0  0  0  0  0  0  0  0  0  0  0  0
  140.0300   72.3670  220.6050 O   0  0  0  0  0  0  0  0  0  0  0  0
  138.7770   71.4730  222.4150 C   0  0  1  0  0  0  0  0  0  0  0  0
  137.9516   71.9029  223.0015 H   0  0  0  0  0  0  0  0  0  0  0  0
  138.1770   70.4780  221.5150 N   0  0  0  0  0  0  0  0  0  0  0  0
  137.1490   70.6630  221.4550 H   0  0  0  0  0  0  0  0  0  0  0  0
  138.5580   70.5710  220.5480 H   0  0  0  0  0  0  0  0  0  0  0  0
  139.7710   70.8280  223.4160 C   0  0  0  0  0  0  0  0  0  0  0  0
  140.4386   70.2580  222.7531 H   0  0  0  0  0  0  0  0  0  0  0  0
  140.5640   71.8810  224.2330 C   0  0  0  0  0  0  0  0  0  0  0  0
  141.6002   71.9579  223.8721 H   0  0  0  0  0  0  0  0  0  0  0  0
  140.1395   72.8923  224.1492 H   0  0  0  0  0  0  0  0  0  0  0  0
  140.5250   71.3560  225.6180 C   0  0  0  0  0  0  0  0  0  0  0  0
  141.1810   71.8890  226.7280 C   0  0  0  0  0  0  0  0  0  0  0  0
  141.8174   72.7806  226.6284 H   0  0  0  0  0  0  0  0  0  0  0  0
  141.0130   71.2650  227.9750 C   0  0  0  0  0  0  0  0  0  0  0  0
  141.5227   71.6676  228.8628 H   0  0  0  0  0  0  0  0  0  0  0  0
  140.1950   70.1270  228.0920 C   0  0  0  0  0  0  0  0  0  0  0  0
  140.0656   69.6423  229.0709 H   0  0  0  0  0  0  0  0  0  0  0  0
  139.5440   69.6090  226.9630 C   0  0  0  0  0  0  0  0  0  0  0  0
  138.8993   68.7216  227.0458 H   0  0  0  0  0  0  0  0  0  0  0  0
  139.7300   70.2420  225.7300 C   0  0  0  0  0  0  0  0  0  0  0  0
  139.1320   69.8460  224.4340 C   0  0  0  0  0  0  0  0  0  0  0  0
  139.3865   68.8048  224.1868 H   0  0  0  0  0  0  0  0  0  0  0  0
  138.0331   69.8948  224.4399 H   0  0  0  0  0  0  0  0  0  0  0  0
  140.5050   74.7540  221.5800 C   0  0  0  0  0  0  0  0  0  0  0  0
  141.4630   74.2620  221.8040 H   0  0  0  0  0  0  0  0  0  0  0  0
  140.3524   74.8180  220.4925 H   0  0  0  0  0  0  0  0  0  0  0  0
  140.5220   76.1760  222.1590 C   0  0  0  0  0  0  0  0  0  0  0  0
  140.7195   76.1246  223.2399 H   0  0  0  0  0  0  0  0  0  0  0  0
  141.3108   76.7556  221.6570 H   0  0  0  0  0  0  0  0  0  0  0  0
  1  2  1  0
  2  3  1  0
  3  4  2  0
  4  5  1  0
  4  6  1  0
  6  7  1  0
  6  8  1  0
  6  9  1  0
  3 10  1  0
 10 11  1  0
 11 12  2  0
 12 13  1  0
 12 14  1  0
 14 15  1  0
 14 16  2  0
 16 17  1  0
 16 18  1  0
 18 19  1  0
 18 20  2  0
 20 21  1  0
 10 22  1  0
 22 23  1  6
 22 24  1  0
 24 25  1  0
 24 26  1  0
 24 27  1  0
 27 28  1  0
 27 29  1  0
 27 30  1  0
 30 31  1  1
 30 32  1  0
 32 33  2  0
 32 34  1  0
 34 35  1  1
 34 36  1  0
 36 37  1  0
 36 38  1  0
 34 39  1  0
 39 40  1  0
 39 41  1  0
 41 42  1  0
 41 43  1  0
 41 44  1  0
 44 45  2  0
 45 46  1  0
 45 47  1  0
 47 48  1  0
 47 49  2  0
 49 50  1  0
 49 51  1  0
 51 52  1  0
 51 53  2  0
 53 54  1  0
 54 55  1  0
 54 56  1  0
 30 57  1  0
 57 58  1  0
 57 59  1  0
 57 60  1  0
 60 61  1  0
 60 62  1  0
 20 11  1  0
 60 22  1  0
 54 39  1  0
 53 44  1  0
M  CHG  1  30   1
M  END
>  <UniqueID>  (32) 
44

>  <SMILES>  (32) 
C/C=C(\O)N(c1ccccc1)C1CC[NH+](C(=O)[C@@H](N)C2Cc3ccccc3C2)CC1

>  <Energy>  (32) 
78.46698803806105

>  <Genealogy>  (32) 
CCC(=O)N(c1ccccc1)C1CC[NH+](C(=O)[C@@H](N)C2Cc3ccccc3C2)CC1 (protonated)
CC=C(O)N(c1ccccc1)C1CC[NH+](C(=O)[C@@H](N)C2Cc3ccccc3C2)CC1 (tautomer)
C/C=C(\O)N(c1ccccc1)C1CC[NH+](C(=O)[C@@H](N)C2Cc3ccccc3C2)CC1 (cis-trans isomerization)
C/C=C(\O)N(c1ccccc1)C1CC[NH+](C(=O)[C@@H](N)C2Cc3ccccc3C2)CC1 (3D coordinates assigned)
C/C=C(\O)N(c1ccccc1)C1CC[NH+](C(=O)[C@@H](N)C2Cc3ccccc3C2)CC1 (nonaromatic ring conformer: 78.46698803806105 kcal/mol)

>  <smiles>  (32) 
CCC(=O)N(c1ccccc1)C1CCN(C(=O)[C@@H](N)C2Cc3ccccc3C2)CC1

>  <score_type>  (32) 
oracle

>  <origin>  (32) 
autodockgpu

>  <m_score__min__energy>  (32) 
-8.9299999999999997

>  <m_primary>  (32) 
energy

>  <meeko>  (32) 
{"free_energy": -7.82, "intermolecular_energy": -10.5, "internal_energy": -1.82, "cluster_size": 3, "cluster_id": 6, "rank_in_cluster": 1}

>  <energy>  (32) 
-7.84

>  <cluster_rmsd>  (32) 
1.95

>  <rmsd>  (32) 
270.91

>  <cluster>  (32) 
2

$$$$
LLZHWBREMUWYMR-DZSPIUQSNA-O
     RDKit          3D

 62 65  0  0  0  0  0  0  0  0999 V2000
  146.4560   74.0800  218.0630 H   0  0  0  0  0  0  0  0  0  0  0  0
  146.2890   73.1900  218.5170 O   0  0  0  0  0  0  0  0  0  0  0  0
  145.5280   73.0430  219.6860 C   0  0  0  0  0  0  0  0  0  0  0  0
  145.7990   73.7840  220.7820 C   0  0  0  0  0  0  0  0  0  0  0  0
  145.3507   74.7854  220.8603 H   0  0  0  0  0  0  0  0  0  0  0  0
  146.6800   73.3090  221.8960 C   0  0  0  0  0  0  0  0  0  0  0  0
  146.2166   73.5588  222.8619 H   0  0  0  0  0  0  0  0  0  0  0  0
  146.8090   72.2191  221.8222 H   0  0  0  0  0  0  0  0  0  0  0  0
  147.6615   73.8002  221.8222 H   0  0  0  0  0  0  0  0  0  0  0  0
  144.4400   72.0850  219.6880 N   0  0  0  0  0  0  0  0  0  0  0  0
  144.7190   70.6850  219.4860 C   0  0  0  0  0  0  0  0  0  0  0  0
  145.9970   70.2700  219.0850 C   0  0  0  0  0  0  0  0  0  0  0  0
  146.7840   71.0163  218.9014 H   0  0  0  0  0  0  0  0  0  0  0  0
  146.2730   68.9090  218.9180 C   0  0  0  0  0  0  0  0  0  0  0  0
  147.2732   68.5865  218.5932 H   0  0  0  0  0  0  0  0  0  0  0  0
  145.2770   67.9580  219.1640 C   0  0  0  0  0  0  0  0  0  0  0  0
  145.4940   66.8880  219.0300 H   0  0  0  0  0  0  0  0  0  0  0  0
  144.0060   68.3660  219.5800 C   0  0  0  0  0  0  0  0  0  0  0  0
  143.2250   67.6170  219.7774 H   0  0  0  0  0  0  0  0  0  0  0  0
  143.7280   69.7260  219.7450 C   0  0  0  0  0  0  0  0  0  0  0  0
  142.7297   70.0452  220.0788 H   0  0  0  0  0  0  0  0  0  0  0  0
  143.0500   72.5770  219.5850 C   0  0  2  0  0  0  0  0  0  0  0  0
  142.5249   71.9070  218.8883 H   0  0  0  0  0  0  0  0  0  0  0  0
  142.9710   74.0010  218.9990 C   0  0  0  0  0  0  0  0  0  0  0  0
  143.5624   74.6844  219.6261 H   0  0  0  0  0  0  0  0  0  0  0  0
  143.3701   73.9878  217.9740 H   0  0  0  0  0  0  0  0  0  0  0  0
  141.5120   74.4840  218.9600 C   0  0  0  0  0  0  0  0  0  0  0  0
  141.4846   75.5195  218.5898 H   0  0  0  0  0  0  0  0  0  0  0  0
  140.9395   73.8235  218.2922 H   0  0  0  0  0  0  0  0  0  0  0  0
  140.9070   74.4350  220.3080 N   0  0  1  0  0  0  0  0  0  0  0  0
  141.4730   75.0430  220.9460 H   0  0  0  0  0  0  0  0  0  0  0  0
  139.5470   74.9360  220.2640 C   0  0  0  0  0  0  0  0  0  0  0  0
  138.7990   74.5970  219.3560 O   0  0  0  0  0  0  0  0  0  0  0  0
  139.0250   75.8420  221.3690 C   0  0  1  0  0  0  0  0  0  0  0  0
  137.9284   75.8705  221.2879 H   0  0  0  0  0  0  0  0  0  0  0  0
  139.3320   75.3080  222.7030 N   0  0  0  0  0  0  0  0  0  0  0  0
  138.6540   75.7180  223.3880 H   0  0  0  0  0  0  0  0  0  0  0  0
  139.2020   74.2730  222.7310 H   0  0  0  0  0  0  0  0  0  0  0  0
  139.5400   77.2930  221.1890 C   0  0  0  0  0  0  0  0  0  0  0  0
  139.1583   77.5573  220.1918 H   0  0  0  0  0  0  0  0  0  0  0  0
  138.9920   78.2610  222.2690 C   0  0  0  0  0  0  0  0  0  0  0  0
  138.2108   78.9128  221.8508 H   0  0  0  0  0  0  0  0  0  0  0  0
  138.5253   77.7345  223.1146 H   0  0  0  0  0  0  0  0  0  0  0  0
  140.1790   79.0510  222.6710 C   0  0  0  0  0  0  0  0  0  0  0  0
  140.1990   80.1310  223.5540 C   0  0  0  0  0  0  0  0  0  0  0  0
  139.2699   80.4902  224.0207 H   0  0  0  0  0  0  0  0  0  0  0  0
  141.4270   80.7510  223.8360 C   0  0  0  0  0  0  0  0  0  0  0  0
  141.4649   81.6047  224.5287 H   0  0  0  0  0  0  0  0  0  0  0  0
  142.6090   80.2820  223.2340 C   0  0  0  0  0  0  0  0  0  0  0  0
  143.5692   80.7702  223.4567 H   0  0  0  0  0  0  0  0  0  0  0  0
  142.5660   79.1940  222.3510 C   0  0  0  0  0  0  0  0  0  0  0  0
  143.4861   78.8186  221.8794 H   0  0  0  0  0  0  0  0  0  0  0  0
  141.3320   78.5950  222.0810 C   0  0  0  0  0  0  0  0  0  0  0  0
  141.0850   77.4440  221.1830 C   0  0  0  0  0  0  0  0  0  0  0  0
  141.4542   77.6528  220.1681 H   0  0  0  0  0  0  0  0  0  0  0  0
  141.6025   76.5304  221.5110 H   0  0  0  0  0  0  0  0  0  0  0  0
  140.9210   73.0600  220.8520 C   0  0  0  0  0  0  0  0  0  0  0  0
  140.4640   73.0636  221.8526 H   0  0  0  0  0  0  0  0  0  0  0  0
  140.3528   72.4069  220.1733 H   0  0  0  0  0  0  0  0  0  0  0  0
  142.3570   72.5290  220.9570 C   0  0  0  0  0  0  0  0  0  0  0  0
  142.9211   73.1488  221.6695 H   0  0  0  0  0  0  0  0  0  0  0  0
  142.3263   71.4856  221.3040 H   0  0  0  0  0  0  0  0  0  0  0  0
  1  2  1  0
  2  3  1  0
  3  4  2  0
  4  5  1  0
  4  6  1  0
  6  7  1  0
  6  8  1  0
  6  9  1  0
  3 10  1  0
 10 11  1  0
 11 12  2  0
 12 13  1  0
 12 14  1  0
 14 15  1  0
 14 16  2  0
 16 17  1  0
 16 18  1  0
 18 19  1  0
 18 20  2  0
 20 21  1  0
 10 22  1  0
 22 23  1  6
 22 24  1  0
 24 25  1  0
 24 26  1  0
 24 27  1  0
 27 28  1  0
 27 29  1  0
 27 30  1  0
 30 31  1  1
 30 32  1  0
 32 33  2  0
 32 34  1  0
 34 35  1  6
 34 36  1  0
 36 37  1  0
 36 38  1  0
 34 39  1  0
 39 40  1  0
 39 41  1  0
 41 42  1  0
 41 43  1  0
 41 44  1  0
 44 45  2  0
 45 46  1  0
 45 47  1  0
 47 48  1  0
 47 49  2  0
 49 50  1  0
 49 51  1  0
 51 52  1  0
 51 53  2  0
 53 54  1  0
 54 55  1  0
 54 56  1  0
 30 57  1  0
 57 58  1  0
 57 59  1  0
 57 60  1  0
 60 61  1  0
 60 62  1  0
 20 11  1  0
 60 22  1  0
 54 39  1  0
 53 44  1  0
M  CHG  1  30   1
M  END
>  <UniqueID>  (33) 
44

>  <SMILES>  (33) 
C/C=C(\O)N(c1ccccc1)C1CC[NH+](C(=O)[C@@H](N)C2Cc3ccccc3C2)CC1

>  <Energy>  (33) 
78.46698803806105

>  <Genealogy>  (33) 
CCC(=O)N(c1ccccc1)C1CC[NH+](C(=O)[C@@H](N)C2Cc3ccccc3C2)CC1 (protonated)
CC=C(O)N(c1ccccc1)C1CC[NH+](C(=O)[C@@H](N)C2Cc3ccccc3C2)CC1 (tautomer)
C/C=C(\O)N(c1ccccc1)C1CC[NH+](C(=O)[C@@H](N)C2Cc3ccccc3C2)CC1 (cis-trans isomerization)
C/C=C(\O)N(c1ccccc1)C1CC[NH+](C(=O)[C@@H](N)C2Cc3ccccc3C2)CC1 (3D coordinates assigned)
C/C=C(\O)N(c1ccccc1)C1CC[NH+](C(=O)[C@@H](N)C2Cc3ccccc3C2)CC1 (nonaromatic ring conformer: 78.46698803806105 kcal/mol)

>  <smiles>  (33) 
CCC(=O)N(c1ccccc1)C1CCN(C(=O)[C@@H](N)C2Cc3ccccc3C2)CC1

>  <score_type>  (33) 
oracle

>  <origin>  (33) 
autodockgpu

>  <m_score__min__energy>  (33) 
-8.9299999999999997

>  <m_primary>  (33) 
energy

>  <meeko>  (33) 
{"free_energy": -8.46, "intermolecular_energy": -11.15, "internal_energy": -1.49, "cluster_size": 3, "cluster_id": 1, "rank_in_cluster": 2}

>  <energy>  (33) 
-7.93

>  <cluster_rmsd>  (33) 
0.0

>  <rmsd>  (33) 
271.06

>  <cluster>  (33) 
3

$$$$
LLZHWBREMUWYMR-DZSPIUQSNA-O
     RDKit          3D

 62 65  0  0  0  0  0  0  0  0999 V2000
  140.3980   66.8930  225.1580 H   0  0  0  0  0  0  0  0  0  0  0  0
  139.5190   67.3960  225.1510 O   0  0  0  0  0  0  0  0  0  0  0  0
  139.1800   68.3580  224.1870 C   0  0  0  0  0  0  0  0  0  0  0  0
  138.4550   68.0160  223.1000 C   0  0  0  0  0  0  0  0  0  0  0  0
  137.6095   68.6582  222.8124 H   0  0  0  0  0  0  0  0  0  0  0  0
  138.7450   66.8060  222.2670 C   0  0  0  0  0  0  0  0  0  0  0  0
  138.9505   65.9486  222.9248 H   0  0  0  0  0  0  0  0  0  0  0  0
  137.8754   66.5809  221.6321 H   0  0  0  0  0  0  0  0  0  0  0  0
  139.6222   66.9996  221.6321 H   0  0  0  0  0  0  0  0  0  0  0  0
  139.6190   69.7240  224.3890 N   0  0  0  0  0  0  0  0  0  0  0  0
  139.9240   70.1890  225.7180 C   0  0  0  0  0  0  0  0  0  0  0  0
  140.8010   71.2690  225.9030 C   0  0  0  0  0  0  0  0  0  0  0  0
  141.2741   71.7479  225.0331 H   0  0  0  0  0  0  0  0  0  0  0  0
  141.0740   71.7370  227.1930 C   0  0  0  0  0  0  0  0  0  0  0  0
  141.7710   72.5756  227.3375 H   0  0  0  0  0  0  0  0  0  0  0  0
  140.4610   71.1390  228.2990 C   0  0  0  0  0  0  0  0  0  0  0  0
  140.6776   71.5067  229.3128 H   0  0  0  0  0  0  0  0  0  0  0  0
  139.5730   70.0740  228.1170 C   0  0  0  0  0  0  0  0  0  0  0  0
  139.0878   69.6078  228.9872 H   0  0  0  0  0  0  0  0  0  0  0  0
  139.3020   69.6020  226.8300 C   0  0  0  0  0  0  0  0  0  0  0  0
  138.5990   68.7679  226.6884 H   0  0  0  0  0  0  0  0  0  0  0  0
  139.4510   70.7000  223.2910 C   0  0  2  0  0  0  0  0  0  0  0  0
  139.3790   70.1217  222.3580 H   0  0  0  0  0  0  0  0  0  0  0  0
  140.6620   71.6450  223.1530 C   0  0  0  0  0  0  0  0  0  0  0  0
  140.8173   72.1763  224.1036 H   0  0  0  0  0  0  0  0  0  0  0  0
  141.5525   71.0497  222.9029 H   0  0  0  0  0  0  0  0  0  0  0  0
  140.4170   72.6700  222.0340 C   0  0  0  0  0  0  0  0  0  0  0  0
  141.2676   73.3661  221.9901 H   0  0  0  0  0  0  0  0  0  0  0  0
  140.3126   72.1323  221.0800 H   0  0  0  0  0  0  0  0  0  0  0  0
  139.1770   73.4350  222.2850 N   0  0  1  0  0  0  0  0  0  0  0  0
  139.2720   73.9220  223.2080 H   0  0  0  0  0  0  0  0  0  0  0  0
  138.9840   74.4280  221.2460 C   0  0  0  0  0  0  0  0  0  0  0  0
  139.0190   74.0970  220.0680 O   0  0  0  0  0  0  0  0  0  0  0  0
  138.6840   75.8740  221.6100 C   0  0  1  0  0  0  0  0  0  0  0  0
  137.8719   76.2219  220.9547 H   0  0  0  0  0  0  0  0  0  0  0  0
  138.1920   75.9990  222.9890 N   0  0  0  0  0  0  0  0  0  0  0  0
  137.4620   75.2670  223.1490 H   0  0  0  0  0  0  0  0  0  0  0  0
  138.9560   75.8200  223.6770 H   0  0  0  0  0  0  0  0  0  0  0  0
  139.9140   76.7810  221.3460 C   0  0  0  0  0  0  0  0  0  0  0  0
  140.3811   76.2981  220.4750 H   0  0  0  0  0  0  0  0  0  0  0  0
  139.5190   78.2450  221.0260 C   0  0  0  0  0  0  0  0  0  0  0  0
  139.6352   78.4566  219.9528 H   0  0  0  0  0  0  0  0  0  0  0  0
  138.4678   78.4639  221.2647 H   0  0  0  0  0  0  0  0  0  0  0  0
  140.4690   79.0510  221.8290 C   0  0  0  0  0  0  0  0  0  0  0  0
  140.5960   80.4410  221.8180 C   0  0  0  0  0  0  0  0  0  0  0  0
  139.9667   81.0563  221.1581 H   0  0  0  0  0  0  0  0  0  0  0  0
  141.5430   81.0390  222.6660 C   0  0  0  0  0  0  0  0  0  0  0  0
  141.6602   82.1327  222.6735 H   0  0  0  0  0  0  0  0  0  0  0  0
  142.3420   80.2410  223.5060 C   0  0  0  0  0  0  0  0  0  0  0  0
  143.0830   80.7126  224.1682 H   0  0  0  0  0  0  0  0  0  0  0  0
  142.1960   78.8470  223.5010 C   0  0  0  0  0  0  0  0  0  0  0  0
  142.8135   78.2166  224.1577 H   0  0  0  0  0  0  0  0  0  0  0  0
  141.2510   78.2730  222.6460 C   0  0  0  0  0  0  0  0  0  0  0  0
  140.9530   76.8300  222.4980 C   0  0  0  0  0  0  0  0  0  0  0  0
  141.8603   76.2681  222.2312 H   0  0  0  0  0  0  0  0  0  0  0  0
  140.5784   76.3762  223.4274 H   0  0  0  0  0  0  0  0  0  0  0  0
  138.0010   72.5410  222.3550 C   0  0  0  0  0  0  0  0  0  0  0  0
  137.1003   73.1443  222.5414 H   0  0  0  0  0  0  0  0  0  0  0  0
  137.9112   72.0023  221.4001 H   0  0  0  0  0  0  0  0  0  0  0  0
  138.1610   71.5150  223.4840 C   0  0  0  0  0  0  0  0  0  0  0  0
  138.2064   72.0419  224.4485 H   0  0  0  0  0  0  0  0  0  0  0  0
  137.3008   70.8296  223.4670 H   0  0  0  0  0  0  0  0  0  0  0  0
  1  2  1  0
  2  3  1  0
  3  4  2  0
  4  5  1  0
  4  6  1  0
  6  7  1  0
  6  8  1  0
  6  9  1  0
  3 10  1  0
 10 11  1  0
 11 12  2  0
 12 13  1  0
 12 14  1  0
 14 15  1  0
 14 16  2  0
 16 17  1  0
 16 18  1  0
 18 19  1  0
 18 20  2  0
 20 21  1  0
 10 22  1  0
 22 23  1  6
 22 24  1  0
 24 25  1  0
 24 26  1  0
 24 27  1  0
 27 28  1  0
 27 29  1  0
 27 30  1  0
 30 31  1  1
 30 32  1  0
 32 33  2  0
 32 34  1  0
 34 35  1  6
 34 36  1  0
 36 37  1  0
 36 38  1  0
 34 39  1  0
 39 40  1  0
 39 41  1  0
 41 42  1  0
 41 43  1  0
 41 44  1  0
 44 45  2  0
 45 46  1  0
 45 47  1  0
 47 48  1  0
 47 49  2  0
 49 50  1  0
 49 51  1  0
 51 52  1  0
 51 53  2  0
 53 54  1  0
 54 55  1  0
 54 56  1  0
 30 57  1  0
 57 58  1  0
 57 59  1  0
 57 60  1  0
 60 61  1  0
 60 62  1  0
 20 11  1  0
 60 22  1  0
 54 39  1  0
 53 44  1  0
M  CHG  1  30   1
M  END
>  <UniqueID>  (34) 
44

>  <SMILES>  (34) 
C/C=C(\O)N(c1ccccc1)C1CC[NH+](C(=O)[C@@H](N)C2Cc3ccccc3C2)CC1

>  <Energy>  (34) 
78.46698803806105

>  <Genealogy>  (34) 
CCC(=O)N(c1ccccc1)C1CC[NH+](C(=O)[C@@H](N)C2Cc3ccccc3C2)CC1 (protonated)
CC=C(O)N(c1ccccc1)C1CC[NH+](C(=O)[C@@H](N)C2Cc3ccccc3C2)CC1 (tautomer)
C/C=C(\O)N(c1ccccc1)C1CC[NH+](C(=O)[C@@H](N)C2Cc3ccccc3C2)CC1 (cis-trans isomerization)
C/C=C(\O)N(c1ccccc1)C1CC[NH+](C(=O)[C@@H](N)C2Cc3ccccc3C2)CC1 (3D coordinates assigned)
C/C=C(\O)N(c1ccccc1)C1CC[NH+](C(=O)[C@@H](N)C2Cc3ccccc3C2)CC1 (nonaromatic ring conformer: 78.46698803806105 kcal/mol)

>  <smiles>  (34) 
CCC(=O)N(c1ccccc1)C1CCN(C(=O)[C@@H](N)C2Cc3ccccc3C2)CC1

>  <score_type>  (34) 
oracle

>  <origin>  (34) 
autodockgpu

>  <m_score__min__energy>  (34) 
-8.9299999999999997

>  <m_primary>  (34) 
energy

>  <meeko>  (34) 
{"free_energy": -8.81, "intermolecular_energy": -11.49, "internal_energy": -1.2, "cluster_size": 9, "cluster_id": 2, "rank_in_cluster": 2}

>  <energy>  (34) 
-7.79

>  <cluster_rmsd>  (34) 
1.78

>  <rmsd>  (34) 
270.86

>  <cluster>  (34) 
3

$$$$
LLZHWBREMUWYMR-DZSPIUQSNA-O
     RDKit          3D

 62 65  0  0  0  0  0  0  0  0999 V2000
  144.1170   77.4630  219.8520 H   0  0  0  0  0  0  0  0  0  0  0  0
  143.6950   76.7490  219.2710 O   0  0  0  0  0  0  0  0  0  0  0  0
  143.0100   75.6350  219.7810 C   0  0  0  0  0  0  0  0  0  0  0  0
  143.5710   74.4070  219.7450 C   0  0  0  0  0  0  0  0  0  0  0  0
  143.0570   73.6129  219.1836 H   0  0  0  0  0  0  0  0  0  0  0  0
  144.8600   74.0740  220.4330 C   0  0  0  0  0  0  0  0  0  0  0  0
  144.7144   74.1116  221.5227 H   0  0  0  0  0  0  0  0  0  0  0  0
  145.1812   73.0634  220.1407 H   0  0  0  0  0  0  0  0  0  0  0  0
  145.6305   74.8026  220.1407 H   0  0  0  0  0  0  0  0  0  0  0  0
  141.6940   75.8350  220.3520 N   0  0  0  0  0  0  0  0  0  0  0  0
  141.3890   77.0640  221.0380 C   0  0  0  0  0  0  0  0  0  0  0  0
  141.0940   77.0530  222.4090 C   0  0  0  0  0  0  0  0  0  0  0  0
  141.0732   76.1004  222.9586 H   0  0  0  0  0  0  0  0  0  0  0  0
  140.8260   78.2520  223.0790 C   0  0  0  0  0  0  0  0  0  0  0  0
  140.5823   78.2401  224.1516 H   0  0  0  0  0  0  0  0  0  0  0  0
  140.8680   79.4650  222.3850 C   0  0  0  0  0  0  0  0  0  0  0  0
  140.6567   80.4069  222.9125 H   0  0  0  0  0  0  0  0  0  0  0  0
  141.1780   79.4830  221.0220 C   0  0  0  0  0  0  0  0  0  0  0  0
  141.2142   80.4387  220.4785 H   0  0  0  0  0  0  0  0  0  0  0  0
  141.4420   78.2860  220.3500 C   0  0  0  0  0  0  0  0  0  0  0  0
  141.6920   78.3020  219.2789 H   0  0  0  0  0  0  0  0  0  0  0  0
  140.7910   74.6720  220.4960 C   0  0  2  0  0  0  0  0  0  0  0  0
  140.7910   74.1461  219.5299 H   0  0  0  0  0  0  0  0  0  0  0  0
  139.3360   75.0890  220.7910 C   0  0  0  0  0  0  0  0  0  0  0  0
  139.3116   75.6953  221.7085 H   0  0  0  0  0  0  0  0  0  0  0  0
  138.9530   75.6736  219.9415 H   0  0  0  0  0  0  0  0  0  0  0  0
  138.4510   73.8470  220.9810 C   0  0  0  0  0  0  0  0  0  0  0  0
  137.4320   74.1672  221.2441 H   0  0  0  0  0  0  0  0  0  0  0  0
  138.4421   73.2737  220.0423 H   0  0  0  0  0  0  0  0  0  0  0  0
  138.9810   72.9840  222.0580 N   0  0  1  0  0  0  0  0  0  0  0  0
  139.0140   73.5450  222.9430 H   0  0  0  0  0  0  0  0  0  0  0  0
  138.1110   71.8410  222.2570 C   0  0  0  0  0  0  0  0  0  0  0  0
  137.5700   71.3100  221.2970 O   0  0  0  0  0  0  0  0  0  0  0  0
  137.9060   71.2640  223.6490 C   0  0  1  0  0  0  0  0  0  0  0  0
  137.6994   72.1016  224.3315 H   0  0  0  0  0  0  0  0  0  0  0  0
  136.7340   70.3800  223.7070 N   0  0  0  0  0  0  0  0  0  0  0  0
  135.9620   70.8850  224.2010 H   0  0  0  0  0  0  0  0  0  0  0  0
  136.3860   70.1570  222.7490 H   0  0  0  0  0  0  0  0  0  0  0  0
  139.1930   70.5600  224.1530 C   0  0  0  0  0  0  0  0  0  0  0  0
  139.7992   70.4919  223.2377 H   0  0  0  0  0  0  0  0  0  0  0  0
  139.9290   71.3720  225.2490 C   0  0  0  0  0  0  0  0  0  0  0  0
  140.8319   71.8505  224.8419 H   0  0  0  0  0  0  0  0  0  0  0  0
  139.3139   72.1864  225.6594 H   0  0  0  0  0  0  0  0  0  0  0  0
  140.2840   70.3550  226.2660 C   0  0  0  0  0  0  0  0  0  0  0  0
  141.0480   70.5590  227.4160 C   0  0  0  0  0  0  0  0  0  0  0  0
  141.4700   71.5499  227.6398 H   0  0  0  0  0  0  0  0  0  0  0  0
  141.2680   69.4760  228.2820 C   0  0  0  0  0  0  0  0  0  0  0  0
  141.8690   69.6147  229.1928 H   0  0  0  0  0  0  0  0  0  0  0  0
  140.7210   68.2130  227.9870 C   0  0  0  0  0  0  0  0  0  0  0  0
  140.8949   67.3669  228.6681 H   0  0  0  0  0  0  0  0  0  0  0  0
  139.9550   68.0310  226.8270 C   0  0  0  0  0  0  0  0  0  0  0  0
  139.5204   67.0485  226.5908 H   0  0  0  0  0  0  0  0  0  0  0  0
  139.7540   69.1220  225.9760 C   0  0  0  0  0  0  0  0  0  0  0  0
  138.9800   69.1280  224.7130 C   0  0  0  0  0  0  0  0  0  0  0  0
  139.3665   68.3724  224.0133 H   0  0  0  0  0  0  0  0  0  0  0  0
  137.9180   68.8848  224.8645 H   0  0  0  0  0  0  0  0  0  0  0  0
  140.3540   72.5280  221.7530 C   0  0  0  0  0  0  0  0  0  0  0  0
  140.7132   71.8913  222.5749 H   0  0  0  0  0  0  0  0  0  0  0  0
  140.3358   71.9625  220.8097 H   0  0  0  0  0  0  0  0  0  0  0  0
  141.3030   73.7230  221.5910 C   0  0  0  0  0  0  0  0  0  0  0  0
  141.3636   74.2690  222.5440 H   0  0  0  0  0  0  0  0  0  0  0  0
  142.2975   73.3512  221.3032 H   0  0  0  0  0  0  0  0  0  0  0  0
  1  2  1  0
  2  3  1  0
  3  4  2  0
  4  5  1  0
  4  6  1  0
  6  7  1  0
  6  8  1  0
  6  9  1  0
  3 10  1  0
 10 11  1  0
 11 12  2  0
 12 13  1  0
 12 14  1  0
 14 15  1  0
 14 16  2  0
 16 17  1  0
 16 18  1  0
 18 19  1  0
 18 20  2  0
 20 21  1  0
 10 22  1  0
 22 23  1  6
 22 24  1  0
 24 25  1  0
 24 26  1  0
 24 27  1  0
 27 28  1  0
 27 29  1  0
 27 30  1  0
 30 31  1  1
 30 32  1  0
 32 33  2  0
 32 34  1  0
 34 35  1  1
 34 36  1  0
 36 37  1  0
 36 38  1  0
 34 39  1  0
 39 40  1  0
 39 41  1  0
 41 42  1  0
 41 43  1  0
 41 44  1  0
 44 45  2  0
 45 46  1  0
 45 47  1  0
 47 48  1  0
 47 49  2  0
 49 50  1  0
 49 51  1  0
 51 52  1  0
 51 53  2  0
 53 54  1  0
 54 55  1  0
 54 56  1  0
 30 57  1  0
 57 58  1  0
 57 59  1  0
 57 60  1  0
 60 61  1  0
 60 62  1  0
 20 11  1  0
 60 22  1  0
 54 39  1  0
 53 44  1  0
M  CHG  1  30   1
M  END
>  <UniqueID>  (35) 
44

>  <SMILES>  (35) 
C/C=C(\O)N(c1ccccc1)C1CC[NH+](C(=O)[C@@H](N)C2Cc3ccccc3C2)CC1

>  <Energy>  (35) 
78.46698803806105

>  <Genealogy>  (35) 
CCC(=O)N(c1ccccc1)C1CC[NH+](C(=O)[C@@H](N)C2Cc3ccccc3C2)CC1 (protonated)
CC=C(O)N(c1ccccc1)C1CC[NH+](C(=O)[C@@H](N)C2Cc3ccccc3C2)CC1 (tautomer)
C/C=C(\O)N(c1ccccc1)C1CC[NH+](C(=O)[C@@H](N)C2Cc3ccccc3C2)CC1 (cis-trans isomerization)
C/C=C(\O)N(c1ccccc1)C1CC[NH+](C(=O)[C@@H](N)C2Cc3ccccc3C2)CC1 (3D coordinates assigned)
C/C=C(\O)N(c1ccccc1)C1CC[NH+](C(=O)[C@@H](N)C2Cc3ccccc3C2)CC1 (nonaromatic ring conformer: 78.46698803806105 kcal/mol)

>  <smiles>  (35) 
CCC(=O)N(c1ccccc1)C1CCN(C(=O)[C@@H](N)C2Cc3ccccc3C2)CC1

>  <score_type>  (35) 
oracle

>  <origin>  (35) 
autodockgpu

>  <m_score__min__energy>  (35) 
-8.9299999999999997

>  <m_primary>  (35) 
energy

>  <meeko>  (35) 
{"free_energy": -7.79, "intermolecular_energy": -10.48, "internal_energy": -1.65, "cluster_size": 2, "cluster_id": 3, "rank_in_cluster": 2}

>  <energy>  (35) 
-7.86

>  <cluster_rmsd>  (35) 
0.0

>  <rmsd>  (35) 
270.54

>  <cluster>  (35) 
4

$$$$
LLZHWBREMUWYMR-DZSPIUQSNA-O
     RDKit          3D

 62 65  0  0  0  0  0  0  0  0999 V2000
  136.0240   79.0870  221.7000 H   0  0  0  0  0  0  0  0  0  0  0  0
  136.9170   78.6100  221.7070 O   0  0  0  0  0  0  0  0  0  0  0  0
  137.9570   78.9170  222.5980 C   0  0  0  0  0  0  0  0  0  0  0  0
  137.7770   79.8300  223.5770 C   0  0  0  0  0  0  0  0  0  0  0  0
  137.3009   79.5054  224.5140 H   0  0  0  0  0  0  0  0  0  0  0  0
  138.1940   81.2630  223.4490 C   0  0  0  0  0  0  0  0  0  0  0  0
  138.3208   81.6989  224.4510 H   0  0  0  0  0  0  0  0  0  0  0  0
  139.1461   81.3203  222.9010 H   0  0  0  0  0  0  0  0  0  0  0  0
  137.4213   81.8222  222.9010 H   0  0  0  0  0  0  0  0  0  0  0  0
  139.2230   78.2280  222.4480 N   0  0  0  0  0  0  0  0  0  0  0  0
  140.4560   78.9650  222.5550 C   0  0  0  0  0  0  0  0  0  0  0  0
  141.1140   79.0650  223.7900 C   0  0  0  0  0  0  0  0  0  0  0  0
  140.6756   78.5995  224.6850 H   0  0  0  0  0  0  0  0  0  0  0  0
  142.3270   79.7560  223.8850 C   0  0  0  0  0  0  0  0  0  0  0  0
  142.8362   79.8423  224.8562 H   0  0  0  0  0  0  0  0  0  0  0  0
  142.8920   80.3370  222.7450 C   0  0  0  0  0  0  0  0  0  0  0  0
  143.8442   80.8823  222.8214 H   0  0  0  0  0  0  0  0  0  0  0  0
  142.2490   80.2260  221.5090 C   0  0  0  0  0  0  0  0  0  0  0  0
  142.6973   80.6793  220.6126 H   0  0  0  0  0  0  0  0  0  0  0  0
  141.0350   79.5380  221.4130 C   0  0  0  0  0  0  0  0  0  0  0  0
  140.5326   79.4460  220.4387 H   0  0  0  0  0  0  0  0  0  0  0  0
  139.2330   76.8610  221.8860 C   0  0  2  0  0  0  0  0  0  0  0  0
  139.0897   76.9619  220.8001 H   0  0  0  0  0  0  0  0  0  0  0  0
  138.0760   75.9940  222.4220 C   0  0  0  0  0  0  0  0  0  0  0  0
  138.1380   75.9453  223.5192 H   0  0  0  0  0  0  0  0  0  0  0  0
  137.1208   76.4460  222.1165 H   0  0  0  0  0  0  0  0  0  0  0  0
  138.1600   74.5720  221.8470 C   0  0  0  0  0  0  0  0  0  0  0  0
  137.3584   73.9583  222.2838 H   0  0  0  0  0  0  0  0  0  0  0  0
  138.0479   74.6261  220.7541 H   0  0  0  0  0  0  0  0  0  0  0  0
  139.4680   73.9560  222.1600 N   0  0  1  0  0  0  0  0  0  0  0  0
  139.5810   73.9340  223.2010 H   0  0  0  0  0  0  0  0  0  0  0  0
  139.5160   72.5980  221.6510 C   0  0  0  0  0  0  0  0  0  0  0  0
  140.1240   72.3530  220.6180 O   0  0  0  0  0  0  0  0  0  0  0  0
  138.8580   71.4650  222.4230 C   0  0  1  0  0  0  0  0  0  0  0  0
  138.0277   71.8936  223.0035 H   0  0  0  0  0  0  0  0  0  0  0  0
  138.2670   70.4640  221.5250 N   0  0  0  0  0  0  0  0  0  0  0  0
  138.6160   70.6410  220.5550 H   0  0  0  0  0  0  0  0  0  0  0  0
  138.5730   69.5010  221.7860 H   0  0  0  0  0  0  0  0  0  0  0  0
  139.8500   70.8300  223.4320 C   0  0  0  0  0  0  0  0  0  0  0  0
  140.5220   70.2585  222.7749 H   0  0  0  0  0  0  0  0  0  0  0  0
  140.6360   71.8900  224.2460 C   0  0  0  0  0  0  0  0  0  0  0  0
  141.6733   71.9683  223.8885 H   0  0  0  0  0  0  0  0  0  0  0  0
  140.2079   72.8991  224.1548 H   0  0  0  0  0  0  0  0  0  0  0  0
  140.5940   71.3740  225.6330 C   0  0  0  0  0  0  0  0  0  0  0  0
  141.2440   71.9160  226.7430 C   0  0  0  0  0  0  0  0  0  0  0  0
  141.8791   72.8082  226.6399 H   0  0  0  0  0  0  0  0  0  0  0  0
  141.0720   71.3010  227.9940 C   0  0  0  0  0  0  0  0  0  0  0  0
  141.5756   71.7117  228.8815 H   0  0  0  0  0  0  0  0  0  0  0  0
  140.2570   70.1610  228.1140 C   0  0  0  0  0  0  0  0  0  0  0  0
  140.1251   69.6821  229.0954 H   0  0  0  0  0  0  0  0  0  0  0  0
  139.6120   69.6330  226.9860 C   0  0  0  0  0  0  0  0  0  0  0  0
  138.9701   68.7439  227.0720 H   0  0  0  0  0  0  0  0  0  0  0  0
  139.8010   70.2590  225.7500 C   0  0  0  0  0  0  0  0  0  0  0  0
  139.2100   69.8530  224.4540 C   0  0  0  0  0  0  0  0  0  0  0  0
  139.4688   68.8110  224.2148 H   0  0  0  0  0  0  0  0  0  0  0  0
  138.1110   69.8988  224.4550 H   0  0  0  0  0  0  0  0  0  0  0  0
  140.5820   74.7470  221.5930 C   0  0  0  0  0  0  0  0  0  0  0  0
  141.5353   74.2595  221.8449 H   0  0  0  0  0  0  0  0  0  0  0  0
  140.4564   74.8011  220.5015 H   0  0  0  0  0  0  0  0  0  0  0  0
  140.5810   76.1740  222.1600 C   0  0  0  0  0  0  0  0  0  0  0  0
  140.7520   76.1323  223.2458 H   0  0  0  0  0  0  0  0  0  0  0  0
  141.3803   76.7513  221.6723 H   0  0  0  0  0  0  0  0  0  0  0  0
  1  2  1  0
  2  3  1  0
  3  4  2  0
  4  5  1  0
  4  6  1  0
  6  7  1  0
  6  8  1  0
  6  9  1  0
  3 10  1  0
 10 11  1  0
 11 12  2  0
 12 13  1  0
 12 14  1  0
 14 15  1  0
 14 16  2  0
 16 17  1  0
 16 18  1  0
 18 19  1  0
 18 20  2  0
 20 21  1  0
 10 22  1  0
 22 23  1  6
 22 24  1  0
 24 25  1  0
 24 26  1  0
 24 27  1  0
 27 28  1  0
 27 29  1  0
 27 30  1  0
 30 31  1  1
 30 32  1  0
 32 33  2  0
 32 34  1  0
 34 35  1  1
 34 36  1  0
 36 37  1  0
 36 38  1  0
 34 39  1  0
 39 40  1  0
 39 41  1  0
 41 42  1  0
 41 43  1  0
 41 44  1  0
 44 45  2  0
 45 46  1  0
 45 47  1  0
 47 48  1  0
 47 49  2  0
 49 50  1  0
 49 51  1  0
 51 52  1  0
 51 53  2  0
 53 54  1  0
 54 55  1  0
 54 56  1  0
 30 57  1  0
 57 58  1  0
 57 59  1  0
 57 60  1  0
 60 61  1  0
 60 62  1  0
 20 11  1  0
 60 22  1  0
 54 39  1  0
 53 44  1  0
M  CHG  1  30   1
M  END
>  <UniqueID>  (36) 
44

>  <SMILES>  (36) 
C/C=C(\O)N(c1ccccc1)C1CC[NH+](C(=O)[C@@H](N)C2Cc3ccccc3C2)CC1

>  <Energy>  (36) 
78.46698803806105

>  <Genealogy>  (36) 
CCC(=O)N(c1ccccc1)C1CC[NH+](C(=O)[C@@H](N)C2Cc3ccccc3C2)CC1 (protonated)
CC=C(O)N(c1ccccc1)C1CC[NH+](C(=O)[C@@H](N)C2Cc3ccccc3C2)CC1 (tautomer)
C/C=C(\O)N(c1ccccc1)C1CC[NH+](C(=O)[C@@H](N)C2Cc3ccccc3C2)CC1 (cis-trans isomerization)
C/C=C(\O)N(c1ccccc1)C1CC[NH+](C(=O)[C@@H](N)C2Cc3ccccc3C2)CC1 (3D coordinates assigned)
C/C=C(\O)N(c1ccccc1)C1CC[NH+](C(=O)[C@@H](N)C2Cc3ccccc3C2)CC1 (nonaromatic ring conformer: 78.46698803806105 kcal/mol)

>  <smiles>  (36) 
CCC(=O)N(c1ccccc1)C1CCN(C(=O)[C@@H](N)C2Cc3ccccc3C2)CC1

>  <score_type>  (36) 
oracle

>  <origin>  (36) 
autodockgpu

>  <m_score__min__energy>  (36) 
-8.9299999999999997

>  <m_primary>  (36) 
energy

>  <meeko>  (36) 
{"free_energy": -7.81, "intermolecular_energy": -10.5, "internal_energy": -1.88, "cluster_size": 3, "cluster_id": 6, "rank_in_cluster": 2}

>  <energy>  (36) 
-7.85

>  <cluster_rmsd>  (36) 
0.0

>  <rmsd>  (36) 
271.42

>  <cluster>  (36) 
5

$$$$
LLZHWBREMUWYMR-DZSPIUQSNA-O
     RDKit          3D

 62 65  0  0  0  0  0  0  0  0999 V2000
  139.6950   78.4750  218.0850 H   0  0  0  0  0  0  0  0  0  0  0  0
  139.8830   77.7660  218.7820 O   0  0  0  0  0  0  0  0  0  0  0  0
  141.0640   77.7120  219.5390 C   0  0  0  0  0  0  0  0  0  0  0  0
  142.2700   77.8030  218.9380 C   0  0  0  0  0  0  0  0  0  0  0  0
  143.0371   77.0555  219.1886 H   0  0  0  0  0  0  0  0  0  0  0  0
  142.6140   78.8720  217.9470 C   0  0  0  0  0  0  0  0  0  0  0  0
  142.9084   79.7869  218.4820 H   0  0  0  0  0  0  0  0  0  0  0  0
  143.4481   78.5320  217.3156 H   0  0  0  0  0  0  0  0  0  0  0  0
  141.7381   79.0822  217.3156 H   0  0  0  0  0  0  0  0  0  0  0  0
  140.9580   77.5640  220.9760 N   0  0  0  0  0  0  0  0  0  0  0  0
  141.3740   78.6400  221.8400 C   0  0  0  0  0  0  0  0  0  0  0  0
  141.4510   78.4420  223.2270 C   0  0  0  0  0  0  0  0  0  0  0  0
  141.1723   77.4698  223.6597 H   0  0  0  0  0  0  0  0  0  0  0  0
  141.8820   79.4800  224.0600 C   0  0  0  0  0  0  0  0  0  0  0  0
  141.9291   79.3278  225.1484 H   0  0  0  0  0  0  0  0  0  0  0  0
  142.2530   80.7110  223.5100 C   0  0  0  0  0  0  0  0  0  0  0  0
  142.5910   81.5263  224.1665 H   0  0  0  0  0  0  0  0  0  0  0  0
  142.1950   80.9070  222.1270 C   0  0  0  0  0  0  0  0  0  0  0  0
  142.4905   81.8746  221.6953 H   0  0  0  0  0  0  0  0  0  0  0  0
  141.7610   79.8720  221.2930 C   0  0  0  0  0  0  0  0  0  0  0  0
  141.7230   80.0246  220.2043 H   0  0  0  0  0  0  0  0  0  0  0  0
  140.7230   76.2190  221.5430 C   0  0  2  0  0  0  0  0  0  0  0  0
  140.9650   76.2776  222.6145 H   0  0  0  0  0  0  0  0  0  0  0  0
  141.6440   75.1490  220.9230 C   0  0  0  0  0  0  0  0  0  0  0  0
  141.4904   75.1255  219.8340 H   0  0  0  0  0  0  0  0  0  0  0  0
  142.6896   75.4024  221.1520 H   0  0  0  0  0  0  0  0  0  0  0  0
  141.3270   73.7640  221.5090 C   0  0  0  0  0  0  0  0  0  0  0  0
  141.9569   73.0102  221.0140 H   0  0  0  0  0  0  0  0  0  0  0  0
  141.5308   73.7833  222.5898 H   0  0  0  0  0  0  0  0  0  0  0  0
  139.9040   73.4190  221.3010 N   0  0  1  0  0  0  0  0  0  0  0  0
  139.7100   73.4310  220.2710 H   0  0  0  0  0  0  0  0  0  0  0  0
  139.6300   72.0920  221.8170 C   0  0  0  0  0  0  0  0  0  0  0  0
  139.7760   71.1130  221.0970 O   0  0  0  0  0  0  0  0  0  0  0  0
  139.2120   71.9020  223.2670 C   0  0  1  0  0  0  0  0  0  0  0  0
  139.3070   72.8746  223.7720 H   0  0  0  0  0  0  0  0  0  0  0  0
  137.8010   71.5080  223.3820 N   0  0  0  0  0  0  0  0  0  0  0  0
  137.2800   72.2770  223.8640 H   0  0  0  0  0  0  0  0  0  0  0  0
  137.3670   71.3920  222.4400 H   0  0  0  0  0  0  0  0  0  0  0  0
  140.1560   70.9090  223.9930 C   0  0  0  0  0  0  0  0  0  0  0  0
  140.9576   70.7616  223.2542 H   0  0  0  0  0  0  0  0  0  0  0  0
  140.7200   71.4800  225.3190 C   0  0  0  0  0  0  0  0  0  0  0  0
  141.7738   71.7730  225.2023 H   0  0  0  0  0  0  0  0  0  0  0  0
  140.1896   72.3844  225.6516 H   0  0  0  0  0  0  0  0  0  0  0  0
  140.5880   70.3560  226.2740 C   0  0  0  0  0  0  0  0  0  0  0  0
  141.0460   70.3250  227.5920 C   0  0  0  0  0  0  0  0  0  0  0  0
  141.5793   71.1864  228.0204 H   0  0  0  0  0  0  0  0  0  0  0  0
  140.8130   69.1730  228.3610 C   0  0  0  0  0  0  0  0  0  0  0  0
  141.1671   69.1270  229.4014 H   0  0  0  0  0  0  0  0  0  0  0  0
  140.1280   68.0780  227.8040 C   0  0  0  0  0  0  0  0  0  0  0  0
  139.9472   67.1780  228.4100 H   0  0  0  0  0  0  0  0  0  0  0  0
  139.6750   68.1310  226.4780 C   0  0  0  0  0  0  0  0  0  0  0  0
  139.1352   67.2809  226.0355 H   0  0  0  0  0  0  0  0  0  0  0  0
  139.9230   69.2860  225.7290 C   0  0  0  0  0  0  0  0  0  0  0  0
  139.5270   69.5290  224.3220 C   0  0  0  0  0  0  0  0  0  0  0  0
  139.9296   68.7473  223.6611 H   0  0  0  0  0  0  0  0  0  0  0  0
  138.4365   69.5136  224.1785 H   0  0  0  0  0  0  0  0  0  0  0  0
  139.0130   74.4070  221.9470 C   0  0  0  0  0  0  0  0  0  0  0  0
  137.9664   74.1181  221.7705 H   0  0  0  0  0  0  0  0  0  0  0  0
  139.2295   74.4241  223.0254 H   0  0  0  0  0  0  0  0  0  0  0  0
  139.2500   75.8120  221.3760 C   0  0  0  0  0  0  0  0  0  0  0  0
  138.9921   75.8165  220.3067 H   0  0  0  0  0  0  0  0  0  0  0  0
  138.6186   76.5290  221.9212 H   0  0  0  0  0  0  0  0  0  0  0  0
  1  2  1  0
  2  3  1  0
  3  4  2  0
  4  5  1  0
  4  6  1  0
  6  7  1  0
  6  8  1  0
  6  9  1  0
  3 10  1  0
 10 11  1  0
 11 12  2  0
 12 13  1  0
 12 14  1  0
 14 15  1  0
 14 16  2  0
 16 17  1  0
 16 18  1  0
 18 19  1  0
 18 20  2  0
 20 21  1  0
 10 22  1  0
 22 23  1  1
 22 24  1  0
 24 25  1  0
 24 26  1  0
 24 27  1  0
 27 28  1  0
 27 29  1  0
 27 30  1  0
 30 31  1  6
 30 32  1  0
 32 33  2  0
 32 34  1  0
 34 35  1  1
 34 36  1  0
 36 37  1  0
 36 38  1  0
 34 39  1  0
 39 40  1  0
 39 41  1  0
 41 42  1  0
 41 43  1  0
 41 44  1  0
 44 45  2  0
 45 46  1  0
 45 47  1  0
 47 48  1  0
 47 49  2  0
 49 50  1  0
 49 51  1  0
 51 52  1  0
 51 53  2  0
 53 54  1  0
 54 55  1  0
 54 56  1  0
 30 57  1  0
 57 58  1  0
 57 59  1  0
 57 60  1  0
 60 61  1  0
 60 62  1  0
 20 11  1  0
 60 22  1  0
 54 39  1  0
 53 44  1  0
M  CHG  1  30   1
M  END
>  <UniqueID>  (37) 
44

>  <SMILES>  (37) 
C/C=C(\O)N(c1ccccc1)C1CC[NH+](C(=O)[C@@H](N)C2Cc3ccccc3C2)CC1

>  <Energy>  (37) 
78.46698803806105

>  <Genealogy>  (37) 
CCC(=O)N(c1ccccc1)C1CC[NH+](C(=O)[C@@H](N)C2Cc3ccccc3C2)CC1 (protonated)
CC=C(O)N(c1ccccc1)C1CC[NH+](C(=O)[C@@H](N)C2Cc3ccccc3C2)CC1 (tautomer)
C/C=C(\O)N(c1ccccc1)C1CC[NH+](C(=O)[C@@H](N)C2Cc3ccccc3C2)CC1 (cis-trans isomerization)
C/C=C(\O)N(c1ccccc1)C1CC[NH+](C(=O)[C@@H](N)C2Cc3ccccc3C2)CC1 (3D coordinates assigned)
C/C=C(\O)N(c1ccccc1)C1CC[NH+](C(=O)[C@@H](N)C2Cc3ccccc3C2)CC1 (nonaromatic ring conformer: 78.46698803806105 kcal/mol)

>  <smiles>  (37) 
CCC(=O)N(c1ccccc1)C1CCN(C(=O)[C@@H](N)C2Cc3ccccc3C2)CC1

>  <score_type>  (37) 
oracle

>  <origin>  (37) 
autodockgpu

>  <m_score__min__energy>  (37) 
-8.9299999999999997

>  <m_primary>  (37) 
energy

>  <meeko>  (37) 
{"free_energy": -7.93, "intermolecular_energy": -10.62, "internal_energy": -1.36, "cluster_size": 2, "cluster_id": 3, "rank_in_cluster": 1}

>  <energy>  (37) 
-7.82

>  <cluster_rmsd>  (37) 
0.0

>  <rmsd>  (37) 
271.22

>  <cluster>  (37) 
6

$$$$
LLZHWBREMUWYMR-DZSPIUQSNA-O
     RDKit          3D

 62 65  0  0  0  0  0  0  0  0999 V2000
  136.2240   79.4210  221.1360 H   0  0  0  0  0  0  0  0  0  0  0  0
  137.0200   78.8100  221.2700 O   0  0  0  0  0  0  0  0  0  0  0  0
  137.9040   78.9080  222.3550 C   0  0  0  0  0  0  0  0  0  0  0  0
  137.5770   79.6340  223.4450 C   0  0  0  0  0  0  0  0  0  0  0  0
  136.8448   79.2158  224.1514 H   0  0  0  0  0  0  0  0  0  0  0  0
  138.1620   80.9810  223.7400 C   0  0  0  0  0  0  0  0  0  0  0  0
  138.2238   81.1234  224.8290 H   0  0  0  0  0  0  0  0  0  0  0  0
  139.1697   81.0466  223.3038 H   0  0  0  0  0  0  0  0  0  0  0  0
  137.5221   81.7622  223.3038 H   0  0  0  0  0  0  0  0  0  0  0  0
  139.1700   78.2070  222.2820 N   0  0  0  0  0  0  0  0  0  0  0  0
  140.4030   78.9360  222.4450 C   0  0  0  0  0  0  0  0  0  0  0  0
  141.0200   79.0050  223.7020 C   0  0  0  0  0  0  0  0  0  0  0  0
  140.5511   78.5210  224.5714 H   0  0  0  0  0  0  0  0  0  0  0  0
  142.2320   79.6890  223.8520 C   0  0  0  0  0  0  0  0  0  0  0  0
  142.7086   79.7531  224.8413 H   0  0  0  0  0  0  0  0  0  0  0  0
  142.8370   80.2910  222.7440 C   0  0  0  0  0  0  0  0  0  0  0  0
  143.7891   80.8289  222.8628 H   0  0  0  0  0  0  0  0  0  0  0  0
  142.2330   80.2100  221.4850 C   0  0  0  0  0  0  0  0  0  0  0  0
  142.7114   80.6810  220.6136 H   0  0  0  0  0  0  0  0  0  0  0  0
  141.0210   79.5300  221.3350 C   0  0  0  0  0  0  0  0  0  0  0  0
  140.5504   79.4606  220.3432 H   0  0  0  0  0  0  0  0  0  0  0  0
  139.1990   76.8320  221.7390 C   0  0  2  0  0  0  0  0  0  0  0  0
  139.1464   76.9198  220.6438 H   0  0  0  0  0  0  0  0  0  0  0  0
  137.9850   75.9950  222.1910 C   0  0  0  0  0  0  0  0  0  0  0  0
  137.9572   75.9608  223.2901 H   0  0  0  0  0  0  0  0  0  0  0  0
  137.0664   76.4605  221.8043 H   0  0  0  0  0  0  0  0  0  0  0  0
  138.0880   74.5630  221.6420 C   0  0  0  0  0  0  0  0  0  0  0  0
  137.2423   73.9701  222.0205 H   0  0  0  0  0  0  0  0  0  0  0  0
  138.0655   74.6046  220.5430 H   0  0  0  0  0  0  0  0  0  0  0  0
  139.3540   73.9270  222.0660 N   0  0  1  0  0  0  0  0  0  0  0  0
  139.3820   73.9180  223.1130 H   0  0  0  0  0  0  0  0  0  0  0  0
  139.4150   72.5620  221.5800 C   0  0  0  0  0  0  0  0  0  0  0  0
  140.0280   72.3070  220.5520 O   0  0  0  0  0  0  0  0  0  0  0  0
  138.7680   71.4360  222.3680 C   0  0  1  0  0  0  0  0  0  0  0  0
  137.9427   71.8699  222.9516 H   0  0  0  0  0  0  0  0  0  0  0  0
  138.1700   70.4240  221.4860 N   0  0  0  0  0  0  0  0  0  0  0  0
  137.1440   70.6170  221.4070 H   0  0  0  0  0  0  0  0  0  0  0  0
  138.5660   70.4870  220.5230 H   0  0  0  0  0  0  0  0  0  0  0  0
  139.7700   70.8120  223.3740 C   0  0  0  0  0  0  0  0  0  0  0  0
  140.4540   70.2590  222.7134 H   0  0  0  0  0  0  0  0  0  0  0  0
  140.5330   71.8810  224.1990 C   0  0  0  0  0  0  0  0  0  0  0  0
  141.5694   71.9829  223.8448 H   0  0  0  0  0  0  0  0  0  0  0  0
  140.0850   72.8821  224.1150 H   0  0  0  0  0  0  0  0  0  0  0  0
  140.4980   71.3530  225.5820 C   0  0  0  0  0  0  0  0  0  0  0  0
  141.1340   71.8990  226.6980 C   0  0  0  0  0  0  0  0  0  0  0  0
  141.7501   72.8054  226.6039 H   0  0  0  0  0  0  0  0  0  0  0  0
  140.9730   71.2700  227.9430 C   0  0  0  0  0  0  0  0  0  0  0  0
  141.4674   71.6828  228.8347 H   0  0  0  0  0  0  0  0  0  0  0  0
  140.1800   70.1120  228.0520 C   0  0  0  0  0  0  0  0  0  0  0  0
  140.0550   69.6225  229.0291 H   0  0  0  0  0  0  0  0  0  0  0  0
  139.5490   69.5810  226.9180 C   0  0  0  0  0  0  0  0  0  0  0  0
  138.9252   68.6783  226.9947 H   0  0  0  0  0  0  0  0  0  0  0  0
  139.7280   70.2210  225.6880 C   0  0  0  0  0  0  0  0  0  0  0  0
  139.1480   69.8140  224.3870 C   0  0  0  0  0  0  0  0  0  0  0  0
  139.4282   68.7794  224.1398 H   0  0  0  0  0  0  0  0  0  0  0  0
  138.0483   69.8380  224.3861 H   0  0  0  0  0  0  0  0  0  0  0  0
  140.5250   74.6900  221.5820 C   0  0  0  0  0  0  0  0  0  0  0  0
  141.4451   74.1884  221.9162 H   0  0  0  0  0  0  0  0  0  0  0  0
  140.4882   74.7319  220.4834 H   0  0  0  0  0  0  0  0  0  0  0  0
  140.5070   76.1240  222.1290 C   0  0  0  0  0  0  0  0  0  0  0  0
  140.5897   76.0944  223.2255 H   0  0  0  0  0  0  0  0  0  0  0  0
  141.3541   76.6794  221.7000 H   0  0  0  0  0  0  0  0  0  0  0  0
  1  2  1  0
  2  3  1  0
  3  4  2  0
  4  5  1  0
  4  6  1  0
  6  7  1  0
  6  8  1  0
  6  9  1  0
  3 10  1  0
 10 11  1  0
 11 12  2  0
 12 13  1  0
 12 14  1  0
 14 15  1  0
 14 16  2  0
 16 17  1  0
 16 18  1  0
 18 19  1  0
 18 20  2  0
 20 21  1  0
 10 22  1  0
 22 23  1  6
 22 24  1  0
 24 25  1  0
 24 26  1  0
 24 27  1  0
 27 28  1  0
 27 29  1  0
 27 30  1  0
 30 31  1  1
 30 32  1  0
 32 33  2  0
 32 34  1  0
 34 35  1  1
 34 36  1  0
 36 37  1  0
 36 38  1  0
 34 39  1  0
 39 40  1  0
 39 41  1  0
 41 42  1  0
 41 43  1  0
 41 44  1  0
 44 45  2  0
 45 46  1  0
 45 47  1  0
 47 48  1  0
 47 49  2  0
 49 50  1  0
 49 51  1  0
 51 52  1  0
 51 53  2  0
 53 54  1  0
 54 55  1  0
 54 56  1  0
 30 57  1  0
 57 58  1  0
 57 59  1  0
 57 60  1  0
 60 61  1  0
 60 62  1  0
 20 11  1  0
 60 22  1  0
 54 39  1  0
 53 44  1  0
M  CHG  1  30   1
M  END
>  <UniqueID>  (38) 
44

>  <SMILES>  (38) 
C/C=C(\O)N(c1ccccc1)C1CC[NH+](C(=O)[C@@H](N)C2Cc3ccccc3C2)CC1

>  <Energy>  (38) 
78.46698803806105

>  <Genealogy>  (38) 
CCC(=O)N(c1ccccc1)C1CC[NH+](C(=O)[C@@H](N)C2Cc3ccccc3C2)CC1 (protonated)
CC=C(O)N(c1ccccc1)C1CC[NH+](C(=O)[C@@H](N)C2Cc3ccccc3C2)CC1 (tautomer)
C/C=C(\O)N(c1ccccc1)C1CC[NH+](C(=O)[C@@H](N)C2Cc3ccccc3C2)CC1 (cis-trans isomerization)
C/C=C(\O)N(c1ccccc1)C1CC[NH+](C(=O)[C@@H](N)C2Cc3ccccc3C2)CC1 (3D coordinates assigned)
C/C=C(\O)N(c1ccccc1)C1CC[NH+](C(=O)[C@@H](N)C2Cc3ccccc3C2)CC1 (nonaromatic ring conformer: 78.46698803806105 kcal/mol)

>  <smiles>  (38) 
CCC(=O)N(c1ccccc1)C1CCN(C(=O)[C@@H](N)C2Cc3ccccc3C2)CC1

>  <score_type>  (38) 
oracle

>  <origin>  (38) 
autodockgpu

>  <m_score__min__energy>  (38) 
-8.9299999999999997

>  <m_primary>  (38) 
energy

>  <meeko>  (38) 
{"free_energy": -7.79, "intermolecular_energy": -10.47, "internal_energy": -1.82, "cluster_size": 3, "cluster_id": 6, "rank_in_cluster": 3}

>  <energy>  (38) 
-7.81

>  <cluster_rmsd>  (38) 
0.29

>  <rmsd>  (38) 
271.25

>  <cluster>  (38) 
6

$$$$
LLZHWBREMUWYMR-DZSPIUQSNA-O
     RDKit          3D

 62 65  0  0  0  0  0  0  0  0999 V2000
  140.4110   66.8650  225.1600 H   0  0  0  0  0  0  0  0  0  0  0  0
  139.5410   67.3840  225.1520 O   0  0  0  0  0  0  0  0  0  0  0  0
  139.2070   68.3280  224.1690 C   0  0  0  0  0  0  0  0  0  0  0  0
  138.5080   67.9610  223.0730 C   0  0  0  0  0  0  0  0  0  0  0  0
  137.6757   68.6009  222.7446 H   0  0  0  0  0  0  0  0  0  0  0  0
  138.8110   66.7250  222.2830 C   0  0  0  0  0  0  0  0  0  0  0  0
  139.0154   65.8912  222.9707 H   0  0  0  0  0  0  0  0  0  0  0  0
  137.9477   66.4742  221.6491 H   0  0  0  0  0  0  0  0  0  0  0  0
  139.6924   66.9019  221.6491 H   0  0  0  0  0  0  0  0  0  0  0  0
  139.6210   69.7030  224.3610 N   0  0  0  0  0  0  0  0  0  0  0  0
  139.9290   70.1810  225.6850 C   0  0  0  0  0  0  0  0  0  0  0  0
  140.8080   71.2590  225.8600 C   0  0  0  0  0  0  0  0  0  0  0  0
  141.2826   71.7278  224.9853 H   0  0  0  0  0  0  0  0  0  0  0  0
  141.0830   71.7400  227.1450 C   0  0  0  0  0  0  0  0  0  0  0  0
  141.7818   72.5786  227.2807 H   0  0  0  0  0  0  0  0  0  0  0  0
  140.4690   71.1540  228.2570 C   0  0  0  0  0  0  0  0  0  0  0  0
  140.6865   71.5314  229.2671 H   0  0  0  0  0  0  0  0  0  0  0  0
  139.5790   70.0890  228.0860 C   0  0  0  0  0  0  0  0  0  0  0  0
  139.0939   69.6315  228.9609 H   0  0  0  0  0  0  0  0  0  0  0  0
  139.3060   69.6060  226.8030 C   0  0  0  0  0  0  0  0  0  0  0  0
  138.6006   68.7726  226.6694 H   0  0  0  0  0  0  0  0  0  0  0  0
  139.4260   70.6710  223.2600 C   0  0  2  0  0  0  0  0  0  0  0  0
  139.3247   70.0850  222.3346 H   0  0  0  0  0  0  0  0  0  0  0  0
  140.6360   71.6090  223.0780 C   0  0  0  0  0  0  0  0  0  0  0  0
  140.8212   72.1480  224.0188 H   0  0  0  0  0  0  0  0  0  0  0  0
  141.5159   71.0070  222.8070 H   0  0  0  0  0  0  0  0  0  0  0  0
  140.3640   72.6250  221.9580 C   0  0  0  0  0  0  0  0  0  0  0  0
  141.2161   73.3166  221.8834 H   0  0  0  0  0  0  0  0  0  0  0  0
  140.2299   72.0801  221.0119 H   0  0  0  0  0  0  0  0  0  0  0  0
  139.1350   73.3980  222.2390 N   0  0  1  0  0  0  0  0  0  0  0  0
  139.2590   73.8920  223.1540 H   0  0  0  0  0  0  0  0  0  0  0  0
  138.9160   74.3840  221.1970 C   0  0  0  0  0  0  0  0  0  0  0  0
  139.0790   74.0790  220.0230 O   0  0  0  0  0  0  0  0  0  0  0  0
  138.4320   75.7810  221.5510 C   0  0  1  0  0  0  0  0  0  0  0  0
  137.6059   76.0306  220.8690 H   0  0  0  0  0  0  0  0  0  0  0  0
  137.8820   75.8410  222.9120 N   0  0  0  0  0  0  0  0  0  0  0  0
  137.3380   74.9650  223.0890 H   0  0  0  0  0  0  0  0  0  0  0  0
  138.6450   75.8730  223.6220 H   0  0  0  0  0  0  0  0  0  0  0  0
  139.5520   76.8310  221.3280 C   0  0  0  0  0  0  0  0  0  0  0  0
  139.9363   76.5593  220.3338 H   0  0  0  0  0  0  0  0  0  0  0  0
  139.0190   78.2860  221.3390 C   0  0  0  0  0  0  0  0  0  0  0  0
  138.9833   78.6977  220.3196 H   0  0  0  0  0  0  0  0  0  0  0  0
  137.9939   78.3599  221.7312 H   0  0  0  0  0  0  0  0  0  0  0  0
  140.0030   79.0180  222.1690 C   0  0  0  0  0  0  0  0  0  0  0  0
  140.0310   80.3920  222.4090 C   0  0  0  0  0  0  0  0  0  0  0  0
  139.2818   81.0558  221.9529 H   0  0  0  0  0  0  0  0  0  0  0  0
  141.0340   80.9120  223.2440 C   0  0  0  0  0  0  0  0  0  0  0  0
  141.0748   81.9926  223.4454 H   0  0  0  0  0  0  0  0  0  0  0  0
  141.9860   80.0540  223.8230 C   0  0  0  0  0  0  0  0  0  0  0  0
  142.7694   80.4651  224.4766 H   0  0  0  0  0  0  0  0  0  0  0  0
  141.9390   78.6750  223.5690 C   0  0  0  0  0  0  0  0  0  0  0  0
  142.6771   77.9959  224.0207 H   0  0  0  0  0  0  0  0  0  0  0  0
  140.9350   78.1810  222.7300 C   0  0  0  0  0  0  0  0  0  0  0  0
  140.7230   76.7660  222.3450 C   0  0  0  0  0  0  0  0  0  0  0  0
  141.6261   76.3477  221.8767 H   0  0  0  0  0  0  0  0  0  0  0  0
  140.5028   76.1188  223.2068 H   0  0  0  0  0  0  0  0  0  0  0  0
  137.9570   72.5110  222.3510 C   0  0  0  0  0  0  0  0  0  0  0  0
  137.0652   73.1205  222.5587 H   0  0  0  0  0  0  0  0  0  0  0  0
  137.8358   71.9649  221.4039 H   0  0  0  0  0  0  0  0  0  0  0  0
  138.1460   71.4940  223.4840 C   0  0  0  0  0  0  0  0  0  0  0  0
  138.2226   72.0292  224.4420 H   0  0  0  0  0  0  0  0  0  0  0  0
  137.2825   70.8127  223.4987 H   0  0  0  0  0  0  0  0  0  0  0  0
  1  2  1  0
  2  3  1  0
  3  4  2  0
  4  5  1  0
  4  6  1  0
  6  7  1  0
  6  8  1  0
  6  9  1  0
  3 10  1  0
 10 11  1  0
 11 12  2  0
 12 13  1  0
 12 14  1  0
 14 15  1  0
 14 16  2  0
 16 17  1  0
 16 18  1  0
 18 19  1  0
 18 20  2  0
 20 21  1  0
 10 22  1  0
 22 23  1  6
 22 24  1  0
 24 25  1  0
 24 26  1  0
 24 27  1  0
 27 28  1  0
 27 29  1  0
 27 30  1  0
 30 31  1  1
 30 32  1  0
 32 33  2  0
 32 34  1  0
 34 35  1  6
 34 36  1  0
 36 37  1  0
 36 38  1  0
 34 39  1  0
 39 40  1  0
 39 41  1  0
 41 42  1  0
 41 43  1  0
 41 44  1  0
 44 45  2  0
 45 46  1  0
 45 47  1  0
 47 48  1  0
 47 49  2  0
 49 50  1  0
 49 51  1  0
 51 52  1  0
 51 53  2  0
 53 54  1  0
 54 55  1  0
 54 56  1  0
 30 57  1  0
 57 58  1  0
 57 59  1  0
 57 60  1  0
 60 61  1  0
 60 62  1  0
 20 11  1  0
 60 22  1  0
 54 39  1  0
 53 44  1  0
M  CHG  1  30   1
M  END
>  <UniqueID>  (39) 
44

>  <SMILES>  (39) 
C/C=C(\O)N(c1ccccc1)C1CC[NH+](C(=O)[C@@H](N)C2Cc3ccccc3C2)CC1

>  <Energy>  (39) 
78.46698803806105

>  <Genealogy>  (39) 
CCC(=O)N(c1ccccc1)C1CC[NH+](C(=O)[C@@H](N)C2Cc3ccccc3C2)CC1 (protonated)
CC=C(O)N(c1ccccc1)C1CC[NH+](C(=O)[C@@H](N)C2Cc3ccccc3C2)CC1 (tautomer)
C/C=C(\O)N(c1ccccc1)C1CC[NH+](C(=O)[C@@H](N)C2Cc3ccccc3C2)CC1 (cis-trans isomerization)
C/C=C(\O)N(c1ccccc1)C1CC[NH+](C(=O)[C@@H](N)C2Cc3ccccc3C2)CC1 (3D coordinates assigned)
C/C=C(\O)N(c1ccccc1)C1CC[NH+](C(=O)[C@@H](N)C2Cc3ccccc3C2)CC1 (nonaromatic ring conformer: 78.46698803806105 kcal/mol)

>  <smiles>  (39) 
CCC(=O)N(c1ccccc1)C1CCN(C(=O)[C@@H](N)C2Cc3ccccc3C2)CC1

>  <score_type>  (39) 
oracle

>  <origin>  (39) 
autodockgpu

>  <m_score__min__energy>  (39) 
-8.9299999999999997

>  <m_primary>  (39) 
energy

>  <meeko>  (39) 
{"free_energy": -8.87, "intermolecular_energy": -11.55, "internal_energy": -1.23, "cluster_size": 9, "cluster_id": 2, "rank_in_cluster": 1}

>  <energy>  (39) 
-7.79

>  <cluster_rmsd>  (39) 
0.24

>  <rmsd>  (39) 
271.11

>  <cluster>  (39) 
6

$$$$
LLZHWBREMUWYMR-DZSPIUQSNA-O
     RDKit          3D

 62 65  0  0  0  0  0  0  0  0999 V2000
  140.4420   66.9020  225.0460 H   0  0  0  0  0  0  0  0  0  0  0  0
  139.5360   67.3540  225.0140 O   0  0  0  0  0  0  0  0  0  0  0  0
  139.1830   68.3240  224.0650 C   0  0  0  0  0  0  0  0  0  0  0  0
  138.4720   67.9870  222.9680 C   0  0  0  0  0  0  0  0  0  0  0  0
  138.9569   67.3641  222.2020 H   0  0  0  0  0  0  0  0  0  0  0  0
  137.0560   68.4190  222.7420 C   0  0  0  0  0  0  0  0  0  0  0  0
  136.5596   68.5704  223.7119 H   0  0  0  0  0  0  0  0  0  0  0  0
  137.0462   69.3610  222.1741 H   0  0  0  0  0  0  0  0  0  0  0  0
  136.5221   67.6429  222.1741 H   0  0  0  0  0  0  0  0  0  0  0  0
  139.5920   69.6960  224.2920 N   0  0  0  0  0  0  0  0  0  0  0  0
  139.8790   70.1450  225.6310 C   0  0  0  0  0  0  0  0  0  0  0  0
  139.2800   69.5140  226.7310 C   0  0  0  0  0  0  0  0  0  0  0  0
  138.5717   68.6877  226.5715 H   0  0  0  0  0  0  0  0  0  0  0  0
  139.5820   69.9340  228.0310 C   0  0  0  0  0  0  0  0  0  0  0  0
  139.1015   69.4464  228.8920 H   0  0  0  0  0  0  0  0  0  0  0  0
  140.4950   70.9740  228.2360 C   0  0  0  0  0  0  0  0  0  0  0  0
  140.7309   71.3043  229.2584 H   0  0  0  0  0  0  0  0  0  0  0  0
  141.1080   71.5940  227.1430 C   0  0  0  0  0  0  0  0  0  0  0  0
  141.8291   72.4086  227.3056 H   0  0  0  0  0  0  0  0  0  0  0  0
  140.8040   71.1780  225.8430 C   0  0  0  0  0  0  0  0  0  0  0  0
  141.2917   71.6623  224.9841 H   0  0  0  0  0  0  0  0  0  0  0  0
  139.4130   70.6870  223.2090 C   0  0  2  0  0  0  0  0  0  0  0  0
  139.3058   70.1205  222.2722 H   0  0  0  0  0  0  0  0  0  0  0  0
  140.6360   71.6110  223.0470 C   0  0  0  0  0  0  0  0  0  0  0  0
  140.8272   72.1292  223.9982 H   0  0  0  0  0  0  0  0  0  0  0  0
  141.5082   71.0024  222.7660 H   0  0  0  0  0  0  0  0  0  0  0  0
  140.3790   72.6520  221.9460 C   0  0  0  0  0  0  0  0  0  0  0  0
  141.2408   73.3329  221.8853 H   0  0  0  0  0  0  0  0  0  0  0  0
  140.2379   72.1263  220.9901 H   0  0  0  0  0  0  0  0  0  0  0  0
  139.1610   73.4370  222.2390 N   0  0  1  0  0  0  0  0  0  0  0  0
  139.2900   73.9120  223.1640 H   0  0  0  0  0  0  0  0  0  0  0  0
  138.9570   74.4450  221.2160 C   0  0  0  0  0  0  0  0  0  0  0  0
  139.1580   74.1720  220.0400 O   0  0  0  0  0  0  0  0  0  0  0  0
  138.4430   75.8260  221.5900 C   0  0  1  0  0  0  0  0  0  0  0  0
  137.5980   76.0594  220.9256 H   0  0  0  0  0  0  0  0  0  0  0  0
  137.9170   75.8610  222.9610 N   0  0  0  0  0  0  0  0  0  0  0  0
  137.3630   74.9890  223.1270 H   0  0  0  0  0  0  0  0  0  0  0  0
  138.6930   75.8640  223.6590 H   0  0  0  0  0  0  0  0  0  0  0  0
  139.5310   76.9060  221.3550 C   0  0  0  0  0  0  0  0  0  0  0  0
  139.8561   76.6942  220.3257 H   0  0  0  0  0  0  0  0  0  0  0  0
  138.9770   78.3490  221.4790 C   0  0  0  0  0  0  0  0  0  0  0  0
  138.8696   78.8140  220.4879 H   0  0  0  0  0  0  0  0  0  0  0  0
  137.9781   78.3832  221.9383 H   0  0  0  0  0  0  0  0  0  0  0  0
  140.0020   79.0530  222.2840 C   0  0  0  0  0  0  0  0  0  0  0  0
  140.0240   80.4140  222.5970 C   0  0  0  0  0  0  0  0  0  0  0  0
  139.2371   81.0874  222.2263 H   0  0  0  0  0  0  0  0  0  0  0  0
  141.0700   80.9060  223.3940 C   0  0  0  0  0  0  0  0  0  0  0  0
  141.1074   81.9748  223.6515 H   0  0  0  0  0  0  0  0  0  0  0  0
  142.0700   80.0360  223.8640 C   0  0  0  0  0  0  0  0  0  0  0  0
  142.8871   80.4259  224.4888 H   0  0  0  0  0  0  0  0  0  0  0  0
  142.0280   78.6720  223.5380 C   0  0  0  0  0  0  0  0  0  0  0  0
  142.8042   77.9837  223.9038 H   0  0  0  0  0  0  0  0  0  0  0  0
  140.9800   78.2050  222.7390 C   0  0  0  0  0  0  0  0  0  0  0  0
  140.7650   76.8090  222.2910 C   0  0  0  0  0  0  0  0  0  0  0  0
  141.6427   76.4333  221.7446 H   0  0  0  0  0  0  0  0  0  0  0  0
  140.6098   76.1128  223.1284 H   0  0  0  0  0  0  0  0  0  0  0  0
  137.9710   72.5640  222.3330 C   0  0  0  0  0  0  0  0  0  0  0  0
  137.0872   73.1816  222.5509 H   0  0  0  0  0  0  0  0  0  0  0  0
  137.8442   72.0374  221.3756 H   0  0  0  0  0  0  0  0  0  0  0  0
  138.1440   71.5230  223.4470 C   0  0  0  0  0  0  0  0  0  0  0  0
  138.2263   72.0388  224.4151 H   0  0  0  0  0  0  0  0  0  0  0  0
  137.2712   70.8535  223.4477 H   0  0  0  0  0  0  0  0  0  0  0  0
  1  2  1  0
  2  3  1  0
  3  4  2  0
  4  5  1  0
  4  6  1  0
  6  7  1  0
  6  8  1  0
  6  9  1  0
  3 10  1  0
 10 11  1  0
 11 12  2  0
 12 13  1  0
 12 14  1  0
 14 15  1  0
 14 16  2  0
 16 17  1  0
 16 18  1  0
 18 19  1  0
 18 20  2  0
 20 21  1  0
 10 22  1  0
 22 23  1  6
 22 24  1  0
 24 25  1  0
 24 26  1  0
 24 27  1  0
 27 28  1  0
 27 29  1  0
 27 30  1  0
 30 31  1  1
 30 32  1  0
 32 33  2  0
 32 34  1  0
 34 35  1  6
 34 36  1  0
 36 37  1  0
 36 38  1  0
 34 39  1  0
 39 40  1  0
 39 41  1  0
 41 42  1  0
 41 43  1  0
 41 44  1  0
 44 45  2  0
 45 46  1  0
 45 47  1  0
 47 48  1  0
 47 49  2  0
 49 50  1  0
 49 51  1  0
 51 52  1  0
 51 53  2  0
 53 54  1  0
 54 55  1  0
 54 56  1  0
 30 57  1  0
 57 58  1  0
 57 59  1  0
 57 60  1  0
 60 61  1  0
 60 62  1  0
 20 11  1  0
 60 22  1  0
 54 39  1  0
 53 44  1  0
M  CHG  1  30   1
M  END
>  <UniqueID>  (40) 
44

>  <SMILES>  (40) 
C/C=C(\O)N(c1ccccc1)C1CC[NH+](C(=O)[C@@H](N)C2Cc3ccccc3C2)CC1

>  <Energy>  (40) 
78.46698803806105

>  <Genealogy>  (40) 
CCC(=O)N(c1ccccc1)C1CC[NH+](C(=O)[C@@H](N)C2Cc3ccccc3C2)CC1 (protonated)
CC=C(O)N(c1ccccc1)C1CC[NH+](C(=O)[C@@H](N)C2Cc3ccccc3C2)CC1 (tautomer)
C/C=C(\O)N(c1ccccc1)C1CC[NH+](C(=O)[C@@H](N)C2Cc3ccccc3C2)CC1 (cis-trans isomerization)
C/C=C(\O)N(c1ccccc1)C1CC[NH+](C(=O)[C@@H](N)C2Cc3ccccc3C2)CC1 (3D coordinates assigned)
C/C=C(\O)N(c1ccccc1)C1CC[NH+](C(=O)[C@@H](N)C2Cc3ccccc3C2)CC1 (nonaromatic ring conformer: 78.46698803806105 kcal/mol)

>  <smiles>  (40) 
CCC(=O)N(c1ccccc1)C1CCN(C(=O)[C@@H](N)C2Cc3ccccc3C2)CC1

>  <score_type>  (40) 
oracle

>  <origin>  (40) 
autodockgpu

>  <m_score__min__energy>  (40) 
-8.9299999999999997

>  <m_primary>  (40) 
energy

>  <meeko>  (40) 
{"free_energy": -8.67, "intermolecular_energy": -11.36, "internal_energy": -1.28, "cluster_size": 9, "cluster_id": 2, "rank_in_cluster": 3}

>  <energy>  (40) 
-7.4

>  <cluster_rmsd>  (40) 
0.0

>  <rmsd>  (40) 
270.38

>  <cluster>  (40) 
7

$$$$
MCZRVQBLWAUNOI-DEOSSOPVNA-N
     RDKit          3D

 61 64  0  0  0  0  0  0  0  0999 V2000
  142.9480   77.1360  218.9510 C   0  0  0  0  0  0  0  0  0  0  0  0
  143.2260   76.8260  217.4800 C   0  0  0  0  0  0  0  0  0  0  0  0
  143.6500   75.3940  217.2460 C   0  0  0  0  0  0  0  0  0  0  0  0
  144.3800   75.1150  216.2530 O   0  0  0  0  0  0  0  0  0  0  0  0
  143.2670   74.3470  218.1680 N   0  0  0  0  0  0  0  0  0  0  0  0
  144.2350   73.8730  219.1190 C   0  0  0  0  0  0  0  0  0  0  0  0
  144.4690   74.5780  220.3100 C   0  0  0  0  0  0  0  0  0  0  0  0
  145.4320   74.1250  221.2170 C   0  0  0  0  0  0  0  0  0  0  0  0
  146.1540   72.9590  220.9480 C   0  0  0  0  0  0  0  0  0  0  0  0
  145.9080   72.2390  219.7750 C   0  0  0  0  0  0  0  0  0  0  0  0
  144.9470   72.6900  218.8650 C   0  0  0  0  0  0  0  0  0  0  0  0
  141.9770   73.6390  217.9790 C   0  0  0  0  0  0  0  0  0  0  0  0
  140.8110   74.5870  217.5810 C   0  0  0  0  0  0  0  0  0  0  0  0
  140.1540   75.3020  218.7770 C   0  0  0  0  0  0  0  0  0  0  0  0
  140.0550   74.4290  219.9550 N   0  0  0  0  0  0  0  0  0  0  0  0
  140.0010   74.9920  221.2810 C   0  0  0  0  0  0  0  0  0  0  0  0
  140.7790   74.5500  222.1680 O   0  0  0  0  0  0  0  0  0  0  0  0
  139.0150   76.0750  221.6570 C   0  0  1  0  0  0  0  0  0  0  0  0
  138.5480   75.8690  223.0320 N   0  0  0  0  0  0  0  0  0  0  0  0
  139.6040   77.4960  221.4430 C   0  0  0  0  0  0  0  0  0  0  0  0
  139.0320   78.5400  222.4360 C   0  0  0  0  0  0  0  0  0  0  0  0
  140.2150   79.3510  222.8080 C   0  0  0  0  0  0  0  0  0  0  0  0
  140.2200   80.5270  223.5630 C   0  0  0  0  0  0  0  0  0  0  0  0
  141.4500   81.1410  223.8450 C   0  0  0  0  0  0  0  0  0  0  0  0
  142.6490   80.5680  223.3820 C   0  0  0  0  0  0  0  0  0  0  0  0
  142.6200   79.3820  222.6290 C   0  0  0  0  0  0  0  0  0  0  0  0
  141.3840   78.7950  222.3510 C   0  0  0  0  0  0  0  0  0  0  0  0
  141.1450   77.5360  221.6100 C   0  0  0  0  0  0  0  0  0  0  0  0
  140.2680   72.9890  219.7900 C   0  0  0  0  0  0  0  0  0  0  0  0
  141.6590   72.7390  219.2050 C   0  0  0  0  0  0  0  0  0  0  0  0
  143.5475   76.4674  219.5863 H   0  0  0  0  0  0  0  0  0  0  0  0
  143.2169   78.1814  219.1626 H   0  0  0  0  0  0  0  0  0  0  0  0
  141.8796   76.9822  219.1626 H   0  0  0  0  0  0  0  0  0  0  0  0
  142.3100   77.0188  216.9023 H   0  0  0  0  0  0  0  0  0  0  0  0
  144.0577   77.4709  217.1602 H   0  0  0  0  0  0  0  0  0  0  0  0
  143.8934   75.4891  220.5304 H   0  0  0  0  0  0  0  0  0  0  0  0
  145.6215   74.6871  222.1434 H   0  0  0  0  0  0  0  0  0  0  0  0
  146.9160   72.6076  221.6593 H   0  0  0  0  0  0  0  0  0  0  0  0
  146.4710   71.3170  219.5679 H   0  0  0  0  0  0  0  0  0  0  0  0
  144.7483   72.1164  217.9477 H   0  0  0  0  0  0  0  0  0  0  0  0
  142.0889   72.9720  217.1115 H   0  0  0  0  0  0  0  0  0  0  0  0
  141.2043   75.3507  216.8939 H   0  0  0  0  0  0  0  0  0  0  0  0
  140.0346   73.9616  217.1162 H   0  0  0  0  0  0  0  0  0  0  0  0
  140.7574   76.1838  219.0384 H   0  0  0  0  0  0  0  0  0  0  0  0
  139.1344   75.5902  218.4816 H   0  0  0  0  0  0  0  0  0  0  0  0
  138.1465   76.0040  220.9857 H   0  0  0  0  0  0  0  0  0  0  0  0
  137.7060   75.2500  223.0390 H   0  0  0  0  0  0  0  0  0  0  0  0
  139.2910   75.3670  223.5690 H   0  0  0  0  0  0  0  0  0  0  0  0
  139.3179   77.7473  220.4110 H   0  0  0  0  0  0  0  0  0  0  0  0
  138.2650   79.1629  221.9526 H   0  0  0  0  0  0  0  0  0  0  0  0
  138.5394   78.0788  223.3047 H   0  0  0  0  0  0  0  0  0  0  0  0
  139.2786   80.9627  223.9289 H   0  0  0  0  0  0  0  0  0  0  0  0
  141.4769   82.0725  224.4294 H   0  0  0  0  0  0  0  0  0  0  0  0
  143.6113   81.0497  223.6101 H   0  0  0  0  0  0  0  0  0  0  0  0
  143.5524   78.9251  222.2658 H   0  0  0  0  0  0  0  0  0  0  0  0
  141.6455   77.5560  220.6307 H   0  0  0  0  0  0  0  0  0  0  0  0
  141.5408   76.6521  222.1317 H   0  0  0  0  0  0  0  0  0  0  0  0
  140.1879   72.4927  220.7684 H   0  0  0  0  0  0  0  0  0  0  0  0
  139.5067   72.5833  219.1075 H   0  0  0  0  0  0  0  0  0  0  0  0
  142.4077   72.9353  219.9866 H   0  0  0  0  0  0  0  0  0  0  0  0
  141.6864   71.6947  218.8604 H   0  0  0  0  0  0  0  0  0  0  0  0
  1  2  1  0
  2  3  1  0
  3  4  2  0
  3  5  1  0
  5  6  1  0
  6  7  2  0
  7  8  1  0
  8  9  2  0
  9 10  1  0
 10 11  2  0
  5 12  1  0
 12 13  1  0
 13 14  1  0
 14 15  1  0
 15 16  1  0
 16 17  2  0
 16 18  1  0
 18 19  1  0
 18 20  1  0
 20 21  1  0
 21 22  1  0
 22 23  2  0
 23 24  1  0
 24 25  2  0
 25 26  1  0
 26 27  2  0
 27 28  1  0
 15 29  1  0
 29 30  1  0
 11  6  1  0
 30 12  1  0
 28 20  1  0
 27 22  1  0
  1 31  1  0
  1 32  1  0
  1 33  1  0
  2 34  1  0
  2 35  1  0
  7 36  1  0
  8 37  1  0
  9 38  1  0
 10 39  1  0
 11 40  1  0
 12 41  1  0
 13 42  1  0
 13 43  1  0
 14 44  1  0
 14 45  1  0
 18 46  1  6
 19 47  1  0
 19 48  1  0
 20 49  1  0
 21 50  1  0
 21 51  1  0
 23 52  1  0
 24 53  1  0
 25 54  1  0
 26 55  1  0
 28 56  1  0
 28 57  1  0
 29 58  1  0
 29 59  1  0
 30 60  1  0
 30 61  1  0
M  END
>  <UniqueID>  (41) 
45

>  <SMILES>  (41) 
CCC(=O)N(c1ccccc1)C1CCN(C(=O)[C@@H](N)C2Cc3ccccc3C2)CC1

>  <Energy>  (41) 
82.87778324178905

>  <Genealogy>  (41) 
CCC(=O)N(c1ccccc1)C1CCN(C(=O)[C@@H](N)C2Cc3ccccc3C2)CC1 (3D coordinates assigned)
CCC(=O)N(c1ccccc1)C1CCN(C(=O)[C@@H](N)C2Cc3ccccc3C2)CC1 (nonaromatic ring conformer: 82.87778324178905 kcal/mol)

>  <smiles>  (41) 
CCC(=O)N(c1ccccc1)C1CCN(C(=O)[C@@H](N)C2Cc3ccccc3C2)CC1

>  <score_type>  (41) 
oracle

>  <origin>  (41) 
autodockgpu

>  <m_score__min__energy>  (41) 
-8.0500000000000007

>  <m_primary>  (41) 
energy

>  <meeko>  (41) 
{"free_energy": -7.3, "intermolecular_energy": -9.38, "internal_energy": -2.88, "cluster_size": 5, "cluster_id": 2, "rank_in_cluster": 3}

>  <energy>  (41) 
-8.05

>  <cluster_rmsd>  (41) 
0.0

>  <rmsd>  (41) 
271.59

>  <cluster>  (41) 
1

$$$$
MCZRVQBLWAUNOI-DEOSSOPVNA-N
     RDKit          3D

 61 64  0  0  0  0  0  0  0  0999 V2000
  146.3250   73.3780  221.2800 C   0  0  0  0  0  0  0  0  0  0  0  0
  144.9420   73.7380  220.7390 C   0  0  0  0  0  0  0  0  0  0  0  0
  144.7690   73.3970  219.2770 C   0  0  0  0  0  0  0  0  0  0  0  0
  145.6580   72.7200  218.6860 O   0  0  0  0  0  0  0  0  0  0  0  0
  143.5800   73.7970  218.5560 N   0  0  0  0  0  0  0  0  0  0  0  0
  143.4700   75.1570  218.1030 C   0  0  0  0  0  0  0  0  0  0  0  0
  143.0870   76.1750  218.9910 C   0  0  0  0  0  0  0  0  0  0  0  0
  142.9560   77.4910  218.5370 C   0  0  0  0  0  0  0  0  0  0  0  0
  143.2200   77.7990  217.1990 C   0  0  0  0  0  0  0  0  0  0  0  0
  143.6250   76.7940  216.3160 C   0  0  0  0  0  0  0  0  0  0  0  0
  143.7560   75.4760  216.7670 C   0  0  0  0  0  0  0  0  0  0  0  0
  142.4200   72.8760  218.4870 C   0  0  0  0  0  0  0  0  0  0  0  0
  141.1570   73.5270  217.8580 C   0  0  0  0  0  0  0  0  0  0  0  0
  140.3310   74.3690  218.8490 C   0  0  0  0  0  0  0  0  0  0  0  0
  140.2840   73.7590  220.1850 N   0  0  0  0  0  0  0  0  0  0  0  0
  140.0680   74.5740  221.3540 C   0  0  0  0  0  0  0  0  0  0  0  0
  140.8440   74.4530  222.3390 O   0  0  0  0  0  0  0  0  0  0  0  0
  138.9150   75.5470  221.4560 C   0  0  1  0  0  0  0  0  0  0  0  0
  138.1870   75.3300  222.7110 N   0  0  0  0  0  0  0  0  0  0  0  0
  139.3820   77.0190  221.2950 C   0  0  0  0  0  0  0  0  0  0  0  0
  138.8390   77.9480  222.4110 C   0  0  0  0  0  0  0  0  0  0  0  0
  139.9940   78.8180  222.7320 C   0  0  0  0  0  0  0  0  0  0  0  0
  139.9930   79.9370  223.5690 C   0  0  0  0  0  0  0  0  0  0  0  0
  141.1990   80.6220  223.7810 C   0  0  0  0  0  0  0  0  0  0  0  0
  142.3840   80.1730  223.1670 C   0  0  0  0  0  0  0  0  0  0  0  0
  142.3620   79.0410  222.3340 C   0  0  0  0  0  0  0  0  0  0  0  0
  141.1480   78.3840  222.1290 C   0  0  0  0  0  0  0  0  0  0  0  0
  140.9250   77.1630  221.3210 C   0  0  0  0  0  0  0  0  0  0  0  0
  140.7130   72.3670  220.3440 C   0  0  0  0  0  0  0  0  0  0  0  0
  142.1580   72.2160  219.8700 C   0  0  0  0  0  0  0  0  0  0  0  0
  146.3015   73.3841  222.3797 H   0  0  0  0  0  0  0  0  0  0  0  0
  146.6083   72.3762  220.9249 H   0  0  0  0  0  0  0  0  0  0  0  0
  147.0608   74.1145  220.9249 H   0  0  0  0  0  0  0  0  0  0  0  0
  144.1857   73.1882  221.3184 H   0  0  0  0  0  0  0  0  0  0  0  0
  144.8252   74.8274  220.8373 H   0  0  0  0  0  0  0  0  0  0  0  0
  142.8895   75.9366  220.0465 H   0  0  0  0  0  0  0  0  0  0  0  0
  142.6451   78.2842  219.2328 H   0  0  0  0  0  0  0  0  0  0  0  0
  143.1089   78.8331  216.8409 H   0  0  0  0  0  0  0  0  0  0  0  0
  143.8409   77.0395  215.2657 H   0  0  0  0  0  0  0  0  0  0  0  0
  144.0839   74.6883  216.0727 H   0  0  0  0  0  0  0  0  0  0  0  0
  142.6815   72.0672  217.7888 H   0  0  0  0  0  0  0  0  0  0  0  0
  141.4779   74.1793  217.0325 H   0  0  0  0  0  0  0  0  0  0  0  0
  140.5090   72.7054  217.5187 H   0  0  0  0  0  0  0  0  0  0  0  0
  140.7848   75.3677  218.9305 H   0  0  0  0  0  0  0  0  0  0  0  0
  139.3012   74.4294  218.4670 H   0  0  0  0  0  0  0  0  0  0  0  0
  138.2238   75.3560  220.6218 H   0  0  0  0  0  0  0  0  0  0  0  0
  137.7090   74.4000  222.6960 H   0  0  0  0  0  0  0  0  0  0  0  0
  138.8740   75.2980  223.4980 H   0  0  0  0  0  0  0  0  0  0  0  0
  138.9804   77.3173  220.3153 H   0  0  0  0  0  0  0  0  0  0  0  0
  137.9882   78.5429  222.0475 H   0  0  0  0  0  0  0  0  0  0  0  0
  138.4654   77.3937  223.2846 H   0  0  0  0  0  0  0  0  0  0  0  0
  139.0643   80.2744  224.0525 H   0  0  0  0  0  0  0  0  0  0  0  0
  141.2188   81.5114  224.4280 H   0  0  0  0  0  0  0  0  0  0  0  0
  143.3288   80.7092  223.3396 H   0  0  0  0  0  0  0  0  0  0  0  0
  143.2833   78.6802  221.8533 H   0  0  0  0  0  0  0  0  0  0  0  0
  141.3250   77.2869  220.3038 H   0  0  0  0  0  0  0  0  0  0  0  0
  141.4296   76.2781  221.7361 H   0  0  0  0  0  0  0  0  0  0  0  0
  140.6443   72.0820  221.4042 H   0  0  0  0  0  0  0  0  0  0  0  0
  140.0625   71.7144  219.7432 H   0  0  0  0  0  0  0  0  0  0  0  0
  142.8205   72.6849  220.6125 H   0  0  0  0  0  0  0  0  0  0  0  0
  142.3561   71.1394  219.7617 H   0  0  0  0  0  0  0  0  0  0  0  0
  1  2  1  0
  2  3  1  0
  3  4  2  0
  3  5  1  0
  5  6  1  0
  6  7  2  0
  7  8  1  0
  8  9  2  0
  9 10  1  0
 10 11  2  0
  5 12  1  0
 12 13  1  0
 13 14  1  0
 14 15  1  0
 15 16  1  0
 16 17  2  0
 16 18  1  0
 18 19  1  0
 18 20  1  0
 20 21  1  0
 21 22  1  0
 22 23  2  0
 23 24  1  0
 24 25  2  0
 25 26  1  0
 26 27  2  0
 27 28  1  0
 15 29  1  0
 29 30  1  0
 11  6  1  0
 30 12  1  0
 28 20  1  0
 27 22  1  0
  1 31  1  0
  1 32  1  0
  1 33  1  0
  2 34  1  0
  2 35  1  0
  7 36  1  0
  8 37  1  0
  9 38  1  0
 10 39  1  0
 11 40  1  0
 12 41  1  0
 13 42  1  0
 13 43  1  0
 14 44  1  0
 14 45  1  0
 18 46  1  6
 19 47  1  0
 19 48  1  0
 20 49  1  0
 21 50  1  0
 21 51  1  0
 23 52  1  0
 24 53  1  0
 25 54  1  0
 26 55  1  0
 28 56  1  0
 28 57  1  0
 29 58  1  0
 29 59  1  0
 30 60  1  0
 30 61  1  0
M  END
>  <UniqueID>  (42) 
45

>  <SMILES>  (42) 
CCC(=O)N(c1ccccc1)C1CCN(C(=O)[C@@H](N)C2Cc3ccccc3C2)CC1

>  <Energy>  (42) 
82.87778324178905

>  <Genealogy>  (42) 
CCC(=O)N(c1ccccc1)C1CCN(C(=O)[C@@H](N)C2Cc3ccccc3C2)CC1 (3D coordinates assigned)
CCC(=O)N(c1ccccc1)C1CCN(C(=O)[C@@H](N)C2Cc3ccccc3C2)CC1 (nonaromatic ring conformer: 82.87778324178905 kcal/mol)

>  <smiles>  (42) 
CCC(=O)N(c1ccccc1)C1CCN(C(=O)[C@@H](N)C2Cc3ccccc3C2)CC1

>  <score_type>  (42) 
oracle

>  <origin>  (42) 
autodockgpu

>  <m_score__min__energy>  (42) 
-8.0500000000000007

>  <m_primary>  (42) 
energy

>  <meeko>  (42) 
{"free_energy": -7.85, "intermolecular_energy": -9.93, "internal_energy": -2.72, "cluster_size": 11, "cluster_id": 1, "rank_in_cluster": 9}

>  <energy>  (42) 
-8.04

>  <cluster_rmsd>  (42) 
0.38

>  <rmsd>  (42) 
271.6

>  <cluster>  (42) 
1

$$$$
MCZRVQBLWAUNOI-DEOSSOPVNA-N
     RDKit          3D

 61 64  0  0  0  0  0  0  0  0999 V2000
  146.5730   73.3770  221.6210 C   0  0  0  0  0  0  0  0  0  0  0  0
  145.1960   73.7010  221.0430 C   0  0  0  0  0  0  0  0  0  0  0  0
  145.0770   73.3710  219.5720 C   0  0  0  0  0  0  0  0  0  0  0  0
  146.0330   72.7890  218.9860 O   0  0  0  0  0  0  0  0  0  0  0  0
  143.8660   73.6720  218.8400 N   0  0  0  0  0  0  0  0  0  0  0  0
  143.5940   75.0370  218.4830 C   0  0  0  0  0  0  0  0  0  0  0  0
  143.2420   75.9750  219.4670 C   0  0  0  0  0  0  0  0  0  0  0  0
  142.9520   77.2950  219.1080 C   0  0  0  0  0  0  0  0  0  0  0  0
  143.0280   77.6890  217.7690 C   0  0  0  0  0  0  0  0  0  0  0  0
  143.4010   76.7660  216.7870 C   0  0  0  0  0  0  0  0  0  0  0  0
  143.6900   75.4440  217.1430 C   0  0  0  0  0  0  0  0  0  0  0  0
  142.8370   72.6190  218.6620 C   0  0  0  0  0  0  0  0  0  0  0  0
  141.5830   73.1130  217.8860 C   0  0  0  0  0  0  0  0  0  0  0  0
  140.5600   73.8570  218.7660 C   0  0  0  0  0  0  0  0  0  0  0  0
  140.4380   73.2520  220.1000 N   0  0  0  0  0  0  0  0  0  0  0  0
  140.0000   74.0430  221.2230 C   0  0  0  0  0  0  0  0  0  0  0  0
  140.6710   74.0200  222.2890 O   0  0  0  0  0  0  0  0  0  0  0  0
  138.7360   74.8720  221.1810 C   0  0  1  0  0  0  0  0  0  0  0  0
  137.8860   74.5470  222.3310 N   0  0  0  0  0  0  0  0  0  0  0  0
  139.0440   76.3920  221.0890 C   0  0  0  0  0  0  0  0  0  0  0  0
  138.3870   77.2090  222.2310 C   0  0  0  0  0  0  0  0  0  0  0  0
  139.4360   78.1850  222.6080 C   0  0  0  0  0  0  0  0  0  0  0  0
  139.3010   79.2610  223.4890 C   0  0  0  0  0  0  0  0  0  0  0  0
  140.4220   80.0620  223.7520 C   0  0  0  0  0  0  0  0  0  0  0  0
  141.6570   79.7690  223.1440 C   0  0  0  0  0  0  0  0  0  0  0  0
  141.7710   78.6780  222.2660 C   0  0  0  0  0  0  0  0  0  0  0  0
  140.6390   77.9030  222.0110 C   0  0  0  0  0  0  0  0  0  0  0  0
  140.5610   76.7000  221.1500 C   0  0  0  0  0  0  0  0  0  0  0  0
  141.0060   71.9210  220.3310 C   0  0  0  0  0  0  0  0  0  0  0  0
  142.5030   71.9400  220.0190 C   0  0  0  0  0  0  0  0  0  0  0  0
  146.5216   73.3891  222.7197 H   0  0  0  0  0  0  0  0  0  0  0  0
  146.8886   72.3801  221.2797 H   0  0  0  0  0  0  0  0  0  0  0  0
  147.3000   74.1286  221.2797 H   0  0  0  0  0  0  0  0  0  0  0  0
  144.4401   73.1220  221.5938 H   0  0  0  0  0  0  0  0  0  0  0  0
  145.0427   74.7851  221.1492 H   0  0  0  0  0  0  0  0  0  0  0  0
  143.1943   75.6706  220.5230 H   0  0  0  0  0  0  0  0  0  0  0  0
  142.6638   78.0238  219.8799 H   0  0  0  0  0  0  0  0  0  0  0  0
  142.7941   78.7263  217.4874 H   0  0  0  0  0  0  0  0  0  0  0  0
  143.4672   77.0792  215.7346 H   0  0  0  0  0  0  0  0  0  0  0  0
  143.9932   74.7217  216.3707 H   0  0  0  0  0  0  0  0  0  0  0  0
  143.2673   71.8427  218.0122 H   0  0  0  0  0  0  0  0  0  0  0  0
  141.9147   73.7942  217.0885 H   0  0  0  0  0  0  0  0  0  0  0  0
  141.0769   72.2190  217.4927 H   0  0  0  0  0  0  0  0  0  0  0  0
  140.8823   74.9027  218.8784 H   0  0  0  0  0  0  0  0  0  0  0  0
  139.5785   73.7939  218.2733 H   0  0  0  0  0  0  0  0  0  0  0  0
  138.1827   74.6182  220.2648 H   0  0  0  0  0  0  0  0  0  0  0  0
  138.1520   73.6170  222.7260 H   0  0  0  0  0  0  0  0  0  0  0  0
  138.0560   75.2500  223.0860 H   0  0  0  0  0  0  0  0  0  0  0  0
  138.6273   76.6866  220.1146 H   0  0  0  0  0  0  0  0  0  0  0  0
  137.4816   77.7229  221.8758 H   0  0  0  0  0  0  0  0  0  0  0  0
  138.0635   76.5815  223.0745 H   0  0  0  0  0  0  0  0  0  0  0  0
  138.3340   79.4759  223.9672 H   0  0  0  0  0  0  0  0  0  0  0  0
  140.3357   80.9204  224.4344 H   0  0  0  0  0  0  0  0  0  0  0  0
  142.5355   80.3959  223.3568 H   0  0  0  0  0  0  0  0  0  0  0  0
  142.7332   78.4396  221.7893 H   0  0  0  0  0  0  0  0  0  0  0  0
  140.9598   76.9091  220.1464 H   0  0  0  0  0  0  0  0  0  0  0  0
  141.1524   75.8578  221.5385 H   0  0  0  0  0  0  0  0  0  0  0  0
  140.8550   71.6362  221.3827 H   0  0  0  0  0  0  0  0  0  0  0  0
  140.5059   71.1921  219.6762 H   0  0  0  0  0  0  0  0  0  0  0  0
  143.0202   72.4877  220.8206 H   0  0  0  0  0  0  0  0  0  0  0  0
  142.8361   70.8938  219.9517 H   0  0  0  0  0  0  0  0  0  0  0  0
  1  2  1  0
  2  3  1  0
  3  4  2  0
  3  5  1  0
  5  6  1  0
  6  7  2  0
  7  8  1  0
  8  9  2  0
  9 10  1  0
 10 11  2  0
  5 12  1  0
 12 13  1  0
 13 14  1  0
 14 15  1  0
 15 16  1  0
 16 17  2  0
 16 18  1  0
 18 19  1  0
 18 20  1  0
 20 21  1  0
 21 22  1  0
 22 23  2  0
 23 24  1  0
 24 25  2  0
 25 26  1  0
 26 27  2  0
 27 28  1  0
 15 29  1  0
 29 30  1  0
 11  6  1  0
 30 12  1  0
 28 20  1  0
 27 22  1  0
  1 31  1  0
  1 32  1  0
  1 33  1  0
  2 34  1  0
  2 35  1  0
  7 36  1  0
  8 37  1  0
  9 38  1  0
 10 39  1  0
 11 40  1  0
 12 41  1  0
 13 42  1  0
 13 43  1  0
 14 44  1  0
 14 45  1  0
 18 46  1  6
 19 47  1  0
 19 48  1  0
 20 49  1  0
 21 50  1  0
 21 51  1  0
 23 52  1  0
 24 53  1  0
 25 54  1  0
 26 55  1  0
 28 56  1  0
 28 57  1  0
 29 58  1  0
 29 59  1  0
 30 60  1  0
 30 61  1  0
M  END
>  <UniqueID>  (43) 
45

>  <SMILES>  (43) 
CCC(=O)N(c1ccccc1)C1CCN(C(=O)[C@@H](N)C2Cc3ccccc3C2)CC1

>  <Energy>  (43) 
82.87778324178905

>  <Genealogy>  (43) 
CCC(=O)N(c1ccccc1)C1CCN(C(=O)[C@@H](N)C2Cc3ccccc3C2)CC1 (3D coordinates assigned)
CCC(=O)N(c1ccccc1)C1CCN(C(=O)[C@@H](N)C2Cc3ccccc3C2)CC1 (nonaromatic ring conformer: 82.87778324178905 kcal/mol)

>  <smiles>  (43) 
CCC(=O)N(c1ccccc1)C1CCN(C(=O)[C@@H](N)C2Cc3ccccc3C2)CC1

>  <score_type>  (43) 
oracle

>  <origin>  (43) 
autodockgpu

>  <m_score__min__energy>  (43) 
-8.0500000000000007

>  <m_primary>  (43) 
energy

>  <meeko>  (43) 
{"free_energy": -7.99, "intermolecular_energy": -10.08, "internal_energy": -2.59, "cluster_size": 11, "cluster_id": 1, "rank_in_cluster": 6}

>  <energy>  (43) 
-8.03

>  <cluster_rmsd>  (43) 
0.35

>  <rmsd>  (43) 
271.59

>  <cluster>  (43) 
1

$$$$
MCZRVQBLWAUNOI-DEOSSOPVNA-N
     RDKit          3D

 61 64  0  0  0  0  0  0  0  0999 V2000
  138.1220   78.2610  222.6750 C   0  0  0  0  0  0  0  0  0  0  0  0
  137.3800   79.5090  223.1520 C   0  0  0  0  0  0  0  0  0  0  0  0
  138.3040   80.6540  223.4950 C   0  0  0  0  0  0  0  0  0  0  0  0
  138.2120   81.2110  224.6260 O   0  0  0  0  0  0  0  0  0  0  0  0
  139.3220   81.0920  222.5640 N   0  0  0  0  0  0  0  0  0  0  0  0
  140.6730   80.6370  222.7500 C   0  0  0  0  0  0  0  0  0  0  0  0
  141.5130   81.2620  223.6850 C   0  0  0  0  0  0  0  0  0  0  0  0
  142.8340   80.8310  223.8410 C   0  0  0  0  0  0  0  0  0  0  0  0
  143.3170   79.7650  223.0760 C   0  0  0  0  0  0  0  0  0  0  0  0
  142.4780   79.1230  222.1610 C   0  0  0  0  0  0  0  0  0  0  0  0
  141.1570   79.5520  222.0020 C   0  0  0  0  0  0  0  0  0  0  0  0
  139.0060   82.1560  221.5810 C   0  0  0  0  0  0  0  0  0  0  0  0
  138.1840   81.6430  220.3660 C   0  0  0  0  0  0  0  0  0  0  0  0
  139.0420   80.9870  219.2650 C   0  0  0  0  0  0  0  0  0  0  0  0
  140.3220   81.6840  219.0760 N   0  0  0  0  0  0  0  0  0  0  0  0
  141.4640   80.9840  218.5430 C   0  0  0  0  0  0  0  0  0  0  0  0
  142.5680   81.0630  219.1450 O   0  0  0  0  0  0  0  0  0  0  0  0
  141.3930   80.1870  217.2610 C   0  0  1  0  0  0  0  0  0  0  0  0
  142.5420   80.5090  216.4070 N   0  0  0  0  0  0  0  0  0  0  0  0
  141.2730   78.6620  217.5320 C   0  0  0  0  0  0  0  0  0  0  0  0
  142.6510   77.9650  217.6700 C   0  0  0  0  0  0  0  0  0  0  0  0
  142.4520   77.0200  218.7930 C   0  0  0  0  0  0  0  0  0  0  0  0
  143.3440   76.0350  219.2260 C   0  0  0  0  0  0  0  0  0  0  0  0
  142.9950   75.2510  220.3360 C   0  0  0  0  0  0  0  0  0  0  0  0
  141.7740   75.4710  221.0000 C   0  0  0  0  0  0  0  0  0  0  0  0
  140.8960   76.4720  220.5510 C   0  0  0  0  0  0  0  0  0  0  0  0
  141.2590   77.2300  219.4370 C   0  0  0  0  0  0  0  0  0  0  0  0
  140.4940   78.3460  218.8340 C   0  0  0  0  0  0  0  0  0  0  0  0
  140.5000   83.0130  219.6680 C   0  0  0  0  0  0  0  0  0  0  0  0
  140.2910   82.9340  221.1810 C   0  0  0  0  0  0  0  0  0  0  0  0
  138.4654   77.6833  223.5458 H   0  0  0  0  0  0  0  0  0  0  0  0
  137.4453   77.6417  222.0679 H   0  0  0  0  0  0  0  0  0  0  0  0
  138.9893   78.5597  222.0679 H   0  0  0  0  0  0  0  0  0  0  0  0
  136.6978   79.8369  222.3539 H   0  0  0  0  0  0  0  0  0  0  0  0
  136.8395   79.2377  224.0708 H   0  0  0  0  0  0  0  0  0  0  0  0
  141.1311   82.0928  224.2964 H   0  0  0  0  0  0  0  0  0  0  0  0
  143.4934   81.3308  224.5658 H   0  0  0  0  0  0  0  0  0  0  0  0
  144.3584   79.4313  223.1944 H   0  0  0  0  0  0  0  0  0  0  0  0
  142.8574   78.2795  221.5655 H   0  0  0  0  0  0  0  0  0  0  0  0
  140.4953   79.0382  221.2892 H   0  0  0  0  0  0  0  0  0  0  0  0
  138.3353   82.8745  222.0748 H   0  0  0  0  0  0  0  0  0  0  0  0
  137.4574   80.9005  220.7277 H   0  0  0  0  0  0  0  0  0  0  0  0
  137.6998   82.5210  219.9137 H   0  0  0  0  0  0  0  0  0  0  0  0
  139.2443   79.9432  219.5471 H   0  0  0  0  0  0  0  0  0  0  0  0
  138.4822   81.0424  218.3197 H   0  0  0  0  0  0  0  0  0  0  0  0
  140.4764   80.4729  216.7243 H   0  0  0  0  0  0  0  0  0  0  0  0
  143.3260   80.8890  216.9850 H   0  0  0  0  0  0  0  0  0  0  0  0
  142.8950   79.6290  215.9690 H   0  0  0  0  0  0  0  0  0  0  0  0
  140.7333   78.2798  216.6530 H   0  0  0  0  0  0  0  0  0  0  0  0
  142.9138   77.4280  216.7466 H   0  0  0  0  0  0  0  0  0  0  0  0
  143.4728   78.6741  217.8484 H   0  0  0  0  0  0  0  0  0  0  0  0
  144.3009   75.8775  218.7067 H   0  0  0  0  0  0  0  0  0  0  0  0
  143.6771   74.4630  220.6878 H   0  0  0  0  0  0  0  0  0  0  0  0
  141.5061   74.8577  221.8730 H   0  0  0  0  0  0  0  0  0  0  0  0
  139.9419   76.6544  221.0672 H   0  0  0  0  0  0  0  0  0  0  0  0
  139.4622   78.0382  218.6092 H   0  0  0  0  0  0  0  0  0  0  0  0
  140.4090   79.2155  219.5024 H   0  0  0  0  0  0  0  0  0  0  0  0
  141.5175   83.3740  219.4575 H   0  0  0  0  0  0  0  0  0  0  0  0
  139.7653   83.7072  219.2339 H   0  0  0  0  0  0  0  0  0  0  0  0
  141.1595   82.4283  221.6281 H   0  0  0  0  0  0  0  0  0  0  0  0
  140.1781   83.9641  221.5500 H   0  0  0  0  0  0  0  0  0  0  0  0
  1  2  1  0
  2  3  1  0
  3  4  2  0
  3  5  1  0
  5  6  1  0
  6  7  2  0
  7  8  1  0
  8  9  2  0
  9 10  1  0
 10 11  2  0
  5 12  1  0
 12 13  1  0
 13 14  1  0
 14 15  1  0
 15 16  1  0
 16 17  2  0
 16 18  1  0
 18 19  1  0
 18 20  1  0
 20 21  1  0
 21 22  1  0
 22 23  2  0
 23 24  1  0
 24 25  2  0
 25 26  1  0
 26 27  2  0
 27 28  1  0
 15 29  1  0
 29 30  1  0
 11  6  1  0
 30 12  1  0
 28 20  1  0
 27 22  1  0
  1 31  1  0
  1 32  1  0
  1 33  1  0
  2 34  1  0
  2 35  1  0
  7 36  1  0
  8 37  1  0
  9 38  1  0
 10 39  1  0
 11 40  1  0
 12 41  1  0
 13 42  1  0
 13 43  1  0
 14 44  1  0
 14 45  1  0
 18 46  1  6
 19 47  1  0
 19 48  1  0
 20 49  1  0
 21 50  1  0
 21 51  1  0
 23 52  1  0
 24 53  1  0
 25 54  1  0
 26 55  1  0
 28 56  1  0
 28 57  1  0
 29 58  1  0
 29 59  1  0
 30 60  1  0
 30 61  1  0
M  END
>  <UniqueID>  (44) 
45

>  <SMILES>  (44) 
CCC(=O)N(c1ccccc1)C1CCN(C(=O)[C@@H](N)C2Cc3ccccc3C2)CC1

>  <Energy>  (44) 
82.87778324178905

>  <Genealogy>  (44) 
CCC(=O)N(c1ccccc1)C1CCN(C(=O)[C@@H](N)C2Cc3ccccc3C2)CC1 (3D coordinates assigned)
CCC(=O)N(c1ccccc1)C1CCN(C(=O)[C@@H](N)C2Cc3ccccc3C2)CC1 (nonaromatic ring conformer: 82.87778324178905 kcal/mol)

>  <smiles>  (44) 
CCC(=O)N(c1ccccc1)C1CCN(C(=O)[C@@H](N)C2Cc3ccccc3C2)CC1

>  <score_type>  (44) 
oracle

>  <origin>  (44) 
autodockgpu

>  <m_score__min__energy>  (44) 
-8.0500000000000007

>  <m_primary>  (44) 
energy

>  <meeko>  (44) 
{"free_energy": -6.11, "intermolecular_energy": -8.2, "internal_energy": -3.55, "cluster_size": 3, "cluster_id": 4, "rank_in_cluster": 3}

>  <energy>  (44) 
-8.02

>  <cluster_rmsd>  (44) 
0.2

>  <rmsd>  (44) 
271.58

>  <cluster>  (44) 
1

$$$$
MCZRVQBLWAUNOI-DEOSSOPVNA-N
     RDKit          3D

 61 64  0  0  0  0  0  0  0  0999 V2000
  146.4880   73.3930  221.6190 C   0  0  0  0  0  0  0  0  0  0  0  0
  145.1520   73.8380  221.0240 C   0  0  0  0  0  0  0  0  0  0  0  0
  145.0170   73.5080  219.5550 C   0  0  0  0  0  0  0  0  0  0  0  0
  145.9820   72.9620  218.9490 O   0  0  0  0  0  0  0  0  0  0  0  0
  143.7830   73.7680  218.8470 N   0  0  0  0  0  0  0  0  0  0  0  0
  143.5220   75.1020  218.3760 C   0  0  0  0  0  0  0  0  0  0  0  0
  143.5940   75.4010  217.0070 C   0  0  0  0  0  0  0  0  0  0  0  0
  143.3650   76.7060  216.5600 C   0  0  0  0  0  0  0  0  0  0  0  0
  143.0480   77.7140  217.4760 C   0  0  0  0  0  0  0  0  0  0  0  0
  142.9500   77.4160  218.8380 C   0  0  0  0  0  0  0  0  0  0  0  0
  143.1800   76.1120  219.2890 C   0  0  0  0  0  0  0  0  0  0  0  0
  142.7270   72.7270  218.8070 C   0  0  0  0  0  0  0  0  0  0  0  0
  141.4610   73.1690  218.0220 C   0  0  0  0  0  0  0  0  0  0  0  0
  140.4800   74.0220  218.8510 C   0  0  0  0  0  0  0  0  0  0  0  0
  140.3880   73.5590  220.2420 N   0  0  0  0  0  0  0  0  0  0  0  0
  140.0010   74.4700  221.2910 C   0  0  0  0  0  0  0  0  0  0  0  0
  140.7040   74.5400  222.3340 O   0  0  0  0  0  0  0  0  0  0  0  0
  138.7540   75.3200  221.2000 C   0  0  1  0  0  0  0  0  0  0  0  0
  137.8170   74.9490  222.2670 N   0  0  0  0  0  0  0  0  0  0  0  0
  139.0850   76.8380  221.2120 C   0  0  0  0  0  0  0  0  0  0  0  0
  138.7820   77.5090  222.5760 C   0  0  0  0  0  0  0  0  0  0  0  0
  139.9300   78.4230  222.7770 C   0  0  0  0  0  0  0  0  0  0  0  0
  140.0710   79.3820  223.7840 C   0  0  0  0  0  0  0  0  0  0  0  0
  141.2520   80.1370  223.8350 C   0  0  0  0  0  0  0  0  0  0  0  0
  142.2730   79.9160  222.8910 C   0  0  0  0  0  0  0  0  0  0  0  0
  142.1120   78.9430  221.8910 C   0  0  0  0  0  0  0  0  0  0  0  0
  140.9230   78.2120  221.8540 C   0  0  0  0  0  0  0  0  0  0  0  0
  140.5770   77.1270  220.9070 C   0  0  0  0  0  0  0  0  0  0  0  0
  140.9360   72.2460  220.5910 C   0  0  0  0  0  0  0  0  0  0  0  0
  142.4220   72.1980  220.2360 C   0  0  0  0  0  0  0  0  0  0  0  0
  146.4255   73.4138  222.7170 H   0  0  0  0  0  0  0  0  0  0  0  0
  146.7161   72.3704  221.2841 H   0  0  0  0  0  0  0  0  0  0  0  0
  147.2838   74.0746  221.2841 H   0  0  0  0  0  0  0  0  0  0  0  0
  144.3406   73.3361  221.5714 H   0  0  0  0  0  0  0  0  0  0  0  0
  145.0987   74.9325  221.1202 H   0  0  0  0  0  0  0  0  0  0  0  0
  143.8311   74.6069  216.2837 H   0  0  0  0  0  0  0  0  0  0  0  0
  143.4343   76.9398  215.4874 H   0  0  0  0  0  0  0  0  0  0  0  0
  142.8757   78.7420  217.1244 H   0  0  0  0  0  0  0  0  0  0  0  0
  142.6916   78.2080  219.5563 H   0  0  0  0  0  0  0  0  0  0  0  0
  143.0928   75.8777  220.3602 H   0  0  0  0  0  0  0  0  0  0  0  0
  143.1199   71.8787  218.2273 H   0  0  0  0  0  0  0  0  0  0  0  0
  141.7818   73.7584  217.1504 H   0  0  0  0  0  0  0  0  0  0  0  0
  140.9251   72.2518  217.7364 H   0  0  0  0  0  0  0  0  0  0  0  0
  140.8259   75.0662  218.8464 H   0  0  0  0  0  0  0  0  0  0  0  0
  139.4826   73.9312  218.3960 H   0  0  0  0  0  0  0  0  0  0  0  0
  138.2681   75.1229  220.2330 H   0  0  0  0  0  0  0  0  0  0  0  0
  137.1700   74.1980  221.9340 H   0  0  0  0  0  0  0  0  0  0  0  0
  138.3580   74.5440  223.0650 H   0  0  0  0  0  0  0  0  0  0  0  0
  138.4394   77.2548  220.4249 H   0  0  0  0  0  0  0  0  0  0  0  0
  137.8361   78.0692  222.5366 H   0  0  0  0  0  0  0  0  0  0  0  0
  138.6660   76.7822  223.3935 H   0  0  0  0  0  0  0  0  0  0  0  0
  139.2713   79.5416  224.5222 H   0  0  0  0  0  0  0  0  0  0  0  0
  141.3807   80.9031  224.6138 H   0  0  0  0  0  0  0  0  0  0  0  0
  143.1995   80.5072  222.9368 H   0  0  0  0  0  0  0  0  0  0  0  0
  142.9063   78.7606  221.1522 H   0  0  0  0  0  0  0  0  0  0  0  0
  140.7080   77.4577  219.8661 H   0  0  0  0  0  0  0  0  0  0  0  0
  141.2163   76.2393  221.0224 H   0  0  0  0  0  0  0  0  0  0  0  0
  140.8120   72.0729  221.6702 H   0  0  0  0  0  0  0  0  0  0  0  0
  140.4013   71.4665  220.0285 H   0  0  0  0  0  0  0  0  0  0  0  0
  142.9749   72.8125  220.9617 H   0  0  0  0  0  0  0  0  0  0  0  0
  142.7318   71.1430  220.2672 H   0  0  0  0  0  0  0  0  0  0  0  0
  1  2  1  0
  2  3  1  0
  3  4  2  0
  3  5  1  0
  5  6  1  0
  6  7  2  0
  7  8  1  0
  8  9  2  0
  9 10  1  0
 10 11  2  0
  5 12  1  0
 12 13  1  0
 13 14  1  0
 14 15  1  0
 15 16  1  0
 16 17  2  0
 16 18  1  0
 18 19  1  0
 18 20  1  0
 20 21  1  0
 21 22  1  0
 22 23  2  0
 23 24  1  0
 24 25  2  0
 25 26  1  0
 26 27  2  0
 27 28  1  0
 15 29  1  0
 29 30  1  0
 11  6  1  0
 30 12  1  0
 28 20  1  0
 27 22  1  0
  1 31  1  0
  1 32  1  0
  1 33  1  0
  2 34  1  0
  2 35  1  0
  7 36  1  0
  8 37  1  0
  9 38  1  0
 10 39  1  0
 11 40  1  0
 12 41  1  0
 13 42  1  0
 13 43  1  0
 14 44  1  0
 14 45  1  0
 18 46  1  6
 19 47  1  0
 19 48  1  0
 20 49  1  0
 21 50  1  0
 21 51  1  0
 23 52  1  0
 24 53  1  0
 25 54  1  0
 26 55  1  0
 28 56  1  0
 28 57  1  0
 29 58  1  0
 29 59  1  0
 30 60  1  0
 30 61  1  0
M  END
>  <UniqueID>  (45) 
45

>  <SMILES>  (45) 
CCC(=O)N(c1ccccc1)C1CCN(C(=O)[C@@H](N)C2Cc3ccccc3C2)CC1

>  <Energy>  (45) 
82.87778324178905

>  <Genealogy>  (45) 
CCC(=O)N(c1ccccc1)C1CCN(C(=O)[C@@H](N)C2Cc3ccccc3C2)CC1 (3D coordinates assigned)
CCC(=O)N(c1ccccc1)C1CCN(C(=O)[C@@H](N)C2Cc3ccccc3C2)CC1 (nonaromatic ring conformer: 82.87778324178905 kcal/mol)

>  <smiles>  (45) 
CCC(=O)N(c1ccccc1)C1CCN(C(=O)[C@@H](N)C2Cc3ccccc3C2)CC1

>  <score_type>  (45) 
oracle

>  <origin>  (45) 
autodockgpu

>  <m_score__min__energy>  (45) 
-8.0500000000000007

>  <m_primary>  (45) 
energy

>  <meeko>  (45) 
{"free_energy": -7.69, "intermolecular_energy": -9.78, "internal_energy": -2.73, "cluster_size": 11, "cluster_id": 1, "rank_in_cluster": 11}

>  <energy>  (45) 
-8.01

>  <cluster_rmsd>  (45) 
0.28

>  <rmsd>  (45) 
271.6

>  <cluster>  (45) 
1

$$$$
MCZRVQBLWAUNOI-DEOSSOPVNA-N
     RDKit          3D

 61 64  0  0  0  0  0  0  0  0999 V2000
  146.2980   73.1290  221.3300 C   0  0  0  0  0  0  0  0  0  0  0  0
  145.1950   73.9270  220.6340 C   0  0  0  0  0  0  0  0  0  0  0  0
  144.9100   73.4450  219.2300 C   0  0  0  0  0  0  0  0  0  0  0  0
  145.7310   72.6730  218.6580 O   0  0  0  0  0  0  0  0  0  0  0  0
  143.6900   73.8200  218.5500 N   0  0  0  0  0  0  0  0  0  0  0  0
  143.5340   75.1780  218.1030 C   0  0  0  0  0  0  0  0  0  0  0  0
  143.1350   76.1820  218.9990 C   0  0  0  0  0  0  0  0  0  0  0  0
  142.9600   77.4940  218.5500 C   0  0  0  0  0  0  0  0  0  0  0  0
  143.1980   77.8140  217.2100 C   0  0  0  0  0  0  0  0  0  0  0  0
  143.6190   76.8230  216.3190 C   0  0  0  0  0  0  0  0  0  0  0  0
  143.7940   75.5090  216.7640 C   0  0  0  0  0  0  0  0  0  0  0  0
  142.5480   72.8740  218.5190 C   0  0  0  0  0  0  0  0  0  0  0  0
  141.2660   73.4810  217.8840 C   0  0  0  0  0  0  0  0  0  0  0  0
  140.4320   74.3340  218.8600 C   0  0  0  0  0  0  0  0  0  0  0  0
  140.4110   73.7600  220.2130 N   0  0  0  0  0  0  0  0  0  0  0  0
  140.1880   74.6040  221.3610 C   0  0  0  0  0  0  0  0  0  0  0  0
  140.9760   74.5260  222.3410 O   0  0  0  0  0  0  0  0  0  0  0  0
  139.0160   75.5550  221.4460 C   0  0  1  0  0  0  0  0  0  0  0  0
  138.2940   75.3450  222.7060 N   0  0  0  0  0  0  0  0  0  0  0  0
  139.4540   77.0330  221.2600 C   0  0  0  0  0  0  0  0  0  0  0  0
  138.8740   77.9740  222.3460 C   0  0  0  0  0  0  0  0  0  0  0  0
  140.0050   78.8770  222.6650 C   0  0  0  0  0  0  0  0  0  0  0  0
  139.9660   80.0140  223.4760 C   0  0  0  0  0  0  0  0  0  0  0  0
  141.1540   80.7290  223.6910 C   0  0  0  0  0  0  0  0  0  0  0  0
  142.3570   80.2930  223.1060 C   0  0  0  0  0  0  0  0  0  0  0  0
  142.3740   79.1430  222.3000 C   0  0  0  0  0  0  0  0  0  0  0  0
  141.1780   78.4550  222.0900 C   0  0  0  0  0  0  0  0  0  0  0  0
  140.9930   77.2110  221.3070 C   0  0  0  0  0  0  0  0  0  0  0  0
  140.8690   72.3820  220.4060 C   0  0  0  0  0  0  0  0  0  0  0  0
  142.3130   72.2480  219.9220 C   0  0  0  0  0  0  0  0  0  0  0  0
  146.1800   73.2144  222.4203 H   0  0  0  0  0  0  0  0  0  0  0  0
  146.2273   72.0716  221.0352 H   0  0  0  0  0  0  0  0  0  0  0  0
  147.2802   73.5269  221.0352 H   0  0  0  0  0  0  0  0  0  0  0  0
  144.2729   73.8409  221.2276 H   0  0  0  0  0  0  0  0  0  0  0  0
  145.5411   74.9685  220.5592 H   0  0  0  0  0  0  0  0  0  0  0  0
  142.9597   75.9358  220.0567 H   0  0  0  0  0  0  0  0  0  0  0  0
  142.6346   78.2759  219.2519 H   0  0  0  0  0  0  0  0  0  0  0  0
  143.0539   78.8458  216.8570 H   0  0  0  0  0  0  0  0  0  0  0  0
  143.8129   77.0770  215.2664 H   0  0  0  0  0  0  0  0  0  0  0  0
  144.1361   74.7332  216.0633 H   0  0  0  0  0  0  0  0  0  0  0  0
  142.8193   72.0510  217.8414 H   0  0  0  0  0  0  0  0  0  0  0  0
  141.5657   74.1162  217.0374 H   0  0  0  0  0  0  0  0  0  0  0  0
  140.6320   72.6373  217.5738 H   0  0  0  0  0  0  0  0  0  0  0  0
  140.8658   75.3436  218.9092 H   0  0  0  0  0  0  0  0  0  0  0  0
  139.3975   74.3633  218.4872 H   0  0  0  0  0  0  0  0  0  0  0  0
  138.3284   75.3365  220.6156 H   0  0  0  0  0  0  0  0  0  0  0  0
  137.7430   74.4580  222.6640 H   0  0  0  0  0  0  0  0  0  0  0  0
  138.9890   75.2280  223.4780 H   0  0  0  0  0  0  0  0  0  0  0  0
  139.0616   77.3009  220.2679 H   0  0  0  0  0  0  0  0  0  0  0  0
  138.0161   78.5416  221.9564 H   0  0  0  0  0  0  0  0  0  0  0  0
  138.4993   77.4310  223.2262 H   0  0  0  0  0  0  0  0  0  0  0  0
  139.0226   80.3422  223.9368 H   0  0  0  0  0  0  0  0  0  0  0  0
  141.1448   81.6325  224.3184 H   0  0  0  0  0  0  0  0  0  0  0  0
  143.2868   80.8544  223.2804 H   0  0  0  0  0  0  0  0  0  0  0  0
  143.3111   78.7916  221.8434 H   0  0  0  0  0  0  0  0  0  0  0  0
  141.4065   77.3201  220.2936 H   0  0  0  0  0  0  0  0  0  0  0  0
  141.5091   76.3469  221.7508 H   0  0  0  0  0  0  0  0  0  0  0  0
  140.8158   72.1249  221.4742 H   0  0  0  0  0  0  0  0  0  0  0  0
  140.2263   71.6998  219.8302 H   0  0  0  0  0  0  0  0  0  0  0  0
  142.9722   72.7514  220.6445 H   0  0  0  0  0  0  0  0  0  0  0  0
  142.5329   71.1732  219.8419 H   0  0  0  0  0  0  0  0  0  0  0  0
  1  2  1  0
  2  3  1  0
  3  4  2  0
  3  5  1  0
  5  6  1  0
  6  7  2  0
  7  8  1  0
  8  9  2  0
  9 10  1  0
 10 11  2  0
  5 12  1  0
 12 13  1  0
 13 14  1  0
 14 15  1  0
 15 16  1  0
 16 17  2  0
 16 18  1  0
 18 19  1  0
 18 20  1  0
 20 21  1  0
 21 22  1  0
 22 23  2  0
 23 24  1  0
 24 25  2  0
 25 26  1  0
 26 27  2  0
 27 28  1  0
 15 29  1  0
 29 30  1  0
 11  6  1  0
 30 12  1  0
 28 20  1  0
 27 22  1  0
  1 31  1  0
  1 32  1  0
  1 33  1  0
  2 34  1  0
  2 35  1  0
  7 36  1  0
  8 37  1  0
  9 38  1  0
 10 39  1  0
 11 40  1  0
 12 41  1  0
 13 42  1  0
 13 43  1  0
 14 44  1  0
 14 45  1  0
 18 46  1  6
 19 47  1  0
 19 48  1  0
 20 49  1  0
 21 50  1  0
 21 51  1  0
 23 52  1  0
 24 53  1  0
 25 54  1  0
 26 55  1  0
 28 56  1  0
 28 57  1  0
 29 58  1  0
 29 59  1  0
 30 60  1  0
 30 61  1  0
M  END
>  <UniqueID>  (46) 
45

>  <SMILES>  (46) 
CCC(=O)N(c1ccccc1)C1CCN(C(=O)[C@@H](N)C2Cc3ccccc3C2)CC1

>  <Energy>  (46) 
82.87778324178905

>  <Genealogy>  (46) 
CCC(=O)N(c1ccccc1)C1CCN(C(=O)[C@@H](N)C2Cc3ccccc3C2)CC1 (3D coordinates assigned)
CCC(=O)N(c1ccccc1)C1CCN(C(=O)[C@@H](N)C2Cc3ccccc3C2)CC1 (nonaromatic ring conformer: 82.87778324178905 kcal/mol)

>  <smiles>  (46) 
CCC(=O)N(c1ccccc1)C1CCN(C(=O)[C@@H](N)C2Cc3ccccc3C2)CC1

>  <score_type>  (46) 
oracle

>  <origin>  (46) 
autodockgpu

>  <m_score__min__energy>  (46) 
-8.0500000000000007

>  <m_primary>  (46) 
energy

>  <meeko>  (46) 
{"free_energy": -7.78, "intermolecular_energy": -9.87, "internal_energy": -2.76, "cluster_size": 11, "cluster_id": 1, "rank_in_cluster": 10}

>  <energy>  (46) 
-7.99

>  <cluster_rmsd>  (46) 
0.3

>  <rmsd>  (46) 
271.58

>  <cluster>  (46) 
1

$$$$
MCZRVQBLWAUNOI-DEOSSOPVNA-N
     RDKit          3D

 61 64  0  0  0  0  0  0  0  0999 V2000
  146.3490   73.2230  221.8230 C   0  0  0  0  0  0  0  0  0  0  0  0
  145.5410   74.0890  220.8570 C   0  0  0  0  0  0  0  0  0  0  0  0
  145.1760   73.3700  219.5790 C   0  0  0  0  0  0  0  0  0  0  0  0
  145.9630   72.5010  219.1070 O   0  0  0  0  0  0  0  0  0  0  0  0
  143.9190   73.6330  218.9120 N   0  0  0  0  0  0  0  0  0  0  0  0
  143.5670   74.9930  218.6070 C   0  0  0  0  0  0  0  0  0  0  0  0
  143.6180   75.4630  217.2850 C   0  0  0  0  0  0  0  0  0  0  0  0
  143.3000   76.7950  217.0010 C   0  0  0  0  0  0  0  0  0  0  0  0
  142.9150   77.6580  218.0310 C   0  0  0  0  0  0  0  0  0  0  0  0
  142.8390   77.1890  219.3460 C   0  0  0  0  0  0  0  0  0  0  0  0
  143.1580   75.8580  219.6340 C   0  0  0  0  0  0  0  0  0  0  0  0
  142.9320   72.5380  218.7530 C   0  0  0  0  0  0  0  0  0  0  0  0
  141.6640   72.9660  217.9610 C   0  0  0  0  0  0  0  0  0  0  0  0
  140.6080   73.6880  218.8210 C   0  0  0  0  0  0  0  0  0  0  0  0
  140.5030   73.1090  220.1670 N   0  0  0  0  0  0  0  0  0  0  0  0
  140.0290   73.9050  221.2710 C   0  0  0  0  0  0  0  0  0  0  0  0
  140.6960   73.9310  222.3400 O   0  0  0  0  0  0  0  0  0  0  0  0
  138.7350   74.6840  221.2050 C   0  0  1  0  0  0  0  0  0  0  0  0
  137.8830   74.3350  222.3480 N   0  0  0  0  0  0  0  0  0  0  0  0
  138.9840   76.2140  221.1050 C   0  0  0  0  0  0  0  0  0  0  0  0
  138.1890   77.0240  222.1600 C   0  0  0  0  0  0  0  0  0  0  0  0
  139.1550   78.0530  222.6090 C   0  0  0  0  0  0  0  0  0  0  0  0
  138.8910   79.1400  223.4470 C   0  0  0  0  0  0  0  0  0  0  0  0
  139.9480   79.9960  223.7930 C   0  0  0  0  0  0  0  0  0  0  0  0
  141.2460   79.7470  223.3090 C   0  0  0  0  0  0  0  0  0  0  0  0
  141.4890   78.6450  222.4730 C   0  0  0  0  0  0  0  0  0  0  0  0
  140.4200   77.8140  222.1330 C   0  0  0  0  0  0  0  0  0  0  0  0
  140.4750   76.5920  221.2990 C   0  0  0  0  0  0  0  0  0  0  0  0
  141.1210   71.8060  220.4280 C   0  0  0  0  0  0  0  0  0  0  0  0
  142.6180   71.8760  220.1230 C   0  0  0  0  0  0  0  0  0  0  0  0
  146.0957   73.4945  222.8584 H   0  0  0  0  0  0  0  0  0  0  0  0
  146.1097   72.1629  221.6529 H   0  0  0  0  0  0  0  0  0  0  0  0
  147.4231   73.3883  221.6529 H   0  0  0  0  0  0  0  0  0  0  0  0
  144.6139   74.4021  221.3594 H   0  0  0  0  0  0  0  0  0  0  0  0
  146.1708   74.9478  220.5815 H   0  0  0  0  0  0  0  0  0  0  0  0
  143.9086   74.7824  216.4712 H   0  0  0  0  0  0  0  0  0  0  0  0
  143.3529   77.1639  215.9661 H   0  0  0  0  0  0  0  0  0  0  0  0
  142.6716   78.7070  217.8068 H   0  0  0  0  0  0  0  0  0  0  0  0
  142.5282   77.8671  220.1544 H   0  0  0  0  0  0  0  0  0  0  0  0
  143.0882   75.4883  220.6677 H   0  0  0  0  0  0  0  0  0  0  0  0
  143.3948   71.7650  218.1219 H   0  0  0  0  0  0  0  0  0  0  0  0
  141.9731   73.6427  217.1507 H   0  0  0  0  0  0  0  0  0  0  0  0
  141.1953   72.0449  217.5843 H   0  0  0  0  0  0  0  0  0  0  0  0
  140.8883   74.7478  218.9115 H   0  0  0  0  0  0  0  0  0  0  0  0
  139.6323   73.5746  218.3260 H   0  0  0  0  0  0  0  0  0  0  0  0
  138.2052   74.4020  220.2832 H   0  0  0  0  0  0  0  0  0  0  0  0
  138.1940   73.4300  222.7670 H   0  0  0  0  0  0  0  0  0  0  0  0
  137.9990   75.0620  223.0900 H   0  0  0  0  0  0  0  0  0  0  0  0
  138.6474   76.4689  220.0892 H   0  0  0  0  0  0  0  0  0  0  0  0
  137.3001   77.4897  221.7095 H   0  0  0  0  0  0  0  0  0  0  0  0
  137.8147   76.4000  222.9850 H   0  0  0  0  0  0  0  0  0  0  0  0
  137.8750   79.3210  223.8278 H   0  0  0  0  0  0  0  0  0  0  0  0
  139.7617   80.8631  224.4437 H   0  0  0  0  0  0  0  0  0  0  0  0
  142.0726   80.4176  223.5864 H   0  0  0  0  0  0  0  0  0  0  0  0
  142.5012   78.4408  222.0938 H   0  0  0  0  0  0  0  0  0  0  0  0
  140.9567   76.7982  220.3318 H   0  0  0  0  0  0  0  0  0  0  0  0
  141.0632   75.7856  221.7614 H   0  0  0  0  0  0  0  0  0  0  0  0
  140.9752   71.5370  221.4846 H   0  0  0  0  0  0  0  0  0  0  0  0
  140.6532   71.0454  219.7856 H   0  0  0  0  0  0  0  0  0  0  0  0
  143.1094   72.4605  220.9148 H   0  0  0  0  0  0  0  0  0  0  0  0
  142.9921   70.8425  220.0806 H   0  0  0  0  0  0  0  0  0  0  0  0
  1  2  1  0
  2  3  1  0
  3  4  2  0
  3  5  1  0
  5  6  1  0
  6  7  2  0
  7  8  1  0
  8  9  2  0
  9 10  1  0
 10 11  2  0
  5 12  1  0
 12 13  1  0
 13 14  1  0
 14 15  1  0
 15 16  1  0
 16 17  2  0
 16 18  1  0
 18 19  1  0
 18 20  1  0
 20 21  1  0
 21 22  1  0
 22 23  2  0
 23 24  1  0
 24 25  2  0
 25 26  1  0
 26 27  2  0
 27 28  1  0
 15 29  1  0
 29 30  1  0
 11  6  1  0
 30 12  1  0
 28 20  1  0
 27 22  1  0
  1 31  1  0
  1 32  1  0
  1 33  1  0
  2 34  1  0
  2 35  1  0
  7 36  1  0
  8 37  1  0
  9 38  1  0
 10 39  1  0
 11 40  1  0
 12 41  1  0
 13 42  1  0
 13 43  1  0
 14 44  1  0
 14 45  1  0
 18 46  1  6
 19 47  1  0
 19 48  1  0
 20 49  1  0
 21 50  1  0
 21 51  1  0
 23 52  1  0
 24 53  1  0
 25 54  1  0
 26 55  1  0
 28 56  1  0
 28 57  1  0
 29 58  1  0
 29 59  1  0
 30 60  1  0
 30 61  1  0
M  END
>  <UniqueID>  (47) 
45

>  <SMILES>  (47) 
CCC(=O)N(c1ccccc1)C1CCN(C(=O)[C@@H](N)C2Cc3ccccc3C2)CC1

>  <Energy>  (47) 
82.87778324178905

>  <Genealogy>  (47) 
CCC(=O)N(c1ccccc1)C1CCN(C(=O)[C@@H](N)C2Cc3ccccc3C2)CC1 (3D coordinates assigned)
CCC(=O)N(c1ccccc1)C1CCN(C(=O)[C@@H](N)C2Cc3ccccc3C2)CC1 (nonaromatic ring conformer: 82.87778324178905 kcal/mol)

>  <smiles>  (47) 
CCC(=O)N(c1ccccc1)C1CCN(C(=O)[C@@H](N)C2Cc3ccccc3C2)CC1

>  <score_type>  (47) 
oracle

>  <origin>  (47) 
autodockgpu

>  <m_score__min__energy>  (47) 
-8.0500000000000007

>  <m_primary>  (47) 
energy

>  <meeko>  (47) 
{"free_energy": -8.02, "intermolecular_energy": -10.11, "internal_energy": -2.53, "cluster_size": 11, "cluster_id": 1, "rank_in_cluster": 4}

>  <energy>  (47) 
-7.93

>  <cluster_rmsd>  (47) 
0.17

>  <rmsd>  (47) 
271.56

>  <cluster>  (47) 
1

$$$$
MCZRVQBLWAUNOI-DEOSSOPVNA-N
     RDKit          3D

 61 64  0  0  0  0  0  0  0  0999 V2000
  138.2060   78.2000  222.6840 C   0  0  0  0  0  0  0  0  0  0  0  0
  137.4100   79.4280  223.1250 C   0  0  0  0  0  0  0  0  0  0  0  0
  138.2870   80.6050  223.4860 C   0  0  0  0  0  0  0  0  0  0  0  0
  138.1560   81.1570  224.6150 O   0  0  0  0  0  0  0  0  0  0  0  0
  139.3050   81.0800  222.5730 N   0  0  0  0  0  0  0  0  0  0  0  0
  140.6620   80.6420  222.7600 C   0  0  0  0  0  0  0  0  0  0  0  0
  141.4870   81.2640  223.7110 C   0  0  0  0  0  0  0  0  0  0  0  0
  142.8130   80.8500  223.8680 C   0  0  0  0  0  0  0  0  0  0  0  0
  143.3170   79.8050  223.0880 C   0  0  0  0  0  0  0  0  0  0  0  0
  142.4940   79.1670  222.1560 C   0  0  0  0  0  0  0  0  0  0  0  0
  141.1670   79.5780  221.9960 C   0  0  0  0  0  0  0  0  0  0  0  0
  138.9800   82.1610  221.6110 C   0  0  0  0  0  0  0  0  0  0  0  0
  138.1590   81.6650  220.3880 C   0  0  0  0  0  0  0  0  0  0  0  0
  139.0190   81.0380  219.2730 C   0  0  0  0  0  0  0  0  0  0  0  0
  140.2940   81.7480  219.0960 N   0  0  0  0  0  0  0  0  0  0  0  0
  141.4400   81.0660  218.5470 C   0  0  0  0  0  0  0  0  0  0  0  0
  142.5440   81.1410  219.1480 O   0  0  0  0  0  0  0  0  0  0  0  0
  141.3720   80.2930  217.2490 C   0  0  1  0  0  0  0  0  0  0  0  0
  142.5280   80.6250  216.4090 N   0  0  0  0  0  0  0  0  0  0  0  0
  141.2420   78.7650  217.4910 C   0  0  0  0  0  0  0  0  0  0  0  0
  142.6140   78.0460  217.5530 C   0  0  0  0  0  0  0  0  0  0  0  0
  142.4510   77.0780  218.6610 C   0  0  0  0  0  0  0  0  0  0  0  0
  143.3460   76.0710  219.0330 C   0  0  0  0  0  0  0  0  0  0  0  0
  143.0340   75.2670  220.1390 C   0  0  0  0  0  0  0  0  0  0  0  0
  141.8460   75.4880  220.8610 C   0  0  0  0  0  0  0  0  0  0  0  0
  140.9640   76.5100  220.4730 C   0  0  0  0  0  0  0  0  0  0  0  0
  141.2900   77.2890  219.3620 C   0  0  0  0  0  0  0  0  0  0  0  0
  140.5150   78.4290  218.8180 C   0  0  0  0  0  0  0  0  0  0  0  0
  140.4640   83.0660  219.7130 C   0  0  0  0  0  0  0  0  0  0  0  0
  140.2580   82.9560  221.2240 C   0  0  0  0  0  0  0  0  0  0  0  0
  138.5597   77.6543  223.5712 H   0  0  0  0  0  0  0  0  0  0  0  0
  137.5619   77.5424  222.0817 H   0  0  0  0  0  0  0  0  0  0  0  0
  139.0692   78.5195  222.0817 H   0  0  0  0  0  0  0  0  0  0  0  0
  136.7437   79.7272  222.3025 H   0  0  0  0  0  0  0  0  0  0  0  0
  136.8488   79.1479  224.0286 H   0  0  0  0  0  0  0  0  0  0  0  0
  141.0890   82.0787  224.3338 H   0  0  0  0  0  0  0  0  0  0  0  0
  143.4602   81.3468  224.6057 H   0  0  0  0  0  0  0  0  0  0  0  0
  144.3624   79.4846  223.2080 H   0  0  0  0  0  0  0  0  0  0  0  0
  142.8904   78.3407  221.5477 H   0  0  0  0  0  0  0  0  0  0  0  0
  140.5176   79.0667  221.2702 H   0  0  0  0  0  0  0  0  0  0  0  0
  138.3057   82.8657  222.1197 H   0  0  0  0  0  0  0  0  0  0  0  0
  137.4394   80.9097  220.7369 H   0  0  0  0  0  0  0  0  0  0  0  0
  137.6665   82.5477  219.9540 H   0  0  0  0  0  0  0  0  0  0  0  0
  139.2292   79.9901  219.5334 H   0  0  0  0  0  0  0  0  0  0  0  0
  138.4570   81.1086  218.3300 H   0  0  0  0  0  0  0  0  0  0  0  0
  140.4603   80.5933  216.7117 H   0  0  0  0  0  0  0  0  0  0  0  0
  143.3290   80.9380  217.0030 H   0  0  0  0  0  0  0  0  0  0  0  0
  142.8440   79.7620  215.9130 H   0  0  0  0  0  0  0  0  0  0  0  0
  140.6593   78.4109  216.6278 H   0  0  0  0  0  0  0  0  0  0  0  0
  142.8285   77.5274  216.6070 H   0  0  0  0  0  0  0  0  0  0  0  0
  143.4528   78.7396  217.7118 H   0  0  0  0  0  0  0  0  0  0  0  0
  144.2771   75.9121  218.4692 H   0  0  0  0  0  0  0  0  0  0  0  0
  143.7192   74.4619  220.4429 H   0  0  0  0  0  0  0  0  0  0  0  0
  141.6077   74.8588  221.7312 H   0  0  0  0  0  0  0  0  0  0  0  0
  140.0353   76.6926  221.0335 H   0  0  0  0  0  0  0  0  0  0  0  0
  139.4703   78.1399  218.6310 H   0  0  0  0  0  0  0  0  0  0  0  0
  140.4707   79.2838  219.5090 H   0  0  0  0  0  0  0  0  0  0  0  0
  141.4788   83.4379  219.5081 H   0  0  0  0  0  0  0  0  0  0  0  0
  139.7242   83.7636  219.2935 H   0  0  0  0  0  0  0  0  0  0  0  0
  141.1310   82.4483  221.6599 H   0  0  0  0  0  0  0  0  0  0  0  0
  140.1377   83.9779  221.6129 H   0  0  0  0  0  0  0  0  0  0  0  0
  1  2  1  0
  2  3  1  0
  3  4  2  0
  3  5  1  0
  5  6  1  0
  6  7  2  0
  7  8  1  0
  8  9  2  0
  9 10  1  0
 10 11  2  0
  5 12  1  0
 12 13  1  0
 13 14  1  0
 14 15  1  0
 15 16  1  0
 16 17  2  0
 16 18  1  0
 18 19  1  0
 18 20  1  0
 20 21  1  0
 21 22  1  0
 22 23  2  0
 23 24  1  0
 24 25  2  0
 25 26  1  0
 26 27  2  0
 27 28  1  0
 15 29  1  0
 29 30  1  0
 11  6  1  0
 30 12  1  0
 28 20  1  0
 27 22  1  0
  1 31  1  0
  1 32  1  0
  1 33  1  0
  2 34  1  0
  2 35  1  0
  7 36  1  0
  8 37  1  0
  9 38  1  0
 10 39  1  0
 11 40  1  0
 12 41  1  0
 13 42  1  0
 13 43  1  0
 14 44  1  0
 14 45  1  0
 18 46  1  6
 19 47  1  0
 19 48  1  0
 20 49  1  0
 21 50  1  0
 21 51  1  0
 23 52  1  0
 24 53  1  0
 25 54  1  0
 26 55  1  0
 28 56  1  0
 28 57  1  0
 29 58  1  0
 29 59  1  0
 30 60  1  0
 30 61  1  0
M  END
>  <UniqueID>  (48) 
45

>  <SMILES>  (48) 
CCC(=O)N(c1ccccc1)C1CCN(C(=O)[C@@H](N)C2Cc3ccccc3C2)CC1

>  <Energy>  (48) 
82.87778324178905

>  <Genealogy>  (48) 
CCC(=O)N(c1ccccc1)C1CCN(C(=O)[C@@H](N)C2Cc3ccccc3C2)CC1 (3D coordinates assigned)
CCC(=O)N(c1ccccc1)C1CCN(C(=O)[C@@H](N)C2Cc3ccccc3C2)CC1 (nonaromatic ring conformer: 82.87778324178905 kcal/mol)

>  <smiles>  (48) 
CCC(=O)N(c1ccccc1)C1CCN(C(=O)[C@@H](N)C2Cc3ccccc3C2)CC1

>  <score_type>  (48) 
oracle

>  <origin>  (48) 
autodockgpu

>  <m_score__min__energy>  (48) 
-8.0500000000000007

>  <m_primary>  (48) 
energy

>  <meeko>  (48) 
{"free_energy": -6.16, "intermolecular_energy": -8.25, "internal_energy": -3.53, "cluster_size": 3, "cluster_id": 4, "rank_in_cluster": 1}

>  <energy>  (48) 
-7.9

>  <cluster_rmsd>  (48) 
0.81

>  <rmsd>  (48) 
271.72

>  <cluster>  (48) 
1

$$$$
MCZRVQBLWAUNOI-DEOSSOPVNA-N
     RDKit          3D

 61 64  0  0  0  0  0  0  0  0999 V2000
  146.5550   73.3800  221.6420 C   0  0  0  0  0  0  0  0  0  0  0  0
  145.1900   73.7230  221.0450 C   0  0  0  0  0  0  0  0  0  0  0  0
  145.0980   73.4220  219.5660 C   0  0  0  0  0  0  0  0  0  0  0  0
  146.0780   72.8840  218.9780 O   0  0  0  0  0  0  0  0  0  0  0  0
  143.8860   73.7010  218.8270 N   0  0  0  0  0  0  0  0  0  0  0  0
  143.6040   75.0590  218.4460 C   0  0  0  0  0  0  0  0  0  0  0  0
  143.2250   76.0060  219.4110 C   0  0  0  0  0  0  0  0  0  0  0  0
  142.9270   77.3170  219.0280 C   0  0  0  0  0  0  0  0  0  0  0  0
  143.0200   77.6930  217.6850 C   0  0  0  0  0  0  0  0  0  0  0  0
  143.4200   76.7610  216.7230 C   0  0  0  0  0  0  0  0  0  0  0  0
  143.7180   75.4480  217.1020 C   0  0  0  0  0  0  0  0  0  0  0  0
  142.8640   72.6390  218.6660 C   0  0  0  0  0  0  0  0  0  0  0  0
  141.6010   73.1150  217.8960 C   0  0  0  0  0  0  0  0  0  0  0  0
  140.5770   73.8570  218.7780 C   0  0  0  0  0  0  0  0  0  0  0  0
  140.4710   73.2630  220.1180 N   0  0  0  0  0  0  0  0  0  0  0  0
  140.0350   74.0580  221.2380 C   0  0  0  0  0  0  0  0  0  0  0  0
  140.7150   74.0500  222.2990 O   0  0  0  0  0  0  0  0  0  0  0  0
  138.7640   74.8760  221.1990 C   0  0  1  0  0  0  0  0  0  0  0  0
  137.9150   74.5360  222.3460 N   0  0  0  0  0  0  0  0  0  0  0  0
  139.0570   76.3990  221.1170 C   0  0  0  0  0  0  0  0  0  0  0  0
  138.4550   77.1930  222.3050 C   0  0  0  0  0  0  0  0  0  0  0  0
  139.5160   78.1690  222.6450 C   0  0  0  0  0  0  0  0  0  0  0  0
  139.4200   79.2290  223.5500 C   0  0  0  0  0  0  0  0  0  0  0  0
  140.5490   80.0330  223.7690 C   0  0  0  0  0  0  0  0  0  0  0  0
  141.7530   79.7590  223.0940 C   0  0  0  0  0  0  0  0  0  0  0  0
  141.8280   78.6840  222.1930 C   0  0  0  0  0  0  0  0  0  0  0  0
  140.6890   77.9050  221.9820 C   0  0  0  0  0  0  0  0  0  0  0  0
  140.5750   76.7170  221.1070 C   0  0  0  0  0  0  0  0  0  0  0  0
  141.0530   71.9390  220.3550 C   0  0  0  0  0  0  0  0  0  0  0  0
  142.5470   71.9680  220.0310 C   0  0  0  0  0  0  0  0  0  0  0  0
  146.4896   73.3964  222.7399 H   0  0  0  0  0  0  0  0  0  0  0  0
  146.8599   72.3773  221.3078 H   0  0  0  0  0  0  0  0  0  0  0  0
  147.2976   74.1194  221.3078 H   0  0  0  0  0  0  0  0  0  0  0  0
  144.4209   73.1375  221.5701 H   0  0  0  0  0  0  0  0  0  0  0  0
  145.0395   74.8055  221.1699 H   0  0  0  0  0  0  0  0  0  0  0  0
  143.1625   75.7158  220.4702 H   0  0  0  0  0  0  0  0  0  0  0  0
  142.6189   78.0537  219.7846 H   0  0  0  0  0  0  0  0  0  0  0  0
  142.7782   78.7233  217.3848 H   0  0  0  0  0  0  0  0  0  0  0  0
  143.5004   77.0603  215.6676 H   0  0  0  0  0  0  0  0  0  0  0  0
  144.0424   74.7186  216.3452 H   0  0  0  0  0  0  0  0  0  0  0  0
  143.2952   71.8612  218.0187 H   0  0  0  0  0  0  0  0  0  0  0  0
  141.9207   73.7928  217.0908 H   0  0  0  0  0  0  0  0  0  0  0  0
  141.1003   72.2133  217.5135 H   0  0  0  0  0  0  0  0  0  0  0  0
  140.8899   74.9067  218.8787 H   0  0  0  0  0  0  0  0  0  0  0  0
  139.5925   73.7797  218.2935 H   0  0  0  0  0  0  0  0  0  0  0  0
  138.2154   74.6229  220.2798 H   0  0  0  0  0  0  0  0  0  0  0  0
  138.2100   73.6210  222.7550 H   0  0  0  0  0  0  0  0  0  0  0  0
  138.0530   75.2540  223.0930 H   0  0  0  0  0  0  0  0  0  0  0  0
  138.5888   76.7061  220.1702 H   0  0  0  0  0  0  0  0  0  0  0  0
  137.5299   77.7071  222.0052 H   0  0  0  0  0  0  0  0  0  0  0  0
  138.1787   76.5492  223.1531 H   0  0  0  0  0  0  0  0  0  0  0  0
  138.4775   79.4295  224.0807 H   0  0  0  0  0  0  0  0  0  0  0  0
  140.4928   80.8791  224.4697 H   0  0  0  0  0  0  0  0  0  0  0  0
  142.6375   80.3882  223.2724 H   0  0  0  0  0  0  0  0  0  0  0  0
  142.7661   78.4603  221.6639 H   0  0  0  0  0  0  0  0  0  0  0  0
  140.9215   76.9452  220.0882 H   0  0  0  0  0  0  0  0  0  0  0  0
  141.1902   75.8727  221.4514 H   0  0  0  0  0  0  0  0  0  0  0  0
  140.9129   71.6614  221.4101 H   0  0  0  0  0  0  0  0  0  0  0  0
  140.5543   71.2008  219.7098 H   0  0  0  0  0  0  0  0  0  0  0  0
  143.0660   72.5264  220.8240 H   0  0  0  0  0  0  0  0  0  0  0  0
  142.8886   70.9242  219.9695 H   0  0  0  0  0  0  0  0  0  0  0  0
  1  2  1  0
  2  3  1  0
  3  4  2  0
  3  5  1  0
  5  6  1  0
  6  7  2  0
  7  8  1  0
  8  9  2  0
  9 10  1  0
 10 11  2  0
  5 12  1  0
 12 13  1  0
 13 14  1  0
 14 15  1  0
 15 16  1  0
 16 17  2  0
 16 18  1  0
 18 19  1  0
 18 20  1  0
 20 21  1  0
 21 22  1  0
 22 23  2  0
 23 24  1  0
 24 25  2  0
 25 26  1  0
 26 27  2  0
 27 28  1  0
 15 29  1  0
 29 30  1  0
 11  6  1  0
 30 12  1  0
 28 20  1  0
 27 22  1  0
  1 31  1  0
  1 32  1  0
  1 33  1  0
  2 34  1  0
  2 35  1  0
  7 36  1  0
  8 37  1  0
  9 38  1  0
 10 39  1  0
 11 40  1  0
 12 41  1  0
 13 42  1  0
 13 43  1  0
 14 44  1  0
 14 45  1  0
 18 46  1  6
 19 47  1  0
 19 48  1  0
 20 49  1  0
 21 50  1  0
 21 51  1  0
 23 52  1  0
 24 53  1  0
 25 54  1  0
 26 55  1  0
 28 56  1  0
 28 57  1  0
 29 58  1  0
 29 59  1  0
 30 60  1  0
 30 61  1  0
M  END
>  <UniqueID>  (49) 
45

>  <SMILES>  (49) 
CCC(=O)N(c1ccccc1)C1CCN(C(=O)[C@@H](N)C2Cc3ccccc3C2)CC1

>  <Energy>  (49) 
82.87778324178905

>  <Genealogy>  (49) 
CCC(=O)N(c1ccccc1)C1CCN(C(=O)[C@@H](N)C2Cc3ccccc3C2)CC1 (3D coordinates assigned)
CCC(=O)N(c1ccccc1)C1CCN(C(=O)[C@@H](N)C2Cc3ccccc3C2)CC1 (nonaromatic ring conformer: 82.87778324178905 kcal/mol)

>  <smiles>  (49) 
CCC(=O)N(c1ccccc1)C1CCN(C(=O)[C@@H](N)C2Cc3ccccc3C2)CC1

>  <score_type>  (49) 
oracle

>  <origin>  (49) 
autodockgpu

>  <m_score__min__energy>  (49) 
-8.0500000000000007

>  <m_primary>  (49) 
energy

>  <meeko>  (49) 
{"free_energy": -8.03, "intermolecular_energy": -10.12, "internal_energy": -2.58, "cluster_size": 11, "cluster_id": 1, "rank_in_cluster": 3}

>  <energy>  (49) 
-7.85

>  <cluster_rmsd>  (49) 
0.81

>  <rmsd>  (49) 
271.67

>  <cluster>  (49) 
1

$$$$
MCZRVQBLWAUNOI-DEOSSOPVNA-N
     RDKit          3D

 61 64  0  0  0  0  0  0  0  0999 V2000
  142.9570   77.1630  218.9850 C   0  0  0  0  0  0  0  0  0  0  0  0
  143.1880   76.8380  217.5100 C   0  0  0  0  0  0  0  0  0  0  0  0
  143.6670   75.4220  217.2820 C   0  0  0  0  0  0  0  0  0  0  0  0
  144.4490   75.1770  216.3200 O   0  0  0  0  0  0  0  0  0  0  0  0
  143.2780   74.3540  218.1770 N   0  0  0  0  0  0  0  0  0  0  0  0
  144.2430   73.8520  219.1170 C   0  0  0  0  0  0  0  0  0  0  0  0
  144.4920   74.5360  220.3180 C   0  0  0  0  0  0  0  0  0  0  0  0
  145.4510   74.0550  221.2140 C   0  0  0  0  0  0  0  0  0  0  0  0
  146.1550   72.8830  220.9250 C   0  0  0  0  0  0  0  0  0  0  0  0
  145.8940   72.1840  219.7420 C   0  0  0  0  0  0  0  0  0  0  0  0
  144.9360   72.6630  218.8420 C   0  0  0  0  0  0  0  0  0  0  0  0
  141.9860   73.6580  217.9690 C   0  0  0  0  0  0  0  0  0  0  0  0
  140.8250   74.6200  217.5890 C   0  0  0  0  0  0  0  0  0  0  0  0
  140.1690   75.3120  218.8000 C   0  0  0  0  0  0  0  0  0  0  0  0
  140.0620   74.4130  219.9570 N   0  0  0  0  0  0  0  0  0  0  0  0
  140.0080   74.9470  221.2950 C   0  0  0  0  0  0  0  0  0  0  0  0
  140.7800   74.4800  222.1740 O   0  0  0  0  0  0  0  0  0  0  0  0
  139.0260   76.0260  221.6920 C   0  0  1  0  0  0  0  0  0  0  0  0
  138.5880   75.8180  223.0770 N   0  0  0  0  0  0  0  0  0  0  0  0
  139.6060   77.4490  221.4680 C   0  0  0  0  0  0  0  0  0  0  0  0
  139.0230   78.4980  222.4490 C   0  0  0  0  0  0  0  0  0  0  0  0
  140.1980   79.3210  222.8170 C   0  0  0  0  0  0  0  0  0  0  0  0
  140.1930   80.5040  223.5620 C   0  0  0  0  0  0  0  0  0  0  0  0
  141.4170   81.1290  223.8420 C   0  0  0  0  0  0  0  0  0  0  0  0
  142.6210   80.5600  223.3880 C   0  0  0  0  0  0  0  0  0  0  0  0
  142.6030   79.3670  222.6470 C   0  0  0  0  0  0  0  0  0  0  0  0
  141.3730   78.7690  222.3700 C   0  0  0  0  0  0  0  0  0  0  0  0
  141.1450   77.5010  221.6390 C   0  0  0  0  0  0  0  0  0  0  0  0
  140.2680   72.9760  219.7600 C   0  0  0  0  0  0  0  0  0  0  0  0
  141.6590   72.7320  219.1730 C   0  0  0  0  0  0  0  0  0  0  0  0
  143.4816   76.4250  219.6096 H   0  0  0  0  0  0  0  0  0  0  0  0
  143.3436   78.1693  219.2036 H   0  0  0  0  0  0  0  0  0  0  0  0
  141.8795   77.1287  219.2036 H   0  0  0  0  0  0  0  0  0  0  0  0
  142.2411   76.9787  216.9682 H   0  0  0  0  0  0  0  0  0  0  0  0
  143.9759   77.5133  217.1451 H   0  0  0  0  0  0  0  0  0  0  0  0
  143.9311   75.4523  220.5541 H   0  0  0  0  0  0  0  0  0  0  0  0
  145.6518   74.6000  222.1482 H   0  0  0  0  0  0  0  0  0  0  0  0
  146.9145   72.5102  221.6280 H   0  0  0  0  0  0  0  0  0  0  0  0
  146.4424   71.2569  219.5191 H   0  0  0  0  0  0  0  0  0  0  0  0
  144.7255   72.1065  217.9168 H   0  0  0  0  0  0  0  0  0  0  0  0
  142.0984   73.0107  217.0868 H   0  0  0  0  0  0  0  0  0  0  0  0
  141.2232   75.3966  216.9195 H   0  0  0  0  0  0  0  0  0  0  0  0
  140.0466   74.0088  217.1088 H   0  0  0  0  0  0  0  0  0  0  0  0
  140.7770   76.1839  219.0830 H   0  0  0  0  0  0  0  0  0  0  0  0
  139.1519   75.6133  218.5090 H   0  0  0  0  0  0  0  0  0  0  0  0
  138.1443   75.9518  221.0385 H   0  0  0  0  0  0  0  0  0  0  0  0
  137.7250   75.2280  223.0990 H   0  0  0  0  0  0  0  0  0  0  0  0
  139.3270   75.2830  223.5880 H   0  0  0  0  0  0  0  0  0  0  0  0
  139.3218   77.6893  220.4329 H   0  0  0  0  0  0  0  0  0  0  0  0
  138.2530   79.1105  221.9571 H   0  0  0  0  0  0  0  0  0  0  0  0
  138.5310   78.0414  223.3205 H   0  0  0  0  0  0  0  0  0  0  0  0
  139.2475   80.9362  223.9216 H   0  0  0  0  0  0  0  0  0  0  0  0
  141.4357   82.0661  224.4178 H   0  0  0  0  0  0  0  0  0  0  0  0
  143.5791   81.0509  223.6140 H   0  0  0  0  0  0  0  0  0  0  0  0
  143.5400   78.9130  222.2920 H   0  0  0  0  0  0  0  0  0  0  0  0
  141.6483   77.5158  220.6610 H   0  0  0  0  0  0  0  0  0  0  0  0
  141.5454   76.6245  222.1695 H   0  0  0  0  0  0  0  0  0  0  0  0
  140.1828   72.4582  220.7267 H   0  0  0  0  0  0  0  0  0  0  0  0
  139.5064   72.5898  219.0666 H   0  0  0  0  0  0  0  0  0  0  0  0
  142.4065   72.9060  219.9610 H   0  0  0  0  0  0  0  0  0  0  0  0
  141.6811   71.6959  218.8042 H   0  0  0  0  0  0  0  0  0  0  0  0
  1  2  1  0
  2  3  1  0
  3  4  2  0
  3  5  1  0
  5  6  1  0
  6  7  2  0
  7  8  1  0
  8  9  2  0
  9 10  1  0
 10 11  2  0
  5 12  1  0
 12 13  1  0
 13 14  1  0
 14 15  1  0
 15 16  1  0
 16 17  2  0
 16 18  1  0
 18 19  1  0
 18 20  1  0
 20 21  1  0
 21 22  1  0
 22 23  2  0
 23 24  1  0
 24 25  2  0
 25 26  1  0
 26 27  2  0
 27 28  1  0
 15 29  1  0
 29 30  1  0
 11  6  1  0
 30 12  1  0
 28 20  1  0
 27 22  1  0
  1 31  1  0
  1 32  1  0
  1 33  1  0
  2 34  1  0
  2 35  1  0
  7 36  1  0
  8 37  1  0
  9 38  1  0
 10 39  1  0
 11 40  1  0
 12 41  1  0
 13 42  1  0
 13 43  1  0
 14 44  1  0
 14 45  1  0
 18 46  1  6
 19 47  1  0
 19 48  1  0
 20 49  1  0
 21 50  1  0
 21 51  1  0
 23 52  1  0
 24 53  1  0
 25 54  1  0
 26 55  1  0
 28 56  1  0
 28 57  1  0
 29 58  1  0
 29 59  1  0
 30 60  1  0
 30 61  1  0
M  END
>  <UniqueID>  (50) 
45

>  <SMILES>  (50) 
CCC(=O)N(c1ccccc1)C1CCN(C(=O)[C@@H](N)C2Cc3ccccc3C2)CC1

>  <Energy>  (50) 
82.87778324178905

>  <Genealogy>  (50) 
CCC(=O)N(c1ccccc1)C1CCN(C(=O)[C@@H](N)C2Cc3ccccc3C2)CC1 (3D coordinates assigned)
CCC(=O)N(c1ccccc1)C1CCN(C(=O)[C@@H](N)C2Cc3ccccc3C2)CC1 (nonaromatic ring conformer: 82.87778324178905 kcal/mol)

>  <smiles>  (50) 
CCC(=O)N(c1ccccc1)C1CCN(C(=O)[C@@H](N)C2Cc3ccccc3C2)CC1

>  <score_type>  (50) 
oracle

>  <origin>  (50) 
autodockgpu

>  <m_score__min__energy>  (50) 
-8.0500000000000007

>  <m_primary>  (50) 
energy

>  <meeko>  (50) 
{"free_energy": -7.29, "intermolecular_energy": -9.38, "internal_energy": -2.87, "cluster_size": 5, "cluster_id": 2, "rank_in_cluster": 5}

>  <energy>  (50) 
-7.78

>  <cluster_rmsd>  (50) 
0.83

>  <rmsd>  (50) 
271.7

>  <cluster>  (50) 
1

$$$$
MCZRVQBLWAUNOI-DEOSSOPVNA-N
     RDKit          3D

 61 64  0  0  0  0  0  0  0  0999 V2000
  146.3030   73.2650  221.3530 C   0  0  0  0  0  0  0  0  0  0  0  0
  145.2230   74.0770  220.6370 C   0  0  0  0  0  0  0  0  0  0  0  0
  144.9400   73.5820  219.2370 C   0  0  0  0  0  0  0  0  0  0  0  0
  145.7820   72.8400  218.6570 O   0  0  0  0  0  0  0  0  0  0  0  0
  143.6990   73.9110  218.5700 N   0  0  0  0  0  0  0  0  0  0  0  0
  143.4920   75.2610  218.1190 C   0  0  0  0  0  0  0  0  0  0  0  0
  143.1640   76.2760  219.0320 C   0  0  0  0  0  0  0  0  0  0  0  0
  142.9380   77.5790  218.5810 C   0  0  0  0  0  0  0  0  0  0  0  0
  143.0530   77.8800  217.2200 C   0  0  0  0  0  0  0  0  0  0  0  0
  143.4030   76.8780  216.3090 C   0  0  0  0  0  0  0  0  0  0  0  0
  143.6290   75.5730  216.7570 C   0  0  0  0  0  0  0  0  0  0  0  0
  142.5910   72.9260  218.5570 C   0  0  0  0  0  0  0  0  0  0  0  0
  141.2890   73.4770  217.9090 C   0  0  0  0  0  0  0  0  0  0  0  0
  140.4250   74.3200  218.8670 C   0  0  0  0  0  0  0  0  0  0  0  0
  140.4220   73.7740  220.2310 N   0  0  0  0  0  0  0  0  0  0  0  0
  140.1700   74.6320  221.3620 C   0  0  0  0  0  0  0  0  0  0  0  0
  140.9580   74.6020  222.3440 O   0  0  0  0  0  0  0  0  0  0  0  0
  138.9660   75.5450  221.4280 C   0  0  1  0  0  0  0  0  0  0  0  0
  138.1980   75.2720  222.6480 N   0  0  0  0  0  0  0  0  0  0  0  0
  139.3650   77.0410  221.3080 C   0  0  0  0  0  0  0  0  0  0  0  0
  138.8730   77.8930  222.5070 C   0  0  0  0  0  0  0  0  0  0  0  0
  140.0160   78.7930  222.7860 C   0  0  0  0  0  0  0  0  0  0  0  0
  140.0350   79.8700  223.6760 C   0  0  0  0  0  0  0  0  0  0  0  0
  141.2270   80.5920  223.8350 C   0  0  0  0  0  0  0  0  0  0  0  0
  142.3790   80.2210  223.1150 C   0  0  0  0  0  0  0  0  0  0  0  0
  142.3380   79.1310  222.2300 C   0  0  0  0  0  0  0  0  0  0  0  0
  141.1370   78.4350  222.0800 C   0  0  0  0  0  0  0  0  0  0  0  0
  140.8990   77.2460  221.2300 C   0  0  0  0  0  0  0  0  0  0  0  0
  140.9270   72.4160  220.4530 C   0  0  0  0  0  0  0  0  0  0  0  0
  142.3750   72.3210  219.9730 C   0  0  0  0  0  0  0  0  0  0  0  0
  146.1738   73.3621  222.4411 H   0  0  0  0  0  0  0  0  0  0  0  0
  146.2163   72.2065  221.0665 H   0  0  0  0  0  0  0  0  0  0  0  0
  147.2958   73.6423  221.0665 H   0  0  0  0  0  0  0  0  0  0  0  0
  144.2943   74.0184  221.2235 H   0  0  0  0  0  0  0  0  0  0  0  0
  145.5915   75.1099  220.5517 H   0  0  0  0  0  0  0  0  0  0  0  0
  143.0848   76.0449  220.1045 H   0  0  0  0  0  0  0  0  0  0  0  0
  142.6692   78.3693  219.2974 H   0  0  0  0  0  0  0  0  0  0  0  0
  142.8681   78.9049  216.8660 H   0  0  0  0  0  0  0  0  0  0  0  0
  143.5005   77.1168  215.2397 H   0  0  0  0  0  0  0  0  0  0  0  0
  143.9148   74.7888  216.0406 H   0  0  0  0  0  0  0  0  0  0  0  0
  142.8914   72.0991  217.8967 H   0  0  0  0  0  0  0  0  0  0  0  0
  141.5682   74.1053  217.0503 H   0  0  0  0  0  0  0  0  0  0  0  0
  140.6845   72.6062  217.6152 H   0  0  0  0  0  0  0  0  0  0  0  0
  140.8235   75.3449  218.8957 H   0  0  0  0  0  0  0  0  0  0  0  0
  139.3906   74.3053  218.4931 H   0  0  0  0  0  0  0  0  0  0  0  0
  138.3210   75.3335  220.5624 H   0  0  0  0  0  0  0  0  0  0  0  0
  137.9590   74.2550  222.7050 H   0  0  0  0  0  0  0  0  0  0  0  0
  138.7960   75.4840  223.4780 H   0  0  0  0  0  0  0  0  0  0  0  0
  138.8808   77.3691  220.3764 H   0  0  0  0  0  0  0  0  0  0  0  0
  137.9757   78.4694  222.2374 H   0  0  0  0  0  0  0  0  0  0  0  0
  138.5868   77.2829  223.3764 H   0  0  0  0  0  0  0  0  0  0  0  0
  139.1326   80.1463  224.2410 H   0  0  0  0  0  0  0  0  0  0  0  0
  141.2620   81.4494  224.5232 H   0  0  0  0  0  0  0  0  0  0  0  0
  143.3135   80.7863  223.2460 H   0  0  0  0  0  0  0  0  0  0  0  0
  143.2340   78.8318  221.6665 H   0  0  0  0  0  0  0  0  0  0  0  0
  141.2176   77.4341  220.1941 H   0  0  0  0  0  0  0  0  0  0  0  0
  141.4649   76.3634  221.5629 H   0  0  0  0  0  0  0  0  0  0  0  0
  140.8811   72.1796  221.5263 H   0  0  0  0  0  0  0  0  0  0  0  0
  140.3088   71.7006  219.8909 H   0  0  0  0  0  0  0  0  0  0  0  0
  143.0158   72.8610  220.6856 H   0  0  0  0  0  0  0  0  0  0  0  0
  142.6311   71.2528  219.9150 H   0  0  0  0  0  0  0  0  0  0  0  0
  1  2  1  0
  2  3  1  0
  3  4  2  0
  3  5  1  0
  5  6  1  0
  6  7  2  0
  7  8  1  0
  8  9  2  0
  9 10  1  0
 10 11  2  0
  5 12  1  0
 12 13  1  0
 13 14  1  0
 14 15  1  0
 15 16  1  0
 16 17  2  0
 16 18  1  0
 18 19  1  0
 18 20  1  0
 20 21  1  0
 21 22  1  0
 22 23  2  0
 23 24  1  0
 24 25  2  0
 25 26  1  0
 26 27  2  0
 27 28  1  0
 15 29  1  0
 29 30  1  0
 11  6  1  0
 30 12  1  0
 28 20  1  0
 27 22  1  0
  1 31  1  0
  1 32  1  0
  1 33  1  0
  2 34  1  0
  2 35  1  0
  7 36  1  0
  8 37  1  0
  9 38  1  0
 10 39  1  0
 11 40  1  0
 12 41  1  0
 13 42  1  0
 13 43  1  0
 14 44  1  0
 14 45  1  0
 18 46  1  6
 19 47  1  0
 19 48  1  0
 20 49  1  0
 21 50  1  0
 21 51  1  0
 23 52  1  0
 24 53  1  0
 25 54  1  0
 26 55  1  0
 28 56  1  0
 28 57  1  0
 29 58  1  0
 29 59  1  0
 30 60  1  0
 30 61  1  0
M  END
>  <UniqueID>  (51) 
45

>  <SMILES>  (51) 
CCC(=O)N(c1ccccc1)C1CCN(C(=O)[C@@H](N)C2Cc3ccccc3C2)CC1

>  <Energy>  (51) 
82.87778324178905

>  <Genealogy>  (51) 
CCC(=O)N(c1ccccc1)C1CCN(C(=O)[C@@H](N)C2Cc3ccccc3C2)CC1 (3D coordinates assigned)
CCC(=O)N(c1ccccc1)C1CCN(C(=O)[C@@H](N)C2Cc3ccccc3C2)CC1 (nonaromatic ring conformer: 82.87778324178905 kcal/mol)

>  <smiles>  (51) 
CCC(=O)N(c1ccccc1)C1CCN(C(=O)[C@@H](N)C2Cc3ccccc3C2)CC1

>  <score_type>  (51) 
oracle

>  <origin>  (51) 
autodockgpu

>  <m_score__min__energy>  (51) 
-8.0500000000000007

>  <m_primary>  (51) 
energy

>  <meeko>  (51) 
{"free_energy": -7.9, "intermolecular_energy": -9.99, "internal_energy": -2.62, "cluster_size": 11, "cluster_id": 1, "rank_in_cluster": 8}

>  <energy>  (51) 
-7.69

>  <cluster_rmsd>  (51) 
0.67

>  <rmsd>  (51) 
271.64

>  <cluster>  (51) 
1

$$$$
MCZRVQBLWAUNOI-DEOSSOPVNA-N
     RDKit          3D

 61 64  0  0  0  0  0  0  0  0999 V2000
  146.6590   73.4090  221.6820 C   0  0  0  0  0  0  0  0  0  0  0  0
  145.2250   73.3920  221.1550 C   0  0  0  0  0  0  0  0  0  0  0  0
  145.1470   73.3170  219.6470 C   0  0  0  0  0  0  0  0  0  0  0  0
  146.1610   72.9470  218.9900 O   0  0  0  0  0  0  0  0  0  0  0  0
  143.9160   73.6210  218.9520 N   0  0  0  0  0  0  0  0  0  0  0  0
  143.5960   74.9960  218.6780 C   0  0  0  0  0  0  0  0  0  0  0  0
  143.2330   75.8640  219.7200 C   0  0  0  0  0  0  0  0  0  0  0  0
  142.8970   77.1930  219.4420 C   0  0  0  0  0  0  0  0  0  0  0  0
  142.9360   77.6640  218.1260 C   0  0  0  0  0  0  0  0  0  0  0  0
  143.3200   76.8110  217.0880 C   0  0  0  0  0  0  0  0  0  0  0  0
  143.6560   75.4810  217.3620 C   0  0  0  0  0  0  0  0  0  0  0  0
  142.9160   72.5490  218.7290 C   0  0  0  0  0  0  0  0  0  0  0  0
  141.6690   73.0290  217.9340 C   0  0  0  0  0  0  0  0  0  0  0  0
  140.6080   73.7300  218.8050 C   0  0  0  0  0  0  0  0  0  0  0  0
  140.4710   73.0960  220.1240 N   0  0  0  0  0  0  0  0  0  0  0  0
  139.9880   73.8520  221.2520 C   0  0  0  0  0  0  0  0  0  0  0  0
  140.6360   73.8230  222.3330 O   0  0  0  0  0  0  0  0  0  0  0  0
  138.7070   74.6520  221.1970 C   0  0  1  0  0  0  0  0  0  0  0  0
  137.8510   74.3040  222.3360 N   0  0  0  0  0  0  0  0  0  0  0  0
  138.9800   76.1790  221.1120 C   0  0  0  0  0  0  0  0  0  0  0  0
  138.1360   76.9980  222.1220 C   0  0  0  0  0  0  0  0  0  0  0  0
  139.0880   78.0150  222.6270 C   0  0  0  0  0  0  0  0  0  0  0  0
  138.7910   79.1050  223.4500 C   0  0  0  0  0  0  0  0  0  0  0  0
  139.8370   79.9470  223.8560 C   0  0  0  0  0  0  0  0  0  0  0  0
  141.1570   79.6820  223.4460 C   0  0  0  0  0  0  0  0  0  0  0  0
  141.4330   78.5780  222.6240 C   0  0  0  0  0  0  0  0  0  0  0  0
  140.3750   77.7600  222.2230 C   0  0  0  0  0  0  0  0  0  0  0  0
  140.4620   76.5380  221.3910 C   0  0  0  0  0  0  0  0  0  0  0  0
  141.0650   71.7740  220.3410 C   0  0  0  0  0  0  0  0  0  0  0  0
  142.5680   71.8350  220.0640 C   0  0  0  0  0  0  0  0  0  0  0  0
  146.6454   73.4088  222.7819 H   0  0  0  0  0  0  0  0  0  0  0  0
  147.1926   72.5171  221.3218 H   0  0  0  0  0  0  0  0  0  0  0  0
  147.1713   74.3133  221.3218 H   0  0  0  0  0  0  0  0  0  0  0  0
  144.7079   72.5172  221.5760 H   0  0  0  0  0  0  0  0  0  0  0  0
  144.7525   74.3371  221.4608 H   0  0  0  0  0  0  0  0  0  0  0  0
  143.2128   75.4982  220.7572 H   0  0  0  0  0  0  0  0  0  0  0  0
  142.6020   77.8679  220.2590 H   0  0  0  0  0  0  0  0  0  0  0  0
  142.6641   78.7072  217.9076 H   0  0  0  0  0  0  0  0  0  0  0  0
  143.3581   77.1857  216.0545 H   0  0  0  0  0  0  0  0  0  0  0  0
  143.9678   74.8140  216.5448 H   0  0  0  0  0  0  0  0  0  0  0  0
  143.3786   71.7966  218.0734 H   0  0  0  0  0  0  0  0  0  0  0  0
  142.0024   73.7344  217.1587 H   0  0  0  0  0  0  0  0  0  0  0  0
  141.1940   72.1317  217.5106 H   0  0  0  0  0  0  0  0  0  0  0  0
  140.9015   74.7808  218.9450 H   0  0  0  0  0  0  0  0  0  0  0  0
  139.6398   73.6523  218.2888 H   0  0  0  0  0  0  0  0  0  0  0  0
  138.1712   74.3885  220.2731 H   0  0  0  0  0  0  0  0  0  0  0  0
  138.1590   73.3980  222.7570 H   0  0  0  0  0  0  0  0  0  0  0  0
  137.9660   75.0310  223.0790 H   0  0  0  0  0  0  0  0  0  0  0  0
  138.7051   76.4389  220.0791 H   0  0  0  0  0  0  0  0  0  0  0  0
  137.2798   77.4751  221.6226 H   0  0  0  0  0  0  0  0  0  0  0  0
  137.7078   76.3779  222.9233 H   0  0  0  0  0  0  0  0  0  0  0  0
  137.7575   79.2988  223.7729 H   0  0  0  0  0  0  0  0  0  0  0  0
  139.6251   80.8161  224.4961 H   0  0  0  0  0  0  0  0  0  0  0  0
  141.9749   80.3420  223.7706 H   0  0  0  0  0  0  0  0  0  0  0  0
  142.4624   78.3617  222.3022 H   0  0  0  0  0  0  0  0  0  0  0  0
  141.0004   76.7392  220.4531 H   0  0  0  0  0  0  0  0  0  0  0  0
  141.0128   75.7238  221.8846 H   0  0  0  0  0  0  0  0  0  0  0  0
  140.8971   71.4638  221.3829 H   0  0  0  0  0  0  0  0  0  0  0  0
  140.5974   71.0473  219.6605 H   0  0  0  0  0  0  0  0  0  0  0  0
  143.0535   72.3784  220.8880 H   0  0  0  0  0  0  0  0  0  0  0  0
  142.9278   70.7986  219.9837 H   0  0  0  0  0  0  0  0  0  0  0  0
  1  2  1  0
  2  3  1  0
  3  4  2  0
  3  5  1  0
  5  6  1  0
  6  7  2  0
  7  8  1  0
  8  9  2  0
  9 10  1  0
 10 11  2  0
  5 12  1  0
 12 13  1  0
 13 14  1  0
 14 15  1  0
 15 16  1  0
 16 17  2  0
 16 18  1  0
 18 19  1  0
 18 20  1  0
 20 21  1  0
 21 22  1  0
 22 23  2  0
 23 24  1  0
 24 25  2  0
 25 26  1  0
 26 27  2  0
 27 28  1  0
 15 29  1  0
 29 30  1  0
 11  6  1  0
 30 12  1  0
 28 20  1  0
 27 22  1  0
  1 31  1  0
  1 32  1  0
  1 33  1  0
  2 34  1  0
  2 35  1  0
  7 36  1  0
  8 37  1  0
  9 38  1  0
 10 39  1  0
 11 40  1  0
 12 41  1  0
 13 42  1  0
 13 43  1  0
 14 44  1  0
 14 45  1  0
 18 46  1  6
 19 47  1  0
 19 48  1  0
 20 49  1  0
 21 50  1  0
 21 51  1  0
 23 52  1  0
 24 53  1  0
 25 54  1  0
 26 55  1  0
 28 56  1  0
 28 57  1  0
 29 58  1  0
 29 59  1  0
 30 60  1  0
 30 61  1  0
M  END
>  <UniqueID>  (52) 
45

>  <SMILES>  (52) 
CCC(=O)N(c1ccccc1)C1CCN(C(=O)[C@@H](N)C2Cc3ccccc3C2)CC1

>  <Energy>  (52) 
82.87778324178905

>  <Genealogy>  (52) 
CCC(=O)N(c1ccccc1)C1CCN(C(=O)[C@@H](N)C2Cc3ccccc3C2)CC1 (3D coordinates assigned)
CCC(=O)N(c1ccccc1)C1CCN(C(=O)[C@@H](N)C2Cc3ccccc3C2)CC1 (nonaromatic ring conformer: 82.87778324178905 kcal/mol)

>  <smiles>  (52) 
CCC(=O)N(c1ccccc1)C1CCN(C(=O)[C@@H](N)C2Cc3ccccc3C2)CC1

>  <score_type>  (52) 
oracle

>  <origin>  (52) 
autodockgpu

>  <m_score__min__energy>  (52) 
-8.0500000000000007

>  <m_primary>  (52) 
energy

>  <meeko>  (52) 
{"free_energy": -8.05, "intermolecular_energy": -10.14, "internal_energy": -2.58, "cluster_size": 11, "cluster_id": 1, "rank_in_cluster": 1}

>  <energy>  (52) 
-7.31

>  <cluster_rmsd>  (52) 
0.0

>  <rmsd>  (52) 
271.88

>  <cluster>  (52) 
2

$$$$
MCZRVQBLWAUNOI-DEOSSOPVNA-N
     RDKit          3D

 61 64  0  0  0  0  0  0  0  0999 V2000
  146.3530   73.3060  221.7020 C   0  0  0  0  0  0  0  0  0  0  0  0
  145.3840   74.1100  220.8360 C   0  0  0  0  0  0  0  0  0  0  0  0
  145.0880   73.4510  219.5080 C   0  0  0  0  0  0  0  0  0  0  0  0
  145.9120   72.6220  219.0280 O   0  0  0  0  0  0  0  0  0  0  0  0
  143.8550   73.7230  218.8030 N   0  0  0  0  0  0  0  0  0  0  0  0
  143.5560   75.0780  218.4270 C   0  0  0  0  0  0  0  0  0  0  0  0
  143.1730   76.0190  219.3960 C   0  0  0  0  0  0  0  0  0  0  0  0
  142.8580   77.3280  219.0180 C   0  0  0  0  0  0  0  0  0  0  0  0
  142.9400   77.7080  217.6750 C   0  0  0  0  0  0  0  0  0  0  0  0
  143.3450   76.7820  216.7090 C   0  0  0  0  0  0  0  0  0  0  0  0
  143.6590   75.4720  217.0830 C   0  0  0  0  0  0  0  0  0  0  0  0
  142.8330   72.6560  218.6730 C   0  0  0  0  0  0  0  0  0  0  0  0
  141.5580   73.1160  217.9130 C   0  0  0  0  0  0  0  0  0  0  0  0
  140.5450   73.8710  218.7970 C   0  0  0  0  0  0  0  0  0  0  0  0
  140.4590   73.2990  220.1480 N   0  0  0  0  0  0  0  0  0  0  0  0
  140.0360   74.1120  221.2600 C   0  0  0  0  0  0  0  0  0  0  0  0
  140.7300   74.1230  222.3120 O   0  0  0  0  0  0  0  0  0  0  0  0
  138.7630   74.9270  221.2240 C   0  0  1  0  0  0  0  0  0  0  0  0
  137.9160   74.5820  222.3720 N   0  0  0  0  0  0  0  0  0  0  0  0
  139.0520   76.4510  221.1470 C   0  0  0  0  0  0  0  0  0  0  0  0
  138.4270   77.2430  222.3230 C   0  0  0  0  0  0  0  0  0  0  0  0
  139.4790   78.2230  222.6800 C   0  0  0  0  0  0  0  0  0  0  0  0
  139.3630   79.2840  223.5830 C   0  0  0  0  0  0  0  0  0  0  0  0
  140.4860   80.0920  223.8200 C   0  0  0  0  0  0  0  0  0  0  0  0
  141.7020   79.8220  223.1650 C   0  0  0  0  0  0  0  0  0  0  0  0
  141.7960   78.7460  222.2670 C   0  0  0  0  0  0  0  0  0  0  0  0
  140.6630   77.9640  222.0380 C   0  0  0  0  0  0  0  0  0  0  0  0
  140.5680   76.7740  221.1610 C   0  0  0  0  0  0  0  0  0  0  0  0
  141.0470   71.9800  220.3990 C   0  0  0  0  0  0  0  0  0  0  0  0
  142.5360   72.0080  220.0540 C   0  0  0  0  0  0  0  0  0  0  0  0
  146.1332   73.4884  222.7643 H   0  0  0  0  0  0  0  0  0  0  0  0
  146.2381   72.2343  221.4825 H   0  0  0  0  0  0  0  0  0  0  0  0
  147.3851   73.6166  221.4825 H   0  0  0  0  0  0  0  0  0  0  0  0
  144.4389   74.2287  221.3862 H   0  0  0  0  0  0  0  0  0  0  0  0
  145.8610   75.0779  220.6225 H   0  0  0  0  0  0  0  0  0  0  0  0
  143.1206   75.7259  220.4549 H   0  0  0  0  0  0  0  0  0  0  0  0
  142.5454   78.0593  219.7779 H   0  0  0  0  0  0  0  0  0  0  0  0
  142.6857   78.7362  217.3782 H   0  0  0  0  0  0  0  0  0  0  0  0
  143.4167   77.0844  215.6538 H   0  0  0  0  0  0  0  0  0  0  0  0
  143.9875   74.7481  216.3227 H   0  0  0  0  0  0  0  0  0  0  0  0
  143.2572   71.8689  218.0323 H   0  0  0  0  0  0  0  0  0  0  0  0
  141.8646   73.7805  217.0918 H   0  0  0  0  0  0  0  0  0  0  0  0
  141.0540   72.2069  217.5531 H   0  0  0  0  0  0  0  0  0  0  0  0
  140.8573   74.9228  218.8760 H   0  0  0  0  0  0  0  0  0  0  0  0
  139.5539   73.7842  218.3278 H   0  0  0  0  0  0  0  0  0  0  0  0
  138.2147   74.6751  220.3043 H   0  0  0  0  0  0  0  0  0  0  0  0
  138.1580   73.6280  222.7250 H   0  0  0  0  0  0  0  0  0  0  0  0
  138.1170   75.2470  223.1520 H   0  0  0  0  0  0  0  0  0  0  0  0
  138.5984   76.7566  220.1926 H   0  0  0  0  0  0  0  0  0  0  0  0
  137.5054   77.7536  222.0070 H   0  0  0  0  0  0  0  0  0  0  0  0
  138.1382   76.5991  223.1668 H   0  0  0  0  0  0  0  0  0  0  0  0
  138.4109   79.4816  224.0973 H   0  0  0  0  0  0  0  0  0  0  0  0
  140.4155   80.9382  224.5193 H   0  0  0  0  0  0  0  0  0  0  0  0
  142.5809   80.4551  223.3567 H   0  0  0  0  0  0  0  0  0  0  0  0
  142.7437   78.5242  221.7545 H   0  0  0  0  0  0  0  0  0  0  0  0
  140.9300   77.0030  220.1478 H   0  0  0  0  0  0  0  0  0  0  0  0
  141.1809   75.9321  221.5153 H   0  0  0  0  0  0  0  0  0  0  0  0
  140.9220   71.7195  221.4604 H   0  0  0  0  0  0  0  0  0  0  0  0
  140.5412   71.2297  219.7735 H   0  0  0  0  0  0  0  0  0  0  0  0
  143.0638   72.5817  220.8300 H   0  0  0  0  0  0  0  0  0  0  0  0
  142.8798   70.9642  220.0057 H   0  0  0  0  0  0  0  0  0  0  0  0
  1  2  1  0
  2  3  1  0
  3  4  2  0
  3  5  1  0
  5  6  1  0
  6  7  2  0
  7  8  1  0
  8  9  2  0
  9 10  1  0
 10 11  2  0
  5 12  1  0
 12 13  1  0
 13 14  1  0
 14 15  1  0
 15 16  1  0
 16 17  2  0
 16 18  1  0
 18 19  1  0
 18 20  1  0
 20 21  1  0
 21 22  1  0
 22 23  2  0
 23 24  1  0
 24 25  2  0
 25 26  1  0
 26 27  2  0
 27 28  1  0
 15 29  1  0
 29 30  1  0
 11  6  1  0
 30 12  1  0
 28 20  1  0
 27 22  1  0
  1 31  1  0
  1 32  1  0
  1 33  1  0
  2 34  1  0
  2 35  1  0
  7 36  1  0
  8 37  1  0
  9 38  1  0
 10 39  1  0
 11 40  1  0
 12 41  1  0
 13 42  1  0
 13 43  1  0
 14 44  1  0
 14 45  1  0
 18 46  1  6
 19 47  1  0
 19 48  1  0
 20 49  1  0
 21 50  1  0
 21 51  1  0
 23 52  1  0
 24 53  1  0
 25 54  1  0
 26 55  1  0
 28 56  1  0
 28 57  1  0
 29 58  1  0
 29 59  1  0
 30 60  1  0
 30 61  1  0
M  END
>  <UniqueID>  (53) 
45

>  <SMILES>  (53) 
CCC(=O)N(c1ccccc1)C1CCN(C(=O)[C@@H](N)C2Cc3ccccc3C2)CC1

>  <Energy>  (53) 
82.87778324178905

>  <Genealogy>  (53) 
CCC(=O)N(c1ccccc1)C1CCN(C(=O)[C@@H](N)C2Cc3ccccc3C2)CC1 (3D coordinates assigned)
CCC(=O)N(c1ccccc1)C1CCN(C(=O)[C@@H](N)C2Cc3ccccc3C2)CC1 (nonaromatic ring conformer: 82.87778324178905 kcal/mol)

>  <smiles>  (53) 
CCC(=O)N(c1ccccc1)C1CCN(C(=O)[C@@H](N)C2Cc3ccccc3C2)CC1

>  <score_type>  (53) 
oracle

>  <origin>  (53) 
autodockgpu

>  <m_score__min__energy>  (53) 
-8.0500000000000007

>  <m_primary>  (53) 
energy

>  <meeko>  (53) 
{"free_energy": -8.04, "intermolecular_energy": -10.13, "internal_energy": -2.55, "cluster_size": 11, "cluster_id": 1, "rank_in_cluster": 2}

>  <energy>  (53) 
-7.31

>  <cluster_rmsd>  (53) 
0.04

>  <rmsd>  (53) 
271.88

>  <cluster>  (53) 
2

$$$$
MCZRVQBLWAUNOI-DEOSSOPVNA-N
     RDKit          3D

 61 64  0  0  0  0  0  0  0  0999 V2000
  146.6640   73.3800  221.6220 C   0  0  0  0  0  0  0  0  0  0  0  0
  145.3060   73.7740  221.0410 C   0  0  0  0  0  0  0  0  0  0  0  0
  145.1560   73.4060  219.5830 C   0  0  0  0  0  0  0  0  0  0  0  0
  146.1090   72.8300  218.9850 O   0  0  0  0  0  0  0  0  0  0  0  0
  143.9210   73.6650  218.8750 N   0  0  0  0  0  0  0  0  0  0  0  0
  143.5970   75.0200  218.5200 C   0  0  0  0  0  0  0  0  0  0  0  0
  143.6260   75.4310  217.1770 C   0  0  0  0  0  0  0  0  0  0  0  0
  143.3360   76.7570  216.8430 C   0  0  0  0  0  0  0  0  0  0  0  0
  143.0010   77.6750  217.8430 C   0  0  0  0  0  0  0  0  0  0  0  0
  142.9480   77.2650  219.1790 C   0  0  0  0  0  0  0  0  0  0  0  0
  143.2380   75.9400  219.5170 C   0  0  0  0  0  0  0  0  0  0  0  0
  142.9220   72.5800  218.7230 C   0  0  0  0  0  0  0  0  0  0  0  0
  141.6540   73.0200  217.9390 C   0  0  0  0  0  0  0  0  0  0  0  0
  140.6100   73.7530  218.8050 C   0  0  0  0  0  0  0  0  0  0  0  0
  140.5080   73.1750  220.1520 N   0  0  0  0  0  0  0  0  0  0  0  0
  140.0490   73.9770  221.2580 C   0  0  0  0  0  0  0  0  0  0  0  0
  140.7220   73.9970  222.3230 O   0  0  0  0  0  0  0  0  0  0  0  0
  138.7620   74.7680  221.2000 C   0  0  1  0  0  0  0  0  0  0  0  0
  137.9070   74.4160  222.3390 N   0  0  0  0  0  0  0  0  0  0  0  0
  139.0250   76.2970  221.1140 C   0  0  0  0  0  0  0  0  0  0  0  0
  138.4000   77.0820  222.2950 C   0  0  0  0  0  0  0  0  0  0  0  0
  139.4390   78.0810  222.6370 C   0  0  0  0  0  0  0  0  0  0  0  0
  139.3150   79.1430  223.5370 C   0  0  0  0  0  0  0  0  0  0  0  0
  140.4260   79.9700  223.7590 C   0  0  0  0  0  0  0  0  0  0  0  0
  141.6400   79.7180  223.0920 C   0  0  0  0  0  0  0  0  0  0  0  0
  141.7420   78.6410  222.1960 C   0  0  0  0  0  0  0  0  0  0  0  0
  140.6200   77.8390  221.9820 C   0  0  0  0  0  0  0  0  0  0  0  0
  140.5350   76.6440  221.1110 C   0  0  0  0  0  0  0  0  0  0  0  0
  141.1150   71.8660  220.4100 C   0  0  0  0  0  0  0  0  0  0  0  0
  142.6100   71.9220  220.0960 C   0  0  0  0  0  0  0  0  0  0  0  0
  146.6112   73.3953  222.7206 H   0  0  0  0  0  0  0  0  0  0  0  0
  146.9287   72.3680  221.2817 H   0  0  0  0  0  0  0  0  0  0  0  0
  147.4293   74.0932  221.2817 H   0  0  0  0  0  0  0  0  0  0  0  0
  144.5184   73.2628  221.6140 H   0  0  0  0  0  0  0  0  0  0  0  0
  145.2232   74.8685  221.1134 H   0  0  0  0  0  0  0  0  0  0  0  0
  143.8774   74.7081  216.3869 H   0  0  0  0  0  0  0  0  0  0  0  0
  143.3714   77.0788  215.7917 H   0  0  0  0  0  0  0  0  0  0  0  0
  142.7792   78.7195  217.5789 H   0  0  0  0  0  0  0  0  0  0  0  0
  142.6778   77.9859  219.9647 H   0  0  0  0  0  0  0  0  0  0  0  0
  143.1847   75.6176  220.5673 H   0  0  0  0  0  0  0  0  0  0  0  0
  143.3729   71.8019  218.0895 H   0  0  0  0  0  0  0  0  0  0  0  0
  141.9649   73.6932  217.1265 H   0  0  0  0  0  0  0  0  0  0  0  0
  141.1740   72.1033  217.5658 H   0  0  0  0  0  0  0  0  0  0  0  0
  140.9011   74.8101  218.8933 H   0  0  0  0  0  0  0  0  0  0  0  0
  139.6301   73.6494  218.3159 H   0  0  0  0  0  0  0  0  0  0  0  0
  138.2293   74.4992  220.2759 H   0  0  0  0  0  0  0  0  0  0  0  0
  138.1980   73.4950  222.7390 H   0  0  0  0  0  0  0  0  0  0  0  0
  138.0430   75.1250  223.0950 H   0  0  0  0  0  0  0  0  0  0  0  0
  138.5565   76.5924  220.1636 H   0  0  0  0  0  0  0  0  0  0  0  0
  137.4661   77.5757  221.9881 H   0  0  0  0  0  0  0  0  0  0  0  0
  138.1320   76.4358  223.1439 H   0  0  0  0  0  0  0  0  0  0  0  0
  138.3653   79.3266  224.0607 H   0  0  0  0  0  0  0  0  0  0  0  0
  140.3486   80.8175  224.4559 H   0  0  0  0  0  0  0  0  0  0  0  0
  142.5104   80.3658  223.2729 H   0  0  0  0  0  0  0  0  0  0  0  0
  142.6875   78.4338  221.6734 H   0  0  0  0  0  0  0  0  0  0  0  0
  140.8829   76.8744  220.0932 H   0  0  0  0  0  0  0  0  0  0  0  0
  141.1649   75.8135  221.4624 H   0  0  0  0  0  0  0  0  0  0  0  0
  140.9730   71.5989  221.4676 H   0  0  0  0  0  0  0  0  0  0  0  0
  140.6361   71.1094  219.7711 H   0  0  0  0  0  0  0  0  0  0  0  0
  143.1115   72.5027  220.8842 H   0  0  0  0  0  0  0  0  0  0  0  0
  142.9743   70.8850  220.0523 H   0  0  0  0  0  0  0  0  0  0  0  0
  1  2  1  0
  2  3  1  0
  3  4  2  0
  3  5  1  0
  5  6  1  0
  6  7  2  0
  7  8  1  0
  8  9  2  0
  9 10  1  0
 10 11  2  0
  5 12  1  0
 12 13  1  0
 13 14  1  0
 14 15  1  0
 15 16  1  0
 16 17  2  0
 16 18  1  0
 18 19  1  0
 18 20  1  0
 20 21  1  0
 21 22  1  0
 22 23  2  0
 23 24  1  0
 24 25  2  0
 25 26  1  0
 26 27  2  0
 27 28  1  0
 15 29  1  0
 29 30  1  0
 11  6  1  0
 30 12  1  0
 28 20  1  0
 27 22  1  0
  1 31  1  0
  1 32  1  0
  1 33  1  0
  2 34  1  0
  2 35  1  0
  7 36  1  0
  8 37  1  0
  9 38  1  0
 10 39  1  0
 11 40  1  0
 12 41  1  0
 13 42  1  0
 13 43  1  0
 14 44  1  0
 14 45  1  0
 18 46  1  6
 19 47  1  0
 19 48  1  0
 20 49  1  0
 21 50  1  0
 21 51  1  0
 23 52  1  0
 24 53  1  0
 25 54  1  0
 26 55  1  0
 28 56  1  0
 28 57  1  0
 29 58  1  0
 29 59  1  0
 30 60  1  0
 30 61  1  0
M  END
>  <UniqueID>  (54) 
45

>  <SMILES>  (54) 
CCC(=O)N(c1ccccc1)C1CCN(C(=O)[C@@H](N)C2Cc3ccccc3C2)CC1

>  <Energy>  (54) 
82.87778324178905

>  <Genealogy>  (54) 
CCC(=O)N(c1ccccc1)C1CCN(C(=O)[C@@H](N)C2Cc3ccccc3C2)CC1 (3D coordinates assigned)
CCC(=O)N(c1ccccc1)C1CCN(C(=O)[C@@H](N)C2Cc3ccccc3C2)CC1 (nonaromatic ring conformer: 82.87778324178905 kcal/mol)

>  <smiles>  (54) 
CCC(=O)N(c1ccccc1)C1CCN(C(=O)[C@@H](N)C2Cc3ccccc3C2)CC1

>  <score_type>  (54) 
oracle

>  <origin>  (54) 
autodockgpu

>  <m_score__min__energy>  (54) 
-8.0500000000000007

>  <m_primary>  (54) 
energy

>  <meeko>  (54) 
{"free_energy": -8.01, "intermolecular_energy": -10.1, "internal_energy": -2.55, "cluster_size": 11, "cluster_id": 1, "rank_in_cluster": 5}

>  <energy>  (54) 
-7.3

>  <cluster_rmsd>  (54) 
0.07

>  <rmsd>  (54) 
271.87

>  <cluster>  (54) 
2

$$$$
MCZRVQBLWAUNOI-DEOSSOPVNA-N
     RDKit          3D

 61 64  0  0  0  0  0  0  0  0999 V2000
  142.7690   72.8790  220.5600 C   0  0  0  0  0  0  0  0  0  0  0  0
  142.0590   74.2130  220.7880 C   0  0  0  0  0  0  0  0  0  0  0  0
  140.7910   74.0790  221.6010 C   0  0  0  0  0  0  0  0  0  0  0  0
  140.7210   73.1980  222.5040 O   0  0  0  0  0  0  0  0  0  0  0  0
  139.6750   74.9740  221.3880 N   0  0  0  0  0  0  0  0  0  0  0  0
  139.7130   76.2830  221.9820 C   0  0  0  0  0  0  0  0  0  0  0  0
  138.5230   76.9770  222.2530 C   0  0  0  0  0  0  0  0  0  0  0  0
  138.5690   78.2600  222.8060 C   0  0  0  0  0  0  0  0  0  0  0  0
  139.8000   78.8490  223.1060 C   0  0  0  0  0  0  0  0  0  0  0  0
  140.9880   78.1530  222.8610 C   0  0  0  0  0  0  0  0  0  0  0  0
  140.9450   76.8700  222.3070 C   0  0  0  0  0  0  0  0  0  0  0  0
  138.4350   74.4620  220.7550 C   0  0  0  0  0  0  0  0  0  0  0  0
  137.3590   74.0180  221.7850 C   0  0  0  0  0  0  0  0  0  0  0  0
  137.5740   72.5950  222.3360 C   0  0  0  0  0  0  0  0  0  0  0  0
  138.0610   71.6710  221.3020 N   0  0  0  0  0  0  0  0  0  0  0  0
  138.8260   70.5050  221.6650 C   0  0  0  0  0  0  0  0  0  0  0  0
  139.9140   70.2750  221.0740 O   0  0  0  0  0  0  0  0  0  0  0  0
  138.3480   69.5220  222.7100 C   0  0  1  0  0  0  0  0  0  0  0  0
  139.1530   68.2960  222.6480 N   0  0  0  0  0  0  0  0  0  0  0  0
  138.3380   70.1460  224.1320 C   0  0  0  0  0  0  0  0  0  0  0  0
  138.4320   69.0830  225.2560 C   0  0  0  0  0  0  0  0  0  0  0  0
  139.3560   69.6960  226.2380 C   0  0  0  0  0  0  0  0  0  0  0  0
  139.6610   69.2160  227.5150 C   0  0  0  0  0  0  0  0  0  0  0  0
  140.5930   69.9180  228.2940 C   0  0  0  0  0  0  0  0  0  0  0  0
  141.2110   71.0750  227.7850 C   0  0  0  0  0  0  0  0  0  0  0  0
  140.8940   71.5360  226.4960 C   0  0  0  0  0  0  0  0  0  0  0  0
  139.9550   70.8280  225.7440 C   0  0  0  0  0  0  0  0  0  0  0  0
  139.5140   71.1280  224.3620 C   0  0  0  0  0  0  0  0  0  0  0  0
  137.9860   72.0770  219.8960 C   0  0  0  0  0  0  0  0  0  0  0  0
  138.7670   73.3760  219.6930 C   0  0  0  0  0  0  0  0  0  0  0  0
  143.0120   72.4224  221.5308 H   0  0  0  0  0  0  0  0  0  0  0  0
  142.1102   72.2053  219.9926 H   0  0  0  0  0  0  0  0  0  0  0  0
  143.6958   73.0492  219.9926 H   0  0  0  0  0  0  0  0  0  0  0  0
  142.7456   74.8887  221.3191 H   0  0  0  0  0  0  0  0  0  0  0  0
  141.7755   74.6065  219.8007 H   0  0  0  0  0  0  0  0  0  0  0  0
  137.5524   76.5101  222.0297 H   0  0  0  0  0  0  0  0  0  0  0  0
  137.6353   78.8064  223.0051 H   0  0  0  0  0  0  0  0  0  0  0  0
  139.8347   79.8612  223.5353 H   0  0  0  0  0  0  0  0  0  0  0  0
  141.9562   78.6149  223.1041 H   0  0  0  0  0  0  0  0  0  0  0  0
  141.8798   76.3193  222.1255 H   0  0  0  0  0  0  0  0  0  0  0  0
  137.9657   75.3015  220.2211 H   0  0  0  0  0  0  0  0  0  0  0  0
  137.3756   74.7228  222.6293 H   0  0  0  0  0  0  0  0  0  0  0  0
  136.3935   74.0146  221.2578 H   0  0  0  0  0  0  0  0  0  0  0  0
  138.3123   72.6375  223.1503 H   0  0  0  0  0  0  0  0  0  0  0  0
  136.6045   72.2205  222.6964 H   0  0  0  0  0  0  0  0  0  0  0  0
  137.3035   69.2582  222.4879 H   0  0  0  0  0  0  0  0  0  0  0  0
  139.6490   68.2360  221.7300 H   0  0  0  0  0  0  0  0  0  0  0  0
  139.8930   68.3410  223.3840 H   0  0  0  0  0  0  0  0  0  0  0  0
  137.3748   70.6751  224.1810 H   0  0  0  0  0  0  0  0  0  0  0  0
  137.4454   68.8993  225.7065 H   0  0  0  0  0  0  0  0  0  0  0  0
  138.7817   68.1056  224.8921 H   0  0  0  0  0  0  0  0  0  0  0  0
  139.1796   68.3056  227.9016 H   0  0  0  0  0  0  0  0  0  0  0  0
  140.8412   69.5630  229.3051 H   0  0  0  0  0  0  0  0  0  0  0  0
  141.9442   71.6201  228.3977 H   0  0  0  0  0  0  0  0  0  0  0  0
  141.3760   72.4366  226.0878 H   0  0  0  0  0  0  0  0  0  0  0  0
  139.1767   72.1714  224.2754 H   0  0  0  0  0  0  0  0  0  0  0  0
  140.3193   71.0103  223.6220 H   0  0  0  0  0  0  0  0  0  0  0  0
  138.4185   71.2876  219.2637 H   0  0  0  0  0  0  0  0  0  0  0  0
  136.9337   72.2371  219.6184 H   0  0  0  0  0  0  0  0  0  0  0  0
  139.8421   73.1499  219.7483 H   0  0  0  0  0  0  0  0  0  0  0  0
  138.4800   73.7802  218.7110 H   0  0  0  0  0  0  0  0  0  0  0  0
  1  2  1  0
  2  3  1  0
  3  4  2  0
  3  5  1  0
  5  6  1  0
  6  7  2  0
  7  8  1  0
  8  9  2  0
  9 10  1  0
 10 11  2  0
  5 12  1  0
 12 13  1  0
 13 14  1  0
 14 15  1  0
 15 16  1  0
 16 17  2  0
 16 18  1  0
 18 19  1  0
 18 20  1  0
 20 21  1  0
 21 22  1  0
 22 23  2  0
 23 24  1  0
 24 25  2  0
 25 26  1  0
 26 27  2  0
 27 28  1  0
 15 29  1  0
 29 30  1  0
 11  6  1  0
 30 12  1  0
 28 20  1  0
 27 22  1  0
  1 31  1  0
  1 32  1  0
  1 33  1  0
  2 34  1  0
  2 35  1  0
  7 36  1  0
  8 37  1  0
  9 38  1  0
 10 39  1  0
 11 40  1  0
 12 41  1  0
 13 42  1  0
 13 43  1  0
 14 44  1  0
 14 45  1  0
 18 46  1  6
 19 47  1  0
 19 48  1  0
 20 49  1  0
 21 50  1  0
 21 51  1  0
 23 52  1  0
 24 53  1  0
 25 54  1  0
 26 55  1  0
 28 56  1  0
 28 57  1  0
 29 58  1  0
 29 59  1  0
 30 60  1  0
 30 61  1  0
M  END
>  <UniqueID>  (55) 
45

>  <SMILES>  (55) 
CCC(=O)N(c1ccccc1)C1CCN(C(=O)[C@@H](N)C2Cc3ccccc3C2)CC1

>  <Energy>  (55) 
82.87778324178905

>  <Genealogy>  (55) 
CCC(=O)N(c1ccccc1)C1CCN(C(=O)[C@@H](N)C2Cc3ccccc3C2)CC1 (3D coordinates assigned)
CCC(=O)N(c1ccccc1)C1CCN(C(=O)[C@@H](N)C2Cc3ccccc3C2)CC1 (nonaromatic ring conformer: 82.87778324178905 kcal/mol)

>  <smiles>  (55) 
CCC(=O)N(c1ccccc1)C1CCN(C(=O)[C@@H](N)C2Cc3ccccc3C2)CC1

>  <score_type>  (55) 
oracle

>  <origin>  (55) 
autodockgpu

>  <m_score__min__energy>  (55) 
-8.0500000000000007

>  <m_primary>  (55) 
energy

>  <meeko>  (55) 
{"free_energy": -7.1, "intermolecular_energy": -9.18, "internal_energy": -2.75, "cluster_size": 1, "cluster_id": 3, "rank_in_cluster": 1}

>  <energy>  (55) 
-7.29

>  <cluster_rmsd>  (55) 
0.03

>  <rmsd>  (55) 
271.88

>  <cluster>  (55) 
2

$$$$
MCZRVQBLWAUNOI-DEOSSOPVNA-N
     RDKit          3D

 61 64  0  0  0  0  0  0  0  0999 V2000
  138.0720   78.3130  222.6580 C   0  0  0  0  0  0  0  0  0  0  0  0
  137.3610   79.5440  223.2180 C   0  0  0  0  0  0  0  0  0  0  0  0
  138.3070   80.6760  223.5490 C   0  0  0  0  0  0  0  0  0  0  0  0
  138.2410   81.2320  224.6820 O   0  0  0  0  0  0  0  0  0  0  0  0
  139.3140   81.1020  222.6020 N   0  0  0  0  0  0  0  0  0  0  0  0
  140.6670   80.6480  222.7780 C   0  0  0  0  0  0  0  0  0  0  0  0
  141.5100   81.2680  223.7140 C   0  0  0  0  0  0  0  0  0  0  0  0
  142.8330   80.8380  223.8600 C   0  0  0  0  0  0  0  0  0  0  0  0
  143.3150   79.7790  223.0860 C   0  0  0  0  0  0  0  0  0  0  0  0
  142.4720   79.1420  222.1690 C   0  0  0  0  0  0  0  0  0  0  0  0
  141.1490   79.5700  222.0190 C   0  0  0  0  0  0  0  0  0  0  0  0
  138.9880   82.1550  221.6090 C   0  0  0  0  0  0  0  0  0  0  0  0
  138.1750   81.6230  220.3960 C   0  0  0  0  0  0  0  0  0  0  0  0
  139.0420   80.9690  219.3030 C   0  0  0  0  0  0  0  0  0  0  0  0
  140.3140   81.6790  219.1110 N   0  0  0  0  0  0  0  0  0  0  0  0
  141.4650   80.9880  218.5850 C   0  0  0  0  0  0  0  0  0  0  0  0
  142.5670   81.0830  219.1880 O   0  0  0  0  0  0  0  0  0  0  0  0
  141.4060   80.1790  217.3090 C   0  0  1  0  0  0  0  0  0  0  0  0
  142.5740   80.4790  216.4730 N   0  0  0  0  0  0  0  0  0  0  0  0
  141.2620   78.6590  217.5920 C   0  0  0  0  0  0  0  0  0  0  0  0
  142.6280   77.9330  217.6930 C   0  0  0  0  0  0  0  0  0  0  0  0
  142.4420   76.9970  218.8260 C   0  0  0  0  0  0  0  0  0  0  0  0
  143.3250   75.9950  219.2370 C   0  0  0  0  0  0  0  0  0  0  0  0
  142.9920   75.2240  220.3620 C   0  0  0  0  0  0  0  0  0  0  0  0
  141.7960   75.4740  221.0610 C   0  0  0  0  0  0  0  0  0  0  0  0
  140.9270   76.4910  220.6330 C   0  0  0  0  0  0  0  0  0  0  0  0
  141.2730   77.2370  219.5040 C   0  0  0  0  0  0  0  0  0  0  0  0
  140.5150   78.3650  218.9180 C   0  0  0  0  0  0  0  0  0  0  0  0
  140.4770   83.0140  219.6930 C   0  0  0  0  0  0  0  0  0  0  0  0
  140.2650   82.9440  221.2050 C   0  0  0  0  0  0  0  0  0  0  0  0
  138.4327   77.6884  223.4885 H   0  0  0  0  0  0  0  0  0  0  0  0
  137.3698   77.7329  222.0412 H   0  0  0  0  0  0  0  0  0  0  0  0
  138.9253   78.6314  222.0412 H   0  0  0  0  0  0  0  0  0  0  0  0
  136.6368   79.9002  222.4706 H   0  0  0  0  0  0  0  0  0  0  0  0
  136.8707   79.2416  224.1551 H   0  0  0  0  0  0  0  0  0  0  0  0
  141.1294   82.0934  224.3336 H   0  0  0  0  0  0  0  0  0  0  0  0
  143.4949   81.3341  224.5851 H   0  0  0  0  0  0  0  0  0  0  0  0
  144.3575   79.4462  223.1978 H   0  0  0  0  0  0  0  0  0  0  0  0
  142.8501   78.3037  221.5654 H   0  0  0  0  0  0  0  0  0  0  0  0
  140.4849   79.0610  221.3049 H   0  0  0  0  0  0  0  0  0  0  0  0
  138.3081   82.8696  222.0960 H   0  0  0  0  0  0  0  0  0  0  0  0
  137.4562   80.8750  220.7618 H   0  0  0  0  0  0  0  0  0  0  0  0
  137.6820   82.4920  219.9357 H   0  0  0  0  0  0  0  0  0  0  0  0
  139.2557   79.9299  219.5937 H   0  0  0  0  0  0  0  0  0  0  0  0
  138.4835   81.0106  218.3562 H   0  0  0  0  0  0  0  0  0  0  0  0
  140.5025   80.4704  216.7534 H   0  0  0  0  0  0  0  0  0  0  0  0
  143.3390   80.8890  217.0550 H   0  0  0  0  0  0  0  0  0  0  0  0
  142.9450   79.5850  216.0790 H   0  0  0  0  0  0  0  0  0  0  0  0
  140.6884   78.2849  216.7312 H   0  0  0  0  0  0  0  0  0  0  0  0
  142.8520   77.3867  216.7649 H   0  0  0  0  0  0  0  0  0  0  0  0
  143.4697   78.6249  217.8439 H   0  0  0  0  0  0  0  0  0  0  0  0
  144.2621   75.8140  218.6901 H   0  0  0  0  0  0  0  0  0  0  0  0
  143.6670   74.4230  220.6979 H   0  0  0  0  0  0  0  0  0  0  0  0
  141.5412   74.8711  221.9451 H   0  0  0  0  0  0  0  0  0  0  0  0
  139.9926   76.6959  221.1761 H   0  0  0  0  0  0  0  0  0  0  0  0
  139.4709   78.0779  218.7248 H   0  0  0  0  0  0  0  0  0  0  0  0
  140.4680   79.2392  219.5840 H   0  0  0  0  0  0  0  0  0  0  0  0
  141.4914   83.3837  219.4824 H   0  0  0  0  0  0  0  0  0  0  0  0
  139.7367   83.6976  219.2518 H   0  0  0  0  0  0  0  0  0  0  0  0
  141.1381   82.4514  221.6579 H   0  0  0  0  0  0  0  0  0  0  0  0
  140.1392   83.9757  221.5653 H   0  0  0  0  0  0  0  0  0  0  0  0
  1  2  1  0
  2  3  1  0
  3  4  2  0
  3  5  1  0
  5  6  1  0
  6  7  2  0
  7  8  1  0
  8  9  2  0
  9 10  1  0
 10 11  2  0
  5 12  1  0
 12 13  1  0
 13 14  1  0
 14 15  1  0
 15 16  1  0
 16 17  2  0
 16 18  1  0
 18 19  1  0
 18 20  1  0
 20 21  1  0
 21 22  1  0
 22 23  2  0
 23 24  1  0
 24 25  2  0
 25 26  1  0
 26 27  2  0
 27 28  1  0
 15 29  1  0
 29 30  1  0
 11  6  1  0
 30 12  1  0
 28 20  1  0
 27 22  1  0
  1 31  1  0
  1 32  1  0
  1 33  1  0
  2 34  1  0
  2 35  1  0
  7 36  1  0
  8 37  1  0
  9 38  1  0
 10 39  1  0
 11 40  1  0
 12 41  1  0
 13 42  1  0
 13 43  1  0
 14 44  1  0
 14 45  1  0
 18 46  1  6
 19 47  1  0
 19 48  1  0
 20 49  1  0
 21 50  1  0
 21 51  1  0
 23 52  1  0
 24 53  1  0
 25 54  1  0
 26 55  1  0
 28 56  1  0
 28 57  1  0
 29 58  1  0
 29 59  1  0
 30 60  1  0
 30 61  1  0
M  END
>  <UniqueID>  (56) 
45

>  <SMILES>  (56) 
CCC(=O)N(c1ccccc1)C1CCN(C(=O)[C@@H](N)C2Cc3ccccc3C2)CC1

>  <Energy>  (56) 
82.87778324178905

>  <Genealogy>  (56) 
CCC(=O)N(c1ccccc1)C1CCN(C(=O)[C@@H](N)C2Cc3ccccc3C2)CC1 (3D coordinates assigned)
CCC(=O)N(c1ccccc1)C1CCN(C(=O)[C@@H](N)C2Cc3ccccc3C2)CC1 (nonaromatic ring conformer: 82.87778324178905 kcal/mol)

>  <smiles>  (56) 
CCC(=O)N(c1ccccc1)C1CCN(C(=O)[C@@H](N)C2Cc3ccccc3C2)CC1

>  <score_type>  (56) 
oracle

>  <origin>  (56) 
autodockgpu

>  <m_score__min__energy>  (56) 
-8.0500000000000007

>  <m_primary>  (56) 
energy

>  <meeko>  (56) 
{"free_energy": -6.12, "intermolecular_energy": -8.21, "internal_energy": -3.55, "cluster_size": 3, "cluster_id": 4, "rank_in_cluster": 2}

>  <energy>  (56) 
-7.29

>  <cluster_rmsd>  (56) 
0.05

>  <rmsd>  (56) 
271.88

>  <cluster>  (56) 
2

$$$$
MCZRVQBLWAUNOI-DEOSSOPVNA-N
     RDKit          3D

 61 64  0  0  0  0  0  0  0  0999 V2000
  146.5850   73.4000  221.6800 C   0  0  0  0  0  0  0  0  0  0  0  0
  145.1800   73.0900  221.1630 C   0  0  0  0  0  0  0  0  0  0  0  0
  145.0950   73.0730  219.6540 C   0  0  0  0  0  0  0  0  0  0  0  0
  146.0900   72.6850  218.9780 O   0  0  0  0  0  0  0  0  0  0  0  0
  143.8740   73.4520  218.9750 N   0  0  0  0  0  0  0  0  0  0  0  0
  143.5980   74.8490  218.7740 C   0  0  0  0  0  0  0  0  0  0  0  0
  143.2620   75.6720  219.8610 C   0  0  0  0  0  0  0  0  0  0  0  0
  142.9680   77.0230  219.6530 C   0  0  0  0  0  0  0  0  0  0  0  0
  143.0250   77.5620  218.3640 C   0  0  0  0  0  0  0  0  0  0  0  0
  143.3840   76.7520  217.2820 C   0  0  0  0  0  0  0  0  0  0  0  0
  143.6760   75.4000  217.4860 C   0  0  0  0  0  0  0  0  0  0  0  0
  142.8410   72.4250  218.6970 C   0  0  0  0  0  0  0  0  0  0  0  0
  141.6240   72.9790  217.9050 C   0  0  0  0  0  0  0  0  0  0  0  0
  140.5750   73.6830  218.7880 C   0  0  0  0  0  0  0  0  0  0  0  0
  140.3960   73.0040  220.0790 N   0  0  0  0  0  0  0  0  0  0  0  0
  139.9230   73.7330  221.2290 C   0  0  0  0  0  0  0  0  0  0  0  0
  140.5520   73.6390  222.3160 O   0  0  0  0  0  0  0  0  0  0  0  0
  138.6710   74.5800  221.1870 C   0  0  1  0  0  0  0  0  0  0  0  0
  137.8160   74.2640  222.3370 N   0  0  0  0  0  0  0  0  0  0  0  0
  138.9990   76.0950  221.0990 C   0  0  0  0  0  0  0  0  0  0  0  0
  138.1330   76.9550  222.0540 C   0  0  0  0  0  0  0  0  0  0  0  0
  139.0910   77.9480  222.5940 C   0  0  0  0  0  0  0  0  0  0  0  0
  138.7890   79.0580  223.3870 C   0  0  0  0  0  0  0  0  0  0  0  0
  139.8400   79.8710  223.8360 C   0  0  0  0  0  0  0  0  0  0  0  0
  141.1700   79.5580  223.4980 C   0  0  0  0  0  0  0  0  0  0  0  0
  141.4500   78.4330  222.7050 C   0  0  0  0  0  0  0  0  0  0  0  0
  140.3870   77.6450  222.2600 C   0  0  0  0  0  0  0  0  0  0  0  0
  140.4760   76.4090  221.4490 C   0  0  0  0  0  0  0  0  0  0  0  0
  140.9400   71.6540  220.2520 C   0  0  0  0  0  0  0  0  0  0  0  0
  142.4480   71.6720  219.9990 C   0  0  0  0  0  0  0  0  0  0  0  0
  146.5795   73.3988  222.7800 H   0  0  0  0  0  0  0  0  0  0  0  0
  147.2867   72.6351  221.3160 H   0  0  0  0  0  0  0  0  0  0  0  0
  146.8997   74.3892  221.3160 H   0  0  0  0  0  0  0  0  0  0  0  0
  144.8772   72.1028  221.5420 H   0  0  0  0  0  0  0  0  0  0  0  0
  144.5146   73.8896  221.5205 H   0  0  0  0  0  0  0  0  0  0  0  0
  143.2300   75.2532  220.8776 H   0  0  0  0  0  0  0  0  0  0  0  0
  142.6916   77.6625  220.5042 H   0  0  0  0  0  0  0  0  0  0  0  0
  142.7873   78.6236  218.2010 H   0  0  0  0  0  0  0  0  0  0  0  0
  143.4367   77.1789  216.2696 H   0  0  0  0  0  0  0  0  0  0  0  0
  143.9675   74.7670  216.6349 H   0  0  0  0  0  0  0  0  0  0  0  0
  143.2873   71.6824  218.0192 H   0  0  0  0  0  0  0  0  0  0  0  0
  141.9934   73.7016  217.1624 H   0  0  0  0  0  0  0  0  0  0  0  0
  141.1244   72.1160  217.4406 H   0  0  0  0  0  0  0  0  0  0  0  0
  140.9028   74.7166  218.9730 H   0  0  0  0  0  0  0  0  0  0  0  0
  139.6126   73.6596  218.2558 H   0  0  0  0  0  0  0  0  0  0  0  0
  138.1158   74.3364  220.2692 H   0  0  0  0  0  0  0  0  0  0  0  0
  138.1520   73.3930  222.8090 H   0  0  0  0  0  0  0  0  0  0  0  0
  137.8980   75.0330  223.0400 H   0  0  0  0  0  0  0  0  0  0  0  0
  138.7857   76.3497  220.0504 H   0  0  0  0  0  0  0  0  0  0  0  0
  137.3193   77.4522  221.5057 H   0  0  0  0  0  0  0  0  0  0  0  0
  137.6450   76.3605  222.8404 H   0  0  0  0  0  0  0  0  0  0  0  0
  137.7474   79.2897  223.6539 H   0  0  0  0  0  0  0  0  0  0  0  0
  139.6244   80.7553  224.4537 H   0  0  0  0  0  0  0  0  0  0  0  0
  141.9918   80.1957  223.8556 H   0  0  0  0  0  0  0  0  0  0  0  0
  142.4866   78.1778  222.4398 H   0  0  0  0  0  0  0  0  0  0  0  0
  141.0679   76.5792  220.5376 H   0  0  0  0  0  0  0  0  0  0  0  0
  140.9738   75.5844  221.9802 H   0  0  0  0  0  0  0  0  0  0  0  0
  140.7451   71.3096  221.2784 H   0  0  0  0  0  0  0  0  0  0  0  0
  140.4578   70.9715  219.5366 H   0  0  0  0  0  0  0  0  0  0  0  0
  142.9396   72.1655  220.8503 H   0  0  0  0  0  0  0  0  0  0  0  0
  142.7728   70.6274  219.8835 H   0  0  0  0  0  0  0  0  0  0  0  0
  1  2  1  0
  2  3  1  0
  3  4  2  0
  3  5  1  0
  5  6  1  0
  6  7  2  0
  7  8  1  0
  8  9  2  0
  9 10  1  0
 10 11  2  0
  5 12  1  0
 12 13  1  0
 13 14  1  0
 14 15  1  0
 15 16  1  0
 16 17  2  0
 16 18  1  0
 18 19  1  0
 18 20  1  0
 20 21  1  0
 21 22  1  0
 22 23  2  0
 23 24  1  0
 24 25  2  0
 25 26  1  0
 26 27  2  0
 27 28  1  0
 15 29  1  0
 29 30  1  0
 11  6  1  0
 30 12  1  0
 28 20  1  0
 27 22  1  0
  1 31  1  0
  1 32  1  0
  1 33  1  0
  2 34  1  0
  2 35  1  0
  7 36  1  0
  8 37  1  0
  9 38  1  0
 10 39  1  0
 11 40  1  0
 12 41  1  0
 13 42  1  0
 13 43  1  0
 14 44  1  0
 14 45  1  0
 18 46  1  6
 19 47  1  0
 19 48  1  0
 20 49  1  0
 21 50  1  0
 21 51  1  0
 23 52  1  0
 24 53  1  0
 25 54  1  0
 26 55  1  0
 28 56  1  0
 28 57  1  0
 29 58  1  0
 29 59  1  0
 30 60  1  0
 30 61  1  0
M  END
>  <UniqueID>  (57) 
45

>  <SMILES>  (57) 
CCC(=O)N(c1ccccc1)C1CCN(C(=O)[C@@H](N)C2Cc3ccccc3C2)CC1

>  <Energy>  (57) 
82.87778324178905

>  <Genealogy>  (57) 
CCC(=O)N(c1ccccc1)C1CCN(C(=O)[C@@H](N)C2Cc3ccccc3C2)CC1 (3D coordinates assigned)
CCC(=O)N(c1ccccc1)C1CCN(C(=O)[C@@H](N)C2Cc3ccccc3C2)CC1 (nonaromatic ring conformer: 82.87778324178905 kcal/mol)

>  <smiles>  (57) 
CCC(=O)N(c1ccccc1)C1CCN(C(=O)[C@@H](N)C2Cc3ccccc3C2)CC1

>  <score_type>  (57) 
oracle

>  <origin>  (57) 
autodockgpu

>  <m_score__min__energy>  (57) 
-8.0500000000000007

>  <m_primary>  (57) 
energy

>  <meeko>  (57) 
{"free_energy": -7.93, "intermolecular_energy": -10.01, "internal_energy": -2.65, "cluster_size": 11, "cluster_id": 1, "rank_in_cluster": 7}

>  <energy>  (57) 
-7.1

>  <cluster_rmsd>  (57) 
0.0

>  <rmsd>  (57) 
271.74

>  <cluster>  (57) 
3

$$$$
MCZRVQBLWAUNOI-DEOSSOPVNA-N
     RDKit          3D

 61 64  0  0  0  0  0  0  0  0999 V2000
  142.9520   77.1680  218.9750 C   0  0  0  0  0  0  0  0  0  0  0  0
  143.0960   76.7830  217.5020 C   0  0  0  0  0  0  0  0  0  0  0  0
  143.6400   75.3870  217.3050 C   0  0  0  0  0  0  0  0  0  0  0  0
  144.4490   75.1620  216.3600 O   0  0  0  0  0  0  0  0  0  0  0  0
  143.2810   74.3160  218.2090 N   0  0  0  0  0  0  0  0  0  0  0  0
  144.2670   73.8340  219.1380 C   0  0  0  0  0  0  0  0  0  0  0  0
  144.5230   74.5290  220.3310 C   0  0  0  0  0  0  0  0  0  0  0  0
  145.5020   74.0680  221.2150 C   0  0  0  0  0  0  0  0  0  0  0  0
  146.2190   72.9040  220.9220 C   0  0  0  0  0  0  0  0  0  0  0  0
  145.9520   72.1940  219.7480 C   0  0  0  0  0  0  0  0  0  0  0  0
  144.9740   72.6530  218.8600 C   0  0  0  0  0  0  0  0  0  0  0  0
  141.9980   73.5970  218.0210 C   0  0  0  0  0  0  0  0  0  0  0  0
  140.8240   74.5330  217.6190 C   0  0  0  0  0  0  0  0  0  0  0  0
  140.1600   75.2470  218.8130 C   0  0  0  0  0  0  0  0  0  0  0  0
  140.0670   74.3770  219.9930 N   0  0  0  0  0  0  0  0  0  0  0  0
  140.0080   74.9440  221.3170 C   0  0  0  0  0  0  0  0  0  0  0  0
  140.7880   74.5110  222.2060 O   0  0  0  0  0  0  0  0  0  0  0  0
  139.0120   76.0190  221.6890 C   0  0  1  0  0  0  0  0  0  0  0  0
  138.5480   75.8160  223.0660 N   0  0  0  0  0  0  0  0  0  0  0  0
  139.5880   77.4450  221.4670 C   0  0  0  0  0  0  0  0  0  0  0  0
  139.0160   78.4860  222.4620 C   0  0  0  0  0  0  0  0  0  0  0  0
  140.1950   79.3070  222.8220 C   0  0  0  0  0  0  0  0  0  0  0  0
  140.1970   80.4850  223.5750 C   0  0  0  0  0  0  0  0  0  0  0  0
  141.4240   81.1100  223.8450 C   0  0  0  0  0  0  0  0  0  0  0  0
  142.6240   80.5450  223.3730 C   0  0  0  0  0  0  0  0  0  0  0  0
  142.5980   79.3570  222.6230 C   0  0  0  0  0  0  0  0  0  0  0  0
  141.3640   78.7600  222.3570 C   0  0  0  0  0  0  0  0  0  0  0  0
  141.1290   77.4970  221.6200 C   0  0  0  0  0  0  0  0  0  0  0  0
  140.2930   72.9380  219.8330 C   0  0  0  0  0  0  0  0  0  0  0  0
  141.6860   72.6980  219.2500 C   0  0  0  0  0  0  0  0  0  0  0  0
  143.2674   76.3247  219.6069 H   0  0  0  0  0  0  0  0  0  0  0  0
  143.5837   78.0428  219.1888 H   0  0  0  0  0  0  0  0  0  0  0  0
  141.9013   77.4135  219.1888 H   0  0  0  0  0  0  0  0  0  0  0  0
  142.1062   76.8435  217.0259 H   0  0  0  0  0  0  0  0  0  0  0  0
  143.8143   77.4821  217.0488 H   0  0  0  0  0  0  0  0  0  0  0  0
  143.9517   75.4381  220.5701 H   0  0  0  0  0  0  0  0  0  0  0  0
  145.7089   74.6216  222.1427 H   0  0  0  0  0  0  0  0  0  0  0  0
  146.9940   72.5466  221.6161 H   0  0  0  0  0  0  0  0  0  0  0  0
  146.5113   71.2740  219.5225 H   0  0  0  0  0  0  0  0  0  0  0  0
  144.7580   72.0875  217.9415 H   0  0  0  0  0  0  0  0  0  0  0  0
  142.1172   72.9287  217.1555 H   0  0  0  0  0  0  0  0  0  0  0  0
  141.2108   75.2976  216.9292 H   0  0  0  0  0  0  0  0  0  0  0  0
  140.0533   73.8992  217.1561 H   0  0  0  0  0  0  0  0  0  0  0  0
  140.7562   76.1343  219.0723 H   0  0  0  0  0  0  0  0  0  0  0  0
  139.1384   75.5265  218.5160 H   0  0  0  0  0  0  0  0  0  0  0  0
  138.1432   75.9357  221.0195 H   0  0  0  0  0  0  0  0  0  0  0  0
  137.7050   75.1980  223.0760 H   0  0  0  0  0  0  0  0  0  0  0  0
  139.2920   75.3140  223.6020 H   0  0  0  0  0  0  0  0  0  0  0  0
  139.2912   77.6924  220.4371 H   0  0  0  0  0  0  0  0  0  0  0  0
  138.2399   79.1015  221.9837 H   0  0  0  0  0  0  0  0  0  0  0  0
  138.5344   78.0228  223.3358 H   0  0  0  0  0  0  0  0  0  0  0  0
  139.2552   80.9135  223.9484 H   0  0  0  0  0  0  0  0  0  0  0  0
  141.4483   82.0433  224.4267 H   0  0  0  0  0  0  0  0  0  0  0  0
  143.5843   81.0347  223.5919 H   0  0  0  0  0  0  0  0  0  0  0  0
  143.5308   78.9065  222.2529 H   0  0  0  0  0  0  0  0  0  0  0  0
  141.6207   77.5191  220.6363 H   0  0  0  0  0  0  0  0  0  0  0  0
  141.5366   76.6172  222.1393 H   0  0  0  0  0  0  0  0  0  0  0  0
  140.2166   72.4445  220.8131 H   0  0  0  0  0  0  0  0  0  0  0  0
  139.5358   72.5234  219.1512 H   0  0  0  0  0  0  0  0  0  0  0  0
  142.4323   72.9029  220.0317 H   0  0  0  0  0  0  0  0  0  0  0  0
  141.7221   71.6530  218.9085 H   0  0  0  0  0  0  0  0  0  0  0  0
  1  2  1  0
  2  3  1  0
  3  4  2  0
  3  5  1  0
  5  6  1  0
  6  7  2  0
  7  8  1  0
  8  9  2  0
  9 10  1  0
 10 11  2  0
  5 12  1  0
 12 13  1  0
 13 14  1  0
 14 15  1  0
 15 16  1  0
 16 17  2  0
 16 18  1  0
 18 19  1  0
 18 20  1  0
 20 21  1  0
 21 22  1  0
 22 23  2  0
 23 24  1  0
 24 25  2  0
 25 26  1  0
 26 27  2  0
 27 28  1  0
 15 29  1  0
 29 30  1  0
 11  6  1  0
 30 12  1  0
 28 20  1  0
 27 22  1  0
  1 31  1  0
  1 32  1  0
  1 33  1  0
  2 34  1  0
  2 35  1  0
  7 36  1  0
  8 37  1  0
  9 38  1  0
 10 39  1  0
 11 40  1  0
 12 41  1  0
 13 42  1  0
 13 43  1  0
 14 44  1  0
 14 45  1  0
 18 46  1  6
 19 47  1  0
 19 48  1  0
 20 49  1  0
 21 50  1  0
 21 51  1  0
 23 52  1  0
 24 53  1  0
 25 54  1  0
 26 55  1  0
 28 56  1  0
 28 57  1  0
 29 58  1  0
 29 59  1  0
 30 60  1  0
 30 61  1  0
M  END
>  <UniqueID>  (58) 
45

>  <SMILES>  (58) 
CCC(=O)N(c1ccccc1)C1CCN(C(=O)[C@@H](N)C2Cc3ccccc3C2)CC1

>  <Energy>  (58) 
82.87778324178905

>  <Genealogy>  (58) 
CCC(=O)N(c1ccccc1)C1CCN(C(=O)[C@@H](N)C2Cc3ccccc3C2)CC1 (3D coordinates assigned)
CCC(=O)N(c1ccccc1)C1CCN(C(=O)[C@@H](N)C2Cc3ccccc3C2)CC1 (nonaromatic ring conformer: 82.87778324178905 kcal/mol)

>  <smiles>  (58) 
CCC(=O)N(c1ccccc1)C1CCN(C(=O)[C@@H](N)C2Cc3ccccc3C2)CC1

>  <score_type>  (58) 
oracle

>  <origin>  (58) 
autodockgpu

>  <m_score__min__energy>  (58) 
-8.0500000000000007

>  <m_primary>  (58) 
energy

>  <meeko>  (58) 
{"free_energy": -7.31, "intermolecular_energy": -9.4, "internal_energy": -2.86, "cluster_size": 5, "cluster_id": 2, "rank_in_cluster": 1}

>  <energy>  (58) 
-6.16

>  <cluster_rmsd>  (58) 
0.0

>  <rmsd>  (58) 
272.31

>  <cluster>  (58) 
4

$$$$
MCZRVQBLWAUNOI-DEOSSOPVNA-N
     RDKit          3D

 61 64  0  0  0  0  0  0  0  0999 V2000
  142.9240   77.1670  219.0070 C   0  0  0  0  0  0  0  0  0  0  0  0
  143.0700   76.8080  217.5290 C   0  0  0  0  0  0  0  0  0  0  0  0
  143.6060   75.4130  217.3070 C   0  0  0  0  0  0  0  0  0  0  0  0
  144.3990   75.1950  216.3470 O   0  0  0  0  0  0  0  0  0  0  0  0
  143.2580   74.3330  218.2050 N   0  0  0  0  0  0  0  0  0  0  0  0
  144.2540   73.8430  219.1190 C   0  0  0  0  0  0  0  0  0  0  0  0
  144.9760   72.6750  218.8270 C   0  0  0  0  0  0  0  0  0  0  0  0
  145.9230   72.1900  219.7340 C   0  0  0  0  0  0  0  0  0  0  0  0
  146.1670   72.8770  220.9270 C   0  0  0  0  0  0  0  0  0  0  0  0
  145.4680   74.0550  221.2110 C   0  0  0  0  0  0  0  0  0  0  0  0
  144.5190   74.5420  220.3070 C   0  0  0  0  0  0  0  0  0  0  0  0
  141.9730   73.6140  218.0230 C   0  0  0  0  0  0  0  0  0  0  0  0
  140.7980   74.5500  217.6240 C   0  0  0  0  0  0  0  0  0  0  0  0
  140.1390   75.2660  218.8190 C   0  0  0  0  0  0  0  0  0  0  0  0
  140.0510   74.3970  220.0010 N   0  0  0  0  0  0  0  0  0  0  0  0
  139.9970   74.9670  221.3250 C   0  0  0  0  0  0  0  0  0  0  0  0
  140.7800   74.5350  222.2110 O   0  0  0  0  0  0  0  0  0  0  0  0
  139.0030   76.0430  221.6980 C   0  0  1  0  0  0  0  0  0  0  0  0
  138.5410   75.8400  223.0760 N   0  0  0  0  0  0  0  0  0  0  0  0
  139.5800   77.4680  221.4770 C   0  0  0  0  0  0  0  0  0  0  0  0
  139.0130   78.5090  222.4760 C   0  0  0  0  0  0  0  0  0  0  0  0
  140.1950   79.3280  222.8320 C   0  0  0  0  0  0  0  0  0  0  0  0
  140.2020   80.5040  223.5870 C   0  0  0  0  0  0  0  0  0  0  0  0
  141.4300   81.1270  223.8530 C   0  0  0  0  0  0  0  0  0  0  0  0
  142.6270   80.5610  223.3750 C   0  0  0  0  0  0  0  0  0  0  0  0
  142.5970   79.3740  222.6240 C   0  0  0  0  0  0  0  0  0  0  0  0
  141.3620   78.7790  222.3620 C   0  0  0  0  0  0  0  0  0  0  0  0
  141.1220   77.5180  221.6240 C   0  0  0  0  0  0  0  0  0  0  0  0
  140.2750   72.9580  219.8430 C   0  0  0  0  0  0  0  0  0  0  0  0
  141.6660   72.7170  219.2540 C   0  0  0  0  0  0  0  0  0  0  0  0
  143.2669   76.3239  219.6247 H   0  0  0  0  0  0  0  0  0  0  0  0
  143.5320   78.0562  219.2302 H   0  0  0  0  0  0  0  0  0  0  0  0
  141.8680   77.3794  219.2302 H   0  0  0  0  0  0  0  0  0  0  0  0
  142.0820   76.8833  217.0514 H   0  0  0  0  0  0  0  0  0  0  0  0
  143.7943   77.5107  217.0913 H   0  0  0  0  0  0  0  0  0  0  0  0
  144.7963   72.1403  217.8826 H   0  0  0  0  0  0  0  0  0  0  0  0
  146.4768   71.2667  219.5087 H   0  0  0  0  0  0  0  0  0  0  0  0
  146.9085   72.4913  221.6422 H   0  0  0  0  0  0  0  0  0  0  0  0
  145.6652   74.5988  222.1466 H   0  0  0  0  0  0  0  0  0  0  0  0
  143.9790   75.4747  220.5273 H   0  0  0  0  0  0  0  0  0  0  0  0
  142.0879   72.9444  217.1579 H   0  0  0  0  0  0  0  0  0  0  0  0
  141.1826   75.3134  216.9316 H   0  0  0  0  0  0  0  0  0  0  0  0
  140.0252   73.9158  217.1650 H   0  0  0  0  0  0  0  0  0  0  0  0
  140.7363   76.1537  219.0745 H   0  0  0  0  0  0  0  0  0  0  0  0
  139.1163   75.5455  218.5258 H   0  0  0  0  0  0  0  0  0  0  0  0
  138.1339   75.9611  221.0288 H   0  0  0  0  0  0  0  0  0  0  0  0
  137.6920   75.2300  223.0870 H   0  0  0  0  0  0  0  0  0  0  0  0
  139.2810   75.3290  223.6080 H   0  0  0  0  0  0  0  0  0  0  0  0
  139.2794   77.7173  220.4487 H   0  0  0  0  0  0  0  0  0  0  0  0
  138.2358   79.1261  222.0016 H   0  0  0  0  0  0  0  0  0  0  0  0
  138.5342   78.0456  223.3512 H   0  0  0  0  0  0  0  0  0  0  0  0
  139.2623   80.9328  223.9654 H   0  0  0  0  0  0  0  0  0  0  0  0
  141.4579   82.0594  224.4360 H   0  0  0  0  0  0  0  0  0  0  0  0
  143.5888   81.0496  223.5901 H   0  0  0  0  0  0  0  0  0  0  0  0
  143.5279   78.9228  222.2501 H   0  0  0  0  0  0  0  0  0  0  0  0
  141.6097   77.5412  220.6383 H   0  0  0  0  0  0  0  0  0  0  0  0
  141.5304   76.6368  222.1404 H   0  0  0  0  0  0  0  0  0  0  0  0
  140.2027   72.4663  220.8243 H   0  0  0  0  0  0  0  0  0  0  0  0
  139.5144   72.5420  219.1659 H   0  0  0  0  0  0  0  0  0  0  0  0
  142.4157   72.9228  220.0322 H   0  0  0  0  0  0  0  0  0  0  0  0
  141.7003   71.6716  218.9135 H   0  0  0  0  0  0  0  0  0  0  0  0
  1  2  1  0
  2  3  1  0
  3  4  2  0
  3  5  1  0
  5  6  1  0
  6  7  2  0
  7  8  1  0
  8  9  2  0
  9 10  1  0
 10 11  2  0
  5 12  1  0
 12 13  1  0
 13 14  1  0
 14 15  1  0
 15 16  1  0
 16 17  2  0
 16 18  1  0
 18 19  1  0
 18 20  1  0
 20 21  1  0
 21 22  1  0
 22 23  2  0
 23 24  1  0
 24 25  2  0
 25 26  1  0
 26 27  2  0
 27 28  1  0
 15 29  1  0
 29 30  1  0
 11  6  1  0
 30 12  1  0
 28 20  1  0
 27 22  1  0
  1 31  1  0
  1 32  1  0
  1 33  1  0
  2 34  1  0
  2 35  1  0
  7 36  1  0
  8 37  1  0
  9 38  1  0
 10 39  1  0
 11 40  1  0
 12 41  1  0
 13 42  1  0
 13 43  1  0
 14 44  1  0
 14 45  1  0
 18 46  1  6
 19 47  1  0
 19 48  1  0
 20 49  1  0
 21 50  1  0
 21 51  1  0
 23 52  1  0
 24 53  1  0
 25 54  1  0
 26 55  1  0
 28 56  1  0
 28 57  1  0
 29 58  1  0
 29 59  1  0
 30 60  1  0
 30 61  1  0
M  END
>  <UniqueID>  (59) 
45

>  <SMILES>  (59) 
CCC(=O)N(c1ccccc1)C1CCN(C(=O)[C@@H](N)C2Cc3ccccc3C2)CC1

>  <Energy>  (59) 
82.87778324178905

>  <Genealogy>  (59) 
CCC(=O)N(c1ccccc1)C1CCN(C(=O)[C@@H](N)C2Cc3ccccc3C2)CC1 (3D coordinates assigned)
CCC(=O)N(c1ccccc1)C1CCN(C(=O)[C@@H](N)C2Cc3ccccc3C2)CC1 (nonaromatic ring conformer: 82.87778324178905 kcal/mol)

>  <smiles>  (59) 
CCC(=O)N(c1ccccc1)C1CCN(C(=O)[C@@H](N)C2Cc3ccccc3C2)CC1

>  <score_type>  (59) 
oracle

>  <origin>  (59) 
autodockgpu

>  <m_score__min__energy>  (59) 
-8.0500000000000007

>  <m_primary>  (59) 
energy

>  <meeko>  (59) 
{"free_energy": -7.29, "intermolecular_energy": -9.38, "internal_energy": -2.85, "cluster_size": 5, "cluster_id": 2, "rank_in_cluster": 4}

>  <energy>  (59) 
-6.12

>  <cluster_rmsd>  (59) 
0.13

>  <rmsd>  (59) 
272.36

>  <cluster>  (59) 
4

$$$$
MCZRVQBLWAUNOI-DEOSSOPVNA-N
     RDKit          3D

 61 64  0  0  0  0  0  0  0  0999 V2000
  142.9580   77.1570  218.9610 C   0  0  0  0  0  0  0  0  0  0  0  0
  143.1410   76.7950  217.4870 C   0  0  0  0  0  0  0  0  0  0  0  0
  143.6390   75.3830  217.2810 C   0  0  0  0  0  0  0  0  0  0  0  0
  144.4210   75.1320  216.3210 O   0  0  0  0  0  0  0  0  0  0  0  0
  143.2660   74.3240  218.1940 N   0  0  0  0  0  0  0  0  0  0  0  0
  144.2440   73.8420  219.1320 C   0  0  0  0  0  0  0  0  0  0  0  0
  144.5000   74.5460  220.3200 C   0  0  0  0  0  0  0  0  0  0  0  0
  145.4710   74.0860  221.2140 C   0  0  0  0  0  0  0  0  0  0  0  0
  146.1790   72.9130  220.9350 C   0  0  0  0  0  0  0  0  0  0  0  0
  145.9110   72.1950  219.7660 C   0  0  0  0  0  0  0  0  0  0  0  0
  144.9420   72.6530  218.8690 C   0  0  0  0  0  0  0  0  0  0  0  0
  141.9780   73.6150  218.0070 C   0  0  0  0  0  0  0  0  0  0  0  0
  140.8110   74.5600  217.6060 C   0  0  0  0  0  0  0  0  0  0  0  0
  140.1530   75.2780  218.8010 C   0  0  0  0  0  0  0  0  0  0  0  0
  140.0540   74.4080  219.9810 N   0  0  0  0  0  0  0  0  0  0  0  0
  140.0000   74.9760  221.3050 C   0  0  0  0  0  0  0  0  0  0  0  0
  140.7780   74.5370  222.1930 O   0  0  0  0  0  0  0  0  0  0  0  0
  139.0130   76.0590  221.6770 C   0  0  1  0  0  0  0  0  0  0  0  0
  138.5460   75.8570  223.0540 N   0  0  0  0  0  0  0  0  0  0  0  0
  139.6010   77.4800  221.4590 C   0  0  0  0  0  0  0  0  0  0  0  0
  139.0330   78.5250  222.4540 C   0  0  0  0  0  0  0  0  0  0  0  0
  140.2170   79.3360  222.8190 C   0  0  0  0  0  0  0  0  0  0  0  0
  140.2260   80.5130  223.5730 C   0  0  0  0  0  0  0  0  0  0  0  0
  141.4570   81.1280  223.8480 C   0  0  0  0  0  0  0  0  0  0  0  0
  142.6540   80.5540  223.3790 C   0  0  0  0  0  0  0  0  0  0  0  0
  142.6210   79.3670  222.6280 C   0  0  0  0  0  0  0  0  0  0  0  0
  141.3840   78.7800  222.3570 C   0  0  0  0  0  0  0  0  0  0  0  0
  141.1420   77.5200  221.6180 C   0  0  0  0  0  0  0  0  0  0  0  0
  140.2690   72.9680  219.8200 C   0  0  0  0  0  0  0  0  0  0  0  0
  141.6600   72.7180  219.2360 C   0  0  0  0  0  0  0  0  0  0  0  0
  143.3652   76.3515  219.5897 H   0  0  0  0  0  0  0  0  0  0  0  0
  143.4901   78.0952  219.1769 H   0  0  0  0  0  0  0  0  0  0  0  0
  141.8870   77.2848  219.1769 H   0  0  0  0  0  0  0  0  0  0  0  0
  142.1722   76.9025  216.9772 H   0  0  0  0  0  0  0  0  0  0  0  0
  143.9011   77.4745  217.0742 H   0  0  0  0  0  0  0  0  0  0  0  0
  143.9348   75.4619  220.5475 H   0  0  0  0  0  0  0  0  0  0  0  0
  145.6782   74.6469  222.1373 H   0  0  0  0  0  0  0  0  0  0  0  0
  146.9474   72.5550  221.6359 H   0  0  0  0  0  0  0  0  0  0  0  0
  146.4635   71.2683  219.5518 H   0  0  0  0  0  0  0  0  0  0  0  0
  144.7259   72.0804  217.9550 H   0  0  0  0  0  0  0  0  0  0  0  0
  142.0915   72.9458  217.1414 H   0  0  0  0  0  0  0  0  0  0  0  0
  141.2032   75.3222  216.9166 H   0  0  0  0  0  0  0  0  0  0  0  0
  140.0354   73.9324  217.1428 H   0  0  0  0  0  0  0  0  0  0  0  0
  140.7559   76.1607  219.0605 H   0  0  0  0  0  0  0  0  0  0  0  0
  139.1333   75.5649  218.5046 H   0  0  0  0  0  0  0  0  0  0  0  0
  138.1448   75.9849  221.0056 H   0  0  0  0  0  0  0  0  0  0  0  0
  137.6860   75.2620  223.0600 H   0  0  0  0  0  0  0  0  0  0  0  0
  139.2760   75.3300  223.5840 H   0  0  0  0  0  0  0  0  0  0  0  0
  139.3102   77.7307  220.4282 H   0  0  0  0  0  0  0  0  0  0  0  0
  138.2635   79.1472  221.9737 H   0  0  0  0  0  0  0  0  0  0  0  0
  138.5445   78.0647  223.3255 H   0  0  0  0  0  0  0  0  0  0  0  0
  139.2864   80.9487  223.9436 H   0  0  0  0  0  0  0  0  0  0  0  0
  141.4868   82.0603  224.4311 H   0  0  0  0  0  0  0  0  0  0  0  0
  143.6175   81.0361  223.6011 H   0  0  0  0  0  0  0  0  0  0  0  0
  143.5515   78.9094  222.2609 H   0  0  0  0  0  0  0  0  0  0  0  0
  141.6376   77.5393  220.6362 H   0  0  0  0  0  0  0  0  0  0  0  0
  141.5408   76.6365  222.1380 H   0  0  0  0  0  0  0  0  0  0  0  0
  140.1894   72.4744  220.7998 H   0  0  0  0  0  0  0  0  0  0  0  0
  139.5083   72.5595  219.1384 H   0  0  0  0  0  0  0  0  0  0  0  0
  142.4083   72.9173  220.0173 H   0  0  0  0  0  0  0  0  0  0  0  0
  141.6881   71.6729  218.8941 H   0  0  0  0  0  0  0  0  0  0  0  0
  1  2  1  0
  2  3  1  0
  3  4  2  0
  3  5  1  0
  5  6  1  0
  6  7  2  0
  7  8  1  0
  8  9  2  0
  9 10  1  0
 10 11  2  0
  5 12  1  0
 12 13  1  0
 13 14  1  0
 14 15  1  0
 15 16  1  0
 16 17  2  0
 16 18  1  0
 18 19  1  0
 18 20  1  0
 20 21  1  0
 21 22  1  0
 22 23  2  0
 23 24  1  0
 24 25  2  0
 25 26  1  0
 26 27  2  0
 27 28  1  0
 15 29  1  0
 29 30  1  0
 11  6  1  0
 30 12  1  0
 28 20  1  0
 27 22  1  0
  1 31  1  0
  1 32  1  0
  1 33  1  0
  2 34  1  0
  2 35  1  0
  7 36  1  0
  8 37  1  0
  9 38  1  0
 10 39  1  0
 11 40  1  0
 12 41  1  0
 13 42  1  0
 13 43  1  0
 14 44  1  0
 14 45  1  0
 18 46  1  6
 19 47  1  0
 19 48  1  0
 20 49  1  0
 21 50  1  0
 21 51  1  0
 23 52  1  0
 24 53  1  0
 25 54  1  0
 26 55  1  0
 28 56  1  0
 28 57  1  0
 29 58  1  0
 29 59  1  0
 30 60  1  0
 30 61  1  0
M  END
>  <UniqueID>  (60) 
45

>  <SMILES>  (60) 
CCC(=O)N(c1ccccc1)C1CCN(C(=O)[C@@H](N)C2Cc3ccccc3C2)CC1

>  <Energy>  (60) 
82.87778324178905

>  <Genealogy>  (60) 
CCC(=O)N(c1ccccc1)C1CCN(C(=O)[C@@H](N)C2Cc3ccccc3C2)CC1 (3D coordinates assigned)
CCC(=O)N(c1ccccc1)C1CCN(C(=O)[C@@H](N)C2Cc3ccccc3C2)CC1 (nonaromatic ring conformer: 82.87778324178905 kcal/mol)

>  <smiles>  (60) 
CCC(=O)N(c1ccccc1)C1CCN(C(=O)[C@@H](N)C2Cc3ccccc3C2)CC1

>  <score_type>  (60) 
oracle

>  <origin>  (60) 
autodockgpu

>  <m_score__min__energy>  (60) 
-8.0500000000000007

>  <m_primary>  (60) 
energy

>  <meeko>  (60) 
{"free_energy": -7.31, "intermolecular_energy": -9.4, "internal_energy": -2.87, "cluster_size": 5, "cluster_id": 2, "rank_in_cluster": 2}

>  <energy>  (60) 
-6.11

>  <cluster_rmsd>  (60) 
0.1

>  <rmsd>  (60) 
272.33

>  <cluster>  (60) 
4

$$$$
LLZHWBREMUWYMR-SCVLRMBKNA-N
     RDKit          3D

 61 64  0  0  0  0  0  0  0  0999 V2000
  147.2000   74.2580  218.4600 H   0  0  0  0  0  0  0  0  0  0  0  0
  146.6830   73.3950  218.5700 O   0  0  0  0  0  0  0  0  0  0  0  0
  145.4120   73.3220  219.1490 C   0  0  0  0  0  0  0  0  0  0  0  0
  145.2350   72.7840  220.3690 C   0  0  0  0  0  0  0  0  0  0  0  0
  144.4850   71.9877  220.4852 H   0  0  0  0  0  0  0  0  0  0  0  0
  146.0080   73.2150  221.5770 C   0  0  0  0  0  0  0  0  0  0  0  0
  145.4666   72.9131  222.4857 H   0  0  0  0  0  0  0  0  0  0  0  0
  147.0000   72.7398  221.5663 H   0  0  0  0  0  0  0  0  0  0  0  0
  146.1252   74.3087  221.5663 H   0  0  0  0  0  0  0  0  0  0  0  0
  144.2750   73.8420  218.4220 N   0  0  0  0  0  0  0  0  0  0  0  0
  144.4310   74.1860  217.0300 C   0  0  0  0  0  0  0  0  0  0  0  0
  144.4530   75.5310  216.6230 C   0  0  0  0  0  0  0  0  0  0  0  0
  144.3667   76.3314  217.3726 H   0  0  0  0  0  0  0  0  0  0  0  0
  144.5840   75.8560  215.2700 C   0  0  0  0  0  0  0  0  0  0  0  0
  144.6037   76.9108  214.9585 H   0  0  0  0  0  0  0  0  0  0  0  0
  144.6900   74.8440  214.3120 C   0  0  0  0  0  0  0  0  0  0  0  0
  144.7946   75.1023  213.2479 H   0  0  0  0  0  0  0  0  0  0  0  0
  144.6630   73.5030  214.7070 C   0  0  0  0  0  0  0  0  0  0  0  0
  144.7464   72.7059  213.9535 H   0  0  0  0  0  0  0  0  0  0  0  0
  144.5300   73.1750  216.0600 C   0  0  0  0  0  0  0  0  0  0  0  0
  144.5028   72.1189  216.3664 H   0  0  0  0  0  0  0  0  0  0  0  0
  142.9620   74.0460  219.0760 C   0  0  0  0  0  0  0  0  0  0  0  0
  142.6606   73.0949  219.5392 H   0  0  0  0  0  0  0  0  0  0  0  0
  141.8430   74.3660  218.0450 C   0  0  0  0  0  0  0  0  0  0  0  0
  142.3041   74.4927  217.0544 H   0  0  0  0  0  0  0  0  0  0  0  0
  141.1303   73.5283  218.0603 H   0  0  0  0  0  0  0  0  0  0  0  0
  141.0640   75.6390  218.3880 C   0  0  0  0  0  0  0  0  0  0  0  0
  140.4475   75.9326  217.5256 H   0  0  0  0  0  0  0  0  0  0  0  0
  140.4192   75.4451  219.2579 H   0  0  0  0  0  0  0  0  0  0  0  0
  141.9960   76.7240  218.7110 N   0  0  0  0  0  0  0  0  0  0  0  0
  142.0290   77.9140  217.8970 C   0  0  0  0  0  0  0  0  0  0  0  0
  141.7290   77.8360  216.6740 O   0  0  0  0  0  0  0  0  0  0  0  0
  142.3690   79.2720  218.4870 C   0  0  1  0  0  0  0  0  0  0  0  0
  143.2764   79.1551  219.0977 H   0  0  0  0  0  0  0  0  0  0  0  0
  142.6220   80.2320  217.4090 N   0  0  0  0  0  0  0  0  0  0  0  0
  142.0530   79.9480  216.5770 H   0  0  0  0  0  0  0  0  0  0  0  0
  143.6230   80.1460  217.1170 H   0  0  0  0  0  0  0  0  0  0  0  0
  141.2450   79.7990  219.4270 C   0  0  0  0  0  0  0  0  0  0  0  0
  140.4592   80.1369  218.7354 H   0  0  0  0  0  0  0  0  0  0  0  0
  141.7380   80.9570  220.3350 C   0  0  0  0  0  0  0  0  0  0  0  0
  142.7173   81.3295  219.9999 H   0  0  0  0  0  0  0  0  0  0  0  0
  141.0660   81.8277  220.3208 H   0  0  0  0  0  0  0  0  0  0  0  0
  141.8400   80.3300  221.6720 C   0  0  0  0  0  0  0  0  0  0  0  0
  142.4360   80.8730  222.8120 C   0  0  0  0  0  0  0  0  0  0  0  0
  142.8995   81.8701  222.7806 H   0  0  0  0  0  0  0  0  0  0  0  0
  142.4330   80.1240  223.9980 C   0  0  0  0  0  0  0  0  0  0  0  0
  142.9018   80.5313  224.9059 H   0  0  0  0  0  0  0  0  0  0  0  0
  141.8310   78.8520  224.0280 C   0  0  0  0  0  0  0  0  0  0  0  0
  141.8295   78.2679  224.9601 H   0  0  0  0  0  0  0  0  0  0  0  0
  141.2330   78.3270  222.8730 C   0  0  0  0  0  0  0  0  0  0  0  0
  140.7553   77.3363  222.8897 H   0  0  0  0  0  0  0  0  0  0  0  0
  141.2560   79.0870  221.7010 C   0  0  0  0  0  0  0  0  0  0  0  0
  140.6870   78.7130  220.3840 C   0  0  0  0  0  0  0  0  0  0  0  0
  141.0238   77.7108  220.0805 H   0  0  0  0  0  0  0  0  0  0  0  0
  139.5879   78.6699  220.3888 H   0  0  0  0  0  0  0  0  0  0  0  0
  142.9810   76.5300  219.7860 C   0  0  0  0  0  0  0  0  0  0  0  0
  143.9708   76.8416  219.4209 H   0  0  0  0  0  0  0  0  0  0  0  0
  142.6655   77.1355  220.6485 H   0  0  0  0  0  0  0  0  0  0  0  0
  143.0590   75.0620  220.2400 C   0  0  0  0  0  0  0  0  0  0  0  0
  144.0181   74.9084  220.7563 H   0  0  0  0  0  0  0  0  0  0  0  0
  142.1957   74.8819  220.8974 H   0  0  0  0  0  0  0  0  0  0  0  0
  1  2  1  0
  2  3  1  0
  3  4  2  0
  4  5  1  0
  4  6  1  0
  6  7  1  0
  6  8  1  0
  6  9  1  0
  3 10  1  0
 10 11  1  0
 11 12  2  0
 12 13  1  0
 12 14  1  0
 14 15  1  0
 14 16  2  0
 16 17  1  0
 16 18  1  0
 18 19  1  0
 18 20  2  0
 20 21  1  0
 10 22  1  0
 22 23  1  0
 22 24  1  0
 24 25  1  0
 24 26  1  0
 24 27  1  0
 27 28  1  0
 27 29  1  0
 27 30  1  0
 30 31  1  0
 31 32  2  0
 31 33  1  0
 33 34  1  1
 33 35  1  0
 35 36  1  0
 35 37  1  0
 33 38  1  0
 38 39  1  0
 38 40  1  0
 40 41  1  0
 40 42  1  0
 40 43  1  0
 43 44  2  0
 44 45  1  0
 44 46  1  0
 46 47  1  0
 46 48  2  0
 48 49  1  0
 48 50  1  0
 50 51  1  0
 50 52  2  0
 52 53  1  0
 53 54  1  0
 53 55  1  0
 30 56  1  0
 56 57  1  0
 56 58  1  0
 56 59  1  0
 59 60  1  0
 59 61  1  0
 20 11  1  0
 59 22  1  0
 53 38  1  0
 52 43  1  0
M  END
>  <UniqueID>  (61) 
46

>  <SMILES>  (61) 
C/C=C(\O)N(c1ccccc1)C1CCN(C(=O)[C@@H](N)C2Cc3ccccc3C2)CC1

>  <Energy>  (61) 
83.21370759381252

>  <Genealogy>  (61) 
CC=C(O)N(c1ccccc1)C1CCN(C(=O)[C@@H](N)C2Cc3ccccc3C2)CC1 (tautomer)
C/C=C(\O)N(c1ccccc1)C1CCN(C(=O)[C@@H](N)C2Cc3ccccc3C2)CC1 (cis-trans isomerization)
C/C=C(\O)N(c1ccccc1)C1CCN(C(=O)[C@@H](N)C2Cc3ccccc3C2)CC1 (3D coordinates assigned)
C/C=C(\O)N(c1ccccc1)C1CCN(C(=O)[C@@H](N)C2Cc3ccccc3C2)CC1 (nonaromatic ring conformer: 83.21370759381252 kcal/mol)

>  <smiles>  (61) 
CCC(=O)N(c1ccccc1)C1CCN(C(=O)[C@@H](N)C2Cc3ccccc3C2)CC1

>  <score_type>  (61) 
oracle

>  <origin>  (61) 
autodockgpu

>  <m_score__min__energy>  (61) 
-8.1799999999999997

>  <m_primary>  (61) 
energy

>  <meeko>  (61) 
{"free_energy": -7.09, "intermolecular_energy": -9.47, "internal_energy": -2.59, "cluster_size": 9, "cluster_id": 3, "rank_in_cluster": 7}

>  <energy>  (61) 
-8.18

>  <cluster_rmsd>  (61) 
0.0

>  <rmsd>  (61) 
270.89

>  <cluster>  (61) 
1

$$$$
LLZHWBREMUWYMR-SCVLRMBKNA-N
     RDKit          3D

 61 64  0  0  0  0  0  0  0  0999 V2000
  146.3210   74.1310  218.3260 H   0  0  0  0  0  0  0  0  0  0  0  0
  146.3200   73.1190  218.3320 O   0  0  0  0  0  0  0  0  0  0  0  0
  145.1650   72.3440  218.1900 C   0  0  0  0  0  0  0  0  0  0  0  0
  144.3580   72.4890  217.1240 C   0  0  0  0  0  0  0  0  0  0  0  0
  144.0716   71.5897  216.5590 H   0  0  0  0  0  0  0  0  0  0  0  0
  143.8300   73.8140  216.6680 C   0  0  0  0  0  0  0  0  0  0  0  0
  143.5838   74.4318  217.5442 H   0  0  0  0  0  0  0  0  0  0  0  0
  144.5935   74.3242  216.0624 H   0  0  0  0  0  0  0  0  0  0  0  0
  142.9248   73.6593  216.0624 H   0  0  0  0  0  0  0  0  0  0  0  0
  144.8430   71.3660  219.2060 N   0  0  0  0  0  0  0  0  0  0  0  0
  145.1350   69.9750  218.9570 C   0  0  0  0  0  0  0  0  0  0  0  0
  146.0530   69.6040  217.9590 C   0  0  0  0  0  0  0  0  0  0  0  0
  146.5665   70.3794  217.3716 H   0  0  0  0  0  0  0  0  0  0  0  0
  146.3160   68.2540  217.7100 C   0  0  0  0  0  0  0  0  0  0  0  0
  147.0377   67.9700  216.9299 H   0  0  0  0  0  0  0  0  0  0  0  0
  145.6640   67.2650  218.4500 C   0  0  0  0  0  0  0  0  0  0  0  0
  145.8738   66.2032  218.2536 H   0  0  0  0  0  0  0  0  0  0  0  0
  144.7450   67.6240  219.4400 C   0  0  0  0  0  0  0  0  0  0  0  0
  144.2315   66.8445  220.0220 H   0  0  0  0  0  0  0  0  0  0  0  0
  144.4780   68.9730  219.6910 C   0  0  0  0  0  0  0  0  0  0  0  0
  143.7499   69.2515  220.4670 H   0  0  0  0  0  0  0  0  0  0  0  0
  144.2060   71.7550  220.4850 C   0  0  0  0  0  0  0  0  0  0  0  0
  144.4161   70.9676  221.2239 H   0  0  0  0  0  0  0  0  0  0  0  0
  142.6560   71.7990  220.3730 C   0  0  0  0  0  0  0  0  0  0  0  0
  142.3757   71.6487  219.3200 H   0  0  0  0  0  0  0  0  0  0  0  0
  142.2554   71.0050  221.0204 H   0  0  0  0  0  0  0  0  0  0  0  0
  142.0620   73.1260  220.8520 C   0  0  0  0  0  0  0  0  0  0  0  0
  141.0062   73.1834  220.5488 H   0  0  0  0  0  0  0  0  0  0  0  0
  142.1380   73.1819  221.9479 H   0  0  0  0  0  0  0  0  0  0  0  0
  142.8000   74.2470  220.2590 N   0  0  0  0  0  0  0  0  0  0  0  0
  142.1270   75.1730  219.3830 C   0  0  0  0  0  0  0  0  0  0  0  0
  141.1510   74.7710  218.6900 O   0  0  0  0  0  0  0  0  0  0  0  0
  142.5310   76.6350  219.3080 C   0  0  1  0  0  0  0  0  0  0  0  0
  143.3813   76.7837  219.9898 H   0  0  0  0  0  0  0  0  0  0  0  0
  142.9340   76.9690  217.9390 N   0  0  0  0  0  0  0  0  0  0  0  0
  142.4400   76.3190  217.2840 H   0  0  0  0  0  0  0  0  0  0  0  0
  143.9540   76.7640  217.8340 H   0  0  0  0  0  0  0  0  0  0  0  0
  141.3890   77.5820  219.7810 C   0  0  0  0  0  0  0  0  0  0  0  0
  140.5963   77.4352  219.0326 H   0  0  0  0  0  0  0  0  0  0  0  0
  141.8460   79.0640  219.8400 C   0  0  0  0  0  0  0  0  0  0  0  0
  142.8156   79.1964  219.3376 H   0  0  0  0  0  0  0  0  0  0  0  0
  141.1495   79.7468  219.3314 H   0  0  0  0  0  0  0  0  0  0  0  0
  141.9610   79.3350  221.2910 C   0  0  0  0  0  0  0  0  0  0  0  0
  142.5370   80.4550  221.8940 C   0  0  0  0  0  0  0  0  0  0  0  0
  142.9716   81.2594  221.2824 H   0  0  0  0  0  0  0  0  0  0  0  0
  142.5510   80.5350  223.2950 C   0  0  0  0  0  0  0  0  0  0  0  0
  143.0045   81.4061  223.7906 H   0  0  0  0  0  0  0  0  0  0  0  0
  141.9860   79.5030  224.0670 C   0  0  0  0  0  0  0  0  0  0  0  0
  141.9977   79.5702  225.1649 H   0  0  0  0  0  0  0  0  0  0  0  0
  141.4080   78.3890  223.4410 C   0  0  0  0  0  0  0  0  0  0  0  0
  140.9595   77.5807  224.0372 H   0  0  0  0  0  0  0  0  0  0  0  0
  141.4130   78.3260  222.0450 C   0  0  0  0  0  0  0  0  0  0  0  0
  140.8590   77.2410  221.2000 C   0  0  0  0  0  0  0  0  0  0  0  0
  141.2257   76.2582  221.5312 H   0  0  0  0  0  0  0  0  0  0  0  0
  139.7616   77.1803  221.2448 H   0  0  0  0  0  0  0  0  0  0  0  0
  144.2540   74.3370  220.4620 C   0  0  0  0  0  0  0  0  0  0  0  0
  144.7365   74.5253  219.4916 H   0  0  0  0  0  0  0  0  0  0  0  0
  144.4469   75.1567  221.1697 H   0  0  0  0  0  0  0  0  0  0  0  0
  144.8360   73.0460  221.0630 C   0  0  0  0  0  0  0  0  0  0  0  0
  145.9173   73.0255  220.8622 H   0  0  0  0  0  0  0  0  0  0  0  0
  144.6110   73.0610  222.1396 H   0  0  0  0  0  0  0  0  0  0  0  0
  1  2  1  0
  2  3  1  0
  3  4  2  0
  4  5  1  0
  4  6  1  0
  6  7  1  0
  6  8  1  0
  6  9  1  0
  3 10  1  0
 10 11  1  0
 11 12  2  0
 12 13  1  0
 12 14  1  0
 14 15  1  0
 14 16  2  0
 16 17  1  0
 16 18  1  0
 18 19  1  0
 18 20  2  0
 20 21  1  0
 10 22  1  0
 22 23  1  0
 22 24  1  0
 24 25  1  0
 24 26  1  0
 24 27  1  0
 27 28  1  0
 27 29  1  0
 27 30  1  0
 30 31  1  0
 31 32  2  0
 31 33  1  0
 33 34  1  1
 33 35  1  0
 35 36  1  0
 35 37  1  0
 33 38  1  0
 38 39  1  0
 38 40  1  0
 40 41  1  0
 40 42  1  0
 40 43  1  0
 43 44  2  0
 44 45  1  0
 44 46  1  0
 46 47  1  0
 46 48  2  0
 48 49  1  0
 48 50  1  0
 50 51  1  0
 50 52  2  0
 52 53  1  0
 53 54  1  0
 53 55  1  0
 30 56  1  0
 56 57  1  0
 56 58  1  0
 56 59  1  0
 59 60  1  0
 59 61  1  0
 20 11  1  0
 59 22  1  0
 53 38  1  0
 52 43  1  0
M  END
>  <UniqueID>  (62) 
46

>  <SMILES>  (62) 
C/C=C(\O)N(c1ccccc1)C1CCN(C(=O)[C@@H](N)C2Cc3ccccc3C2)CC1

>  <Energy>  (62) 
83.21370759381252

>  <Genealogy>  (62) 
CC=C(O)N(c1ccccc1)C1CCN(C(=O)[C@@H](N)C2Cc3ccccc3C2)CC1 (tautomer)
C/C=C(\O)N(c1ccccc1)C1CCN(C(=O)[C@@H](N)C2Cc3ccccc3C2)CC1 (cis-trans isomerization)
C/C=C(\O)N(c1ccccc1)C1CCN(C(=O)[C@@H](N)C2Cc3ccccc3C2)CC1 (3D coordinates assigned)
C/C=C(\O)N(c1ccccc1)C1CCN(C(=O)[C@@H](N)C2Cc3ccccc3C2)CC1 (nonaromatic ring conformer: 83.21370759381252 kcal/mol)

>  <smiles>  (62) 
CCC(=O)N(c1ccccc1)C1CCN(C(=O)[C@@H](N)C2Cc3ccccc3C2)CC1

>  <score_type>  (62) 
oracle

>  <origin>  (62) 
autodockgpu

>  <m_score__min__energy>  (62) 
-8.1799999999999997

>  <m_primary>  (62) 
energy

>  <meeko>  (62) 
{"free_energy": -7.59, "intermolecular_energy": -9.98, "internal_energy": -2.06, "cluster_size": 4, "cluster_id": 1, "rank_in_cluster": 4}

>  <energy>  (62) 
-8.16

>  <cluster_rmsd>  (62) 
0.16

>  <rmsd>  (62) 
270.87

>  <cluster>  (62) 
1

$$$$
LLZHWBREMUWYMR-SCVLRMBKNA-N
     RDKit          3D

 61 64  0  0  0  0  0  0  0  0999 V2000
  145.9900   74.3120  217.7920 H   0  0  0  0  0  0  0  0  0  0  0  0
  145.9600   73.3920  218.2120 O   0  0  0  0  0  0  0  0  0  0  0  0
  145.2560   73.1000  219.3850 C   0  0  0  0  0  0  0  0  0  0  0  0
  145.4820   73.7850  220.5200 C   0  0  0  0  0  0  0  0  0  0  0  0
  145.0057   74.7692  220.6404 H   0  0  0  0  0  0  0  0  0  0  0  0
  146.3500   73.2740  221.6280 C   0  0  0  0  0  0  0  0  0  0  0  0
  145.9012   73.5382  222.5969 H   0  0  0  0  0  0  0  0  0  0  0  0
  146.4376   72.1802  221.5505 H   0  0  0  0  0  0  0  0  0  0  0  0
  147.3489   73.7282  221.5505 H   0  0  0  0  0  0  0  0  0  0  0  0
  144.2650   72.0470  219.3680 N   0  0  0  0  0  0  0  0  0  0  0  0
  144.7020   70.6720  219.3520 C   0  0  0  0  0  0  0  0  0  0  0  0
  143.9720   69.6810  220.0310 C   0  0  0  0  0  0  0  0  0  0  0  0
  143.0496   69.9505  220.5663 H   0  0  0  0  0  0  0  0  0  0  0  0
  144.4130   68.3550  220.0290 C   0  0  0  0  0  0  0  0  0  0  0  0
  143.8363   67.5838  220.5607 H   0  0  0  0  0  0  0  0  0  0  0  0
  145.5850   68.0070  219.3530 C   0  0  0  0  0  0  0  0  0  0  0  0
  145.9289   66.9621  219.3510 H   0  0  0  0  0  0  0  0  0  0  0  0
  146.3210   68.9860  218.6790 C   0  0  0  0  0  0  0  0  0  0  0  0
  147.2438   68.7113  218.1470 H   0  0  0  0  0  0  0  0  0  0  0  0
  145.8840   70.3150  218.6810 C   0  0  0  0  0  0  0  0  0  0  0  0
  146.4684   71.0842  218.1548 H   0  0  0  0  0  0  0  0  0  0  0  0
  142.8140   72.3460  219.3500 C   0  0  0  0  0  0  0  0  0  0  0  0
  142.2710   71.4171  219.5788 H   0  0  0  0  0  0  0  0  0  0  0  0
  142.3240   72.7610  217.9340 C   0  0  0  0  0  0  0  0  0  0  0  0
  143.1991   72.8610  217.2750 H   0  0  0  0  0  0  0  0  0  0  0  0
  141.6335   71.9806  217.5815 H   0  0  0  0  0  0  0  0  0  0  0  0
  141.5580   74.0870  217.9340 C   0  0  0  0  0  0  0  0  0  0  0  0
  141.4324   74.4357  216.8983 H   0  0  0  0  0  0  0  0  0  0  0  0
  140.5719   73.9357  218.3975 H   0  0  0  0  0  0  0  0  0  0  0  0
  142.3020   75.0930  218.6990 N   0  0  0  0  0  0  0  0  0  0  0  0
  142.7850   76.2850  218.0460 C   0  0  0  0  0  0  0  0  0  0  0  0
  143.0820   76.2420  216.8200 O   0  0  0  0  0  0  0  0  0  0  0  0
  142.8990   77.6070  218.7850 C   0  0  1  0  0  0  0  0  0  0  0  0
  143.6591   77.4868  219.5710 H   0  0  0  0  0  0  0  0  0  0  0  0
  143.3150   78.6610  217.8570 N   0  0  0  0  0  0  0  0  0  0  0  0
  142.4660   79.0060  217.3500 H   0  0  0  0  0  0  0  0  0  0  0  0
  143.9320   78.2360  217.1260 H   0  0  0  0  0  0  0  0  0  0  0  0
  141.5670   78.0010  219.4880 C   0  0  0  0  0  0  0  0  0  0  0  0
  140.7891   77.5624  218.8458 H   0  0  0  0  0  0  0  0  0  0  0  0
  141.4020   79.5400  219.6070 C   0  0  0  0  0  0  0  0  0  0  0  0
  142.1462   80.0641  218.9894 H   0  0  0  0  0  0  0  0  0  0  0  0
  140.4210   79.8940  219.2572 H   0  0  0  0  0  0  0  0  0  0  0  0
  141.6300   79.8020  221.0470 C   0  0  0  0  0  0  0  0  0  0  0  0
  141.8030   81.0460  221.6570 C   0  0  0  0  0  0  0  0  0  0  0  0
  141.7806   81.9705  221.0613 H   0  0  0  0  0  0  0  0  0  0  0  0
  142.0060   81.0940  223.0450 C   0  0  0  0  0  0  0  0  0  0  0  0
  142.1498   82.0631  223.5452 H   0  0  0  0  0  0  0  0  0  0  0  0
  142.0260   79.9060  223.7980 C   0  0  0  0  0  0  0  0  0  0  0  0
  142.1839   79.9485  224.8858 H   0  0  0  0  0  0  0  0  0  0  0  0
  141.8450   78.6670  223.1650 C   0  0  0  0  0  0  0  0  0  0  0  0
  141.8542   77.7337  223.7471 H   0  0  0  0  0  0  0  0  0  0  0  0
  141.6530   78.6410  221.7820 C   0  0  0  0  0  0  0  0  0  0  0  0
  141.4480   77.4440  220.9310 C   0  0  0  0  0  0  0  0  0  0  0  0
  142.2216   76.6864  221.1251 H   0  0  0  0  0  0  0  0  0  0  0  0
  140.4865   76.9439  221.1193 H   0  0  0  0  0  0  0  0  0  0  0  0
  142.6620   74.8130  220.0970 C   0  0  0  0  0  0  0  0  0  0  0  0
  143.7261   75.0501  220.2436 H   0  0  0  0  0  0  0  0  0  0  0  0
  142.0225   75.4331  220.7423 H   0  0  0  0  0  0  0  0  0  0  0  0
  142.4260   73.3400  220.4710 C   0  0  0  0  0  0  0  0  0  0  0  0
  143.0247   73.1078  221.3641 H   0  0  0  0  0  0  0  0  0  0  0  0
  141.3469   73.2212  220.6480 H   0  0  0  0  0  0  0  0  0  0  0  0
  1  2  1  0
  2  3  1  0
  3  4  2  0
  4  5  1  0
  4  6  1  0
  6  7  1  0
  6  8  1  0
  6  9  1  0
  3 10  1  0
 10 11  1  0
 11 12  2  0
 12 13  1  0
 12 14  1  0
 14 15  1  0
 14 16  2  0
 16 17  1  0
 16 18  1  0
 18 19  1  0
 18 20  2  0
 20 21  1  0
 10 22  1  0
 22 23  1  0
 22 24  1  0
 24 25  1  0
 24 26  1  0
 24 27  1  0
 27 28  1  0
 27 29  1  0
 27 30  1  0
 30 31  1  0
 31 32  2  0
 31 33  1  0
 33 34  1  1
 33 35  1  0
 35 36  1  0
 35 37  1  0
 33 38  1  0
 38 39  1  0
 38 40  1  0
 40 41  1  0
 40 42  1  0
 40 43  1  0
 43 44  2  0
 44 45  1  0
 44 46  1  0
 46 47  1  0
 46 48  2  0
 48 49  1  0
 48 50  1  0
 50 51  1  0
 50 52  2  0
 52 53  1  0
 53 54  1  0
 53 55  1  0
 30 56  1  0
 56 57  1  0
 56 58  1  0
 56 59  1  0
 59 60  1  0
 59 61  1  0
 20 11  1  0
 59 22  1  0
 53 38  1  0
 52 43  1  0
M  END
>  <UniqueID>  (63) 
46

>  <SMILES>  (63) 
C/C=C(\O)N(c1ccccc1)C1CCN(C(=O)[C@@H](N)C2Cc3ccccc3C2)CC1

>  <Energy>  (63) 
83.21370759381252

>  <Genealogy>  (63) 
CC=C(O)N(c1ccccc1)C1CCN(C(=O)[C@@H](N)C2Cc3ccccc3C2)CC1 (tautomer)
C/C=C(\O)N(c1ccccc1)C1CCN(C(=O)[C@@H](N)C2Cc3ccccc3C2)CC1 (cis-trans isomerization)
C/C=C(\O)N(c1ccccc1)C1CCN(C(=O)[C@@H](N)C2Cc3ccccc3C2)CC1 (3D coordinates assigned)
C/C=C(\O)N(c1ccccc1)C1CCN(C(=O)[C@@H](N)C2Cc3ccccc3C2)CC1 (nonaromatic ring conformer: 83.21370759381252 kcal/mol)

>  <smiles>  (63) 
CCC(=O)N(c1ccccc1)C1CCN(C(=O)[C@@H](N)C2Cc3ccccc3C2)CC1

>  <score_type>  (63) 
oracle

>  <origin>  (63) 
autodockgpu

>  <m_score__min__energy>  (63) 
-8.1799999999999997

>  <m_primary>  (63) 
energy

>  <meeko>  (63) 
{"free_energy": -7.89, "intermolecular_energy": -10.28, "internal_energy": -2.06, "cluster_size": 4, "cluster_id": 1, "rank_in_cluster": 3}

>  <energy>  (63) 
-7.89

>  <cluster_rmsd>  (63) 
0.4

>  <rmsd>  (63) 
270.9

>  <cluster>  (63) 
1

$$$$
LLZHWBREMUWYMR-SCVLRMBKNA-N
     RDKit          3D

 61 64  0  0  0  0  0  0  0  0999 V2000
  147.1660   74.2460  218.6510 H   0  0  0  0  0  0  0  0  0  0  0  0
  146.6570   73.4060  218.8940 O   0  0  0  0  0  0  0  0  0  0  0  0
  145.3690   73.4110  219.4370 C   0  0  0  0  0  0  0  0  0  0  0  0
  145.1410   72.9790  220.6910 C   0  0  0  0  0  0  0  0  0  0  0  0
  144.1637   72.5288  220.9195 H   0  0  0  0  0  0  0  0  0  0  0  0
  146.1520   73.0810  221.7900 C   0  0  0  0  0  0  0  0  0  0  0  0
  145.6420   73.0295  222.7633 H   0  0  0  0  0  0  0  0  0  0  0  0
  146.8686   72.2506  221.7072 H   0  0  0  0  0  0  0  0  0  0  0  0
  146.6883   74.0378  221.7072 H   0  0  0  0  0  0  0  0  0  0  0  0
  144.2680   73.8970  218.6350 N   0  0  0  0  0  0  0  0  0  0  0  0
  144.4830   74.1540  217.2320 C   0  0  0  0  0  0  0  0  0  0  0  0
  144.3940   75.4610  216.7220 C   0  0  0  0  0  0  0  0  0  0  0  0
  144.1740   76.2995  217.3991 H   0  0  0  0  0  0  0  0  0  0  0  0
  144.5840   75.6990  215.3580 C   0  0  0  0  0  0  0  0  0  0  0  0
  144.5168   76.7244  214.9654 H   0  0  0  0  0  0  0  0  0  0  0  0
  144.8590   74.6380  214.4920 C   0  0  0  0  0  0  0  0  0  0  0  0
  145.0102   74.8285  213.4192 H   0  0  0  0  0  0  0  0  0  0  0  0
  144.9420   73.3340  214.9890 C   0  0  0  0  0  0  0  0  0  0  0  0
  145.1577   72.4985  214.3068 H   0  0  0  0  0  0  0  0  0  0  0  0
  144.7510   73.0910  216.3530 C   0  0  0  0  0  0  0  0  0  0  0  0
  144.8109   72.0629  216.7395 H   0  0  0  0  0  0  0  0  0  0  0  0
  142.9320   74.1530  219.2220 C   0  0  0  0  0  0  0  0  0  0  0  0
  142.6117   73.2434  219.7512 H   0  0  0  0  0  0  0  0  0  0  0  0
  141.8520   74.3850  218.1280 C   0  0  0  0  0  0  0  0  0  0  0  0
  142.3491   74.4300  217.1478 H   0  0  0  0  0  0  0  0  0  0  0  0
  141.1379   73.5504  218.1864 H   0  0  0  0  0  0  0  0  0  0  0  0
  141.0630   75.6810  218.3360 C   0  0  0  0  0  0  0  0  0  0  0  0
  140.4789   75.9016  217.4304 H   0  0  0  0  0  0  0  0  0  0  0  0
  140.3864   75.5590  219.1946 H   0  0  0  0  0  0  0  0  0  0  0  0
  141.9850   76.7900  218.6020 N   0  0  0  0  0  0  0  0  0  0  0  0
  142.0490   77.9090  217.6950 C   0  0  0  0  0  0  0  0  0  0  0  0
  141.7930   77.7290  216.4720 O   0  0  0  0  0  0  0  0  0  0  0  0
  142.3710   79.3110  218.1820 C   0  0  1  0  0  0  0  0  0  0  0  0
  143.2992   79.2569  218.7699 H   0  0  0  0  0  0  0  0  0  0  0  0
  142.5660   80.2030  217.0350 N   0  0  0  0  0  0  0  0  0  0  0  0
  142.8060   79.6170  216.2020 H   0  0  0  0  0  0  0  0  0  0  0  0
  143.4050   80.8000  217.2190 H   0  0  0  0  0  0  0  0  0  0  0  0
  141.2610   79.8730  219.1190 C   0  0  0  0  0  0  0  0  0  0  0  0
  140.5085   80.2770  218.4258 H   0  0  0  0  0  0  0  0  0  0  0  0
  141.8030   80.9720  220.0720 C   0  0  0  0  0  0  0  0  0  0  0  0
  142.8081   81.2974  219.7655 H   0  0  0  0  0  0  0  0  0  0  0  0
  141.1827   81.8804  220.0747 H   0  0  0  0  0  0  0  0  0  0  0  0
  141.8440   80.2980  221.3900 C   0  0  0  0  0  0  0  0  0  0  0  0
  142.4490   80.7710  222.5570 C   0  0  0  0  0  0  0  0  0  0  0  0
  142.9688   81.7404  222.5656 H   0  0  0  0  0  0  0  0  0  0  0  0
  142.3810   79.9860  223.7180 C   0  0  0  0  0  0  0  0  0  0  0  0
  142.8547   80.3373  224.6466 H   0  0  0  0  0  0  0  0  0  0  0  0
  141.7080   78.7500  223.6970 C   0  0  0  0  0  0  0  0  0  0  0  0
  141.6562   78.1378  224.6094 H   0  0  0  0  0  0  0  0  0  0  0  0
  141.1030   78.2970  222.5150 C   0  0  0  0  0  0  0  0  0  0  0  0
  140.5700   77.3350  222.4915 H   0  0  0  0  0  0  0  0  0  0  0  0
  141.1900   79.0900  221.3690 C   0  0  0  0  0  0  0  0  0  0  0  0
  140.6250   78.7910  220.0320 C   0  0  0  0  0  0  0  0  0  0  0  0
  140.9098   77.7811  219.7018 H   0  0  0  0  0  0  0  0  0  0  0  0
  139.5253   78.8111  220.0176 H   0  0  0  0  0  0  0  0  0  0  0  0
  142.9300   76.6860  219.7240 C   0  0  0  0  0  0  0  0  0  0  0  0
  143.9329   76.9671  219.3702 H   0  0  0  0  0  0  0  0  0  0  0  0
  142.5843   77.3603  220.5214 H   0  0  0  0  0  0  0  0  0  0  0  0
  142.9890   75.2620  220.3010 C   0  0  0  0  0  0  0  0  0  0  0  0
  143.9286   75.1530  220.8624 H   0  0  0  0  0  0  0  0  0  0  0  0
  142.1026   75.1360  220.9401 H   0  0  0  0  0  0  0  0  0  0  0  0
  1  2  1  0
  2  3  1  0
  3  4  2  0
  4  5  1  0
  4  6  1  0
  6  7  1  0
  6  8  1  0
  6  9  1  0
  3 10  1  0
 10 11  1  0
 11 12  2  0
 12 13  1  0
 12 14  1  0
 14 15  1  0
 14 16  2  0
 16 17  1  0
 16 18  1  0
 18 19  1  0
 18 20  2  0
 20 21  1  0
 10 22  1  0
 22 23  1  0
 22 24  1  0
 24 25  1  0
 24 26  1  0
 24 27  1  0
 27 28  1  0
 27 29  1  0
 27 30  1  0
 30 31  1  0
 31 32  2  0
 31 33  1  0
 33 34  1  1
 33 35  1  0
 35 36  1  0
 35 37  1  0
 33 38  1  0
 38 39  1  0
 38 40  1  0
 40 41  1  0
 40 42  1  0
 40 43  1  0
 43 44  2  0
 44 45  1  0
 44 46  1  0
 46 47  1  0
 46 48  2  0
 48 49  1  0
 48 50  1  0
 50 51  1  0
 50 52  2  0
 52 53  1  0
 53 54  1  0
 53 55  1  0
 30 56  1  0
 56 57  1  0
 56 58  1  0
 56 59  1  0
 59 60  1  0
 59 61  1  0
 20 11  1  0
 59 22  1  0
 53 38  1  0
 52 43  1  0
M  END
>  <UniqueID>  (64) 
46

>  <SMILES>  (64) 
C/C=C(\O)N(c1ccccc1)C1CCN(C(=O)[C@@H](N)C2Cc3ccccc3C2)CC1

>  <Energy>  (64) 
83.21370759381252

>  <Genealogy>  (64) 
CC=C(O)N(c1ccccc1)C1CCN(C(=O)[C@@H](N)C2Cc3ccccc3C2)CC1 (tautomer)
C/C=C(\O)N(c1ccccc1)C1CCN(C(=O)[C@@H](N)C2Cc3ccccc3C2)CC1 (cis-trans isomerization)
C/C=C(\O)N(c1ccccc1)C1CCN(C(=O)[C@@H](N)C2Cc3ccccc3C2)CC1 (3D coordinates assigned)
C/C=C(\O)N(c1ccccc1)C1CCN(C(=O)[C@@H](N)C2Cc3ccccc3C2)CC1 (nonaromatic ring conformer: 83.21370759381252 kcal/mol)

>  <smiles>  (64) 
CCC(=O)N(c1ccccc1)C1CCN(C(=O)[C@@H](N)C2Cc3ccccc3C2)CC1

>  <score_type>  (64) 
oracle

>  <origin>  (64) 
autodockgpu

>  <m_score__min__energy>  (64) 
-8.1799999999999997

>  <m_primary>  (64) 
energy

>  <meeko>  (64) 
{"free_energy": -7.23, "intermolecular_energy": -9.62, "internal_energy": -2.48, "cluster_size": 9, "cluster_id": 3, "rank_in_cluster": 3}

>  <energy>  (64) 
-7.59

>  <cluster_rmsd>  (64) 
1.35

>  <rmsd>  (64) 
270.82

>  <cluster>  (64) 
1

$$$$
LLZHWBREMUWYMR-SCVLRMBKNA-N
     RDKit          3D

 61 64  0  0  0  0  0  0  0  0999 V2000
  145.3600   71.1770  218.0920 H   0  0  0  0  0  0  0  0  0  0  0  0
  145.9460   71.8660  218.5460 O   0  0  0  0  0  0  0  0  0  0  0  0
  145.4690   73.0820  219.0430 C   0  0  0  0  0  0  0  0  0  0  0  0
  146.0540   73.6800  220.0970 C   0  0  0  0  0  0  0  0  0  0  0  0
  146.6260   74.6033  219.9230 H   0  0  0  0  0  0  0  0  0  0  0  0
  145.9650   73.1510  221.4950 C   0  0  0  0  0  0  0  0  0  0  0  0
  146.1039   73.9763  222.2089 H   0  0  0  0  0  0  0  0  0  0  0  0
  144.9772   72.6931  221.6516 H   0  0  0  0  0  0  0  0  0  0  0  0
  146.7486   72.3950  221.6516 H   0  0  0  0  0  0  0  0  0  0  0  0
  144.3320   73.7070  218.4050 N   0  0  0  0  0  0  0  0  0  0  0  0
  144.4480   74.1400  217.0330 C   0  0  0  0  0  0  0  0  0  0  0  0
  144.4380   75.5090  216.7120 C   0  0  0  0  0  0  0  0  0  0  0  0
  144.3566   76.2587  217.5128 H   0  0  0  0  0  0  0  0  0  0  0  0
  144.5310   75.9210  215.3800 C   0  0  0  0  0  0  0  0  0  0  0  0
  144.5255   76.9934  215.1354 H   0  0  0  0  0  0  0  0  0  0  0  0
  144.6310   74.9730  214.3580 C   0  0  0  0  0  0  0  0  0  0  0  0
  144.7065   75.2994  213.3102 H   0  0  0  0  0  0  0  0  0  0  0  0
  144.6350   73.6090  214.6680 C   0  0  0  0  0  0  0  0  0  0  0  0
  144.7122   72.8627  213.8636 H   0  0  0  0  0  0  0  0  0  0  0  0
  144.5410   73.1940  215.9990 C   0  0  0  0  0  0  0  0  0  0  0  0
  144.5398   72.1203  216.2383 H   0  0  0  0  0  0  0  0  0  0  0  0
  143.0580   73.9280  219.1280 C   0  0  0  0  0  0  0  0  0  0  0  0
  142.7990   72.9971  219.6536 H   0  0  0  0  0  0  0  0  0  0  0  0
  141.8730   74.1840  218.1550 C   0  0  0  0  0  0  0  0  0  0  0  0
  142.2702   74.2671  217.1326 H   0  0  0  0  0  0  0  0  0  0  0  0
  141.1750   73.3398  218.2559 H   0  0  0  0  0  0  0  0  0  0  0  0
  141.0980   75.4620  218.4830 C   0  0  0  0  0  0  0  0  0  0  0  0
  140.4253   75.7052  217.6474 H   0  0  0  0  0  0  0  0  0  0  0  0
  140.5106   75.3041  219.3995 H   0  0  0  0  0  0  0  0  0  0  0  0
  142.0330   76.5730  218.6940 N   0  0  0  0  0  0  0  0  0  0  0  0
  141.9970   77.7220  217.8240 C   0  0  0  0  0  0  0  0  0  0  0  0
  141.6240   77.5800  216.6270 O   0  0  0  0  0  0  0  0  0  0  0  0
  142.3530   79.1110  218.3250 C   0  0  1  0  0  0  0  0  0  0  0  0
  143.2710   79.0258  218.9250 H   0  0  0  0  0  0  0  0  0  0  0  0
  142.5900   80.0040  217.1870 N   0  0  0  0  0  0  0  0  0  0  0  0
  142.7570   79.4150  216.3380 H   0  0  0  0  0  0  0  0  0  0  0  0
  143.4820   80.5250  217.3550 H   0  0  0  0  0  0  0  0  0  0  0  0
  141.2490   79.6990  219.2510 C   0  0  0  0  0  0  0  0  0  0  0  0
  140.4746   80.0457  218.5510 H   0  0  0  0  0  0  0  0  0  0  0  0
  141.7810   80.8630  220.1300 C   0  0  0  0  0  0  0  0  0  0  0  0
  142.7716   81.1947  219.7854 H   0  0  0  0  0  0  0  0  0  0  0  0
  141.1379   81.7547  220.0944 H   0  0  0  0  0  0  0  0  0  0  0  0
  141.8640   80.2660  221.4830 C   0  0  0  0  0  0  0  0  0  0  0  0
  142.4780   80.8180  222.6080 C   0  0  0  0  0  0  0  0  0  0  0  0
  142.9738   81.7983  222.5514 H   0  0  0  0  0  0  0  0  0  0  0  0
  142.4510   80.0990  223.8130 C   0  0  0  0  0  0  0  0  0  0  0  0
  142.9339   80.5130  224.7104 H   0  0  0  0  0  0  0  0  0  0  0  0
  141.8070   78.8490  223.8750 C   0  0  0  0  0  0  0  0  0  0  0  0
  141.7859   78.2893  224.8217 H   0  0  0  0  0  0  0  0  0  0  0  0
  141.1920   78.3150  222.7330 C   0  0  0  0  0  0  0  0  0  0  0  0
  140.6831   77.3407  222.7744 H   0  0  0  0  0  0  0  0  0  0  0  0
  141.2380   79.0440  221.5420 C   0  0  0  0  0  0  0  0  0  0  0  0
  140.6560   78.6560  220.2360 C   0  0  0  0  0  0  0  0  0  0  0  0
  140.9592   77.6358  219.9579 H   0  0  0  0  0  0  0  0  0  0  0  0
  139.5560   78.6493  220.2421 H   0  0  0  0  0  0  0  0  0  0  0  0
  143.0840   76.4430  219.7140 C   0  0  0  0  0  0  0  0  0  0  0  0
  144.0449   76.7481  219.2740 H   0  0  0  0  0  0  0  0  0  0  0  0
  142.8120   77.0859  220.5642 H   0  0  0  0  0  0  0  0  0  0  0  0
  143.2120   75.0010  220.2330 C   0  0  0  0  0  0  0  0  0  0  0  0
  144.2035   74.8845  220.6949 H   0  0  0  0  0  0  0  0  0  0  0  0
  142.3942   74.8433  220.9516 H   0  0  0  0  0  0  0  0  0  0  0  0
  1  2  1  0
  2  3  1  0
  3  4  2  0
  4  5  1  0
  4  6  1  0
  6  7  1  0
  6  8  1  0
  6  9  1  0
  3 10  1  0
 10 11  1  0
 11 12  2  0
 12 13  1  0
 12 14  1  0
 14 15  1  0
 14 16  2  0
 16 17  1  0
 16 18  1  0
 18 19  1  0
 18 20  2  0
 20 21  1  0
 10 22  1  0
 22 23  1  0
 22 24  1  0
 24 25  1  0
 24 26  1  0
 24 27  1  0
 27 28  1  0
 27 29  1  0
 27 30  1  0
 30 31  1  0
 31 32  2  0
 31 33  1  0
 33 34  1  1
 33 35  1  0
 35 36  1  0
 35 37  1  0
 33 38  1  0
 38 39  1  0
 38 40  1  0
 40 41  1  0
 40 42  1  0
 40 43  1  0
 43 44  2  0
 44 45  1  0
 44 46  1  0
 46 47  1  0
 46 48  2  0
 48 49  1  0
 48 50  1  0
 50 51  1  0
 50 52  2  0
 52 53  1  0
 53 54  1  0
 53 55  1  0
 30 56  1  0
 56 57  1  0
 56 58  1  0
 56 59  1  0
 59 60  1  0
 59 61  1  0
 20 11  1  0
 59 22  1  0
 53 38  1  0
 52 43  1  0
M  END
>  <UniqueID>  (65) 
46

>  <SMILES>  (65) 
C/C=C(\O)N(c1ccccc1)C1CCN(C(=O)[C@@H](N)C2Cc3ccccc3C2)CC1

>  <Energy>  (65) 
83.21370759381252

>  <Genealogy>  (65) 
CC=C(O)N(c1ccccc1)C1CCN(C(=O)[C@@H](N)C2Cc3ccccc3C2)CC1 (tautomer)
C/C=C(\O)N(c1ccccc1)C1CCN(C(=O)[C@@H](N)C2Cc3ccccc3C2)CC1 (cis-trans isomerization)
C/C=C(\O)N(c1ccccc1)C1CCN(C(=O)[C@@H](N)C2Cc3ccccc3C2)CC1 (3D coordinates assigned)
C/C=C(\O)N(c1ccccc1)C1CCN(C(=O)[C@@H](N)C2Cc3ccccc3C2)CC1 (nonaromatic ring conformer: 83.21370759381252 kcal/mol)

>  <smiles>  (65) 
CCC(=O)N(c1ccccc1)C1CCN(C(=O)[C@@H](N)C2Cc3ccccc3C2)CC1

>  <score_type>  (65) 
oracle

>  <origin>  (65) 
autodockgpu

>  <m_score__min__energy>  (65) 
-8.1799999999999997

>  <m_primary>  (65) 
energy

>  <meeko>  (65) 
{"free_energy": -6.75, "intermolecular_energy": -9.13, "internal_energy": -2.62, "cluster_size": 9, "cluster_id": 3, "rank_in_cluster": 9}

>  <energy>  (65) 
-7.54

>  <cluster_rmsd>  (65) 
0.0

>  <rmsd>  (65) 
270.96

>  <cluster>  (65) 
2

$$$$
LLZHWBREMUWYMR-SCVLRMBKNA-N
     RDKit          3D

 61 64  0  0  0  0  0  0  0  0999 V2000
  146.5930   74.1250  218.2140 H   0  0  0  0  0  0  0  0  0  0  0  0
  146.2900   73.2330  218.5830 O   0  0  0  0  0  0  0  0  0  0  0  0
  145.3060   73.0950  219.5660 C   0  0  0  0  0  0  0  0  0  0  0  0
  145.6120   72.6560  220.8000 C   0  0  0  0  0  0  0  0  0  0  0  0
  145.1763   71.7048  221.1399 H   0  0  0  0  0  0  0  0  0  0  0  0
  146.5170   73.3990  221.7340 C   0  0  0  0  0  0  0  0  0  0  0  0
  146.2387   73.1705  222.7734 H   0  0  0  0  0  0  0  0  0  0  0  0
  147.5584   73.0919  221.5573 H   0  0  0  0  0  0  0  0  0  0  0  0
  146.4186   74.4802  221.5573 H   0  0  0  0  0  0  0  0  0  0  0  0
  143.9380   73.4400  219.2470 N   0  0  0  0  0  0  0  0  0  0  0  0
  143.6440   74.7670  218.7640 C   0  0  0  0  0  0  0  0  0  0  0  0
  143.2710   75.7880  219.6570 C   0  0  0  0  0  0  0  0  0  0  0  0
  143.2176   75.5797  220.7358 H   0  0  0  0  0  0  0  0  0  0  0  0
  142.9680   77.0660  219.1790 C   0  0  0  0  0  0  0  0  0  0  0  0
  142.6793   77.8609  219.8824 H   0  0  0  0  0  0  0  0  0  0  0  0
  143.0310   77.3360  217.8100 C   0  0  0  0  0  0  0  0  0  0  0  0
  142.7943   78.3433  217.4367 H   0  0  0  0  0  0  0  0  0  0  0  0
  143.3950   76.3260  216.9140 C   0  0  0  0  0  0  0  0  0  0  0  0
  143.4437   76.5387  215.8359 H   0  0  0  0  0  0  0  0  0  0  0  0
  143.6970   75.0460  217.3880 C   0  0  0  0  0  0  0  0  0  0  0  0
  143.9778   74.2527  216.6796 H   0  0  0  0  0  0  0  0  0  0  0  0
  142.8310   72.4710  219.4200 C   0  0  0  0  0  0  0  0  0  0  0  0
  143.2296   71.4620  219.2381 H   0  0  0  0  0  0  0  0  0  0  0  0
  141.7180   72.6640  218.3520 C   0  0  0  0  0  0  0  0  0  0  0  0
  141.9430   73.5701  217.7704 H   0  0  0  0  0  0  0  0  0  0  0  0
  141.7075   71.7638  217.7199 H   0  0  0  0  0  0  0  0  0  0  0  0
  140.3230   72.8110  218.9650 C   0  0  0  0  0  0  0  0  0  0  0  0
  139.6208   73.1611  218.1940 H   0  0  0  0  0  0  0  0  0  0  0  0
  139.9932   71.8360  219.3530 H   0  0  0  0  0  0  0  0  0  0  0  0
  140.3610   73.7810  220.0650 N   0  0  0  0  0  0  0  0  0  0  0  0
  139.5850   74.9940  219.9840 C   0  0  0  0  0  0  0  0  0  0  0  0
  139.3460   75.5010  218.8540 O   0  0  0  0  0  0  0  0  0  0  0  0
  139.0070   75.6520  221.2250 C   0  0  1  0  0  0  0  0  0  0  0  0
  137.9874   75.2640  221.3659 H   0  0  0  0  0  0  0  0  0  0  0  0
  139.8260   75.3170  222.3930 N   0  0  0  0  0  0  0  0  0  0  0  0
  139.2030   74.8950  223.1200 H   0  0  0  0  0  0  0  0  0  0  0  0
  140.1920   76.2060  222.8080 H   0  0  0  0  0  0  0  0  0  0  0  0
  138.8970   77.1980  221.0690 C   0  0  0  0  0  0  0  0  0  0  0  0
  138.0104   77.3373  220.4330 H   0  0  0  0  0  0  0  0  0  0  0  0
  140.1640   77.8110  220.4160 C   0  0  0  0  0  0  0  0  0  0  0  0
  140.8081   77.0254  219.9941 H   0  0  0  0  0  0  0  0  0  0  0  0
  139.9308   78.4869  219.5801 H   0  0  0  0  0  0  0  0  0  0  0  0
  140.8360   78.4980  221.5430 C   0  0  0  0  0  0  0  0  0  0  0  0
  142.1240   79.0360  221.5500 C   0  0  0  0  0  0  0  0  0  0  0  0
  142.7613   78.9754  220.6555 H   0  0  0  0  0  0  0  0  0  0  0  0
  142.5910   79.6560  222.7200 C   0  0  0  0  0  0  0  0  0  0  0  0
  143.6048   80.0820  222.7491 H   0  0  0  0  0  0  0  0  0  0  0  0
  141.7630   79.7330  223.8560 C   0  0  0  0  0  0  0  0  0  0  0  0
  142.1311   80.2205  224.7708 H   0  0  0  0  0  0  0  0  0  0  0  0
  140.4700   79.1900  223.8250 C   0  0  0  0  0  0  0  0  0  0  0  0
  139.8152   79.2506  224.7068 H   0  0  0  0  0  0  0  0  0  0  0  0
  140.0300   78.5710  222.6530 C   0  0  0  0  0  0  0  0  0  0  0  0
  138.7100   77.9380  222.4200 C   0  0  0  0  0  0  0  0  0  0  0  0
  138.4657   77.2300  223.2256 H   0  0  0  0  0  0  0  0  0  0  0  0
  137.8840   78.6642  222.4002 H   0  0  0  0  0  0  0  0  0  0  0  0
  141.2930   73.5660  221.1820 C   0  0  0  0  0  0  0  0  0  0  0  0
  141.8360   74.5027  221.3764 H   0  0  0  0  0  0  0  0  0  0  0  0
  140.7056   73.2563  222.0589 H   0  0  0  0  0  0  0  0  0  0  0  0
  142.3130   72.4550  220.8780 C   0  0  0  0  0  0  0  0  0  0  0  0
  143.1724   72.5776  221.5536 H   0  0  0  0  0  0  0  0  0  0  0  0
  141.7975   71.4947  221.0265 H   0  0  0  0  0  0  0  0  0  0  0  0
  1  2  1  0
  2  3  1  0
  3  4  2  0
  4  5  1  0
  4  6  1  0
  6  7  1  0
  6  8  1  0
  6  9  1  0
  3 10  1  0
 10 11  1  0
 11 12  2  0
 12 13  1  0
 12 14  1  0
 14 15  1  0
 14 16  2  0
 16 17  1  0
 16 18  1  0
 18 19  1  0
 18 20  2  0
 20 21  1  0
 10 22  1  0
 22 23  1  0
 22 24  1  0
 24 25  1  0
 24 26  1  0
 24 27  1  0
 27 28  1  0
 27 29  1  0
 27 30  1  0
 30 31  1  0
 31 32  2  0
 31 33  1  0
 33 34  1  1
 33 35  1  0
 35 36  1  0
 35 37  1  0
 33 38  1  0
 38 39  1  0
 38 40  1  0
 40 41  1  0
 40 42  1  0
 40 43  1  0
 43 44  2  0
 44 45  1  0
 44 46  1  0
 46 47  1  0
 46 48  2  0
 48 49  1  0
 48 50  1  0
 50 51  1  0
 50 52  2  0
 52 53  1  0
 53 54  1  0
 53 55  1  0
 30 56  1  0
 56 57  1  0
 56 58  1  0
 56 59  1  0
 59 60  1  0
 59 61  1  0
 20 11  1  0
 59 22  1  0
 53 38  1  0
 52 43  1  0
M  END
>  <UniqueID>  (66) 
46

>  <SMILES>  (66) 
C/C=C(\O)N(c1ccccc1)C1CCN(C(=O)[C@@H](N)C2Cc3ccccc3C2)CC1

>  <Energy>  (66) 
83.21370759381252

>  <Genealogy>  (66) 
CC=C(O)N(c1ccccc1)C1CCN(C(=O)[C@@H](N)C2Cc3ccccc3C2)CC1 (tautomer)
C/C=C(\O)N(c1ccccc1)C1CCN(C(=O)[C@@H](N)C2Cc3ccccc3C2)CC1 (cis-trans isomerization)
C/C=C(\O)N(c1ccccc1)C1CCN(C(=O)[C@@H](N)C2Cc3ccccc3C2)CC1 (3D coordinates assigned)
C/C=C(\O)N(c1ccccc1)C1CCN(C(=O)[C@@H](N)C2Cc3ccccc3C2)CC1 (nonaromatic ring conformer: 83.21370759381252 kcal/mol)

>  <smiles>  (66) 
CCC(=O)N(c1ccccc1)C1CCN(C(=O)[C@@H](N)C2Cc3ccccc3C2)CC1

>  <score_type>  (66) 
oracle

>  <origin>  (66) 
autodockgpu

>  <m_score__min__energy>  (66) 
-8.1799999999999997

>  <m_primary>  (66) 
energy

>  <meeko>  (66) 
{"free_energy": -7.54, "intermolecular_energy": -9.93, "internal_energy": -1.98, "cluster_size": 1, "cluster_id": 2, "rank_in_cluster": 1}

>  <energy>  (66) 
-7.27

>  <cluster_rmsd>  (66) 
0.0

>  <rmsd>  (66) 
270.79

>  <cluster>  (66) 
3

$$$$
LLZHWBREMUWYMR-SCVLRMBKNA-N
     RDKit          3D

 61 64  0  0  0  0  0  0  0  0999 V2000
  138.9510   73.6550  222.7200 H   0  0  0  0  0  0  0  0  0  0  0  0
  139.9600   73.7150  222.6810 O   0  0  0  0  0  0  0  0  0  0  0  0
  140.6620   74.2870  221.6150 C   0  0  0  0  0  0  0  0  0  0  0  0
  140.9840   75.5930  221.6150 C   0  0  0  0  0  0  0  0  0  0  0  0
  141.8870   75.9091  221.0722 H   0  0  0  0  0  0  0  0  0  0  0  0
  140.1730   76.6380  222.3180 C   0  0  0  0  0  0  0  0  0  0  0  0
  140.2729   76.5093  223.4059 H   0  0  0  0  0  0  0  0  0  0  0  0
  140.5348   77.6367  222.0322 H   0  0  0  0  0  0  0  0  0  0  0  0
  139.1158   76.5354  222.0322 H   0  0  0  0  0  0  0  0  0  0  0  0
  141.0530   73.4520  220.5010 N   0  0  0  0  0  0  0  0  0  0  0  0
  142.4420   73.4020  220.1160 C   0  0  0  0  0  0  0  0  0  0  0  0
  143.3570   72.6170  220.8390 C   0  0  0  0  0  0  0  0  0  0  0  0
  143.0104   72.0218  221.6967 H   0  0  0  0  0  0  0  0  0  0  0  0
  144.7060   72.5900  220.4720 C   0  0  0  0  0  0  0  0  0  0  0  0
  145.4169   71.9719  221.0400 H   0  0  0  0  0  0  0  0  0  0  0  0
  145.1530   73.3460  219.3860 C   0  0  0  0  0  0  0  0  0  0  0  0
  146.2143   73.3206  219.0980 H   0  0  0  0  0  0  0  0  0  0  0  0
  144.2520   74.1350  218.6650 C   0  0  0  0  0  0  0  0  0  0  0  0
  144.6046   74.7315  217.8106 H   0  0  0  0  0  0  0  0  0  0  0  0
  142.9020   74.1660  219.0300 C   0  0  0  0  0  0  0  0  0  0  0  0
  142.1965   74.7919  218.4638 H   0  0  0  0  0  0  0  0  0  0  0  0
  140.0610   72.6620  219.7360 C   0  0  0  0  0  0  0  0  0  0  0  0
  140.2258   72.8526  218.6652 H   0  0  0  0  0  0  0  0  0  0  0  0
  138.6050   73.1340  220.0110 C   0  0  0  0  0  0  0  0  0  0  0  0
  138.6250   73.8818  220.8175 H   0  0  0  0  0  0  0  0  0  0  0  0
  138.2116   73.5532  219.0732 H   0  0  0  0  0  0  0  0  0  0  0  0
  137.6760   71.9910  220.4280 C   0  0  0  0  0  0  0  0  0  0  0  0
  136.7359   72.4088  220.8175 H   0  0  0  0  0  0  0  0  0  0  0  0
  137.4672   71.3569  219.5537 H   0  0  0  0  0  0  0  0  0  0  0  0
  138.3170   71.1810  221.4700 N   0  0  0  0  0  0  0  0  0  0  0  0
  137.7200   71.0850  222.7780 C   0  0  0  0  0  0  0  0  0  0  0  0
  137.0360   72.0500  223.2190 O   0  0  0  0  0  0  0  0  0  0  0  0
  137.8530   69.8290  223.6230 C   0  0  1  0  0  0  0  0  0  0  0  0
  137.3402   70.0120  224.5788 H   0  0  0  0  0  0  0  0  0  0  0  0
  137.2230   68.6990  222.9350 N   0  0  0  0  0  0  0  0  0  0  0  0
  137.9380   68.2520  222.3150 H   0  0  0  0  0  0  0  0  0  0  0  0
  136.4810   69.0710  222.2970 H   0  0  0  0  0  0  0  0  0  0  0  0
  139.3390   69.5000  223.9520 C   0  0  0  0  0  0  0  0  0  0  0  0
  139.6789   68.9134  223.0858 H   0  0  0  0  0  0  0  0  0  0  0  0
  139.4800   68.6960  225.2720 C   0  0  0  0  0  0  0  0  0  0  0  0
  138.5016   68.3278  225.6143 H   0  0  0  0  0  0  0  0  0  0  0  0
  140.1142   67.8037  225.1642 H   0  0  0  0  0  0  0  0  0  0  0  0
  140.0350   69.6860  226.2230 C   0  0  0  0  0  0  0  0  0  0  0  0
  140.1600   69.5420  227.6070 C   0  0  0  0  0  0  0  0  0  0  0  0
  139.8291   68.6197  228.1070 H   0  0  0  0  0  0  0  0  0  0  0  0
  140.7160   70.5970  228.3470 C   0  0  0  0  0  0  0  0  0  0  0  0
  140.8182   70.5077  229.4386 H   0  0  0  0  0  0  0  0  0  0  0  0
  141.1430   71.7690  227.6950 C   0  0  0  0  0  0  0  0  0  0  0  0
  141.5808   72.5925  228.2783 H   0  0  0  0  0  0  0  0  0  0  0  0
  141.0120   71.8900  226.3040 C   0  0  0  0  0  0  0  0  0  0  0  0
  141.3468   72.8011  225.7866 H   0  0  0  0  0  0  0  0  0  0  0  0
  140.4480   70.8310  225.5880 C   0  0  0  0  0  0  0  0  0  0  0  0
  140.2220   70.7640  224.1240 C   0  0  0  0  0  0  0  0  0  0  0  0
  139.6974   71.6620  223.7655 H   0  0  0  0  0  0  0  0  0  0  0  0
  141.1576   70.7150  223.5476 H   0  0  0  0  0  0  0  0  0  0  0  0
  139.6340   70.5810  221.2060 C   0  0  0  0  0  0  0  0  0  0  0  0
  140.2967   70.7908  222.0586 H   0  0  0  0  0  0  0  0  0  0  0  0
  139.4917   69.4990  221.0678 H   0  0  0  0  0  0  0  0  0  0  0  0
  140.2790   71.1410  219.9270 C   0  0  0  0  0  0  0  0  0  0  0  0
  141.3610   70.9478  219.9702 H   0  0  0  0  0  0  0  0  0  0  0  0
  139.7970   70.6373  219.0762 H   0  0  0  0  0  0  0  0  0  0  0  0
  1  2  1  0
  2  3  1  0
  3  4  2  0
  4  5  1  0
  4  6  1  0
  6  7  1  0
  6  8  1  0
  6  9  1  0
  3 10  1  0
 10 11  1  0
 11 12  2  0
 12 13  1  0
 12 14  1  0
 14 15  1  0
 14 16  2  0
 16 17  1  0
 16 18  1  0
 18 19  1  0
 18 20  2  0
 20 21  1  0
 10 22  1  0
 22 23  1  0
 22 24  1  0
 24 25  1  0
 24 26  1  0
 24 27  1  0
 27 28  1  0
 27 29  1  0
 27 30  1  0
 30 31  1  0
 31 32  2  0
 31 33  1  0
 33 34  1  1
 33 35  1  0
 35 36  1  0
 35 37  1  0
 33 38  1  0
 38 39  1  0
 38 40  1  0
 40 41  1  0
 40 42  1  0
 40 43  1  0
 43 44  2  0
 44 45  1  0
 44 46  1  0
 46 47  1  0
 46 48  2  0
 48 49  1  0
 48 50  1  0
 50 51  1  0
 50 52  2  0
 52 53  1  0
 53 54  1  0
 53 55  1  0
 30 56  1  0
 56 57  1  0
 56 58  1  0
 56 59  1  0
 59 60  1  0
 59 61  1  0
 20 11  1  0
 59 22  1  0
 53 38  1  0
 52 43  1  0
M  END
>  <UniqueID>  (67) 
46

>  <SMILES>  (67) 
C/C=C(\O)N(c1ccccc1)C1CCN(C(=O)[C@@H](N)C2Cc3ccccc3C2)CC1

>  <Energy>  (67) 
83.21370759381252

>  <Genealogy>  (67) 
CC=C(O)N(c1ccccc1)C1CCN(C(=O)[C@@H](N)C2Cc3ccccc3C2)CC1 (tautomer)
C/C=C(\O)N(c1ccccc1)C1CCN(C(=O)[C@@H](N)C2Cc3ccccc3C2)CC1 (cis-trans isomerization)
C/C=C(\O)N(c1ccccc1)C1CCN(C(=O)[C@@H](N)C2Cc3ccccc3C2)CC1 (3D coordinates assigned)
C/C=C(\O)N(c1ccccc1)C1CCN(C(=O)[C@@H](N)C2Cc3ccccc3C2)CC1 (nonaromatic ring conformer: 83.21370759381252 kcal/mol)

>  <smiles>  (67) 
CCC(=O)N(c1ccccc1)C1CCN(C(=O)[C@@H](N)C2Cc3ccccc3C2)CC1

>  <score_type>  (67) 
oracle

>  <origin>  (67) 
autodockgpu

>  <m_score__min__energy>  (67) 
-8.1799999999999997

>  <m_primary>  (67) 
energy

>  <meeko>  (67) 
{"free_energy": -7.18, "intermolecular_energy": -9.56, "internal_energy": -2.06, "cluster_size": 1, "cluster_id": 4, "rank_in_cluster": 1}

>  <energy>  (67) 
-7.27

>  <cluster_rmsd>  (67) 
0.85

>  <rmsd>  (67) 
270.67

>  <cluster>  (67) 
3

$$$$
LLZHWBREMUWYMR-SCVLRMBKNA-N
     RDKit          3D

 61 64  0  0  0  0  0  0  0  0999 V2000
  137.1730   83.0890  221.2870 H   0  0  0  0  0  0  0  0  0  0  0  0
  137.8460   82.8390  222.0000 O   0  0  0  0  0  0  0  0  0  0  0  0
  138.0090   81.5400  222.4900 C   0  0  0  0  0  0  0  0  0  0  0  0
  137.2110   81.0570  223.4600 C   0  0  0  0  0  0  0  0  0  0  0  0
  136.1966   80.7299  223.1881 H   0  0  0  0  0  0  0  0  0  0  0  0
  137.6360   80.9430  224.8910 C   0  0  0  0  0  0  0  0  0  0  0  0
  136.7826   81.1719  225.5463 H   0  0  0  0  0  0  0  0  0  0  0  0
  137.9861   79.9192  225.0891 H   0  0  0  0  0  0  0  0  0  0  0  0
  138.4515   81.6542  225.0891 H   0  0  0  0  0  0  0  0  0  0  0  0
  139.0500   80.7030  221.9350 N   0  0  0  0  0  0  0  0  0  0  0  0
  140.2580   80.4910  222.6940 C   0  0  0  0  0  0  0  0  0  0  0  0
  140.4200   79.3310  223.4710 C   0  0  0  0  0  0  0  0  0  0  0  0
  139.6266   78.5693  223.4898 H   0  0  0  0  0  0  0  0  0  0  0  0
  141.5850   79.1410  224.2200 C   0  0  0  0  0  0  0  0  0  0  0  0
  141.7070   78.2297  224.8238 H   0  0  0  0  0  0  0  0  0  0  0  0
  142.5950   80.1070  224.2030 C   0  0  0  0  0  0  0  0  0  0  0  0
  143.5115   79.9553  224.7921 H   0  0  0  0  0  0  0  0  0  0  0  0
  142.4400   81.2660  223.4370 C   0  0  0  0  0  0  0  0  0  0  0  0
  143.2350   82.0261  223.4233 H   0  0  0  0  0  0  0  0  0  0  0  0
  141.2750   81.4600  222.6880 C   0  0  0  0  0  0  0  0  0  0  0  0
  141.1544   82.3761  222.0911 H   0  0  0  0  0  0  0  0  0  0  0  0
  138.9120   80.0730  220.6010 C   0  0  0  0  0  0  0  0  0  0  0  0
  138.6888   80.8647  219.8707 H   0  0  0  0  0  0  0  0  0  0  0  0
  137.6930   79.1100  220.5370 C   0  0  0  0  0  0  0  0  0  0  0  0
  137.2678   79.0141  221.5469 H   0  0  0  0  0  0  0  0  0  0  0  0
  136.9696   79.5390  219.8280 H   0  0  0  0  0  0  0  0  0  0  0  0
  138.0640   77.7140  220.0280 C   0  0  0  0  0  0  0  0  0  0  0  0
  137.2266   77.0246  220.2112 H   0  0  0  0  0  0  0  0  0  0  0  0
  138.2740   77.7661  218.9495 H   0  0  0  0  0  0  0  0  0  0  0  0
  139.2570   77.2270  220.7290 N   0  0  0  0  0  0  0  0  0  0  0  0
  139.1800   76.0410  221.5460 C   0  0  0  0  0  0  0  0  0  0  0  0
  138.0910   75.7500  222.1130 O   0  0  0  0  0  0  0  0  0  0  0  0
  140.3670   75.1060  221.7040 C   0  0  1  0  0  0  0  0  0  0  0  0
  141.0998   75.6010  222.3582 H   0  0  0  0  0  0  0  0  0  0  0  0
  139.9300   73.8490  222.3170 N   0  0  0  0  0  0  0  0  0  0  0  0
  139.5170   73.2440  221.5680 H   0  0  0  0  0  0  0  0  0  0  0  0
  139.1480   74.0580  222.9810 H   0  0  0  0  0  0  0  0  0  0  0  0
  141.0750   74.8260  220.3450 C   0  0  0  0  0  0  0  0  0  0  0  0
  140.3297   75.1210  219.5917 H   0  0  0  0  0  0  0  0  0  0  0  0
  141.4760   73.3340  220.1920 C   0  0  0  0  0  0  0  0  0  0  0  0
  141.0003   72.7175  220.9689 H   0  0  0  0  0  0  0  0  0  0  0  0
  141.1588   72.9017  219.2315 H   0  0  0  0  0  0  0  0  0  0  0  0
  142.9470   73.3520  220.3580 C   0  0  0  0  0  0  0  0  0  0  0  0
  143.7880   72.2480  220.5170 C   0  0  0  0  0  0  0  0  0  0  0  0
  143.3774   71.2276  220.5299 H   0  0  0  0  0  0  0  0  0  0  0  0
  145.1670   72.4660  220.6600 C   0  0  0  0  0  0  0  0  0  0  0  0
  145.8468   71.6114  220.7927 H   0  0  0  0  0  0  0  0  0  0  0  0
  145.6820   73.7750  220.6340 C   0  0  0  0  0  0  0  0  0  0  0  0
  146.7637   73.9411  220.7450 H   0  0  0  0  0  0  0  0  0  0  0  0
  144.8200   74.8690  220.4670 C   0  0  0  0  0  0  0  0  0  0  0  0
  145.2153   75.8951  220.4390 H   0  0  0  0  0  0  0  0  0  0  0  0
  143.4500   74.6300  220.3370 C   0  0  0  0  0  0  0  0  0  0  0  0
  142.3820   75.6420  220.1570 C   0  0  0  0  0  0  0  0  0  0  0  0
  142.4617   76.4367  220.9134 H   0  0  0  0  0  0  0  0  0  0  0  0
  142.4333   76.1508  219.1831 H   0  0  0  0  0  0  0  0  0  0  0  0
  140.4890   78.0290  220.6950 C   0  0  0  0  0  0  0  0  0  0  0  0
  140.8825   78.1185  221.7183 H   0  0  0  0  0  0  0  0  0  0  0  0
  141.2067   77.5200  220.0348 H   0  0  0  0  0  0  0  0  0  0  0  0
  140.2450   79.4400  220.1320 C   0  0  0  0  0  0  0  0  0  0  0  0
  141.0713   80.0907  220.4544 H   0  0  0  0  0  0  0  0  0  0  0  0
  140.1894   79.3452  219.0375 H   0  0  0  0  0  0  0  0  0  0  0  0
  1  2  1  0
  2  3  1  0
  3  4  2  0
  4  5  1  0
  4  6  1  0
  6  7  1  0
  6  8  1  0
  6  9  1  0
  3 10  1  0
 10 11  1  0
 11 12  2  0
 12 13  1  0
 12 14  1  0
 14 15  1  0
 14 16  2  0
 16 17  1  0
 16 18  1  0
 18 19  1  0
 18 20  2  0
 20 21  1  0
 10 22  1  0
 22 23  1  0
 22 24  1  0
 24 25  1  0
 24 26  1  0
 24 27  1  0
 27 28  1  0
 27 29  1  0
 27 30  1  0
 30 31  1  0
 31 32  2  0
 31 33  1  0
 33 34  1  1
 33 35  1  0
 35 36  1  0
 35 37  1  0
 33 38  1  0
 38 39  1  0
 38 40  1  0
 40 41  1  0
 40 42  1  0
 40 43  1  0
 43 44  2  0
 44 45  1  0
 44 46  1  0
 46 47  1  0
 46 48  2  0
 48 49  1  0
 48 50  1  0
 50 51  1  0
 50 52  2  0
 52 53  1  0
 53 54  1  0
 53 55  1  0
 30 56  1  0
 56 57  1  0
 56 58  1  0
 56 59  1  0
 59 60  1  0
 59 61  1  0
 20 11  1  0
 59 22  1  0
 53 38  1  0
 52 43  1  0
M  END
>  <UniqueID>  (68) 
46

>  <SMILES>  (68) 
C/C=C(\O)N(c1ccccc1)C1CCN(C(=O)[C@@H](N)C2Cc3ccccc3C2)CC1

>  <Energy>  (68) 
83.21370759381252

>  <Genealogy>  (68) 
CC=C(O)N(c1ccccc1)C1CCN(C(=O)[C@@H](N)C2Cc3ccccc3C2)CC1 (tautomer)
C/C=C(\O)N(c1ccccc1)C1CCN(C(=O)[C@@H](N)C2Cc3ccccc3C2)CC1 (cis-trans isomerization)
C/C=C(\O)N(c1ccccc1)C1CCN(C(=O)[C@@H](N)C2Cc3ccccc3C2)CC1 (3D coordinates assigned)
C/C=C(\O)N(c1ccccc1)C1CCN(C(=O)[C@@H](N)C2Cc3ccccc3C2)CC1 (nonaromatic ring conformer: 83.21370759381252 kcal/mol)

>  <smiles>  (68) 
CCC(=O)N(c1ccccc1)C1CCN(C(=O)[C@@H](N)C2Cc3ccccc3C2)CC1

>  <score_type>  (68) 
oracle

>  <origin>  (68) 
autodockgpu

>  <m_score__min__energy>  (68) 
-8.1799999999999997

>  <m_primary>  (68) 
energy

>  <meeko>  (68) 
{"free_energy": -6.89, "intermolecular_energy": -9.27, "internal_energy": -2.38, "cluster_size": 1, "cluster_id": 5, "rank_in_cluster": 1}

>  <energy>  (68) 
-7.23

>  <cluster_rmsd>  (68) 
0.81

>  <rmsd>  (68) 
270.67

>  <cluster>  (68) 
3

$$$$
LLZHWBREMUWYMR-SCVLRMBKNA-N
     RDKit          3D

 61 64  0  0  0  0  0  0  0  0999 V2000
  145.9600   74.2840  217.7740 H   0  0  0  0  0  0  0  0  0  0  0  0
  145.9280   73.3750  218.2160 O   0  0  0  0  0  0  0  0  0  0  0  0
  145.2190   73.1090  219.3920 C   0  0  0  0  0  0  0  0  0  0  0  0
  145.4500   73.8090  220.5170 C   0  0  0  0  0  0  0  0  0  0  0  0
  144.9794   74.7975  220.6238 H   0  0  0  0  0  0  0  0  0  0  0  0
  146.3160   73.3090  221.6310 C   0  0  0  0  0  0  0  0  0  0  0  0
  145.8597   73.5724  222.5966 H   0  0  0  0  0  0  0  0  0  0  0  0
  146.4132   72.2158  221.5575 H   0  0  0  0  0  0  0  0  0  0  0  0
  147.3114   73.7714  221.5575 H   0  0  0  0  0  0  0  0  0  0  0  0
  144.2150   72.0680  219.3890 N   0  0  0  0  0  0  0  0  0  0  0  0
  144.6360   70.6880  219.3780 C   0  0  0  0  0  0  0  0  0  0  0  0
  145.9350   70.3390  218.9690 C   0  0  0  0  0  0  0  0  0  0  0  0
  146.6440   71.1248  218.6695 H   0  0  0  0  0  0  0  0  0  0  0  0
  146.3300   68.9990  218.9410 C   0  0  0  0  0  0  0  0  0  0  0  0
  147.3485   68.7332  218.6217 H   0  0  0  0  0  0  0  0  0  0  0  0
  145.4330   67.9960  219.3180 C   0  0  0  0  0  0  0  0  0  0  0  0
  145.7468   66.9419  219.2984 H   0  0  0  0  0  0  0  0  0  0  0  0
  144.1370   68.3320  219.7200 C   0  0  0  0  0  0  0  0  0  0  0  0
  143.4307   67.5420  220.0152 H   0  0  0  0  0  0  0  0  0  0  0  0
  143.7380   69.6720  219.7470 C   0  0  0  0  0  0  0  0  0  0  0  0
  142.7157   69.9322  220.0587 H   0  0  0  0  0  0  0  0  0  0  0  0
  142.7680   72.3830  219.3810 C   0  0  0  0  0  0  0  0  0  0  0  0
  142.2189   71.4710  219.6580 H   0  0  0  0  0  0  0  0  0  0  0  0
  142.2600   72.7440  217.9560 C   0  0  0  0  0  0  0  0  0  0  0  0
  143.1255   72.8050  217.2798 H   0  0  0  0  0  0  0  0  0  0  0  0
  141.5545   71.9582  217.6481 H   0  0  0  0  0  0  0  0  0  0  0  0
  141.5100   74.0780  217.9110 C   0  0  0  0  0  0  0  0  0  0  0  0
  141.3721   74.3837  216.8634 H   0  0  0  0  0  0  0  0  0  0  0  0
  140.5298   73.9588  218.3957 H   0  0  0  0  0  0  0  0  0  0  0  0
  142.2780   75.1070  218.6210 N   0  0  0  0  0  0  0  0  0  0  0  0
  142.7640   76.2630  217.9100 C   0  0  0  0  0  0  0  0  0  0  0  0
  143.0410   76.1650  216.6820 O   0  0  0  0  0  0  0  0  0  0  0  0
  142.9060   77.6140  218.5910 C   0  0  1  0  0  0  0  0  0  0  0  0
  143.6937   77.5237  219.3535 H   0  0  0  0  0  0  0  0  0  0  0  0
  143.2880   78.6290  217.6050 N   0  0  0  0  0  0  0  0  0  0  0  0
  143.7200   78.1430  216.7850 H   0  0  0  0  0  0  0  0  0  0  0  0
  144.0440   79.2240  218.0180 H   0  0  0  0  0  0  0  0  0  0  0  0
  141.6000   78.0400  219.3240 C   0  0  0  0  0  0  0  0  0  0  0  0
  140.7968   77.6361  218.6902 H   0  0  0  0  0  0  0  0  0  0  0  0
  141.4860   79.5810  219.4680 C   0  0  0  0  0  0  0  0  0  0  0  0
  142.2347   80.0907  218.8439 H   0  0  0  0  0  0  0  0  0  0  0  0
  140.5104   79.9708  219.1421 H   0  0  0  0  0  0  0  0  0  0  0  0
  141.7490   79.8140  220.9070 C   0  0  0  0  0  0  0  0  0  0  0  0
  141.9720   81.0430  221.5310 C   0  0  0  0  0  0  0  0  0  0  0  0
  141.9667   81.9763  220.9488 H   0  0  0  0  0  0  0  0  0  0  0  0
  142.2030   81.0650  222.9150 C   0  0  0  0  0  0  0  0  0  0  0  0
  142.3868   82.0218  223.4257 H   0  0  0  0  0  0  0  0  0  0  0  0
  142.2000   79.8650  223.6510 C   0  0  0  0  0  0  0  0  0  0  0  0
  142.3800   79.8863  224.7360 H   0  0  0  0  0  0  0  0  0  0  0  0
  141.9680   78.6420  223.0040 C   0  0  0  0  0  0  0  0  0  0  0  0
  141.9588   77.7002  223.5723 H   0  0  0  0  0  0  0  0  0  0  0  0
  141.7490   78.6430  221.6250 C   0  0  0  0  0  0  0  0  0  0  0  0
  141.4910   77.4660  220.7620 C   0  0  0  0  0  0  0  0  0  0  0  0
  142.2442   76.6822  220.9306 H   0  0  0  0  0  0  0  0  0  0  0  0
  140.5181   76.9933  220.9619 H   0  0  0  0  0  0  0  0  0  0  0  0
  142.6570   74.8820  220.0240 C   0  0  0  0  0  0  0  0  0  0  0  0
  143.7261   75.1114  220.1439 H   0  0  0  0  0  0  0  0  0  0  0  0
  142.0356   75.5371  220.6522 H   0  0  0  0  0  0  0  0  0  0  0  0
  142.4090   73.4290  220.4640 C   0  0  0  0  0  0  0  0  0  0  0  0
  143.0183   73.2275  221.3574 H   0  0  0  0  0  0  0  0  0  0  0  0
  141.3313   73.3316  220.6615 H   0  0  0  0  0  0  0  0  0  0  0  0
  1  2  1  0
  2  3  1  0
  3  4  2  0
  4  5  1  0
  4  6  1  0
  6  7  1  0
  6  8  1  0
  6  9  1  0
  3 10  1  0
 10 11  1  0
 11 12  2  0
 12 13  1  0
 12 14  1  0
 14 15  1  0
 14 16  2  0
 16 17  1  0
 16 18  1  0
 18 19  1  0
 18 20  2  0
 20 21  1  0
 10 22  1  0
 22 23  1  0
 22 24  1  0
 24 25  1  0
 24 26  1  0
 24 27  1  0
 27 28  1  0
 27 29  1  0
 27 30  1  0
 30 31  1  0
 31 32  2  0
 31 33  1  0
 33 34  1  1
 33 35  1  0
 35 36  1  0
 35 37  1  0
 33 38  1  0
 38 39  1  0
 38 40  1  0
 40 41  1  0
 40 42  1  0
 40 43  1  0
 43 44  2  0
 44 45  1  0
 44 46  1  0
 46 47  1  0
 46 48  2  0
 48 49  1  0
 48 50  1  0
 50 51  1  0
 50 52  2  0
 52 53  1  0
 53 54  1  0
 53 55  1  0
 30 56  1  0
 56 57  1  0
 56 58  1  0
 56 59  1  0
 59 60  1  0
 59 61  1  0
 20 11  1  0
 59 22  1  0
 53 38  1  0
 52 43  1  0
M  END
>  <UniqueID>  (69) 
46

>  <SMILES>  (69) 
C/C=C(\O)N(c1ccccc1)C1CCN(C(=O)[C@@H](N)C2Cc3ccccc3C2)CC1

>  <Energy>  (69) 
83.21370759381252

>  <Genealogy>  (69) 
CC=C(O)N(c1ccccc1)C1CCN(C(=O)[C@@H](N)C2Cc3ccccc3C2)CC1 (tautomer)
C/C=C(\O)N(c1ccccc1)C1CCN(C(=O)[C@@H](N)C2Cc3ccccc3C2)CC1 (cis-trans isomerization)
C/C=C(\O)N(c1ccccc1)C1CCN(C(=O)[C@@H](N)C2Cc3ccccc3C2)CC1 (3D coordinates assigned)
C/C=C(\O)N(c1ccccc1)C1CCN(C(=O)[C@@H](N)C2Cc3ccccc3C2)CC1 (nonaromatic ring conformer: 83.21370759381252 kcal/mol)

>  <smiles>  (69) 
CCC(=O)N(c1ccccc1)C1CCN(C(=O)[C@@H](N)C2Cc3ccccc3C2)CC1

>  <score_type>  (69) 
oracle

>  <origin>  (69) 
autodockgpu

>  <m_score__min__energy>  (69) 
-8.1799999999999997

>  <m_primary>  (69) 
energy

>  <meeko>  (69) 
{"free_energy": -8.16, "intermolecular_energy": -10.55, "internal_energy": -1.92, "cluster_size": 4, "cluster_id": 1, "rank_in_cluster": 2}

>  <energy>  (69) 
-7.22

>  <cluster_rmsd>  (69) 
0.09

>  <rmsd>  (69) 
270.76

>  <cluster>  (69) 
3

$$$$
LLZHWBREMUWYMR-SCVLRMBKNA-N
     RDKit          3D

 61 64  0  0  0  0  0  0  0  0999 V2000
  145.9590   74.3010  217.7730 H   0  0  0  0  0  0  0  0  0  0  0  0
  145.9130   73.3930  218.2180 O   0  0  0  0  0  0  0  0  0  0  0  0
  145.2540   73.1550  219.4280 C   0  0  0  0  0  0  0  0  0  0  0  0
  145.5370   73.8770  220.5270 C   0  0  0  0  0  0  0  0  0  0  0  0
  145.1633   74.9100  220.5841 H   0  0  0  0  0  0  0  0  0  0  0  0
  146.3350   73.3450  221.6760 C   0  0  0  0  0  0  0  0  0  0  0  0
  145.8680   73.6563  222.6221 H   0  0  0  0  0  0  0  0  0  0  0  0
  146.3635   72.2465  221.6252 H   0  0  0  0  0  0  0  0  0  0  0  0
  147.3599   73.7412  221.6252 H   0  0  0  0  0  0  0  0  0  0  0  0
  144.2470   72.1190  219.4900 N   0  0  0  0  0  0  0  0  0  0  0  0
  144.6590   70.7370  219.4320 C   0  0  0  0  0  0  0  0  0  0  0  0
  145.9450   70.3920  218.9830 C   0  0  0  0  0  0  0  0  0  0  0  0
  146.6519   71.1813  218.6876 H   0  0  0  0  0  0  0  0  0  0  0  0
  146.3300   69.0500  218.9100 C   0  0  0  0  0  0  0  0  0  0  0  0
  147.3389   68.7866  218.5597 H   0  0  0  0  0  0  0  0  0  0  0  0
  145.4360   68.0430  219.2810 C   0  0  0  0  0  0  0  0  0  0  0  0
  145.7419   66.9879  219.2247 H   0  0  0  0  0  0  0  0  0  0  0  0
  144.1520   68.3760  219.7240 C   0  0  0  0  0  0  0  0  0  0  0  0
  143.4479   67.5828  220.0158 H   0  0  0  0  0  0  0  0  0  0  0  0
  143.7630   69.7180  219.7960 C   0  0  0  0  0  0  0  0  0  0  0  0
  142.7505   69.9766  220.1394 H   0  0  0  0  0  0  0  0  0  0  0  0
  142.8060   72.4410  219.5950 C   0  0  0  0  0  0  0  0  0  0  0  0
  142.2838   71.5473  219.9672 H   0  0  0  0  0  0  0  0  0  0  0  0
  142.1720   72.7300  218.2050 C   0  0  0  0  0  0  0  0  0  0  0  0
  142.9730   72.7509  217.4514 H   0  0  0  0  0  0  0  0  0  0  0  0
  141.4411   71.9331  218.0034 H   0  0  0  0  0  0  0  0  0  0  0  0
  141.4220   74.0640  218.1580 C   0  0  0  0  0  0  0  0  0  0  0  0
  141.1905   74.3156  217.1125 H   0  0  0  0  0  0  0  0  0  0  0  0
  140.4894   73.9754  218.7346 H   0  0  0  0  0  0  0  0  0  0  0  0
  142.2510   75.1240  218.7410 N   0  0  0  0  0  0  0  0  0  0  0  0
  142.6720   76.2390  217.9300 C   0  0  0  0  0  0  0  0  0  0  0  0
  142.8370   76.0750  216.6890 O   0  0  0  0  0  0  0  0  0  0  0  0
  142.8750   77.6230  218.5230 C   0  0  1  0  0  0  0  0  0  0  0  0
  143.6543   77.5447  219.2954 H   0  0  0  0  0  0  0  0  0  0  0  0
  143.3100   78.5530  217.4780 N   0  0  0  0  0  0  0  0  0  0  0  0
  143.7490   77.9970  216.7070 H   0  0  0  0  0  0  0  0  0  0  0  0
  144.0720   79.1570  217.8670 H   0  0  0  0  0  0  0  0  0  0  0  0
  141.5870   78.1570  219.2180 C   0  0  0  0  0  0  0  0  0  0  0  0
  140.7782   77.8812  218.5253 H   0  0  0  0  0  0  0  0  0  0  0  0
  141.6390   79.6910  219.4450 C   0  0  0  0  0  0  0  0  0  0  0  0
  142.4729   80.1428  218.8878 H   0  0  0  0  0  0  0  0  0  0  0  0
  140.7322   80.2065  219.0958 H   0  0  0  0  0  0  0  0  0  0  0  0
  141.8480   79.8180  220.9050 C   0  0  0  0  0  0  0  0  0  0  0  0
  142.1740   80.9790  221.6090 C   0  0  0  0  0  0  0  0  0  0  0  0
  142.3045   81.9356  221.0819 H   0  0  0  0  0  0  0  0  0  0  0  0
  142.3320   80.9030  223.0010 C   0  0  0  0  0  0  0  0  0  0  0  0
  142.5947   81.8046  223.5738 H   0  0  0  0  0  0  0  0  0  0  0  0
  142.1550   79.6750  223.6660 C   0  0  0  0  0  0  0  0  0  0  0  0
  142.2772   79.6193  224.7578 H   0  0  0  0  0  0  0  0  0  0  0  0
  141.8230   78.5220  222.9390 C   0  0  0  0  0  0  0  0  0  0  0  0
  141.6780   77.5593  223.4511 H   0  0  0  0  0  0  0  0  0  0  0  0
  141.6800   78.6190  221.5530 C   0  0  0  0  0  0  0  0  0  0  0  0
  141.3380   77.5250  220.6130 C   0  0  0  0  0  0  0  0  0  0  0  0
  141.9887   76.6524  220.7714 H   0  0  0  0  0  0  0  0  0  0  0  0
  140.3093   77.1565  220.7396 H   0  0  0  0  0  0  0  0  0  0  0  0
  142.7540   74.9710  220.1140 C   0  0  0  0  0  0  0  0  0  0  0  0
  143.8296   75.2011  220.1256 H   0  0  0  0  0  0  0  0  0  0  0  0
  142.1916   75.6612  220.7600 H   0  0  0  0  0  0  0  0  0  0  0  0
  142.5460   73.5440  220.6500 C   0  0  0  0  0  0  0  0  0  0  0  0
  143.2330   73.3862  221.4945 H   0  0  0  0  0  0  0  0  0  0  0  0
  141.4904   73.4624  220.9482 H   0  0  0  0  0  0  0  0  0  0  0  0
  1  2  1  0
  2  3  1  0
  3  4  2  0
  4  5  1  0
  4  6  1  0
  6  7  1  0
  6  8  1  0
  6  9  1  0
  3 10  1  0
 10 11  1  0
 11 12  2  0
 12 13  1  0
 12 14  1  0
 14 15  1  0
 14 16  2  0
 16 17  1  0
 16 18  1  0
 18 19  1  0
 18 20  2  0
 20 21  1  0
 10 22  1  0
 22 23  1  0
 22 24  1  0
 24 25  1  0
 24 26  1  0
 24 27  1  0
 27 28  1  0
 27 29  1  0
 27 30  1  0
 30 31  1  0
 31 32  2  0
 31 33  1  0
 33 34  1  1
 33 35  1  0
 35 36  1  0
 35 37  1  0
 33 38  1  0
 38 39  1  0
 38 40  1  0
 40 41  1  0
 40 42  1  0
 40 43  1  0
 43 44  2  0
 44 45  1  0
 44 46  1  0
 46 47  1  0
 46 48  2  0
 48 49  1  0
 48 50  1  0
 50 51  1  0
 50 52  2  0
 52 53  1  0
 53 54  1  0
 53 55  1  0
 30 56  1  0
 56 57  1  0
 56 58  1  0
 56 59  1  0
 59 60  1  0
 59 61  1  0
 20 11  1  0
 59 22  1  0
 53 38  1  0
 52 43  1  0
M  END
>  <UniqueID>  (70) 
46

>  <SMILES>  (70) 
C/C=C(\O)N(c1ccccc1)C1CCN(C(=O)[C@@H](N)C2Cc3ccccc3C2)CC1

>  <Energy>  (70) 
83.21370759381252

>  <Genealogy>  (70) 
CC=C(O)N(c1ccccc1)C1CCN(C(=O)[C@@H](N)C2Cc3ccccc3C2)CC1 (tautomer)
C/C=C(\O)N(c1ccccc1)C1CCN(C(=O)[C@@H](N)C2Cc3ccccc3C2)CC1 (cis-trans isomerization)
C/C=C(\O)N(c1ccccc1)C1CCN(C(=O)[C@@H](N)C2Cc3ccccc3C2)CC1 (3D coordinates assigned)
C/C=C(\O)N(c1ccccc1)C1CCN(C(=O)[C@@H](N)C2Cc3ccccc3C2)CC1 (nonaromatic ring conformer: 83.21370759381252 kcal/mol)

>  <smiles>  (70) 
CCC(=O)N(c1ccccc1)C1CCN(C(=O)[C@@H](N)C2Cc3ccccc3C2)CC1

>  <score_type>  (70) 
oracle

>  <origin>  (70) 
autodockgpu

>  <m_score__min__energy>  (70) 
-8.1799999999999997

>  <m_primary>  (70) 
energy

>  <meeko>  (70) 
{"free_energy": -8.18, "intermolecular_energy": -10.57, "internal_energy": -1.9, "cluster_size": 4, "cluster_id": 1, "rank_in_cluster": 1}

>  <energy>  (70) 
-7.2

>  <cluster_rmsd>  (70) 
0.81

>  <rmsd>  (70) 
270.63

>  <cluster>  (70) 
3

$$$$
LLZHWBREMUWYMR-SCVLRMBKNA-N
     RDKit          3D

 61 64  0  0  0  0  0  0  0  0999 V2000
  134.0960   68.2470  224.0690 H   0  0  0  0  0  0  0  0  0  0  0  0
  135.0790   68.1570  224.2920 O   0  0  0  0  0  0  0  0  0  0  0  0
  135.9530   69.2430  224.3910 C   0  0  0  0  0  0  0  0  0  0  0  0
  135.5480   70.4170  224.9080 C   0  0  0  0  0  0  0  0  0  0  0  0
  135.0388   70.4109  225.8830 H   0  0  0  0  0  0  0  0  0  0  0  0
  135.7560   71.7320  224.2220 C   0  0  0  0  0  0  0  0  0  0  0  0
  135.8811   72.5231  224.9760 H   0  0  0  0  0  0  0  0  0  0  0  0
  136.6569   71.6790  223.5931 H   0  0  0  0  0  0  0  0  0  0  0  0
  134.8827   71.9597  223.5931 H   0  0  0  0  0  0  0  0  0  0  0  0
  137.3180   69.0940  223.9350 N   0  0  0  0  0  0  0  0  0  0  0  0
  138.3940   69.2470  224.8840 C   0  0  0  0  0  0  0  0  0  0  0  0
  138.7750   68.1780  225.7130 C   0  0  0  0  0  0  0  0  0  0  0  0
  138.2603   67.2095  225.6288 H   0  0  0  0  0  0  0  0  0  0  0  0
  139.8050   68.3400  226.6440 C   0  0  0  0  0  0  0  0  0  0  0  0
  140.1004   67.4986  227.2880 H   0  0  0  0  0  0  0  0  0  0  0  0
  140.4600   69.5690  226.7580 C   0  0  0  0  0  0  0  0  0  0  0  0
  141.2716   69.6938  227.4899 H   0  0  0  0  0  0  0  0  0  0  0  0
  140.0840   70.6400  225.9420 C   0  0  0  0  0  0  0  0  0  0  0  0
  140.5995   71.6075  226.0325 H   0  0  0  0  0  0  0  0  0  0  0  0
  139.0530   70.4820  225.0110 C   0  0  0  0  0  0  0  0  0  0  0  0
  138.7560   71.3286  224.3746 H   0  0  0  0  0  0  0  0  0  0  0  0
  137.6370   68.8030  222.5190 C   0  0  0  0  0  0  0  0  0  0  0  0
  137.1644   67.8460  222.2529 H   0  0  0  0  0  0  0  0  0  0  0  0
  139.1600   68.5760  222.3010 C   0  0  0  0  0  0  0  0  0  0  0  0
  139.6868   68.8053  223.2390 H   0  0  0  0  0  0  0  0  0  0  0  0
  139.2976   67.5269  222.0000 H   0  0  0  0  0  0  0  0  0  0  0  0
  139.7400   69.4530  221.1880 C   0  0  0  0  0  0  0  0  0  0  0  0
  140.8386   69.4139  221.2279 H   0  0  0  0  0  0  0  0  0  0  0  0
  139.3899   69.0808  220.2139 H   0  0  0  0  0  0  0  0  0  0  0  0
  139.2960   70.8400  221.3630 N   0  0  0  0  0  0  0  0  0  0  0  0
  140.2620   71.8830  221.6010 C   0  0  0  0  0  0  0  0  0  0  0  0
  141.3390   71.6040  222.1980 O   0  0  0  0  0  0  0  0  0  0  0  0
  140.0390   73.3020  221.1070 C   0  0  1  0  0  0  0  0  0  0  0  0
  138.9846   73.3912  220.8065 H   0  0  0  0  0  0  0  0  0  0  0  0
  140.3270   74.2530  222.1850 N   0  0  0  0  0  0  0  0  0  0  0  0
  141.1530   73.9010  222.7220 H   0  0  0  0  0  0  0  0  0  0  0  0
  139.5240   74.2470  222.8560 H   0  0  0  0  0  0  0  0  0  0  0  0
  140.9050   73.6280  219.8550 C   0  0  0  0  0  0  0  0  0  0  0  0
  140.1706   73.9548  219.1040 H   0  0  0  0  0  0  0  0  0  0  0  0
  141.7090   72.3950  219.3630 C   0  0  0  0  0  0  0  0  0  0  0  0
  141.3580   71.4755  219.8542 H   0  0  0  0  0  0  0  0  0  0  0  0
  141.6011   72.2170  218.2829 H   0  0  0  0  0  0  0  0  0  0  0  0
  143.1010   72.7080  219.7590 C   0  0  0  0  0  0  0  0  0  0  0  0
  144.1950   71.8410  219.7390 C   0  0  0  0  0  0  0  0  0  0  0  0
  144.0782   70.7993  219.4056 H   0  0  0  0  0  0  0  0  0  0  0  0
  145.4460   72.3230  220.1520 C   0  0  0  0  0  0  0  0  0  0  0  0
  146.3199   71.6550  220.1492 H   0  0  0  0  0  0  0  0  0  0  0  0
  145.5850   73.6600  220.5700 C   0  0  0  0  0  0  0  0  0  0  0  0
  146.5677   74.0344  220.8928 H   0  0  0  0  0  0  0  0  0  0  0  0
  144.4740   74.5160  220.5760 C   0  0  0  0  0  0  0  0  0  0  0  0
  144.5753   75.5639  220.8949 H   0  0  0  0  0  0  0  0  0  0  0  0
  143.2360   74.0120  220.1690 C   0  0  0  0  0  0  0  0  0  0  0  0
  141.9500   74.7470  220.1070 C   0  0  0  0  0  0  0  0  0  0  0  0
  141.7483   75.2671  221.0551 H   0  0  0  0  0  0  0  0  0  0  0  0
  141.9389   75.5263  219.3307 H   0  0  0  0  0  0  0  0  0  0  0  0
  137.8560   71.1320  221.4230 C   0  0  0  0  0  0  0  0  0  0  0  0
  137.6623   71.7856  222.2863 H   0  0  0  0  0  0  0  0  0  0  0  0
  137.5699   71.6210  220.4801 H   0  0  0  0  0  0  0  0  0  0  0  0
  137.0120   69.8540  221.5690 C   0  0  0  0  0  0  0  0  0  0  0  0
  136.0232   70.1333  221.9618 H   0  0  0  0  0  0  0  0  0  0  0  0
  136.9513   69.3921  220.5725 H   0  0  0  0  0  0  0  0  0  0  0  0
  1  2  1  0
  2  3  1  0
  3  4  2  0
  4  5  1  0
  4  6  1  0
  6  7  1  0
  6  8  1  0
  6  9  1  0
  3 10  1  0
 10 11  1  0
 11 12  2  0
 12 13  1  0
 12 14  1  0
 14 15  1  0
 14 16  2  0
 16 17  1  0
 16 18  1  0
 18 19  1  0
 18 20  2  0
 20 21  1  0
 10 22  1  0
 22 23  1  0
 22 24  1  0
 24 25  1  0
 24 26  1  0
 24 27  1  0
 27 28  1  0
 27 29  1  0
 27 30  1  0
 30 31  1  0
 31 32  2  0
 31 33  1  0
 33 34  1  6
 33 35  1  0
 35 36  1  0
 35 37  1  0
 33 38  1  0
 38 39  1  0
 38 40  1  0
 40 41  1  0
 40 42  1  0
 40 43  1  0
 43 44  2  0
 44 45  1  0
 44 46  1  0
 46 47  1  0
 46 48  2  0
 48 49  1  0
 48 50  1  0
 50 51  1  0
 50 52  2  0
 52 53  1  0
 53 54  1  0
 53 55  1  0
 30 56  1  0
 56 57  1  0
 56 58  1  0
 56 59  1  0
 59 60  1  0
 59 61  1  0
 20 11  1  0
 59 22  1  0
 53 38  1  0
 52 43  1  0
M  END
>  <UniqueID>  (71) 
46

>  <SMILES>  (71) 
C/C=C(\O)N(c1ccccc1)C1CCN(C(=O)[C@@H](N)C2Cc3ccccc3C2)CC1

>  <Energy>  (71) 
83.21370759381252

>  <Genealogy>  (71) 
CC=C(O)N(c1ccccc1)C1CCN(C(=O)[C@@H](N)C2Cc3ccccc3C2)CC1 (tautomer)
C/C=C(\O)N(c1ccccc1)C1CCN(C(=O)[C@@H](N)C2Cc3ccccc3C2)CC1 (cis-trans isomerization)
C/C=C(\O)N(c1ccccc1)C1CCN(C(=O)[C@@H](N)C2Cc3ccccc3C2)CC1 (3D coordinates assigned)
C/C=C(\O)N(c1ccccc1)C1CCN(C(=O)[C@@H](N)C2Cc3ccccc3C2)CC1 (nonaromatic ring conformer: 83.21370759381252 kcal/mol)

>  <smiles>  (71) 
CCC(=O)N(c1ccccc1)C1CCN(C(=O)[C@@H](N)C2Cc3ccccc3C2)CC1

>  <score_type>  (71) 
oracle

>  <origin>  (71) 
autodockgpu

>  <m_score__min__energy>  (71) 
-8.1799999999999997

>  <m_primary>  (71) 
energy

>  <meeko>  (71) 
{"free_energy": -6.51, "intermolecular_energy": -8.89, "internal_energy": -2.55, "cluster_size": 1, "cluster_id": 7, "rank_in_cluster": 1}

>  <energy>  (71) 
-7.09

>  <cluster_rmsd>  (71) 
0.2

>  <rmsd>  (71) 
270.78

>  <cluster>  (71) 
3

$$$$
LLZHWBREMUWYMR-SCVLRMBKNA-N
     RDKit          3D

 61 64  0  0  0  0  0  0  0  0999 V2000
  146.2350   71.0670  220.1480 H   0  0  0  0  0  0  0  0  0  0  0  0
  146.0370   71.7180  219.4000 O   0  0  0  0  0  0  0  0  0  0  0  0
  145.5520   73.0130  219.6090 C   0  0  0  0  0  0  0  0  0  0  0  0
  146.0980   73.8180  220.5380 C   0  0  0  0  0  0  0  0  0  0  0  0
  146.3567   74.8479  220.2508 H   0  0  0  0  0  0  0  0  0  0  0  0
  146.3710   73.3810  221.9440 C   0  0  0  0  0  0  0  0  0  0  0  0
  145.9219   74.0999  222.6451 H   0  0  0  0  0  0  0  0  0  0  0  0
  145.9341   72.3852  222.1098 H   0  0  0  0  0  0  0  0  0  0  0  0
  147.4575   73.3369  222.1098 H   0  0  0  0  0  0  0  0  0  0  0  0
  144.4510   73.4920  218.8030 N   0  0  0  0  0  0  0  0  0  0  0  0
  144.6800   73.7920  217.4100 C   0  0  0  0  0  0  0  0  0  0  0  0
  145.1750   72.8070  216.5380 C   0  0  0  0  0  0  0  0  0  0  0  0
  145.3751   71.7928  216.9141 H   0  0  0  0  0  0  0  0  0  0  0  0
  145.4140   73.1110  215.1950 C   0  0  0  0  0  0  0  0  0  0  0  0
  145.7997   72.3355  214.5169 H   0  0  0  0  0  0  0  0  0  0  0  0
  145.1640   74.3980  214.7120 C   0  0  0  0  0  0  0  0  0  0  0  0
  145.3505   74.6343  213.6540 H   0  0  0  0  0  0  0  0  0  0  0  0
  144.6770   75.3850  215.5730 C   0  0  0  0  0  0  0  0  0  0  0  0
  144.4807   76.3982  215.1923 H   0  0  0  0  0  0  0  0  0  0  0  0
  144.4390   75.0860  216.9180 C   0  0  0  0  0  0  0  0  0  0  0  0
  144.0614   75.8673  217.5940 H   0  0  0  0  0  0  0  0  0  0  0  0
  143.1010   73.6970  219.3760 C   0  0  0  0  0  0  0  0  0  0  0  0
  142.8083   72.7737  219.8974 H   0  0  0  0  0  0  0  0  0  0  0  0
  142.0250   73.8960  218.2710 C   0  0  0  0  0  0  0  0  0  0  0  0
  142.5309   73.9630  217.2965 H   0  0  0  0  0  0  0  0  0  0  0  0
  141.3402   73.0365  218.3186 H   0  0  0  0  0  0  0  0  0  0  0  0
  141.1880   75.1620  218.4750 C   0  0  0  0  0  0  0  0  0  0  0  0
  140.6073   75.3661  217.5634 H   0  0  0  0  0  0  0  0  0  0  0  0
  140.5059   75.0119  219.3248 H   0  0  0  0  0  0  0  0  0  0  0  0
  142.0670   76.3020  218.7570 N   0  0  0  0  0  0  0  0  0  0  0  0
  142.1010   77.4270  217.8560 C   0  0  0  0  0  0  0  0  0  0  0  0
  141.8660   77.2450  216.6290 O   0  0  0  0  0  0  0  0  0  0  0  0
  142.3670   78.8380  218.3530 C   0  0  1  0  0  0  0  0  0  0  0  0
  143.2667   78.8069  218.9851 H   0  0  0  0  0  0  0  0  0  0  0  0
  142.5980   79.7310  217.2150 N   0  0  0  0  0  0  0  0  0  0  0  0
  142.8990   79.1490  216.3980 H   0  0  0  0  0  0  0  0  0  0  0  0
  143.4090   80.3520  217.4400 H   0  0  0  0  0  0  0  0  0  0  0  0
  141.2010   79.3760  219.2340 C   0  0  0  0  0  0  0  0  0  0  0  0
  140.4028   79.5968  218.5100 H   0  0  0  0  0  0  0  0  0  0  0  0
  141.6080   80.6430  220.0320 C   0  0  0  0  0  0  0  0  0  0  0  0
  142.5650   81.0457  219.6687 H   0  0  0  0  0  0  0  0  0  0  0  0
  140.8815   81.4630  219.9328 H   0  0  0  0  0  0  0  0  0  0  0  0
  141.7350   80.1510  221.4230 C   0  0  0  0  0  0  0  0  0  0  0  0
  142.2820   80.8360  222.5100 C   0  0  0  0  0  0  0  0  0  0  0  0
  142.6809   81.8538  222.3880 H   0  0  0  0  0  0  0  0  0  0  0  0
  142.3130   80.2010  223.7610 C   0  0  0  0  0  0  0  0  0  0  0  0
  142.7440   80.7205  224.6295 H   0  0  0  0  0  0  0  0  0  0  0  0
  141.7940   78.9010  223.9070 C   0  0  0  0  0  0  0  0  0  0  0  0
  141.8188   78.4074  224.8897 H   0  0  0  0  0  0  0  0  0  0  0  0
  141.2450   78.2330  222.8020 C   0  0  0  0  0  0  0  0  0  0  0  0
  140.8325   77.2188  222.9086 H   0  0  0  0  0  0  0  0  0  0  0  0
  141.2320   78.8800  221.5640 C   0  0  0  0  0  0  0  0  0  0  0  0
  140.7030   78.3490  220.2850 C   0  0  0  0  0  0  0  0  0  0  0  0
  141.1070   77.3470  220.0780 H   0  0  0  0  0  0  0  0  0  0  0  0
  139.6090   78.2347  220.2879 H   0  0  0  0  0  0  0  0  0  0  0  0
  143.0020   76.2270  219.8890 C   0  0  0  0  0  0  0  0  0  0  0  0
  143.9980   76.5462  219.5482 H   0  0  0  0  0  0  0  0  0  0  0  0
  142.6232   76.8844  220.6855 H   0  0  0  0  0  0  0  0  0  0  0  0
  143.1060   74.8020  220.4600 C   0  0  0  0  0  0  0  0  0  0  0  0
  144.0427   74.7241  221.0314 H   0  0  0  0  0  0  0  0  0  0  0  0
  142.2174   74.6410  221.0882 H   0  0  0  0  0  0  0  0  0  0  0  0
  1  2  1  0
  2  3  1  0
  3  4  2  0
  4  5  1  0
  4  6  1  0
  6  7  1  0
  6  8  1  0
  6  9  1  0
  3 10  1  0
 10 11  1  0
 11 12  2  0
 12 13  1  0
 12 14  1  0
 14 15  1  0
 14 16  2  0
 16 17  1  0
 16 18  1  0
 18 19  1  0
 18 20  2  0
 20 21  1  0
 10 22  1  0
 22 23  1  0
 22 24  1  0
 24 25  1  0
 24 26  1  0
 24 27  1  0
 27 28  1  0
 27 29  1  0
 27 30  1  0
 30 31  1  0
 31 32  2  0
 31 33  1  0
 33 34  1  1
 33 35  1  0
 35 36  1  0
 35 37  1  0
 33 38  1  0
 38 39  1  0
 38 40  1  0
 40 41  1  0
 40 42  1  0
 40 43  1  0
 43 44  2  0
 44 45  1  0
 44 46  1  0
 46 47  1  0
 46 48  2  0
 48 49  1  0
 48 50  1  0
 50 51  1  0
 50 52  2  0
 52 53  1  0
 53 54  1  0
 53 55  1  0
 30 56  1  0
 56 57  1  0
 56 58  1  0
 56 59  1  0
 59 60  1  0
 59 61  1  0
 20 11  1  0
 59 22  1  0
 53 38  1  0
 52 43  1  0
M  END
>  <UniqueID>  (72) 
46

>  <SMILES>  (72) 
C/C=C(\O)N(c1ccccc1)C1CCN(C(=O)[C@@H](N)C2Cc3ccccc3C2)CC1

>  <Energy>  (72) 
83.21370759381252

>  <Genealogy>  (72) 
CC=C(O)N(c1ccccc1)C1CCN(C(=O)[C@@H](N)C2Cc3ccccc3C2)CC1 (tautomer)
C/C=C(\O)N(c1ccccc1)C1CCN(C(=O)[C@@H](N)C2Cc3ccccc3C2)CC1 (cis-trans isomerization)
C/C=C(\O)N(c1ccccc1)C1CCN(C(=O)[C@@H](N)C2Cc3ccccc3C2)CC1 (3D coordinates assigned)
C/C=C(\O)N(c1ccccc1)C1CCN(C(=O)[C@@H](N)C2Cc3ccccc3C2)CC1 (nonaromatic ring conformer: 83.21370759381252 kcal/mol)

>  <smiles>  (72) 
CCC(=O)N(c1ccccc1)C1CCN(C(=O)[C@@H](N)C2Cc3ccccc3C2)CC1

>  <score_type>  (72) 
oracle

>  <origin>  (72) 
autodockgpu

>  <m_score__min__energy>  (72) 
-8.1799999999999997

>  <m_primary>  (72) 
energy

>  <meeko>  (72) 
{"free_energy": -7.22, "intermolecular_energy": -9.61, "internal_energy": -2.42, "cluster_size": 9, "cluster_id": 3, "rank_in_cluster": 4}

>  <energy>  (72) 
-7.09

>  <cluster_rmsd>  (72) 
0.88

>  <rmsd>  (72) 
270.69

>  <cluster>  (72) 
3

$$$$
LLZHWBREMUWYMR-SCVLRMBKNA-N
     RDKit          3D

 61 64  0  0  0  0  0  0  0  0999 V2000
  146.2180   70.8960  220.0810 H   0  0  0  0  0  0  0  0  0  0  0  0
  146.0690   71.5660  219.3370 O   0  0  0  0  0  0  0  0  0  0  0  0
  145.6650   72.8870  219.5540 C   0  0  0  0  0  0  0  0  0  0  0  0
  146.3030   73.6730  220.4400 C   0  0  0  0  0  0  0  0  0  0  0  0
  146.8363   74.5586  220.0641 H   0  0  0  0  0  0  0  0  0  0  0  0
  146.3230   73.4020  221.9120 C   0  0  0  0  0  0  0  0  0  0  0  0
  146.2528   74.3527  222.4608 H   0  0  0  0  0  0  0  0  0  0  0  0
  145.4697   72.7610  222.1784 H   0  0  0  0  0  0  0  0  0  0  0  0
  147.2611   72.8932  222.1784 H   0  0  0  0  0  0  0  0  0  0  0  0
  144.5460   73.4140  218.8030 N   0  0  0  0  0  0  0  0  0  0  0  0
  144.7340   73.7610  217.4150 C   0  0  0  0  0  0  0  0  0  0  0  0
  145.2230   72.8110  216.5010 C   0  0  0  0  0  0  0  0  0  0  0  0
  145.4498   71.7896  216.8407 H   0  0  0  0  0  0  0  0  0  0  0  0
  145.4220   73.1600  215.1620 C   0  0  0  0  0  0  0  0  0  0  0  0
  145.8020   72.4122  214.4504 H   0  0  0  0  0  0  0  0  0  0  0  0
  145.1390   74.4570  214.7260 C   0  0  0  0  0  0  0  0  0  0  0  0
  145.2939   74.7289  213.6714 H   0  0  0  0  0  0  0  0  0  0  0  0
  144.6590   75.4090  215.6300 C   0  0  0  0  0  0  0  0  0  0  0  0
  144.4377   76.4304  215.2867 H   0  0  0  0  0  0  0  0  0  0  0  0
  144.4600   75.0640  216.9700 C   0  0  0  0  0  0  0  0  0  0  0  0
  144.0868   75.8173  217.6794 H   0  0  0  0  0  0  0  0  0  0  0  0
  143.2200   73.6210  219.4280 C   0  0  0  0  0  0  0  0  0  0  0  0
  142.9532   72.7029  219.9720 H   0  0  0  0  0  0  0  0  0  0  0  0
  142.0990   73.8020  218.3660 C   0  0  0  0  0  0  0  0  0  0  0  0
  142.5643   73.8593  217.3709 H   0  0  0  0  0  0  0  0  0  0  0  0
  141.4208   72.9402  218.4519 H   0  0  0  0  0  0  0  0  0  0  0  0
  141.2650   75.0670  218.5890 C   0  0  0  0  0  0  0  0  0  0  0  0
  140.6459   75.2572  217.6999 H   0  0  0  0  0  0  0  0  0  0  0  0
  140.6193   74.9249  219.4681 H   0  0  0  0  0  0  0  0  0  0  0  0
  142.1500   76.2140  218.8200 N   0  0  0  0  0  0  0  0  0  0  0  0
  142.1430   77.3270  217.9050 C   0  0  0  0  0  0  0  0  0  0  0  0
  141.8580   77.1290  216.6910 O   0  0  0  0  0  0  0  0  0  0  0  0
  142.4220   78.7450  218.3740 C   0  0  1  0  0  0  0  0  0  0  0  0
  143.3267   78.7197  218.9991 H   0  0  0  0  0  0  0  0  0  0  0  0
  142.6480   79.6150  217.2170 N   0  0  0  0  0  0  0  0  0  0  0  0
  142.9150   79.0150  216.4020 H   0  0  0  0  0  0  0  0  0  0  0  0
  143.4800   80.2190  217.4130 H   0  0  0  0  0  0  0  0  0  0  0  0
  141.2680   79.3070  219.2550 C   0  0  0  0  0  0  0  0  0  0  0  0
  140.4685   79.5299  218.5331 H   0  0  0  0  0  0  0  0  0  0  0  0
  141.6960   80.5770  220.0370 C   0  0  0  0  0  0  0  0  0  0  0  0
  142.6559   80.9634  219.6638 H   0  0  0  0  0  0  0  0  0  0  0  0
  140.9795   81.4052  219.9332 H   0  0  0  0  0  0  0  0  0  0  0  0
  141.8250   80.0980  221.4330 C   0  0  0  0  0  0  0  0  0  0  0  0
  142.3860   80.7870  222.5090 C   0  0  0  0  0  0  0  0  0  0  0  0
  142.7969   81.7984  222.3739 H   0  0  0  0  0  0  0  0  0  0  0  0
  142.4160   80.1650  223.7670 C   0  0  0  0  0  0  0  0  0  0  0  0
  142.8577   80.6884  224.6278 H   0  0  0  0  0  0  0  0  0  0  0  0
  141.8820   78.8730  223.9290 C   0  0  0  0  0  0  0  0  0  0  0  0
  141.9071   78.3890  224.9165 H   0  0  0  0  0  0  0  0  0  0  0  0
  141.3180   78.2010  222.8350 C   0  0  0  0  0  0  0  0  0  0  0  0
  140.8932   77.1934  222.9544 H   0  0  0  0  0  0  0  0  0  0  0  0
  141.3060   78.8360  221.5900 C   0  0  0  0  0  0  0  0  0  0  0  0
  140.7630   78.2980  220.3200 C   0  0  0  0  0  0  0  0  0  0  0  0
  141.1530   77.2887  220.1217 H   0  0  0  0  0  0  0  0  0  0  0  0
  139.6676   78.1978  220.3303 H   0  0  0  0  0  0  0  0  0  0  0  0
  143.1320   76.1560  219.9140 C   0  0  0  0  0  0  0  0  0  0  0  0
  144.1120   76.4735  219.5282 H   0  0  0  0  0  0  0  0  0  0  0  0
  142.7845   76.8225  220.7171 H   0  0  0  0  0  0  0  0  0  0  0  0
  143.2640   74.7390  220.4980 C   0  0  0  0  0  0  0  0  0  0  0  0
  144.2230   74.6711  221.0326 H   0  0  0  0  0  0  0  0  0  0  0  0
  142.4021   74.5828  221.1634 H   0  0  0  0  0  0  0  0  0  0  0  0
  1  2  1  0
  2  3  1  0
  3  4  2  0
  4  5  1  0
  4  6  1  0
  6  7  1  0
  6  8  1  0
  6  9  1  0
  3 10  1  0
 10 11  1  0
 11 12  2  0
 12 13  1  0
 12 14  1  0
 14 15  1  0
 14 16  2  0
 16 17  1  0
 16 18  1  0
 18 19  1  0
 18 20  2  0
 20 21  1  0
 10 22  1  0
 22 23  1  0
 22 24  1  0
 24 25  1  0
 24 26  1  0
 24 27  1  0
 27 28  1  0
 27 29  1  0
 27 30  1  0
 30 31  1  0
 31 32  2  0
 31 33  1  0
 33 34  1  1
 33 35  1  0
 35 36  1  0
 35 37  1  0
 33 38  1  0
 38 39  1  0
 38 40  1  0
 40 41  1  0
 40 42  1  0
 40 43  1  0
 43 44  2  0
 44 45  1  0
 44 46  1  0
 46 47  1  0
 46 48  2  0
 48 49  1  0
 48 50  1  0
 50 51  1  0
 50 52  2  0
 52 53  1  0
 53 54  1  0
 53 55  1  0
 30 56  1  0
 56 57  1  0
 56 58  1  0
 56 59  1  0
 59 60  1  0
 59 61  1  0
 20 11  1  0
 59 22  1  0
 53 38  1  0
 52 43  1  0
M  END
>  <UniqueID>  (73) 
46

>  <SMILES>  (73) 
C/C=C(\O)N(c1ccccc1)C1CCN(C(=O)[C@@H](N)C2Cc3ccccc3C2)CC1

>  <Energy>  (73) 
83.21370759381252

>  <Genealogy>  (73) 
CC=C(O)N(c1ccccc1)C1CCN(C(=O)[C@@H](N)C2Cc3ccccc3C2)CC1 (tautomer)
C/C=C(\O)N(c1ccccc1)C1CCN(C(=O)[C@@H](N)C2Cc3ccccc3C2)CC1 (cis-trans isomerization)
C/C=C(\O)N(c1ccccc1)C1CCN(C(=O)[C@@H](N)C2Cc3ccccc3C2)CC1 (3D coordinates assigned)
C/C=C(\O)N(c1ccccc1)C1CCN(C(=O)[C@@H](N)C2Cc3ccccc3C2)CC1 (nonaromatic ring conformer: 83.21370759381252 kcal/mol)

>  <smiles>  (73) 
CCC(=O)N(c1ccccc1)C1CCN(C(=O)[C@@H](N)C2Cc3ccccc3C2)CC1

>  <score_type>  (73) 
oracle

>  <origin>  (73) 
autodockgpu

>  <m_score__min__energy>  (73) 
-8.1799999999999997

>  <m_primary>  (73) 
energy

>  <meeko>  (73) 
{"free_energy": -7.09, "intermolecular_energy": -9.48, "internal_energy": -2.49, "cluster_size": 9, "cluster_id": 3, "rank_in_cluster": 6}

>  <energy>  (73) 
-7.05

>  <cluster_rmsd>  (73) 
0.18

>  <rmsd>  (73) 
270.73

>  <cluster>  (73) 
3

$$$$
LLZHWBREMUWYMR-SCVLRMBKNA-N
     RDKit          3D

 61 64  0  0  0  0  0  0  0  0999 V2000
  146.4440   74.2320  217.7160 H   0  0  0  0  0  0  0  0  0  0  0  0
  146.2800   73.3300  218.1420 O   0  0  0  0  0  0  0  0  0  0  0  0
  145.4740   73.1390  219.2680 C   0  0  0  0  0  0  0  0  0  0  0  0
  145.9740   72.6100  220.3990 C   0  0  0  0  0  0  0  0  0  0  0  0
  146.1547   71.5255  220.4333 H   0  0  0  0  0  0  0  0  0  0  0  0
  146.2970   73.4240  221.6140 C   0  0  0  0  0  0  0  0  0  0  0  0
  146.0658   72.8413  222.5179 H   0  0  0  0  0  0  0  0  0  0  0  0
  147.3660   73.6830  221.6082 H   0  0  0  0  0  0  0  0  0  0  0  0
  145.6964   74.3456  221.6082 H   0  0  0  0  0  0  0  0  0  0  0  0
  144.0820   73.5270  219.2120 N   0  0  0  0  0  0  0  0  0  0  0  0
  143.0760   72.5980  219.6670 C   0  0  0  0  0  0  0  0  0  0  0  0
  142.6890   71.5120  218.8620 C   0  0  0  0  0  0  0  0  0  0  0  0
  143.1666   71.3578  217.8831 H   0  0  0  0  0  0  0  0  0  0  0  0
  141.7000   70.6280  219.3010 C   0  0  0  0  0  0  0  0  0  0  0  0
  141.4032   69.7787  218.6681 H   0  0  0  0  0  0  0  0  0  0  0  0
  141.0870   70.8200  220.5420 C   0  0  0  0  0  0  0  0  0  0  0  0
  140.3099   70.1216  220.8859 H   0  0  0  0  0  0  0  0  0  0  0  0
  141.4620   71.9000  221.3460 C   0  0  0  0  0  0  0  0  0  0  0  0
  140.9793   72.0515  222.3228 H   0  0  0  0  0  0  0  0  0  0  0  0
  142.4500   72.7880  220.9100 C   0  0  0  0  0  0  0  0  0  0  0  0
  142.7385   73.6397  221.5436 H   0  0  0  0  0  0  0  0  0  0  0  0
  143.6630   74.8470  218.6860 C   0  0  0  0  0  0  0  0  0  0  0  0
  144.3639   75.1339  217.8882 H   0  0  0  0  0  0  0  0  0  0  0  0
  143.7910   75.9670  219.7560 C   0  0  0  0  0  0  0  0  0  0  0  0
  144.0529   75.5042  220.7189 H   0  0  0  0  0  0  0  0  0  0  0  0
  144.5688   76.6647  219.4122 H   0  0  0  0  0  0  0  0  0  0  0  0
  142.5000   76.7700  219.9350 C   0  0  0  0  0  0  0  0  0  0  0  0
  142.5774   77.3872  220.8422 H   0  0  0  0  0  0  0  0  0  0  0  0
  142.3510   77.4156  219.0570 H   0  0  0  0  0  0  0  0  0  0  0  0
  141.3580   75.8590  220.0630 N   0  0  0  0  0  0  0  0  0  0  0  0
  140.5780   75.8440  221.2750 C   0  0  0  0  0  0  0  0  0  0  0  0
  141.1330   76.1380  222.3710 O   0  0  0  0  0  0  0  0  0  0  0  0
  139.0920   75.5310  221.2620 C   0  0  1  0  0  0  0  0  0  0  0  0
  138.8516   75.0840  220.2861 H   0  0  0  0  0  0  0  0  0  0  0  0
  138.7760   74.5790  222.3310 N   0  0  0  0  0  0  0  0  0  0  0  0
  137.9030   74.9020  222.8100 H   0  0  0  0  0  0  0  0  0  0  0  0
  139.5340   74.6250  223.0510 H   0  0  0  0  0  0  0  0  0  0  0  0
  138.2230   76.8150  221.4090 C   0  0  0  0  0  0  0  0  0  0  0  0
  137.2107   76.4821  221.1362 H   0  0  0  0  0  0  0  0  0  0  0  0
  138.7110   77.9600  220.4830 C   0  0  0  0  0  0  0  0  0  0  0  0
  139.4389   77.5874  219.7473 H   0  0  0  0  0  0  0  0  0  0  0  0
  137.8979   78.4122  219.8962 H   0  0  0  0  0  0  0  0  0  0  0  0
  139.3470   78.9160  221.4200 C   0  0  0  0  0  0  0  0  0  0  0  0
  140.1310   80.0210  221.0870 C   0  0  0  0  0  0  0  0  0  0  0  0
  140.3391   80.2637  220.0345 H   0  0  0  0  0  0  0  0  0  0  0  0
  140.6490   80.8170  222.1200 C   0  0  0  0  0  0  0  0  0  0  0  0
  141.2743   81.6896  221.8798 H   0  0  0  0  0  0  0  0  0  0  0  0
  140.3700   80.5010  223.4630 C   0  0  0  0  0  0  0  0  0  0  0  0
  140.7762   81.1282  224.2702 H   0  0  0  0  0  0  0  0  0  0  0  0
  139.5750   79.3880  223.7740 C   0  0  0  0  0  0  0  0  0  0  0  0
  139.3480   79.1365  224.8205 H   0  0  0  0  0  0  0  0  0  0  0  0
  139.0770   78.6050  222.7300 C   0  0  0  0  0  0  0  0  0  0  0  0
  138.2280   77.3960  222.8480 C   0  0  0  0  0  0  0  0  0  0  0  0
  138.6621   76.6787  223.5601 H   0  0  0  0  0  0  0  0  0  0  0  0
  137.2182   77.6166  223.2245 H   0  0  0  0  0  0  0  0  0  0  0  0
  141.1000   74.8750  219.0000 C   0  0  0  0  0  0  0  0  0  0  0  0
  140.9379   73.8893  219.4607 H   0  0  0  0  0  0  0  0  0  0  0  0
  140.2119   75.2049  218.4410 H   0  0  0  0  0  0  0  0  0  0  0  0
  142.2720   74.7730  218.0100 C   0  0  0  0  0  0  0  0  0  0  0  0
  142.1948   73.8136  217.4774 H   0  0  0  0  0  0  0  0  0  0  0  0
  142.1969   75.6355  217.3315 H   0  0  0  0  0  0  0  0  0  0  0  0
  1  2  1  0
  2  3  1  0
  3  4  2  0
  4  5  1  0
  4  6  1  0
  6  7  1  0
  6  8  1  0
  6  9  1  0
  3 10  1  0
 10 11  1  0
 11 12  2  0
 12 13  1  0
 12 14  1  0
 14 15  1  0
 14 16  2  0
 16 17  1  0
 16 18  1  0
 18 19  1  0
 18 20  2  0
 20 21  1  0
 10 22  1  0
 22 23  1  0
 22 24  1  0
 24 25  1  0
 24 26  1  0
 24 27  1  0
 27 28  1  0
 27 29  1  0
 27 30  1  0
 30 31  1  0
 31 32  2  0
 31 33  1  0
 33 34  1  6
 33 35  1  0
 35 36  1  0
 35 37  1  0
 33 38  1  0
 38 39  1  0
 38 40  1  0
 40 41  1  0
 40 42  1  0
 40 43  1  0
 43 44  2  0
 44 45  1  0
 44 46  1  0
 46 47  1  0
 46 48  2  0
 48 49  1  0
 48 50  1  0
 50 51  1  0
 50 52  2  0
 52 53  1  0
 53 54  1  0
 53 55  1  0
 30 56  1  0
 56 57  1  0
 56 58  1  0
 56 59  1  0
 59 60  1  0
 59 61  1  0
 20 11  1  0
 59 22  1  0
 53 38  1  0
 52 43  1  0
M  END
>  <UniqueID>  (74) 
46

>  <SMILES>  (74) 
C/C=C(\O)N(c1ccccc1)C1CCN(C(=O)[C@@H](N)C2Cc3ccccc3C2)CC1

>  <Energy>  (74) 
83.21370759381252

>  <Genealogy>  (74) 
CC=C(O)N(c1ccccc1)C1CCN(C(=O)[C@@H](N)C2Cc3ccccc3C2)CC1 (tautomer)
C/C=C(\O)N(c1ccccc1)C1CCN(C(=O)[C@@H](N)C2Cc3ccccc3C2)CC1 (cis-trans isomerization)
C/C=C(\O)N(c1ccccc1)C1CCN(C(=O)[C@@H](N)C2Cc3ccccc3C2)CC1 (3D coordinates assigned)
C/C=C(\O)N(c1ccccc1)C1CCN(C(=O)[C@@H](N)C2Cc3ccccc3C2)CC1 (nonaromatic ring conformer: 83.21370759381252 kcal/mol)

>  <smiles>  (74) 
CCC(=O)N(c1ccccc1)C1CCN(C(=O)[C@@H](N)C2Cc3ccccc3C2)CC1

>  <score_type>  (74) 
oracle

>  <origin>  (74) 
autodockgpu

>  <m_score__min__energy>  (74) 
-8.1799999999999997

>  <m_primary>  (74) 
energy

>  <meeko>  (74) 
{"free_energy": -6.75, "intermolecular_energy": -9.13, "internal_energy": -2.71, "cluster_size": 2, "cluster_id": 6, "rank_in_cluster": 2}

>  <energy>  (74) 
-6.75

>  <cluster_rmsd>  (74) 
0.58

>  <rmsd>  (74) 
270.56

>  <cluster>  (74) 
3

$$$$
LLZHWBREMUWYMR-SCVLRMBKNA-N
     RDKit          3D

 61 64  0  0  0  0  0  0  0  0999 V2000
  135.8720   79.0080  223.1740 H   0  0  0  0  0  0  0  0  0  0  0  0
  135.5120   78.9760  224.1180 O   0  0  0  0  0  0  0  0  0  0  0  0
  134.9330   80.0730  224.7640 C   0  0  0  0  0  0  0  0  0  0  0  0
  133.6330   80.0700  225.1100 C   0  0  0  0  0  0  0  0  0  0  0  0
  132.9201   80.6103  224.4699 H   0  0  0  0  0  0  0  0  0  0  0  0
  133.1090   79.3670  226.3240 C   0  0  0  0  0  0  0  0  0  0  0  0
  133.4831   79.8690  227.2285 H   0  0  0  0  0  0  0  0  0  0  0  0
  132.0094   79.3946  226.3176 H   0  0  0  0  0  0  0  0  0  0  0  0
  133.4496   78.3211  226.3176 H   0  0  0  0  0  0  0  0  0  0  0  0
  135.7540   81.2240  225.0690 N   0  0  0  0  0  0  0  0  0  0  0  0
  135.5370   81.9300  226.3090 C   0  0  0  0  0  0  0  0  0  0  0  0
  135.7810   81.3000  227.5420 C   0  0  0  0  0  0  0  0  0  0  0  0
  136.1551   80.2658  227.5643 H   0  0  0  0  0  0  0  0  0  0  0  0
  135.5500   81.9830  228.7400 C   0  0  0  0  0  0  0  0  0  0  0  0
  135.7449   81.4858  229.7017 H   0  0  0  0  0  0  0  0  0  0  0  0
  135.0720   83.2960  228.7180 C   0  0  0  0  0  0  0  0  0  0  0  0
  134.8933   83.8321  229.6617 H   0  0  0  0  0  0  0  0  0  0  0  0
  134.8210   83.9280  227.4970 C   0  0  0  0  0  0  0  0  0  0  0  0
  134.4440   84.9613  227.4799 H   0  0  0  0  0  0  0  0  0  0  0  0
  135.0490   83.2470  226.2970 C   0  0  0  0  0  0  0  0  0  0  0  0
  134.8449   83.7457  225.3380 H   0  0  0  0  0  0  0  0  0  0  0  0
  136.7970   81.7050  224.1350 C   0  0  0  0  0  0  0  0  0  0  0  0
  136.8071   82.8043  224.1731 H   0  0  0  0  0  0  0  0  0  0  0  0
  136.4610   81.3550  222.6580 C   0  0  0  0  0  0  0  0  0  0  0  0
  135.5693   80.7110  222.6441 H   0  0  0  0  0  0  0  0  0  0  0  0
  136.2905   82.3020  222.1250 H   0  0  0  0  0  0  0  0  0  0  0  0
  137.6020   80.6250  221.9440 C   0  0  0  0  0  0  0  0  0  0  0  0
  137.2329   80.2128  220.9933 H   0  0  0  0  0  0  0  0  0  0  0  0
  138.4200   81.3341  221.7489 H   0  0  0  0  0  0  0  0  0  0  0  0
  138.1000   79.5330  222.7870 N   0  0  0  0  0  0  0  0  0  0  0  0
  138.0040   78.1680  222.3320 C   0  0  0  0  0  0  0  0  0  0  0  0
  137.0600   77.8380  221.5600 O   0  0  0  0  0  0  0  0  0  0  0  0
  139.0380   77.1250  222.7190 C   0  0  1  0  0  0  0  0  0  0  0  0
  139.1210   77.1266  223.8159 H   0  0  0  0  0  0  0  0  0  0  0  0
  138.6050   75.8020  222.2600 N   0  0  0  0  0  0  0  0  0  0  0  0
  137.6270   75.8860  221.8950 H   0  0  0  0  0  0  0  0  0  0  0  0
  138.5490   75.1650  223.0880 H   0  0  0  0  0  0  0  0  0  0  0  0
  140.4480   77.4590  222.1490 C   0  0  0  0  0  0  0  0  0  0  0  0
  140.7643   76.5255  221.6605 H   0  0  0  0  0  0  0  0  0  0  0  0
  141.4430   77.8810  223.2620 C   0  0  0  0  0  0  0  0  0  0  0  0
  141.0333   77.6618  224.2591 H   0  0  0  0  0  0  0  0  0  0  0  0
  142.4004   77.3422  223.2068 H   0  0  0  0  0  0  0  0  0  0  0  0
  141.5910   79.3410  223.0600 C   0  0  0  0  0  0  0  0  0  0  0  0
  142.2110   80.2490  223.9200 C   0  0  0  0  0  0  0  0  0  0  0  0
  142.6566   79.9096  224.8667 H   0  0  0  0  0  0  0  0  0  0  0  0
  142.2550   81.6030  223.5540 C   0  0  0  0  0  0  0  0  0  0  0  0
  142.7343   82.3361  224.2194 H   0  0  0  0  0  0  0  0  0  0  0  0
  141.6870   82.0250  222.3370 C   0  0  0  0  0  0  0  0  0  0  0  0
  141.7247   83.0870  222.0528 H   0  0  0  0  0  0  0  0  0  0  0  0
  141.0730   81.0940  221.4860 C   0  0  0  0  0  0  0  0  0  0  0  0
  140.6313   81.4143  220.5308 H   0  0  0  0  0  0  0  0  0  0  0  0
  141.0330   79.7530  221.8740 C   0  0  0  0  0  0  0  0  0  0  0  0
  140.4330   78.6240  221.1240 C   0  0  0  0  0  0  0  0  0  0  0  0
  139.4048   78.8609  220.8131 H   0  0  0  0  0  0  0  0  0  0  0  0
  140.9779   78.3870  220.1983 H   0  0  0  0  0  0  0  0  0  0  0  0
  138.5760   79.8320  224.1460 C   0  0  0  0  0  0  0  0  0  0  0  0
  138.1196   79.1178  224.8472 H   0  0  0  0  0  0  0  0  0  0  0  0
  139.6727   79.7465  224.1482 H   0  0  0  0  0  0  0  0  0  0  0  0
  138.2100   81.2610  224.5840 C   0  0  0  0  0  0  0  0  0  0  0  0
  138.2575   81.3109  225.6818 H   0  0  0  0  0  0  0  0  0  0  0  0
  138.9292   81.9397  224.1023 H   0  0  0  0  0  0  0  0  0  0  0  0
  1  2  1  0
  2  3  1  0
  3  4  2  0
  4  5  1  0
  4  6  1  0
  6  7  1  0
  6  8  1  0
  6  9  1  0
  3 10  1  0
 10 11  1  0
 11 12  2  0
 12 13  1  0
 12 14  1  0
 14 15  1  0
 14 16  2  0
 16 17  1  0
 16 18  1  0
 18 19  1  0
 18 20  2  0
 20 21  1  0
 10 22  1  0
 22 23  1  0
 22 24  1  0
 24 25  1  0
 24 26  1  0
 24 27  1  0
 27 28  1  0
 27 29  1  0
 27 30  1  0
 30 31  1  0
 31 32  2  0
 31 33  1  0
 33 34  1  1
 33 35  1  0
 35 36  1  0
 35 37  1  0
 33 38  1  0
 38 39  1  0
 38 40  1  0
 40 41  1  0
 40 42  1  0
 40 43  1  0
 43 44  2  0
 44 45  1  0
 44 46  1  0
 46 47  1  0
 46 48  2  0
 48 49  1  0
 48 50  1  0
 50 51  1  0
 50 52  2  0
 52 53  1  0
 53 54  1  0
 53 55  1  0
 30 56  1  0
 56 57  1  0
 56 58  1  0
 56 59  1  0
 59 60  1  0
 59 61  1  0
 20 11  1  0
 59 22  1  0
 53 38  1  0
 52 43  1  0
M  END
>  <UniqueID>  (75) 
46

>  <SMILES>  (75) 
C/C=C(\O)N(c1ccccc1)C1CCN(C(=O)[C@@H](N)C2Cc3ccccc3C2)CC1

>  <Energy>  (75) 
83.21370759381252

>  <Genealogy>  (75) 
CC=C(O)N(c1ccccc1)C1CCN(C(=O)[C@@H](N)C2Cc3ccccc3C2)CC1 (tautomer)
C/C=C(\O)N(c1ccccc1)C1CCN(C(=O)[C@@H](N)C2Cc3ccccc3C2)CC1 (cis-trans isomerization)
C/C=C(\O)N(c1ccccc1)C1CCN(C(=O)[C@@H](N)C2Cc3ccccc3C2)CC1 (3D coordinates assigned)
C/C=C(\O)N(c1ccccc1)C1CCN(C(=O)[C@@H](N)C2Cc3ccccc3C2)CC1 (nonaromatic ring conformer: 83.21370759381252 kcal/mol)

>  <smiles>  (75) 
CCC(=O)N(c1ccccc1)C1CCN(C(=O)[C@@H](N)C2Cc3ccccc3C2)CC1

>  <score_type>  (75) 
oracle

>  <origin>  (75) 
autodockgpu

>  <m_score__min__energy>  (75) 
-8.1799999999999997

>  <m_primary>  (75) 
energy

>  <meeko>  (75) 
{"free_energy": -5.72, "intermolecular_energy": -8.11, "internal_energy": -3.38, "cluster_size": 1, "cluster_id": 8, "rank_in_cluster": 1}

>  <energy>  (75) 
-7.18

>  <cluster_rmsd>  (75) 
0.0

>  <rmsd>  (75) 
270.78

>  <cluster>  (75) 
4

$$$$
LLZHWBREMUWYMR-SCVLRMBKNA-N
     RDKit          3D

 61 64  0  0  0  0  0  0  0  0999 V2000
  147.3560   74.1340  218.7860 H   0  0  0  0  0  0  0  0  0  0  0  0
  146.6970   73.3910  218.5900 O   0  0  0  0  0  0  0  0  0  0  0  0
  145.4380   73.2940  219.1900 C   0  0  0  0  0  0  0  0  0  0  0  0
  145.2960   72.7980  220.4320 C   0  0  0  0  0  0  0  0  0  0  0  0
  144.5345   72.0224  220.6012 H   0  0  0  0  0  0  0  0  0  0  0  0
  146.1230   73.2490  221.5960 C   0  0  0  0  0  0  0  0  0  0  0  0
  145.6177   72.9735  222.5334 H   0  0  0  0  0  0  0  0  0  0  0  0
  147.1094   72.7639  221.5548 H   0  0  0  0  0  0  0  0  0  0  0  0
  146.2494   74.3409  221.5548 H   0  0  0  0  0  0  0  0  0  0  0  0
  144.2730   73.7450  218.4610 N   0  0  0  0  0  0  0  0  0  0  0  0
  144.3820   73.9780  217.0410 C   0  0  0  0  0  0  0  0  0  0  0  0
  144.4520   75.2880  216.5350 C   0  0  0  0  0  0  0  0  0  0  0  0
  144.4398   76.1437  217.2261 H   0  0  0  0  0  0  0  0  0  0  0  0
  144.5370   75.5070  215.1570 C   0  0  0  0  0  0  0  0  0  0  0  0
  144.5938   76.5339  214.7669 H   0  0  0  0  0  0  0  0  0  0  0  0
  144.5500   74.4240  214.2740 C   0  0  0  0  0  0  0  0  0  0  0  0
  144.6200   74.5988  213.1902 H   0  0  0  0  0  0  0  0  0  0  0  0
  144.4740   73.1180  214.7680 C   0  0  0  0  0  0  0  0  0  0  0  0
  144.4826   72.2658  214.0726 H   0  0  0  0  0  0  0  0  0  0  0  0
  144.3870   72.8950  216.1460 C   0  0  0  0  0  0  0  0  0  0  0  0
  144.3221   71.8666  216.5309 H   0  0  0  0  0  0  0  0  0  0  0  0
  142.9780   73.9870  219.1370 C   0  0  0  0  0  0  0  0  0  0  0  0
  142.6869   73.0620  219.6563 H   0  0  0  0  0  0  0  0  0  0  0  0
  141.8330   74.2570  218.1210 C   0  0  0  0  0  0  0  0  0  0  0  0
  142.2681   74.3299  217.1133 H   0  0  0  0  0  0  0  0  0  0  0  0
  141.1190   73.4239  218.1999 H   0  0  0  0  0  0  0  0  0  0  0  0
  141.0660   75.5480  218.4160 C   0  0  0  0  0  0  0  0  0  0  0  0
  140.4279   75.7977  217.5555 H   0  0  0  0  0  0  0  0  0  0  0  0
  140.4435   75.4026  219.3112 H   0  0  0  0  0  0  0  0  0  0  0  0
  142.0090   76.6460  218.6570 N   0  0  0  0  0  0  0  0  0  0  0  0
  142.0220   77.7910  217.7810 C   0  0  0  0  0  0  0  0  0  0  0  0
  141.6900   77.6500  216.5720 O   0  0  0  0  0  0  0  0  0  0  0  0
  142.3810   79.1770  218.2890 C   0  0  1  0  0  0  0  0  0  0  0  0
  143.3019   79.0876  218.8839 H   0  0  0  0  0  0  0  0  0  0  0  0
  142.6130   80.0770  217.1560 N   0  0  0  0  0  0  0  0  0  0  0  0
  142.7850   79.4940  216.3040 H   0  0  0  0  0  0  0  0  0  0  0  0
  143.5000   80.6050  217.3280 H   0  0  0  0  0  0  0  0  0  0  0  0
  141.2810   79.7600  219.2250 C   0  0  0  0  0  0  0  0  0  0  0  0
  140.5118   80.1312  218.5318 H   0  0  0  0  0  0  0  0  0  0  0  0
  141.8260   80.8980  220.1280 C   0  0  0  0  0  0  0  0  0  0  0  0
  142.8220   81.2229  219.7927 H   0  0  0  0  0  0  0  0  0  0  0  0
  141.1952   81.7990  220.1086 H   0  0  0  0  0  0  0  0  0  0  0  0
  141.8970   80.2730  221.4690 C   0  0  0  0  0  0  0  0  0  0  0  0
  142.5160   80.7940  222.6070 C   0  0  0  0  0  0  0  0  0  0  0  0
  143.0248   81.7686  222.5715 H   0  0  0  0  0  0  0  0  0  0  0  0
  142.4770   80.0510  223.7970 C   0  0  0  0  0  0  0  0  0  0  0  0
  142.9624   80.4409  224.7039 H   0  0  0  0  0  0  0  0  0  0  0  0
  141.8180   78.8080  223.8320 C   0  0  0  0  0  0  0  0  0  0  0  0
  141.7882   78.2292  224.7669 H   0  0  0  0  0  0  0  0  0  0  0  0
  141.1990   78.3050  222.6780 C   0  0  0  0  0  0  0  0  0  0  0  0
  140.6779   77.3365  222.6983 H   0  0  0  0  0  0  0  0  0  0  0  0
  141.2570   79.0580  221.5020 C   0  0  0  0  0  0  0  0  0  0  0  0
  140.6740   78.7040  220.1860 C   0  0  0  0  0  0  0  0  0  0  0  0
  140.9664   77.6865  219.8873 H   0  0  0  0  0  0  0  0  0  0  0  0
  139.5740   78.7098  220.1892 H   0  0  0  0  0  0  0  0  0  0  0  0
  143.0210   76.5050  219.7140 C   0  0  0  0  0  0  0  0  0  0  0  0
  144.0015   76.7933  219.3071 H   0  0  0  0  0  0  0  0  0  0  0  0
  142.7293   77.1560  220.5513 H   0  0  0  0  0  0  0  0  0  0  0  0
  143.1080   75.0630  220.2430 C   0  0  0  0  0  0  0  0  0  0  0  0
  144.0801   74.9336  220.7412 H   0  0  0  0  0  0  0  0  0  0  0  0
  142.2621   74.9209  220.9317 H   0  0  0  0  0  0  0  0  0  0  0  0
  1  2  1  0
  2  3  1  0
  3  4  2  0
  4  5  1  0
  4  6  1  0
  6  7  1  0
  6  8  1  0
  6  9  1  0
  3 10  1  0
 10 11  1  0
 11 12  2  0
 12 13  1  0
 12 14  1  0
 14 15  1  0
 14 16  2  0
 16 17  1  0
 16 18  1  0
 18 19  1  0
 18 20  2  0
 20 21  1  0
 10 22  1  0
 22 23  1  0
 22 24  1  0
 24 25  1  0
 24 26  1  0
 24 27  1  0
 27 28  1  0
 27 29  1  0
 27 30  1  0
 30 31  1  0
 31 32  2  0
 31 33  1  0
 33 34  1  1
 33 35  1  0
 35 36  1  0
 35 37  1  0
 33 38  1  0
 38 39  1  0
 38 40  1  0
 40 41  1  0
 40 42  1  0
 40 43  1  0
 43 44  2  0
 44 45  1  0
 44 46  1  0
 46 47  1  0
 46 48  2  0
 48 49  1  0
 48 50  1  0
 50 51  1  0
 50 52  2  0
 52 53  1  0
 53 54  1  0
 53 55  1  0
 30 56  1  0
 56 57  1  0
 56 58  1  0
 56 59  1  0
 59 60  1  0
 59 61  1  0
 20 11  1  0
 59 22  1  0
 53 38  1  0
 52 43  1  0
M  END
>  <UniqueID>  (76) 
46

>  <SMILES>  (76) 
C/C=C(\O)N(c1ccccc1)C1CCN(C(=O)[C@@H](N)C2Cc3ccccc3C2)CC1

>  <Energy>  (76) 
83.21370759381252

>  <Genealogy>  (76) 
CC=C(O)N(c1ccccc1)C1CCN(C(=O)[C@@H](N)C2Cc3ccccc3C2)CC1 (tautomer)
C/C=C(\O)N(c1ccccc1)C1CCN(C(=O)[C@@H](N)C2Cc3ccccc3C2)CC1 (cis-trans isomerization)
C/C=C(\O)N(c1ccccc1)C1CCN(C(=O)[C@@H](N)C2Cc3ccccc3C2)CC1 (3D coordinates assigned)
C/C=C(\O)N(c1ccccc1)C1CCN(C(=O)[C@@H](N)C2Cc3ccccc3C2)CC1 (nonaromatic ring conformer: 83.21370759381252 kcal/mol)

>  <smiles>  (76) 
CCC(=O)N(c1ccccc1)C1CCN(C(=O)[C@@H](N)C2Cc3ccccc3C2)CC1

>  <score_type>  (76) 
oracle

>  <origin>  (76) 
autodockgpu

>  <m_score__min__energy>  (76) 
-8.1799999999999997

>  <m_primary>  (76) 
energy

>  <meeko>  (76) 
{"free_energy": -7.2, "intermolecular_energy": -9.59, "internal_energy": -2.57, "cluster_size": 9, "cluster_id": 3, "rank_in_cluster": 5}

>  <energy>  (76) 
-6.89

>  <cluster_rmsd>  (76) 
0.0

>  <rmsd>  (76) 
271.74

>  <cluster>  (76) 
5

$$$$
LLZHWBREMUWYMR-SCVLRMBKNA-N
     RDKit          3D

 61 64  0  0  0  0  0  0  0  0999 V2000
  146.4000   74.1620  217.6890 H   0  0  0  0  0  0  0  0  0  0  0  0
  146.2520   73.2680  218.1380 O   0  0  0  0  0  0  0  0  0  0  0  0
  145.4470   73.0920  219.2680 C   0  0  0  0  0  0  0  0  0  0  0  0
  145.9480   72.5770  220.4050 C   0  0  0  0  0  0  0  0  0  0  0  0
  146.1287   71.4930  220.4527 H   0  0  0  0  0  0  0  0  0  0  0  0
  146.2720   73.4060  221.6090 C   0  0  0  0  0  0  0  0  0  0  0  0
  146.0478   72.8323  222.5203 H   0  0  0  0  0  0  0  0  0  0  0  0
  147.3397   73.6704  221.5956 H   0  0  0  0  0  0  0  0  0  0  0  0
  145.6666   74.3243  221.5956 H   0  0  0  0  0  0  0  0  0  0  0  0
  144.0550   73.4820  219.2090 N   0  0  0  0  0  0  0  0  0  0  0  0
  143.0480   72.5550  219.6660 C   0  0  0  0  0  0  0  0  0  0  0  0
  142.6620   71.4660  218.8660 C   0  0  0  0  0  0  0  0  0  0  0  0
  143.1415   71.3069  217.8889 H   0  0  0  0  0  0  0  0  0  0  0  0
  141.6710   70.5840  219.3070 C   0  0  0  0  0  0  0  0  0  0  0  0
  141.3747   69.7322  218.6772 H   0  0  0  0  0  0  0  0  0  0  0  0
  141.0560   70.7820  220.5460 C   0  0  0  0  0  0  0  0  0  0  0  0
  140.2780   70.0854  220.8918 H   0  0  0  0  0  0  0  0  0  0  0  0
  141.4300   71.8660  221.3460 C   0  0  0  0  0  0  0  0  0  0  0  0
  140.9458   72.0225  222.3212 H   0  0  0  0  0  0  0  0  0  0  0  0
  142.4190   72.7510  220.9070 C   0  0  0  0  0  0  0  0  0  0  0  0
  142.7065   73.6058  221.5368 H   0  0  0  0  0  0  0  0  0  0  0  0
  143.6380   74.7990  218.6770 C   0  0  0  0  0  0  0  0  0  0  0  0
  144.3361   75.0786  217.8742 H   0  0  0  0  0  0  0  0  0  0  0  0
  143.7740   75.9250  219.7410 C   0  0  0  0  0  0  0  0  0  0  0  0
  144.0375   75.4666  220.7056 H   0  0  0  0  0  0  0  0  0  0  0  0
  144.5533   76.6179  219.3908 H   0  0  0  0  0  0  0  0  0  0  0  0
  142.4860   76.7340  219.9200 C   0  0  0  0  0  0  0  0  0  0  0  0
  142.5687   77.3566  220.8231 H   0  0  0  0  0  0  0  0  0  0  0  0
  142.3355   77.3754  219.0391 H   0  0  0  0  0  0  0  0  0  0  0  0
  141.3420   75.8260  220.0580 N   0  0  0  0  0  0  0  0  0  0  0  0
  140.5680   75.8210  221.2740 C   0  0  0  0  0  0  0  0  0  0  0  0
  141.1270   76.1190  222.3650 O   0  0  0  0  0  0  0  0  0  0  0  0
  139.0800   75.5120  221.2690 C   0  0  1  0  0  0  0  0  0  0  0  0
  138.8351   75.0602  220.2965 H   0  0  0  0  0  0  0  0  0  0  0  0
  138.7650   74.5670  222.3440 N   0  0  0  0  0  0  0  0  0  0  0  0
  137.8800   74.8800  222.8070 H   0  0  0  0  0  0  0  0  0  0  0  0
  139.5120   74.6350  223.0740 H   0  0  0  0  0  0  0  0  0  0  0  0
  138.2150   76.7990  221.4120 C   0  0  0  0  0  0  0  0  0  0  0  0
  137.2016   76.4685  221.1403 H   0  0  0  0  0  0  0  0  0  0  0  0
  138.7080   77.9400  220.4830 C   0  0  0  0  0  0  0  0  0  0  0  0
  139.4347   77.5624  219.7486 H   0  0  0  0  0  0  0  0  0  0  0  0
  137.8965   78.3937  219.8951 H   0  0  0  0  0  0  0  0  0  0  0  0
  139.3470   78.8960  221.4160 C   0  0  0  0  0  0  0  0  0  0  0  0
  140.1350   79.9990  221.0800 C   0  0  0  0  0  0  0  0  0  0  0  0
  140.3432   80.2391  220.0269 H   0  0  0  0  0  0  0  0  0  0  0  0
  140.6560   80.7950  222.1110 C   0  0  0  0  0  0  0  0  0  0  0  0
  141.2849   81.6643  221.8687 H   0  0  0  0  0  0  0  0  0  0  0  0
  140.3760   80.4840  223.4540 C   0  0  0  0  0  0  0  0  0  0  0  0
  140.7847   81.1121  224.2592 H   0  0  0  0  0  0  0  0  0  0  0  0
  139.5770   79.3750  223.7690 C   0  0  0  0  0  0  0  0  0  0  0  0
  139.3492   79.1281  224.8164 H   0  0  0  0  0  0  0  0  0  0  0  0
  139.0760   78.5900  222.7280 C   0  0  0  0  0  0  0  0  0  0  0  0
  138.2230   77.3850  222.8490 C   0  0  0  0  0  0  0  0  0  0  0  0
  138.6545   76.6683  223.5632 H   0  0  0  0  0  0  0  0  0  0  0  0
  137.2141   77.6110  223.2245 H   0  0  0  0  0  0  0  0  0  0  0  0
  141.0760   74.8380  219.0020 C   0  0  0  0  0  0  0  0  0  0  0  0
  140.9121   73.8555  219.4686 H   0  0  0  0  0  0  0  0  0  0  0  0
  140.1869   75.1685  218.4450 H   0  0  0  0  0  0  0  0  0  0  0  0
  142.2440   74.7260  218.0070 C   0  0  0  0  0  0  0  0  0  0  0  0
  142.1612   73.7638  217.4804 H   0  0  0  0  0  0  0  0  0  0  0  0
  142.1691   75.5847  217.3236 H   0  0  0  0  0  0  0  0  0  0  0  0
  1  2  1  0
  2  3  1  0
  3  4  2  0
  4  5  1  0
  4  6  1  0
  6  7  1  0
  6  8  1  0
  6  9  1  0
  3 10  1  0
 10 11  1  0
 11 12  2  0
 12 13  1  0
 12 14  1  0
 14 15  1  0
 14 16  2  0
 16 17  1  0
 16 18  1  0
 18 19  1  0
 18 20  2  0
 20 21  1  0
 10 22  1  0
 22 23  1  0
 22 24  1  0
 24 25  1  0
 24 26  1  0
 24 27  1  0
 27 28  1  0
 27 29  1  0
 27 30  1  0
 30 31  1  0
 31 32  2  0
 31 33  1  0
 33 34  1  6
 33 35  1  0
 35 36  1  0
 35 37  1  0
 33 38  1  0
 38 39  1  0
 38 40  1  0
 40 41  1  0
 40 42  1  0
 40 43  1  0
 43 44  2  0
 44 45  1  0
 44 46  1  0
 46 47  1  0
 46 48  2  0
 48 49  1  0
 48 50  1  0
 50 51  1  0
 50 52  2  0
 52 53  1  0
 53 54  1  0
 53 55  1  0
 30 56  1  0
 56 57  1  0
 56 58  1  0
 56 59  1  0
 59 60  1  0
 59 61  1  0
 20 11  1  0
 59 22  1  0
 53 38  1  0
 52 43  1  0
M  END
>  <UniqueID>  (77) 
46

>  <SMILES>  (77) 
C/C=C(\O)N(c1ccccc1)C1CCN(C(=O)[C@@H](N)C2Cc3ccccc3C2)CC1

>  <Energy>  (77) 
83.21370759381252

>  <Genealogy>  (77) 
CC=C(O)N(c1ccccc1)C1CCN(C(=O)[C@@H](N)C2Cc3ccccc3C2)CC1 (tautomer)
C/C=C(\O)N(c1ccccc1)C1CCN(C(=O)[C@@H](N)C2Cc3ccccc3C2)CC1 (cis-trans isomerization)
C/C=C(\O)N(c1ccccc1)C1CCN(C(=O)[C@@H](N)C2Cc3ccccc3C2)CC1 (3D coordinates assigned)
C/C=C(\O)N(c1ccccc1)C1CCN(C(=O)[C@@H](N)C2Cc3ccccc3C2)CC1 (nonaromatic ring conformer: 83.21370759381252 kcal/mol)

>  <smiles>  (77) 
CCC(=O)N(c1ccccc1)C1CCN(C(=O)[C@@H](N)C2Cc3ccccc3C2)CC1

>  <score_type>  (77) 
oracle

>  <origin>  (77) 
autodockgpu

>  <m_score__min__energy>  (77) 
-8.1799999999999997

>  <m_primary>  (77) 
energy

>  <meeko>  (77) 
{"free_energy": -6.76, "intermolecular_energy": -9.15, "internal_energy": -2.7, "cluster_size": 2, "cluster_id": 6, "rank_in_cluster": 1}

>  <energy>  (77) 
-6.76

>  <cluster_rmsd>  (77) 
0.0

>  <rmsd>  (77) 
270.92

>  <cluster>  (77) 
6

$$$$
LLZHWBREMUWYMR-SCVLRMBKNA-N
     RDKit          3D

 61 64  0  0  0  0  0  0  0  0999 V2000
  147.1250   74.2710  218.4610 H   0  0  0  0  0  0  0  0  0  0  0  0
  146.6560   73.3910  218.6330 O   0  0  0  0  0  0  0  0  0  0  0  0
  145.3790   73.2890  219.1920 C   0  0  0  0  0  0  0  0  0  0  0  0
  145.1870   72.6940  220.3830 C   0  0  0  0  0  0  0  0  0  0  0  0
  144.4103   71.9190  220.4613 H   0  0  0  0  0  0  0  0  0  0  0  0
  145.9790   73.0350  221.6080 C   0  0  0  0  0  0  0  0  0  0  0  0
  145.3939   72.7831  222.5048 H   0  0  0  0  0  0  0  0  0  0  0  0
  146.9175   72.4612  221.6094 H   0  0  0  0  0  0  0  0  0  0  0  0
  146.2071   74.1111  221.6094 H   0  0  0  0  0  0  0  0  0  0  0  0
  144.2500   73.8430  218.4780 N   0  0  0  0  0  0  0  0  0  0  0  0
  144.4020   74.1850  217.0840 C   0  0  0  0  0  0  0  0  0  0  0  0
  144.4180   75.5300  216.6750 C   0  0  0  0  0  0  0  0  0  0  0  0
  144.3301   76.3310  217.4238 H   0  0  0  0  0  0  0  0  0  0  0  0
  144.5450   75.8540  215.3220 C   0  0  0  0  0  0  0  0  0  0  0  0
  144.5592   76.9084  215.0089 H   0  0  0  0  0  0  0  0  0  0  0  0
  144.6540   74.8410  214.3660 C   0  0  0  0  0  0  0  0  0  0  0  0
  144.7563   75.0980  213.3013 H   0  0  0  0  0  0  0  0  0  0  0  0
  144.6330   73.5000  214.7630 C   0  0  0  0  0  0  0  0  0  0  0  0
  144.7172   72.7024  214.0102 H   0  0  0  0  0  0  0  0  0  0  0  0
  144.5050   73.1730  216.1160 C   0  0  0  0  0  0  0  0  0  0  0  0
  144.4849   72.1172  216.4241 H   0  0  0  0  0  0  0  0  0  0  0  0
  142.9500   74.0830  219.1450 C   0  0  0  0  0  0  0  0  0  0  0  0
  142.6525   73.1553  219.6558 H   0  0  0  0  0  0  0  0  0  0  0  0
  141.8140   74.3620  218.1200 C   0  0  0  0  0  0  0  0  0  0  0  0
  142.2581   74.4420  217.1168 H   0  0  0  0  0  0  0  0  0  0  0  0
  141.0983   73.5292  218.1853 H   0  0  0  0  0  0  0  0  0  0  0  0
  141.0460   75.6530  218.4190 C   0  0  0  0  0  0  0  0  0  0  0  0
  140.4165   75.9114  217.5548 H   0  0  0  0  0  0  0  0  0  0  0  0
  140.4145   75.5014  219.3068 H   0  0  0  0  0  0  0  0  0  0  0  0
  141.9890   76.7460  218.6780 N   0  0  0  0  0  0  0  0  0  0  0  0
  142.0120   77.8990  217.8120 C   0  0  0  0  0  0  0  0  0  0  0  0
  141.6910   77.7680  216.5980 O   0  0  0  0  0  0  0  0  0  0  0  0
  142.3690   79.2800  218.3350 C   0  0  1  0  0  0  0  0  0  0  0  0
  143.2958   79.1873  218.9202 H   0  0  0  0  0  0  0  0  0  0  0  0
  142.5860   80.1960  217.2120 N   0  0  0  0  0  0  0  0  0  0  0  0
  142.7510   79.6250  216.3500 H   0  0  0  0  0  0  0  0  0  0  0  0
  143.4730   80.7240  217.3810 H   0  0  0  0  0  0  0  0  0  0  0  0
  141.2750   79.8450  219.2880 C   0  0  0  0  0  0  0  0  0  0  0  0
  140.5069   80.2377  218.6055 H   0  0  0  0  0  0  0  0  0  0  0  0
  141.8270   80.9570  220.2180 C   0  0  0  0  0  0  0  0  0  0  0  0
  142.8234   81.2863  219.8883 H   0  0  0  0  0  0  0  0  0  0  0  0
  141.1999   81.8607  220.2234 H   0  0  0  0  0  0  0  0  0  0  0  0
  141.8990   80.2980  221.5420 C   0  0  0  0  0  0  0  0  0  0  0  0
  142.5230   80.7870  222.6920 C   0  0  0  0  0  0  0  0  0  0  0  0
  143.0361   81.7599  222.6805 H   0  0  0  0  0  0  0  0  0  0  0  0
  142.4830   80.0140  223.8620 C   0  0  0  0  0  0  0  0  0  0  0  0
  142.9733   80.3778  224.7770 H   0  0  0  0  0  0  0  0  0  0  0  0
  141.8170   78.7740  223.8680 C   0  0  0  0  0  0  0  0  0  0  0  0
  141.7864   78.1720  224.7881 H   0  0  0  0  0  0  0  0  0  0  0  0
  141.1920   78.3040  222.7030 C   0  0  0  0  0  0  0  0  0  0  0  0
  140.6650   77.3385  222.7000 H   0  0  0  0  0  0  0  0  0  0  0  0
  141.2520   79.0860  221.5470 C   0  0  0  0  0  0  0  0  0  0  0  0
  140.6630   78.7680  220.2240 C   0  0  0  0  0  0  0  0  0  0  0  0
  140.9483   77.7565  219.8992 H   0  0  0  0  0  0  0  0  0  0  0  0
  139.5631   78.7799  220.2301 H   0  0  0  0  0  0  0  0  0  0  0  0
  142.9920   76.5950  219.7430 C   0  0  0  0  0  0  0  0  0  0  0  0
  143.9764   76.8849  219.3469 H   0  0  0  0  0  0  0  0  0  0  0  0
  142.6943   77.2399  220.5829 H   0  0  0  0  0  0  0  0  0  0  0  0
  143.0720   75.1490  220.2610 C   0  0  0  0  0  0  0  0  0  0  0  0
  144.0395   75.0138  220.7667 H   0  0  0  0  0  0  0  0  0  0  0  0
  142.2201   75.0026  220.9413 H   0  0  0  0  0  0  0  0  0  0  0  0
  1  2  1  0
  2  3  1  0
  3  4  2  0
  4  5  1  0
  4  6  1  0
  6  7  1  0
  6  8  1  0
  6  9  1  0
  3 10  1  0
 10 11  1  0
 11 12  2  0
 12 13  1  0
 12 14  1  0
 14 15  1  0
 14 16  2  0
 16 17  1  0
 16 18  1  0
 18 19  1  0
 18 20  2  0
 20 21  1  0
 10 22  1  0
 22 23  1  0
 22 24  1  0
 24 25  1  0
 24 26  1  0
 24 27  1  0
 27 28  1  0
 27 29  1  0
 27 30  1  0
 30 31  1  0
 31 32  2  0
 31 33  1  0
 33 34  1  1
 33 35  1  0
 35 36  1  0
 35 37  1  0
 33 38  1  0
 38 39  1  0
 38 40  1  0
 40 41  1  0
 40 42  1  0
 40 43  1  0
 43 44  2  0
 44 45  1  0
 44 46  1  0
 46 47  1  0
 46 48  2  0
 48 49  1  0
 48 50  1  0
 50 51  1  0
 50 52  2  0
 52 53  1  0
 53 54  1  0
 53 55  1  0
 30 56  1  0
 56 57  1  0
 56 58  1  0
 56 59  1  0
 59 60  1  0
 59 61  1  0
 20 11  1  0
 59 22  1  0
 53 38  1  0
 52 43  1  0
M  END
>  <UniqueID>  (78) 
46

>  <SMILES>  (78) 
C/C=C(\O)N(c1ccccc1)C1CCN(C(=O)[C@@H](N)C2Cc3ccccc3C2)CC1

>  <Energy>  (78) 
83.21370759381252

>  <Genealogy>  (78) 
CC=C(O)N(c1ccccc1)C1CCN(C(=O)[C@@H](N)C2Cc3ccccc3C2)CC1 (tautomer)
C/C=C(\O)N(c1ccccc1)C1CCN(C(=O)[C@@H](N)C2Cc3ccccc3C2)CC1 (cis-trans isomerization)
C/C=C(\O)N(c1ccccc1)C1CCN(C(=O)[C@@H](N)C2Cc3ccccc3C2)CC1 (3D coordinates assigned)
C/C=C(\O)N(c1ccccc1)C1CCN(C(=O)[C@@H](N)C2Cc3ccccc3C2)CC1 (nonaromatic ring conformer: 83.21370759381252 kcal/mol)

>  <smiles>  (78) 
CCC(=O)N(c1ccccc1)C1CCN(C(=O)[C@@H](N)C2Cc3ccccc3C2)CC1

>  <score_type>  (78) 
oracle

>  <origin>  (78) 
autodockgpu

>  <m_score__min__energy>  (78) 
-8.1799999999999997

>  <m_primary>  (78) 
energy

>  <meeko>  (78) 
{"free_energy": -7.27, "intermolecular_energy": -9.65, "internal_energy": -2.6, "cluster_size": 9, "cluster_id": 3, "rank_in_cluster": 2}

>  <energy>  (78) 
-6.75

>  <cluster_rmsd>  (78) 
0.04

>  <rmsd>  (78) 
270.94

>  <cluster>  (78) 
6

$$$$
LLZHWBREMUWYMR-SCVLRMBKNA-N
     RDKit          3D

 61 64  0  0  0  0  0  0  0  0999 V2000
  146.1400   70.9080  220.0130 H   0  0  0  0  0  0  0  0  0  0  0  0
  146.0220   71.5930  219.2780 O   0  0  0  0  0  0  0  0  0  0  0  0
  145.6150   72.9110  219.5050 C   0  0  0  0  0  0  0  0  0  0  0  0
  146.2500   73.6900  220.3990 C   0  0  0  0  0  0  0  0  0  0  0  0
  146.7349   74.6099  220.0402 H   0  0  0  0  0  0  0  0  0  0  0  0
  146.3290   73.3660  221.8590 C   0  0  0  0  0  0  0  0  0  0  0  0
  146.1088   74.2689  222.4474 H   0  0  0  0  0  0  0  0  0  0  0  0
  145.5955   72.5828  222.1010 H   0  0  0  0  0  0  0  0  0  0  0  0
  147.3407   73.0083  222.1010 H   0  0  0  0  0  0  0  0  0  0  0  0
  144.4980   73.4420  218.7560 N   0  0  0  0  0  0  0  0  0  0  0  0
  144.6850   73.7870  217.3670 C   0  0  0  0  0  0  0  0  0  0  0  0
  145.1360   72.8250  216.4460 C   0  0  0  0  0  0  0  0  0  0  0  0
  145.3329   71.7959  216.7810 H   0  0  0  0  0  0  0  0  0  0  0  0
  145.3350   73.1710  215.1070 C   0  0  0  0  0  0  0  0  0  0  0  0
  145.6861   72.4136  214.3907 H   0  0  0  0  0  0  0  0  0  0  0  0
  145.0890   74.4770  214.6760 C   0  0  0  0  0  0  0  0  0  0  0  0
  145.2439   74.7465  213.6208 H   0  0  0  0  0  0  0  0  0  0  0  0
  144.6460   75.4410  215.5860 C   0  0  0  0  0  0  0  0  0  0  0  0
  144.4530   76.4694  215.2468 H   0  0  0  0  0  0  0  0  0  0  0  0
  144.4480   75.0990  216.9270 C   0  0  0  0  0  0  0  0  0  0  0  0
  144.1047   75.8619  217.6412 H   0  0  0  0  0  0  0  0  0  0  0  0
  143.1730   73.6570  219.3830 C   0  0  0  0  0  0  0  0  0  0  0  0
  142.8994   72.7403  219.9259 H   0  0  0  0  0  0  0  0  0  0  0  0
  142.0520   73.8470  218.3220 C   0  0  0  0  0  0  0  0  0  0  0  0
  142.5166   73.9033  217.3265 H   0  0  0  0  0  0  0  0  0  0  0  0
  141.3684   72.9893  218.4063 H   0  0  0  0  0  0  0  0  0  0  0  0
  141.2270   75.1170  218.5490 C   0  0  0  0  0  0  0  0  0  0  0  0
  140.6079   75.3133  217.6612 H   0  0  0  0  0  0  0  0  0  0  0  0
  140.5816   74.9774  219.4287 H   0  0  0  0  0  0  0  0  0  0  0  0
  142.1200   76.2570  218.7810 N   0  0  0  0  0  0  0  0  0  0  0  0
  142.1180   77.3720  217.8670 C   0  0  0  0  0  0  0  0  0  0  0  0
  141.8310   77.1780  216.6530 O   0  0  0  0  0  0  0  0  0  0  0  0
  142.4070   78.7880  218.3370 C   0  0  1  0  0  0  0  0  0  0  0  0
  143.3101   78.7552  218.9641 H   0  0  0  0  0  0  0  0  0  0  0  0
  142.6430   79.6570  217.1810 N   0  0  0  0  0  0  0  0  0  0  0  0
  142.9280   79.0570  216.3720 H   0  0  0  0  0  0  0  0  0  0  0  0
  143.4660   80.2690  217.3890 H   0  0  0  0  0  0  0  0  0  0  0  0
  141.2550   79.3590  219.2160 C   0  0  0  0  0  0  0  0  0  0  0  0
  140.4793   79.6383  218.4877 H   0  0  0  0  0  0  0  0  0  0  0  0
  141.7110   80.5820  220.0540 C   0  0  0  0  0  0  0  0  0  0  0  0
  142.6918   80.9468  219.7151 H   0  0  0  0  0  0  0  0  0  0  0  0
  141.0268   81.4390  219.9675 H   0  0  0  0  0  0  0  0  0  0  0  0
  141.7930   80.0470  221.4330 C   0  0  0  0  0  0  0  0  0  0  0  0
  142.3560   80.6750  222.5450 C   0  0  0  0  0  0  0  0  0  0  0  0
  142.8061   81.6747  222.4558 H   0  0  0  0  0  0  0  0  0  0  0  0
  142.3370   80.0070  223.7790 C   0  0  0  0  0  0  0  0  0  0  0  0
  142.7785   80.4822  224.6674 H   0  0  0  0  0  0  0  0  0  0  0  0
  141.7540   78.7300  223.8820 C   0  0  0  0  0  0  0  0  0  0  0  0
  141.7405   78.2097  224.8511 H   0  0  0  0  0  0  0  0  0  0  0  0
  141.1900   78.1190  222.7520 C   0  0  0  0  0  0  0  0  0  0  0  0
  140.7277   77.1235  222.8247 H   0  0  0  0  0  0  0  0  0  0  0  0
  141.2270   78.8000  221.5320 C   0  0  0  0  0  0  0  0  0  0  0  0
  140.6930   78.3290  220.2320 C   0  0  0  0  0  0  0  0  0  0  0  0
  141.0522   77.3148  220.0034 H   0  0  0  0  0  0  0  0  0  0  0  0
  139.5949   78.2669  220.2167 H   0  0  0  0  0  0  0  0  0  0  0  0
  143.1020   76.1920  219.8730 C   0  0  0  0  0  0  0  0  0  0  0  0
  144.0833   76.5051  219.4869 H   0  0  0  0  0  0  0  0  0  0  0  0
  142.7590   76.8589  220.6777 H   0  0  0  0  0  0  0  0  0  0  0  0
  143.2270   74.7730  220.4540 C   0  0  0  0  0  0  0  0  0  0  0  0
  144.1871   74.6984  220.9856 H   0  0  0  0  0  0  0  0  0  0  0  0
  142.3658   74.6211  221.1213 H   0  0  0  0  0  0  0  0  0  0  0  0
  1  2  1  0
  2  3  1  0
  3  4  2  0
  4  5  1  0
  4  6  1  0
  6  7  1  0
  6  8  1  0
  6  9  1  0
  3 10  1  0
 10 11  1  0
 11 12  2  0
 12 13  1  0
 12 14  1  0
 14 15  1  0
 14 16  2  0
 16 17  1  0
 16 18  1  0
 18 19  1  0
 18 20  2  0
 20 21  1  0
 10 22  1  0
 22 23  1  0
 22 24  1  0
 24 25  1  0
 24 26  1  0
 24 27  1  0
 27 28  1  0
 27 29  1  0
 27 30  1  0
 30 31  1  0
 31 32  2  0
 31 33  1  0
 33 34  1  1
 33 35  1  0
 35 36  1  0
 35 37  1  0
 33 38  1  0
 38 39  1  0
 38 40  1  0
 40 41  1  0
 40 42  1  0
 40 43  1  0
 43 44  2  0
 44 45  1  0
 44 46  1  0
 46 47  1  0
 46 48  2  0
 48 49  1  0
 48 50  1  0
 50 51  1  0
 50 52  2  0
 52 53  1  0
 53 54  1  0
 53 55  1  0
 30 56  1  0
 56 57  1  0
 56 58  1  0
 56 59  1  0
 59 60  1  0
 59 61  1  0
 20 11  1  0
 59 22  1  0
 53 38  1  0
 52 43  1  0
M  END
>  <UniqueID>  (79) 
46

>  <SMILES>  (79) 
C/C=C(\O)N(c1ccccc1)C1CCN(C(=O)[C@@H](N)C2Cc3ccccc3C2)CC1

>  <Energy>  (79) 
83.21370759381252

>  <Genealogy>  (79) 
CC=C(O)N(c1ccccc1)C1CCN(C(=O)[C@@H](N)C2Cc3ccccc3C2)CC1 (tautomer)
C/C=C(\O)N(c1ccccc1)C1CCN(C(=O)[C@@H](N)C2Cc3ccccc3C2)CC1 (cis-trans isomerization)
C/C=C(\O)N(c1ccccc1)C1CCN(C(=O)[C@@H](N)C2Cc3ccccc3C2)CC1 (3D coordinates assigned)
C/C=C(\O)N(c1ccccc1)C1CCN(C(=O)[C@@H](N)C2Cc3ccccc3C2)CC1 (nonaromatic ring conformer: 83.21370759381252 kcal/mol)

>  <smiles>  (79) 
CCC(=O)N(c1ccccc1)C1CCN(C(=O)[C@@H](N)C2Cc3ccccc3C2)CC1

>  <score_type>  (79) 
oracle

>  <origin>  (79) 
autodockgpu

>  <m_score__min__energy>  (79) 
-8.1799999999999997

>  <m_primary>  (79) 
energy

>  <meeko>  (79) 
{"free_energy": -7.05, "intermolecular_energy": -9.44, "internal_energy": -2.51, "cluster_size": 9, "cluster_id": 3, "rank_in_cluster": 8}

>  <energy>  (79) 
-6.51

>  <cluster_rmsd>  (79) 
0.0

>  <rmsd>  (79) 
270.44

>  <cluster>  (79) 
7

$$$$
LLZHWBREMUWYMR-SCVLRMBKNA-N
     RDKit          3D

 61 64  0  0  0  0  0  0  0  0999 V2000
  146.1550   71.1310  220.1340 H   0  0  0  0  0  0  0  0  0  0  0  0
  146.0210   71.8240  219.4100 O   0  0  0  0  0  0  0  0  0  0  0  0
  145.4890   73.0960  219.6440 C   0  0  0  0  0  0  0  0  0  0  0  0
  145.9800   73.8860  220.6160 C   0  0  0  0  0  0  0  0  0  0  0  0
  146.0723   74.9639  220.4172 H   0  0  0  0  0  0  0  0  0  0  0  0
  146.4070   73.3700  221.9550 C   0  0  0  0  0  0  0  0  0  0  0  0
  145.9202   73.9582  222.7469 H   0  0  0  0  0  0  0  0  0  0  0  0
  146.1153   72.3137  222.0510 H   0  0  0  0  0  0  0  0  0  0  0  0
  147.4992   73.4589  222.0510 H   0  0  0  0  0  0  0  0  0  0  0  0
  144.4000   73.5680  218.8180 N   0  0  0  0  0  0  0  0  0  0  0  0
  144.6470   73.8460  217.4240 C   0  0  0  0  0  0  0  0  0  0  0  0
  145.1320   72.8420  216.5680 C   0  0  0  0  0  0  0  0  0  0  0  0
  145.3108   71.8293  216.9584 H   0  0  0  0  0  0  0  0  0  0  0  0
  145.3880   73.1240  215.2240 C   0  0  0  0  0  0  0  0  0  0  0  0
  145.7648   72.3330  214.5590 H   0  0  0  0  0  0  0  0  0  0  0  0
  145.1660   74.4100  214.7230 C   0  0  0  0  0  0  0  0  0  0  0  0
  145.3662   74.6297  213.6639 H   0  0  0  0  0  0  0  0  0  0  0  0
  144.6900   75.4160  215.5670 C   0  0  0  0  0  0  0  0  0  0  0  0
  144.5164   76.4279  215.1723 H   0  0  0  0  0  0  0  0  0  0  0  0
  144.4340   75.1380  216.9130 C   0  0  0  0  0  0  0  0  0  0  0  0
  144.0640   75.9344  217.5755 H   0  0  0  0  0  0  0  0  0  0  0  0
  143.0440   73.7860  219.3710 C   0  0  0  0  0  0  0  0  0  0  0  0
  142.7317   72.8626  219.8807 H   0  0  0  0  0  0  0  0  0  0  0  0
  141.9880   74.0070  218.2510 C   0  0  0  0  0  0  0  0  0  0  0  0
  142.5100   74.0745  217.2851 H   0  0  0  0  0  0  0  0  0  0  0  0
  141.2916   73.1561  218.2819 H   0  0  0  0  0  0  0  0  0  0  0  0
  141.1640   75.2820  218.4510 C   0  0  0  0  0  0  0  0  0  0  0  0
  140.5998   75.4998  217.5322 H   0  0  0  0  0  0  0  0  0  0  0  0
  140.4666   75.1353  219.2890 H   0  0  0  0  0  0  0  0  0  0  0  0
  142.0540   76.4080  218.7540 N   0  0  0  0  0  0  0  0  0  0  0  0
  142.1160   77.5390  217.8620 C   0  0  0  0  0  0  0  0  0  0  0  0
  141.8980   77.3680  216.6300 O   0  0  0  0  0  0  0  0  0  0  0  0
  142.3920   78.9420  218.3730 C   0  0  1  0  0  0  0  0  0  0  0  0
  143.2942   78.8983  219.0008 H   0  0  0  0  0  0  0  0  0  0  0  0
  142.6220   79.8460  217.2430 N   0  0  0  0  0  0  0  0  0  0  0  0
  142.9180   79.2730  216.4190 H   0  0  0  0  0  0  0  0  0  0  0  0
  143.4360   80.4630  217.4710 H   0  0  0  0  0  0  0  0  0  0  0  0
  141.2340   79.4780  219.2650 C   0  0  0  0  0  0  0  0  0  0  0  0
  140.4431   79.7349  218.5449 H   0  0  0  0  0  0  0  0  0  0  0  0
  141.6620   80.7140  220.1000 C   0  0  0  0  0  0  0  0  0  0  0  0
  142.6276   81.1088  219.7511 H   0  0  0  0  0  0  0  0  0  0  0  0
  140.9515   81.5501  220.0222 H   0  0  0  0  0  0  0  0  0  0  0  0
  141.7750   80.1800  221.4760 C   0  0  0  0  0  0  0  0  0  0  0  0
  142.3310   80.8230  222.5840 C   0  0  0  0  0  0  0  0  0  0  0  0
  142.7495   81.8361  222.4920 H   0  0  0  0  0  0  0  0  0  0  0  0
  142.3460   80.1530  223.8170 C   0  0  0  0  0  0  0  0  0  0  0  0
  142.7837   80.6395  224.7011 H   0  0  0  0  0  0  0  0  0  0  0  0
  141.8020   78.8600  223.9240 C   0  0  0  0  0  0  0  0  0  0  0  0
  141.8144   78.3384  224.8924 H   0  0  0  0  0  0  0  0  0  0  0  0
  141.2440   78.2340  222.8000 C   0  0  0  0  0  0  0  0  0  0  0  0
  140.8122   77.2252  222.8768 H   0  0  0  0  0  0  0  0  0  0  0  0
  141.2470   78.9160  221.5810 C   0  0  0  0  0  0  0  0  0  0  0  0
  140.7130   78.4310  220.2860 C   0  0  0  0  0  0  0  0  0  0  0  0
  141.0991   77.4278  220.0523 H   0  0  0  0  0  0  0  0  0  0  0  0
  139.6170   78.3372  220.2823 H   0  0  0  0  0  0  0  0  0  0  0  0
  142.9700   76.3130  219.9000 C   0  0  0  0  0  0  0  0  0  0  0  0
  143.9754   76.6209  219.5769 H   0  0  0  0  0  0  0  0  0  0  0  0
  142.5874   76.9703  220.6948 H   0  0  0  0  0  0  0  0  0  0  0  0
  143.0460   74.8840  220.4630 C   0  0  0  0  0  0  0  0  0  0  0  0
  143.9722   74.7900  221.0489 H   0  0  0  0  0  0  0  0  0  0  0  0
  142.1456   74.7307  221.0759 H   0  0  0  0  0  0  0  0  0  0  0  0
  1  2  1  0
  2  3  1  0
  3  4  2  0
  4  5  1  0
  4  6  1  0
  6  7  1  0
  6  8  1  0
  6  9  1  0
  3 10  1  0
 10 11  1  0
 11 12  2  0
 12 13  1  0
 12 14  1  0
 14 15  1  0
 14 16  2  0
 16 17  1  0
 16 18  1  0
 18 19  1  0
 18 20  2  0
 20 21  1  0
 10 22  1  0
 22 23  1  0
 22 24  1  0
 24 25  1  0
 24 26  1  0
 24 27  1  0
 27 28  1  0
 27 29  1  0
 27 30  1  0
 30 31  1  0
 31 32  2  0
 31 33  1  0
 33 34  1  1
 33 35  1  0
 35 36  1  0
 35 37  1  0
 33 38  1  0
 38 39  1  0
 38 40  1  0
 40 41  1  0
 40 42  1  0
 40 43  1  0
 43 44  2  0
 44 45  1  0
 44 46  1  0
 46 47  1  0
 46 48  2  0
 48 49  1  0
 48 50  1  0
 50 51  1  0
 50 52  2  0
 52 53  1  0
 53 54  1  0
 53 55  1  0
 30 56  1  0
 56 57  1  0
 56 58  1  0
 56 59  1  0
 59 60  1  0
 59 61  1  0
 20 11  1  0
 59 22  1  0
 53 38  1  0
 52 43  1  0
M  END
>  <UniqueID>  (80) 
46

>  <SMILES>  (80) 
C/C=C(\O)N(c1ccccc1)C1CCN(C(=O)[C@@H](N)C2Cc3ccccc3C2)CC1

>  <Energy>  (80) 
83.21370759381252

>  <Genealogy>  (80) 
CC=C(O)N(c1ccccc1)C1CCN(C(=O)[C@@H](N)C2Cc3ccccc3C2)CC1 (tautomer)
C/C=C(\O)N(c1ccccc1)C1CCN(C(=O)[C@@H](N)C2Cc3ccccc3C2)CC1 (cis-trans isomerization)
C/C=C(\O)N(c1ccccc1)C1CCN(C(=O)[C@@H](N)C2Cc3ccccc3C2)CC1 (3D coordinates assigned)
C/C=C(\O)N(c1ccccc1)C1CCN(C(=O)[C@@H](N)C2Cc3ccccc3C2)CC1 (nonaromatic ring conformer: 83.21370759381252 kcal/mol)

>  <smiles>  (80) 
CCC(=O)N(c1ccccc1)C1CCN(C(=O)[C@@H](N)C2Cc3ccccc3C2)CC1

>  <score_type>  (80) 
oracle

>  <origin>  (80) 
autodockgpu

>  <m_score__min__energy>  (80) 
-8.1799999999999997

>  <m_primary>  (80) 
energy

>  <meeko>  (80) 
{"free_energy": -7.27, "intermolecular_energy": -9.65, "internal_energy": -2.38, "cluster_size": 9, "cluster_id": 3, "rank_in_cluster": 1}

>  <energy>  (80) 
-5.72

>  <cluster_rmsd>  (80) 
0.0

>  <rmsd>  (80) 
272.92

>  <cluster>  (80) 
8

$$$$
