QFPZKQQOUZJSQV-ULFODFFFNA-N
     RDKit          3D

 37 38  0  0  0  0  0  0  0  0999 V2000
  141.8700   76.6780  222.5360 H   0  0  0  0  0  0  0  0  0  0  0  0
  141.0440   76.1200  222.7090 O   0  0  0  0  0  0  0  0  0  0  0  0
  140.6000   75.1620  221.7970 C   0  0  0  0  0  0  0  0  0  0  0  0
  139.9580   73.9590  222.2460 N   0  0  0  0  0  0  0  0  0  0  0  0
  140.6270   72.8270  222.7500 N   0  0  0  0  0  0  0  0  0  0  0  0
  140.0230   71.7250  223.0770 C   0  0  0  0  0  0  0  0  0  0  0  0
  139.4445   71.1820  222.3151 H   0  0  0  0  0  0  0  0  0  0  0  0
  140.0960   71.1840  224.4520 C   0  0  0  0  0  0  0  0  0  0  0  0
  139.3850   70.0350  224.8580 C   0  0  0  0  0  0  0  0  0  0  0  0
  138.5820   69.3630  223.9950 F   0  0  0  0  0  0  0  0  0  0  0  0
  139.4930   69.5850  226.1370 N   0  0  0  0  0  0  0  0  0  0  0  0
  140.2750   70.2080  227.0560 C   0  0  0  0  0  0  0  0  0  0  0  0
  140.3393   69.8141  228.0810 H   0  0  0  0  0  0  0  0  0  0  0  0
  140.9970   71.3480  226.7000 C   0  0  0  0  0  0  0  0  0  0  0  0
  141.6319   71.8574  227.4399 H   0  0  0  0  0  0  0  0  0  0  0  0
  140.9050   71.8350  225.3950 C   0  0  0  0  0  0  0  0  0  0  0  0
  141.4695   72.7334  225.1048 H   0  0  0  0  0  0  0  0  0  0  0  0
  140.7270   75.3730  220.4850 C   0  0  0  0  0  0  0  0  0  0  0  0
  139.9586   74.9671  219.8106 H   0  0  0  0  0  0  0  0  0  0  0  0
  141.8740   76.1410  219.8880 C   0  0  0  0  0  0  0  0  0  0  0  0
  142.7733   75.9580  220.4945 H   0  0  0  0  0  0  0  0  0  0  0  0
  142.0030   75.7928  218.8526 H   0  0  0  0  0  0  0  0  0  0  0  0
  141.6150   77.6500  219.8390 C   0  0  0  0  0  0  0  0  0  0  0  0
  142.2990   78.1086  219.1097 H   0  0  0  0  0  0  0  0  0  0  0  0
  140.5683   77.8158  219.5441 H   0  0  0  0  0  0  0  0  0  0  0  0
  141.8270   78.2500  221.1200 O   0  0  0  0  0  0  0  0  0  0  0  0
  140.8460   78.8600  221.9200 C   0  0  0  0  0  0  0  0  0  0  0  0
  139.4710   78.5900  221.7700 C   0  0  0  0  0  0  0  0  0  0  0  0
  139.1333   77.8850  220.9961 H   0  0  0  0  0  0  0  0  0  0  0  0
  138.5340   79.2130  222.5990 C   0  0  0  0  0  0  0  0  0  0  0  0
  137.4633   78.9900  222.4809 H   0  0  0  0  0  0  0  0  0  0  0  0
  138.9530   80.1180  223.5770 C   0  0  0  0  0  0  0  0  0  0  0  0
  137.7730   80.8940  224.6180 Cl  0  0  0  0  0  0  0  0  0  0  0  0
  140.3120   80.4070  223.7220 C   0  0  0  0  0  0  0  0  0  0  0  0
  140.6416   81.1248  224.4876 H   0  0  0  0  0  0  0  0  0  0  0  0
  141.2560   79.7850  222.8950 C   0  0  0  0  0  0  0  0  0  0  0  0
  142.9600   80.1610  223.1050 Cl  0  0  0  0  0  0  0  0  0  0  0  0
  1  2  1  0
  2  3  1  0
  3  4  1  0
  4  5  1  0
  5  6  2  0
  6  7  1  0
  6  8  1  0
  8  9  2  0
  9 10  1  0
  9 11  1  0
 11 12  2  0
 12 13  1  0
 12 14  1  0
 14 15  1  0
 14 16  2  0
 16 17  1  0
  3 18  2  0
 18 19  1  0
 18 20  1  0
 20 21  1  0
 20 22  1  0
 20 23  1  0
 23 24  1  0
 23 25  1  0
 23 26  1  0
 26 27  1  0
 27 28  2  0
 28 29  1  0
 28 30  1  0
 30 31  1  0
 30 32  2  0
 32 33  1  0
 32 34  1  0
 34 35  1  0
 34 36  2  0
 36 37  1  0
 16  8  1  0
 36 27  1  0
M  CHG  1   4  -1
M  END
>  <UniqueID>  (1) 
13

>  <SMILES>  (1) 
O/C(=C\CCOc1ccc(Cl)cc1Cl)[N-]/N=C/c1cccnc1F

>  <Energy>  (1) 
39.97050336635567

>  <Genealogy>  (1) 
O=C(CCCOc1ccc(Cl)cc1Cl)[N-]N=Cc1cccnc1F (protonated)
OC(=CCCOc1ccc(Cl)cc1Cl)[N-]N=Cc1cccnc1F (tautomer)
O/C(=C\CCOc1ccc(Cl)cc1Cl)[N-]/N=C/c1cccnc1F (cis-trans isomerization)
O/C(=C\CCOc1ccc(Cl)cc1Cl)[N-]/N=C/c1cccnc1F (3D coordinates assigned)
O/C(=C\CCOc1ccc(Cl)cc1Cl)[N-]/N=C/c1cccnc1F (optimized conformer: 39.97050336635567 kcal/mol)

>  <smiles>  (1) 
O=C(CCCOc1ccc(Cl)cc1Cl)NN=Cc1cccnc1F

>  <score_type>  (1) 
oracle

>  <origin>  (1) 
autodockgpu

>  <m_score__min__energy>  (1) 
-6.3499999999999996

>  <m_primary>  (1) 
energy

>  <meeko>  (1) 
{"free_energy": -5.77, "intermolecular_energy": -8.76, "internal_energy": -1.26, "cluster_size": 6, "cluster_id": 1, "rank_in_cluster": 6}

>  <energy>  (1) 
-6.35

>  <cluster_rmsd>  (1) 
0.0

>  <rmsd>  (1) 
272.82

>  <cluster>  (1) 
1

$$$$
QFPZKQQOUZJSQV-ULFODFFFNA-N
     RDKit          3D

 37 38  0  0  0  0  0  0  0  0999 V2000
  136.6420   68.4390  225.7200 H   0  0  0  0  0  0  0  0  0  0  0  0
  136.8670   69.0460  224.9430 O   0  0  0  0  0  0  0  0  0  0  0  0
  140.0870   67.7670  226.7660 C   0  0  0  0  0  0  0  0  0  0  0  0
  139.0530   67.9590  224.6250 N   0  0  0  0  0  0  0  0  0  0  0  0
  139.1890   67.3910  225.9060 N   0  0  0  0  0  0  0  0  0  0  0  0
  138.3410   69.7630  223.2350 C   0  0  0  0  0  0  0  0  0  0  0  0
  137.7090   69.6896  222.3377 H   0  0  0  0  0  0  0  0  0  0  0  0
  140.3960   69.1970  226.9830 C   0  0  0  0  0  0  0  0  0  0  0  0
  139.9870   69.8990  228.1370 C   0  0  0  0  0  0  0  0  0  0  0  0
  139.2730   69.2890  229.1160 F   0  0  0  0  0  0  0  0  0  0  0  0
  140.3030   71.2140  228.2810 N   0  0  0  0  0  0  0  0  0  0  0  0
  141.0120   71.8910  227.3400 C   0  0  0  0  0  0  0  0  0  0  0  0
  141.2499   72.9544  227.4902 H   0  0  0  0  0  0  0  0  0  0  0  0
  141.4380   71.2380  226.1840 C   0  0  0  0  0  0  0  0  0  0  0  0
  142.0127   71.7809  225.4192 H   0  0  0  0  0  0  0  0  0  0  0  0
  141.1280   69.8890  226.0070 C   0  0  0  0  0  0  0  0  0  0  0  0
  141.4593   69.3659  225.0978 H   0  0  0  0  0  0  0  0  0  0  0  0
  138.0830   68.9530  224.2650 C   0  0  0  0  0  0  0  0  0  0  0  0
  140.6294   67.0054  227.3454 H   0  0  0  0  0  0  0  0  0  0  0  0
  139.4570   70.7710  223.2470 C   0  0  0  0  0  0  0  0  0  0  0  0
  139.5593   71.1703  224.2669 H   0  0  0  0  0  0  0  0  0  0  0  0
  140.3718   70.2570  222.9170 H   0  0  0  0  0  0  0  0  0  0  0  0
  139.2110   71.9390  222.2860 C   0  0  0  0  0  0  0  0  0  0  0  0
  139.5005   71.6350  221.2693 H   0  0  0  0  0  0  0  0  0  0  0  0
  138.1435   72.2020  222.3211 H   0  0  0  0  0  0  0  0  0  0  0  0
  139.9750   73.0870  222.6660 O   0  0  0  0  0  0  0  0  0  0  0  0
  140.7880   73.8560  221.8180 C   0  0  0  0  0  0  0  0  0  0  0  0
  141.9420   73.3360  221.1970 C   0  0  0  0  0  0  0  0  0  0  0  0
  142.2378   72.2925  221.3801 H   0  0  0  0  0  0  0  0  0  0  0  0
  142.7120   74.1370  220.3510 C   0  0  0  0  0  0  0  0  0  0  0  0
  143.6054   73.7195  219.8635 H   0  0  0  0  0  0  0  0  0  0  0  0
  142.3510   75.4670  220.1220 C   0  0  0  0  0  0  0  0  0  0  0  0
  143.3190   76.4680  219.0560 Cl  0  0  0  0  0  0  0  0  0  0  0  0
  141.2200   75.9990  220.7470 C   0  0  0  0  0  0  0  0  0  0  0  0
  140.9393   77.0482  220.5724 H   0  0  0  0  0  0  0  0  0  0  0  0
  140.4430   75.2000  221.5950 C   0  0  0  0  0  0  0  0  0  0  0  0
  139.0210   75.8930  222.3600 Cl  0  0  0  0  0  0  0  0  0  0  0  0
  1  2  1  0
  2  3  1  0
  3  4  1  0
  4  5  1  0
  5  6  2  0
  6  7  1  0
  6  8  1  0
  8  9  2  0
  9 10  1  0
  9 11  1  0
 11 12  2  0
 12 13  1  0
 12 14  1  0
 14 15  1  0
 14 16  2  0
 16 17  1  0
  3 18  2  0
 18 19  1  0
 18 20  1  0
 20 21  1  0
 20 22  1  0
 20 23  1  0
 23 24  1  0
 23 25  1  0
 23 26  1  0
 26 27  1  0
 27 28  2  0
 28 29  1  0
 28 30  1  0
 30 31  1  0
 30 32  2  0
 32 33  1  0
 32 34  1  0
 34 35  1  0
 34 36  2  0
 36 37  1  0
 16  8  1  0
 36 27  1  0
M  CHG  1   4  -1
M  END
>  <UniqueID>  (2) 
13

>  <SMILES>  (2) 
O/C(=C\CCOc1ccc(Cl)cc1Cl)[N-]/N=C/c1cccnc1F

>  <Energy>  (2) 
39.97050336635567

>  <Genealogy>  (2) 
O=C(CCCOc1ccc(Cl)cc1Cl)[N-]N=Cc1cccnc1F (protonated)
OC(=CCCOc1ccc(Cl)cc1Cl)[N-]N=Cc1cccnc1F (tautomer)
O/C(=C\CCOc1ccc(Cl)cc1Cl)[N-]/N=C/c1cccnc1F (cis-trans isomerization)
O/C(=C\CCOc1ccc(Cl)cc1Cl)[N-]/N=C/c1cccnc1F (3D coordinates assigned)
O/C(=C\CCOc1ccc(Cl)cc1Cl)[N-]/N=C/c1cccnc1F (optimized conformer: 39.97050336635567 kcal/mol)

>  <smiles>  (2) 
O=C(CCCOc1ccc(Cl)cc1Cl)NN=Cc1cccnc1F

>  <score_type>  (2) 
oracle

>  <origin>  (2) 
autodockgpu

>  <m_score__min__energy>  (2) 
-6.3499999999999996

>  <m_primary>  (2) 
energy

>  <meeko>  (2) 
{"free_energy": -6.1, "intermolecular_energy": -9.08, "internal_energy": -0.94, "cluster_size": 1, "cluster_id": 3, "rank_in_cluster": 1}

>  <energy>  (2) 
-6.29

>  <cluster_rmsd>  (2) 
1.42

>  <rmsd>  (2) 
273.27

>  <cluster>  (2) 
1

$$$$
QFPZKQQOUZJSQV-ULFODFFFNA-N
     RDKit          3D

 37 38  0  0  0  0  0  0  0  0999 V2000
  139.0710   73.6370  223.1000 H   0  0  0  0  0  0  0  0  0  0  0  0
  139.0640   74.1400  222.2230 O   0  0  0  0  0  0  0  0  0  0  0  0
  139.7270   77.7520  222.7230 C   0  0  0  0  0  0  0  0  0  0  0  0
  140.5390   75.9350  221.4080 N   0  0  0  0  0  0  0  0  0  0  0  0
  139.6470   76.9920  221.6730 N   0  0  0  0  0  0  0  0  0  0  0  0
  141.1440   73.6360  221.2080 C   0  0  0  0  0  0  0  0  0  0  0  0
  141.7159   73.8250  220.2875 H   0  0  0  0  0  0  0  0  0  0  0  0
  140.7240   78.8400  222.8140 C   0  0  0  0  0  0  0  0  0  0  0  0
  141.9070   78.7300  223.5760 C   0  0  0  0  0  0  0  0  0  0  0  0
  142.1870   77.6040  224.2790 F   0  0  0  0  0  0  0  0  0  0  0  0
  142.7870   79.7650  223.6200 N   0  0  0  0  0  0  0  0  0  0  0  0
  142.5710   80.9230  222.9430 C   0  0  0  0  0  0  0  0  0  0  0  0
  143.3070   81.7385  222.9996 H   0  0  0  0  0  0  0  0  0  0  0  0
  141.4160   81.0780  222.1760 C   0  0  0  0  0  0  0  0  0  0  0  0
  141.2347   82.0137  221.6268 H   0  0  0  0  0  0  0  0  0  0  0  0
  140.4930   80.0330  222.1130 C   0  0  0  0  0  0  0  0  0  0  0  0
  139.5796   80.1454  221.5105 H   0  0  0  0  0  0  0  0  0  0  0  0
  140.2460   74.5440  221.5990 C   0  0  0  0  0  0  0  0  0  0  0  0
  139.0377   77.5825  223.5633 H   0  0  0  0  0  0  0  0  0  0  0  0
  141.4080   72.3670  221.9700 C   0  0  0  0  0  0  0  0  0  0  0  0
  142.1440   71.7688  221.4128 H   0  0  0  0  0  0  0  0  0  0  0  0
  141.7821   72.6492  222.9652 H   0  0  0  0  0  0  0  0  0  0  0  0
  140.1440   71.5240  222.1730 C   0  0  0  0  0  0  0  0  0  0  0  0
  139.3966   71.8094  221.4181 H   0  0  0  0  0  0  0  0  0  0  0  0
  140.4116   70.4621  222.0694 H   0  0  0  0  0  0  0  0  0  0  0  0
  139.5930   71.7290  223.4770 O   0  0  0  0  0  0  0  0  0  0  0  0
  139.9080   70.9940  224.6320 C   0  0  0  0  0  0  0  0  0  0  0  0
  140.8040   71.4680  225.6110 C   0  0  0  0  0  0  0  0  0  0  0  0
  141.2931   72.4442  225.4774 H   0  0  0  0  0  0  0  0  0  0  0  0
  141.0750   70.7060  226.7500 C   0  0  0  0  0  0  0  0  0  0  0  0
  141.7694   71.0879  227.5128 H   0  0  0  0  0  0  0  0  0  0  0  0
  140.4670   69.4610  226.9230 C   0  0  0  0  0  0  0  0  0  0  0  0
  140.8070   68.5090  228.3570 Cl  0  0  0  0  0  0  0  0  0  0  0  0
  139.5910   68.9730  225.9500 C   0  0  0  0  0  0  0  0  0  0  0  0
  139.1169   67.9893  226.0827 H   0  0  0  0  0  0  0  0  0  0  0  0
  139.3150   69.7320  224.8070 C   0  0  0  0  0  0  0  0  0  0  0  0
  138.2020   69.0980  223.6040 Cl  0  0  0  0  0  0  0  0  0  0  0  0
  1  2  1  0
  2  3  1  0
  3  4  1  0
  4  5  1  0
  5  6  2  0
  6  7  1  0
  6  8  1  0
  8  9  2  0
  9 10  1  0
  9 11  1  0
 11 12  2  0
 12 13  1  0
 12 14  1  0
 14 15  1  0
 14 16  2  0
 16 17  1  0
  3 18  2  0
 18 19  1  0
 18 20  1  0
 20 21  1  0
 20 22  1  0
 20 23  1  0
 23 24  1  0
 23 25  1  0
 23 26  1  0
 26 27  1  0
 27 28  2  0
 28 29  1  0
 28 30  1  0
 30 31  1  0
 30 32  2  0
 32 33  1  0
 32 34  1  0
 34 35  1  0
 34 36  2  0
 36 37  1  0
 16  8  1  0
 36 27  1  0
M  CHG  1   4  -1
M  END
>  <UniqueID>  (3) 
13

>  <SMILES>  (3) 
O/C(=C\CCOc1ccc(Cl)cc1Cl)[N-]/N=C/c1cccnc1F

>  <Energy>  (3) 
39.97050336635567

>  <Genealogy>  (3) 
O=C(CCCOc1ccc(Cl)cc1Cl)[N-]N=Cc1cccnc1F (protonated)
OC(=CCCOc1ccc(Cl)cc1Cl)[N-]N=Cc1cccnc1F (tautomer)
O/C(=C\CCOc1ccc(Cl)cc1Cl)[N-]/N=C/c1cccnc1F (cis-trans isomerization)
O/C(=C\CCOc1ccc(Cl)cc1Cl)[N-]/N=C/c1cccnc1F (3D coordinates assigned)
O/C(=C\CCOc1ccc(Cl)cc1Cl)[N-]/N=C/c1cccnc1F (optimized conformer: 39.97050336635567 kcal/mol)

>  <smiles>  (3) 
O=C(CCCOc1ccc(Cl)cc1Cl)NN=Cc1cccnc1F

>  <score_type>  (3) 
oracle

>  <origin>  (3) 
autodockgpu

>  <m_score__min__energy>  (3) 
-6.3499999999999996

>  <m_primary>  (3) 
energy

>  <meeko>  (3) 
{"free_energy": -5.67, "intermolecular_energy": -8.65, "internal_energy": -1.03, "cluster_size": 7, "cluster_id": 4, "rank_in_cluster": 5}

>  <energy>  (3) 
-6.19

>  <cluster_rmsd>  (3) 
1.88

>  <rmsd>  (3) 
273.1

>  <cluster>  (3) 
1

$$$$
QFPZKQQOUZJSQV-ULFODFFFNA-N
     RDKit          3D

 37 38  0  0  0  0  0  0  0  0999 V2000
  138.8760   74.0170  223.0690 H   0  0  0  0  0  0  0  0  0  0  0  0
  139.5540   74.2410  222.3530 O   0  0  0  0  0  0  0  0  0  0  0  0
  140.5480   73.3380  221.9730 C   0  0  0  0  0  0  0  0  0  0  0  0
  140.7070   72.0870  222.6570 N   0  0  0  0  0  0  0  0  0  0  0  0
  140.6270   71.9140  224.0520 N   0  0  0  0  0  0  0  0  0  0  0  0
  139.7920   71.1020  224.6280 C   0  0  0  0  0  0  0  0  0  0  0  0
  138.7813   70.9840  224.2103 H   0  0  0  0  0  0  0  0  0  0  0  0
  140.1710   70.3330  225.8330 C   0  0  0  0  0  0  0  0  0  0  0  0
  140.7460   70.9340  226.9720 C   0  0  0  0  0  0  0  0  0  0  0  0
  140.9900   72.2680  227.0160 F   0  0  0  0  0  0  0  0  0  0  0  0
  141.0720   70.1740  228.0520 N   0  0  0  0  0  0  0  0  0  0  0  0
  140.8600   68.8330  228.0780 C   0  0  0  0  0  0  0  0  0  0  0  0
  141.1361   68.2500  228.9690 H   0  0  0  0  0  0  0  0  0  0  0  0
  140.2920   68.1940  226.9750 C   0  0  0  0  0  0  0  0  0  0  0  0
  140.1167   67.1082  226.9907 H   0  0  0  0  0  0  0  0  0  0  0  0
  139.9490   68.9480  225.8520 C   0  0  0  0  0  0  0  0  0  0  0  0
  139.5021   68.4536  224.9769 H   0  0  0  0  0  0  0  0  0  0  0  0
  141.3400   73.6080  220.9320 C   0  0  0  0  0  0  0  0  0  0  0  0
  142.4271   73.4939  221.0553 H   0  0  0  0  0  0  0  0  0  0  0  0
  140.8120   74.0610  219.5990 C   0  0  0  0  0  0  0  0  0  0  0  0
  141.6278   74.0126  218.8627 H   0  0  0  0  0  0  0  0  0  0  0  0
  139.9790   73.3954  219.3285 H   0  0  0  0  0  0  0  0  0  0  0  0
  140.2670   75.4930  219.6330 C   0  0  0  0  0  0  0  0  0  0  0  0
  139.7309   75.6961  218.6942 H   0  0  0  0  0  0  0  0  0  0  0  0
  139.5882   75.5891  220.4932 H   0  0  0  0  0  0  0  0  0  0  0  0
  141.3270   76.4420  219.7810 O   0  0  0  0  0  0  0  0  0  0  0  0
  141.3940   77.4630  220.7440 C   0  0  0  0  0  0  0  0  0  0  0  0
  141.0830   77.2470  222.1020 C   0  0  0  0  0  0  0  0  0  0  0  0
  140.7650   76.2489  222.4377 H   0  0  0  0  0  0  0  0  0  0  0  0
  141.1760   78.2920  223.0240 C   0  0  0  0  0  0  0  0  0  0  0  0
  140.9389   78.1116  224.0829 H   0  0  0  0  0  0  0  0  0  0  0  0
  141.5690   79.5650  222.6060 C   0  0  0  0  0  0  0  0  0  0  0  0
  141.6880   80.8730  223.7680 Cl  0  0  0  0  0  0  0  0  0  0  0  0
  141.8610   79.7960  221.2590 C   0  0  0  0  0  0  0  0  0  0  0  0
  142.1632   80.8005  220.9279 H   0  0  0  0  0  0  0  0  0  0  0  0
  141.7700   78.7530  220.3300 C   0  0  0  0  0  0  0  0  0  0  0  0
  142.1530   79.0690  218.6440 Cl  0  0  0  0  0  0  0  0  0  0  0  0
  1  2  1  0
  2  3  1  0
  3  4  1  0
  4  5  1  0
  5  6  2  0
  6  7  1  0
  6  8  1  0
  8  9  2  0
  9 10  1  0
  9 11  1  0
 11 12  2  0
 12 13  1  0
 12 14  1  0
 14 15  1  0
 14 16  2  0
 16 17  1  0
  3 18  2  0
 18 19  1  0
 18 20  1  0
 20 21  1  0
 20 22  1  0
 20 23  1  0
 23 24  1  0
 23 25  1  0
 23 26  1  0
 26 27  1  0
 27 28  2  0
 28 29  1  0
 28 30  1  0
 30 31  1  0
 30 32  2  0
 32 33  1  0
 32 34  1  0
 34 35  1  0
 34 36  2  0
 36 37  1  0
 16  8  1  0
 36 27  1  0
M  CHG  1   4  -1
M  END
>  <UniqueID>  (4) 
13

>  <SMILES>  (4) 
O/C(=C\CCOc1ccc(Cl)cc1Cl)[N-]/N=C/c1cccnc1F

>  <Energy>  (4) 
39.97050336635567

>  <Genealogy>  (4) 
O=C(CCCOc1ccc(Cl)cc1Cl)[N-]N=Cc1cccnc1F (protonated)
OC(=CCCOc1ccc(Cl)cc1Cl)[N-]N=Cc1cccnc1F (tautomer)
O/C(=C\CCOc1ccc(Cl)cc1Cl)[N-]/N=C/c1cccnc1F (cis-trans isomerization)
O/C(=C\CCOc1ccc(Cl)cc1Cl)[N-]/N=C/c1cccnc1F (3D coordinates assigned)
O/C(=C\CCOc1ccc(Cl)cc1Cl)[N-]/N=C/c1cccnc1F (optimized conformer: 39.97050336635567 kcal/mol)

>  <smiles>  (4) 
O=C(CCCOc1ccc(Cl)cc1Cl)NN=Cc1cccnc1F

>  <score_type>  (4) 
oracle

>  <origin>  (4) 
autodockgpu

>  <m_score__min__energy>  (4) 
-6.3499999999999996

>  <m_primary>  (4) 
energy

>  <meeko>  (4) 
{"free_energy": -6.19, "intermolecular_energy": -9.17, "internal_energy": -0.58, "cluster_size": 6, "cluster_id": 1, "rank_in_cluster": 3}

>  <energy>  (4) 
-6.18

>  <cluster_rmsd>  (4) 
1.72

>  <rmsd>  (4) 
273.42

>  <cluster>  (4) 
1

$$$$
QFPZKQQOUZJSQV-ULFODFFFNA-N
     RDKit          3D

 37 38  0  0  0  0  0  0  0  0999 V2000
  139.1520   74.1780  223.0960 H   0  0  0  0  0  0  0  0  0  0  0  0
  139.5550   74.8760  222.4850 O   0  0  0  0  0  0  0  0  0  0  0  0
  139.8410   74.6030  221.1460 C   0  0  0  0  0  0  0  0  0  0  0  0
  140.5190   75.5670  220.3270 N   0  0  0  0  0  0  0  0  0  0  0  0
  141.6270   76.3340  220.7330 N   0  0  0  0  0  0  0  0  0  0  0  0
  141.7420   77.6070  220.5010 C   0  0  0  0  0  0  0  0  0  0  0  0
  141.8756   77.9559  219.4664 H   0  0  0  0  0  0  0  0  0  0  0  0
  141.6970   78.5970  221.5990 C   0  0  0  0  0  0  0  0  0  0  0  0
  141.9110   79.9760  221.3910 C   0  0  0  0  0  0  0  0  0  0  0  0
  142.1790   80.4680  220.1550 F   0  0  0  0  0  0  0  0  0  0  0  0
  141.8560   80.8400  222.4400 N   0  0  0  0  0  0  0  0  0  0  0  0
  141.5950   80.4190  223.7050 C   0  0  0  0  0  0  0  0  0  0  0  0
  141.5556   81.1463  224.5293 H   0  0  0  0  0  0  0  0  0  0  0  0
  141.3770   79.0650  223.9590 C   0  0  0  0  0  0  0  0  0  0  0  0
  141.1662   78.7186  224.9815 H   0  0  0  0  0  0  0  0  0  0  0  0
  141.4290   78.1540  222.9030 C   0  0  0  0  0  0  0  0  0  0  0  0
  141.2591   77.0841  223.0939 H   0  0  0  0  0  0  0  0  0  0  0  0
  139.5240   73.4180  220.6190 C   0  0  0  0  0  0  0  0  0  0  0  0
  138.7484   73.3799  219.8399 H   0  0  0  0  0  0  0  0  0  0  0  0
  140.1800   72.1330  221.0430 C   0  0  0  0  0  0  0  0  0  0  0  0
  139.4007   71.3692  221.1818 H   0  0  0  0  0  0  0  0  0  0  0  0
  140.8930   71.8483  220.2553 H   0  0  0  0  0  0  0  0  0  0  0  0
  140.9670   72.2740  222.3510 C   0  0  0  0  0  0  0  0  0  0  0  0
  141.6640   71.4281  222.4440 H   0  0  0  0  0  0  0  0  0  0  0  0
  141.5166   73.2265  222.3275 H   0  0  0  0  0  0  0  0  0  0  0  0
  140.0900   72.2830  223.4800 O   0  0  0  0  0  0  0  0  0  0  0  0
  140.2160   71.4870  224.6320 C   0  0  0  0  0  0  0  0  0  0  0  0
  140.9920   71.8780  225.7410 C   0  0  0  0  0  0  0  0  0  0  0  0
  141.5349   72.8344  225.7186 H   0  0  0  0  0  0  0  0  0  0  0  0
  141.0760   71.0580  226.8690 C   0  0  0  0  0  0  0  0  0  0  0  0
  141.6770   71.3753  227.7339 H   0  0  0  0  0  0  0  0  0  0  0  0
  140.3990   69.8360  226.9020 C   0  0  0  0  0  0  0  0  0  0  0  0
  140.5050   68.8120  228.3210 Cl  0  0  0  0  0  0  0  0  0  0  0  0
  139.6420   69.4310  225.8000 C   0  0  0  0  0  0  0  0  0  0  0  0
  139.1139   68.4664  225.8228 H   0  0  0  0  0  0  0  0  0  0  0  0
  139.5530   70.2480  224.6670 C   0  0  0  0  0  0  0  0  0  0  0  0
  138.5860   69.7170  223.2990 Cl  0  0  0  0  0  0  0  0  0  0  0  0
  1  2  1  0
  2  3  1  0
  3  4  1  0
  4  5  1  0
  5  6  2  0
  6  7  1  0
  6  8  1  0
  8  9  2  0
  9 10  1  0
  9 11  1  0
 11 12  2  0
 12 13  1  0
 12 14  1  0
 14 15  1  0
 14 16  2  0
 16 17  1  0
  3 18  2  0
 18 19  1  0
 18 20  1  0
 20 21  1  0
 20 22  1  0
 20 23  1  0
 23 24  1  0
 23 25  1  0
 23 26  1  0
 26 27  1  0
 27 28  2  0
 28 29  1  0
 28 30  1  0
 30 31  1  0
 30 32  2  0
 32 33  1  0
 32 34  1  0
 34 35  1  0
 34 36  2  0
 36 37  1  0
 16  8  1  0
 36 27  1  0
M  CHG  1   4  -1
M  END
>  <UniqueID>  (5) 
13

>  <SMILES>  (5) 
O/C(=C\CCOc1ccc(Cl)cc1Cl)[N-]/N=C/c1cccnc1F

>  <Energy>  (5) 
39.97050336635567

>  <Genealogy>  (5) 
O=C(CCCOc1ccc(Cl)cc1Cl)[N-]N=Cc1cccnc1F (protonated)
OC(=CCCOc1ccc(Cl)cc1Cl)[N-]N=Cc1cccnc1F (tautomer)
O/C(=C\CCOc1ccc(Cl)cc1Cl)[N-]/N=C/c1cccnc1F (cis-trans isomerization)
O/C(=C\CCOc1ccc(Cl)cc1Cl)[N-]/N=C/c1cccnc1F (3D coordinates assigned)
O/C(=C\CCOc1ccc(Cl)cc1Cl)[N-]/N=C/c1cccnc1F (optimized conformer: 39.97050336635567 kcal/mol)

>  <smiles>  (5) 
O=C(CCCOc1ccc(Cl)cc1Cl)NN=Cc1cccnc1F

>  <score_type>  (5) 
oracle

>  <origin>  (5) 
autodockgpu

>  <m_score__min__energy>  (5) 
-6.3499999999999996

>  <m_primary>  (5) 
energy

>  <meeko>  (5) 
{"free_energy": -5.68, "intermolecular_energy": -8.66, "internal_energy": -1.21, "cluster_size": 7, "cluster_id": 4, "rank_in_cluster": 4}

>  <energy>  (5) 
-5.99

>  <cluster_rmsd>  (5) 
1.73

>  <rmsd>  (5) 
273.37

>  <cluster>  (5) 
1

$$$$
QFPZKQQOUZJSQV-ULFODFFFNA-N
     RDKit          3D

 37 38  0  0  0  0  0  0  0  0999 V2000
  139.2630   73.7590  223.0490 H   0  0  0  0  0  0  0  0  0  0  0  0
  139.3960   74.4820  222.3540 O   0  0  0  0  0  0  0  0  0  0  0  0
  140.2160   74.2910  221.2420 C   0  0  0  0  0  0  0  0  0  0  0  0
  141.2380   75.2410  220.9080 N   0  0  0  0  0  0  0  0  0  0  0  0
  142.6130   74.9520  220.8270 N   0  0  0  0  0  0  0  0  0  0  0  0
  143.2330   74.7180  219.7100 C   0  0  0  0  0  0  0  0  0  0  0  0
  143.1517   75.4440  218.8876 H   0  0  0  0  0  0  0  0  0  0  0  0
  144.0460   73.4970  219.5190 C   0  0  0  0  0  0  0  0  0  0  0  0
  145.3930   73.4070  219.9270 C   0  0  0  0  0  0  0  0  0  0  0  0
  146.0220   74.4540  220.5170 F   0  0  0  0  0  0  0  0  0  0  0  0
  146.0890   72.2560  219.7260 N   0  0  0  0  0  0  0  0  0  0  0  0
  145.5260   71.1680  219.1380 C   0  0  0  0  0  0  0  0  0  0  0  0
  146.1192   70.2533  218.9917 H   0  0  0  0  0  0  0  0  0  0  0  0
  144.1960   71.2110  218.7200 C   0  0  0  0  0  0  0  0  0  0  0  0
  143.7346   70.3330  218.2444 H   0  0  0  0  0  0  0  0  0  0  0  0
  143.4570   72.3780  218.9110 C   0  0  0  0  0  0  0  0  0  0  0  0
  142.4078   72.4215  218.5836 H   0  0  0  0  0  0  0  0  0  0  0  0
  140.0890   73.1910  220.4950 C   0  0  0  0  0  0  0  0  0  0  0  0
  139.8798   73.3068  219.4213 H   0  0  0  0  0  0  0  0  0  0  0  0
  140.2190   71.8020  221.0550 C   0  0  0  0  0  0  0  0  0  0  0  0
  139.2118   71.4070  221.2537 H   0  0  0  0  0  0  0  0  0  0  0  0
  140.7556   71.1933  220.3123 H   0  0  0  0  0  0  0  0  0  0  0  0
  141.0270   71.7620  222.3570 C   0  0  0  0  0  0  0  0  0  0  0  0
  141.5946   70.8207  222.3989 H   0  0  0  0  0  0  0  0  0  0  0  0
  141.7087   72.6251  222.3721 H   0  0  0  0  0  0  0  0  0  0  0  0
  140.1680   71.8410  223.4980 O   0  0  0  0  0  0  0  0  0  0  0  0
  140.2850   71.0840  224.6750 C   0  0  0  0  0  0  0  0  0  0  0  0
  140.9930   71.5440  225.8040 C   0  0  0  0  0  0  0  0  0  0  0  0
  141.4872   72.5264  225.7763 H   0  0  0  0  0  0  0  0  0  0  0  0
  141.0710   70.7600  226.9580 C   0  0  0  0  0  0  0  0  0  0  0  0
  141.6180   71.1310  227.8373 H   0  0  0  0  0  0  0  0  0  0  0  0
  140.4560   69.5060  226.9980 C   0  0  0  0  0  0  0  0  0  0  0  0
  140.5530   68.5260  228.4490 Cl  0  0  0  0  0  0  0  0  0  0  0  0
  139.7680   69.0320  225.8780 C   0  0  0  0  0  0  0  0  0  0  0  0
  139.2901   68.0416  225.9066 H   0  0  0  0  0  0  0  0  0  0  0  0
  139.6850   69.8140  224.7190 C   0  0  0  0  0  0  0  0  0  0  0  0
  138.8060   69.1970  223.3290 Cl  0  0  0  0  0  0  0  0  0  0  0  0
  1  2  1  0
  2  3  1  0
  3  4  1  0
  4  5  1  0
  5  6  2  0
  6  7  1  0
  6  8  1  0
  8  9  2  0
  9 10  1  0
  9 11  1  0
 11 12  2  0
 12 13  1  0
 12 14  1  0
 14 15  1  0
 14 16  2  0
 16 17  1  0
  3 18  2  0
 18 19  1  0
 18 20  1  0
 20 21  1  0
 20 22  1  0
 20 23  1  0
 23 24  1  0
 23 25  1  0
 23 26  1  0
 26 27  1  0
 27 28  2  0
 28 29  1  0
 28 30  1  0
 30 31  1  0
 30 32  2  0
 32 33  1  0
 32 34  1  0
 34 35  1  0
 34 36  2  0
 36 37  1  0
 16  8  1  0
 36 27  1  0
M  CHG  1   4  -1
M  END
>  <UniqueID>  (6) 
13

>  <SMILES>  (6) 
O/C(=C\CCOc1ccc(Cl)cc1Cl)[N-]/N=C/c1cccnc1F

>  <Energy>  (6) 
39.97050336635567

>  <Genealogy>  (6) 
O=C(CCCOc1ccc(Cl)cc1Cl)[N-]N=Cc1cccnc1F (protonated)
OC(=CCCOc1ccc(Cl)cc1Cl)[N-]N=Cc1cccnc1F (tautomer)
O/C(=C\CCOc1ccc(Cl)cc1Cl)[N-]/N=C/c1cccnc1F (cis-trans isomerization)
O/C(=C\CCOc1ccc(Cl)cc1Cl)[N-]/N=C/c1cccnc1F (3D coordinates assigned)
O/C(=C\CCOc1ccc(Cl)cc1Cl)[N-]/N=C/c1cccnc1F (optimized conformer: 39.97050336635567 kcal/mol)

>  <smiles>  (6) 
O=C(CCCOc1ccc(Cl)cc1Cl)NN=Cc1cccnc1F

>  <score_type>  (6) 
oracle

>  <origin>  (6) 
autodockgpu

>  <m_score__min__energy>  (6) 
-6.3499999999999996

>  <m_primary>  (6) 
energy

>  <meeko>  (6) 
{"free_energy": -5.18, "intermolecular_energy": -8.17, "internal_energy": -1.43, "cluster_size": 1, "cluster_id": 7, "rank_in_cluster": 1}

>  <energy>  (6) 
-5.77

>  <cluster_rmsd>  (6) 
1.91

>  <rmsd>  (6) 
273.16

>  <cluster>  (6) 
1

$$$$
QFPZKQQOUZJSQV-ULFODFFFNA-N
     RDKit          3D

 37 38  0  0  0  0  0  0  0  0999 V2000
  138.7980   73.9850  223.0610 H   0  0  0  0  0  0  0  0  0  0  0  0
  139.4210   74.1070  222.2740 O   0  0  0  0  0  0  0  0  0  0  0  0
  140.4910   73.2420  222.0420 C   0  0  0  0  0  0  0  0  0  0  0  0
  140.7820   72.1700  222.9520 N   0  0  0  0  0  0  0  0  0  0  0  0
  139.9800   71.8030  224.0490 N   0  0  0  0  0  0  0  0  0  0  0  0
  140.4590   71.3600  225.1720 C   0  0  0  0  0  0  0  0  0  0  0  0
  141.0555   72.0332  225.8053 H   0  0  0  0  0  0  0  0  0  0  0  0
  140.2200   69.9700  225.6180 C   0  0  0  0  0  0  0  0  0  0  0  0
  139.3580   69.0870  224.9350 C   0  0  0  0  0  0  0  0  0  0  0  0
  138.6900   69.4780  223.8210 F   0  0  0  0  0  0  0  0  0  0  0  0
  139.1790   67.8190  225.3930 N   0  0  0  0  0  0  0  0  0  0  0  0
  139.8130   67.3600  226.5040 C   0  0  0  0  0  0  0  0  0  0  0  0
  139.6455   66.3279  226.8458 H   0  0  0  0  0  0  0  0  0  0  0  0
  140.6760   68.1970  227.2110 C   0  0  0  0  0  0  0  0  0  0  0  0
  141.1923   67.8304  228.1105 H   0  0  0  0  0  0  0  0  0  0  0  0
  140.8780   69.5040  226.7660 C   0  0  0  0  0  0  0  0  0  0  0  0
  141.5561   70.1717  227.3177 H   0  0  0  0  0  0  0  0  0  0  0  0
  141.2350   73.3730  220.9410 C   0  0  0  0  0  0  0  0  0  0  0  0
  141.2905   72.5264  220.2409 H   0  0  0  0  0  0  0  0  0  0  0  0
  142.0000   74.6250  220.6150 C   0  0  0  0  0  0  0  0  0  0  0  0
  142.3083   75.1040  221.5560 H   0  0  0  0  0  0  0  0  0  0  0  0
  142.8667   74.3346  220.0030 H   0  0  0  0  0  0  0  0  0  0  0  0
  141.1750   75.6280  219.8020 C   0  0  0  0  0  0  0  0  0  0  0  0
  141.8574   76.3086  219.2718 H   0  0  0  0  0  0  0  0  0  0  0  0
  140.5527   75.0705  219.0865 H   0  0  0  0  0  0  0  0  0  0  0  0
  140.3160   76.3950  220.6510 O   0  0  0  0  0  0  0  0  0  0  0  0
  140.6840   77.5340  221.3880 C   0  0  0  0  0  0  0  0  0  0  0  0
  141.8900   78.2270  221.1590 C   0  0  0  0  0  0  0  0  0  0  0  0
  142.5865   77.8715  220.3854 H   0  0  0  0  0  0  0  0  0  0  0  0
  142.2060   79.3630  221.9090 C   0  0  0  0  0  0  0  0  0  0  0  0
  143.1451   79.9028  221.7175 H   0  0  0  0  0  0  0  0  0  0  0  0
  141.3330   79.8150  222.9010 C   0  0  0  0  0  0  0  0  0  0  0  0
  141.7320   81.2430  223.8380 Cl  0  0  0  0  0  0  0  0  0  0  0  0
  140.1440   79.1240  223.1490 C   0  0  0  0  0  0  0  0  0  0  0  0
  139.4594   79.4757  223.9349 H   0  0  0  0  0  0  0  0  0  0  0  0
  139.8210   77.9860  222.4010 C   0  0  0  0  0  0  0  0  0  0  0  0
  138.3140   77.1420  222.7280 Cl  0  0  0  0  0  0  0  0  0  0  0  0
  1  2  1  0
  2  3  1  0
  3  4  1  0
  4  5  1  0
  5  6  2  0
  6  7  1  0
  6  8  1  0
  8  9  2  0
  9 10  1  0
  9 11  1  0
 11 12  2  0
 12 13  1  0
 12 14  1  0
 14 15  1  0
 14 16  2  0
 16 17  1  0
  3 18  2  0
 18 19  1  0
 18 20  1  0
 20 21  1  0
 20 22  1  0
 20 23  1  0
 23 24  1  0
 23 25  1  0
 23 26  1  0
 26 27  1  0
 27 28  2  0
 28 29  1  0
 28 30  1  0
 30 31  1  0
 30 32  2  0
 32 33  1  0
 32 34  1  0
 34 35  1  0
 34 36  2  0
 36 37  1  0
 16  8  1  0
 36 27  1  0
M  CHG  1   4  -1
M  END
>  <UniqueID>  (7) 
13

>  <SMILES>  (7) 
O/C(=C\CCOc1ccc(Cl)cc1Cl)[N-]/N=C/c1cccnc1F

>  <Energy>  (7) 
39.97050336635567

>  <Genealogy>  (7) 
O=C(CCCOc1ccc(Cl)cc1Cl)[N-]N=Cc1cccnc1F (protonated)
OC(=CCCOc1ccc(Cl)cc1Cl)[N-]N=Cc1cccnc1F (tautomer)
O/C(=C\CCOc1ccc(Cl)cc1Cl)[N-]/N=C/c1cccnc1F (cis-trans isomerization)
O/C(=C\CCOc1ccc(Cl)cc1Cl)[N-]/N=C/c1cccnc1F (3D coordinates assigned)
O/C(=C\CCOc1ccc(Cl)cc1Cl)[N-]/N=C/c1cccnc1F (optimized conformer: 39.97050336635567 kcal/mol)

>  <smiles>  (7) 
O=C(CCCOc1ccc(Cl)cc1Cl)NN=Cc1cccnc1F

>  <score_type>  (7) 
oracle

>  <origin>  (7) 
autodockgpu

>  <m_score__min__energy>  (7) 
-6.3499999999999996

>  <m_primary>  (7) 
energy

>  <meeko>  (7) 
{"free_energy": -6.35, "intermolecular_energy": -9.34, "internal_energy": -0.55, "cluster_size": 6, "cluster_id": 1, "rank_in_cluster": 1}

>  <energy>  (7) 
-6.15

>  <cluster_rmsd>  (7) 
0.0

>  <rmsd>  (7) 
271.75

>  <cluster>  (7) 
2

$$$$
QFPZKQQOUZJSQV-ULFODFFFNA-N
     RDKit          3D

 37 38  0  0  0  0  0  0  0  0999 V2000
  140.6990   72.6570  222.7490 H   0  0  0  0  0  0  0  0  0  0  0  0
  140.6900   73.5690  222.3120 O   0  0  0  0  0  0  0  0  0  0  0  0
  139.4980   74.2110  221.9750 C   0  0  0  0  0  0  0  0  0  0  0  0
  139.2770   75.5850  222.3230 N   0  0  0  0  0  0  0  0  0  0  0  0
  140.1190   76.6540  221.9620 N   0  0  0  0  0  0  0  0  0  0  0  0
  141.0770   77.1000  222.7170 C   0  0  0  0  0  0  0  0  0  0  0  0
  141.7618   76.3844  223.1955 H   0  0  0  0  0  0  0  0  0  0  0  0
  141.2680   78.5480  222.9480 C   0  0  0  0  0  0  0  0  0  0  0  0
  140.2330   79.3910  223.4060 C   0  0  0  0  0  0  0  0  0  0  0  0
  138.9910   78.9060  223.6560 F   0  0  0  0  0  0  0  0  0  0  0  0
  140.4700   80.7160  223.6010 N   0  0  0  0  0  0  0  0  0  0  0  0
  141.6880   81.2710  223.3690 C   0  0  0  0  0  0  0  0  0  0  0  0
  141.8435   82.3466  223.5391 H   0  0  0  0  0  0  0  0  0  0  0  0
  142.7420   80.4770  222.9150 C   0  0  0  0  0  0  0  0  0  0  0  0
  143.7303   80.9209  222.7247 H   0  0  0  0  0  0  0  0  0  0  0  0
  142.5290   79.1140  222.7050 C   0  0  0  0  0  0  0  0  0  0  0  0
  143.3536   78.4800  222.3472 H   0  0  0  0  0  0  0  0  0  0  0  0
  138.5590   73.5630  221.2800 C   0  0  0  0  0  0  0  0  0  0  0  0
  138.0231   74.1063  220.4878 H   0  0  0  0  0  0  0  0  0  0  0  0
  138.2020   72.1250  221.5320 C   0  0  0  0  0  0  0  0  0  0  0  0
  137.1851   71.9437  221.1538 H   0  0  0  0  0  0  0  0  0  0  0  0
  138.9465   71.5028  221.0138 H   0  0  0  0  0  0  0  0  0  0  0  0
  138.2450   71.7550  223.0190 C   0  0  0  0  0  0  0  0  0  0  0  0
  137.8798   72.6064  223.6121 H   0  0  0  0  0  0  0  0  0  0  0  0
  137.6083   70.8723  223.1788 H   0  0  0  0  0  0  0  0  0  0  0  0
  139.5770   71.4360  223.4300 O   0  0  0  0  0  0  0  0  0  0  0  0
  139.9400   70.7790  224.6170 C   0  0  0  0  0  0  0  0  0  0  0  0
  140.6440   71.4220  225.6560 C   0  0  0  0  0  0  0  0  0  0  0  0
  140.9376   72.4764  225.5460 H   0  0  0  0  0  0  0  0  0  0  0  0
  140.9710   70.7290  226.8240 C   0  0  0  0  0  0  0  0  0  0  0  0
  141.5110   71.2422  227.6333 H   0  0  0  0  0  0  0  0  0  0  0  0
  140.6140   69.3860  226.9670 C   0  0  0  0  0  0  0  0  0  0  0  0
  141.0240   68.5210  228.4360 Cl  0  0  0  0  0  0  0  0  0  0  0  0
  139.9340   68.7330  225.9360 C   0  0  0  0  0  0  0  0  0  0  0  0
  139.6593   67.6735  226.0457 H   0  0  0  0  0  0  0  0  0  0  0  0
  139.6010   69.4220  224.7640 C   0  0  0  0  0  0  0  0  0  0  0  0
  138.7370   68.5780  223.4880 Cl  0  0  0  0  0  0  0  0  0  0  0  0
  1  2  1  0
  2  3  1  0
  3  4  1  0
  4  5  1  0
  5  6  2  0
  6  7  1  0
  6  8  1  0
  8  9  2  0
  9 10  1  0
  9 11  1  0
 11 12  2  0
 12 13  1  0
 12 14  1  0
 14 15  1  0
 14 16  2  0
 16 17  1  0
  3 18  2  0
 18 19  1  0
 18 20  1  0
 20 21  1  0
 20 22  1  0
 20 23  1  0
 23 24  1  0
 23 25  1  0
 23 26  1  0
 26 27  1  0
 27 28  2  0
 28 29  1  0
 28 30  1  0
 30 31  1  0
 30 32  2  0
 32 33  1  0
 32 34  1  0
 34 35  1  0
 34 36  2  0
 36 37  1  0
 16  8  1  0
 36 27  1  0
M  CHG  1   4  -1
M  END
>  <UniqueID>  (8) 
13

>  <SMILES>  (8) 
O/C(=C\CCOc1ccc(Cl)cc1Cl)[N-]/N=C/c1cccnc1F

>  <Energy>  (8) 
39.97050336635567

>  <Genealogy>  (8) 
O=C(CCCOc1ccc(Cl)cc1Cl)[N-]N=Cc1cccnc1F (protonated)
OC(=CCCOc1ccc(Cl)cc1Cl)[N-]N=Cc1cccnc1F (tautomer)
O/C(=C\CCOc1ccc(Cl)cc1Cl)[N-]/N=C/c1cccnc1F (cis-trans isomerization)
O/C(=C\CCOc1ccc(Cl)cc1Cl)[N-]/N=C/c1cccnc1F (3D coordinates assigned)
O/C(=C\CCOc1ccc(Cl)cc1Cl)[N-]/N=C/c1cccnc1F (optimized conformer: 39.97050336635567 kcal/mol)

>  <smiles>  (8) 
O=C(CCCOc1ccc(Cl)cc1Cl)NN=Cc1cccnc1F

>  <score_type>  (8) 
oracle

>  <origin>  (8) 
autodockgpu

>  <m_score__min__energy>  (8) 
-6.3499999999999996

>  <m_primary>  (8) 
energy

>  <meeko>  (8) 
{"free_energy": -5.7, "intermolecular_energy": -8.69, "internal_energy": -1.02, "cluster_size": 7, "cluster_id": 4, "rank_in_cluster": 3}

>  <energy>  (8) 
-6.1

>  <cluster_rmsd>  (8) 
0.0

>  <rmsd>  (8) 
272.73

>  <cluster>  (8) 
3

$$$$
QFPZKQQOUZJSQV-ULFODFFFNA-N
     RDKit          3D

 37 38  0  0  0  0  0  0  0  0999 V2000
  138.1440   74.1180  223.0600 H   0  0  0  0  0  0  0  0  0  0  0  0
  138.3120   73.4590  222.3110 O   0  0  0  0  0  0  0  0  0  0  0  0
  140.8400   76.6980  221.4270 C   0  0  0  0  0  0  0  0  0  0  0  0
  140.5590   74.3780  221.9030 N   0  0  0  0  0  0  0  0  0  0  0  0
  140.3900   75.7460  222.1880 N   0  0  0  0  0  0  0  0  0  0  0  0
  139.6800   72.5950  220.5830 C   0  0  0  0  0  0  0  0  0  0  0  0
  139.9717   71.5650  220.8360 H   0  0  0  0  0  0  0  0  0  0  0  0
  141.3410   77.9690  221.9960 C   0  0  0  0  0  0  0  0  0  0  0  0
  141.7410   79.0580  221.1940 C   0  0  0  0  0  0  0  0  0  0  0  0
  141.6910   78.9900  219.8400 F   0  0  0  0  0  0  0  0  0  0  0  0
  142.1930   80.2020  221.7750 N   0  0  0  0  0  0  0  0  0  0  0  0
  142.2730   80.3400  223.1240 C   0  0  0  0  0  0  0  0  0  0  0  0
  142.6416   81.2804  223.5595 H   0  0  0  0  0  0  0  0  0  0  0  0
  141.8880   79.2900  223.9570 C   0  0  0  0  0  0  0  0  0  0  0  0
  141.9510   79.3963  225.0500 H   0  0  0  0  0  0  0  0  0  0  0  0
  141.4220   78.1030  223.3900 C   0  0  0  0  0  0  0  0  0  0  0  0
  141.1169   77.2689  224.0390 H   0  0  0  0  0  0  0  0  0  0  0  0
  139.4980   73.4690  221.5770 C   0  0  0  0  0  0  0  0  0  0  0  0
  140.8488   76.5563  220.3362 H   0  0  0  0  0  0  0  0  0  0  0  0
  139.5040   72.9560  219.1340 C   0  0  0  0  0  0  0  0  0  0  0  0
  138.7674   72.2715  218.6880 H   0  0  0  0  0  0  0  0  0  0  0  0
  139.1663   74.0020  219.0915 H   0  0  0  0  0  0  0  0  0  0  0  0
  140.8090   72.8590  218.3360 C   0  0  0  0  0  0  0  0  0  0  0  0
  141.2770   71.8825  218.5294 H   0  0  0  0  0  0  0  0  0  0  0  0
  140.5746   72.9696  217.2670 H   0  0  0  0  0  0  0  0  0  0  0  0
  141.7190   73.8960  218.7120 O   0  0  0  0  0  0  0  0  0  0  0  0
  142.8770   73.7380  219.4910 C   0  0  0  0  0  0  0  0  0  0  0  0
  143.2470   72.5000  220.0550 C   0  0  0  0  0  0  0  0  0  0  0  0
  142.6117   71.6159  219.8975 H   0  0  0  0  0  0  0  0  0  0  0  0
  144.4160   72.3890  220.8130 C   0  0  0  0  0  0  0  0  0  0  0  0
  144.7013   71.4172  221.2422 H   0  0  0  0  0  0  0  0  0  0  0  0
  145.2230   73.5090  221.0270 C   0  0  0  0  0  0  0  0  0  0  0  0
  146.6900   73.3650  221.9760 Cl  0  0  0  0  0  0  0  0  0  0  0  0
  144.8550   74.7450  220.4890 C   0  0  0  0  0  0  0  0  0  0  0  0
  145.4860   75.6289  220.6641 H   0  0  0  0  0  0  0  0  0  0  0  0
  143.6860   74.8620  219.7280 C   0  0  0  0  0  0  0  0  0  0  0  0
  143.2530   76.4270  219.0550 Cl  0  0  0  0  0  0  0  0  0  0  0  0
  1  2  1  0
  2  3  1  0
  3  4  1  0
  4  5  1  0
  5  6  2  0
  6  7  1  0
  6  8  1  0
  8  9  2  0
  9 10  1  0
  9 11  1  0
 11 12  2  0
 12 13  1  0
 12 14  1  0
 14 15  1  0
 14 16  2  0
 16 17  1  0
  3 18  2  0
 18 19  1  0
 18 20  1  0
 20 21  1  0
 20 22  1  0
 20 23  1  0
 23 24  1  0
 23 25  1  0
 23 26  1  0
 26 27  1  0
 27 28  2  0
 28 29  1  0
 28 30  1  0
 30 31  1  0
 30 32  2  0
 32 33  1  0
 32 34  1  0
 34 35  1  0
 34 36  2  0
 36 37  1  0
 16  8  1  0
 36 27  1  0
M  CHG  1   4  -1
M  END
>  <UniqueID>  (9) 
13

>  <SMILES>  (9) 
O/C(=C\CCOc1ccc(Cl)cc1Cl)[N-]/N=C/c1cccnc1F

>  <Energy>  (9) 
39.97050336635567

>  <Genealogy>  (9) 
O=C(CCCOc1ccc(Cl)cc1Cl)[N-]N=Cc1cccnc1F (protonated)
OC(=CCCOc1ccc(Cl)cc1Cl)[N-]N=Cc1cccnc1F (tautomer)
O/C(=C\CCOc1ccc(Cl)cc1Cl)[N-]/N=C/c1cccnc1F (cis-trans isomerization)
O/C(=C\CCOc1ccc(Cl)cc1Cl)[N-]/N=C/c1cccnc1F (3D coordinates assigned)
O/C(=C\CCOc1ccc(Cl)cc1Cl)[N-]/N=C/c1cccnc1F (optimized conformer: 39.97050336635567 kcal/mol)

>  <smiles>  (9) 
O=C(CCCOc1ccc(Cl)cc1Cl)NN=Cc1cccnc1F

>  <score_type>  (9) 
oracle

>  <origin>  (9) 
autodockgpu

>  <m_score__min__energy>  (9) 
-6.3499999999999996

>  <m_primary>  (9) 
energy

>  <meeko>  (9) 
{"free_energy": -4.91, "intermolecular_energy": -7.89, "internal_energy": -1.28, "cluster_size": 1, "cluster_id": 8, "rank_in_cluster": 1}

>  <energy>  (9) 
-5.9

>  <cluster_rmsd>  (9) 
0.0

>  <rmsd>  (9) 
273.07

>  <cluster>  (9) 
4

$$$$
QFPZKQQOUZJSQV-ULFODFFFNA-N
     RDKit          3D

 37 38  0  0  0  0  0  0  0  0999 V2000
  146.4360   72.2130  221.9970 H   0  0  0  0  0  0  0  0  0  0  0  0
  146.5420   73.1150  221.5530 O   0  0  0  0  0  0  0  0  0  0  0  0
  145.8830   73.4310  220.3650 C   0  0  0  0  0  0  0  0  0  0  0  0
  146.3100   72.8720  219.1140 N   0  0  0  0  0  0  0  0  0  0  0  0
  145.7420   71.7390  218.5010 N   0  0  0  0  0  0  0  0  0  0  0  0
  145.2100   70.7560  219.1620 C   0  0  0  0  0  0  0  0  0  0  0  0
  144.5268   70.9755  219.9957 H   0  0  0  0  0  0  0  0  0  0  0  0
  145.5030   69.3470  218.8180 C   0  0  0  0  0  0  0  0  0  0  0  0
  146.1540   68.9730  217.6240 C   0  0  0  0  0  0  0  0  0  0  0  0
  146.5440   69.9010  216.7150 F   0  0  0  0  0  0  0  0  0  0  0  0
  146.3970   67.6610  217.3640 N   0  0  0  0  0  0  0  0  0  0  0  0
  146.0320   66.6770  218.2270 C   0  0  0  0  0  0  0  0  0  0  0  0
  146.2463   65.6257  217.9844 H   0  0  0  0  0  0  0  0  0  0  0  0
  145.3860   66.9990  219.4200 C   0  0  0  0  0  0  0  0  0  0  0  0
  145.0877   66.2064  220.1220 H   0  0  0  0  0  0  0  0  0  0  0  0
  145.1220   68.3370  219.7140 C   0  0  0  0  0  0  0  0  0  0  0  0
  144.6128   68.6012  220.6526 H   0  0  0  0  0  0  0  0  0  0  0  0
  144.8110   74.2280  220.3820 C   0  0  0  0  0  0  0  0  0  0  0  0
  144.9395   75.2869  220.1132 H   0  0  0  0  0  0  0  0  0  0  0  0
  143.4370   73.7430  220.7520 C   0  0  0  0  0  0  0  0  0  0  0  0
  143.5317   72.7716  221.2594 H   0  0  0  0  0  0  0  0  0  0  0  0
  142.9823   74.5016  221.4061 H   0  0  0  0  0  0  0  0  0  0  0  0
  142.5210   73.5730  219.5350 C   0  0  0  0  0  0  0  0  0  0  0  0
  143.1394   73.4251  218.6374 H   0  0  0  0  0  0  0  0  0  0  0  0
  141.8721   72.7011  219.7044 H   0  0  0  0  0  0  0  0  0  0  0  0
  141.6950   74.7260  219.3490 O   0  0  0  0  0  0  0  0  0  0  0  0
  141.5230   75.7760  220.2660 C   0  0  0  0  0  0  0  0  0  0  0  0
  142.0990   77.0490  220.0780 C   0  0  0  0  0  0  0  0  0  0  0  0
  142.7183   77.2429  219.1899 H   0  0  0  0  0  0  0  0  0  0  0  0
  141.8880   78.0660  221.0130 C   0  0  0  0  0  0  0  0  0  0  0  0
  142.3350   79.0584  220.8540 H   0  0  0  0  0  0  0  0  0  0  0  0
  141.1110   77.8260  222.1490 C   0  0  0  0  0  0  0  0  0  0  0  0
  140.8460   79.1060  223.3180 Cl  0  0  0  0  0  0  0  0  0  0  0  0
  140.5510   76.5620  222.3550 C   0  0  0  0  0  0  0  0  0  0  0  0
  139.9459   76.3701  223.2533 H   0  0  0  0  0  0  0  0  0  0  0  0
  140.7580   75.5390  221.4210 C   0  0  0  0  0  0  0  0  0  0  0  0
  140.0330   73.9630  221.7010 Cl  0  0  0  0  0  0  0  0  0  0  0  0
  1  2  1  0
  2  3  1  0
  3  4  1  0
  4  5  1  0
  5  6  2  0
  6  7  1  0
  6  8  1  0
  8  9  2  0
  9 10  1  0
  9 11  1  0
 11 12  2  0
 12 13  1  0
 12 14  1  0
 14 15  1  0
 14 16  2  0
 16 17  1  0
  3 18  2  0
 18 19  1  0
 18 20  1  0
 20 21  1  0
 20 22  1  0
 20 23  1  0
 23 24  1  0
 23 25  1  0
 23 26  1  0
 26 27  1  0
 27 28  2  0
 28 29  1  0
 28 30  1  0
 30 31  1  0
 30 32  2  0
 32 33  1  0
 32 34  1  0
 34 35  1  0
 34 36  2  0
 36 37  1  0
 16  8  1  0
 36 27  1  0
M  CHG  1   4  -1
M  END
>  <UniqueID>  (10) 
13

>  <SMILES>  (10) 
O/C(=C\CCOc1ccc(Cl)cc1Cl)[N-]/N=C/c1cccnc1F

>  <Energy>  (10) 
39.97050336635567

>  <Genealogy>  (10) 
O=C(CCCOc1ccc(Cl)cc1Cl)[N-]N=Cc1cccnc1F (protonated)
OC(=CCCOc1ccc(Cl)cc1Cl)[N-]N=Cc1cccnc1F (tautomer)
O/C(=C\CCOc1ccc(Cl)cc1Cl)[N-]/N=C/c1cccnc1F (cis-trans isomerization)
O/C(=C\CCOc1ccc(Cl)cc1Cl)[N-]/N=C/c1cccnc1F (3D coordinates assigned)
O/C(=C\CCOc1ccc(Cl)cc1Cl)[N-]/N=C/c1cccnc1F (optimized conformer: 39.97050336635567 kcal/mol)

>  <smiles>  (10) 
O=C(CCCOc1ccc(Cl)cc1Cl)NN=Cc1cccnc1F

>  <score_type>  (10) 
oracle

>  <origin>  (10) 
autodockgpu

>  <m_score__min__energy>  (10) 
-6.3499999999999996

>  <m_primary>  (10) 
energy

>  <meeko>  (10) 
{"free_energy": -6.15, "intermolecular_energy": -9.13, "internal_energy": -0.46, "cluster_size": 1, "cluster_id": 2, "rank_in_cluster": 1}

>  <energy>  (10) 
-5.8

>  <cluster_rmsd>  (10) 
0.54

>  <rmsd>  (10) 
273.11

>  <cluster>  (10) 
4

$$$$
QFPZKQQOUZJSQV-ULFODFFFNA-N
     RDKit          3D

 37 38  0  0  0  0  0  0  0  0999 V2000
  138.8700   74.3880  223.0440 H   0  0  0  0  0  0  0  0  0  0  0  0
  139.2110   73.7690  222.3200 O   0  0  0  0  0  0  0  0  0  0  0  0
  140.4230   73.9990  221.6680 C   0  0  0  0  0  0  0  0  0  0  0  0
  141.1910   75.1810  221.9360 N   0  0  0  0  0  0  0  0  0  0  0  0
  140.6880   76.3520  222.5330 N   0  0  0  0  0  0  0  0  0  0  0  0
  140.5670   77.4820  221.9050 C   0  0  0  0  0  0  0  0  0  0  0  0
  139.9208   77.5371  221.0165 H   0  0  0  0  0  0  0  0  0  0  0  0
  141.2790   78.6970  222.3580 C   0  0  0  0  0  0  0  0  0  0  0  0
  141.6200   79.7520  221.4860 C   0  0  0  0  0  0  0  0  0  0  0  0
  141.3130   79.6990  220.1650 F   0  0  0  0  0  0  0  0  0  0  0  0
  142.2750   80.8450  221.9620 N   0  0  0  0  0  0  0  0  0  0  0  0
  142.6170   80.9650  223.2710 C   0  0  0  0  0  0  0  0  0  0  0  0
  143.1442   81.8646  223.6213 H   0  0  0  0  0  0  0  0  0  0  0  0
  142.3000   79.9480  224.1710 C   0  0  0  0  0  0  0  0  0  0  0  0
  142.5753   80.0395  225.2321 H   0  0  0  0  0  0  0  0  0  0  0  0
  141.6300   78.8130  223.7120 C   0  0  0  0  0  0  0  0  0  0  0  0
  141.3759   78.0057  224.4146 H   0  0  0  0  0  0  0  0  0  0  0  0
  140.9090   73.0930  220.8150 C   0  0  0  0  0  0  0  0  0  0  0  0
  141.9638   73.1691  220.5124 H   0  0  0  0  0  0  0  0  0  0  0  0
  140.0790   71.9740  220.2500 C   0  0  0  0  0  0  0  0  0  0  0  0
  139.0251   72.2890  220.2381 H   0  0  0  0  0  0  0  0  0  0  0  0
  140.4521   71.7626  219.2370 H   0  0  0  0  0  0  0  0  0  0  0  0
  140.1950   70.6810  221.0650 C   0  0  0  0  0  0  0  0  0  0  0  0
  139.9590   69.8247  220.4162 H   0  0  0  0  0  0  0  0  0  0  0  0
  141.2221   70.6015  221.4507 H   0  0  0  0  0  0  0  0  0  0  0  0
  139.2920   70.6900  222.1740 O   0  0  0  0  0  0  0  0  0  0  0  0
  139.6500   70.7340  223.5310 C   0  0  0  0  0  0  0  0  0  0  0  0
  140.6980   71.5460  224.0130 C   0  0  0  0  0  0  0  0  0  0  0  0
  141.2747   72.1673  223.3120 H   0  0  0  0  0  0  0  0  0  0  0  0
  141.0080   71.5660  225.3750 C   0  0  0  0  0  0  0  0  0  0  0  0
  141.8206   72.2096  225.7431 H   0  0  0  0  0  0  0  0  0  0  0  0
  140.2890   70.7710  226.2710 C   0  0  0  0  0  0  0  0  0  0  0  0
  140.6800   70.8020  227.9800 Cl  0  0  0  0  0  0  0  0  0  0  0  0
  139.2620   69.9480  225.8020 C   0  0  0  0  0  0  0  0  0  0  0  0
  138.7007   69.3162  226.5061 H   0  0  0  0  0  0  0  0  0  0  0  0
  138.9450   69.9250  224.4380 C   0  0  0  0  0  0  0  0  0  0  0  0
  137.6410   68.8880  223.8780 Cl  0  0  0  0  0  0  0  0  0  0  0  0
  1  2  1  0
  2  3  1  0
  3  4  1  0
  4  5  1  0
  5  6  2  0
  6  7  1  0
  6  8  1  0
  8  9  2  0
  9 10  1  0
  9 11  1  0
 11 12  2  0
 12 13  1  0
 12 14  1  0
 14 15  1  0
 14 16  2  0
 16 17  1  0
  3 18  2  0
 18 19  1  0
 18 20  1  0
 20 21  1  0
 20 22  1  0
 20 23  1  0
 23 24  1  0
 23 25  1  0
 23 26  1  0
 26 27  1  0
 27 28  2  0
 28 29  1  0
 28 30  1  0
 30 31  1  0
 30 32  2  0
 32 33  1  0
 32 34  1  0
 34 35  1  0
 34 36  2  0
 36 37  1  0
 16  8  1  0
 36 27  1  0
M  CHG  1   4  -1
M  END
>  <UniqueID>  (11) 
13

>  <SMILES>  (11) 
O/C(=C\CCOc1ccc(Cl)cc1Cl)[N-]/N=C/c1cccnc1F

>  <Energy>  (11) 
39.97050336635567

>  <Genealogy>  (11) 
O=C(CCCOc1ccc(Cl)cc1Cl)[N-]N=Cc1cccnc1F (protonated)
OC(=CCCOc1ccc(Cl)cc1Cl)[N-]N=Cc1cccnc1F (tautomer)
O/C(=C\CCOc1ccc(Cl)cc1Cl)[N-]/N=C/c1cccnc1F (cis-trans isomerization)
O/C(=C\CCOc1ccc(Cl)cc1Cl)[N-]/N=C/c1cccnc1F (3D coordinates assigned)
O/C(=C\CCOc1ccc(Cl)cc1Cl)[N-]/N=C/c1cccnc1F (optimized conformer: 39.97050336635567 kcal/mol)

>  <smiles>  (11) 
O=C(CCCOc1ccc(Cl)cc1Cl)NN=Cc1cccnc1F

>  <score_type>  (11) 
oracle

>  <origin>  (11) 
autodockgpu

>  <m_score__min__energy>  (11) 
-6.3499999999999996

>  <m_primary>  (11) 
energy

>  <meeko>  (11) 
{"free_energy": -5.49, "intermolecular_energy": -8.48, "internal_energy": -0.73, "cluster_size": 7, "cluster_id": 4, "rank_in_cluster": 7}

>  <energy>  (11) 
-5.7

>  <cluster_rmsd>  (11) 
1.62

>  <rmsd>  (11) 
273.16

>  <cluster>  (11) 
4

$$$$
QFPZKQQOUZJSQV-ULFODFFFNA-N
     RDKit          3D

 37 38  0  0  0  0  0  0  0  0999 V2000
  142.6090   75.2640  221.3990 H   0  0  0  0  0  0  0  0  0  0  0  0
  141.8460   74.6460  221.1580 O   0  0  0  0  0  0  0  0  0  0  0  0
  140.6010   74.7380  221.7810 C   0  0  0  0  0  0  0  0  0  0  0  0
  139.9630   73.5740  222.3270 N   0  0  0  0  0  0  0  0  0  0  0  0
  140.5970   72.6080  223.1310 N   0  0  0  0  0  0  0  0  0  0  0  0
  140.0070   71.5350  223.5630 C   0  0  0  0  0  0  0  0  0  0  0  0
  139.4038   70.9345  222.8662 H   0  0  0  0  0  0  0  0  0  0  0  0
  140.1290   71.1030  224.9730 C   0  0  0  0  0  0  0  0  0  0  0  0
  139.4790   69.9570  225.4780 C   0  0  0  0  0  0  0  0  0  0  0  0
  138.6930   69.1870  224.6840 F   0  0  0  0  0  0  0  0  0  0  0  0
  139.6310   69.6080  226.7830 N   0  0  0  0  0  0  0  0  0  0  0  0
  140.4000   70.3330  227.6370 C   0  0  0  0  0  0  0  0  0  0  0  0
  140.5012   70.0199  228.6866 H   0  0  0  0  0  0  0  0  0  0  0  0
  141.0610   71.4740  227.1830 C   0  0  0  0  0  0  0  0  0  0  0  0
  141.6838   72.0658  227.8699 H   0  0  0  0  0  0  0  0  0  0  0  0
  140.9240   71.8570  225.8480 C   0  0  0  0  0  0  0  0  0  0  0  0
  141.4423   72.7549  225.4803 H   0  0  0  0  0  0  0  0  0  0  0  0
  140.0040   75.9250  221.9180 C   0  0  0  0  0  0  0  0  0  0  0  0
  138.9277   75.9994  221.7037 H   0  0  0  0  0  0  0  0  0  0  0  0
  140.7370   77.1640  222.3520 C   0  0  0  0  0  0  0  0  0  0  0  0
  140.0636   77.7714  222.9746 H   0  0  0  0  0  0  0  0  0  0  0  0
  141.6290   76.8439  222.9105 H   0  0  0  0  0  0  0  0  0  0  0  0
  141.2120   78.0150  221.1690 C   0  0  0  0  0  0  0  0  0  0  0  0
  142.2967   78.1763  221.2549 H   0  0  0  0  0  0  0  0  0  0  0  0
  140.9736   77.4822  220.2367 H   0  0  0  0  0  0  0  0  0  0  0  0
  140.5510   79.2830  221.1500 O   0  0  0  0  0  0  0  0  0  0  0  0
  139.6230   79.7460  222.0980 C   0  0  0  0  0  0  0  0  0  0  0  0
  138.2330   79.5640  221.9490 C   0  0  0  0  0  0  0  0  0  0  0  0
  137.8412   79.0512  221.0582 H   0  0  0  0  0  0  0  0  0  0  0  0
  137.3500   80.0310  222.9260 C   0  0  0  0  0  0  0  0  0  0  0  0
  136.2675   79.8769  222.8057 H   0  0  0  0  0  0  0  0  0  0  0  0
  137.8380   80.6930  224.0550 C   0  0  0  0  0  0  0  0  0  0  0  0
  136.7260   81.2740  225.2800 Cl  0  0  0  0  0  0  0  0  0  0  0  0
  139.2120   80.8950  224.2030 C   0  0  0  0  0  0  0  0  0  0  0  0
  139.5957   81.4225  225.0887 H   0  0  0  0  0  0  0  0  0  0  0  0
  140.1030   80.4290  223.2290 C   0  0  0  0  0  0  0  0  0  0  0  0
  141.8270   80.6890  223.4460 Cl  0  0  0  0  0  0  0  0  0  0  0  0
  1  2  1  0
  2  3  1  0
  3  4  1  0
  4  5  1  0
  5  6  2  0
  6  7  1  0
  6  8  1  0
  8  9  2  0
  9 10  1  0
  9 11  1  0
 11 12  2  0
 12 13  1  0
 12 14  1  0
 14 15  1  0
 14 16  2  0
 16 17  1  0
  3 18  2  0
 18 19  1  0
 18 20  1  0
 20 21  1  0
 20 22  1  0
 20 23  1  0
 23 24  1  0
 23 25  1  0
 23 26  1  0
 26 27  1  0
 27 28  2  0
 28 29  1  0
 28 30  1  0
 30 31  1  0
 30 32  2  0
 32 33  1  0
 32 34  1  0
 34 35  1  0
 34 36  2  0
 36 37  1  0
 16  8  1  0
 36 27  1  0
M  CHG  1   4  -1
M  END
>  <UniqueID>  (12) 
13

>  <SMILES>  (12) 
O/C(=C\CCOc1ccc(Cl)cc1Cl)[N-]/N=C/c1cccnc1F

>  <Energy>  (12) 
39.97050336635567

>  <Genealogy>  (12) 
O=C(CCCOc1ccc(Cl)cc1Cl)[N-]N=Cc1cccnc1F (protonated)
OC(=CCCOc1ccc(Cl)cc1Cl)[N-]N=Cc1cccnc1F (tautomer)
O/C(=C\CCOc1ccc(Cl)cc1Cl)[N-]/N=C/c1cccnc1F (cis-trans isomerization)
O/C(=C\CCOc1ccc(Cl)cc1Cl)[N-]/N=C/c1cccnc1F (3D coordinates assigned)
O/C(=C\CCOc1ccc(Cl)cc1Cl)[N-]/N=C/c1cccnc1F (optimized conformer: 39.97050336635567 kcal/mol)

>  <smiles>  (12) 
O=C(CCCOc1ccc(Cl)cc1Cl)NN=Cc1cccnc1F

>  <score_type>  (12) 
oracle

>  <origin>  (12) 
autodockgpu

>  <m_score__min__energy>  (12) 
-6.3499999999999996

>  <m_primary>  (12) 
energy

>  <meeko>  (12) 
{"free_energy": -5.64, "intermolecular_energy": -8.62, "internal_energy": -0.51, "cluster_size": 2, "cluster_id": 5, "rank_in_cluster": 1}

>  <energy>  (12) 
-5.68

>  <cluster_rmsd>  (12) 
0.81

>  <rmsd>  (12) 
273.0

>  <cluster>  (12) 
4

$$$$
QFPZKQQOUZJSQV-ULFODFFFNA-N
     RDKit          3D

 37 38  0  0  0  0  0  0  0  0999 V2000
  138.9170   73.6140  223.0350 H   0  0  0  0  0  0  0  0  0  0  0  0
  139.6260   73.8840  222.3660 O   0  0  0  0  0  0  0  0  0  0  0  0
  140.6740   73.0290  222.0210 C   0  0  0  0  0  0  0  0  0  0  0  0
  140.8360   71.7620  222.6730 N   0  0  0  0  0  0  0  0  0  0  0  0
  140.1900   71.3780  223.8640 N   0  0  0  0  0  0  0  0  0  0  0  0
  140.7020   71.5510  225.0450 C   0  0  0  0  0  0  0  0  0  0  0  0
  141.1904   72.5068  225.2854 H   0  0  0  0  0  0  0  0  0  0  0  0
  140.6420   70.4890  226.0740 C   0  0  0  0  0  0  0  0  0  0  0  0
  140.8190   70.7490  227.4490 C   0  0  0  0  0  0  0  0  0  0  0  0
  141.0630   72.0050  227.9020 F   0  0  0  0  0  0  0  0  0  0  0  0
  140.7520   69.7310  228.3490 N   0  0  0  0  0  0  0  0  0  0  0  0
  140.5140   68.4490  227.9680 C   0  0  0  0  0  0  0  0  0  0  0  0
  140.4648   67.6511  228.7236 H   0  0  0  0  0  0  0  0  0  0  0  0
  140.3320   68.1440  226.6190 C   0  0  0  0  0  0  0  0  0  0  0  0
  140.1393   67.1076  226.3046 H   0  0  0  0  0  0  0  0  0  0  0  0
  140.3970   69.1680  225.6720 C   0  0  0  0  0  0  0  0  0  0  0  0
  140.2554   68.9375  224.6058 H   0  0  0  0  0  0  0  0  0  0  0  0
  141.5180   73.3630  221.0410 C   0  0  0  0  0  0  0  0  0  0  0  0
  141.9293   72.5639  220.4068 H   0  0  0  0  0  0  0  0  0  0  0  0
  141.9310   74.7820  220.7660 C   0  0  0  0  0  0  0  0  0  0  0  0
  141.8326   75.3632  221.6947 H   0  0  0  0  0  0  0  0  0  0  0  0
  142.9704   74.7614  220.4066 H   0  0  0  0  0  0  0  0  0  0  0  0
  141.0790   75.4470  219.6790 C   0  0  0  0  0  0  0  0  0  0  0  0
  141.7432   75.8869  218.9205 H   0  0  0  0  0  0  0  0  0  0  0  0
  140.4297   74.6828  219.2269 H   0  0  0  0  0  0  0  0  0  0  0  0
  140.2540   76.4760  220.2310 O   0  0  0  0  0  0  0  0  0  0  0  0
  140.6850   77.5250  221.0600 C   0  0  0  0  0  0  0  0  0  0  0  0
  141.8110   78.3170  220.7570 C   0  0  0  0  0  0  0  0  0  0  0  0
  142.3929   78.1134  219.8460 H   0  0  0  0  0  0  0  0  0  0  0  0
  142.1930   79.3590  221.6060 C   0  0  0  0  0  0  0  0  0  0  0  0
  143.0678   79.9775  221.3567 H   0  0  0  0  0  0  0  0  0  0  0  0
  141.4660   79.6170  222.7710 C   0  0  0  0  0  0  0  0  0  0  0  0
  141.9470   80.9270  223.8330 Cl  0  0  0  0  0  0  0  0  0  0  0  0
  140.3600   78.8260  223.0910 C   0  0  0  0  0  0  0  0  0  0  0  0
  139.7922   79.0245  224.0120 H   0  0  0  0  0  0  0  0  0  0  0  0
  139.9720   77.7820  222.2440 C   0  0  0  0  0  0  0  0  0  0  0  0
  138.5700   76.8090  222.6660 Cl  0  0  0  0  0  0  0  0  0  0  0  0
  1  2  1  0
  2  3  1  0
  3  4  1  0
  4  5  1  0
  5  6  2  0
  6  7  1  0
  6  8  1  0
  8  9  2  0
  9 10  1  0
  9 11  1  0
 11 12  2  0
 12 13  1  0
 12 14  1  0
 14 15  1  0
 14 16  2  0
 16 17  1  0
  3 18  2  0
 18 19  1  0
 18 20  1  0
 20 21  1  0
 20 22  1  0
 20 23  1  0
 23 24  1  0
 23 25  1  0
 23 26  1  0
 26 27  1  0
 27 28  2  0
 28 29  1  0
 28 30  1  0
 30 31  1  0
 30 32  2  0
 32 33  1  0
 32 34  1  0
 34 35  1  0
 34 36  2  0
 36 37  1  0
 16  8  1  0
 36 27  1  0
M  CHG  1   4  -1
M  END
>  <UniqueID>  (13) 
13

>  <SMILES>  (13) 
O/C(=C\CCOc1ccc(Cl)cc1Cl)[N-]/N=C/c1cccnc1F

>  <Energy>  (13) 
39.97050336635567

>  <Genealogy>  (13) 
O=C(CCCOc1ccc(Cl)cc1Cl)[N-]N=Cc1cccnc1F (protonated)
OC(=CCCOc1ccc(Cl)cc1Cl)[N-]N=Cc1cccnc1F (tautomer)
O/C(=C\CCOc1ccc(Cl)cc1Cl)[N-]/N=C/c1cccnc1F (cis-trans isomerization)
O/C(=C\CCOc1ccc(Cl)cc1Cl)[N-]/N=C/c1cccnc1F (3D coordinates assigned)
O/C(=C\CCOc1ccc(Cl)cc1Cl)[N-]/N=C/c1cccnc1F (optimized conformer: 39.97050336635567 kcal/mol)

>  <smiles>  (13) 
O=C(CCCOc1ccc(Cl)cc1Cl)NN=Cc1cccnc1F

>  <score_type>  (13) 
oracle

>  <origin>  (13) 
autodockgpu

>  <m_score__min__energy>  (13) 
-6.3499999999999996

>  <m_primary>  (13) 
energy

>  <meeko>  (13) 
{"free_energy": -6.29, "intermolecular_energy": -9.28, "internal_energy": -0.73, "cluster_size": 6, "cluster_id": 1, "rank_in_cluster": 2}

>  <energy>  (13) 
-5.67

>  <cluster_rmsd>  (13) 
1.34

>  <rmsd>  (13) 
273.25

>  <cluster>  (13) 
4

$$$$
QFPZKQQOUZJSQV-ULFODFFFNA-N
     RDKit          3D

 37 38  0  0  0  0  0  0  0  0999 V2000
  139.2970   73.4970  223.0630 H   0  0  0  0  0  0  0  0  0  0  0  0
  139.1240   74.1900  222.3470 O   0  0  0  0  0  0  0  0  0  0  0  0
  141.6070   77.9210  220.6170 C   0  0  0  0  0  0  0  0  0  0  0  0
  140.2810   76.0180  221.1720 N   0  0  0  0  0  0  0  0  0  0  0  0
  141.5050   76.6560  220.8920 N   0  0  0  0  0  0  0  0  0  0  0  0
  141.0070   73.7530  220.9790 C   0  0  0  0  0  0  0  0  0  0  0  0
  141.4382   73.9577  219.9879 H   0  0  0  0  0  0  0  0  0  0  0  0
  141.7770   78.9320  221.6840 C   0  0  0  0  0  0  0  0  0  0  0  0
  142.0410   80.2910  221.4120 C   0  0  0  0  0  0  0  0  0  0  0  0
  142.1590   80.7430  220.1380 F   0  0  0  0  0  0  0  0  0  0  0  0
  142.1860   81.1740  222.4360 N   0  0  0  0  0  0  0  0  0  0  0  0
  142.0840   80.7920  223.7360 C   0  0  0  0  0  0  0  0  0  0  0  0
  142.2073   81.5341  224.5385 H   0  0  0  0  0  0  0  0  0  0  0  0
  141.8230   79.4590  224.0530 C   0  0  0  0  0  0  0  0  0  0  0  0
  141.7378   79.1439  225.1034 H   0  0  0  0  0  0  0  0  0  0  0  0
  141.6710   78.5290  223.0230 C   0  0  0  0  0  0  0  0  0  0  0  0
  141.4671   77.4750  223.2629 H   0  0  0  0  0  0  0  0  0  0  0  0
  140.1330   74.6260  221.4870 C   0  0  0  0  0  0  0  0  0  0  0  0
  141.5661   78.2483  219.5676 H   0  0  0  0  0  0  0  0  0  0  0  0
  141.4280   72.5030  221.7010 C   0  0  0  0  0  0  0  0  0  0  0  0
  142.1139   71.9370  221.0536 H   0  0  0  0  0  0  0  0  0  0  0  0
  141.9133   72.8093  222.6394 H   0  0  0  0  0  0  0  0  0  0  0  0
  140.2430   71.6020  222.0660 C   0  0  0  0  0  0  0  0  0  0  0  0
  139.4325   71.7621  221.3397 H   0  0  0  0  0  0  0  0  0  0  0  0
  140.5796   70.5550  222.0441 H   0  0  0  0  0  0  0  0  0  0  0  0
  139.7590   71.8970  223.3790 O   0  0  0  0  0  0  0  0  0  0  0  0
  140.0090   71.1450  224.5400 C   0  0  0  0  0  0  0  0  0  0  0  0
  140.9190   71.5620  225.5310 C   0  0  0  0  0  0  0  0  0  0  0  0
  141.4718   72.5044  225.4036 H   0  0  0  0  0  0  0  0  0  0  0  0
  141.1240   70.7860  226.6750 C   0  0  0  0  0  0  0  0  0  0  0  0
  141.8306   71.1236  227.4475 H   0  0  0  0  0  0  0  0  0  0  0  0
  140.4340   69.5830  226.8400 C   0  0  0  0  0  0  0  0  0  0  0  0
  140.6910   68.6140  228.2790 Cl  0  0  0  0  0  0  0  0  0  0  0  0
  139.5430   69.1500  225.8540 C   0  0  0  0  0  0  0  0  0  0  0  0
  139.0053   68.1987  225.9801 H   0  0  0  0  0  0  0  0  0  0  0  0
  139.3330   69.9240  224.7060 C   0  0  0  0  0  0  0  0  0  0  0  0
  138.2000   69.3600  223.4870 Cl  0  0  0  0  0  0  0  0  0  0  0  0
  1  2  1  0
  2  3  1  0
  3  4  1  0
  4  5  1  0
  5  6  2  0
  6  7  1  0
  6  8  1  0
  8  9  2  0
  9 10  1  0
  9 11  1  0
 11 12  2  0
 12 13  1  0
 12 14  1  0
 14 15  1  0
 14 16  2  0
 16 17  1  0
  3 18  2  0
 18 19  1  0
 18 20  1  0
 20 21  1  0
 20 22  1  0
 20 23  1  0
 23 24  1  0
 23 25  1  0
 23 26  1  0
 26 27  1  0
 27 28  2  0
 28 29  1  0
 28 30  1  0
 30 31  1  0
 30 32  2  0
 32 33  1  0
 32 34  1  0
 34 35  1  0
 34 36  2  0
 36 37  1  0
 16  8  1  0
 36 27  1  0
M  CHG  1   4  -1
M  END
>  <UniqueID>  (14) 
13

>  <SMILES>  (14) 
O/C(=C\CCOc1ccc(Cl)cc1Cl)[N-]/N=C/c1cccnc1F

>  <Energy>  (14) 
39.97050336635567

>  <Genealogy>  (14) 
O=C(CCCOc1ccc(Cl)cc1Cl)[N-]N=Cc1cccnc1F (protonated)
OC(=CCCOc1ccc(Cl)cc1Cl)[N-]N=Cc1cccnc1F (tautomer)
O/C(=C\CCOc1ccc(Cl)cc1Cl)[N-]/N=C/c1cccnc1F (cis-trans isomerization)
O/C(=C\CCOc1ccc(Cl)cc1Cl)[N-]/N=C/c1cccnc1F (3D coordinates assigned)
O/C(=C\CCOc1ccc(Cl)cc1Cl)[N-]/N=C/c1cccnc1F (optimized conformer: 39.97050336635567 kcal/mol)

>  <smiles>  (14) 
O=C(CCCOc1ccc(Cl)cc1Cl)NN=Cc1cccnc1F

>  <score_type>  (14) 
oracle

>  <origin>  (14) 
autodockgpu

>  <m_score__min__energy>  (14) 
-6.3499999999999996

>  <m_primary>  (14) 
energy

>  <meeko>  (14) 
{"free_energy": -5.8, "intermolecular_energy": -8.79, "internal_energy": -1.08, "cluster_size": 7, "cluster_id": 4, "rank_in_cluster": 2}

>  <energy>  (14) 
-5.6

>  <cluster_rmsd>  (14) 
1.64

>  <rmsd>  (14) 
273.11

>  <cluster>  (14) 
4

$$$$
QFPZKQQOUZJSQV-ULFODFFFNA-N
     RDKit          3D

 37 38  0  0  0  0  0  0  0  0999 V2000
  140.7930   72.7570  222.1710 H   0  0  0  0  0  0  0  0  0  0  0  0
  140.7620   73.7540  222.0060 O   0  0  0  0  0  0  0  0  0  0  0  0
  139.5590   74.4600  221.9910 C   0  0  0  0  0  0  0  0  0  0  0  0
  139.4610   75.7610  222.5880 N   0  0  0  0  0  0  0  0  0  0  0  0
  140.1020   76.9190  222.1100 N   0  0  0  0  0  0  0  0  0  0  0  0
  139.7160   78.1250  222.3990 C   0  0  0  0  0  0  0  0  0  0  0  0
  138.6482   78.3794  222.3276 H   0  0  0  0  0  0  0  0  0  0  0  0
  140.6800   79.1640  222.8220 C   0  0  0  0  0  0  0  0  0  0  0  0
  140.2860   80.3480  223.4810 C   0  0  0  0  0  0  0  0  0  0  0  0
  138.9820   80.5980  223.7570 F   0  0  0  0  0  0  0  0  0  0  0  0
  141.2200   81.2660  223.8470 N   0  0  0  0  0  0  0  0  0  0  0  0
  142.5440   81.0840  223.6000 C   0  0  0  0  0  0  0  0  0  0  0  0
  143.2717   81.8479  223.9113 H   0  0  0  0  0  0  0  0  0  0  0  0
  142.9800   79.9290  222.9520 C   0  0  0  0  0  0  0  0  0  0  0  0
  144.0503   79.7761  222.7494 H   0  0  0  0  0  0  0  0  0  0  0  0
  142.0450   78.9690  222.5630 C   0  0  0  0  0  0  0  0  0  0  0  0
  142.3798   78.0549  222.0508 H   0  0  0  0  0  0  0  0  0  0  0  0
  138.4880   73.9500  221.3780 C   0  0  0  0  0  0  0  0  0  0  0  0
  137.7810   74.6402  220.8945 H   0  0  0  0  0  0  0  0  0  0  0  0
  138.2050   72.4740  221.3190 C   0  0  0  0  0  0  0  0  0  0  0  0
  137.2308   72.3218  220.8313 H   0  0  0  0  0  0  0  0  0  0  0  0
  139.0217   72.0018  220.7533 H   0  0  0  0  0  0  0  0  0  0  0  0
  138.1660   71.8230  222.7050 C   0  0  0  0  0  0  0  0  0  0  0  0
  137.8250   72.5656  223.4414 H   0  0  0  0  0  0  0  0  0  0  0  0
  137.4749   70.9679  222.6705 H   0  0  0  0  0  0  0  0  0  0  0  0
  139.4600   71.3470  223.0860 O   0  0  0  0  0  0  0  0  0  0  0  0
  139.8050   70.7970  224.3320 C   0  0  0  0  0  0  0  0  0  0  0  0
  140.5620   71.5020  225.2890 C   0  0  0  0  0  0  0  0  0  0  0  0
  140.9134   72.5201  225.0654 H   0  0  0  0  0  0  0  0  0  0  0  0
  140.8690   70.9170  226.5190 C   0  0  0  0  0  0  0  0  0  0  0  0
  141.4534   71.4786  227.2627 H   0  0  0  0  0  0  0  0  0  0  0  0
  140.4360   69.6200  226.8080 C   0  0  0  0  0  0  0  0  0  0  0  0
  140.8210   68.8900  228.3550 Cl  0  0  0  0  0  0  0  0  0  0  0  0
  139.7010   68.9040  225.8590 C   0  0  0  0  0  0  0  0  0  0  0  0
  139.3662   67.8804  226.0827 H   0  0  0  0  0  0  0  0  0  0  0  0
  139.3900   69.4860  224.6250 C   0  0  0  0  0  0  0  0  0  0  0  0
  138.4560   68.5660  223.4540 Cl  0  0  0  0  0  0  0  0  0  0  0  0
  1  2  1  0
  2  3  1  0
  3  4  1  0
  4  5  1  0
  5  6  2  0
  6  7  1  0
  6  8  1  0
  8  9  2  0
  9 10  1  0
  9 11  1  0
 11 12  2  0
 12 13  1  0
 12 14  1  0
 14 15  1  0
 14 16  2  0
 16 17  1  0
  3 18  2  0
 18 19  1  0
 18 20  1  0
 20 21  1  0
 20 22  1  0
 20 23  1  0
 23 24  1  0
 23 25  1  0
 23 26  1  0
 26 27  1  0
 27 28  2  0
 28 29  1  0
 28 30  1  0
 30 31  1  0
 30 32  2  0
 32 33  1  0
 32 34  1  0
 34 35  1  0
 34 36  2  0
 36 37  1  0
 16  8  1  0
 36 27  1  0
M  CHG  1   4  -1
M  END
>  <UniqueID>  (15) 
13

>  <SMILES>  (15) 
O/C(=C\CCOc1ccc(Cl)cc1Cl)[N-]/N=C/c1cccnc1F

>  <Energy>  (15) 
39.97050336635567

>  <Genealogy>  (15) 
O=C(CCCOc1ccc(Cl)cc1Cl)[N-]N=Cc1cccnc1F (protonated)
OC(=CCCOc1ccc(Cl)cc1Cl)[N-]N=Cc1cccnc1F (tautomer)
O/C(=C\CCOc1ccc(Cl)cc1Cl)[N-]/N=C/c1cccnc1F (cis-trans isomerization)
O/C(=C\CCOc1ccc(Cl)cc1Cl)[N-]/N=C/c1cccnc1F (3D coordinates assigned)
O/C(=C\CCOc1ccc(Cl)cc1Cl)[N-]/N=C/c1cccnc1F (optimized conformer: 39.97050336635567 kcal/mol)

>  <smiles>  (15) 
O=C(CCCOc1ccc(Cl)cc1Cl)NN=Cc1cccnc1F

>  <score_type>  (15) 
oracle

>  <origin>  (15) 
autodockgpu

>  <m_score__min__energy>  (15) 
-6.3499999999999996

>  <m_primary>  (15) 
energy

>  <meeko>  (15) 
{"free_energy": -5.6, "intermolecular_energy": -8.58, "internal_energy": -1.09, "cluster_size": 7, "cluster_id": 4, "rank_in_cluster": 6}

>  <energy>  (15) 
-5.49

>  <cluster_rmsd>  (15) 
0.99

>  <rmsd>  (15) 
272.83

>  <cluster>  (15) 
4

$$$$
QFPZKQQOUZJSQV-ULFODFFFNA-N
     RDKit          3D

 37 38  0  0  0  0  0  0  0  0999 V2000
  135.4520   69.5200  223.7850 H   0  0  0  0  0  0  0  0  0  0  0  0
  136.0750   68.7550  224.0060 O   0  0  0  0  0  0  0  0  0  0  0  0
  140.2790   68.0290  226.2110 C   0  0  0  0  0  0  0  0  0  0  0  0
  138.0730   68.4690  225.4160 N   0  0  0  0  0  0  0  0  0  0  0  0
  139.2710   67.7300  225.4470 N   0  0  0  0  0  0  0  0  0  0  0  0
  138.1830   69.5750  223.3050 C   0  0  0  0  0  0  0  0  0  0  0  0
  139.1824   69.1731  223.0824 H   0  0  0  0  0  0  0  0  0  0  0  0
  140.5310   69.4210  226.6450 C   0  0  0  0  0  0  0  0  0  0  0  0
  140.3940   69.8380  227.9860 C   0  0  0  0  0  0  0  0  0  0  0  0
  140.0120   68.9700  228.9570 F   0  0  0  0  0  0  0  0  0  0  0  0
  140.6410   71.1310  228.3250 N   0  0  0  0  0  0  0  0  0  0  0  0
  141.0250   72.0550  227.4060 C   0  0  0  0  0  0  0  0  0  0  0  0
  141.2185   73.0922  227.7170 H   0  0  0  0  0  0  0  0  0  0  0  0
  141.1740   71.6890  226.0680 C   0  0  0  0  0  0  0  0  0  0  0  0
  141.4836   72.4330  225.3192 H   0  0  0  0  0  0  0  0  0  0  0  0
  140.9260   70.3690  225.6900 C   0  0  0  0  0  0  0  0  0  0  0  0
  141.0409   70.0704  224.6376 H   0  0  0  0  0  0  0  0  0  0  0  0
  137.4380   68.9580  224.2260 C   0  0  0  0  0  0  0  0  0  0  0  0
  140.9592   67.2304  226.5420 H   0  0  0  0  0  0  0  0  0  0  0  0
  137.7170   70.7940  222.5590 C   0  0  0  0  0  0  0  0  0  0  0  0
  138.5582   71.1891  221.9705 H   0  0  0  0  0  0  0  0  0  0  0  0
  136.8779   70.4891  221.9164 H   0  0  0  0  0  0  0  0  0  0  0  0
  137.2080   71.9000  223.4900 C   0  0  0  0  0  0  0  0  0  0  0  0
  137.8823   71.9802  224.3554 H   0  0  0  0  0  0  0  0  0  0  0  0
  137.1852   72.8463  222.9297 H   0  0  0  0  0  0  0  0  0  0  0  0
  135.8850   71.6130  223.9530 O   0  0  0  0  0  0  0  0  0  0  0  0
  135.0840   72.4560  224.7400 C   0  0  0  0  0  0  0  0  0  0  0  0
  135.0520   73.8540  224.5630 C   0  0  0  0  0  0  0  0  0  0  0  0
  135.6794   74.3210  223.7895 H   0  0  0  0  0  0  0  0  0  0  0  0
  134.2290   74.6510  225.3630 C   0  0  0  0  0  0  0  0  0  0  0  0
  134.2046   75.7403  225.2115 H   0  0  0  0  0  0  0  0  0  0  0  0
  133.4370   74.0670  226.3550 C   0  0  0  0  0  0  0  0  0  0  0  0
  132.4020   75.0700  227.3540 Cl  0  0  0  0  0  0  0  0  0  0  0  0
  133.4750   72.6840  226.5520 C   0  0  0  0  0  0  0  0  0  0  0  0
  132.8569   72.2250  227.3376 H   0  0  0  0  0  0  0  0  0  0  0  0
  134.2970   71.8810  225.7530 C   0  0  0  0  0  0  0  0  0  0  0  0
  134.3170   70.1440  226.0170 Cl  0  0  0  0  0  0  0  0  0  0  0  0
  1  2  1  0
  2  3  1  0
  3  4  1  0
  4  5  1  0
  5  6  2  0
  6  7  1  0
  6  8  1  0
  8  9  2  0
  9 10  1  0
  9 11  1  0
 11 12  2  0
 12 13  1  0
 12 14  1  0
 14 15  1  0
 14 16  2  0
 16 17  1  0
  3 18  2  0
 18 19  1  0
 18 20  1  0
 20 21  1  0
 20 22  1  0
 20 23  1  0
 23 24  1  0
 23 25  1  0
 23 26  1  0
 26 27  1  0
 27 28  2  0
 28 29  1  0
 28 30  1  0
 30 31  1  0
 30 32  2  0
 32 33  1  0
 32 34  1  0
 34 35  1  0
 34 36  2  0
 36 37  1  0
 16  8  1  0
 36 27  1  0
M  CHG  1   4  -1
M  END
>  <UniqueID>  (16) 
13

>  <SMILES>  (16) 
O/C(=C\CCOc1ccc(Cl)cc1Cl)[N-]/N=C/c1cccnc1F

>  <Energy>  (16) 
39.97050336635567

>  <Genealogy>  (16) 
O=C(CCCOc1ccc(Cl)cc1Cl)[N-]N=Cc1cccnc1F (protonated)
OC(=CCCOc1ccc(Cl)cc1Cl)[N-]N=Cc1cccnc1F (tautomer)
O/C(=C\CCOc1ccc(Cl)cc1Cl)[N-]/N=C/c1cccnc1F (cis-trans isomerization)
O/C(=C\CCOc1ccc(Cl)cc1Cl)[N-]/N=C/c1cccnc1F (3D coordinates assigned)
O/C(=C\CCOc1ccc(Cl)cc1Cl)[N-]/N=C/c1cccnc1F (optimized conformer: 39.97050336635567 kcal/mol)

>  <smiles>  (16) 
O=C(CCCOc1ccc(Cl)cc1Cl)NN=Cc1cccnc1F

>  <score_type>  (16) 
oracle

>  <origin>  (16) 
autodockgpu

>  <m_score__min__energy>  (16) 
-6.3499999999999996

>  <m_primary>  (16) 
energy

>  <meeko>  (16) 
{"free_energy": -5.26, "intermolecular_energy": -8.25, "internal_energy": -1.42, "cluster_size": 1, "cluster_id": 6, "rank_in_cluster": 1}

>  <energy>  (16) 
-5.64

>  <cluster_rmsd>  (16) 
0.0

>  <rmsd>  (16) 
273.33

>  <cluster>  (16) 
5

$$$$
QFPZKQQOUZJSQV-ULFODFFFNA-N
     RDKit          3D

 37 38  0  0  0  0  0  0  0  0999 V2000
  139.7960   75.7450  221.8660 H   0  0  0  0  0  0  0  0  0  0  0  0
  139.6900   74.8560  222.3360 O   0  0  0  0  0  0  0  0  0  0  0  0
  140.3260   73.7020  221.8770 C   0  0  0  0  0  0  0  0  0  0  0  0
  140.6860   72.6490  222.7830 N   0  0  0  0  0  0  0  0  0  0  0  0
  139.7740   71.8910  223.5430 N   0  0  0  0  0  0  0  0  0  0  0  0
  140.0870   70.7790  224.1380 C   0  0  0  0  0  0  0  0  0  0  0  0
  140.1852   69.8591  223.5429 H   0  0  0  0  0  0  0  0  0  0  0  0
  140.3140   70.7240  225.5980 C   0  0  0  0  0  0  0  0  0  0  0  0
  140.0460   69.5720  226.3680 C   0  0  0  0  0  0  0  0  0  0  0  0
  139.5540   68.4440  225.7990 F   0  0  0  0  0  0  0  0  0  0  0  0
  140.2760   69.5810  227.7090 N   0  0  0  0  0  0  0  0  0  0  0  0
  140.7650   70.6760  228.3480 C   0  0  0  0  0  0  0  0  0  0  0  0
  140.9400   70.6470  229.4336 H   0  0  0  0  0  0  0  0  0  0  0  0
  141.0450   71.8370  227.6270 C   0  0  0  0  0  0  0  0  0  0  0  0
  141.4410   72.7265  228.1388 H   0  0  0  0  0  0  0  0  0  0  0  0
  140.8180   71.8590  226.2510 C   0  0  0  0  0  0  0  0  0  0  0  0
  141.0351   72.7706  225.6750 H   0  0  0  0  0  0  0  0  0  0  0  0
  140.5680   73.5410  220.5740 C   0  0  0  0  0  0  0  0  0  0  0  0
  140.4014   72.5497  220.1272 H   0  0  0  0  0  0  0  0  0  0  0  0
  141.0580   74.6540  219.6900 C   0  0  0  0  0  0  0  0  0  0  0  0
  141.7262   74.2287  218.9267 H   0  0  0  0  0  0  0  0  0  0  0  0
  140.1761   75.1320  219.2385 H   0  0  0  0  0  0  0  0  0  0  0  0
  141.8230   75.7330  220.4650 C   0  0  0  0  0  0  0  0  0  0  0  0
  142.2806   75.2793  221.3565 H   0  0  0  0  0  0  0  0  0  0  0  0
  142.5969   76.1549  219.8069 H   0  0  0  0  0  0  0  0  0  0  0  0
  140.9480   76.7880  220.8740 O   0  0  0  0  0  0  0  0  0  0  0  0
  141.2950   77.8800  221.6870 C   0  0  0  0  0  0  0  0  0  0  0  0
  141.2050   77.8380  223.0930 C   0  0  0  0  0  0  0  0  0  0  0  0
  140.8417   76.9265  223.5903 H   0  0  0  0  0  0  0  0  0  0  0  0
  141.5740   78.9460  223.8590 C   0  0  0  0  0  0  0  0  0  0  0  0
  141.5086   78.9005  224.9561 H   0  0  0  0  0  0  0  0  0  0  0  0
  142.0260   80.1120  223.2360 C   0  0  0  0  0  0  0  0  0  0  0  0
  142.4920   81.5000  224.2020 Cl  0  0  0  0  0  0  0  0  0  0  0  0
  142.1010   80.1720  221.8420 C   0  0  0  0  0  0  0  0  0  0  0  0
  142.4494   81.0924  221.3506 H   0  0  0  0  0  0  0  0  0  0  0  0
  141.7340   79.0640  221.0690 C   0  0  0  0  0  0  0  0  0  0  0  0
  141.8480   79.1640  219.3180 Cl  0  0  0  0  0  0  0  0  0  0  0  0
  1  2  1  0
  2  3  1  0
  3  4  1  0
  4  5  1  0
  5  6  2  0
  6  7  1  0
  6  8  1  0
  8  9  2  0
  9 10  1  0
  9 11  1  0
 11 12  2  0
 12 13  1  0
 12 14  1  0
 14 15  1  0
 14 16  2  0
 16 17  1  0
  3 18  2  0
 18 19  1  0
 18 20  1  0
 20 21  1  0
 20 22  1  0
 20 23  1  0
 23 24  1  0
 23 25  1  0
 23 26  1  0
 26 27  1  0
 27 28  2  0
 28 29  1  0
 28 30  1  0
 30 31  1  0
 30 32  2  0
 32 33  1  0
 32 34  1  0
 34 35  1  0
 34 36  2  0
 36 37  1  0
 16  8  1  0
 36 27  1  0
M  CHG  1   4  -1
M  END
>  <UniqueID>  (17) 
13

>  <SMILES>  (17) 
O/C(=C\CCOc1ccc(Cl)cc1Cl)[N-]/N=C/c1cccnc1F

>  <Energy>  (17) 
39.97050336635567

>  <Genealogy>  (17) 
O=C(CCCOc1ccc(Cl)cc1Cl)[N-]N=Cc1cccnc1F (protonated)
OC(=CCCOc1ccc(Cl)cc1Cl)[N-]N=Cc1cccnc1F (tautomer)
O/C(=C\CCOc1ccc(Cl)cc1Cl)[N-]/N=C/c1cccnc1F (cis-trans isomerization)
O/C(=C\CCOc1ccc(Cl)cc1Cl)[N-]/N=C/c1cccnc1F (3D coordinates assigned)
O/C(=C\CCOc1ccc(Cl)cc1Cl)[N-]/N=C/c1cccnc1F (optimized conformer: 39.97050336635567 kcal/mol)

>  <smiles>  (17) 
O=C(CCCOc1ccc(Cl)cc1Cl)NN=Cc1cccnc1F

>  <score_type>  (17) 
oracle

>  <origin>  (17) 
autodockgpu

>  <m_score__min__energy>  (17) 
-6.3499999999999996

>  <m_primary>  (17) 
energy

>  <meeko>  (17) 
{"free_energy": -5.99, "intermolecular_energy": -8.98, "internal_energy": -1.18, "cluster_size": 6, "cluster_id": 1, "rank_in_cluster": 5}

>  <energy>  (17) 
-5.44

>  <cluster_rmsd>  (17) 
1.75

>  <rmsd>  (17) 
273.17

>  <cluster>  (17) 
5

$$$$
QFPZKQQOUZJSQV-ULFODFFFNA-N
     RDKit          3D

 37 38  0  0  0  0  0  0  0  0999 V2000
  140.0040   75.8320  221.8390 H   0  0  0  0  0  0  0  0  0  0  0  0
  139.9690   74.8990  222.2270 O   0  0  0  0  0  0  0  0  0  0  0  0
  140.6640   73.8350  221.6490 C   0  0  0  0  0  0  0  0  0  0  0  0
  140.6900   72.5450  222.2770 N   0  0  0  0  0  0  0  0  0  0  0  0
  140.3120   72.2870  223.6080 N   0  0  0  0  0  0  0  0  0  0  0  0
  140.2310   71.0930  224.1120 C   0  0  0  0  0  0  0  0  0  0  0  0
  140.0331   70.2404  223.4458 H   0  0  0  0  0  0  0  0  0  0  0  0
  140.3990   70.8540  225.5620 C   0  0  0  0  0  0  0  0  0  0  0  0
  140.0550   69.6330  226.1790 C   0  0  0  0  0  0  0  0  0  0  0  0
  139.5380   68.6040  225.4630 F   0  0  0  0  0  0  0  0  0  0  0  0
  140.2340   69.4730  227.5180 N   0  0  0  0  0  0  0  0  0  0  0  0
  140.7430   70.4610  228.2990 C   0  0  0  0  0  0  0  0  0  0  0  0
  140.8752   70.2955  229.3784 H   0  0  0  0  0  0  0  0  0  0  0  0
  141.0980   71.6850  227.7330 C   0  0  0  0  0  0  0  0  0  0  0  0
  141.5102   72.4887  228.3608 H   0  0  0  0  0  0  0  0  0  0  0  0
  140.9250   71.8800  226.3620 C   0  0  0  0  0  0  0  0  0  0  0  0
  141.2021   72.8421  225.9065 H   0  0  0  0  0  0  0  0  0  0  0  0
  141.2780   73.9940  220.4740 C   0  0  0  0  0  0  0  0  0  0  0  0
  140.8636   73.4851  219.5912 H   0  0  0  0  0  0  0  0  0  0  0  0
  142.5110   74.8380  220.3040 C   0  0  0  0  0  0  0  0  0  0  0  0
  143.0315   74.8994  221.2711 H   0  0  0  0  0  0  0  0  0  0  0  0
  143.1364   74.3612  219.5349 H   0  0  0  0  0  0  0  0  0  0  0  0
  142.1940   76.2590  219.8270 C   0  0  0  0  0  0  0  0  0  0  0  0
  143.1178   76.8561  219.8376 H   0  0  0  0  0  0  0  0  0  0  0  0
  141.7824   76.2023  218.8085 H   0  0  0  0  0  0  0  0  0  0  0  0
  141.2250   76.8820  220.6750 O   0  0  0  0  0  0  0  0  0  0  0  0
  141.4560   77.9690  221.5350 C   0  0  0  0  0  0  0  0  0  0  0  0
  141.3880   77.8530  222.9380 C   0  0  0  0  0  0  0  0  0  0  0  0
  141.1357   76.8847  223.3948 H   0  0  0  0  0  0  0  0  0  0  0  0
  141.6390   78.9600  223.7520 C   0  0  0  0  0  0  0  0  0  0  0  0
  141.5941   78.8576  224.8463 H   0  0  0  0  0  0  0  0  0  0  0  0
  141.9470   80.1970  223.1800 C   0  0  0  0  0  0  0  0  0  0  0  0
  142.2640   81.5840  224.2060 Cl  0  0  0  0  0  0  0  0  0  0  0  0
  141.9980   80.3280  221.7900 C   0  0  0  0  0  0  0  0  0  0  0  0
  142.2345   81.3032  221.3394 H   0  0  0  0  0  0  0  0  0  0  0  0
  141.7490   79.2220  220.9690 C   0  0  0  0  0  0  0  0  0  0  0  0
  141.8290   79.4130  219.2240 Cl  0  0  0  0  0  0  0  0  0  0  0  0
  1  2  1  0
  2  3  1  0
  3  4  1  0
  4  5  1  0
  5  6  2  0
  6  7  1  0
  6  8  1  0
  8  9  2  0
  9 10  1  0
  9 11  1  0
 11 12  2  0
 12 13  1  0
 12 14  1  0
 14 15  1  0
 14 16  2  0
 16 17  1  0
  3 18  2  0
 18 19  1  0
 18 20  1  0
 20 21  1  0
 20 22  1  0
 20 23  1  0
 23 24  1  0
 23 25  1  0
 23 26  1  0
 26 27  1  0
 27 28  2  0
 28 29  1  0
 28 30  1  0
 30 31  1  0
 30 32  2  0
 32 33  1  0
 32 34  1  0
 34 35  1  0
 34 36  2  0
 36 37  1  0
 16  8  1  0
 36 27  1  0
M  CHG  1   4  -1
M  END
>  <UniqueID>  (18) 
13

>  <SMILES>  (18) 
O/C(=C\CCOc1ccc(Cl)cc1Cl)[N-]/N=C/c1cccnc1F

>  <Energy>  (18) 
39.97050336635567

>  <Genealogy>  (18) 
O=C(CCCOc1ccc(Cl)cc1Cl)[N-]N=Cc1cccnc1F (protonated)
OC(=CCCOc1ccc(Cl)cc1Cl)[N-]N=Cc1cccnc1F (tautomer)
O/C(=C\CCOc1ccc(Cl)cc1Cl)[N-]/N=C/c1cccnc1F (cis-trans isomerization)
O/C(=C\CCOc1ccc(Cl)cc1Cl)[N-]/N=C/c1cccnc1F (3D coordinates assigned)
O/C(=C\CCOc1ccc(Cl)cc1Cl)[N-]/N=C/c1cccnc1F (optimized conformer: 39.97050336635567 kcal/mol)

>  <smiles>  (18) 
O=C(CCCOc1ccc(Cl)cc1Cl)NN=Cc1cccnc1F

>  <score_type>  (18) 
oracle

>  <origin>  (18) 
autodockgpu

>  <m_score__min__energy>  (18) 
-6.3499999999999996

>  <m_primary>  (18) 
energy

>  <meeko>  (18) 
{"free_energy": -6.18, "intermolecular_energy": -9.16, "internal_energy": -1.06, "cluster_size": 6, "cluster_id": 1, "rank_in_cluster": 4}

>  <energy>  (18) 
-5.26

>  <cluster_rmsd>  (18) 
0.0

>  <rmsd>  (18) 
272.39

>  <cluster>  (18) 
6

$$$$
QFPZKQQOUZJSQV-ULFODFFFNA-N
     RDKit          3D

 37 38  0  0  0  0  0  0  0  0999 V2000
  139.0060   73.4880  223.0940 H   0  0  0  0  0  0  0  0  0  0  0  0
  139.2370   74.1150  222.3340 O   0  0  0  0  0  0  0  0  0  0  0  0
  140.4830   74.0800  221.7060 C   0  0  0  0  0  0  0  0  0  0  0  0
  141.0430   75.2630  221.1170 N   0  0  0  0  0  0  0  0  0  0  0  0
  140.5670   76.5710  221.3240 N   0  0  0  0  0  0  0  0  0  0  0  0
  141.2090   77.6360  220.9470 C   0  0  0  0  0  0  0  0  0  0  0  0
  141.4688   77.7603  219.8854 H   0  0  0  0  0  0  0  0  0  0  0  0
  141.5980   78.6850  221.9150 C   0  0  0  0  0  0  0  0  0  0  0  0
  142.0590   79.9570  221.5170 C   0  0  0  0  0  0  0  0  0  0  0  0
  142.1760   80.2840  220.2050 F   0  0  0  0  0  0  0  0  0  0  0  0
  142.4020   80.8810  222.4540 N   0  0  0  0  0  0  0  0  0  0  0  0
  142.3130   80.6230  223.7850 C   0  0  0  0  0  0  0  0  0  0  0  0
  142.5967   81.3954  224.5150 H   0  0  0  0  0  0  0  0  0  0  0  0
  141.8620   79.3790  224.2260 C   0  0  0  0  0  0  0  0  0  0  0  0
  141.7886   79.1642  225.3023 H   0  0  0  0  0  0  0  0  0  0  0  0
  141.5050   78.4100  223.2880 C   0  0  0  0  0  0  0  0  0  0  0  0
  141.1489   77.4257  223.6262 H   0  0  0  0  0  0  0  0  0  0  0  0
  141.1930   72.9500  221.6850 C   0  0  0  0  0  0  0  0  0  0  0  0
  142.2343   72.9775  222.0385 H   0  0  0  0  0  0  0  0  0  0  0  0
  140.6340   71.6410  221.2000 C   0  0  0  0  0  0  0  0  0  0  0  0
  140.2547   71.7779  220.1766 H   0  0  0  0  0  0  0  0  0  0  0  0
  141.4452   70.8990  221.2372 H   0  0  0  0  0  0  0  0  0  0  0  0
  139.4920   71.1230  222.0810 C   0  0  0  0  0  0  0  0  0  0  0  0
  138.5313   71.4236  221.6375 H   0  0  0  0  0  0  0  0  0  0  0  0
  139.5647   70.0269  222.1390 H   0  0  0  0  0  0  0  0  0  0  0  0
  139.5820   71.6550  223.4050 O   0  0  0  0  0  0  0  0  0  0  0  0
  139.8820   70.9280  224.5700 C   0  0  0  0  0  0  0  0  0  0  0  0
  141.0570   71.1440  225.3170 C   0  0  0  0  0  0  0  0  0  0  0  0
  141.7839   71.9002  224.9856 H   0  0  0  0  0  0  0  0  0  0  0  0
  141.3050   70.4040  226.4760 C   0  0  0  0  0  0  0  0  0  0  0  0
  142.2215   70.5849  227.0568 H   0  0  0  0  0  0  0  0  0  0  0  0
  140.3920   69.4350  226.8990 C   0  0  0  0  0  0  0  0  0  0  0  0
  140.7050   68.5110  228.3560 Cl  0  0  0  0  0  0  0  0  0  0  0  0
  139.2330   69.2000  226.1560 C   0  0  0  0  0  0  0  0  0  0  0  0
  138.5176   68.4319  226.4852 H   0  0  0  0  0  0  0  0  0  0  0  0
  138.9780   69.9380  224.9940 C   0  0  0  0  0  0  0  0  0  0  0  0
  137.5070   69.6280  224.0840 Cl  0  0  0  0  0  0  0  0  0  0  0  0
  1  2  1  0
  2  3  1  0
  3  4  1  0
  4  5  1  0
  5  6  2  0
  6  7  1  0
  6  8  1  0
  8  9  2  0
  9 10  1  0
  9 11  1  0
 11 12  2  0
 12 13  1  0
 12 14  1  0
 14 15  1  0
 14 16  2  0
 16 17  1  0
  3 18  2  0
 18 19  1  0
 18 20  1  0
 20 21  1  0
 20 22  1  0
 20 23  1  0
 23 24  1  0
 23 25  1  0
 23 26  1  0
 26 27  1  0
 27 28  2  0
 28 29  1  0
 28 30  1  0
 30 31  1  0
 30 32  2  0
 32 33  1  0
 32 34  1  0
 34 35  1  0
 34 36  2  0
 36 37  1  0
 16  8  1  0
 36 27  1  0
M  CHG  1   4  -1
M  END
>  <UniqueID>  (19) 
13

>  <SMILES>  (19) 
O/C(=C\CCOc1ccc(Cl)cc1Cl)[N-]/N=C/c1cccnc1F

>  <Energy>  (19) 
39.97050336635567

>  <Genealogy>  (19) 
O=C(CCCOc1ccc(Cl)cc1Cl)[N-]N=Cc1cccnc1F (protonated)
OC(=CCCOc1ccc(Cl)cc1Cl)[N-]N=Cc1cccnc1F (tautomer)
O/C(=C\CCOc1ccc(Cl)cc1Cl)[N-]/N=C/c1cccnc1F (cis-trans isomerization)
O/C(=C\CCOc1ccc(Cl)cc1Cl)[N-]/N=C/c1cccnc1F (3D coordinates assigned)
O/C(=C\CCOc1ccc(Cl)cc1Cl)[N-]/N=C/c1cccnc1F (optimized conformer: 39.97050336635567 kcal/mol)

>  <smiles>  (19) 
O=C(CCCOc1ccc(Cl)cc1Cl)NN=Cc1cccnc1F

>  <score_type>  (19) 
oracle

>  <origin>  (19) 
autodockgpu

>  <m_score__min__energy>  (19) 
-6.3499999999999996

>  <m_primary>  (19) 
energy

>  <meeko>  (19) 
{"free_energy": -5.9, "intermolecular_energy": -8.88, "internal_energy": -1.02, "cluster_size": 7, "cluster_id": 4, "rank_in_cluster": 1}

>  <energy>  (19) 
-5.18

>  <cluster_rmsd>  (19) 
0.0

>  <rmsd>  (19) 
272.3

>  <cluster>  (19) 
7

$$$$
QFPZKQQOUZJSQV-ULFODFFFNA-N
     RDKit          3D

 37 38  0  0  0  0  0  0  0  0999 V2000
  140.3780   76.0080  220.7930 H   0  0  0  0  0  0  0  0  0  0  0  0
  140.7560   75.1460  221.1610 O   0  0  0  0  0  0  0  0  0  0  0  0
  139.9470   74.1960  221.7860 C   0  0  0  0  0  0  0  0  0  0  0  0
  140.5100   72.9980  222.3380 N   0  0  0  0  0  0  0  0  0  0  0  0
  140.0080   72.3120  223.4610 N   0  0  0  0  0  0  0  0  0  0  0  0
  140.6190   71.3140  224.0240 C   0  0  0  0  0  0  0  0  0  0  0  0
  141.2462   70.6513  223.4096 H   0  0  0  0  0  0  0  0  0  0  0  0
  140.4900   71.0490  225.4730 C   0  0  0  0  0  0  0  0  0  0  0  0
  139.7890   69.9370  225.9860 C   0  0  0  0  0  0  0  0  0  0  0  0
  139.1840   69.0450  225.1610 F   0  0  0  0  0  0  0  0  0  0  0  0
  139.7060   69.7450  227.3300 N   0  0  0  0  0  0  0  0  0  0  0  0
  140.2840   70.5980  228.2150 C   0  0  0  0  0  0  0  0  0  0  0  0
  140.1966   70.4113  229.2955 H   0  0  0  0  0  0  0  0  0  0  0  0
  140.9880   71.7100  227.7550 C   0  0  0  0  0  0  0  0  0  0  0  0
  141.4589   72.4035  228.4673 H   0  0  0  0  0  0  0  0  0  0  0  0
  141.0890   71.9340  226.3810 C   0  0  0  0  0  0  0  0  0  0  0  0
  141.6413   72.8093  226.0085 H   0  0  0  0  0  0  0  0  0  0  0  0
  138.6360   74.4130  221.9190 C   0  0  0  0  0  0  0  0  0  0  0  0
  137.9399   73.6039  221.6531 H   0  0  0  0  0  0  0  0  0  0  0  0
  138.0690   75.7140  222.4160 C   0  0  0  0  0  0  0  0  0  0  0  0
  137.0547   75.5316  222.8005 H   0  0  0  0  0  0  0  0  0  0  0  0
  138.7408   76.0902  223.2016 H   0  0  0  0  0  0  0  0  0  0  0  0
  137.9930   76.7840  221.3210 C   0  0  0  0  0  0  0  0  0  0  0  0
  137.5091   76.3544  220.4315 H   0  0  0  0  0  0  0  0  0  0  0  0
  137.4111   77.6355  221.7035 H   0  0  0  0  0  0  0  0  0  0  0  0
  139.2980   77.2480  220.9650 O   0  0  0  0  0  0  0  0  0  0  0  0
  140.1040   78.1120  221.7240 C   0  0  0  0  0  0  0  0  0  0  0  0
  139.7100   78.6040  222.9850 C   0  0  0  0  0  0  0  0  0  0  0  0
  138.7327   78.3188  223.4016 H   0  0  0  0  0  0  0  0  0  0  0  0
  140.5520   79.4510  223.7090 C   0  0  0  0  0  0  0  0  0  0  0  0
  140.2399   79.8222  224.6963 H   0  0  0  0  0  0  0  0  0  0  0  0
  141.7900   79.8280  223.1820 C   0  0  0  0  0  0  0  0  0  0  0  0
  142.8460   80.8900  224.0950 Cl  0  0  0  0  0  0  0  0  0  0  0  0
  142.1830   79.3620  221.9250 C   0  0  0  0  0  0  0  0  0  0  0  0
  143.1549   79.6640  221.5076 H   0  0  0  0  0  0  0  0  0  0  0  0
  141.3440   78.5120  221.1950 C   0  0  0  0  0  0  0  0  0  0  0  0
  141.8670   77.9330  219.6210 Cl  0  0  0  0  0  0  0  0  0  0  0  0
  1  2  1  0
  2  3  1  0
  3  4  1  0
  4  5  1  0
  5  6  2  0
  6  7  1  0
  6  8  1  0
  8  9  2  0
  9 10  1  0
  9 11  1  0
 11 12  2  0
 12 13  1  0
 12 14  1  0
 14 15  1  0
 14 16  2  0
 16 17  1  0
  3 18  2  0
 18 19  1  0
 18 20  1  0
 20 21  1  0
 20 22  1  0
 20 23  1  0
 23 24  1  0
 23 25  1  0
 23 26  1  0
 26 27  1  0
 27 28  2  0
 28 29  1  0
 28 30  1  0
 30 31  1  0
 30 32  2  0
 32 33  1  0
 32 34  1  0
 34 35  1  0
 34 36  2  0
 36 37  1  0
 16  8  1  0
 36 27  1  0
M  CHG  1   4  -1
M  END
>  <UniqueID>  (20) 
13

>  <SMILES>  (20) 
O/C(=C\CCOc1ccc(Cl)cc1Cl)[N-]/N=C/c1cccnc1F

>  <Energy>  (20) 
39.97050336635567

>  <Genealogy>  (20) 
O=C(CCCOc1ccc(Cl)cc1Cl)[N-]N=Cc1cccnc1F (protonated)
OC(=CCCOc1ccc(Cl)cc1Cl)[N-]N=Cc1cccnc1F (tautomer)
O/C(=C\CCOc1ccc(Cl)cc1Cl)[N-]/N=C/c1cccnc1F (cis-trans isomerization)
O/C(=C\CCOc1ccc(Cl)cc1Cl)[N-]/N=C/c1cccnc1F (3D coordinates assigned)
O/C(=C\CCOc1ccc(Cl)cc1Cl)[N-]/N=C/c1cccnc1F (optimized conformer: 39.97050336635567 kcal/mol)

>  <smiles>  (20) 
O=C(CCCOc1ccc(Cl)cc1Cl)NN=Cc1cccnc1F

>  <score_type>  (20) 
oracle

>  <origin>  (20) 
autodockgpu

>  <m_score__min__energy>  (20) 
-6.3499999999999996

>  <m_primary>  (20) 
energy

>  <meeko>  (20) 
{"free_energy": -5.44, "intermolecular_energy": -8.42, "internal_energy": -1.29, "cluster_size": 2, "cluster_id": 5, "rank_in_cluster": 2}

>  <energy>  (20) 
-4.91

>  <cluster_rmsd>  (20) 
0.0

>  <rmsd>  (20) 
272.19

>  <cluster>  (20) 
8

$$$$
AMYMGDKGSBDGMC-OUKHWZIZNA-M
     RDKit          3D

 37 38  0  0  0  0  0  0  0  0999 V2000
  140.8224   67.1510  227.3901 H   0  0  0  0  0  0  0  0  0  0  0  0
  140.1760   67.8600  226.8520 C   0  0  0  0  0  0  0  0  0  0  0  0
  139.2350   67.3820  226.0890 N   0  0  0  0  0  0  0  0  0  0  0  0
  139.1480   67.6600  224.7150 N   0  0  0  0  0  0  0  0  0  0  0  0
  138.3840   68.7700  224.2370 C   0  0  0  0  0  0  0  0  0  0  0  0
  137.2140   68.9600  224.6680 O   0  0  0  0  0  0  0  0  0  0  0  0
  138.9510   69.6800  223.1830 C   0  0  0  0  0  0  0  0  0  0  0  0
  139.9674   69.3462  222.9270 H   0  0  0  0  0  0  0  0  0  0  0  0
  138.3010   69.6412  222.2965 H   0  0  0  0  0  0  0  0  0  0  0  0
  139.0090   71.1280  223.6880 C   0  0  0  0  0  0  0  0  0  0  0  0
  138.1301   71.6732  223.3135 H   0  0  0  0  0  0  0  0  0  0  0  0
  139.0181   71.1112  224.7878 H   0  0  0  0  0  0  0  0  0  0  0  0
  140.2780   71.8370  223.2060 C   0  0  0  0  0  0  0  0  0  0  0  0
  140.9629   71.9714  224.0562 H   0  0  0  0  0  0  0  0  0  0  0  0
  140.7556   71.2229  222.4283 H   0  0  0  0  0  0  0  0  0  0  0  0
  139.9570   73.1150  222.6540 O   0  0  0  0  0  0  0  0  0  0  0  0
  140.7800   73.8570  221.7820 C   0  0  0  0  0  0  0  0  0  0  0  0
  141.9100   73.3010  221.1510 C   0  0  0  0  0  0  0  0  0  0  0  0
  142.1795   72.2508  221.3369 H   0  0  0  0  0  0  0  0  0  0  0  0
  142.6930   74.0800  220.2870 C   0  0  0  0  0  0  0  0  0  0  0  0
  143.5723   73.6375  219.7961 H   0  0  0  0  0  0  0  0  0  0  0  0
  142.3610   75.4160  220.0470 C   0  0  0  0  0  0  0  0  0  0  0  0
  143.3380   76.3890  218.9540 Cl  0  0  0  0  0  0  0  0  0  0  0  0
  141.2510   75.9780  220.6810 C   0  0  0  0  0  0  0  0  0  0  0  0
  140.9908   77.0309  220.4972 H   0  0  0  0  0  0  0  0  0  0  0  0
  140.4660   75.2070  221.5510 C   0  0  0  0  0  0  0  0  0  0  0  0
  139.0760   75.9460  222.3310 Cl  0  0  0  0  0  0  0  0  0  0  0  0
  140.4200   69.3090  227.0320 C   0  0  0  0  0  0  0  0  0  0  0  0
  139.9360   69.9620  228.1760 C   0  0  0  0  0  0  0  0  0  0  0  0
  139.2120   69.2930  229.1060 F   0  0  0  0  0  0  0  0  0  0  0  0
  140.1920   71.2870  228.3680 N   0  0  0  0  0  0  0  0  0  0  0  0
  140.9180   72.0090  227.4790 C   0  0  0  0  0  0  0  0  0  0  0  0
  141.0980   73.0794  227.6576 H   0  0  0  0  0  0  0  0  0  0  0  0
  141.4370   71.3960  226.3380 C   0  0  0  0  0  0  0  0  0  0  0  0
  142.0381   71.9755  225.6218 H   0  0  0  0  0  0  0  0  0  0  0  0
  141.1870   70.0410  226.1130 C   0  0  0  0  0  0  0  0  0  0  0  0
  141.5908   69.5479  225.2164 H   0  0  0  0  0  0  0  0  0  0  0  0
  1  2  1  0
  2  3  2  0
  3  4  1  0
  4  5  1  0
  5  6  2  0
  5  7  1  0
  7  8  1  0
  7  9  1  0
  7 10  1  0
 10 11  1  0
 10 12  1  0
 10 13  1  0
 13 14  1  0
 13 15  1  0
 13 16  1  0
 16 17  1  0
 17 18  2  0
 18 19  1  0
 18 20  1  0
 20 21  1  0
 20 22  2  0
 22 23  1  0
 22 24  1  0
 24 25  1  0
 24 26  2  0
 26 27  1  0
  2 28  1  0
 28 29  2  0
 29 30  1  0
 29 31  1  0
 31 32  2  0
 32 33  1  0
 32 34  1  0
 34 35  1  0
 34 36  2  0
 36 37  1  0
 26 17  1  0
 36 28  1  0
M  CHG  1   4  -1
M  END
>  <UniqueID>  (21) 
14

>  <SMILES>  (21) 
O=C(CCCOc1ccc(Cl)cc1Cl)[N-]/N=C\c1cccnc1F

>  <Energy>  (21) 
38.643898467999904

>  <Genealogy>  (21) 
O=C(CCCOc1ccc(Cl)cc1Cl)[N-]N=Cc1cccnc1F (protonated)
O=C(CCCOc1ccc(Cl)cc1Cl)[N-]/N=C\c1cccnc1F (cis-trans isomerization)
O=C(CCCOc1ccc(Cl)cc1Cl)[N-]/N=C\c1cccnc1F (3D coordinates assigned)
O=C(CCCOc1ccc(Cl)cc1Cl)[N-]/N=C\c1cccnc1F (optimized conformer: 38.643898467999904 kcal/mol)

>  <smiles>  (21) 
O=C(CCCOc1ccc(Cl)cc1Cl)NN=Cc1cccnc1F

>  <score_type>  (21) 
oracle

>  <origin>  (21) 
autodockgpu

>  <m_score__min__energy>  (21) 
-6.8499999999999996

>  <m_primary>  (21) 
energy

>  <meeko>  (21) 
{"free_energy": -6.85, "intermolecular_energy": -9.54, "internal_energy": -0.92, "cluster_size": 12, "cluster_id": 1, "rank_in_cluster": 1}

>  <energy>  (21) 
-6.85

>  <cluster_rmsd>  (21) 
0.0

>  <rmsd>  (21) 
272.96

>  <cluster>  (21) 
1

$$$$
AMYMGDKGSBDGMC-OUKHWZIZNA-M
     RDKit          3D

 37 38  0  0  0  0  0  0  0  0999 V2000
  140.2133   67.3182  227.1477 H   0  0  0  0  0  0  0  0  0  0  0  0
  139.9150   68.1030  226.4370 C   0  0  0  0  0  0  0  0  0  0  0  0
  139.2470   67.7540  225.3750 N   0  0  0  0  0  0  0  0  0  0  0  0
  138.2470   68.5560  224.8010 N   0  0  0  0  0  0  0  0  0  0  0  0
  138.2530   68.8490  223.4020 C   0  0  0  0  0  0  0  0  0  0  0  0
  137.4280   68.2770  222.6370 O   0  0  0  0  0  0  0  0  0  0  0  0
  139.2720   69.7940  222.8310 C   0  0  0  0  0  0  0  0  0  0  0  0
  140.2802   69.4125  223.0500 H   0  0  0  0  0  0  0  0  0  0  0  0
  139.1171   69.8649  221.7443 H   0  0  0  0  0  0  0  0  0  0  0  0
  139.1200   71.1940  223.4420 C   0  0  0  0  0  0  0  0  0  0  0  0
  138.3476   71.1611  224.2245 H   0  0  0  0  0  0  0  0  0  0  0  0
  140.0903   71.4949  223.8639 H   0  0  0  0  0  0  0  0  0  0  0  0
  138.7140   72.2240  222.3840 C   0  0  0  0  0  0  0  0  0  0  0  0
  138.6902   71.7389  221.3970 H   0  0  0  0  0  0  0  0  0  0  0  0
  137.7191   72.6197  222.6363 H   0  0  0  0  0  0  0  0  0  0  0  0
  139.6470   73.3050  222.3540 O   0  0  0  0  0  0  0  0  0  0  0  0
  140.9070   73.2780  221.7250 C   0  0  0  0  0  0  0  0  0  0  0  0
  141.6220   72.0820  221.5130 C   0  0  0  0  0  0  0  0  0  0  0  0
  141.1982   71.1239  221.8484 H   0  0  0  0  0  0  0  0  0  0  0  0
  142.8720   72.1080  220.8760 C   0  0  0  0  0  0  0  0  0  0  0  0
  143.4230   71.1700  220.7129 H   0  0  0  0  0  0  0  0  0  0  0  0
  143.4200   73.3200  220.4480 C   0  0  0  0  0  0  0  0  0  0  0  0
  144.9820   73.3490  219.6390 Cl  0  0  0  0  0  0  0  0  0  0  0  0
  142.7240   74.5100  220.6680 C   0  0  0  0  0  0  0  0  0  0  0  0
  143.1565   75.4657  220.3369 H   0  0  0  0  0  0  0  0  0  0  0  0
  141.4760   74.4940  221.3090 C   0  0  0  0  0  0  0  0  0  0  0  0
  140.6280   76.0100  221.5690 Cl  0  0  0  0  0  0  0  0  0  0  0  0
  140.2930   69.5020  226.7360 C   0  0  0  0  0  0  0  0  0  0  0  0
  139.9460   70.0720  227.9720 C   0  0  0  0  0  0  0  0  0  0  0  0
  139.2330   69.3690  228.8860 F   0  0  0  0  0  0  0  0  0  0  0  0
  140.3270   71.3450  228.2700 N   0  0  0  0  0  0  0  0  0  0  0  0
  141.0490   72.0960  227.4010 C   0  0  0  0  0  0  0  0  0  0  0  0
  141.3311   73.1253  227.6672 H   0  0  0  0  0  0  0  0  0  0  0  0
  141.4340   71.5640  226.1700 C   0  0  0  0  0  0  0  0  0  0  0  0
  142.0314   72.1652  225.4688 H   0  0  0  0  0  0  0  0  0  0  0  0
  141.0550   70.2620  225.8350 C   0  0  0  0  0  0  0  0  0  0  0  0
  141.3531   69.8331  224.8669 H   0  0  0  0  0  0  0  0  0  0  0  0
  1  2  1  0
  2  3  2  0
  3  4  1  0
  4  5  1  0
  5  6  2  0
  5  7  1  0
  7  8  1  0
  7  9  1  0
  7 10  1  0
 10 11  1  0
 10 12  1  0
 10 13  1  0
 13 14  1  0
 13 15  1  0
 13 16  1  0
 16 17  1  0
 17 18  2  0
 18 19  1  0
 18 20  1  0
 20 21  1  0
 20 22  2  0
 22 23  1  0
 22 24  1  0
 24 25  1  0
 24 26  2  0
 26 27  1  0
  2 28  1  0
 28 29  2  0
 29 30  1  0
 29 31  1  0
 31 32  2  0
 32 33  1  0
 32 34  1  0
 34 35  1  0
 34 36  2  0
 36 37  1  0
 26 17  1  0
 36 28  1  0
M  CHG  1   4  -1
M  END
>  <UniqueID>  (22) 
14

>  <SMILES>  (22) 
O=C(CCCOc1ccc(Cl)cc1Cl)[N-]/N=C\c1cccnc1F

>  <Energy>  (22) 
38.643898467999904

>  <Genealogy>  (22) 
O=C(CCCOc1ccc(Cl)cc1Cl)[N-]N=Cc1cccnc1F (protonated)
O=C(CCCOc1ccc(Cl)cc1Cl)[N-]/N=C\c1cccnc1F (cis-trans isomerization)
O=C(CCCOc1ccc(Cl)cc1Cl)[N-]/N=C\c1cccnc1F (3D coordinates assigned)
O=C(CCCOc1ccc(Cl)cc1Cl)[N-]/N=C\c1cccnc1F (optimized conformer: 38.643898467999904 kcal/mol)

>  <smiles>  (22) 
O=C(CCCOc1ccc(Cl)cc1Cl)NN=Cc1cccnc1F

>  <score_type>  (22) 
oracle

>  <origin>  (22) 
autodockgpu

>  <m_score__min__energy>  (22) 
-6.8499999999999996

>  <m_primary>  (22) 
energy

>  <meeko>  (22) 
{"free_energy": -6.34, "intermolecular_energy": -9.02, "internal_energy": -0.98, "cluster_size": 12, "cluster_id": 1, "rank_in_cluster": 7}

>  <energy>  (22) 
-6.74

>  <cluster_rmsd>  (22) 
0.28

>  <rmsd>  (22) 
272.93

>  <cluster>  (22) 
1

$$$$
AMYMGDKGSBDGMC-OUKHWZIZNA-M
     RDKit          3D

 37 38  0  0  0  0  0  0  0  0999 V2000
  143.8956   71.7684  218.0795 H   0  0  0  0  0  0  0  0  0  0  0  0
  144.8460   71.2950  218.3670 C   0  0  0  0  0  0  0  0  0  0  0  0
  145.9340   72.0090  218.3140 N   0  0  0  0  0  0  0  0  0  0  0  0
  145.9850   73.3570  218.7060 N   0  0  0  0  0  0  0  0  0  0  0  0
  145.7440   73.7380  220.0630 C   0  0  0  0  0  0  0  0  0  0  0  0
  146.6810   73.6810  220.9070 O   0  0  0  0  0  0  0  0  0  0  0  0
  144.3680   74.1560  220.4980 C   0  0  0  0  0  0  0  0  0  0  0  0
  144.4495   74.7878  221.3947 H   0  0  0  0  0  0  0  0  0  0  0  0
  143.8933   74.7149  219.6781 H   0  0  0  0  0  0  0  0  0  0  0  0
  143.5040   72.9300  220.8230 C   0  0  0  0  0  0  0  0  0  0  0  0
  143.7793   72.1083  220.1455 H   0  0  0  0  0  0  0  0  0  0  0  0
  143.6830   72.6481  221.8711 H   0  0  0  0  0  0  0  0  0  0  0  0
  142.0130   73.2370  220.6540 C   0  0  0  0  0  0  0  0  0  0  0  0
  141.5555   72.4683  220.0138 H   0  0  0  0  0  0  0  0  0  0  0  0
  141.5358   73.2386  221.6451 H   0  0  0  0  0  0  0  0  0  0  0  0
  141.8310   74.5190  220.0520 O   0  0  0  0  0  0  0  0  0  0  0  0
  141.5970   75.7220  220.7480 C   0  0  0  0  0  0  0  0  0  0  0  0
  140.8920   75.7660  221.9670 C   0  0  0  0  0  0  0  0  0  0  0  0
  140.4979   74.8372  222.4052 H   0  0  0  0  0  0  0  0  0  0  0  0
  140.6900   76.9890  222.6250 C   0  0  0  0  0  0  0  0  0  0  0  0
  140.1409   77.0145  223.5778 H   0  0  0  0  0  0  0  0  0  0  0  0
  141.1840   78.1750  222.0740 C   0  0  0  0  0  0  0  0  0  0  0  0
  140.9390   79.7050  222.9050 Cl  0  0  0  0  0  0  0  0  0  0  0  0
  141.8700   78.1400  220.8590 C   0  0  0  0  0  0  0  0  0  0  0  0
  142.2547   79.0731  220.4215 H   0  0  0  0  0  0  0  0  0  0  0  0
  142.0720   76.9220  220.1920 C   0  0  0  0  0  0  0  0  0  0  0  0
  142.9400   76.9150  218.6650 Cl  0  0  0  0  0  0  0  0  0  0  0  0
  144.8250   69.8780  218.7950 C   0  0  0  0  0  0  0  0  0  0  0  0
  145.9790   69.2950  219.3410 C   0  0  0  0  0  0  0  0  0  0  0  0
  147.1310   70.0010  219.4470 F   0  0  0  0  0  0  0  0  0  0  0  0
  145.9540   68.0040  219.7750 N   0  0  0  0  0  0  0  0  0  0  0  0
  144.8300   67.2480  219.7040 C   0  0  0  0  0  0  0  0  0  0  0  0
  144.8460   66.2050  220.0532 H   0  0  0  0  0  0  0  0  0  0  0  0
  143.6530   67.7930  219.1880 C   0  0  0  0  0  0  0  0  0  0  0  0
  142.7355   67.1880  219.1417 H   0  0  0  0  0  0  0  0  0  0  0  0
  143.6500   69.1130  218.7310 C   0  0  0  0  0  0  0  0  0  0  0  0
  142.7283   69.5522  218.3217 H   0  0  0  0  0  0  0  0  0  0  0  0
  1  2  1  0
  2  3  2  0
  3  4  1  0
  4  5  1  0
  5  6  2  0
  5  7  1  0
  7  8  1  0
  7  9  1  0
  7 10  1  0
 10 11  1  0
 10 12  1  0
 10 13  1  0
 13 14  1  0
 13 15  1  0
 13 16  1  0
 16 17  1  0
 17 18  2  0
 18 19  1  0
 18 20  1  0
 20 21  1  0
 20 22  2  0
 22 23  1  0
 22 24  1  0
 24 25  1  0
 24 26  2  0
 26 27  1  0
  2 28  1  0
 28 29  2  0
 29 30  1  0
 29 31  1  0
 31 32  2  0
 32 33  1  0
 32 34  1  0
 34 35  1  0
 34 36  2  0
 36 37  1  0
 26 17  1  0
 36 28  1  0
M  CHG  1   4  -1
M  END
>  <UniqueID>  (23) 
14

>  <SMILES>  (23) 
O=C(CCCOc1ccc(Cl)cc1Cl)[N-]/N=C\c1cccnc1F

>  <Energy>  (23) 
38.643898467999904

>  <Genealogy>  (23) 
O=C(CCCOc1ccc(Cl)cc1Cl)[N-]N=Cc1cccnc1F (protonated)
O=C(CCCOc1ccc(Cl)cc1Cl)[N-]/N=C\c1cccnc1F (cis-trans isomerization)
O=C(CCCOc1ccc(Cl)cc1Cl)[N-]/N=C\c1cccnc1F (3D coordinates assigned)
O=C(CCCOc1ccc(Cl)cc1Cl)[N-]/N=C\c1cccnc1F (optimized conformer: 38.643898467999904 kcal/mol)

>  <smiles>  (23) 
O=C(CCCOc1ccc(Cl)cc1Cl)NN=Cc1cccnc1F

>  <score_type>  (23) 
oracle

>  <origin>  (23) 
autodockgpu

>  <m_score__min__energy>  (23) 
-6.8499999999999996

>  <m_primary>  (23) 
energy

>  <meeko>  (23) 
{"free_energy": -6.24, "intermolecular_energy": -8.92, "internal_energy": -0.66, "cluster_size": 1, "cluster_id": 4, "rank_in_cluster": 1}

>  <energy>  (23) 
-6.55

>  <cluster_rmsd>  (23) 
0.61

>  <rmsd>  (23) 
272.89

>  <cluster>  (23) 
1

$$$$
AMYMGDKGSBDGMC-OUKHWZIZNA-M
     RDKit          3D

 37 38  0  0  0  0  0  0  0  0999 V2000
  140.7433   67.1476  227.4254 H   0  0  0  0  0  0  0  0  0  0  0  0
  140.1280   67.8550  226.8500 C   0  0  0  0  0  0  0  0  0  0  0  0
  139.2050   67.3760  226.0660 N   0  0  0  0  0  0  0  0  0  0  0  0
  139.0810   67.7430  224.7160 N   0  0  0  0  0  0  0  0  0  0  0  0
  138.4510   68.9710  224.3420 C   0  0  0  0  0  0  0  0  0  0  0  0
  137.6730   69.5490  225.1510 O   0  0  0  0  0  0  0  0  0  0  0  0
  138.6690   69.5470  222.9720 C   0  0  0  0  0  0  0  0  0  0  0  0
  139.6644   69.2500  222.6101 H   0  0  0  0  0  0  0  0  0  0  0  0
  137.8872   69.1637  222.2998 H   0  0  0  0  0  0  0  0  0  0  0  0
  138.5820   71.0790  223.0050 C   0  0  0  0  0  0  0  0  0  0  0  0
  138.0347   71.4254  222.1159 H   0  0  0  0  0  0  0  0  0  0  0  0
  138.0592   71.3757  223.9262 H   0  0  0  0  0  0  0  0  0  0  0  0
  139.9730   71.7190  223.0140 C   0  0  0  0  0  0  0  0  0  0  0  0
  140.4271   71.5839  224.0067 H   0  0  0  0  0  0  0  0  0  0  0  0
  140.5921   71.2348  222.2444 H   0  0  0  0  0  0  0  0  0  0  0  0
  139.8840   73.1150  222.7240 O   0  0  0  0  0  0  0  0  0  0  0  0
  140.7260   73.8190  221.8410 C   0  0  0  0  0  0  0  0  0  0  0  0
  141.8330   73.2190  221.2080 C   0  0  0  0  0  0  0  0  0  0  0  0
  142.0669   72.1617  221.4012 H   0  0  0  0  0  0  0  0  0  0  0  0
  142.6380   73.9630  220.3330 C   0  0  0  0  0  0  0  0  0  0  0  0
  143.4991   73.4860  219.8420 H   0  0  0  0  0  0  0  0  0  0  0  0
  142.3510   75.3080  220.0820 C   0  0  0  0  0  0  0  0  0  0  0  0
  143.3540   76.2360  218.9760 Cl  0  0  0  0  0  0  0  0  0  0  0  0
  141.2640   75.9130  220.7170 C   0  0  0  0  0  0  0  0  0  0  0  0
  141.0385   76.9723  220.5247 H   0  0  0  0  0  0  0  0  0  0  0  0
  140.4580   75.1770  221.5990 C   0  0  0  0  0  0  0  0  0  0  0  0
  139.0990   75.9710  222.3800 Cl  0  0  0  0  0  0  0  0  0  0  0  0
  140.3910   69.3040  227.0060 C   0  0  0  0  0  0  0  0  0  0  0  0
  139.9250   69.9810  228.1440 C   0  0  0  0  0  0  0  0  0  0  0  0
  139.2010   69.3340  229.0900 F   0  0  0  0  0  0  0  0  0  0  0  0
  140.1990   71.3040  228.3140 N   0  0  0  0  0  0  0  0  0  0  0  0
  140.9260   72.0050  227.4070 C   0  0  0  0  0  0  0  0  0  0  0  0
  141.1200   73.0758  227.5673 H   0  0  0  0  0  0  0  0  0  0  0  0
  141.4270   71.3680  226.2720 C   0  0  0  0  0  0  0  0  0  0  0  0
  142.0289   71.9291  225.5421 H   0  0  0  0  0  0  0  0  0  0  0  0
  141.1590   70.0130  226.0690 C   0  0  0  0  0  0  0  0  0  0  0  0
  141.5489   69.5019  225.1764 H   0  0  0  0  0  0  0  0  0  0  0  0
  1  2  1  0
  2  3  2  0
  3  4  1  0
  4  5  1  0
  5  6  2  0
  5  7  1  0
  7  8  1  0
  7  9  1  0
  7 10  1  0
 10 11  1  0
 10 12  1  0
 10 13  1  0
 13 14  1  0
 13 15  1  0
 13 16  1  0
 16 17  1  0
 17 18  2  0
 18 19  1  0
 18 20  1  0
 20 21  1  0
 20 22  2  0
 22 23  1  0
 22 24  1  0
 24 25  1  0
 24 26  2  0
 26 27  1  0
  2 28  1  0
 28 29  2  0
 29 30  1  0
 29 31  1  0
 31 32  2  0
 32 33  1  0
 32 34  1  0
 34 35  1  0
 34 36  2  0
 36 37  1  0
 26 17  1  0
 36 28  1  0
M  CHG  1   4  -1
M  END
>  <UniqueID>  (24) 
14

>  <SMILES>  (24) 
O=C(CCCOc1ccc(Cl)cc1Cl)[N-]/N=C\c1cccnc1F

>  <Energy>  (24) 
38.643898467999904

>  <Genealogy>  (24) 
O=C(CCCOc1ccc(Cl)cc1Cl)[N-]N=Cc1cccnc1F (protonated)
O=C(CCCOc1ccc(Cl)cc1Cl)[N-]/N=C\c1cccnc1F (cis-trans isomerization)
O=C(CCCOc1ccc(Cl)cc1Cl)[N-]/N=C\c1cccnc1F (3D coordinates assigned)
O=C(CCCOc1ccc(Cl)cc1Cl)[N-]/N=C\c1cccnc1F (optimized conformer: 38.643898467999904 kcal/mol)

>  <smiles>  (24) 
O=C(CCCOc1ccc(Cl)cc1Cl)NN=Cc1cccnc1F

>  <score_type>  (24) 
oracle

>  <origin>  (24) 
autodockgpu

>  <m_score__min__energy>  (24) 
-6.8499999999999996

>  <m_primary>  (24) 
energy

>  <meeko>  (24) 
{"free_energy": -6.74, "intermolecular_energy": -9.42, "internal_energy": -0.93, "cluster_size": 12, "cluster_id": 1, "rank_in_cluster": 2}

>  <energy>  (24) 
-6.46

>  <cluster_rmsd>  (24) 
1.25

>  <rmsd>  (24) 
273.13

>  <cluster>  (24) 
1

$$$$
AMYMGDKGSBDGMC-OUKHWZIZNA-M
     RDKit          3D

 37 38  0  0  0  0  0  0  0  0999 V2000
  141.4672   72.3306  225.6876 H   0  0  0  0  0  0  0  0  0  0  0  0
  140.7760   71.5240  225.4020 C   0  0  0  0  0  0  0  0  0  0  0  0
  140.0910   71.6570  224.3020 N   0  0  0  0  0  0  0  0  0  0  0  0
  140.6800   71.6380  223.0270 N   0  0  0  0  0  0  0  0  0  0  0  0
  140.6970   72.8100  222.2080 C   0  0  0  0  0  0  0  0  0  0  0  0
  139.8790   73.7450  222.4310 O   0  0  0  0  0  0  0  0  0  0  0  0
  141.6490   72.9090  221.0500 C   0  0  0  0  0  0  0  0  0  0  0  0
  142.6480   73.1745  221.4261 H   0  0  0  0  0  0  0  0  0  0  0  0
  141.6797   71.9377  220.5346 H   0  0  0  0  0  0  0  0  0  0  0  0
  141.1850   73.9810  220.0530 C   0  0  0  0  0  0  0  0  0  0  0  0
  141.3558   73.6158  219.0295 H   0  0  0  0  0  0  0  0  0  0  0  0
  140.1159   74.1743  220.2250 H   0  0  0  0  0  0  0  0  0  0  0  0
  141.9500   75.2940  220.2480 C   0  0  0  0  0  0  0  0  0  0  0  0
  142.6270   75.1941  221.1092 H   0  0  0  0  0  0  0  0  0  0  0  0
  142.5262   75.5091  219.3360 H   0  0  0  0  0  0  0  0  0  0  0  0
  141.0420   76.3710  220.4860 O   0  0  0  0  0  0  0  0  0  0  0  0
  141.2990   77.4880  221.3050 C   0  0  0  0  0  0  0  0  0  0  0  0
  141.1080   77.4630  222.7010 C   0  0  0  0  0  0  0  0  0  0  0  0
  140.7408   76.5470  223.1870 H   0  0  0  0  0  0  0  0  0  0  0  0
  141.3840   78.6010  223.4740 C   0  0  0  0  0  0  0  0  0  0  0  0
  141.2351   78.5723  224.5635 H   0  0  0  0  0  0  0  0  0  0  0  0
  141.8470   79.7700  222.8660 C   0  0  0  0  0  0  0  0  0  0  0  0
  142.2030   81.1920  223.8370 Cl  0  0  0  0  0  0  0  0  0  0  0  0
  142.0250   79.8060  221.4810 C   0  0  0  0  0  0  0  0  0  0  0  0
  142.3862   80.7270  221.0000 H   0  0  0  0  0  0  0  0  0  0  0  0
  141.7460   78.6750  220.7000 C   0  0  0  0  0  0  0  0  0  0  0  0
  141.9800   78.7560  218.9610 Cl  0  0  0  0  0  0  0  0  0  0  0  0
  140.6710   70.3420  226.2870 C   0  0  0  0  0  0  0  0  0  0  0  0
  140.4270   70.5150  227.6590 C   0  0  0  0  0  0  0  0  0  0  0  0
  140.3230   71.7560  228.1960 F   0  0  0  0  0  0  0  0  0  0  0  0
  140.2870   69.4310  228.4720 N   0  0  0  0  0  0  0  0  0  0  0  0
  140.3700   68.1640  227.9930 C   0  0  0  0  0  0  0  0  0  0  0  0
  140.2631   67.3094  228.6772 H   0  0  0  0  0  0  0  0  0  0  0  0
  140.5910   67.9450  226.6320 C   0  0  0  0  0  0  0  0  0  0  0  0
  140.6457   66.9197  226.2373 H   0  0  0  0  0  0  0  0  0  0  0  0
  140.7420   69.0370  225.7760 C   0  0  0  0  0  0  0  0  0  0  0  0
  140.9165   68.8749  224.7021 H   0  0  0  0  0  0  0  0  0  0  0  0
  1  2  1  0
  2  3  2  0
  3  4  1  0
  4  5  1  0
  5  6  2  0
  5  7  1  0
  7  8  1  0
  7  9  1  0
  7 10  1  0
 10 11  1  0
 10 12  1  0
 10 13  1  0
 13 14  1  0
 13 15  1  0
 13 16  1  0
 16 17  1  0
 17 18  2  0
 18 19  1  0
 18 20  1  0
 20 21  1  0
 20 22  2  0
 22 23  1  0
 22 24  1  0
 24 25  1  0
 24 26  2  0
 26 27  1  0
  2 28  1  0
 28 29  2  0
 29 30  1  0
 29 31  1  0
 31 32  2  0
 32 33  1  0
 32 34  1  0
 34 35  1  0
 34 36  2  0
 36 37  1  0
 26 17  1  0
 36 28  1  0
M  CHG  1   4  -1
M  END
>  <UniqueID>  (25) 
14

>  <SMILES>  (25) 
O=C(CCCOc1ccc(Cl)cc1Cl)[N-]/N=C\c1cccnc1F

>  <Energy>  (25) 
38.643898467999904

>  <Genealogy>  (25) 
O=C(CCCOc1ccc(Cl)cc1Cl)[N-]N=Cc1cccnc1F (protonated)
O=C(CCCOc1ccc(Cl)cc1Cl)[N-]/N=C\c1cccnc1F (cis-trans isomerization)
O=C(CCCOc1ccc(Cl)cc1Cl)[N-]/N=C\c1cccnc1F (3D coordinates assigned)
O=C(CCCOc1ccc(Cl)cc1Cl)[N-]/N=C\c1cccnc1F (optimized conformer: 38.643898467999904 kcal/mol)

>  <smiles>  (25) 
O=C(CCCOc1ccc(Cl)cc1Cl)NN=Cc1cccnc1F

>  <score_type>  (25) 
oracle

>  <origin>  (25) 
autodockgpu

>  <m_score__min__energy>  (25) 
-6.8499999999999996

>  <m_primary>  (25) 
energy

>  <meeko>  (25) 
{"free_energy": -6.4, "intermolecular_energy": -9.09, "internal_energy": -0.5, "cluster_size": 2, "cluster_id": 3, "rank_in_cluster": 1}

>  <energy>  (25) 
-6.45

>  <cluster_rmsd>  (25) 
1.1

>  <rmsd>  (25) 
273.07

>  <cluster>  (25) 
1

$$$$
AMYMGDKGSBDGMC-OUKHWZIZNA-M
     RDKit          3D

 37 38  0  0  0  0  0  0  0  0999 V2000
  140.2077   70.2064  223.4961 H   0  0  0  0  0  0  0  0  0  0  0  0
  140.3790   71.1110  224.0980 C   0  0  0  0  0  0  0  0  0  0  0  0
  140.6040   72.2330  223.4770 N   0  0  0  0  0  0  0  0  0  0  0  0
  139.9900   72.5720  222.2600 N   0  0  0  0  0  0  0  0  0  0  0  0
  139.5440   73.9070  222.0090 C   0  0  0  0  0  0  0  0  0  0  0  0
  140.3520   74.8710  222.1200 O   0  0  0  0  0  0  0  0  0  0  0  0
  138.1060   74.1720  221.6660 C   0  0  0  0  0  0  0  0  0  0  0  0
  137.8467   73.6220  220.7493 H   0  0  0  0  0  0  0  0  0  0  0  0
  137.4765   73.8382  222.5040 H   0  0  0  0  0  0  0  0  0  0  0  0
  137.8670   75.6710  221.4380 C   0  0  0  0  0  0  0  0  0  0  0  0
  138.7560   76.1063  220.9581 H   0  0  0  0  0  0  0  0  0  0  0  0
  136.9811   75.7867  220.7963 H   0  0  0  0  0  0  0  0  0  0  0  0
  137.6050   76.4020  222.7580 C   0  0  0  0  0  0  0  0  0  0  0  0
  136.5595   76.2410  223.0597 H   0  0  0  0  0  0  0  0  0  0  0  0
  138.2862   76.0059  223.5255 H   0  0  0  0  0  0  0  0  0  0  0  0
  137.8410   77.8030  222.6090 O   0  0  0  0  0  0  0  0  0  0  0  0
  139.0550   78.4600  222.8910 C   0  0  0  0  0  0  0  0  0  0  0  0
  140.3110   77.8770  222.6280 C   0  0  0  0  0  0  0  0  0  0  0  0
  140.3661   76.8694  222.1903 H   0  0  0  0  0  0  0  0  0  0  0  0
  141.4910   78.5760  222.9220 C   0  0  0  0  0  0  0  0  0  0  0  0
  142.4671   78.1147  222.7113 H   0  0  0  0  0  0  0  0  0  0  0  0
  141.4330   79.8550  223.4810 C   0  0  0  0  0  0  0  0  0  0  0  0
  142.9140   80.7340  223.8380 Cl  0  0  0  0  0  0  0  0  0  0  0  0
  140.1920   80.4330  223.7580 C   0  0  0  0  0  0  0  0  0  0  0  0
  140.1437   81.4379  224.2028 H   0  0  0  0  0  0  0  0  0  0  0  0
  139.0070   79.7390  223.4720 C   0  0  0  0  0  0  0  0  0  0  0  0
  137.4630   80.4960  223.8330 Cl  0  0  0  0  0  0  0  0  0  0  0  0
  140.3420   70.9910  225.5730 C   0  0  0  0  0  0  0  0  0  0  0  0
  139.6470   69.9280  226.1710 C   0  0  0  0  0  0  0  0  0  0  0  0
  138.9740   69.0250  225.4170 F   0  0  0  0  0  0  0  0  0  0  0  0
  139.6440   69.7870  227.5260 N   0  0  0  0  0  0  0  0  0  0  0  0
  140.3070   70.6520  228.3350 C   0  0  0  0  0  0  0  0  0  0  0  0
  140.2761   70.5175  229.4263 H   0  0  0  0  0  0  0  0  0  0  0  0
  141.0280   71.7120  227.7830 C   0  0  0  0  0  0  0  0  0  0  0  0
  141.5777   72.4072  228.4345 H   0  0  0  0  0  0  0  0  0  0  0  0
  141.0460   71.8830  226.3970 C   0  0  0  0  0  0  0  0  0  0  0  0
  141.6109   72.7153  225.9519 H   0  0  0  0  0  0  0  0  0  0  0  0
  1  2  1  0
  2  3  2  0
  3  4  1  0
  4  5  1  0
  5  6  2  0
  5  7  1  0
  7  8  1  0
  7  9  1  0
  7 10  1  0
 10 11  1  0
 10 12  1  0
 10 13  1  0
 13 14  1  0
 13 15  1  0
 13 16  1  0
 16 17  1  0
 17 18  2  0
 18 19  1  0
 18 20  1  0
 20 21  1  0
 20 22  2  0
 22 23  1  0
 22 24  1  0
 24 25  1  0
 24 26  2  0
 26 27  1  0
  2 28  1  0
 28 29  2  0
 29 30  1  0
 29 31  1  0
 31 32  2  0
 32 33  1  0
 32 34  1  0
 34 35  1  0
 34 36  2  0
 36 37  1  0
 26 17  1  0
 36 28  1  0
M  CHG  1   4  -1
M  END
>  <UniqueID>  (26) 
14

>  <SMILES>  (26) 
O=C(CCCOc1ccc(Cl)cc1Cl)[N-]/N=C\c1cccnc1F

>  <Energy>  (26) 
38.643898467999904

>  <Genealogy>  (26) 
O=C(CCCOc1ccc(Cl)cc1Cl)[N-]N=Cc1cccnc1F (protonated)
O=C(CCCOc1ccc(Cl)cc1Cl)[N-]/N=C\c1cccnc1F (cis-trans isomerization)
O=C(CCCOc1ccc(Cl)cc1Cl)[N-]/N=C\c1cccnc1F (3D coordinates assigned)
O=C(CCCOc1ccc(Cl)cc1Cl)[N-]/N=C\c1cccnc1F (optimized conformer: 38.643898467999904 kcal/mol)

>  <smiles>  (26) 
O=C(CCCOc1ccc(Cl)cc1Cl)NN=Cc1cccnc1F

>  <score_type>  (26) 
oracle

>  <origin>  (26) 
autodockgpu

>  <m_score__min__energy>  (26) 
-6.8499999999999996

>  <m_primary>  (26) 
energy

>  <meeko>  (26) 
{"free_energy": -6.44, "intermolecular_energy": -9.13, "internal_energy": -0.68, "cluster_size": 4, "cluster_id": 2, "rank_in_cluster": 1}

>  <energy>  (26) 
-6.39

>  <cluster_rmsd>  (26) 
0.73

>  <rmsd>  (26) 
272.81

>  <cluster>  (26) 
1

$$$$
AMYMGDKGSBDGMC-OUKHWZIZNA-M
     RDKit          3D

 37 38  0  0  0  0  0  0  0  0999 V2000
  140.6427   67.2262  227.1301 H   0  0  0  0  0  0  0  0  0  0  0  0
  140.2640   67.9900  226.4350 C   0  0  0  0  0  0  0  0  0  0  0  0
  139.6180   67.5960  225.3750 N   0  0  0  0  0  0  0  0  0  0  0  0
  138.3840   68.1400  224.9830 N   0  0  0  0  0  0  0  0  0  0  0  0
  138.3170   69.3870  224.2890 C   0  0  0  0  0  0  0  0  0  0  0  0
  138.2180   70.4640  224.9400 O   0  0  0  0  0  0  0  0  0  0  0  0
  138.3110   69.4170  222.7860 C   0  0  0  0  0  0  0  0  0  0  0  0
  138.2603   68.3864  222.4048 H   0  0  0  0  0  0  0  0  0  0  0  0
  137.4371   69.9933  222.4480 H   0  0  0  0  0  0  0  0  0  0  0  0
  139.5820   70.0900  222.2500 C   0  0  0  0  0  0  0  0  0  0  0  0
  140.4611   69.5907  222.6834 H   0  0  0  0  0  0  0  0  0  0  0  0
  139.5837   70.0022  221.1535 H   0  0  0  0  0  0  0  0  0  0  0  0
  139.6240   71.5770  222.6140 C   0  0  0  0  0  0  0  0  0  0  0  0
  138.6090   71.9159  222.8687 H   0  0  0  0  0  0  0  0  0  0  0  0
  140.2969   71.7134  223.4734 H   0  0  0  0  0  0  0  0  0  0  0  0
  140.1150   72.3480  221.5170 O   0  0  0  0  0  0  0  0  0  0  0  0
  141.4740   72.5940  221.2370 C   0  0  0  0  0  0  0  0  0  0  0  0
  142.4190   71.5580  221.1010 C   0  0  0  0  0  0  0  0  0  0  0  0
  142.1038   70.5108  221.2197 H   0  0  0  0  0  0  0  0  0  0  0  0
  143.7600   71.8550  220.8150 C   0  0  0  0  0  0  0  0  0  0  0  0
  144.4906   71.0399  220.7069 H   0  0  0  0  0  0  0  0  0  0  0  0
  144.1710   73.1820  220.6670 C   0  0  0  0  0  0  0  0  0  0  0  0
  145.8510   73.5530  220.2980 Cl  0  0  0  0  0  0  0  0  0  0  0  0
  143.2430   74.2150  220.8150 C   0  0  0  0  0  0  0  0  0  0  0  0
  143.5657   75.2606  220.7029 H   0  0  0  0  0  0  0  0  0  0  0  0
  141.9010   73.9260  221.1060 C   0  0  0  0  0  0  0  0  0  0  0  0
  140.7600   75.2500  221.2850 Cl  0  0  0  0  0  0  0  0  0  0  0  0
  140.5140   69.4140  226.7510 C   0  0  0  0  0  0  0  0  0  0  0  0
  140.1270   69.9320  227.9980 C   0  0  0  0  0  0  0  0  0  0  0  0
  139.4900   69.1540  228.9070 F   0  0  0  0  0  0  0  0  0  0  0  0
  140.3910   71.2310  228.3120 N   0  0  0  0  0  0  0  0  0  0  0  0
  141.0330   72.0570  227.4490 C   0  0  0  0  0  0  0  0  0  0  0  0
  141.2214   73.1042  227.7282 H   0  0  0  0  0  0  0  0  0  0  0  0
  141.4550   71.5800  226.2070 C   0  0  0  0  0  0  0  0  0  0  0  0
  141.9888   72.2432  225.5105 H   0  0  0  0  0  0  0  0  0  0  0  0
  141.1940   70.2540  225.8560 C   0  0  0  0  0  0  0  0  0  0  0  0
  141.5210   69.8683  224.8791 H   0  0  0  0  0  0  0  0  0  0  0  0
  1  2  1  0
  2  3  2  0
  3  4  1  0
  4  5  1  0
  5  6  2  0
  5  7  1  0
  7  8  1  0
  7  9  1  0
  7 10  1  0
 10 11  1  0
 10 12  1  0
 10 13  1  0
 13 14  1  0
 13 15  1  0
 13 16  1  0
 16 17  1  0
 17 18  2  0
 18 19  1  0
 18 20  1  0
 20 21  1  0
 20 22  2  0
 22 23  1  0
 22 24  1  0
 24 25  1  0
 24 26  2  0
 26 27  1  0
  2 28  1  0
 28 29  2  0
 29 30  1  0
 29 31  1  0
 31 32  2  0
 32 33  1  0
 32 34  1  0
 34 35  1  0
 34 36  2  0
 36 37  1  0
 26 17  1  0
 36 28  1  0
M  CHG  1   4  -1
M  END
>  <UniqueID>  (27) 
14

>  <SMILES>  (27) 
O=C(CCCOc1ccc(Cl)cc1Cl)[N-]/N=C\c1cccnc1F

>  <Energy>  (27) 
38.643898467999904

>  <Genealogy>  (27) 
O=C(CCCOc1ccc(Cl)cc1Cl)[N-]N=Cc1cccnc1F (protonated)
O=C(CCCOc1ccc(Cl)cc1Cl)[N-]/N=C\c1cccnc1F (cis-trans isomerization)
O=C(CCCOc1ccc(Cl)cc1Cl)[N-]/N=C\c1cccnc1F (3D coordinates assigned)
O=C(CCCOc1ccc(Cl)cc1Cl)[N-]/N=C\c1cccnc1F (optimized conformer: 38.643898467999904 kcal/mol)

>  <smiles>  (27) 
O=C(CCCOc1ccc(Cl)cc1Cl)NN=Cc1cccnc1F

>  <score_type>  (27) 
oracle

>  <origin>  (27) 
autodockgpu

>  <m_score__min__energy>  (27) 
-6.8499999999999996

>  <m_primary>  (27) 
energy

>  <meeko>  (27) 
{"free_energy": -5.88, "intermolecular_energy": -8.57, "internal_energy": -1.07, "cluster_size": 12, "cluster_id": 1, "rank_in_cluster": 12}

>  <energy>  (27) 
-6.34

>  <cluster_rmsd>  (27) 
1.19

>  <rmsd>  (27) 
272.75

>  <cluster>  (27) 
1

$$$$
AMYMGDKGSBDGMC-OUKHWZIZNA-M
     RDKit          3D

 37 38  0  0  0  0  0  0  0  0999 V2000
  140.7833   67.2628  227.0240 H   0  0  0  0  0  0  0  0  0  0  0  0
  140.1420   68.0230  226.5540 C   0  0  0  0  0  0  0  0  0  0  0  0
  139.1750   67.6230  225.7780 N   0  0  0  0  0  0  0  0  0  0  0  0
  138.4820   68.4840  224.9120 N   0  0  0  0  0  0  0  0  0  0  0  0
  138.8120   68.5500  223.5220 C   0  0  0  0  0  0  0  0  0  0  0  0
  138.5240   67.5840  222.7620 O   0  0  0  0  0  0  0  0  0  0  0  0
  139.5460   69.7410  222.9740 C   0  0  0  0  0  0  0  0  0  0  0  0
  140.5852   69.7213  223.3342 H   0  0  0  0  0  0  0  0  0  0  0  0
  139.5207   69.6958  221.8752 H   0  0  0  0  0  0  0  0  0  0  0  0
  138.8810   71.0470  223.4280 C   0  0  0  0  0  0  0  0  0  0  0  0
  137.8215   70.8509  223.6496 H   0  0  0  0  0  0  0  0  0  0  0  0
  139.4066   71.4098  224.3236 H   0  0  0  0  0  0  0  0  0  0  0  0
  138.9720   72.1260  222.3460 C   0  0  0  0  0  0  0  0  0  0  0  0
  139.3007   71.6655  221.4026 H   0  0  0  0  0  0  0  0  0  0  0  0
  137.9810   72.5862  222.2190 H   0  0  0  0  0  0  0  0  0  0  0  0
  139.9060   73.1390  222.7250 O   0  0  0  0  0  0  0  0  0  0  0  0
  140.7350   73.8560  221.8410 C   0  0  0  0  0  0  0  0  0  0  0  0
  141.8530   73.2740  221.2110 C   0  0  0  0  0  0  0  0  0  0  0  0
  142.1068   72.2220  221.4082 H   0  0  0  0  0  0  0  0  0  0  0  0
  142.6440   74.0310  220.3330 C   0  0  0  0  0  0  0  0  0  0  0  0
  143.5134   73.5684  219.8430 H   0  0  0  0  0  0  0  0  0  0  0  0
  142.3330   75.3690  220.0780 C   0  0  0  0  0  0  0  0  0  0  0  0
  143.3190   76.3120  218.9690 Cl  0  0  0  0  0  0  0  0  0  0  0  0
  141.2340   75.9560  220.7110 C   0  0  0  0  0  0  0  0  0  0  0  0
  140.9894   77.0105  220.5158 H   0  0  0  0  0  0  0  0  0  0  0  0
  140.4410   75.2080  221.5940 C   0  0  0  0  0  0  0  0  0  0  0  0
  139.0680   75.9780  222.3720 Cl  0  0  0  0  0  0  0  0  0  0  0  0
  140.4210   69.4500  226.8350 C   0  0  0  0  0  0  0  0  0  0  0  0
  140.0130   70.0150  228.0540 C   0  0  0  0  0  0  0  0  0  0  0  0
  139.3310   69.2810  228.9670 F   0  0  0  0  0  0  0  0  0  0  0  0
  140.3030   71.3150  228.3370 N   0  0  0  0  0  0  0  0  0  0  0  0
  140.9910   72.0980  227.4680 C   0  0  0  0  0  0  0  0  0  0  0  0
  141.1996   73.1479  227.7213 H   0  0  0  0  0  0  0  0  0  0  0  0
  141.4340   71.5730  226.2540 C   0  0  0  0  0  0  0  0  0  0  0  0
  142.0041   72.2009  225.5535 H   0  0  0  0  0  0  0  0  0  0  0  0
  141.1480   70.2440  225.9350 C   0  0  0  0  0  0  0  0  0  0  0  0
  141.4920   69.8203  224.9799 H   0  0  0  0  0  0  0  0  0  0  0  0
  1  2  1  0
  2  3  2  0
  3  4  1  0
  4  5  1  0
  5  6  2  0
  5  7  1  0
  7  8  1  0
  7  9  1  0
  7 10  1  0
 10 11  1  0
 10 12  1  0
 10 13  1  0
 13 14  1  0
 13 15  1  0
 13 16  1  0
 16 17  1  0
 17 18  2  0
 18 19  1  0
 18 20  1  0
 20 21  1  0
 20 22  2  0
 22 23  1  0
 22 24  1  0
 24 25  1  0
 24 26  2  0
 26 27  1  0
  2 28  1  0
 28 29  2  0
 29 30  1  0
 29 31  1  0
 31 32  2  0
 32 33  1  0
 32 34  1  0
 34 35  1  0
 34 36  2  0
 36 37  1  0
 26 17  1  0
 36 28  1  0
M  CHG  1   4  -1
M  END
>  <UniqueID>  (28) 
14

>  <SMILES>  (28) 
O=C(CCCOc1ccc(Cl)cc1Cl)[N-]/N=C\c1cccnc1F

>  <Energy>  (28) 
38.643898467999904

>  <Genealogy>  (28) 
O=C(CCCOc1ccc(Cl)cc1Cl)[N-]N=Cc1cccnc1F (protonated)
O=C(CCCOc1ccc(Cl)cc1Cl)[N-]/N=C\c1cccnc1F (cis-trans isomerization)
O=C(CCCOc1ccc(Cl)cc1Cl)[N-]/N=C\c1cccnc1F (3D coordinates assigned)
O=C(CCCOc1ccc(Cl)cc1Cl)[N-]/N=C\c1cccnc1F (optimized conformer: 38.643898467999904 kcal/mol)

>  <smiles>  (28) 
O=C(CCCOc1ccc(Cl)cc1Cl)NN=Cc1cccnc1F

>  <score_type>  (28) 
oracle

>  <origin>  (28) 
autodockgpu

>  <m_score__min__energy>  (28) 
-6.8499999999999996

>  <m_primary>  (28) 
energy

>  <meeko>  (28) 
{"free_energy": -6.39, "intermolecular_energy": -9.08, "internal_energy": -0.84, "cluster_size": 12, "cluster_id": 1, "rank_in_cluster": 6}

>  <energy>  (28) 
-6.31

>  <cluster_rmsd>  (28) 
1.2

>  <rmsd>  (28) 
272.81

>  <cluster>  (28) 
1

$$$$
AMYMGDKGSBDGMC-OUKHWZIZNA-M
     RDKit          3D

 37 38  0  0  0  0  0  0  0  0999 V2000
  140.0953   67.4187  227.6341 H   0  0  0  0  0  0  0  0  0  0  0  0
  139.8660   68.1030  226.8040 C   0  0  0  0  0  0  0  0  0  0  0  0
  139.2540   67.6240  225.7580 N   0  0  0  0  0  0  0  0  0  0  0  0
  138.5640   68.4310  224.8390 N   0  0  0  0  0  0  0  0  0  0  0  0
  138.7890   68.3010  223.4330 C   0  0  0  0  0  0  0  0  0  0  0  0
  138.7120   67.1660  222.8870 O   0  0  0  0  0  0  0  0  0  0  0  0
  139.1690   69.5020  222.6140 C   0  0  0  0  0  0  0  0  0  0  0  0
  140.2104   69.3938  222.2767 H   0  0  0  0  0  0  0  0  0  0  0  0
  138.4918   69.5683  221.7497 H   0  0  0  0  0  0  0  0  0  0  0  0
  139.0390   70.7880  223.4410 C   0  0  0  0  0  0  0  0  0  0  0  0
  138.2482   70.6514  224.1933 H   0  0  0  0  0  0  0  0  0  0  0  0
  140.0067   70.9884  223.9241 H   0  0  0  0  0  0  0  0  0  0  0  0
  138.6840   71.9870  222.5570 C   0  0  0  0  0  0  0  0  0  0  0  0
  138.6218   71.6580  221.5092 H   0  0  0  0  0  0  0  0  0  0  0  0
  137.7170   72.3960  222.8850 H   0  0  0  0  0  0  0  0  0  0  0  0
  139.6780   73.0060  222.6710 O   0  0  0  0  0  0  0  0  0  0  0  0
  140.8720   73.0680  221.9250 C   0  0  0  0  0  0  0  0  0  0  0  0
  141.6310   71.9230  221.6130 C   0  0  0  0  0  0  0  0  0  0  0  0
  141.2974   70.9339  221.9601 H   0  0  0  0  0  0  0  0  0  0  0  0
  142.8100   72.0380  220.8620 C   0  0  0  0  0  0  0  0  0  0  0  0
  143.3955   71.1386  220.6207 H   0  0  0  0  0  0  0  0  0  0  0  0
  143.2440   73.2900  220.4190 C   0  0  0  0  0  0  0  0  0  0  0  0
  144.7170   73.4310  219.4680 Cl  0  0  0  0  0  0  0  0  0  0  0  0
  142.5050   74.4310  220.7370 C   0  0  0  0  0  0  0  0  0  0  0  0
  142.8479   75.4180  220.3931 H   0  0  0  0  0  0  0  0  0  0  0  0
  141.3270   74.3260  221.4930 C   0  0  0  0  0  0  0  0  0  0  0  0
  140.4220   75.7820  221.8750 Cl  0  0  0  0  0  0  0  0  0  0  0  0
  140.2680   69.5220  226.9310 C   0  0  0  0  0  0  0  0  0  0  0  0
  139.9260   70.2450  228.0850 C   0  0  0  0  0  0  0  0  0  0  0  0
  139.1960   69.6730  229.0740 F   0  0  0  0  0  0  0  0  0  0  0  0
  140.3290   71.5390  228.2270 N   0  0  0  0  0  0  0  0  0  0  0  0
  141.0690   72.1640  227.2770 C   0  0  0  0  0  0  0  0  0  0  0  0
  141.3688   73.2132  227.4159 H   0  0  0  0  0  0  0  0  0  0  0  0
  141.4500   71.4770  226.1240 C   0  0  0  0  0  0  0  0  0  0  0  0
  142.0626   71.9759  225.3586 H   0  0  0  0  0  0  0  0  0  0  0  0
  141.0480   70.1520  225.9490 C   0  0  0  0  0  0  0  0  0  0  0  0
  141.3421   69.6023  225.0427 H   0  0  0  0  0  0  0  0  0  0  0  0
  1  2  1  0
  2  3  2  0
  3  4  1  0
  4  5  1  0
  5  6  2  0
  5  7  1  0
  7  8  1  0
  7  9  1  0
  7 10  1  0
 10 11  1  0
 10 12  1  0
 10 13  1  0
 13 14  1  0
 13 15  1  0
 13 16  1  0
 16 17  1  0
 17 18  2  0
 18 19  1  0
 18 20  1  0
 20 21  1  0
 20 22  2  0
 22 23  1  0
 22 24  1  0
 24 25  1  0
 24 26  2  0
 26 27  1  0
  2 28  1  0
 28 29  2  0
 29 30  1  0
 29 31  1  0
 31 32  2  0
 32 33  1  0
 32 34  1  0
 34 35  1  0
 34 36  2  0
 36 37  1  0
 26 17  1  0
 36 28  1  0
M  CHG  1   4  -1
M  END
>  <UniqueID>  (29) 
14

>  <SMILES>  (29) 
O=C(CCCOc1ccc(Cl)cc1Cl)[N-]/N=C\c1cccnc1F

>  <Energy>  (29) 
38.643898467999904

>  <Genealogy>  (29) 
O=C(CCCOc1ccc(Cl)cc1Cl)[N-]N=Cc1cccnc1F (protonated)
O=C(CCCOc1ccc(Cl)cc1Cl)[N-]/N=C\c1cccnc1F (cis-trans isomerization)
O=C(CCCOc1ccc(Cl)cc1Cl)[N-]/N=C\c1cccnc1F (3D coordinates assigned)
O=C(CCCOc1ccc(Cl)cc1Cl)[N-]/N=C\c1cccnc1F (optimized conformer: 38.643898467999904 kcal/mol)

>  <smiles>  (29) 
O=C(CCCOc1ccc(Cl)cc1Cl)NN=Cc1cccnc1F

>  <score_type>  (29) 
oracle

>  <origin>  (29) 
autodockgpu

>  <m_score__min__energy>  (29) 
-6.8499999999999996

>  <m_primary>  (29) 
energy

>  <meeko>  (29) 
{"free_energy": -6.31, "intermolecular_energy": -8.99, "internal_energy": -0.98, "cluster_size": 12, "cluster_id": 1, "rank_in_cluster": 8}

>  <energy>  (29) 
-6.31

>  <cluster_rmsd>  (29) 
1.26

>  <rmsd>  (29) 
272.79

>  <cluster>  (29) 
1

$$$$
AMYMGDKGSBDGMC-OUKHWZIZNA-M
     RDKit          3D

 37 38  0  0  0  0  0  0  0  0999 V2000
  140.9757   67.1006  227.0623 H   0  0  0  0  0  0  0  0  0  0  0  0
  140.2640   67.8270  226.6430 C   0  0  0  0  0  0  0  0  0  0  0  0
  139.2380   67.3750  225.9800 N   0  0  0  0  0  0  0  0  0  0  0  0
  138.9450   67.7670  224.6630 N   0  0  0  0  0  0  0  0  0  0  0  0
  138.2090   68.9650  224.4000 C   0  0  0  0  0  0  0  0  0  0  0  0
  137.6730   69.5950  225.3530 O   0  0  0  0  0  0  0  0  0  0  0  0
  138.0270   69.4450  222.9880 C   0  0  0  0  0  0  0  0  0  0  0  0
  138.8675   69.0883  222.3745 H   0  0  0  0  0  0  0  0  0  0  0  0
  137.0761   69.0501  222.6008 H   0  0  0  0  0  0  0  0  0  0  0  0
  137.9810   70.9790  222.9360 C   0  0  0  0  0  0  0  0  0  0  0  0
  137.3434   71.2896  222.0952 H   0  0  0  0  0  0  0  0  0  0  0  0
  137.5748   71.3457  223.8902 H   0  0  0  0  0  0  0  0  0  0  0  0
  139.3800   71.5740  222.7470 C   0  0  0  0  0  0  0  0  0  0  0  0
  139.6933   72.0662  223.6795 H   0  0  0  0  0  0  0  0  0  0  0  0
  140.0800   70.7645  222.4925 H   0  0  0  0  0  0  0  0  0  0  0  0
  139.3760   72.5320  221.6880 O   0  0  0  0  0  0  0  0  0  0  0  0
  139.7420   73.8870  221.8120 C   0  0  0  0  0  0  0  0  0  0  0  0
  138.8480   74.8730  222.2750 C   0  0  0  0  0  0  0  0  0  0  0  0
  137.8199   74.5946  222.5498 H   0  0  0  0  0  0  0  0  0  0  0  0
  139.2640   76.2090  222.3870 C   0  0  0  0  0  0  0  0  0  0  0  0
  138.5613   76.9725  222.7520 H   0  0  0  0  0  0  0  0  0  0  0  0
  140.5660   76.5730  222.0370 C   0  0  0  0  0  0  0  0  0  0  0  0
  141.0890   78.2460  222.1890 Cl  0  0  0  0  0  0  0  0  0  0  0  0
  141.4530   75.6030  221.5650 C   0  0  0  0  0  0  0  0  0  0  0  0
  142.4780   75.8885  221.2859 H   0  0  0  0  0  0  0  0  0  0  0  0
  141.0440   74.2670  221.4450 C   0  0  0  0  0  0  0  0  0  0  0  0
  142.1860   73.0730  220.8460 Cl  0  0  0  0  0  0  0  0  0  0  0  0
  140.5210   69.2680  226.8610 C   0  0  0  0  0  0  0  0  0  0  0  0
  140.1700   69.8650  228.0820 C   0  0  0  0  0  0  0  0  0  0  0  0
  139.5610   69.1460  229.0570 F   0  0  0  0  0  0  0  0  0  0  0  0
  140.4410   71.1810  228.3040 N   0  0  0  0  0  0  0  0  0  0  0  0
  141.0570   71.9500  227.3720 C   0  0  0  0  0  0  0  0  0  0  0  0
  141.2524   73.0127  227.5781 H   0  0  0  0  0  0  0  0  0  0  0  0
  141.4430   71.3940  226.1520 C   0  0  0  0  0  0  0  0  0  0  0  0
  141.9554   72.0110  225.3992 H   0  0  0  0  0  0  0  0  0  0  0  0
  141.1740   70.0490  225.8940 C   0  0  0  0  0  0  0  0  0  0  0  0
  141.4731   69.6015  224.9347 H   0  0  0  0  0  0  0  0  0  0  0  0
  1  2  1  0
  2  3  2  0
  3  4  1  0
  4  5  1  0
  5  6  2  0
  5  7  1  0
  7  8  1  0
  7  9  1  0
  7 10  1  0
 10 11  1  0
 10 12  1  0
 10 13  1  0
 13 14  1  0
 13 15  1  0
 13 16  1  0
 16 17  1  0
 17 18  2  0
 18 19  1  0
 18 20  1  0
 20 21  1  0
 20 22  2  0
 22 23  1  0
 22 24  1  0
 24 25  1  0
 24 26  2  0
 26 27  1  0
  2 28  1  0
 28 29  2  0
 29 30  1  0
 29 31  1  0
 31 32  2  0
 32 33  1  0
 32 34  1  0
 34 35  1  0
 34 36  2  0
 36 37  1  0
 26 17  1  0
 36 28  1  0
M  CHG  1   4  -1
M  END
>  <UniqueID>  (30) 
14

>  <SMILES>  (30) 
O=C(CCCOc1ccc(Cl)cc1Cl)[N-]/N=C\c1cccnc1F

>  <Energy>  (30) 
38.643898467999904

>  <Genealogy>  (30) 
O=C(CCCOc1ccc(Cl)cc1Cl)[N-]N=Cc1cccnc1F (protonated)
O=C(CCCOc1ccc(Cl)cc1Cl)[N-]/N=C\c1cccnc1F (cis-trans isomerization)
O=C(CCCOc1ccc(Cl)cc1Cl)[N-]/N=C\c1cccnc1F (3D coordinates assigned)
O=C(CCCOc1ccc(Cl)cc1Cl)[N-]/N=C\c1cccnc1F (optimized conformer: 38.643898467999904 kcal/mol)

>  <smiles>  (30) 
O=C(CCCOc1ccc(Cl)cc1Cl)NN=Cc1cccnc1F

>  <score_type>  (30) 
oracle

>  <origin>  (30) 
autodockgpu

>  <m_score__min__energy>  (30) 
-6.8499999999999996

>  <m_primary>  (30) 
energy

>  <meeko>  (30) 
{"free_energy": -6.15, "intermolecular_energy": -8.84, "internal_energy": -0.92, "cluster_size": 12, "cluster_id": 1, "rank_in_cluster": 11}

>  <energy>  (30) 
-6.29

>  <cluster_rmsd>  (30) 
1.49

>  <rmsd>  (30) 
272.86

>  <cluster>  (30) 
1

$$$$
AMYMGDKGSBDGMC-OUKHWZIZNA-M
     RDKit          3D

 37 38  0  0  0  0  0  0  0  0999 V2000
  140.0197   70.2834  223.3928 H   0  0  0  0  0  0  0  0  0  0  0  0
  140.3130   71.1440  224.0120 C   0  0  0  0  0  0  0  0  0  0  0  0
  140.6250   72.2580  223.4140 N   0  0  0  0  0  0  0  0  0  0  0  0
  139.7100   72.9980  222.6470 N   0  0  0  0  0  0  0  0  0  0  0  0
  140.1610   73.9840  221.7150 C   0  0  0  0  0  0  0  0  0  0  0  0
  141.1150   74.7500  222.0230 O   0  0  0  0  0  0  0  0  0  0  0  0
  139.4680   74.1450  220.3910 C   0  0  0  0  0  0  0  0  0  0  0  0
  140.1850   74.5352  219.6537 H   0  0  0  0  0  0  0  0  0  0  0  0
  139.0858   73.1643  220.0714 H   0  0  0  0  0  0  0  0  0  0  0  0
  138.2870   75.1190  220.5090 C   0  0  0  0  0  0  0  0  0  0  0  0
  138.2467   75.7440  219.6047 H   0  0  0  0  0  0  0  0  0  0  0  0
  137.3633   74.5318  220.6188 H   0  0  0  0  0  0  0  0  0  0  0  0
  138.4310   76.0250  221.7350 C   0  0  0  0  0  0  0  0  0  0  0  0
  137.4826   76.0334  222.2922 H   0  0  0  0  0  0  0  0  0  0  0  0
  139.2409   75.6374  222.3705 H   0  0  0  0  0  0  0  0  0  0  0  0
  138.7540   77.3580  221.3370 O   0  0  0  0  0  0  0  0  0  0  0  0
  139.7220   78.1800  221.9480 C   0  0  0  0  0  0  0  0  0  0  0  0
  139.4340   78.9860  223.0670 C   0  0  0  0  0  0  0  0  0  0  0  0
  138.4192   78.9906  223.4914 H   0  0  0  0  0  0  0  0  0  0  0  0
  140.4350   79.7830  223.6430 C   0  0  0  0  0  0  0  0  0  0  0  0
  140.2024   80.4076  224.5181 H   0  0  0  0  0  0  0  0  0  0  0  0
  141.7260   79.7860  223.1090 C   0  0  0  0  0  0  0  0  0  0  0  0
  142.9830   80.7770  223.8390 Cl  0  0  0  0  0  0  0  0  0  0  0  0
  142.0160   79.0000  221.9920 C   0  0  0  0  0  0  0  0  0  0  0  0
  143.0314   79.0039  221.5691 H   0  0  0  0  0  0  0  0  0  0  0  0
  141.0190   78.2050  221.4060 C   0  0  0  0  0  0  0  0  0  0  0  0
  141.4170   77.2290  220.0010 Cl  0  0  0  0  0  0  0  0  0  0  0  0
  140.3330   70.9770  225.4830 C   0  0  0  0  0  0  0  0  0  0  0  0
  139.6980   69.8720  226.0700 C   0  0  0  0  0  0  0  0  0  0  0  0
  139.0300   68.9690  225.3110 F   0  0  0  0  0  0  0  0  0  0  0  0
  139.7480   69.6900  227.4190 N   0  0  0  0  0  0  0  0  0  0  0  0
  140.4080   70.5530  228.2320 C   0  0  0  0  0  0  0  0  0  0  0  0
  140.4206   70.3842  229.3189 H   0  0  0  0  0  0  0  0  0  0  0  0
  141.0710   71.6550  227.6890 C   0  0  0  0  0  0  0  0  0  0  0  0
  141.6192   72.3494  228.3427 H   0  0  0  0  0  0  0  0  0  0  0  0
  141.0330   71.8690  226.3100 C   0  0  0  0  0  0  0  0  0  0  0  0
  141.5508   72.7352  225.8724 H   0  0  0  0  0  0  0  0  0  0  0  0
  1  2  1  0
  2  3  2  0
  3  4  1  0
  4  5  1  0
  5  6  2  0
  5  7  1  0
  7  8  1  0
  7  9  1  0
  7 10  1  0
 10 11  1  0
 10 12  1  0
 10 13  1  0
 13 14  1  0
 13 15  1  0
 13 16  1  0
 16 17  1  0
 17 18  2  0
 18 19  1  0
 18 20  1  0
 20 21  1  0
 20 22  2  0
 22 23  1  0
 22 24  1  0
 24 25  1  0
 24 26  2  0
 26 27  1  0
  2 28  1  0
 28 29  2  0
 29 30  1  0
 29 31  1  0
 31 32  2  0
 32 33  1  0
 32 34  1  0
 34 35  1  0
 34 36  2  0
 36 37  1  0
 26 17  1  0
 36 28  1  0
M  CHG  1   4  -1
M  END
>  <UniqueID>  (31) 
14

>  <SMILES>  (31) 
O=C(CCCOc1ccc(Cl)cc1Cl)[N-]/N=C\c1cccnc1F

>  <Energy>  (31) 
38.643898467999904

>  <Genealogy>  (31) 
O=C(CCCOc1ccc(Cl)cc1Cl)[N-]N=Cc1cccnc1F (protonated)
O=C(CCCOc1ccc(Cl)cc1Cl)[N-]/N=C\c1cccnc1F (cis-trans isomerization)
O=C(CCCOc1ccc(Cl)cc1Cl)[N-]/N=C\c1cccnc1F (3D coordinates assigned)
O=C(CCCOc1ccc(Cl)cc1Cl)[N-]/N=C\c1cccnc1F (optimized conformer: 38.643898467999904 kcal/mol)

>  <smiles>  (31) 
O=C(CCCOc1ccc(Cl)cc1Cl)NN=Cc1cccnc1F

>  <score_type>  (31) 
oracle

>  <origin>  (31) 
autodockgpu

>  <m_score__min__energy>  (31) 
-6.8499999999999996

>  <m_primary>  (31) 
energy

>  <meeko>  (31) 
{"free_energy": -6.04, "intermolecular_energy": -8.72, "internal_energy": -0.82, "cluster_size": 4, "cluster_id": 2, "rank_in_cluster": 4}

>  <energy>  (31) 
-6.15

>  <cluster_rmsd>  (31) 
1.34

>  <rmsd>  (31) 
272.94

>  <cluster>  (31) 
1

$$$$
AMYMGDKGSBDGMC-OUKHWZIZNA-M
     RDKit          3D

 37 38  0  0  0  0  0  0  0  0999 V2000
  140.8537   67.2493  226.9419 H   0  0  0  0  0  0  0  0  0  0  0  0
  140.1910   68.0050  226.4950 C   0  0  0  0  0  0  0  0  0  0  0  0
  139.2270   67.6000  225.7180 N   0  0  0  0  0  0  0  0  0  0  0  0
  138.3770   68.4820  225.0300 N   0  0  0  0  0  0  0  0  0  0  0  0
  138.7740   69.0670  223.7880 C   0  0  0  0  0  0  0  0  0  0  0  0
  138.8430   68.3510  222.7500 O   0  0  0  0  0  0  0  0  0  0  0  0
  139.1610   70.5170  223.7240 C   0  0  0  0  0  0  0  0  0  0  0  0
  138.4969   71.0968  224.3819 H   0  0  0  0  0  0  0  0  0  0  0  0
  140.2066   70.6175  224.0504 H   0  0  0  0  0  0  0  0  0  0  0  0
  139.0400   71.0510  222.2900 C   0  0  0  0  0  0  0  0  0  0  0  0
  139.7502   70.5116  221.6461 H   0  0  0  0  0  0  0  0  0  0  0  0
  138.0063   70.8940  221.9483 H   0  0  0  0  0  0  0  0  0  0  0  0
  139.3470   72.5500  222.2240 C   0  0  0  0  0  0  0  0  0  0  0  0
  138.4029   73.1142  222.2450 H   0  0  0  0  0  0  0  0  0  0  0  0
  139.9714   72.8237  223.0872 H   0  0  0  0  0  0  0  0  0  0  0  0
  140.0550   72.8630  221.0240 O   0  0  0  0  0  0  0  0  0  0  0  0
  141.4560   72.9520  220.9030 C   0  0  0  0  0  0  0  0  0  0  0  0
  142.2870   71.8140  220.8730 C   0  0  0  0  0  0  0  0  0  0  0  0
  141.8439   70.8102  220.9503 H   0  0  0  0  0  0  0  0  0  0  0  0
  143.6770   71.9560  220.7450 C   0  0  0  0  0  0  0  0  0  0  0  0
  144.3186   71.0628  220.7193 H   0  0  0  0  0  0  0  0  0  0  0  0
  144.2500   73.2270  220.6500 C   0  0  0  0  0  0  0  0  0  0  0  0
  145.9920   73.4020  220.4790 Cl  0  0  0  0  0  0  0  0  0  0  0  0
  143.4340   74.3590  220.6940 C   0  0  0  0  0  0  0  0  0  0  0  0
  143.8836   75.3605  220.6241 H   0  0  0  0  0  0  0  0  0  0  0  0
  142.0430   74.2260  220.8270 C   0  0  0  0  0  0  0  0  0  0  0  0
  141.0470   75.6720  220.8780 Cl  0  0  0  0  0  0  0  0  0  0  0  0
  140.4400   69.4300  226.8070 C   0  0  0  0  0  0  0  0  0  0  0  0
  139.9350   69.9840  227.9940 C   0  0  0  0  0  0  0  0  0  0  0  0
  139.1870   69.2410  228.8460 F   0  0  0  0  0  0  0  0  0  0  0  0
  140.1950   71.2840  228.3080 N   0  0  0  0  0  0  0  0  0  0  0  0
  140.9450   72.0770  227.5010 C   0  0  0  0  0  0  0  0  0  0  0  0
  141.1272   73.1262  227.7767 H   0  0  0  0  0  0  0  0  0  0  0  0
  141.4850   71.5620  226.3220 C   0  0  0  0  0  0  0  0  0  0  0  0
  142.1060   72.1971  225.6732 H   0  0  0  0  0  0  0  0  0  0  0  0
  141.2310   70.2340  225.9720 C   0  0  0  0  0  0  0  0  0  0  0  0
  141.6502   69.8190  225.0435 H   0  0  0  0  0  0  0  0  0  0  0  0
  1  2  1  0
  2  3  2  0
  3  4  1  0
  4  5  1  0
  5  6  2  0
  5  7  1  0
  7  8  1  0
  7  9  1  0
  7 10  1  0
 10 11  1  0
 10 12  1  0
 10 13  1  0
 13 14  1  0
 13 15  1  0
 13 16  1  0
 16 17  1  0
 17 18  2  0
 18 19  1  0
 18 20  1  0
 20 21  1  0
 20 22  2  0
 22 23  1  0
 22 24  1  0
 24 25  1  0
 24 26  2  0
 26 27  1  0
  2 28  1  0
 28 29  2  0
 29 30  1  0
 29 31  1  0
 31 32  2  0
 32 33  1  0
 32 34  1  0
 34 35  1  0
 34 36  2  0
 36 37  1  0
 26 17  1  0
 36 28  1  0
M  CHG  1   4  -1
M  END
>  <UniqueID>  (32) 
14

>  <SMILES>  (32) 
O=C(CCCOc1ccc(Cl)cc1Cl)[N-]/N=C\c1cccnc1F

>  <Energy>  (32) 
38.643898467999904

>  <Genealogy>  (32) 
O=C(CCCOc1ccc(Cl)cc1Cl)[N-]N=Cc1cccnc1F (protonated)
O=C(CCCOc1ccc(Cl)cc1Cl)[N-]/N=C\c1cccnc1F (cis-trans isomerization)
O=C(CCCOc1ccc(Cl)cc1Cl)[N-]/N=C\c1cccnc1F (3D coordinates assigned)
O=C(CCCOc1ccc(Cl)cc1Cl)[N-]/N=C\c1cccnc1F (optimized conformer: 38.643898467999904 kcal/mol)

>  <smiles>  (32) 
O=C(CCCOc1ccc(Cl)cc1Cl)NN=Cc1cccnc1F

>  <score_type>  (32) 
oracle

>  <origin>  (32) 
autodockgpu

>  <m_score__min__energy>  (32) 
-6.8499999999999996

>  <m_primary>  (32) 
energy

>  <meeko>  (32) 
{"free_energy": -6.29, "intermolecular_energy": -8.97, "internal_energy": -0.72, "cluster_size": 12, "cluster_id": 1, "rank_in_cluster": 10}

>  <energy>  (32) 
-5.88

>  <cluster_rmsd>  (32) 
1.37

>  <rmsd>  (32) 
272.92

>  <cluster>  (32) 
1

$$$$
AMYMGDKGSBDGMC-OUKHWZIZNA-M
     RDKit          3D

 37 38  0  0  0  0  0  0  0  0999 V2000
  140.1027   67.5229  227.7511 H   0  0  0  0  0  0  0  0  0  0  0  0
  140.1650   68.1730  226.8660 C   0  0  0  0  0  0  0  0  0  0  0  0
  140.0160   67.6330  225.6900 N   0  0  0  0  0  0  0  0  0  0  0  0
  138.8430   67.7660  224.9290 N   0  0  0  0  0  0  0  0  0  0  0  0
  138.4070   69.0470  224.4680 C   0  0  0  0  0  0  0  0  0  0  0  0
  137.4090   69.6010  225.0060 O   0  0  0  0  0  0  0  0  0  0  0  0
  139.1000   69.7120  223.3120 C   0  0  0  0  0  0  0  0  0  0  0  0
  140.0410   69.1822  223.1025 H   0  0  0  0  0  0  0  0  0  0  0  0
  138.4368   69.6758  222.4351 H   0  0  0  0  0  0  0  0  0  0  0  0
  139.4100   71.1800  223.6340 C   0  0  0  0  0  0  0  0  0  0  0  0
  138.8837   71.4627  224.5576 H   0  0  0  0  0  0  0  0  0  0  0  0
  140.4980   71.2853  223.7570 H   0  0  0  0  0  0  0  0  0  0  0  0
  138.9610   72.1070  222.5010 C   0  0  0  0  0  0  0  0  0  0  0  0
  138.9664   71.5489  221.5531 H   0  0  0  0  0  0  0  0  0  0  0  0
  137.9468   72.4717  222.7208 H   0  0  0  0  0  0  0  0  0  0  0  0
  139.8410   73.2270  222.3920 O   0  0  0  0  0  0  0  0  0  0  0  0
  141.0880   73.2250  221.7350 C   0  0  0  0  0  0  0  0  0  0  0  0
  141.8290   72.0460  221.5220 C   0  0  0  0  0  0  0  0  0  0  0  0
  141.4381   71.0817  221.8788 H   0  0  0  0  0  0  0  0  0  0  0  0
  143.0630   72.0960  220.8570 C   0  0  0  0  0  0  0  0  0  0  0  0
  143.6343   71.1704  220.6929 H   0  0  0  0  0  0  0  0  0  0  0  0
  143.5700   73.3160  220.4020 C   0  0  0  0  0  0  0  0  0  0  0  0
  145.1120   73.3760  219.5580 Cl  0  0  0  0  0  0  0  0  0  0  0  0
  142.8470   74.4910  220.6230 C   0  0  0  0  0  0  0  0  0  0  0  0
  143.2462   75.4534  220.2704 H   0  0  0  0  0  0  0  0  0  0  0  0
  141.6150   74.4500  221.2920 C   0  0  0  0  0  0  0  0  0  0  0  0
  140.7320   75.9460  221.5530 Cl  0  0  0  0  0  0  0  0  0  0  0  0
  140.4140   69.6180  227.0710 C   0  0  0  0  0  0  0  0  0  0  0  0
  139.8960   70.2630  228.2040 C   0  0  0  0  0  0  0  0  0  0  0  0
  139.1340   69.5900  229.1010 F   0  0  0  0  0  0  0  0  0  0  0  0
  140.1560   71.5830  228.4210 N   0  0  0  0  0  0  0  0  0  0  0  0
  140.9200   72.3090  227.5660 C   0  0  0  0  0  0  0  0  0  0  0  0
  141.1034   73.3756  227.7629 H   0  0  0  0  0  0  0  0  0  0  0  0
  141.4730   71.7030  226.4370 C   0  0  0  0  0  0  0  0  0  0  0  0
  142.1038   72.2850  225.7489 H   0  0  0  0  0  0  0  0  0  0  0  0
  141.2200   70.3530  226.1870 C   0  0  0  0  0  0  0  0  0  0  0  0
  141.6510   69.8663  225.2997 H   0  0  0  0  0  0  0  0  0  0  0  0
  1  2  1  0
  2  3  2  0
  3  4  1  0
  4  5  1  0
  5  6  2  0
  5  7  1  0
  7  8  1  0
  7  9  1  0
  7 10  1  0
 10 11  1  0
 10 12  1  0
 10 13  1  0
 13 14  1  0
 13 15  1  0
 13 16  1  0
 16 17  1  0
 17 18  2  0
 18 19  1  0
 18 20  1  0
 20 21  1  0
 20 22  2  0
 22 23  1  0
 22 24  1  0
 24 25  1  0
 24 26  2  0
 26 27  1  0
  2 28  1  0
 28 29  2  0
 29 30  1  0
 29 31  1  0
 31 32  2  0
 32 33  1  0
 32 34  1  0
 34 35  1  0
 34 36  2  0
 36 37  1  0
 26 17  1  0
 36 28  1  0
M  CHG  1   4  -1
M  END
>  <UniqueID>  (33) 
14

>  <SMILES>  (33) 
O=C(CCCOc1ccc(Cl)cc1Cl)[N-]/N=C\c1cccnc1F

>  <Energy>  (33) 
38.643898467999904

>  <Genealogy>  (33) 
O=C(CCCOc1ccc(Cl)cc1Cl)[N-]N=Cc1cccnc1F (protonated)
O=C(CCCOc1ccc(Cl)cc1Cl)[N-]/N=C\c1cccnc1F (cis-trans isomerization)
O=C(CCCOc1ccc(Cl)cc1Cl)[N-]/N=C\c1cccnc1F (3D coordinates assigned)
O=C(CCCOc1ccc(Cl)cc1Cl)[N-]/N=C\c1cccnc1F (optimized conformer: 38.643898467999904 kcal/mol)

>  <smiles>  (33) 
O=C(CCCOc1ccc(Cl)cc1Cl)NN=Cc1cccnc1F

>  <score_type>  (33) 
oracle

>  <origin>  (33) 
autodockgpu

>  <m_score__min__energy>  (33) 
-6.8499999999999996

>  <m_primary>  (33) 
energy

>  <meeko>  (33) 
{"free_energy": -6.45, "intermolecular_energy": -9.13, "internal_energy": -1.0, "cluster_size": 12, "cluster_id": 1, "rank_in_cluster": 5}

>  <energy>  (33) 
-6.44

>  <cluster_rmsd>  (33) 
0.0

>  <rmsd>  (33) 
273.52

>  <cluster>  (33) 
2

$$$$
AMYMGDKGSBDGMC-OUKHWZIZNA-M
     RDKit          3D

 37 38  0  0  0  0  0  0  0  0999 V2000
  140.6466   70.3873  223.2259 H   0  0  0  0  0  0  0  0  0  0  0  0
  140.3380   71.2270  223.8660 C   0  0  0  0  0  0  0  0  0  0  0  0
  139.9740   72.3400  223.2940 N   0  0  0  0  0  0  0  0  0  0  0  0
  140.7670   73.0090  222.3480 N   0  0  0  0  0  0  0  0  0  0  0  0
  140.3820   74.2890  221.8390 C   0  0  0  0  0  0  0  0  0  0  0  0
  140.8840   75.3370  222.3300 O   0  0  0  0  0  0  0  0  0  0  0  0
  139.3430   74.3910  220.7590 C   0  0  0  0  0  0  0  0  0  0  0  0
  139.6860   75.1040  219.9948 H   0  0  0  0  0  0  0  0  0  0  0  0
  139.1967   73.3950  220.3155 H   0  0  0  0  0  0  0  0  0  0  0  0
  138.0040   74.8750  221.3340 C   0  0  0  0  0  0  0  0  0  0  0  0
  137.3424   75.1659  220.5048 H   0  0  0  0  0  0  0  0  0  0  0  0
  137.5603   74.0546  221.9172 H   0  0  0  0  0  0  0  0  0  0  0  0
  138.1980   76.0780  222.2630 C   0  0  0  0  0  0  0  0  0  0  0  0
  137.2167   76.4162  222.6273 H   0  0  0  0  0  0  0  0  0  0  0  0
  138.8327   75.7758  223.1091 H   0  0  0  0  0  0  0  0  0  0  0  0
  138.8360   77.1500  221.5660 O   0  0  0  0  0  0  0  0  0  0  0  0
  139.7720   78.0430  222.1250 C   0  0  0  0  0  0  0  0  0  0  0  0
  139.5040   78.7920  223.2870 C   0  0  0  0  0  0  0  0  0  0  0  0
  138.5305   78.6928  223.7895 H   0  0  0  0  0  0  0  0  0  0  0  0
  140.4720   79.6640  223.8070 C   0  0  0  0  0  0  0  0  0  0  0  0
  140.2548   80.2440  224.7161 H   0  0  0  0  0  0  0  0  0  0  0  0
  141.7110   79.7990  223.1750 C   0  0  0  0  0  0  0  0  0  0  0  0
  142.9280   80.8830  223.8340 Cl  0  0  0  0  0  0  0  0  0  0  0  0
  141.9780   79.0700  222.0140 C   0  0  0  0  0  0  0  0  0  0  0  0
  142.9507   79.1785  221.5120 H   0  0  0  0  0  0  0  0  0  0  0  0
  141.0130   78.2000  221.4840 C   0  0  0  0  0  0  0  0  0  0  0  0
  141.3830   77.2990  220.0230 Cl  0  0  0  0  0  0  0  0  0  0  0  0
  140.3570   71.0360  225.3340 C   0  0  0  0  0  0  0  0  0  0  0  0
  139.6950   69.9390  225.9050 C   0  0  0  0  0  0  0  0  0  0  0  0
  139.0010   69.0660  225.1330 F   0  0  0  0  0  0  0  0  0  0  0  0
  139.7440   69.7340  227.2510 N   0  0  0  0  0  0  0  0  0  0  0  0
  140.4290   70.5660  228.0750 C   0  0  0  0  0  0  0  0  0  0  0  0
  140.4398   70.3798  229.1591 H   0  0  0  0  0  0  0  0  0  0  0  0
  141.1200   71.6580  227.5480 C   0  0  0  0  0  0  0  0  0  0  0  0
  141.6885   72.3267  228.2111 H   0  0  0  0  0  0  0  0  0  0  0  0
  141.0840   71.8950  226.1730 C   0  0  0  0  0  0  0  0  0  0  0  0
  141.6244   72.7535  225.7476 H   0  0  0  0  0  0  0  0  0  0  0  0
  1  2  1  0
  2  3  2  0
  3  4  1  0
  4  5  1  0
  5  6  2  0
  5  7  1  0
  7  8  1  0
  7  9  1  0
  7 10  1  0
 10 11  1  0
 10 12  1  0
 10 13  1  0
 13 14  1  0
 13 15  1  0
 13 16  1  0
 16 17  1  0
 17 18  2  0
 18 19  1  0
 18 20  1  0
 20 21  1  0
 20 22  2  0
 22 23  1  0
 22 24  1  0
 24 25  1  0
 24 26  2  0
 26 27  1  0
  2 28  1  0
 28 29  2  0
 29 30  1  0
 29 31  1  0
 31 32  2  0
 32 33  1  0
 32 34  1  0
 34 35  1  0
 34 36  2  0
 36 37  1  0
 26 17  1  0
 36 28  1  0
M  CHG  1   4  -1
M  END
>  <UniqueID>  (34) 
14

>  <SMILES>  (34) 
O=C(CCCOc1ccc(Cl)cc1Cl)[N-]/N=C\c1cccnc1F

>  <Energy>  (34) 
38.643898467999904

>  <Genealogy>  (34) 
O=C(CCCOc1ccc(Cl)cc1Cl)[N-]N=Cc1cccnc1F (protonated)
O=C(CCCOc1ccc(Cl)cc1Cl)[N-]/N=C\c1cccnc1F (cis-trans isomerization)
O=C(CCCOc1ccc(Cl)cc1Cl)[N-]/N=C\c1cccnc1F (3D coordinates assigned)
O=C(CCCOc1ccc(Cl)cc1Cl)[N-]/N=C\c1cccnc1F (optimized conformer: 38.643898467999904 kcal/mol)

>  <smiles>  (34) 
O=C(CCCOc1ccc(Cl)cc1Cl)NN=Cc1cccnc1F

>  <score_type>  (34) 
oracle

>  <origin>  (34) 
autodockgpu

>  <m_score__min__energy>  (34) 
-6.8499999999999996

>  <m_primary>  (34) 
energy

>  <meeko>  (34) 
{"free_energy": -6.11, "intermolecular_energy": -8.79, "internal_energy": -0.76, "cluster_size": 4, "cluster_id": 2, "rank_in_cluster": 3}

>  <energy>  (34) 
-6.42

>  <cluster_rmsd>  (34) 
0.34

>  <rmsd>  (34) 
273.57

>  <cluster>  (34) 
2

$$$$
AMYMGDKGSBDGMC-OUKHWZIZNA-M
     RDKit          3D

 37 38  0  0  0  0  0  0  0  0999 V2000
  141.1762   71.9088  225.4375 H   0  0  0  0  0  0  0  0  0  0  0  0
  140.5220   71.1770  224.9410 C   0  0  0  0  0  0  0  0  0  0  0  0
  140.0200   71.4840  223.7790 N   0  0  0  0  0  0  0  0  0  0  0  0
  140.3760   72.6460  223.0750 N   0  0  0  0  0  0  0  0  0  0  0  0
  140.6660   72.5980  221.6760 C   0  0  0  0  0  0  0  0  0  0  0  0
  141.1130   71.5340  221.1630 O   0  0  0  0  0  0  0  0  0  0  0  0
  140.4910   73.8230  220.8240 C   0  0  0  0  0  0  0  0  0  0  0  0
  140.3962   73.5194  219.7710 H   0  0  0  0  0  0  0  0  0  0  0  0
  139.5855   74.3545  221.1522 H   0  0  0  0  0  0  0  0  0  0  0  0
  141.6950   74.7650  220.9700 C   0  0  0  0  0  0  0  0  0  0  0  0
  141.6898   75.1982  221.9811 H   0  0  0  0  0  0  0  0  0  0  0  0
  142.6125   74.1827  220.7992 H   0  0  0  0  0  0  0  0  0  0  0  0
  141.6460   75.8990  219.9420 C   0  0  0  0  0  0  0  0  0  0  0  0
  142.6639   76.2814  219.7759 H   0  0  0  0  0  0  0  0  0  0  0  0
  141.2295   75.5092  219.0015 H   0  0  0  0  0  0  0  0  0  0  0  0
  140.8150   76.9620  220.4100 O   0  0  0  0  0  0  0  0  0  0  0  0
  141.2050   77.9600  221.3250 C   0  0  0  0  0  0  0  0  0  0  0  0
  141.0880   77.7980  222.7190 C   0  0  0  0  0  0  0  0  0  0  0  0
  140.6736   76.8649  223.1285 H   0  0  0  0  0  0  0  0  0  0  0  0
  141.4970   78.8200  223.5880 C   0  0  0  0  0  0  0  0  0  0  0  0
  141.4050   78.6836  224.6756 H   0  0  0  0  0  0  0  0  0  0  0  0
  142.0210   80.0110  223.0780 C   0  0  0  0  0  0  0  0  0  0  0  0
  142.5430   81.2880  224.1700 Cl  0  0  0  0  0  0  0  0  0  0  0  0
  142.1270   80.1850  221.6970 C   0  0  0  0  0  0  0  0  0  0  0  0
  142.5355   81.1232  221.2934 H   0  0  0  0  0  0  0  0  0  0  0  0
  141.7150   79.1690  220.8210 C   0  0  0  0  0  0  0  0  0  0  0  0
  141.8620   79.4210  219.0880 Cl  0  0  0  0  0  0  0  0  0  0  0  0
  140.2560   69.8920  225.6270 C   0  0  0  0  0  0  0  0  0  0  0  0
  139.4100   68.9430  225.0310 C   0  0  0  0  0  0  0  0  0  0  0  0
  138.7990   69.2010  223.8490 F   0  0  0  0  0  0  0  0  0  0  0  0
  139.1940   67.7420  225.6370 N   0  0  0  0  0  0  0  0  0  0  0  0
  139.7830   67.4210  226.8160 C   0  0  0  0  0  0  0  0  0  0  0  0
  139.5785   66.4476  227.2857 H   0  0  0  0  0  0  0  0  0  0  0  0
  140.6480   68.3250  227.4330 C   0  0  0  0  0  0  0  0  0  0  0  0
  141.1398   68.0622  228.3812 H   0  0  0  0  0  0  0  0  0  0  0  0
  140.8850   69.5660  226.8380 C   0  0  0  0  0  0  0  0  0  0  0  0
  141.5636   70.2866  227.3179 H   0  0  0  0  0  0  0  0  0  0  0  0
  1  2  1  0
  2  3  2  0
  3  4  1  0
  4  5  1  0
  5  6  2  0
  5  7  1  0
  7  8  1  0
  7  9  1  0
  7 10  1  0
 10 11  1  0
 10 12  1  0
 10 13  1  0
 13 14  1  0
 13 15  1  0
 13 16  1  0
 16 17  1  0
 17 18  2  0
 18 19  1  0
 18 20  1  0
 20 21  1  0
 20 22  2  0
 22 23  1  0
 22 24  1  0
 24 25  1  0
 24 26  2  0
 26 27  1  0
  2 28  1  0
 28 29  2  0
 29 30  1  0
 29 31  1  0
 31 32  2  0
 32 33  1  0
 32 34  1  0
 34 35  1  0
 34 36  2  0
 36 37  1  0
 26 17  1  0
 36 28  1  0
M  CHG  1   4  -1
M  END
>  <UniqueID>  (35) 
14

>  <SMILES>  (35) 
O=C(CCCOc1ccc(Cl)cc1Cl)[N-]/N=C\c1cccnc1F

>  <Energy>  (35) 
38.643898467999904

>  <Genealogy>  (35) 
O=C(CCCOc1ccc(Cl)cc1Cl)[N-]N=Cc1cccnc1F (protonated)
O=C(CCCOc1ccc(Cl)cc1Cl)[N-]/N=C\c1cccnc1F (cis-trans isomerization)
O=C(CCCOc1ccc(Cl)cc1Cl)[N-]/N=C\c1cccnc1F (3D coordinates assigned)
O=C(CCCOc1ccc(Cl)cc1Cl)[N-]/N=C\c1cccnc1F (optimized conformer: 38.643898467999904 kcal/mol)

>  <smiles>  (35) 
O=C(CCCOc1ccc(Cl)cc1Cl)NN=Cc1cccnc1F

>  <score_type>  (35) 
oracle

>  <origin>  (35) 
autodockgpu

>  <m_score__min__energy>  (35) 
-6.8499999999999996

>  <m_primary>  (35) 
energy

>  <meeko>  (35) 
{"free_energy": -6.2, "intermolecular_energy": -8.89, "internal_energy": -0.32, "cluster_size": 2, "cluster_id": 3, "rank_in_cluster": 2}

>  <energy>  (35) 
-6.11

>  <cluster_rmsd>  (35) 
1.33

>  <rmsd>  (35) 
273.32

>  <cluster>  (35) 
2

$$$$
AMYMGDKGSBDGMC-OUKHWZIZNA-M
     RDKit          3D

 37 38  0  0  0  0  0  0  0  0999 V2000
  140.6299   67.1429  227.4806 H   0  0  0  0  0  0  0  0  0  0  0  0
  140.0730   67.8550  226.8540 C   0  0  0  0  0  0  0  0  0  0  0  0
  139.1850   67.3860  226.0240 N   0  0  0  0  0  0  0  0  0  0  0  0
  139.1890   67.6830  224.6510 N   0  0  0  0  0  0  0  0  0  0  0  0
  138.4850   68.8190  224.1430 C   0  0  0  0  0  0  0  0  0  0  0  0
  138.1780   69.7660  224.9180 O   0  0  0  0  0  0  0  0  0  0  0  0
  138.0640   68.8650  222.7010 C   0  0  0  0  0  0  0  0  0  0  0  0
  137.4591   69.7678  222.5305 H   0  0  0  0  0  0  0  0  0  0  0  0
  138.9654   68.8835  222.0709 H   0  0  0  0  0  0  0  0  0  0  0  0
  137.2340   67.6270  222.3360 C   0  0  0  0  0  0  0  0  0  0  0  0
  137.5996   67.2196  221.3819 H   0  0  0  0  0  0  0  0  0  0  0  0
  137.3420   66.8875  223.1432 H   0  0  0  0  0  0  0  0  0  0  0  0
  135.7490   67.9720  222.1940 C   0  0  0  0  0  0  0  0  0  0  0  0
  135.6503   69.0085  221.8390 H   0  0  0  0  0  0  0  0  0  0  0  0
  135.2898   67.2794  221.4733 H   0  0  0  0  0  0  0  0  0  0  0  0
  135.0830   67.8400  223.4510 O   0  0  0  0  0  0  0  0  0  0  0  0
  134.7380   68.9050  224.3070 C   0  0  0  0  0  0  0  0  0  0  0  0
  135.0930   70.2410  224.0350 C   0  0  0  0  0  0  0  0  0  0  0  0
  135.6649   70.4817  223.1267 H   0  0  0  0  0  0  0  0  0  0  0  0
  134.7200   71.2660  224.9180 C   0  0  0  0  0  0  0  0  0  0  0  0
  134.9985   72.3070  224.6970 H   0  0  0  0  0  0  0  0  0  0  0  0
  133.9970   70.9710  226.0760 C   0  0  0  0  0  0  0  0  0  0  0  0
  133.5210   72.2590  227.1750 Cl  0  0  0  0  0  0  0  0  0  0  0  0
  133.6540   69.6470  226.3590 C   0  0  0  0  0  0  0  0  0  0  0  0
  133.0875   69.4120  227.2721 H   0  0  0  0  0  0  0  0  0  0  0  0
  134.0280   68.6150  225.4850 C   0  0  0  0  0  0  0  0  0  0  0  0
  133.5800   66.9610  225.8720 Cl  0  0  0  0  0  0  0  0  0  0  0  0
  140.3700   69.2980  226.9960 C   0  0  0  0  0  0  0  0  0  0  0  0
  139.9630   69.9850  228.1510 C   0  0  0  0  0  0  0  0  0  0  0  0
  139.2650   69.3530  229.1260 F   0  0  0  0  0  0  0  0  0  0  0  0
  140.2690   71.3030  228.3070 N   0  0  0  0  0  0  0  0  0  0  0  0
  140.9730   71.9880  227.3710 C   0  0  0  0  0  0  0  0  0  0  0  0
  141.1945   73.0549  227.5215 H   0  0  0  0  0  0  0  0  0  0  0  0
  141.4160   71.3400  226.2180 C   0  0  0  0  0  0  0  0  0  0  0  0
  141.9997   71.8883  225.4639 H   0  0  0  0  0  0  0  0  0  0  0  0
  141.1130   69.9900  226.0280 C   0  0  0  0  0  0  0  0  0  0  0  0
  141.4562   69.4704  225.1212 H   0  0  0  0  0  0  0  0  0  0  0  0
  1  2  1  0
  2  3  2  0
  3  4  1  0
  4  5  1  0
  5  6  2  0
  5  7  1  0
  7  8  1  0
  7  9  1  0
  7 10  1  0
 10 11  1  0
 10 12  1  0
 10 13  1  0
 13 14  1  0
 13 15  1  0
 13 16  1  0
 16 17  1  0
 17 18  2  0
 18 19  1  0
 18 20  1  0
 20 21  1  0
 20 22  2  0
 22 23  1  0
 22 24  1  0
 24 25  1  0
 24 26  2  0
 26 27  1  0
  2 28  1  0
 28 29  2  0
 29 30  1  0
 29 31  1  0
 31 32  2  0
 32 33  1  0
 32 34  1  0
 34 35  1  0
 34 36  2  0
 36 37  1  0
 26 17  1  0
 36 28  1  0
M  CHG  1   4  -1
M  END
>  <UniqueID>  (36) 
14

>  <SMILES>  (36) 
O=C(CCCOc1ccc(Cl)cc1Cl)[N-]/N=C\c1cccnc1F

>  <Energy>  (36) 
38.643898467999904

>  <Genealogy>  (36) 
O=C(CCCOc1ccc(Cl)cc1Cl)[N-]N=Cc1cccnc1F (protonated)
O=C(CCCOc1ccc(Cl)cc1Cl)[N-]/N=C\c1cccnc1F (cis-trans isomerization)
O=C(CCCOc1ccc(Cl)cc1Cl)[N-]/N=C\c1cccnc1F (3D coordinates assigned)
O=C(CCCOc1ccc(Cl)cc1Cl)[N-]/N=C\c1cccnc1F (optimized conformer: 38.643898467999904 kcal/mol)

>  <smiles>  (36) 
O=C(CCCOc1ccc(Cl)cc1Cl)NN=Cc1cccnc1F

>  <score_type>  (36) 
oracle

>  <origin>  (36) 
autodockgpu

>  <m_score__min__energy>  (36) 
-6.8499999999999996

>  <m_primary>  (36) 
energy

>  <meeko>  (36) 
{"free_energy": -6.16, "intermolecular_energy": -8.85, "internal_energy": -1.13, "cluster_size": 1, "cluster_id": 5, "rank_in_cluster": 1}

>  <energy>  (36) 
-6.04

>  <cluster_rmsd>  (36) 
1.35

>  <rmsd>  (36) 
273.27

>  <cluster>  (36) 
2

$$$$
AMYMGDKGSBDGMC-OUKHWZIZNA-M
     RDKit          3D

 37 38  0  0  0  0  0  0  0  0999 V2000
  141.1083   67.2571  226.9681 H   0  0  0  0  0  0  0  0  0  0  0  0
  140.3070   67.9480  226.6670 C   0  0  0  0  0  0  0  0  0  0  0  0
  139.2450   67.4530  226.0980 N   0  0  0  0  0  0  0  0  0  0  0  0
  138.8360   67.8050  224.8010 N   0  0  0  0  0  0  0  0  0  0  0  0
  138.5180   69.1600  224.4740 C   0  0  0  0  0  0  0  0  0  0  0  0
  137.4850   69.6980  224.9620 O   0  0  0  0  0  0  0  0  0  0  0  0
  139.3780   69.9280  223.5100 C   0  0  0  0  0  0  0  0  0  0  0  0
  140.4360   69.7718  223.7672 H   0  0  0  0  0  0  0  0  0  0  0  0
  139.1743   69.5671  222.4911 H   0  0  0  0  0  0  0  0  0  0  0  0
  139.0610   71.4290  223.5730 C   0  0  0  0  0  0  0  0  0  0  0  0
  138.1976   71.6400  222.9249 H   0  0  0  0  0  0  0  0  0  0  0  0
  138.8385   71.6923  224.6176 H   0  0  0  0  0  0  0  0  0  0  0  0
  140.2510   72.2710  223.1070 C   0  0  0  0  0  0  0  0  0  0  0  0
  140.5750   72.9260  223.9292 H   0  0  0  0  0  0  0  0  0  0  0  0
  141.0697   71.5977  222.8132 H   0  0  0  0  0  0  0  0  0  0  0  0
  139.8870   73.0730  221.9830 O   0  0  0  0  0  0  0  0  0  0  0  0
  140.2190   74.4310  221.8070 C   0  0  0  0  0  0  0  0  0  0  0  0
  139.4290   75.4770  222.3230 C   0  0  0  0  0  0  0  0  0  0  0  0
  138.5116   75.2448  222.8837 H   0  0  0  0  0  0  0  0  0  0  0  0
  139.8070   76.8140  222.1250 C   0  0  0  0  0  0  0  0  0  0  0  0
  139.1856   77.6248  222.5330 H   0  0  0  0  0  0  0  0  0  0  0  0
  140.9690   77.1200  221.4120 C   0  0  0  0  0  0  0  0  0  0  0  0
  141.4470   78.7950  221.1750 Cl  0  0  0  0  0  0  0  0  0  0  0  0
  141.7490   76.0880  220.8860 C   0  0  0  0  0  0  0  0  0  0  0  0
  142.6621   76.3264  220.3209 H   0  0  0  0  0  0  0  0  0  0  0  0
  141.3750   74.7490  221.0740 C   0  0  0  0  0  0  0  0  0  0  0  0
  142.3810   73.4760  220.3980 Cl  0  0  0  0  0  0  0  0  0  0  0  0
  140.4900   69.3940  226.9290 C   0  0  0  0  0  0  0  0  0  0  0  0
  139.9420   69.9690  228.0860 C   0  0  0  0  0  0  0  0  0  0  0  0
  139.2130   69.2260  228.9540 F   0  0  0  0  0  0  0  0  0  0  0  0
  140.1420   71.2900  228.3550 N   0  0  0  0  0  0  0  0  0  0  0  0
  140.8700   72.0840  227.5300 C   0  0  0  0  0  0  0  0  0  0  0  0
  141.0030   73.1496  227.7685 H   0  0  0  0  0  0  0  0  0  0  0  0
  141.4500   71.5490  226.3790 C   0  0  0  0  0  0  0  0  0  0  0  0
  142.0528   72.1862  225.7151 H   0  0  0  0  0  0  0  0  0  0  0  0
  141.2600   70.2000  226.0760 C   0  0  0  0  0  0  0  0  0  0  0  0
  141.7127   69.7693  225.1707 H   0  0  0  0  0  0  0  0  0  0  0  0
  1  2  1  0
  2  3  2  0
  3  4  1  0
  4  5  1  0
  5  6  2  0
  5  7  1  0
  7  8  1  0
  7  9  1  0
  7 10  1  0
 10 11  1  0
 10 12  1  0
 10 13  1  0
 13 14  1  0
 13 15  1  0
 13 16  1  0
 16 17  1  0
 17 18  2  0
 18 19  1  0
 18 20  1  0
 20 21  1  0
 20 22  2  0
 22 23  1  0
 22 24  1  0
 24 25  1  0
 24 26  2  0
 26 27  1  0
  2 28  1  0
 28 29  2  0
 29 30  1  0
 29 31  1  0
 31 32  2  0
 32 33  1  0
 32 34  1  0
 34 35  1  0
 34 36  2  0
 36 37  1  0
 26 17  1  0
 36 28  1  0
M  CHG  1   4  -1
M  END
>  <UniqueID>  (37) 
14

>  <SMILES>  (37) 
O=C(CCCOc1ccc(Cl)cc1Cl)[N-]/N=C\c1cccnc1F

>  <Energy>  (37) 
38.643898467999904

>  <Genealogy>  (37) 
O=C(CCCOc1ccc(Cl)cc1Cl)[N-]N=Cc1cccnc1F (protonated)
O=C(CCCOc1ccc(Cl)cc1Cl)[N-]/N=C\c1cccnc1F (cis-trans isomerization)
O=C(CCCOc1ccc(Cl)cc1Cl)[N-]/N=C\c1cccnc1F (3D coordinates assigned)
O=C(CCCOc1ccc(Cl)cc1Cl)[N-]/N=C\c1cccnc1F (optimized conformer: 38.643898467999904 kcal/mol)

>  <smiles>  (37) 
O=C(CCCOc1ccc(Cl)cc1Cl)NN=Cc1cccnc1F

>  <score_type>  (37) 
oracle

>  <origin>  (37) 
autodockgpu

>  <m_score__min__energy>  (37) 
-6.8499999999999996

>  <m_primary>  (37) 
energy

>  <meeko>  (37) 
{"free_energy": -6.46, "intermolecular_energy": -9.15, "internal_energy": -0.78, "cluster_size": 12, "cluster_id": 1, "rank_in_cluster": 4}

>  <energy>  (37) 
-6.4

>  <cluster_rmsd>  (37) 
0.0

>  <rmsd>  (37) 
273.56

>  <cluster>  (37) 
3

$$$$
AMYMGDKGSBDGMC-OUKHWZIZNA-M
     RDKit          3D

 37 38  0  0  0  0  0  0  0  0999 V2000
  140.8429   67.2442  227.3070 H   0  0  0  0  0  0  0  0  0  0  0  0
  140.3230   67.9560  226.6490 C   0  0  0  0  0  0  0  0  0  0  0  0
  139.5760   67.4820  225.6920 N   0  0  0  0  0  0  0  0  0  0  0  0
  138.4380   68.1480  225.2080 N   0  0  0  0  0  0  0  0  0  0  0  0
  138.4950   68.9260  224.0110 C   0  0  0  0  0  0  0  0  0  0  0  0
  138.4500   68.3540  222.8870 O   0  0  0  0  0  0  0  0  0  0  0  0
  138.6630   70.4180  224.0850 C   0  0  0  0  0  0  0  0  0  0  0  0
  137.6731   70.8883  224.1789 H   0  0  0  0  0  0  0  0  0  0  0  0
  139.2859   70.6601  224.9587 H   0  0  0  0  0  0  0  0  0  0  0  0
  139.3560   70.9510  222.8230 C   0  0  0  0  0  0  0  0  0  0  0  0
  139.9264   70.1346  222.3560 H   0  0  0  0  0  0  0  0  0  0  0  0
  138.5835   71.3293  222.1374 H   0  0  0  0  0  0  0  0  0  0  0  0
  140.3120   72.1010  223.1540 C   0  0  0  0  0  0  0  0  0  0  0  0
  140.2954   72.2850  224.2384 H   0  0  0  0  0  0  0  0  0  0  0  0
  141.3268   71.8243  222.8322 H   0  0  0  0  0  0  0  0  0  0  0  0
  139.9180   73.2910  222.4690 O   0  0  0  0  0  0  0  0  0  0  0  0
  140.7430   74.0530  221.6180 C   0  0  0  0  0  0  0  0  0  0  0  0
  141.8570   73.5040  220.9520 C   0  0  0  0  0  0  0  0  0  0  0  0
  142.1111   72.4431  221.0936 H   0  0  0  0  0  0  0  0  0  0  0  0
  142.6430   74.3030  220.1100 C   0  0  0  0  0  0  0  0  0  0  0  0
  143.5096   73.8656  219.5925 H   0  0  0  0  0  0  0  0  0  0  0  0
  142.3310   75.6520  219.9250 C   0  0  0  0  0  0  0  0  0  0  0  0
  143.3110   76.6510  218.8590 Cl  0  0  0  0  0  0  0  0  0  0  0  0
  141.2370   76.2070  220.5920 C   0  0  0  0  0  0  0  0  0  0  0  0
  140.9923   77.2702  220.4511 H   0  0  0  0  0  0  0  0  0  0  0  0
  140.4480   75.4160  221.4410 C   0  0  0  0  0  0  0  0  0  0  0  0
  139.0790   76.1460  222.2650 Cl  0  0  0  0  0  0  0  0  0  0  0  0
  140.5070   69.4040  226.8950 C   0  0  0  0  0  0  0  0  0  0  0  0
  139.9670   69.9900  228.0500 C   0  0  0  0  0  0  0  0  0  0  0  0
  139.2440   69.2560  228.9310 F   0  0  0  0  0  0  0  0  0  0  0  0
  140.1680   71.3140  228.3040 N   0  0  0  0  0  0  0  0  0  0  0  0
  140.8900   72.1000  227.4670 C   0  0  0  0  0  0  0  0  0  0  0  0
  141.0241   73.1679  227.6943 H   0  0  0  0  0  0  0  0  0  0  0  0
  141.4630   71.5540  226.3170 C   0  0  0  0  0  0  0  0  0  0  0  0
  142.0621   72.1845  225.6436 H   0  0  0  0  0  0  0  0  0  0  0  0
  141.2700   70.2020  226.0280 C   0  0  0  0  0  0  0  0  0  0  0  0
  141.7148   69.7629  225.1229 H   0  0  0  0  0  0  0  0  0  0  0  0
  1  2  1  0
  2  3  2  0
  3  4  1  0
  4  5  1  0
  5  6  2  0
  5  7  1  0
  7  8  1  0
  7  9  1  0
  7 10  1  0
 10 11  1  0
 10 12  1  0
 10 13  1  0
 13 14  1  0
 13 15  1  0
 13 16  1  0
 16 17  1  0
 17 18  2  0
 18 19  1  0
 18 20  1  0
 20 21  1  0
 20 22  2  0
 22 23  1  0
 22 24  1  0
 24 25  1  0
 24 26  2  0
 26 27  1  0
  2 28  1  0
 28 29  2  0
 29 30  1  0
 29 31  1  0
 31 32  2  0
 32 33  1  0
 32 34  1  0
 34 35  1  0
 34 36  2  0
 36 37  1  0
 26 17  1  0
 36 28  1  0
M  CHG  1   4  -1
M  END
>  <UniqueID>  (38) 
14

>  <SMILES>  (38) 
O=C(CCCOc1ccc(Cl)cc1Cl)[N-]/N=C\c1cccnc1F

>  <Energy>  (38) 
38.643898467999904

>  <Genealogy>  (38) 
O=C(CCCOc1ccc(Cl)cc1Cl)[N-]N=Cc1cccnc1F (protonated)
O=C(CCCOc1ccc(Cl)cc1Cl)[N-]/N=C\c1cccnc1F (cis-trans isomerization)
O=C(CCCOc1ccc(Cl)cc1Cl)[N-]/N=C\c1cccnc1F (3D coordinates assigned)
O=C(CCCOc1ccc(Cl)cc1Cl)[N-]/N=C\c1cccnc1F (optimized conformer: 38.643898467999904 kcal/mol)

>  <smiles>  (38) 
O=C(CCCOc1ccc(Cl)cc1Cl)NN=Cc1cccnc1F

>  <score_type>  (38) 
oracle

>  <origin>  (38) 
autodockgpu

>  <m_score__min__energy>  (38) 
-6.8499999999999996

>  <m_primary>  (38) 
energy

>  <meeko>  (38) 
{"free_energy": -6.55, "intermolecular_energy": -9.23, "internal_energy": -0.85, "cluster_size": 12, "cluster_id": 1, "rank_in_cluster": 3}

>  <energy>  (38) 
-6.2

>  <cluster_rmsd>  (38) 
1.58

>  <rmsd>  (38) 
273.06

>  <cluster>  (38) 
3

$$$$
AMYMGDKGSBDGMC-OUKHWZIZNA-M
     RDKit          3D

 37 38  0  0  0  0  0  0  0  0999 V2000
  139.9138   70.2275  223.5074 H   0  0  0  0  0  0  0  0  0  0  0  0
  140.2370   71.0960  224.1000 C   0  0  0  0  0  0  0  0  0  0  0  0
  140.5270   72.1990  223.4720 N   0  0  0  0  0  0  0  0  0  0  0  0
  139.9120   72.5790  222.2680 N   0  0  0  0  0  0  0  0  0  0  0  0
  139.7100   73.9590  221.9490 C   0  0  0  0  0  0  0  0  0  0  0  0
  140.6280   74.7950  222.1720 O   0  0  0  0  0  0  0  0  0  0  0  0
  138.3910   74.4230  221.3990 C   0  0  0  0  0  0  0  0  0  0  0  0
  138.5556   74.9018  220.4225 H   0  0  0  0  0  0  0  0  0  0  0  0
  137.7276   73.5523  221.2909 H   0  0  0  0  0  0  0  0  0  0  0  0
  137.7300   75.4310  222.3490 C   0  0  0  0  0  0  0  0  0  0  0  0
  136.7001   75.1051  222.5565 H   0  0  0  0  0  0  0  0  0  0  0  0
  138.3204   75.4718  223.2762 H   0  0  0  0  0  0  0  0  0  0  0  0
  137.6950   76.8350  221.7370 C   0  0  0  0  0  0  0  0  0  0  0  0
  138.4879   76.9193  220.9792 H   0  0  0  0  0  0  0  0  0  0  0  0
  136.7099   76.9971  221.2752 H   0  0  0  0  0  0  0  0  0  0  0  0
  137.9010   77.8260  222.7450 O   0  0  0  0  0  0  0  0  0  0  0  0
  139.1170   78.4930  222.9960 C   0  0  0  0  0  0  0  0  0  0  0  0
  140.3700   77.9170  222.7090 C   0  0  0  0  0  0  0  0  0  0  0  0
  140.4219   76.9072  222.2758 H   0  0  0  0  0  0  0  0  0  0  0  0
  141.5520   78.6250  222.9730 C   0  0  0  0  0  0  0  0  0  0  0  0
  142.5264   78.1686  222.7443 H   0  0  0  0  0  0  0  0  0  0  0  0
  141.4970   79.9070  223.5250 C   0  0  0  0  0  0  0  0  0  0  0  0
  142.9790   80.7990  223.8450 Cl  0  0  0  0  0  0  0  0  0  0  0  0
  140.2580   80.4780  223.8260 C   0  0  0  0  0  0  0  0  0  0  0  0
  140.2122   81.4851  224.2661 H   0  0  0  0  0  0  0  0  0  0  0  0
  139.0720   79.7740  223.5700 C   0  0  0  0  0  0  0  0  0  0  0  0
  137.5310   80.5230  223.9610 Cl  0  0  0  0  0  0  0  0  0  0  0  0
  140.3200   70.9510  225.5710 C   0  0  0  0  0  0  0  0  0  0  0  0
  139.7630   69.8240  226.1960 C   0  0  0  0  0  0  0  0  0  0  0  0
  139.1130   68.8790  225.4740 F   0  0  0  0  0  0  0  0  0  0  0  0
  139.8720   69.6650  227.5440 N   0  0  0  0  0  0  0  0  0  0  0  0
  140.5180   70.5710  228.3200 C   0  0  0  0  0  0  0  0  0  0  0  0
  140.5791   70.4185  229.4077 H   0  0  0  0  0  0  0  0  0  0  0  0
  141.1050   71.6960  227.7400 C   0  0  0  0  0  0  0  0  0  0  0  0
  141.6413   72.4258  228.3643 H   0  0  0  0  0  0  0  0  0  0  0  0
  141.0060   71.8880  226.3600 C   0  0  0  0  0  0  0  0  0  0  0  0
  141.4646   72.7717  225.8923 H   0  0  0  0  0  0  0  0  0  0  0  0
  1  2  1  0
  2  3  2  0
  3  4  1  0
  4  5  1  0
  5  6  2  0
  5  7  1  0
  7  8  1  0
  7  9  1  0
  7 10  1  0
 10 11  1  0
 10 12  1  0
 10 13  1  0
 13 14  1  0
 13 15  1  0
 13 16  1  0
 16 17  1  0
 17 18  2  0
 18 19  1  0
 18 20  1  0
 20 21  1  0
 20 22  2  0
 22 23  1  0
 22 24  1  0
 24 25  1  0
 24 26  2  0
 26 27  1  0
  2 28  1  0
 28 29  2  0
 29 30  1  0
 29 31  1  0
 31 32  2  0
 32 33  1  0
 32 34  1  0
 34 35  1  0
 34 36  2  0
 36 37  1  0
 26 17  1  0
 36 28  1  0
M  CHG  1   4  -1
M  END
>  <UniqueID>  (39) 
14

>  <SMILES>  (39) 
O=C(CCCOc1ccc(Cl)cc1Cl)[N-]/N=C\c1cccnc1F

>  <Energy>  (39) 
38.643898467999904

>  <Genealogy>  (39) 
O=C(CCCOc1ccc(Cl)cc1Cl)[N-]N=Cc1cccnc1F (protonated)
O=C(CCCOc1ccc(Cl)cc1Cl)[N-]/N=C\c1cccnc1F (cis-trans isomerization)
O=C(CCCOc1ccc(Cl)cc1Cl)[N-]/N=C\c1cccnc1F (3D coordinates assigned)
O=C(CCCOc1ccc(Cl)cc1Cl)[N-]/N=C\c1cccnc1F (optimized conformer: 38.643898467999904 kcal/mol)

>  <smiles>  (39) 
O=C(CCCOc1ccc(Cl)cc1Cl)NN=Cc1cccnc1F

>  <score_type>  (39) 
oracle

>  <origin>  (39) 
autodockgpu

>  <m_score__min__energy>  (39) 
-6.8499999999999996

>  <m_primary>  (39) 
energy

>  <meeko>  (39) 
{"free_energy": -6.42, "intermolecular_energy": -9.1, "internal_energy": -0.65, "cluster_size": 4, "cluster_id": 2, "rank_in_cluster": 2}

>  <energy>  (39) 
-6.24

>  <cluster_rmsd>  (39) 
0.0

>  <rmsd>  (39) 
271.95

>  <cluster>  (39) 
4

$$$$
AMYMGDKGSBDGMC-OUKHWZIZNA-M
     RDKit          3D

 37 38  0  0  0  0  0  0  0  0999 V2000
  140.7733   67.2005  227.1739 H   0  0  0  0  0  0  0  0  0  0  0  0
  140.2310   67.9330  226.5580 C   0  0  0  0  0  0  0  0  0  0  0  0
  139.4020   67.4900  225.6550 N   0  0  0  0  0  0  0  0  0  0  0  0
  138.4350   68.3020  225.0400 N   0  0  0  0  0  0  0  0  0  0  0  0
  138.7110   68.9660  223.8040 C   0  0  0  0  0  0  0  0  0  0  0  0
  139.1380   68.3050  222.8170 O   0  0  0  0  0  0  0  0  0  0  0  0
  138.5460   70.4560  223.6930 C   0  0  0  0  0  0  0  0  0  0  0  0
  137.4748   70.6962  223.6237 H   0  0  0  0  0  0  0  0  0  0  0  0
  138.9868   70.9272  224.5839 H   0  0  0  0  0  0  0  0  0  0  0  0
  139.2640   70.9920  222.4460 C   0  0  0  0  0  0  0  0  0  0  0  0
  140.3093   70.6498  222.4599 H   0  0  0  0  0  0  0  0  0  0  0  0
  138.7415   70.6129  221.5553 H   0  0  0  0  0  0  0  0  0  0  0  0
  139.2410   72.5220  222.4040 C   0  0  0  0  0  0  0  0  0  0  0  0
  138.7066   72.8513  221.5007 H   0  0  0  0  0  0  0  0  0  0  0  0
  138.7302   72.8949  223.3041 H   0  0  0  0  0  0  0  0  0  0  0  0
  140.5710   73.0420  222.3790 O   0  0  0  0  0  0  0  0  0  0  0  0
  141.0170   74.1060  221.5700 C   0  0  0  0  0  0  0  0  0  0  0  0
  140.4150   75.3790  221.5940 C   0  0  0  0  0  0  0  0  0  0  0  0
  139.5604   75.5677  222.2603 H   0  0  0  0  0  0  0  0  0  0  0  0
  140.9000   76.4080  220.7720 C   0  0  0  0  0  0  0  0  0  0  0  0
  140.4257   77.4001  220.7986 H   0  0  0  0  0  0  0  0  0  0  0  0
  141.9830   76.1770  219.9200 C   0  0  0  0  0  0  0  0  0  0  0  0
  142.5980   77.4700  218.8990 Cl  0  0  0  0  0  0  0  0  0  0  0  0
  142.5760   74.9130  219.8810 C   0  0  0  0  0  0  0  0  0  0  0  0
  143.4264   74.7283  219.2082 H   0  0  0  0  0  0  0  0  0  0  0  0
  142.0930   73.8780  220.6950 C   0  0  0  0  0  0  0  0  0  0  0  0
  142.8620   72.3000  220.6200 Cl  0  0  0  0  0  0  0  0  0  0  0  0
  140.4790   69.3730  226.7960 C   0  0  0  0  0  0  0  0  0  0  0  0
  140.0650   69.9640  228.0010 C   0  0  0  0  0  0  0  0  0  0  0  0
  139.4050   69.2410  228.9390 F   0  0  0  0  0  0  0  0  0  0  0  0
  140.3280   71.2780  228.2440 N   0  0  0  0  0  0  0  0  0  0  0  0
  140.9930   72.0510  227.3490 C   0  0  0  0  0  0  0  0  0  0  0  0
  141.1790   73.1123  227.5707 H   0  0  0  0  0  0  0  0  0  0  0  0
  141.4410   71.5010  226.1480 C   0  0  0  0  0  0  0  0  0  0  0  0
  141.9931   72.1209  225.4263 H   0  0  0  0  0  0  0  0  0  0  0  0
  141.1830   70.1570  225.8690 C   0  0  0  0  0  0  0  0  0  0  0  0
  141.5310   69.7138  224.9243 H   0  0  0  0  0  0  0  0  0  0  0  0
  1  2  1  0
  2  3  2  0
  3  4  1  0
  4  5  1  0
  5  6  2  0
  5  7  1  0
  7  8  1  0
  7  9  1  0
  7 10  1  0
 10 11  1  0
 10 12  1  0
 10 13  1  0
 13 14  1  0
 13 15  1  0
 13 16  1  0
 16 17  1  0
 17 18  2  0
 18 19  1  0
 18 20  1  0
 20 21  1  0
 20 22  2  0
 22 23  1  0
 22 24  1  0
 24 25  1  0
 24 26  2  0
 26 27  1  0
  2 28  1  0
 28 29  2  0
 29 30  1  0
 29 31  1  0
 31 32  2  0
 32 33  1  0
 32 34  1  0
 34 35  1  0
 34 36  2  0
 36 37  1  0
 26 17  1  0
 36 28  1  0
M  CHG  1   4  -1
M  END
>  <UniqueID>  (40) 
14

>  <SMILES>  (40) 
O=C(CCCOc1ccc(Cl)cc1Cl)[N-]/N=C\c1cccnc1F

>  <Energy>  (40) 
38.643898467999904

>  <Genealogy>  (40) 
O=C(CCCOc1ccc(Cl)cc1Cl)[N-]N=Cc1cccnc1F (protonated)
O=C(CCCOc1ccc(Cl)cc1Cl)[N-]/N=C\c1cccnc1F (cis-trans isomerization)
O=C(CCCOc1ccc(Cl)cc1Cl)[N-]/N=C\c1cccnc1F (3D coordinates assigned)
O=C(CCCOc1ccc(Cl)cc1Cl)[N-]/N=C\c1cccnc1F (optimized conformer: 38.643898467999904 kcal/mol)

>  <smiles>  (40) 
O=C(CCCOc1ccc(Cl)cc1Cl)NN=Cc1cccnc1F

>  <score_type>  (40) 
oracle

>  <origin>  (40) 
autodockgpu

>  <m_score__min__energy>  (40) 
-6.8499999999999996

>  <m_primary>  (40) 
energy

>  <meeko>  (40) 
{"free_energy": -6.31, "intermolecular_energy": -8.99, "internal_energy": -0.82, "cluster_size": 12, "cluster_id": 1, "rank_in_cluster": 9}

>  <energy>  (40) 
-6.16

>  <cluster_rmsd>  (40) 
0.0

>  <rmsd>  (40) 
272.1

>  <cluster>  (40) 
5

$$$$
QFPZKQQOUZJSQV-ZHMKIILHNA-N
     RDKit          3D

 37 38  0  0  0  0  0  0  0  0999 V2000
  145.1850   71.8570  221.6920 H   0  0  0  0  0  0  0  0  0  0  0  0
  145.1940   72.8200  221.3830 O   0  0  0  0  0  0  0  0  0  0  0  0
  143.7320   73.5930  219.7060 C   0  0  0  0  0  0  0  0  0  0  0  0
  145.9860   73.0610  219.0740 N   0  0  0  0  0  0  0  0  0  0  0  0
  145.8960   72.1960  217.9740 N   0  0  0  0  0  0  0  0  0  0  0  0
  144.9490   73.1640  220.0550 C   0  0  0  0  0  0  0  0  0  0  0  0
  143.3254   73.2926  218.7291 H   0  0  0  0  0  0  0  0  0  0  0  0
  145.3050   69.8780  218.4140 C   0  0  0  0  0  0  0  0  0  0  0  0
  144.8240   69.4300  219.6580 C   0  0  0  0  0  0  0  0  0  0  0  0
  144.0430   70.2300  220.4250 F   0  0  0  0  0  0  0  0  0  0  0  0
  145.1050   68.1690  220.0840 N   0  0  0  0  0  0  0  0  0  0  0  0
  145.8490   67.3110  219.3380 C   0  0  0  0  0  0  0  0  0  0  0  0
  146.0741   66.3043  219.7200 H   0  0  0  0  0  0  0  0  0  0  0  0
  146.3280   67.7050  218.0880 C   0  0  0  0  0  0  0  0  0  0  0  0
  146.9230   67.0104  217.4769 H   0  0  0  0  0  0  0  0  0  0  0  0
  146.0440   68.9920  217.6200 C   0  0  0  0  0  0  0  0  0  0  0  0
  146.4009   69.3082  216.6287 H   0  0  0  0  0  0  0  0  0  0  0  0
  145.0180   71.2410  217.9240 C   0  0  0  0  0  0  0  0  0  0  0  0
  144.0251   71.4548  217.5016 H   0  0  0  0  0  0  0  0  0  0  0  0
  142.8960   74.4720  220.5990 C   0  0  0  0  0  0  0  0  0  0  0  0
  143.2718   74.3939  221.6299 H   0  0  0  0  0  0  0  0  0  0  0  0
  142.9702   75.5060  220.2312 H   0  0  0  0  0  0  0  0  0  0  0  0
  141.4230   74.0600  220.5750 C   0  0  0  0  0  0  0  0  0  0  0  0
  140.9075   74.5871  219.7587 H   0  0  0  0  0  0  0  0  0  0  0  0
  141.3471   72.9745  220.4140 H   0  0  0  0  0  0  0  0  0  0  0  0
  140.8170   74.4010  221.8190 O   0  0  0  0  0  0  0  0  0  0  0  0
  140.2680   75.6580  222.1160 C   0  0  0  0  0  0  0  0  0  0  0  0
  141.0740   76.7760  222.4120 C   0  0  0  0  0  0  0  0  0  0  0  0
  142.1685   76.6691  222.4392 H   0  0  0  0  0  0  0  0  0  0  0  0
  140.4910   78.0190  222.6710 C   0  0  0  0  0  0  0  0  0  0  0  0
  141.1274   78.8882  222.8934 H   0  0  0  0  0  0  0  0  0  0  0  0
  139.1000   78.1600  222.6480 C   0  0  0  0  0  0  0  0  0  0  0  0
  138.3690   79.7200  222.9790 Cl  0  0  0  0  0  0  0  0  0  0  0  0
  138.2930   77.0550  222.3660 C   0  0  0  0  0  0  0  0  0  0  0  0
  137.1987   77.1656  222.3497 H   0  0  0  0  0  0  0  0  0  0  0  0
  138.8720   75.8070  222.1040 C   0  0  0  0  0  0  0  0  0  0  0  0
  137.8330   74.4390  221.7310 Cl  0  0  0  0  0  0  0  0  0  0  0  0
  1  2  1  0
  2  3  1  0
  3  4  1  0
  4  5  1  0
  5  6  2  0
  6  7  1  0
  6  8  1  0
  8  9  2  0
  9 10  1  0
  9 11  1  0
 11 12  2  0
 12 13  1  0
 12 14  1  0
 14 15  1  0
 14 16  2  0
 16 17  1  0
  3 18  2  0
 18 19  1  0
 18 20  1  0
 20 21  1  0
 20 22  1  0
 20 23  1  0
 23 24  1  0
 23 25  1  0
 23 26  1  0
 26 27  1  0
 27 28  2  0
 28 29  1  0
 28 30  1  0
 30 31  1  0
 30 32  2  0
 32 33  1  0
 32 34  1  0
 34 35  1  0
 34 36  2  0
 36 37  1  0
 16  8  1  0
 36 27  1  0
M  CHG  1   4  -1
M  END
>  <UniqueID>  (41) 
15

>  <SMILES>  (41) 
O/C(=C/CCOc1ccc(Cl)cc1Cl)[N-]/N=C\c1cccnc1F

>  <Energy>  (41) 
35.51302600902802

>  <Genealogy>  (41) 
O=C(CCCOc1ccc(Cl)cc1Cl)[N-]N=Cc1cccnc1F (protonated)
OC(=CCCOc1ccc(Cl)cc1Cl)[N-]N=Cc1cccnc1F (tautomer)
O/C(=C/CCOc1ccc(Cl)cc1Cl)[N-]/N=C\c1cccnc1F (cis-trans isomerization)
O/C(=C/CCOc1ccc(Cl)cc1Cl)[N-]/N=C\c1cccnc1F (3D coordinates assigned)
O/C(=C/CCOc1ccc(Cl)cc1Cl)[N-]/N=C\c1cccnc1F (optimized conformer: 35.51302600902802 kcal/mol)

>  <smiles>  (41) 
O=C(CCCOc1ccc(Cl)cc1Cl)NN=Cc1cccnc1F

>  <score_type>  (41) 
oracle

>  <origin>  (41) 
autodockgpu

>  <m_score__min__energy>  (41) 
-6.4500000000000002

>  <m_primary>  (41) 
energy

>  <meeko>  (41) 
{"free_energy": -5.92, "intermolecular_energy": -8.9, "internal_energy": -0.29, "cluster_size": 2, "cluster_id": 1, "rank_in_cluster": 2}

>  <energy>  (41) 
-6.45

>  <cluster_rmsd>  (41) 
0.0

>  <rmsd>  (41) 
270.62

>  <cluster>  (41) 
1

$$$$
QFPZKQQOUZJSQV-ZHMKIILHNA-N
     RDKit          3D

 37 38  0  0  0  0  0  0  0  0999 V2000
  139.8980   71.3390  220.9840 H   0  0  0  0  0  0  0  0  0  0  0  0
  139.4470   72.1910  220.6740 O   0  0  0  0  0  0  0  0  0  0  0  0
  139.4090   73.3300  221.4760 C   0  0  0  0  0  0  0  0  0  0  0  0
  140.1410   73.3790  222.7050 N   0  0  0  0  0  0  0  0  0  0  0  0
  140.6720   72.2310  223.3100 N   0  0  0  0  0  0  0  0  0  0  0  0
  139.9220   71.3850  223.9480 C   0  0  0  0  0  0  0  0  0  0  0  0
  139.0796   70.9174  223.4173 H   0  0  0  0  0  0  0  0  0  0  0  0
  140.1600   71.0280  225.3620 C   0  0  0  0  0  0  0  0  0  0  0  0
  139.7150   69.8030  225.8930 C   0  0  0  0  0  0  0  0  0  0  0  0
  139.0890   68.8950  225.1040 F   0  0  0  0  0  0  0  0  0  0  0  0
  139.9470   69.5020  227.1980 N   0  0  0  0  0  0  0  0  0  0  0  0
  140.6050   70.3580  228.0240 C   0  0  0  0  0  0  0  0  0  0  0  0
  140.7608   70.0918  229.0799 H   0  0  0  0  0  0  0  0  0  0  0  0
  141.0830   71.5740  227.5340 C   0  0  0  0  0  0  0  0  0  0  0  0
  141.6230   72.2661  228.1969 H   0  0  0  0  0  0  0  0  0  0  0  0
  140.8690   71.9040  226.1930 C   0  0  0  0  0  0  0  0  0  0  0  0
  141.2573   72.8513  225.7906 H   0  0  0  0  0  0  0  0  0  0  0  0
  138.6790   74.3800  221.0840 C   0  0  0  0  0  0  0  0  0  0  0  0
  138.9295   74.8724  220.1328 H   0  0  0  0  0  0  0  0  0  0  0  0
  137.5280   74.9140  221.8940 C   0  0  0  0  0  0  0  0  0  0  0  0
  136.7214   75.2182  221.2107 H   0  0  0  0  0  0  0  0  0  0  0  0
  137.1878   74.1192  222.5741 H   0  0  0  0  0  0  0  0  0  0  0  0
  137.9450   76.1200  222.7380 C   0  0  0  0  0  0  0  0  0  0  0  0
  137.0521   76.5839  223.1824 H   0  0  0  0  0  0  0  0  0  0  0  0
  138.6227   75.7920  223.5399 H   0  0  0  0  0  0  0  0  0  0  0  0
  138.6110   77.0680  221.9080 O   0  0  0  0  0  0  0  0  0  0  0  0
  139.5620   77.9930  222.3670 C   0  0  0  0  0  0  0  0  0  0  0  0
  139.2330   79.0120  223.2830 C   0  0  0  0  0  0  0  0  0  0  0  0
  138.1976   79.1133  223.6403 H   0  0  0  0  0  0  0  0  0  0  0  0
  140.2160   79.8950  223.7400 C   0  0  0  0  0  0  0  0  0  0  0  0
  139.9530   80.6837  224.4602 H   0  0  0  0  0  0  0  0  0  0  0  0
  141.5320   79.7780  223.2840 C   0  0  0  0  0  0  0  0  0  0  0  0
  142.7630   80.8900  223.8550 Cl  0  0  0  0  0  0  0  0  0  0  0  0
  141.8650   78.7760  222.3670 C   0  0  0  0  0  0  0  0  0  0  0  0
  142.9001   78.6852  222.0060 H   0  0  0  0  0  0  0  0  0  0  0  0
  140.8850   77.8880  221.9070 C   0  0  0  0  0  0  0  0  0  0  0  0
  141.3360   76.6250  220.7710 Cl  0  0  0  0  0  0  0  0  0  0  0  0
  1  2  1  0
  2  3  1  0
  3  4  1  0
  4  5  1  0
  5  6  2  0
  6  7  1  0
  6  8  1  0
  8  9  2  0
  9 10  1  0
  9 11  1  0
 11 12  2  0
 12 13  1  0
 12 14  1  0
 14 15  1  0
 14 16  2  0
 16 17  1  0
  3 18  2  0
 18 19  1  0
 18 20  1  0
 20 21  1  0
 20 22  1  0
 20 23  1  0
 23 24  1  0
 23 25  1  0
 23 26  1  0
 26 27  1  0
 27 28  2  0
 28 29  1  0
 28 30  1  0
 30 31  1  0
 30 32  2  0
 32 33  1  0
 32 34  1  0
 34 35  1  0
 34 36  2  0
 36 37  1  0
 16  8  1  0
 36 27  1  0
M  CHG  1   4  -1
M  END
>  <UniqueID>  (42) 
15

>  <SMILES>  (42) 
O/C(=C/CCOc1ccc(Cl)cc1Cl)[N-]/N=C\c1cccnc1F

>  <Energy>  (42) 
35.51302600902802

>  <Genealogy>  (42) 
O=C(CCCOc1ccc(Cl)cc1Cl)[N-]N=Cc1cccnc1F (protonated)
OC(=CCCOc1ccc(Cl)cc1Cl)[N-]N=Cc1cccnc1F (tautomer)
O/C(=C/CCOc1ccc(Cl)cc1Cl)[N-]/N=C\c1cccnc1F (cis-trans isomerization)
O/C(=C/CCOc1ccc(Cl)cc1Cl)[N-]/N=C\c1cccnc1F (3D coordinates assigned)
O/C(=C/CCOc1ccc(Cl)cc1Cl)[N-]/N=C\c1cccnc1F (optimized conformer: 35.51302600902802 kcal/mol)

>  <smiles>  (42) 
O=C(CCCOc1ccc(Cl)cc1Cl)NN=Cc1cccnc1F

>  <score_type>  (42) 
oracle

>  <origin>  (42) 
autodockgpu

>  <m_score__min__energy>  (42) 
-6.4500000000000002

>  <m_primary>  (42) 
energy

>  <meeko>  (42) 
{"free_energy": -5.46, "intermolecular_energy": -8.44, "internal_energy": -0.81, "cluster_size": 1, "cluster_id": 8, "rank_in_cluster": 1}

>  <energy>  (42) 
-5.92

>  <cluster_rmsd>  (42) 
1.86

>  <rmsd>  (42) 
270.54

>  <cluster>  (42) 
1

$$$$
QFPZKQQOUZJSQV-ZHMKIILHNA-N
     RDKit          3D

 37 38  0  0  0  0  0  0  0  0999 V2000
  137.8380   74.1020  222.9810 H   0  0  0  0  0  0  0  0  0  0  0  0
  138.2530   74.7680  222.3420 O   0  0  0  0  0  0  0  0  0  0  0  0
  139.5950   74.6900  221.9740 C   0  0  0  0  0  0  0  0  0  0  0  0
  140.3850   73.5550  222.3420 N   0  0  0  0  0  0  0  0  0  0  0  0
  139.8940   72.5330  223.1670 N   0  0  0  0  0  0  0  0  0  0  0  0
  140.6780   71.6400  223.6900 C   0  0  0  0  0  0  0  0  0  0  0  0
  141.4893   71.2219  223.0759 H   0  0  0  0  0  0  0  0  0  0  0  0
  140.5200   71.1650  225.0800 C   0  0  0  0  0  0  0  0  0  0  0  0
  139.7530   70.0250  225.3810 C   0  0  0  0  0  0  0  0  0  0  0  0
  139.1700   69.3020  224.3920 F   0  0  0  0  0  0  0  0  0  0  0  0
  139.6240   69.6120  226.6700 N   0  0  0  0  0  0  0  0  0  0  0  0
  140.2190   70.2740  227.6970 C   0  0  0  0  0  0  0  0  0  0  0  0
  140.0792   69.9241  228.7305 H   0  0  0  0  0  0  0  0  0  0  0  0
  141.0070   71.3970  227.4420 C   0  0  0  0  0  0  0  0  0  0  0  0
  141.4975   71.9309  228.2693 H   0  0  0  0  0  0  0  0  0  0  0  0
  141.1670   71.8370  226.1240 C   0  0  0  0  0  0  0  0  0  0  0  0
  141.8004   72.7100  225.9080 H   0  0  0  0  0  0  0  0  0  0  0  0
  140.1380   75.6910  221.2720 C   0  0  0  0  0  0  0  0  0  0  0  0
  139.8950   75.7797  220.2028 H   0  0  0  0  0  0  0  0  0  0  0  0
  141.0690   76.7010  221.8890 C   0  0  0  0  0  0  0  0  0  0  0  0
  140.4877   77.3726  222.5379 H   0  0  0  0  0  0  0  0  0  0  0  0
  141.8310   76.1580  222.4674 H   0  0  0  0  0  0  0  0  0  0  0  0
  141.7820   77.5350  220.8230 C   0  0  0  0  0  0  0  0  0  0  0  0
  142.8462   77.6321  221.0838 H   0  0  0  0  0  0  0  0  0  0  0  0
  141.6893   77.0395  219.8453 H   0  0  0  0  0  0  0  0  0  0  0  0
  141.1880   78.8280  220.7600 O   0  0  0  0  0  0  0  0  0  0  0  0
  140.3290   79.3550  221.7370 C   0  0  0  0  0  0  0  0  0  0  0  0
  138.9290   79.2100  221.6600 C   0  0  0  0  0  0  0  0  0  0  0  0
  138.4793   78.6918  220.8002 H   0  0  0  0  0  0  0  0  0  0  0  0
  138.1090   79.7210  222.6700 C   0  0  0  0  0  0  0  0  0  0  0  0
  137.0179   79.5965  222.6070 H   0  0  0  0  0  0  0  0  0  0  0  0
  138.6730   80.3900  223.7600 C   0  0  0  0  0  0  0  0  0  0  0  0
  137.6420   81.0360  225.0240 Cl  0  0  0  0  0  0  0  0  0  0  0  0
  140.0590   80.5480  223.8390 C   0  0  0  0  0  0  0  0  0  0  0  0
  140.5023   81.0758  224.6963 H   0  0  0  0  0  0  0  0  0  0  0  0
  140.8860   80.0370  222.8310 C   0  0  0  0  0  0  0  0  0  0  0  0
  142.6280   80.2300  222.9670 Cl  0  0  0  0  0  0  0  0  0  0  0  0
  1  2  1  0
  2  3  1  0
  3  4  1  0
  4  5  1  0
  5  6  2  0
  6  7  1  0
  6  8  1  0
  8  9  2  0
  9 10  1  0
  9 11  1  0
 11 12  2  0
 12 13  1  0
 12 14  1  0
 14 15  1  0
 14 16  2  0
 16 17  1  0
  3 18  2  0
 18 19  1  0
 18 20  1  0
 20 21  1  0
 20 22  1  0
 20 23  1  0
 23 24  1  0
 23 25  1  0
 23 26  1  0
 26 27  1  0
 27 28  2  0
 28 29  1  0
 28 30  1  0
 30 31  1  0
 30 32  2  0
 32 33  1  0
 32 34  1  0
 34 35  1  0
 34 36  2  0
 36 37  1  0
 16  8  1  0
 36 27  1  0
M  CHG  1   4  -1
M  END
>  <UniqueID>  (43) 
15

>  <SMILES>  (43) 
O/C(=C/CCOc1ccc(Cl)cc1Cl)[N-]/N=C\c1cccnc1F

>  <Energy>  (43) 
35.51302600902802

>  <Genealogy>  (43) 
O=C(CCCOc1ccc(Cl)cc1Cl)[N-]N=Cc1cccnc1F (protonated)
OC(=CCCOc1ccc(Cl)cc1Cl)[N-]N=Cc1cccnc1F (tautomer)
O/C(=C/CCOc1ccc(Cl)cc1Cl)[N-]/N=C\c1cccnc1F (cis-trans isomerization)
O/C(=C/CCOc1ccc(Cl)cc1Cl)[N-]/N=C\c1cccnc1F (3D coordinates assigned)
O/C(=C/CCOc1ccc(Cl)cc1Cl)[N-]/N=C\c1cccnc1F (optimized conformer: 35.51302600902802 kcal/mol)

>  <smiles>  (43) 
O=C(CCCOc1ccc(Cl)cc1Cl)NN=Cc1cccnc1F

>  <score_type>  (43) 
oracle

>  <origin>  (43) 
autodockgpu

>  <m_score__min__energy>  (43) 
-6.4500000000000002

>  <m_primary>  (43) 
energy

>  <meeko>  (43) 
{"free_energy": -5.87, "intermolecular_energy": -8.85, "internal_energy": -0.77, "cluster_size": 2, "cluster_id": 5, "rank_in_cluster": 2}

>  <energy>  (43) 
-6.04

>  <cluster_rmsd>  (43) 
0.0

>  <rmsd>  (43) 
271.94

>  <cluster>  (43) 
2

$$$$
QFPZKQQOUZJSQV-ZHMKIILHNA-N
     RDKit          3D

 37 38  0  0  0  0  0  0  0  0999 V2000
  139.2030   73.9410  223.0220 H   0  0  0  0  0  0  0  0  0  0  0  0
  139.6020   74.6620  222.4340 O   0  0  0  0  0  0  0  0  0  0  0  0
  139.7280   73.2520  220.5510 C   0  0  0  0  0  0  0  0  0  0  0  0
  141.0320   75.2680  220.5360 N   0  0  0  0  0  0  0  0  0  0  0  0
  141.7200   74.9310  219.3620 N   0  0  0  0  0  0  0  0  0  0  0  0
  140.1110   74.3750  221.1690 C   0  0  0  0  0  0  0  0  0  0  0  0
  139.0690   73.3293  219.6736 H   0  0  0  0  0  0  0  0  0  0  0  0
  144.0600   74.2830  219.5150 C   0  0  0  0  0  0  0  0  0  0  0  0
  144.7050   73.5390  218.5090 C   0  0  0  0  0  0  0  0  0  0  0  0
  144.3700   73.7040  217.2050 F   0  0  0  0  0  0  0  0  0  0  0  0
  145.7030   72.6740  218.8350 N   0  0  0  0  0  0  0  0  0  0  0  0
  146.1070   72.4990  220.1210 C   0  0  0  0  0  0  0  0  0  0  0  0
  146.9051   71.7784  220.3529 H   0  0  0  0  0  0  0  0  0  0  0  0
  145.5100   73.2330  221.1480 C   0  0  0  0  0  0  0  0  0  0  0  0
  145.8391   73.1004  222.1892 H   0  0  0  0  0  0  0  0  0  0  0  0
  144.4900   74.1380  220.8400 C   0  0  0  0  0  0  0  0  0  0  0  0
  144.0254   74.7359  221.6379 H   0  0  0  0  0  0  0  0  0  0  0  0
  142.9720   75.2290  219.1930 C   0  0  0  0  0  0  0  0  0  0  0  0
  143.2321   76.2213  218.7959 H   0  0  0  0  0  0  0  0  0  0  0  0
  140.1650   71.8850  221.0110 C   0  0  0  0  0  0  0  0  0  0  0  0
  139.2734   71.2871  221.2509 H   0  0  0  0  0  0  0  0  0  0  0  0
  140.7445   71.4182  220.2009 H   0  0  0  0  0  0  0  0  0  0  0  0
  141.0560   71.9670  222.2510 C   0  0  0  0  0  0  0  0  0  0  0  0
  141.6043   71.0212  222.3725 H   0  0  0  0  0  0  0  0  0  0  0  0
  141.7737   72.7925  222.1348 H   0  0  0  0  0  0  0  0  0  0  0  0
  140.2450   72.1980  223.4000 O   0  0  0  0  0  0  0  0  0  0  0  0
  140.2990   71.4320  224.5750 C   0  0  0  0  0  0  0  0  0  0  0  0
  141.0460   71.8380  225.7000 C   0  0  0  0  0  0  0  0  0  0  0  0
  141.6298   72.7695  225.6616 H   0  0  0  0  0  0  0  0  0  0  0  0
  141.0490   71.0640  226.8630 C   0  0  0  0  0  0  0  0  0  0  0  0
  141.6277   71.3921  227.7391 H   0  0  0  0  0  0  0  0  0  0  0  0
  140.3180   69.8730  226.9160 C   0  0  0  0  0  0  0  0  0  0  0  0
  140.3270   68.9000  228.3750 Cl  0  0  0  0  0  0  0  0  0  0  0  0
  139.5830   69.4570  225.8020 C   0  0  0  0  0  0  0  0  0  0  0  0
  139.0090   68.5195  225.8429 H   0  0  0  0  0  0  0  0  0  0  0  0
  139.5750   70.2300  224.6340 C   0  0  0  0  0  0  0  0  0  0  0  0
  138.6250   69.6940  223.2560 Cl  0  0  0  0  0  0  0  0  0  0  0  0
  1  2  1  0
  2  3  1  0
  3  4  1  0
  4  5  1  0
  5  6  2  0
  6  7  1  0
  6  8  1  0
  8  9  2  0
  9 10  1  0
  9 11  1  0
 11 12  2  0
 12 13  1  0
 12 14  1  0
 14 15  1  0
 14 16  2  0
 16 17  1  0
  3 18  2  0
 18 19  1  0
 18 20  1  0
 20 21  1  0
 20 22  1  0
 20 23  1  0
 23 24  1  0
 23 25  1  0
 23 26  1  0
 26 27  1  0
 27 28  2  0
 28 29  1  0
 28 30  1  0
 30 31  1  0
 30 32  2  0
 32 33  1  0
 32 34  1  0
 34 35  1  0
 34 36  2  0
 36 37  1  0
 16  8  1  0
 36 27  1  0
M  CHG  1   4  -1
M  END
>  <UniqueID>  (44) 
15

>  <SMILES>  (44) 
O/C(=C/CCOc1ccc(Cl)cc1Cl)[N-]/N=C\c1cccnc1F

>  <Energy>  (44) 
35.51302600902802

>  <Genealogy>  (44) 
O=C(CCCOc1ccc(Cl)cc1Cl)[N-]N=Cc1cccnc1F (protonated)
OC(=CCCOc1ccc(Cl)cc1Cl)[N-]N=Cc1cccnc1F (tautomer)
O/C(=C/CCOc1ccc(Cl)cc1Cl)[N-]/N=C\c1cccnc1F (cis-trans isomerization)
O/C(=C/CCOc1ccc(Cl)cc1Cl)[N-]/N=C\c1cccnc1F (3D coordinates assigned)
O/C(=C/CCOc1ccc(Cl)cc1Cl)[N-]/N=C\c1cccnc1F (optimized conformer: 35.51302600902802 kcal/mol)

>  <smiles>  (44) 
O=C(CCCOc1ccc(Cl)cc1Cl)NN=Cc1cccnc1F

>  <score_type>  (44) 
oracle

>  <origin>  (44) 
autodockgpu

>  <m_score__min__energy>  (44) 
-6.4500000000000002

>  <m_primary>  (44) 
energy

>  <meeko>  (44) 
{"free_energy": -5.81, "intermolecular_energy": -8.8, "internal_energy": -1.32, "cluster_size": 2, "cluster_id": 6, "rank_in_cluster": 1}

>  <energy>  (44) 
-5.96

>  <cluster_rmsd>  (44) 
1.36

>  <rmsd>  (44) 
272.0

>  <cluster>  (44) 
2

$$$$
QFPZKQQOUZJSQV-ZHMKIILHNA-N
     RDKit          3D

 37 38  0  0  0  0  0  0  0  0999 V2000
  139.4950   67.4960  222.5740 H   0  0  0  0  0  0  0  0  0  0  0  0
  138.8010   68.2230  222.6980 O   0  0  0  0  0  0  0  0  0  0  0  0
  138.6470   68.8860  223.9140 C   0  0  0  0  0  0  0  0  0  0  0  0
  138.5000   68.1490  225.1310 N   0  0  0  0  0  0  0  0  0  0  0  0
  139.5590   67.4360  225.7110 N   0  0  0  0  0  0  0  0  0  0  0  0
  140.2020   67.8880  226.7450 C   0  0  0  0  0  0  0  0  0  0  0  0
  140.5706   67.1725  227.4948 H   0  0  0  0  0  0  0  0  0  0  0  0
  140.4560   69.3290  226.9500 C   0  0  0  0  0  0  0  0  0  0  0  0
  139.9880   69.9990  228.0950 C   0  0  0  0  0  0  0  0  0  0  0  0
  139.3230   69.3250  229.0670 F   0  0  0  0  0  0  0  0  0  0  0  0
  140.2350   71.3260  228.2570 N   0  0  0  0  0  0  0  0  0  0  0  0
  140.9320   72.0420  227.3350 C   0  0  0  0  0  0  0  0  0  0  0  0
  141.1006   73.1182  227.4882 H   0  0  0  0  0  0  0  0  0  0  0  0
  141.4340   71.4130  226.1940 C   0  0  0  0  0  0  0  0  0  0  0  0
  142.0045   71.9866  225.4486 H   0  0  0  0  0  0  0  0  0  0  0  0
  141.2040   70.0470  226.0090 C   0  0  0  0  0  0  0  0  0  0  0  0
  141.6107   69.5358  225.1240 H   0  0  0  0  0  0  0  0  0  0  0  0
  138.6380   70.2240  223.9310 C   0  0  0  0  0  0  0  0  0  0  0  0
  138.4626   70.7398  224.8866 H   0  0  0  0  0  0  0  0  0  0  0  0
  138.8590   71.0510  222.6910 C   0  0  0  0  0  0  0  0  0  0  0  0
  139.3140   70.4174  221.9154 H   0  0  0  0  0  0  0  0  0  0  0  0
  137.8855   71.4401  222.3581 H   0  0  0  0  0  0  0  0  0  0  0  0
  139.7820   72.2400  222.9660 C   0  0  0  0  0  0  0  0  0  0  0  0
  139.2399   72.9985  223.5498 H   0  0  0  0  0  0  0  0  0  0  0  0
  140.6601   71.9005  223.5349 H   0  0  0  0  0  0  0  0  0  0  0  0
  140.2050   72.8050  221.7280 O   0  0  0  0  0  0  0  0  0  0  0  0
  141.5440   72.9150  221.3230 C   0  0  0  0  0  0  0  0  0  0  0  0
  142.3810   71.7890  221.1880 C   0  0  0  0  0  0  0  0  0  0  0  0
  141.9934   70.7878  221.4274 H   0  0  0  0  0  0  0  0  0  0  0  0
  143.7000   71.9370  220.7520 C   0  0  0  0  0  0  0  0  0  0  0  0
  144.3441   71.0522  220.6413 H   0  0  0  0  0  0  0  0  0  0  0  0
  144.2030   73.2080  220.4560 C   0  0  0  0  0  0  0  0  0  0  0  0
  145.8610   73.3920  219.9140 Cl  0  0  0  0  0  0  0  0  0  0  0  0
  143.3840   74.3310  220.5980 C   0  0  0  0  0  0  0  0  0  0  0  0
  143.7802   75.3309  220.3675 H   0  0  0  0  0  0  0  0  0  0  0  0
  142.0600   74.1880  221.0330 C   0  0  0  0  0  0  0  0  0  0  0  0
  141.0460   75.6160  221.1810 Cl  0  0  0  0  0  0  0  0  0  0  0  0
  1  2  1  0
  2  3  1  0
  3  4  1  0
  4  5  1  0
  5  6  2  0
  6  7  1  0
  6  8  1  0
  8  9  2  0
  9 10  1  0
  9 11  1  0
 11 12  2  0
 12 13  1  0
 12 14  1  0
 14 15  1  0
 14 16  2  0
 16 17  1  0
  3 18  2  0
 18 19  1  0
 18 20  1  0
 20 21  1  0
 20 22  1  0
 20 23  1  0
 23 24  1  0
 23 25  1  0
 23 26  1  0
 26 27  1  0
 27 28  2  0
 28 29  1  0
 28 30  1  0
 30 31  1  0
 30 32  2  0
 32 33  1  0
 32 34  1  0
 34 35  1  0
 34 36  2  0
 36 37  1  0
 16  8  1  0
 36 27  1  0
M  CHG  1   4  -1
M  END
>  <UniqueID>  (45) 
15

>  <SMILES>  (45) 
O/C(=C/CCOc1ccc(Cl)cc1Cl)[N-]/N=C\c1cccnc1F

>  <Energy>  (45) 
35.51302600902802

>  <Genealogy>  (45) 
O=C(CCCOc1ccc(Cl)cc1Cl)[N-]N=Cc1cccnc1F (protonated)
OC(=CCCOc1ccc(Cl)cc1Cl)[N-]N=Cc1cccnc1F (tautomer)
O/C(=C/CCOc1ccc(Cl)cc1Cl)[N-]/N=C\c1cccnc1F (cis-trans isomerization)
O/C(=C/CCOc1ccc(Cl)cc1Cl)[N-]/N=C\c1cccnc1F (3D coordinates assigned)
O/C(=C/CCOc1ccc(Cl)cc1Cl)[N-]/N=C\c1cccnc1F (optimized conformer: 35.51302600902802 kcal/mol)

>  <smiles>  (45) 
O=C(CCCOc1ccc(Cl)cc1Cl)NN=Cc1cccnc1F

>  <score_type>  (45) 
oracle

>  <origin>  (45) 
autodockgpu

>  <m_score__min__energy>  (45) 
-6.4500000000000002

>  <m_primary>  (45) 
energy

>  <meeko>  (45) 
{"free_energy": -5.97, "intermolecular_energy": -8.95, "internal_energy": -0.87, "cluster_size": 1, "cluster_id": 4, "rank_in_cluster": 1}

>  <energy>  (45) 
-5.89

>  <cluster_rmsd>  (45) 
1.8

>  <rmsd>  (45) 
272.23

>  <cluster>  (45) 
2

$$$$
QFPZKQQOUZJSQV-ZHMKIILHNA-N
     RDKit          3D

 37 38  0  0  0  0  0  0  0  0999 V2000
  139.1950   73.7480  223.0000 H   0  0  0  0  0  0  0  0  0  0  0  0
  139.3150   74.5220  222.3580 O   0  0  0  0  0  0  0  0  0  0  0  0
  140.6190   73.2220  220.8880 C   0  0  0  0  0  0  0  0  0  0  0  0
  140.4680   75.5820  220.4700 N   0  0  0  0  0  0  0  0  0  0  0  0
  141.4820   76.4720  220.8500 N   0  0  0  0  0  0  0  0  0  0  0  0
  140.1390   74.4200  221.2380 C   0  0  0  0  0  0  0  0  0  0  0  0
  140.6773   72.9671  219.8195 H   0  0  0  0  0  0  0  0  0  0  0  0
  141.6140   78.7130  221.7880 C   0  0  0  0  0  0  0  0  0  0  0  0
  142.0090   80.0380  221.5260 C   0  0  0  0  0  0  0  0  0  0  0  0
  142.1290   80.4840  220.2510 F   0  0  0  0  0  0  0  0  0  0  0  0
  142.2350   80.8980  222.5550 N   0  0  0  0  0  0  0  0  0  0  0  0
  142.0900   80.5160  223.8510 C   0  0  0  0  0  0  0  0  0  0  0  0
  142.2977   81.2312  224.6606 H   0  0  0  0  0  0  0  0  0  0  0  0
  141.6780   79.2180  224.1570 C   0  0  0  0  0  0  0  0  0  0  0  0
  141.5514   78.9074  225.2046 H   0  0  0  0  0  0  0  0  0  0  0  0
  141.4280   78.3170  223.1180 C   0  0  0  0  0  0  0  0  0  0  0  0
  141.0851   77.2968  223.3453 H   0  0  0  0  0  0  0  0  0  0  0  0
  141.3620   77.7550  220.6920 C   0  0  0  0  0  0  0  0  0  0  0  0
  141.0621   78.1425  219.7072 H   0  0  0  0  0  0  0  0  0  0  0  0
  141.0830   72.2080  221.9010 C   0  0  0  0  0  0  0  0  0  0  0  0
  141.8182   71.5408  221.4274 H   0  0  0  0  0  0  0  0  0  0  0  0
  141.5312   72.7479  222.7481 H   0  0  0  0  0  0  0  0  0  0  0  0
  139.9200   71.3690  222.4300 C   0  0  0  0  0  0  0  0  0  0  0  0
  139.0372   71.5213  221.7916 H   0  0  0  0  0  0  0  0  0  0  0  0
  140.1994   70.3051  222.4195 H   0  0  0  0  0  0  0  0  0  0  0  0
  139.6170   71.7690  223.7640 O   0  0  0  0  0  0  0  0  0  0  0  0
  139.9150   71.0110  224.9070 C   0  0  0  0  0  0  0  0  0  0  0  0
  140.8510   71.4420  225.8680 C   0  0  0  0  0  0  0  0  0  0  0  0
  141.3912   72.3886  225.7191 H   0  0  0  0  0  0  0  0  0  0  0  0
  141.0970   70.6740  227.0090 C   0  0  0  0  0  0  0  0  0  0  0  0
  141.8230   71.0217  227.7586 H   0  0  0  0  0  0  0  0  0  0  0  0
  140.4220   69.4640  227.2000 C   0  0  0  0  0  0  0  0  0  0  0  0
  140.7360   68.4980  228.6300 Cl  0  0  0  0  0  0  0  0  0  0  0  0
  139.5010   69.0230  226.2460 C   0  0  0  0  0  0  0  0  0  0  0  0
  138.9719   68.0701  226.3946 H   0  0  0  0  0  0  0  0  0  0  0  0
  139.2490   69.7900  225.1010 C   0  0  0  0  0  0  0  0  0  0  0  0
  138.0680   69.2230  223.9290 Cl  0  0  0  0  0  0  0  0  0  0  0  0
  1  2  1  0
  2  3  1  0
  3  4  1  0
  4  5  1  0
  5  6  2  0
  6  7  1  0
  6  8  1  0
  8  9  2  0
  9 10  1  0
  9 11  1  0
 11 12  2  0
 12 13  1  0
 12 14  1  0
 14 15  1  0
 14 16  2  0
 16 17  1  0
  3 18  2  0
 18 19  1  0
 18 20  1  0
 20 21  1  0
 20 22  1  0
 20 23  1  0
 23 24  1  0
 23 25  1  0
 23 26  1  0
 26 27  1  0
 27 28  2  0
 28 29  1  0
 28 30  1  0
 30 31  1  0
 30 32  2  0
 32 33  1  0
 32 34  1  0
 34 35  1  0
 34 36  2  0
 36 37  1  0
 16  8  1  0
 36 27  1  0
M  CHG  1   4  -1
M  END
>  <UniqueID>  (46) 
15

>  <SMILES>  (46) 
O/C(=C/CCOc1ccc(Cl)cc1Cl)[N-]/N=C\c1cccnc1F

>  <Energy>  (46) 
35.51302600902802

>  <Genealogy>  (46) 
O=C(CCCOc1ccc(Cl)cc1Cl)[N-]N=Cc1cccnc1F (protonated)
OC(=CCCOc1ccc(Cl)cc1Cl)[N-]N=Cc1cccnc1F (tautomer)
O/C(=C/CCOc1ccc(Cl)cc1Cl)[N-]/N=C\c1cccnc1F (cis-trans isomerization)
O/C(=C/CCOc1ccc(Cl)cc1Cl)[N-]/N=C\c1cccnc1F (3D coordinates assigned)
O/C(=C/CCOc1ccc(Cl)cc1Cl)[N-]/N=C\c1cccnc1F (optimized conformer: 35.51302600902802 kcal/mol)

>  <smiles>  (46) 
O=C(CCCOc1ccc(Cl)cc1Cl)NN=Cc1cccnc1F

>  <score_type>  (46) 
oracle

>  <origin>  (46) 
autodockgpu

>  <m_score__min__energy>  (46) 
-6.4500000000000002

>  <m_primary>  (46) 
energy

>  <meeko>  (46) 
{"free_energy": -6.04, "intermolecular_energy": -9.03, "internal_energy": -1.05, "cluster_size": 5, "cluster_id": 2, "rank_in_cluster": 1}

>  <energy>  (46) 
-5.86

>  <cluster_rmsd>  (46) 
0.6

>  <rmsd>  (46) 
272.03

>  <cluster>  (46) 
2

$$$$
QFPZKQQOUZJSQV-ZHMKIILHNA-N
     RDKit          3D

 37 38  0  0  0  0  0  0  0  0999 V2000
  140.4700   74.4430  221.5970 H   0  0  0  0  0  0  0  0  0  0  0  0
  140.2940   73.7490  222.3120 O   0  0  0  0  0  0  0  0  0  0  0  0
  138.4480   72.7870  221.2100 C   0  0  0  0  0  0  0  0  0  0  0  0
  139.6590   71.4240  222.7720 N   0  0  0  0  0  0  0  0  0  0  0  0
  140.6640   71.2590  223.7350 N   0  0  0  0  0  0  0  0  0  0  0  0
  139.4530   72.6610  222.0830 C   0  0  0  0  0  0  0  0  0  0  0  0
  137.4908   72.2918  221.4305 H   0  0  0  0  0  0  0  0  0  0  0  0
  140.5470   70.5310  226.0540 C   0  0  0  0  0  0  0  0  0  0  0  0
  140.8790   70.8800  227.3750 C   0  0  0  0  0  0  0  0  0  0  0  0
  141.0940   72.1760  227.7140 F   0  0  0  0  0  0  0  0  0  0  0  0
  140.9460   69.9220  228.3380 N   0  0  0  0  0  0  0  0  0  0  0  0
  140.7000   68.6140  228.0640 C   0  0  0  0  0  0  0  0  0  0  0  0
  140.7799   67.8613  228.8621 H   0  0  0  0  0  0  0  0  0  0  0  0
  140.3460   68.2240  226.7710 C   0  0  0  0  0  0  0  0  0  0  0  0
  140.1386   67.1674  226.5462 H   0  0  0  0  0  0  0  0  0  0  0  0
  140.2580   69.1910  225.7650 C   0  0  0  0  0  0  0  0  0  0  0  0
  139.9618   68.8996  224.7465 H   0  0  0  0  0  0  0  0  0  0  0  0
  140.4660   71.5480  224.9860 C   0  0  0  0  0  0  0  0  0  0  0  0
  140.2297   72.5869  225.2595 H   0  0  0  0  0  0  0  0  0  0  0  0
  138.5760   73.5810  219.9360 C   0  0  0  0  0  0  0  0  0  0  0  0
  137.7298   73.3372  219.2768 H   0  0  0  0  0  0  0  0  0  0  0  0
  138.5765   74.6500  220.1952 H   0  0  0  0  0  0  0  0  0  0  0  0
  139.8820   73.2650  219.2050 C   0  0  0  0  0  0  0  0  0  0  0  0
  140.2695   72.2945  219.5484 H   0  0  0  0  0  0  0  0  0  0  0  0
  139.6962   73.2213  218.1217 H   0  0  0  0  0  0  0  0  0  0  0  0
  140.8370   74.2840  219.4840 O   0  0  0  0  0  0  0  0  0  0  0  0
  142.1370   74.0450  219.9570 C   0  0  0  0  0  0  0  0  0  0  0  0
  142.5460   72.7740  220.4090 C   0  0  0  0  0  0  0  0  0  0  0  0
  141.8286   71.9402  220.4203 H   0  0  0  0  0  0  0  0  0  0  0  0
  143.8590   72.5680  220.8430 C   0  0  0  0  0  0  0  0  0  0  0  0
  144.1736   71.5713  221.1860 H   0  0  0  0  0  0  0  0  0  0  0  0
  144.7730   73.6260  220.8420 C   0  0  0  0  0  0  0  0  0  0  0  0
  146.4180   73.3670  221.3930 Cl  0  0  0  0  0  0  0  0  0  0  0  0
  144.3720   74.8920  220.4060 C   0  0  0  0  0  0  0  0  0  0  0  0
  145.0905   75.7249  220.4070 H   0  0  0  0  0  0  0  0  0  0  0  0
  143.0590   75.1040  219.9680 C   0  0  0  0  0  0  0  0  0  0  0  0
  142.5880   76.7010  219.4030 Cl  0  0  0  0  0  0  0  0  0  0  0  0
  1  2  1  0
  2  3  1  0
  3  4  1  0
  4  5  1  0
  5  6  2  0
  6  7  1  0
  6  8  1  0
  8  9  2  0
  9 10  1  0
  9 11  1  0
 11 12  2  0
 12 13  1  0
 12 14  1  0
 14 15  1  0
 14 16  2  0
 16 17  1  0
  3 18  2  0
 18 19  1  0
 18 20  1  0
 20 21  1  0
 20 22  1  0
 20 23  1  0
 23 24  1  0
 23 25  1  0
 23 26  1  0
 26 27  1  0
 27 28  2  0
 28 29  1  0
 28 30  1  0
 30 31  1  0
 30 32  2  0
 32 33  1  0
 32 34  1  0
 34 35  1  0
 34 36  2  0
 36 37  1  0
 16  8  1  0
 36 27  1  0
M  CHG  1   4  -1
M  END
>  <UniqueID>  (47) 
15

>  <SMILES>  (47) 
O/C(=C/CCOc1ccc(Cl)cc1Cl)[N-]/N=C\c1cccnc1F

>  <Energy>  (47) 
35.51302600902802

>  <Genealogy>  (47) 
O=C(CCCOc1ccc(Cl)cc1Cl)[N-]N=Cc1cccnc1F (protonated)
OC(=CCCOc1ccc(Cl)cc1Cl)[N-]N=Cc1cccnc1F (tautomer)
O/C(=C/CCOc1ccc(Cl)cc1Cl)[N-]/N=C\c1cccnc1F (cis-trans isomerization)
O/C(=C/CCOc1ccc(Cl)cc1Cl)[N-]/N=C\c1cccnc1F (3D coordinates assigned)
O/C(=C/CCOc1ccc(Cl)cc1Cl)[N-]/N=C\c1cccnc1F (optimized conformer: 35.51302600902802 kcal/mol)

>  <smiles>  (47) 
O=C(CCCOc1ccc(Cl)cc1Cl)NN=Cc1cccnc1F

>  <score_type>  (47) 
oracle

>  <origin>  (47) 
autodockgpu

>  <m_score__min__energy>  (47) 
-6.4500000000000002

>  <m_primary>  (47) 
energy

>  <meeko>  (47) 
{"free_energy": -5.14, "intermolecular_energy": -8.13, "internal_energy": -1.35, "cluster_size": 1, "cluster_id": 11, "rank_in_cluster": 1}

>  <energy>  (47) 
-5.48

>  <cluster_rmsd>  (47) 
0.75

>  <rmsd>  (47) 
271.71

>  <cluster>  (47) 
2

$$$$
QFPZKQQOUZJSQV-ZHMKIILHNA-N
     RDKit          3D

 37 38  0  0  0  0  0  0  0  0999 V2000
  139.3560   74.3910  223.0560 H   0  0  0  0  0  0  0  0  0  0  0  0
  139.9520   73.7550  222.5410 O   0  0  0  0  0  0  0  0  0  0  0  0
  138.4320   73.6310  220.7450 C   0  0  0  0  0  0  0  0  0  0  0  0
  140.6040   72.6510  220.4500 N   0  0  0  0  0  0  0  0  0  0  0  0
  141.6470   71.9070  221.0180 N   0  0  0  0  0  0  0  0  0  0  0  0
  139.6420   73.3530  221.2430 C   0  0  0  0  0  0  0  0  0  0  0  0
  138.1095   73.1235  219.8239 H   0  0  0  0  0  0  0  0  0  0  0  0
  143.9390   72.2880  220.2960 C   0  0  0  0  0  0  0  0  0  0  0  0
  145.1040   71.7570  219.7130 C   0  0  0  0  0  0  0  0  0  0  0  0
  145.0840   70.5390  219.1160 F   0  0  0  0  0  0  0  0  0  0  0  0
  146.2550   72.4810  219.7060 N   0  0  0  0  0  0  0  0  0  0  0  0
  146.3210   73.7230  220.2530 C   0  0  0  0  0  0  0  0  0  0  0  0
  147.2721   74.2757  220.2465 H   0  0  0  0  0  0  0  0  0  0  0  0
  145.1850   74.2990  220.8230 C   0  0  0  0  0  0  0  0  0  0  0  0
  145.2329   75.3074  221.2599 H   0  0  0  0  0  0  0  0  0  0  0  0
  143.9850   73.5810  220.8330 C   0  0  0  0  0  0  0  0  0  0  0  0
  143.0778   74.0313  221.2622 H   0  0  0  0  0  0  0  0  0  0  0  0
  142.6740   71.5260  220.3210 C   0  0  0  0  0  0  0  0  0  0  0  0
  142.5993   70.6026  219.7278 H   0  0  0  0  0  0  0  0  0  0  0  0
  137.4940   74.6130  221.3980 C   0  0  0  0  0  0  0  0  0  0  0  0
  136.5145   74.5558  220.9006 H   0  0  0  0  0  0  0  0  0  0  0  0
  137.4097   74.3519  222.4632 H   0  0  0  0  0  0  0  0  0  0  0  0
  138.0190   76.0460  221.2970 C   0  0  0  0  0  0  0  0  0  0  0  0
  138.7077   76.1253  220.4430 H   0  0  0  0  0  0  0  0  0  0  0  0
  137.1757   76.7372  221.1518 H   0  0  0  0  0  0  0  0  0  0  0  0
  138.7090   76.3820  222.4970 O   0  0  0  0  0  0  0  0  0  0  0  0
  139.5000   77.5290  222.6630 C   0  0  0  0  0  0  0  0  0  0  0  0
  139.0580   78.6410  223.4080 C   0  0  0  0  0  0  0  0  0  0  0  0
  138.0547   78.6333  223.8589 H   0  0  0  0  0  0  0  0  0  0  0  0
  139.8870   79.7530  223.5770 C   0  0  0  0  0  0  0  0  0  0  0  0
  139.5376   80.6140  224.1657 H   0  0  0  0  0  0  0  0  0  0  0  0
  141.1600   79.7730  222.9990 C   0  0  0  0  0  0  0  0  0  0  0  0
  142.1980   81.1720  223.2070 Cl  0  0  0  0  0  0  0  0  0  0  0  0
  141.6020   78.6790  222.2500 C   0  0  0  0  0  0  0  0  0  0  0  0
  142.6028   78.6957  221.7939 H   0  0  0  0  0  0  0  0  0  0  0  0
  140.7760   77.5620  222.0780 C   0  0  0  0  0  0  0  0  0  0  0  0
  141.3660   76.1910  221.1500 Cl  0  0  0  0  0  0  0  0  0  0  0  0
  1  2  1  0
  2  3  1  0
  3  4  1  0
  4  5  1  0
  5  6  2  0
  6  7  1  0
  6  8  1  0
  8  9  2  0
  9 10  1  0
  9 11  1  0
 11 12  2  0
 12 13  1  0
 12 14  1  0
 14 15  1  0
 14 16  2  0
 16 17  1  0
  3 18  2  0
 18 19  1  0
 18 20  1  0
 20 21  1  0
 20 22  1  0
 20 23  1  0
 23 24  1  0
 23 25  1  0
 23 26  1  0
 26 27  1  0
 27 28  2  0
 28 29  1  0
 28 30  1  0
 30 31  1  0
 30 32  2  0
 32 33  1  0
 32 34  1  0
 34 35  1  0
 34 36  2  0
 36 37  1  0
 16  8  1  0
 36 27  1  0
M  CHG  1   4  -1
M  END
>  <UniqueID>  (48) 
15

>  <SMILES>  (48) 
O/C(=C/CCOc1ccc(Cl)cc1Cl)[N-]/N=C\c1cccnc1F

>  <Energy>  (48) 
35.51302600902802

>  <Genealogy>  (48) 
O=C(CCCOc1ccc(Cl)cc1Cl)[N-]N=Cc1cccnc1F (protonated)
OC(=CCCOc1ccc(Cl)cc1Cl)[N-]N=Cc1cccnc1F (tautomer)
O/C(=C/CCOc1ccc(Cl)cc1Cl)[N-]/N=C\c1cccnc1F (cis-trans isomerization)
O/C(=C/CCOc1ccc(Cl)cc1Cl)[N-]/N=C\c1cccnc1F (3D coordinates assigned)
O/C(=C/CCOc1ccc(Cl)cc1Cl)[N-]/N=C\c1cccnc1F (optimized conformer: 35.51302600902802 kcal/mol)

>  <smiles>  (48) 
O=C(CCCOc1ccc(Cl)cc1Cl)NN=Cc1cccnc1F

>  <score_type>  (48) 
oracle

>  <origin>  (48) 
autodockgpu

>  <m_score__min__energy>  (48) 
-6.4500000000000002

>  <m_primary>  (48) 
energy

>  <meeko>  (48) 
{"free_energy": -4.98, "intermolecular_energy": -7.96, "internal_energy": -1.35, "cluster_size": 1, "cluster_id": 12, "rank_in_cluster": 1}

>  <energy>  (48) 
-5.97

>  <cluster_rmsd>  (48) 
0.0

>  <rmsd>  (48) 
271.71

>  <cluster>  (48) 
3

$$$$
QFPZKQQOUZJSQV-ZHMKIILHNA-N
     RDKit          3D

 37 38  0  0  0  0  0  0  0  0999 V2000
  141.8550   76.6830  222.4650 H   0  0  0  0  0  0  0  0  0  0  0  0
  141.0730   76.0560  222.6020 O   0  0  0  0  0  0  0  0  0  0  0  0
  141.0640   75.3260  220.3630 C   0  0  0  0  0  0  0  0  0  0  0  0
  139.9560   73.9580  221.9950 N   0  0  0  0  0  0  0  0  0  0  0  0
  140.5220   72.8890  222.7050 N   0  0  0  0  0  0  0  0  0  0  0  0
  140.7060   75.1220  221.6350 C   0  0  0  0  0  0  0  0  0  0  0  0
  140.5457   74.7649  219.5715 H   0  0  0  0  0  0  0  0  0  0  0  0
  139.9840   71.2570  224.4280 C   0  0  0  0  0  0  0  0  0  0  0  0
  139.3930   70.0200  224.7430 C   0  0  0  0  0  0  0  0  0  0  0  0
  138.6790   69.3390  223.8130 F   0  0  0  0  0  0  0  0  0  0  0  0
  139.5690   69.4750  225.9770 N   0  0  0  0  0  0  0  0  0  0  0  0
  140.3080   70.0950  226.9340 C   0  0  0  0  0  0  0  0  0  0  0  0
  140.4154   69.6361  227.9279 H   0  0  0  0  0  0  0  0  0  0  0  0
  140.9310   71.3130  226.6580 C   0  0  0  0  0  0  0  0  0  0  0  0
  141.5371   71.8139  227.4273 H   0  0  0  0  0  0  0  0  0  0  0  0
  140.7770   71.8900  225.3940 C   0  0  0  0  0  0  0  0  0  0  0  0
  141.2781   72.8404  225.1581 H   0  0  0  0  0  0  0  0  0  0  0  0
  139.8110   71.8760  223.0980 C   0  0  0  0  0  0  0  0  0  0  0  0
  139.0526   71.4640  222.4160 H   0  0  0  0  0  0  0  0  0  0  0  0
  142.1490   76.2940  219.9720 C   0  0  0  0  0  0  0  0  0  0  0  0
  142.9911   76.1882  220.6717 H   0  0  0  0  0  0  0  0  0  0  0  0
  142.4621   76.0630  218.9431 H   0  0  0  0  0  0  0  0  0  0  0  0
  141.6520   77.7410  220.0080 C   0  0  0  0  0  0  0  0  0  0  0  0
  142.2115   78.3399  219.2743 H   0  0  0  0  0  0  0  0  0  0  0  0
  140.5805   77.7684  219.7606 H   0  0  0  0  0  0  0  0  0  0  0  0
  141.8540   78.2770  221.3130 O   0  0  0  0  0  0  0  0  0  0  0  0
  140.8540   78.8940  222.0800 C   0  0  0  0  0  0  0  0  0  0  0  0
  139.4980   78.5210  221.9820 C   0  0  0  0  0  0  0  0  0  0  0  0
  139.1958   77.7404  221.2683 H   0  0  0  0  0  0  0  0  0  0  0  0
  138.5360   79.1370  222.7860 C   0  0  0  0  0  0  0  0  0  0  0  0
  137.4813   78.8342  222.7095 H   0  0  0  0  0  0  0  0  0  0  0  0
  138.9110   80.1380  223.6880 C   0  0  0  0  0  0  0  0  0  0  0  0
  137.7010   80.9150  224.6920 Cl  0  0  0  0  0  0  0  0  0  0  0  0
  140.2520   80.5220  223.7830 C   0  0  0  0  0  0  0  0  0  0  0  0
  140.5472   81.3110  224.4904 H   0  0  0  0  0  0  0  0  0  0  0  0
  141.2210   79.9060  222.9810 C   0  0  0  0  0  0  0  0  0  0  0  0
  142.9020   80.3930  223.1390 Cl  0  0  0  0  0  0  0  0  0  0  0  0
  1  2  1  0
  2  3  1  0
  3  4  1  0
  4  5  1  0
  5  6  2  0
  6  7  1  0
  6  8  1  0
  8  9  2  0
  9 10  1  0
  9 11  1  0
 11 12  2  0
 12 13  1  0
 12 14  1  0
 14 15  1  0
 14 16  2  0
 16 17  1  0
  3 18  2  0
 18 19  1  0
 18 20  1  0
 20 21  1  0
 20 22  1  0
 20 23  1  0
 23 24  1  0
 23 25  1  0
 23 26  1  0
 26 27  1  0
 27 28  2  0
 28 29  1  0
 28 30  1  0
 30 31  1  0
 30 32  2  0
 32 33  1  0
 32 34  1  0
 34 35  1  0
 34 36  2  0
 36 37  1  0
 16  8  1  0
 36 27  1  0
M  CHG  1   4  -1
M  END
>  <UniqueID>  (49) 
15

>  <SMILES>  (49) 
O/C(=C/CCOc1ccc(Cl)cc1Cl)[N-]/N=C\c1cccnc1F

>  <Energy>  (49) 
35.51302600902802

>  <Genealogy>  (49) 
O=C(CCCOc1ccc(Cl)cc1Cl)[N-]N=Cc1cccnc1F (protonated)
OC(=CCCOc1ccc(Cl)cc1Cl)[N-]N=Cc1cccnc1F (tautomer)
O/C(=C/CCOc1ccc(Cl)cc1Cl)[N-]/N=C\c1cccnc1F (cis-trans isomerization)
O/C(=C/CCOc1ccc(Cl)cc1Cl)[N-]/N=C\c1cccnc1F (3D coordinates assigned)
O/C(=C/CCOc1ccc(Cl)cc1Cl)[N-]/N=C\c1cccnc1F (optimized conformer: 35.51302600902802 kcal/mol)

>  <smiles>  (49) 
O=C(CCCOc1ccc(Cl)cc1Cl)NN=Cc1cccnc1F

>  <score_type>  (49) 
oracle

>  <origin>  (49) 
autodockgpu

>  <m_score__min__energy>  (49) 
-6.4500000000000002

>  <m_primary>  (49) 
energy

>  <meeko>  (49) 
{"free_energy": -5.94, "intermolecular_energy": -8.92, "internal_energy": -1.21, "cluster_size": 2, "cluster_id": 5, "rank_in_cluster": 1}

>  <energy>  (49) 
-5.97

>  <cluster_rmsd>  (49) 
0.0

>  <rmsd>  (49) 
271.59

>  <cluster>  (49) 
4

$$$$
QFPZKQQOUZJSQV-ZHMKIILHNA-N
     RDKit          3D

 37 38  0  0  0  0  0  0  0  0999 V2000
  139.7560   66.8060  223.0700 H   0  0  0  0  0  0  0  0  0  0  0  0
  139.0600   67.4700  222.7550 O   0  0  0  0  0  0  0  0  0  0  0  0
  138.4320   68.3450  223.6400 C   0  0  0  0  0  0  0  0  0  0  0  0
  138.5910   68.1900  225.0530 N   0  0  0  0  0  0  0  0  0  0  0  0
  139.5740   67.3610  225.6120 N   0  0  0  0  0  0  0  0  0  0  0  0
  140.4140   67.7980  226.5000 C   0  0  0  0  0  0  0  0  0  0  0  0
  141.0483   67.0738  227.0322 H   0  0  0  0  0  0  0  0  0  0  0  0
  140.5480   69.2340  226.8210 C   0  0  0  0  0  0  0  0  0  0  0  0
  140.1410   69.7480  228.0650 C   0  0  0  0  0  0  0  0  0  0  0  0
  139.6500   68.9260  229.0250 F   0  0  0  0  0  0  0  0  0  0  0  0
  140.2760   71.0750  228.3320 N   0  0  0  0  0  0  0  0  0  0  0  0
  140.7990   71.9380  227.4220 C   0  0  0  0  0  0  0  0  0  0  0  0
  140.8773   73.0086  227.6622 H   0  0  0  0  0  0  0  0  0  0  0  0
  141.2370   71.4680  226.1830 C   0  0  0  0  0  0  0  0  0  0  0  0
  141.6692   72.1618  225.4468 H   0  0  0  0  0  0  0  0  0  0  0  0
  141.1210   70.1070  225.8870 C   0  0  0  0  0  0  0  0  0  0  0  0
  141.4794   69.7215  224.9211 H   0  0  0  0  0  0  0  0  0  0  0  0
  137.6750   69.3340  223.1510 C   0  0  0  0  0  0  0  0  0  0  0  0
  137.8689   69.6929  222.1294 H   0  0  0  0  0  0  0  0  0  0  0  0
  136.5670   69.9750  223.9460 C   0  0  0  0  0  0  0  0  0  0  0  0
  135.6085   69.7829  223.4417 H   0  0  0  0  0  0  0  0  0  0  0  0
  136.5729   69.5409  224.9567 H   0  0  0  0  0  0  0  0  0  0  0  0
  136.7670   71.4860  224.0730 C   0  0  0  0  0  0  0  0  0  0  0  0
  137.1204   71.7259  225.0867 H   0  0  0  0  0  0  0  0  0  0  0  0
  137.5130   71.8220  223.3377 H   0  0  0  0  0  0  0  0  0  0  0  0
  135.5280   72.1470  223.8320 O   0  0  0  0  0  0  0  0  0  0  0  0
  135.0230   73.1950  224.6170 C   0  0  0  0  0  0  0  0  0  0  0  0
  135.3960   74.5370  224.4030 C   0  0  0  0  0  0  0  0  0  0  0  0
  136.1236   74.7839  223.6158 H   0  0  0  0  0  0  0  0  0  0  0  0
  134.8460   75.5560  225.1860 C   0  0  0  0  0  0  0  0  0  0  0  0
  135.1361   76.6020  225.0079 H   0  0  0  0  0  0  0  0  0  0  0  0
  133.9280   75.2490  226.1950 C   0  0  0  0  0  0  0  0  0  0  0  0
  133.2440   76.5290  227.1800 Cl  0  0  0  0  0  0  0  0  0  0  0  0
  133.5610   73.9200  226.4210 C   0  0  0  0  0  0  0  0  0  0  0  0
  132.8409   73.6778  227.2165 H   0  0  0  0  0  0  0  0  0  0  0  0
  134.1070   72.8950  225.6380 C   0  0  0  0  0  0  0  0  0  0  0  0
  133.6100   71.2340  225.9290 Cl  0  0  0  0  0  0  0  0  0  0  0  0
  1  2  1  0
  2  3  1  0
  3  4  1  0
  4  5  1  0
  5  6  2  0
  6  7  1  0
  6  8  1  0
  8  9  2  0
  9 10  1  0
  9 11  1  0
 11 12  2  0
 12 13  1  0
 12 14  1  0
 14 15  1  0
 14 16  2  0
 16 17  1  0
  3 18  2  0
 18 19  1  0
 18 20  1  0
 20 21  1  0
 20 22  1  0
 20 23  1  0
 23 24  1  0
 23 25  1  0
 23 26  1  0
 26 27  1  0
 27 28  2  0
 28 29  1  0
 28 30  1  0
 30 31  1  0
 30 32  2  0
 32 33  1  0
 32 34  1  0
 34 35  1  0
 34 36  2  0
 36 37  1  0
 16  8  1  0
 36 27  1  0
M  CHG  1   4  -1
M  END
>  <UniqueID>  (50) 
15

>  <SMILES>  (50) 
O/C(=C/CCOc1ccc(Cl)cc1Cl)[N-]/N=C\c1cccnc1F

>  <Energy>  (50) 
35.51302600902802

>  <Genealogy>  (50) 
O=C(CCCOc1ccc(Cl)cc1Cl)[N-]N=Cc1cccnc1F (protonated)
OC(=CCCOc1ccc(Cl)cc1Cl)[N-]N=Cc1cccnc1F (tautomer)
O/C(=C/CCOc1ccc(Cl)cc1Cl)[N-]/N=C\c1cccnc1F (cis-trans isomerization)
O/C(=C/CCOc1ccc(Cl)cc1Cl)[N-]/N=C\c1cccnc1F (3D coordinates assigned)
O/C(=C/CCOc1ccc(Cl)cc1Cl)[N-]/N=C\c1cccnc1F (optimized conformer: 35.51302600902802 kcal/mol)

>  <smiles>  (50) 
O=C(CCCOc1ccc(Cl)cc1Cl)NN=Cc1cccnc1F

>  <score_type>  (50) 
oracle

>  <origin>  (50) 
autodockgpu

>  <m_score__min__energy>  (50) 
-6.4500000000000002

>  <m_primary>  (50) 
energy

>  <meeko>  (50) 
{"free_energy": -5.51, "intermolecular_energy": -8.49, "internal_energy": -0.83, "cluster_size": 1, "cluster_id": 7, "rank_in_cluster": 1}

>  <energy>  (50) 
-5.94

>  <cluster_rmsd>  (50) 
0.0

>  <rmsd>  (50) 
271.98

>  <cluster>  (50) 
5

$$$$
QFPZKQQOUZJSQV-ZHMKIILHNA-N
     RDKit          3D

 37 38  0  0  0  0  0  0  0  0999 V2000
  139.3480   73.9410  222.9960 H   0  0  0  0  0  0  0  0  0  0  0  0
  139.3000   74.7130  222.3430 O   0  0  0  0  0  0  0  0  0  0  0  0
  141.4330   74.2400  221.4600 C   0  0  0  0  0  0  0  0  0  0  0  0
  140.0490   75.8060  220.2780 N   0  0  0  0  0  0  0  0  0  0  0  0
  140.7970   76.9780  220.1020 N   0  0  0  0  0  0  0  0  0  0  0  0
  140.2770   74.9060  221.3670 C   0  0  0  0  0  0  0  0  0  0  0  0
  142.3711   74.8124  221.5076 H   0  0  0  0  0  0  0  0  0  0  0  0
  141.1610   78.8050  221.6670 C   0  0  0  0  0  0  0  0  0  0  0  0
  141.9200   79.9600  221.4050 C   0  0  0  0  0  0  0  0  0  0  0  0
  141.9520   80.4980  220.1600 F   0  0  0  0  0  0  0  0  0  0  0  0
  142.6000   80.5720  222.4110 N   0  0  0  0  0  0  0  0  0  0  0  0
  142.5700   80.1000  223.6850 C   0  0  0  0  0  0  0  0  0  0  0  0
  143.1443   80.6095  224.4728 H   0  0  0  0  0  0  0  0  0  0  0  0
  141.8120   78.9700  223.9960 C   0  0  0  0  0  0  0  0  0  0  0  0
  141.7789   78.5893  225.0275 H   0  0  0  0  0  0  0  0  0  0  0  0
  141.0950   78.3270  222.9820 C   0  0  0  0  0  0  0  0  0  0  0  0
  140.4794   77.4462  223.2170 H   0  0  0  0  0  0  0  0  0  0  0  0
  140.4130   78.1160  220.5960 C   0  0  0  0  0  0  0  0  0  0  0  0
  139.4981   78.5833  220.2028 H   0  0  0  0  0  0  0  0  0  0  0  0
  141.4990   72.7360  221.5020 C   0  0  0  0  0  0  0  0  0  0  0  0
  141.7910   72.3638  220.5089 H   0  0  0  0  0  0  0  0  0  0  0  0
  142.2376   72.4455  222.2637 H   0  0  0  0  0  0  0  0  0  0  0  0
  140.1510   72.1230  221.8850 C   0  0  0  0  0  0  0  0  0  0  0  0
  139.3587   72.5565  221.2570 H   0  0  0  0  0  0  0  0  0  0  0  0
  140.1846   71.0344  221.7307 H   0  0  0  0  0  0  0  0  0  0  0  0
  139.8780   72.4020  223.2550 O   0  0  0  0  0  0  0  0  0  0  0  0
  140.0340   71.4770  224.2990 C   0  0  0  0  0  0  0  0  0  0  0  0
  141.0710   71.5860  225.2470 C   0  0  0  0  0  0  0  0  0  0  0  0
  141.8036   72.4024  225.1646 H   0  0  0  0  0  0  0  0  0  0  0  0
  141.1740   70.6630  226.2910 C   0  0  0  0  0  0  0  0  0  0  0  0
  141.9813   70.7602  227.0319 H   0  0  0  0  0  0  0  0  0  0  0  0
  140.2530   69.6160  226.3960 C   0  0  0  0  0  0  0  0  0  0  0  0
  140.3880   68.4540  227.7040 Cl  0  0  0  0  0  0  0  0  0  0  0  0
  139.2280   69.4930  225.4540 C   0  0  0  0  0  0  0  0  0  0  0  0
  138.5047   68.6682  225.5350 H   0  0  0  0  0  0  0  0  0  0  0  0
  139.1190   70.4170  224.4070 C   0  0  0  0  0  0  0  0  0  0  0  0
  137.8070   70.2520  223.2490 Cl  0  0  0  0  0  0  0  0  0  0  0  0
  1  2  1  0
  2  3  1  0
  3  4  1  0
  4  5  1  0
  5  6  2  0
  6  7  1  0
  6  8  1  0
  8  9  2  0
  9 10  1  0
  9 11  1  0
 11 12  2  0
 12 13  1  0
 12 14  1  0
 14 15  1  0
 14 16  2  0
 16 17  1  0
  3 18  2  0
 18 19  1  0
 18 20  1  0
 20 21  1  0
 20 22  1  0
 20 23  1  0
 23 24  1  0
 23 25  1  0
 23 26  1  0
 26 27  1  0
 27 28  2  0
 28 29  1  0
 28 30  1  0
 30 31  1  0
 30 32  2  0
 32 33  1  0
 32 34  1  0
 34 35  1  0
 34 36  2  0
 36 37  1  0
 16  8  1  0
 36 27  1  0
M  CHG  1   4  -1
M  END
>  <UniqueID>  (51) 
15

>  <SMILES>  (51) 
O/C(=C/CCOc1ccc(Cl)cc1Cl)[N-]/N=C\c1cccnc1F

>  <Energy>  (51) 
35.51302600902802

>  <Genealogy>  (51) 
O=C(CCCOc1ccc(Cl)cc1Cl)[N-]N=Cc1cccnc1F (protonated)
OC(=CCCOc1ccc(Cl)cc1Cl)[N-]N=Cc1cccnc1F (tautomer)
O/C(=C/CCOc1ccc(Cl)cc1Cl)[N-]/N=C\c1cccnc1F (cis-trans isomerization)
O/C(=C/CCOc1ccc(Cl)cc1Cl)[N-]/N=C\c1cccnc1F (3D coordinates assigned)
O/C(=C/CCOc1ccc(Cl)cc1Cl)[N-]/N=C\c1cccnc1F (optimized conformer: 35.51302600902802 kcal/mol)

>  <smiles>  (51) 
O=C(CCCOc1ccc(Cl)cc1Cl)NN=Cc1cccnc1F

>  <score_type>  (51) 
oracle

>  <origin>  (51) 
autodockgpu

>  <m_score__min__energy>  (51) 
-6.4500000000000002

>  <m_primary>  (51) 
energy

>  <meeko>  (51) 
{"free_energy": -5.48, "intermolecular_energy": -8.46, "internal_energy": -1.17, "cluster_size": 5, "cluster_id": 2, "rank_in_cluster": 5}

>  <energy>  (51) 
-5.87

>  <cluster_rmsd>  (51) 
1.4

>  <rmsd>  (51) 
272.05

>  <cluster>  (51) 
5

$$$$
QFPZKQQOUZJSQV-ZHMKIILHNA-N
     RDKit          3D

 37 38  0  0  0  0  0  0  0  0999 V2000
  139.2080   73.3890  223.4140 H   0  0  0  0  0  0  0  0  0  0  0  0
  139.9270   73.2560  222.7150 O   0  0  0  0  0  0  0  0  0  0  0  0
  140.1410   74.1850  221.6990 C   0  0  0  0  0  0  0  0  0  0  0  0
  141.0600   75.2660  221.8840 N   0  0  0  0  0  0  0  0  0  0  0  0
  140.7440   76.4010  222.6440 N   0  0  0  0  0  0  0  0  0  0  0  0
  140.5290   77.5560  222.0920 C   0  0  0  0  0  0  0  0  0  0  0  0
  139.9251   77.6012  221.1737 H   0  0  0  0  0  0  0  0  0  0  0  0
  141.0670   78.8120  222.6540 C   0  0  0  0  0  0  0  0  0  0  0  0
  140.2340   79.7370  223.3090 C   0  0  0  0  0  0  0  0  0  0  0  0
  138.9140   79.4790  223.4790 F   0  0  0  0  0  0  0  0  0  0  0  0
  140.7570   80.8860  223.8160 N   0  0  0  0  0  0  0  0  0  0  0  0
  142.0800   81.1770  223.7100 C   0  0  0  0  0  0  0  0  0  0  0  0
  142.4679   82.1232  224.1153 H   0  0  0  0  0  0  0  0  0  0  0  0
  142.9480   80.2780  223.0880 C   0  0  0  0  0  0  0  0  0  0  0  0
  144.0210   80.5064  223.0078 H   0  0  0  0  0  0  0  0  0  0  0  0
  142.4390   79.0840  222.5680 C   0  0  0  0  0  0  0  0  0  0  0  0
  143.1151   78.3587  222.0917 H   0  0  0  0  0  0  0  0  0  0  0  0
  139.4750   74.0560  220.5460 C   0  0  0  0  0  0  0  0  0  0  0  0
  138.6285   73.3551  220.5002 H   0  0  0  0  0  0  0  0  0  0  0  0
  139.8390   74.8330  219.3080 C   0  0  0  0  0  0  0  0  0  0  0  0
  138.9326   75.3089  218.9056 H   0  0  0  0  0  0  0  0  0  0  0  0
  140.5894   75.5885  219.5837 H   0  0  0  0  0  0  0  0  0  0  0  0
  140.4430   73.9280  218.2340 C   0  0  0  0  0  0  0  0  0  0  0  0
  140.4006   72.8813  218.5695 H   0  0  0  0  0  0  0  0  0  0  0  0
  139.8730   74.0356  217.2994 H   0  0  0  0  0  0  0  0  0  0  0  0
  141.8000   74.3010  218.0100 O   0  0  0  0  0  0  0  0  0  0  0  0
  142.8500   74.0510  218.9070 C   0  0  0  0  0  0  0  0  0  0  0  0
  143.3320   72.7500  219.1510 C   0  0  0  0  0  0  0  0  0  0  0  0
  142.8647   71.8905  218.6481 H   0  0  0  0  0  0  0  0  0  0  0  0
  144.4000   72.5450  220.0280 C   0  0  0  0  0  0  0  0  0  0  0  0
  144.7752   71.5267  220.2076 H   0  0  0  0  0  0  0  0  0  0  0  0
  144.9930   73.6320  220.6780 C   0  0  0  0  0  0  0  0  0  0  0  0
  146.3310   73.3720  221.7830 Cl  0  0  0  0  0  0  0  0  0  0  0  0
  144.5150   74.9250  220.4500 C   0  0  0  0  0  0  0  0  0  0  0  0
  144.9804   75.7799  220.9624 H   0  0  0  0  0  0  0  0  0  0  0  0
  143.4450   75.1360  219.5710 C   0  0  0  0  0  0  0  0  0  0  0  0
  142.8780   76.7750  219.2860 Cl  0  0  0  0  0  0  0  0  0  0  0  0
  1  2  1  0
  2  3  1  0
  3  4  1  0
  4  5  1  0
  5  6  2  0
  6  7  1  0
  6  8  1  0
  8  9  2  0
  9 10  1  0
  9 11  1  0
 11 12  2  0
 12 13  1  0
 12 14  1  0
 14 15  1  0
 14 16  2  0
 16 17  1  0
  3 18  2  0
 18 19  1  0
 18 20  1  0
 20 21  1  0
 20 22  1  0
 20 23  1  0
 23 24  1  0
 23 25  1  0
 23 26  1  0
 26 27  1  0
 27 28  2  0
 28 29  1  0
 28 30  1  0
 30 31  1  0
 30 32  2  0
 32 33  1  0
 32 34  1  0
 34 35  1  0
 34 36  2  0
 36 37  1  0
 16  8  1  0
 36 27  1  0
M  CHG  1   4  -1
M  END
>  <UniqueID>  (52) 
15

>  <SMILES>  (52) 
O/C(=C/CCOc1ccc(Cl)cc1Cl)[N-]/N=C\c1cccnc1F

>  <Energy>  (52) 
35.51302600902802

>  <Genealogy>  (52) 
O=C(CCCOc1ccc(Cl)cc1Cl)[N-]N=Cc1cccnc1F (protonated)
OC(=CCCOc1ccc(Cl)cc1Cl)[N-]N=Cc1cccnc1F (tautomer)
O/C(=C/CCOc1ccc(Cl)cc1Cl)[N-]/N=C\c1cccnc1F (cis-trans isomerization)
O/C(=C/CCOc1ccc(Cl)cc1Cl)[N-]/N=C\c1cccnc1F (3D coordinates assigned)
O/C(=C/CCOc1ccc(Cl)cc1Cl)[N-]/N=C\c1cccnc1F (optimized conformer: 35.51302600902802 kcal/mol)

>  <smiles>  (52) 
O=C(CCCOc1ccc(Cl)cc1Cl)NN=Cc1cccnc1F

>  <score_type>  (52) 
oracle

>  <origin>  (52) 
autodockgpu

>  <m_score__min__energy>  (52) 
-6.4500000000000002

>  <m_primary>  (52) 
energy

>  <meeko>  (52) 
{"free_energy": -5.17, "intermolecular_energy": -8.15, "internal_energy": -1.26, "cluster_size": 1, "cluster_id": 10, "rank_in_cluster": 1}

>  <energy>  (52) 
-5.81

>  <cluster_rmsd>  (52) 
0.0

>  <rmsd>  (52) 
271.06

>  <cluster>  (52) 
6

$$$$
QFPZKQQOUZJSQV-ZHMKIILHNA-N
     RDKit          3D

 37 38  0  0  0  0  0  0  0  0999 V2000
  139.1820   73.5550  223.0540 H   0  0  0  0  0  0  0  0  0  0  0  0
  139.2130   74.2990  222.3680 O   0  0  0  0  0  0  0  0  0  0  0  0
  140.5870   73.6790  220.5580 C   0  0  0  0  0  0  0  0  0  0  0  0
  141.2140   75.6140  221.8340 N   0  0  0  0  0  0  0  0  0  0  0  0
  140.8740   76.9380  221.5230 N   0  0  0  0  0  0  0  0  0  0  0  0
  140.3370   74.5140  221.5730 C   0  0  0  0  0  0  0  0  0  0  0  0
  140.8440   74.1023  219.5758 H   0  0  0  0  0  0  0  0  0  0  0  0
  141.0000   78.9650  222.8620 C   0  0  0  0  0  0  0  0  0  0  0  0
  140.2680   80.0170  223.4430 C   0  0  0  0  0  0  0  0  0  0  0  0
  138.9300   79.9060  223.6330 F   0  0  0  0  0  0  0  0  0  0  0  0
  140.9070   81.1430  223.8590 N   0  0  0  0  0  0  0  0  0  0  0  0
  142.2520   81.2920  223.7310 C   0  0  0  0  0  0  0  0  0  0  0  0
  142.7358   82.2229  224.0617 H   0  0  0  0  0  0  0  0  0  0  0  0
  143.0200   80.2640  223.1800 C   0  0  0  0  0  0  0  0  0  0  0  0
  144.1098   80.3763  223.0814 H   0  0  0  0  0  0  0  0  0  0  0  0
  142.3900   79.0910  222.7550 C   0  0  0  0  0  0  0  0  0  0  0  0
  142.9864   78.2669  222.3365 H   0  0  0  0  0  0  0  0  0  0  0  0
  140.3350   77.7300  222.3990 C   0  0  0  0  0  0  0  0  0  0  0  0
  139.3482   77.4723  222.8111 H   0  0  0  0  0  0  0  0  0  0  0  0
  140.5300   72.1810  220.7090 C   0  0  0  0  0  0  0  0  0  0  0  0
  139.4835   71.8530  220.6233 H   0  0  0  0  0  0  0  0  0  0  0  0
  141.1483   71.7314  219.9181 H   0  0  0  0  0  0  0  0  0  0  0  0
  141.0820   71.7310  222.0620 C   0  0  0  0  0  0  0  0  0  0  0  0
  141.6048   70.7704  221.9441 H   0  0  0  0  0  0  0  0  0  0  0  0
  141.7862   72.4861  222.4414 H   0  0  0  0  0  0  0  0  0  0  0  0
  140.0060   71.5770  222.9840 O   0  0  0  0  0  0  0  0  0  0  0  0
  140.1170   70.9490  224.2340 C   0  0  0  0  0  0  0  0  0  0  0  0
  140.8220   71.5330  225.3050 C   0  0  0  0  0  0  0  0  0  0  0  0
  141.3274   72.4999  225.1644 H   0  0  0  0  0  0  0  0  0  0  0  0
  140.8830   70.8910  226.5450 C   0  0  0  0  0  0  0  0  0  0  0  0
  141.4293   71.3570  227.3783 H   0  0  0  0  0  0  0  0  0  0  0  0
  140.2510   69.6580  226.7280 C   0  0  0  0  0  0  0  0  0  0  0  0
  140.3330   68.8510  228.2840 Cl  0  0  0  0  0  0  0  0  0  0  0  0
  139.5590   69.0660  225.6690 C   0  0  0  0  0  0  0  0  0  0  0  0
  139.0639   68.0943  225.8131 H   0  0  0  0  0  0  0  0  0  0  0  0
  139.4930   69.7050  224.4240 C   0  0  0  0  0  0  0  0  0  0  0  0
  138.5970   68.9480  223.1150 Cl  0  0  0  0  0  0  0  0  0  0  0  0
  1  2  1  0
  2  3  1  0
  3  4  1  0
  4  5  1  0
  5  6  2  0
  6  7  1  0
  6  8  1  0
  8  9  2  0
  9 10  1  0
  9 11  1  0
 11 12  2  0
 12 13  1  0
 12 14  1  0
 14 15  1  0
 14 16  2  0
 16 17  1  0
  3 18  2  0
 18 19  1  0
 18 20  1  0
 20 21  1  0
 20 22  1  0
 20 23  1  0
 23 24  1  0
 23 25  1  0
 23 26  1  0
 26 27  1  0
 27 28  2  0
 28 29  1  0
 28 30  1  0
 30 31  1  0
 30 32  2  0
 32 33  1  0
 32 34  1  0
 34 35  1  0
 34 36  2  0
 36 37  1  0
 16  8  1  0
 36 27  1  0
M  CHG  1   4  -1
M  END
>  <UniqueID>  (53) 
15

>  <SMILES>  (53) 
O/C(=C/CCOc1ccc(Cl)cc1Cl)[N-]/N=C\c1cccnc1F

>  <Energy>  (53) 
35.51302600902802

>  <Genealogy>  (53) 
O=C(CCCOc1ccc(Cl)cc1Cl)[N-]N=Cc1cccnc1F (protonated)
OC(=CCCOc1ccc(Cl)cc1Cl)[N-]N=Cc1cccnc1F (tautomer)
O/C(=C/CCOc1ccc(Cl)cc1Cl)[N-]/N=C\c1cccnc1F (cis-trans isomerization)
O/C(=C/CCOc1ccc(Cl)cc1Cl)[N-]/N=C\c1cccnc1F (3D coordinates assigned)
O/C(=C/CCOc1ccc(Cl)cc1Cl)[N-]/N=C\c1cccnc1F (optimized conformer: 35.51302600902802 kcal/mol)

>  <smiles>  (53) 
O=C(CCCOc1ccc(Cl)cc1Cl)NN=Cc1cccnc1F

>  <score_type>  (53) 
oracle

>  <origin>  (53) 
autodockgpu

>  <m_score__min__energy>  (53) 
-6.4500000000000002

>  <m_primary>  (53) 
energy

>  <meeko>  (53) 
{"free_energy": -5.96, "intermolecular_energy": -8.95, "internal_energy": -1.11, "cluster_size": 5, "cluster_id": 2, "rank_in_cluster": 2}

>  <energy>  (53) 
-5.73

>  <cluster_rmsd>  (53) 
0.74

>  <rmsd>  (53) 
270.96

>  <cluster>  (53) 
6

$$$$
QFPZKQQOUZJSQV-ZHMKIILHNA-N
     RDKit          3D

 37 38  0  0  0  0  0  0  0  0999 V2000
  146.3600   71.5530  221.1280 H   0  0  0  0  0  0  0  0  0  0  0  0
  146.6790   72.0500  220.3050 O   0  0  0  0  0  0  0  0  0  0  0  0
  145.8680   72.9740  219.6490 C   0  0  0  0  0  0  0  0  0  0  0  0
  145.8150   73.0090  218.2200 N   0  0  0  0  0  0  0  0  0  0  0  0
  145.9570   71.8570  217.4340 N   0  0  0  0  0  0  0  0  0  0  0  0
  145.0880   70.8930  217.4690 C   0  0  0  0  0  0  0  0  0  0  0  0
  144.1102   71.0419  216.9876 H   0  0  0  0  0  0  0  0  0  0  0  0
  145.3670   69.6030  218.1330 C   0  0  0  0  0  0  0  0  0  0  0  0
  144.9290   69.3450  219.4450 C   0  0  0  0  0  0  0  0  0  0  0  0
  144.1980   70.2650  220.1230 F   0  0  0  0  0  0  0  0  0  0  0  0
  145.2000   68.1480  220.0320 N   0  0  0  0  0  0  0  0  0  0  0  0
  145.8930   67.1750  219.3840 C   0  0  0  0  0  0  0  0  0  0  0  0
  146.1117   66.2249  219.8933 H   0  0  0  0  0  0  0  0  0  0  0  0
  146.3280   67.3790  218.0730 C   0  0  0  0  0  0  0  0  0  0  0  0
  146.8819   66.5907  217.5422 H   0  0  0  0  0  0  0  0  0  0  0  0
  146.0520   68.5960  217.4420 C   0  0  0  0  0  0  0  0  0  0  0  0
  146.3729   68.7622  216.4031 H   0  0  0  0  0  0  0  0  0  0  0  0
  145.1390   73.8310  220.3720 C   0  0  0  0  0  0  0  0  0  0  0  0
  145.3500   73.9285  221.4471 H   0  0  0  0  0  0  0  0  0  0  0  0
  144.0400   74.6680  219.7710 C   0  0  0  0  0  0  0  0  0  0  0  0
  144.1102   75.6903  220.1710 H   0  0  0  0  0  0  0  0  0  0  0  0
  144.1632   74.6652  218.6779 H   0  0  0  0  0  0  0  0  0  0  0  0
  142.6580   74.1000  220.0990 C   0  0  0  0  0  0  0  0  0  0  0  0
  142.4510   73.2382  219.4475 H   0  0  0  0  0  0  0  0  0  0  0  0
  142.6326   73.7771  221.1502 H   0  0  0  0  0  0  0  0  0  0  0  0
  141.6720   75.1060  219.8850 O   0  0  0  0  0  0  0  0  0  0  0  0
  141.5410   76.2670  220.6640 C   0  0  0  0  0  0  0  0  0  0  0  0
  141.0450   76.2310  221.9820 C   0  0  0  0  0  0  0  0  0  0  0  0
  140.7229   75.2745  222.4195 H   0  0  0  0  0  0  0  0  0  0  0  0
  140.9600   77.4050  222.7370 C   0  0  0  0  0  0  0  0  0  0  0  0
  140.5791   77.3680  223.7683 H   0  0  0  0  0  0  0  0  0  0  0  0
  141.3580   78.6250  222.1840 C   0  0  0  0  0  0  0  0  0  0  0  0
  141.2460   80.0980  223.1310 Cl  0  0  0  0  0  0  0  0  0  0  0  0
  141.8410   78.6710  220.8730 C   0  0  0  0  0  0  0  0  0  0  0  0
  142.1523   79.6318  220.4371 H   0  0  0  0  0  0  0  0  0  0  0  0
  141.9300   77.4990  220.1130 C   0  0  0  0  0  0  0  0  0  0  0  0
  142.5620   77.5820  218.4750 Cl  0  0  0  0  0  0  0  0  0  0  0  0
  1  2  1  0
  2  3  1  0
  3  4  1  0
  4  5  1  0
  5  6  2  0
  6  7  1  0
  6  8  1  0
  8  9  2  0
  9 10  1  0
  9 11  1  0
 11 12  2  0
 12 13  1  0
 12 14  1  0
 14 15  1  0
 14 16  2  0
 16 17  1  0
  3 18  2  0
 18 19  1  0
 18 20  1  0
 20 21  1  0
 20 22  1  0
 20 23  1  0
 23 24  1  0
 23 25  1  0
 23 26  1  0
 26 27  1  0
 27 28  2  0
 28 29  1  0
 28 30  1  0
 30 31  1  0
 30 32  2  0
 32 33  1  0
 32 34  1  0
 34 35  1  0
 34 36  2  0
 36 37  1  0
 16  8  1  0
 36 27  1  0
M  CHG  1   4  -1
M  END
>  <UniqueID>  (54) 
15

>  <SMILES>  (54) 
O/C(=C/CCOc1ccc(Cl)cc1Cl)[N-]/N=C\c1cccnc1F

>  <Energy>  (54) 
35.51302600902802

>  <Genealogy>  (54) 
O=C(CCCOc1ccc(Cl)cc1Cl)[N-]N=Cc1cccnc1F (protonated)
OC(=CCCOc1ccc(Cl)cc1Cl)[N-]N=Cc1cccnc1F (tautomer)
O/C(=C/CCOc1ccc(Cl)cc1Cl)[N-]/N=C\c1cccnc1F (cis-trans isomerization)
O/C(=C/CCOc1ccc(Cl)cc1Cl)[N-]/N=C\c1cccnc1F (3D coordinates assigned)
O/C(=C/CCOc1ccc(Cl)cc1Cl)[N-]/N=C\c1cccnc1F (optimized conformer: 35.51302600902802 kcal/mol)

>  <smiles>  (54) 
O=C(CCCOc1ccc(Cl)cc1Cl)NN=Cc1cccnc1F

>  <score_type>  (54) 
oracle

>  <origin>  (54) 
autodockgpu

>  <m_score__min__energy>  (54) 
-6.4500000000000002

>  <m_primary>  (54) 
energy

>  <meeko>  (54) 
{"free_energy": -6.45, "intermolecular_energy": -9.43, "internal_energy": -0.67, "cluster_size": 2, "cluster_id": 1, "rank_in_cluster": 1}

>  <energy>  (54) 
-5.51

>  <cluster_rmsd>  (54) 
0.0

>  <rmsd>  (54) 
271.34

>  <cluster>  (54) 
7

$$$$
QFPZKQQOUZJSQV-ZHMKIILHNA-N
     RDKit          3D

 37 38  0  0  0  0  0  0  0  0999 V2000
  141.8490   76.1330  222.0610 H   0  0  0  0  0  0  0  0  0  0  0  0
  141.5730   75.1620  221.9790 O   0  0  0  0  0  0  0  0  0  0  0  0
  140.2980   74.7980  221.5490 C   0  0  0  0  0  0  0  0  0  0  0  0
  139.2520   75.7700  221.4690 N   0  0  0  0  0  0  0  0  0  0  0  0
  139.0060   76.6950  222.4930 N   0  0  0  0  0  0  0  0  0  0  0  0
  139.0170   77.9760  222.2760 C   0  0  0  0  0  0  0  0  0  0  0  0
  138.1726   78.4302  221.7369 H   0  0  0  0  0  0  0  0  0  0  0  0
  140.1240   78.8440  222.7280 C   0  0  0  0  0  0  0  0  0  0  0  0
  139.8790   80.0260  223.4510 C   0  0  0  0  0  0  0  0  0  0  0  0
  138.6140   80.3790  223.7900 F   0  0  0  0  0  0  0  0  0  0  0  0
  140.9180   80.8060  223.8540 N   0  0  0  0  0  0  0  0  0  0  0  0
  142.2070   80.4790  223.5770 C   0  0  0  0  0  0  0  0  0  0  0  0
  143.0231   81.1415  223.9010 H   0  0  0  0  0  0  0  0  0  0  0  0
  142.4980   79.3040  222.8820 C   0  0  0  0  0  0  0  0  0  0  0  0
  143.5411   79.0314  222.6638 H   0  0  0  0  0  0  0  0  0  0  0  0
  141.4500   78.4770  222.4660 C   0  0  0  0  0  0  0  0  0  0  0  0
  141.6668   77.5392  221.9336 H   0  0  0  0  0  0  0  0  0  0  0  0
  140.0630   73.5250  221.2110 C   0  0  0  0  0  0  0  0  0  0  0  0
  140.4505   73.1529  220.2511 H   0  0  0  0  0  0  0  0  0  0  0  0
  139.2890   72.5820  222.0930 C   0  0  0  0  0  0  0  0  0  0  0  0
  138.5295   73.1533  222.6469 H   0  0  0  0  0  0  0  0  0  0  0  0
  138.8184   71.8205  221.4537 H   0  0  0  0  0  0  0  0  0  0  0  0
  140.2020   71.8700  223.0930 C   0  0  0  0  0  0  0  0  0  0  0  0
  140.4103   70.8498  222.7383 H   0  0  0  0  0  0  0  0  0  0  0  0
  141.1477   72.4240  223.1872 H   0  0  0  0  0  0  0  0  0  0  0  0
  139.5560   71.8100  224.3620 O   0  0  0  0  0  0  0  0  0  0  0  0
  139.9500   70.9670  225.4130 C   0  0  0  0  0  0  0  0  0  0  0  0
  140.6700   71.4450  226.5260 C   0  0  0  0  0  0  0  0  0  0  0  0
  140.9613   72.5046  226.5751 H   0  0  0  0  0  0  0  0  0  0  0  0
  141.0160   70.5800  227.5680 C   0  0  0  0  0  0  0  0  0  0  0  0
  141.5707   70.9627  228.4374 H   0  0  0  0  0  0  0  0  0  0  0  0
  140.6590   69.2300  227.5080 C   0  0  0  0  0  0  0  0  0  0  0  0
  141.0990   68.1450  228.8140 Cl  0  0  0  0  0  0  0  0  0  0  0  0
  139.9540   68.7450  226.4020 C   0  0  0  0  0  0  0  0  0  0  0  0
  139.6741   67.6823  226.3536 H   0  0  0  0  0  0  0  0  0  0  0  0
  139.6030   69.6070  225.3560 C   0  0  0  0  0  0  0  0  0  0  0  0
  138.6970   68.9750  223.9890 Cl  0  0  0  0  0  0  0  0  0  0  0  0
  1  2  1  0
  2  3  1  0
  3  4  1  0
  4  5  1  0
  5  6  2  0
  6  7  1  0
  6  8  1  0
  8  9  2  0
  9 10  1  0
  9 11  1  0
 11 12  2  0
 12 13  1  0
 12 14  1  0
 14 15  1  0
 14 16  2  0
 16 17  1  0
  3 18  2  0
 18 19  1  0
 18 20  1  0
 20 21  1  0
 20 22  1  0
 20 23  1  0
 23 24  1  0
 23 25  1  0
 23 26  1  0
 26 27  1  0
 27 28  2  0
 28 29  1  0
 28 30  1  0
 30 31  1  0
 30 32  2  0
 32 33  1  0
 32 34  1  0
 34 35  1  0
 34 36  2  0
 36 37  1  0
 16  8  1  0
 36 27  1  0
M  CHG  1   4  -1
M  END
>  <UniqueID>  (55) 
15

>  <SMILES>  (55) 
O/C(=C/CCOc1ccc(Cl)cc1Cl)[N-]/N=C\c1cccnc1F

>  <Energy>  (55) 
35.51302600902802

>  <Genealogy>  (55) 
O=C(CCCOc1ccc(Cl)cc1Cl)[N-]N=Cc1cccnc1F (protonated)
OC(=CCCOc1ccc(Cl)cc1Cl)[N-]N=Cc1cccnc1F (tautomer)
O/C(=C/CCOc1ccc(Cl)cc1Cl)[N-]/N=C\c1cccnc1F (cis-trans isomerization)
O/C(=C/CCOc1ccc(Cl)cc1Cl)[N-]/N=C\c1cccnc1F (3D coordinates assigned)
O/C(=C/CCOc1ccc(Cl)cc1Cl)[N-]/N=C\c1cccnc1F (optimized conformer: 35.51302600902802 kcal/mol)

>  <smiles>  (55) 
O=C(CCCOc1ccc(Cl)cc1Cl)NN=Cc1cccnc1F

>  <score_type>  (55) 
oracle

>  <origin>  (55) 
autodockgpu

>  <m_score__min__energy>  (55) 
-6.4500000000000002

>  <m_primary>  (55) 
energy

>  <meeko>  (55) 
{"free_energy": -5.89, "intermolecular_energy": -8.87, "internal_energy": -0.55, "cluster_size": 5, "cluster_id": 2, "rank_in_cluster": 3}

>  <energy>  (55) 
-5.46

>  <cluster_rmsd>  (55) 
0.0

>  <rmsd>  (55) 
271.79

>  <cluster>  (55) 
8

$$$$
QFPZKQQOUZJSQV-ZHMKIILHNA-N
     RDKit          3D

 37 38  0  0  0  0  0  0  0  0999 V2000
  140.0080   75.0180  221.4900 H   0  0  0  0  0  0  0  0  0  0  0  0
  139.8830   74.3990  222.2810 O   0  0  0  0  0  0  0  0  0  0  0  0
  141.1090   72.6700  221.2530 C   0  0  0  0  0  0  0  0  0  0  0  0
  139.8860   72.1460  223.2510 N   0  0  0  0  0  0  0  0  0  0  0  0
  140.7800   71.5760  224.1680 N   0  0  0  0  0  0  0  0  0  0  0  0
  140.3050   73.0710  222.2440 C   0  0  0  0  0  0  0  0  0  0  0  0
  141.4444   71.6225  221.2355 H   0  0  0  0  0  0  0  0  0  0  0  0
  140.2140   69.9490  225.8860 C   0  0  0  0  0  0  0  0  0  0  0  0
  139.3820   69.0490  225.1960 C   0  0  0  0  0  0  0  0  0  0  0  0
  138.7900   69.4110  224.0300 F   0  0  0  0  0  0  0  0  0  0  0  0
  139.1960   67.7890  225.6730 N   0  0  0  0  0  0  0  0  0  0  0  0
  139.7970   67.3600  226.8140 C   0  0  0  0  0  0  0  0  0  0  0  0
  139.6119   66.3402  227.1824 H   0  0  0  0  0  0  0  0  0  0  0  0
  140.6490   68.2120  227.5190 C   0  0  0  0  0  0  0  0  0  0  0  0
  141.1440   67.8662  228.4385 H   0  0  0  0  0  0  0  0  0  0  0  0
  140.8670   69.5090  227.0450 C   0  0  0  0  0  0  0  0  0  0  0  0
  141.5506   70.1835  227.5814 H   0  0  0  0  0  0  0  0  0  0  0  0
  140.4360   71.3240  225.3940 C   0  0  0  0  0  0  0  0  0  0  0  0
  140.3051   72.1644  226.0915 H   0  0  0  0  0  0  0  0  0  0  0  0
  141.5730   73.5970  220.1600 C   0  0  0  0  0  0  0  0  0  0  0  0
  142.3212   73.0767  219.5440 H   0  0  0  0  0  0  0  0  0  0  0  0
  140.6989   73.8833  219.5566 H   0  0  0  0  0  0  0  0  0  0  0  0
  142.1990   74.8710  220.7320 C   0  0  0  0  0  0  0  0  0  0  0  0
  142.4726   74.7054  221.7845 H   0  0  0  0  0  0  0  0  0  0  0  0
  143.1007   75.1287  220.1571 H   0  0  0  0  0  0  0  0  0  0  0  0
  141.2580   75.9370  220.6470 O   0  0  0  0  0  0  0  0  0  0  0  0
  141.3750   77.1540  221.3370 C   0  0  0  0  0  0  0  0  0  0  0  0
  141.0810   77.2670  222.7100 C   0  0  0  0  0  0  0  0  0  0  0  0
  140.7237   76.3885  223.2672 H   0  0  0  0  0  0  0  0  0  0  0  0
  141.2410   78.4900  223.3680 C   0  0  0  0  0  0  0  0  0  0  0  0
  141.0178   78.5683  224.4423 H   0  0  0  0  0  0  0  0  0  0  0  0
  141.6840   79.6140  222.6640 C   0  0  0  0  0  0  0  0  0  0  0  0
  141.8780   81.1490  223.4910 Cl  0  0  0  0  0  0  0  0  0  0  0  0
  141.9670   79.5130  221.2990 C   0  0  0  0  0  0  0  0  0  0  0  0
  142.3142   80.3972  220.7443 H   0  0  0  0  0  0  0  0  0  0  0  0
  141.8100   78.2900  220.6350 C   0  0  0  0  0  0  0  0  0  0  0  0
  142.1950   78.1870  218.9230 Cl  0  0  0  0  0  0  0  0  0  0  0  0
  1  2  1  0
  2  3  1  0
  3  4  1  0
  4  5  1  0
  5  6  2  0
  6  7  1  0
  6  8  1  0
  8  9  2  0
  9 10  1  0
  9 11  1  0
 11 12  2  0
 12 13  1  0
 12 14  1  0
 14 15  1  0
 14 16  2  0
 16 17  1  0
  3 18  2  0
 18 19  1  0
 18 20  1  0
 20 21  1  0
 20 22  1  0
 20 23  1  0
 23 24  1  0
 23 25  1  0
 23 26  1  0
 26 27  1  0
 27 28  2  0
 28 29  1  0
 28 30  1  0
 30 31  1  0
 30 32  2  0
 32 33  1  0
 32 34  1  0
 34 35  1  0
 34 36  2  0
 36 37  1  0
 16  8  1  0
 36 27  1  0
M  CHG  1   4  -1
M  END
>  <UniqueID>  (56) 
15

>  <SMILES>  (56) 
O/C(=C/CCOc1ccc(Cl)cc1Cl)[N-]/N=C\c1cccnc1F

>  <Energy>  (56) 
35.51302600902802

>  <Genealogy>  (56) 
O=C(CCCOc1ccc(Cl)cc1Cl)[N-]N=Cc1cccnc1F (protonated)
OC(=CCCOc1ccc(Cl)cc1Cl)[N-]N=Cc1cccnc1F (tautomer)
O/C(=C/CCOc1ccc(Cl)cc1Cl)[N-]/N=C\c1cccnc1F (cis-trans isomerization)
O/C(=C/CCOc1ccc(Cl)cc1Cl)[N-]/N=C\c1cccnc1F (3D coordinates assigned)
O/C(=C/CCOc1ccc(Cl)cc1Cl)[N-]/N=C\c1cccnc1F (optimized conformer: 35.51302600902802 kcal/mol)

>  <smiles>  (56) 
O=C(CCCOc1ccc(Cl)cc1Cl)NN=Cc1cccnc1F

>  <score_type>  (56) 
oracle

>  <origin>  (56) 
autodockgpu

>  <m_score__min__energy>  (56) 
-6.4500000000000002

>  <m_primary>  (56) 
energy

>  <meeko>  (56) 
{"free_energy": -5.97, "intermolecular_energy": -8.95, "internal_energy": -1.03, "cluster_size": 1, "cluster_id": 3, "rank_in_cluster": 1}

>  <energy>  (56) 
-5.36

>  <cluster_rmsd>  (56) 
0.0

>  <rmsd>  (56) 
271.43

>  <cluster>  (56) 
9

$$$$
QFPZKQQOUZJSQV-ZHMKIILHNA-N
     RDKit          3D

 37 38  0  0  0  0  0  0  0  0999 V2000
  139.1290   73.7630  223.0040 H   0  0  0  0  0  0  0  0  0  0  0  0
  139.5510   74.3990  222.3400 O   0  0  0  0  0  0  0  0  0  0  0  0
  140.6030   74.0030  221.5150 C   0  0  0  0  0  0  0  0  0  0  0  0
  140.9600   74.7800  220.3680 N   0  0  0  0  0  0  0  0  0  0  0  0
  141.5390   74.2100  219.2260 N   0  0  0  0  0  0  0  0  0  0  0  0
  142.7110   74.5730  218.8000 C   0  0  0  0  0  0  0  0  0  0  0  0
  142.7761   75.3511  218.0252 H   0  0  0  0  0  0  0  0  0  0  0  0
  143.9600   73.9780  219.3190 C   0  0  0  0  0  0  0  0  0  0  0  0
  144.8290   73.2550  218.4830 C   0  0  0  0  0  0  0  0  0  0  0  0
  144.5630   73.1210  217.1590 F   0  0  0  0  0  0  0  0  0  0  0  0
  145.9720   72.7180  218.9890 N   0  0  0  0  0  0  0  0  0  0  0  0
  146.3090   72.8560  220.2980 C   0  0  0  0  0  0  0  0  0  0  0  0
  147.2311   72.3932  220.6795 H   0  0  0  0  0  0  0  0  0  0  0  0
  145.4870   73.5840  221.1590 C   0  0  0  0  0  0  0  0  0  0  0  0
  145.7601   73.7053  222.2176 H   0  0  0  0  0  0  0  0  0  0  0  0
  144.3120   74.1580  220.6620 C   0  0  0  0  0  0  0  0  0  0  0  0
  143.6652   74.7503  221.3259 H   0  0  0  0  0  0  0  0  0  0  0  0
  141.2760   72.8850  221.8090 C   0  0  0  0  0  0  0  0  0  0  0  0
  142.3096   72.9712  222.1754 H   0  0  0  0  0  0  0  0  0  0  0  0
  140.6740   71.5130  221.6580 C   0  0  0  0  0  0  0  0  0  0  0  0
  140.7479   71.2045  220.6047 H   0  0  0  0  0  0  0  0  0  0  0  0
  141.2272   70.8205  222.3094 H   0  0  0  0  0  0  0  0  0  0  0  0
  139.2030   71.4950  222.0790 C   0  0  0  0  0  0  0  0  0  0  0  0
  138.6315   72.1906  221.4469 H   0  0  0  0  0  0  0  0  0  0  0  0
  138.7987   70.4788  221.9612 H   0  0  0  0  0  0  0  0  0  0  0  0
  139.0980   71.8950  223.4420 O   0  0  0  0  0  0  0  0  0  0  0  0
  139.5550   71.1350  224.5300 C   0  0  0  0  0  0  0  0  0  0  0  0
  140.7010   71.4960  225.2660 C   0  0  0  0  0  0  0  0  0  0  0  0
  141.2800   72.3852  224.9759 H   0  0  0  0  0  0  0  0  0  0  0  0
  141.1060   70.7300  226.3630 C   0  0  0  0  0  0  0  0  0  0  0  0
  141.9971   71.0226  226.9378 H   0  0  0  0  0  0  0  0  0  0  0  0
  140.3810   69.5930  226.7310 C   0  0  0  0  0  0  0  0  0  0  0  0
  140.8940   68.6300  228.1050 Cl  0  0  0  0  0  0  0  0  0  0  0  0
  139.2490   69.2210  226.0000 C   0  0  0  0  0  0  0  0  0  0  0  0
  138.6795   68.3252  226.2886 H   0  0  0  0  0  0  0  0  0  0  0  0
  138.8380   69.9860  224.9010 C   0  0  0  0  0  0  0  0  0  0  0  0
  137.3980   69.5080  224.0130 Cl  0  0  0  0  0  0  0  0  0  0  0  0
  1  2  1  0
  2  3  1  0
  3  4  1  0
  4  5  1  0
  5  6  2  0
  6  7  1  0
  6  8  1  0
  8  9  2  0
  9 10  1  0
  9 11  1  0
 11 12  2  0
 12 13  1  0
 12 14  1  0
 14 15  1  0
 14 16  2  0
 16 17  1  0
  3 18  2  0
 18 19  1  0
 18 20  1  0
 20 21  1  0
 20 22  1  0
 20 23  1  0
 23 24  1  0
 23 25  1  0
 23 26  1  0
 26 27  1  0
 27 28  2  0
 28 29  1  0
 28 30  1  0
 30 31  1  0
 30 32  2  0
 32 33  1  0
 32 34  1  0
 34 35  1  0
 34 36  2  0
 36 37  1  0
 16  8  1  0
 36 27  1  0
M  CHG  1   4  -1
M  END
>  <UniqueID>  (57) 
15

>  <SMILES>  (57) 
O/C(=C/CCOc1ccc(Cl)cc1Cl)[N-]/N=C\c1cccnc1F

>  <Energy>  (57) 
35.51302600902802

>  <Genealogy>  (57) 
O=C(CCCOc1ccc(Cl)cc1Cl)[N-]N=Cc1cccnc1F (protonated)
OC(=CCCOc1ccc(Cl)cc1Cl)[N-]N=Cc1cccnc1F (tautomer)
O/C(=C/CCOc1ccc(Cl)cc1Cl)[N-]/N=C\c1cccnc1F (cis-trans isomerization)
O/C(=C/CCOc1ccc(Cl)cc1Cl)[N-]/N=C\c1cccnc1F (3D coordinates assigned)
O/C(=C/CCOc1ccc(Cl)cc1Cl)[N-]/N=C\c1cccnc1F (optimized conformer: 35.51302600902802 kcal/mol)

>  <smiles>  (57) 
O=C(CCCOc1ccc(Cl)cc1Cl)NN=Cc1cccnc1F

>  <score_type>  (57) 
oracle

>  <origin>  (57) 
autodockgpu

>  <m_score__min__energy>  (57) 
-6.4500000000000002

>  <m_primary>  (57) 
energy

>  <meeko>  (57) 
{"free_energy": -5.73, "intermolecular_energy": -8.71, "internal_energy": -1.41, "cluster_size": 2, "cluster_id": 6, "rank_in_cluster": 2}

>  <energy>  (57) 
-5.17

>  <cluster_rmsd>  (57) 
0.0

>  <rmsd>  (57) 
271.32

>  <cluster>  (57) 
10

$$$$
QFPZKQQOUZJSQV-ZHMKIILHNA-N
     RDKit          3D

 37 38  0  0  0  0  0  0  0  0999 V2000
  139.0190   71.4060  224.0520 H   0  0  0  0  0  0  0  0  0  0  0  0
  138.2120   70.8980  224.3910 O   0  0  0  0  0  0  0  0  0  0  0  0
  137.9320   69.6010  223.9620 C   0  0  0  0  0  0  0  0  0  0  0  0
  137.9850   68.5040  224.8790 N   0  0  0  0  0  0  0  0  0  0  0  0
  139.1950   67.9510  225.3220 N   0  0  0  0  0  0  0  0  0  0  0  0
  139.7170   68.2750  226.4660 C   0  0  0  0  0  0  0  0  0  0  0  0
  139.8009   67.5059  227.2480 H   0  0  0  0  0  0  0  0  0  0  0  0
  140.2020   69.6400  226.7540 C   0  0  0  0  0  0  0  0  0  0  0  0
  140.7040   70.4700  225.7360 C   0  0  0  0  0  0  0  0  0  0  0  0
  140.7170   70.0500  224.4460 F   0  0  0  0  0  0  0  0  0  0  0  0
  141.1450   71.7220  226.0310 N   0  0  0  0  0  0  0  0  0  0  0  0
  141.1180   72.2090  227.2990 C   0  0  0  0  0  0  0  0  0  0  0  0
  141.4987   73.2198  227.5072 H   0  0  0  0  0  0  0  0  0  0  0  0
  140.6080   71.4290  228.3380 C   0  0  0  0  0  0  0  0  0  0  0  0
  140.5769   71.8225  229.3647 H   0  0  0  0  0  0  0  0  0  0  0  0
  140.1370   70.1420  228.0600 C   0  0  0  0  0  0  0  0  0  0  0  0
  139.7156   69.5241  228.8666 H   0  0  0  0  0  0  0  0  0  0  0  0
  137.6140   69.3930  222.6800 C   0  0  0  0  0  0  0  0  0  0  0  0
  137.0164   68.5066  222.4208 H   0  0  0  0  0  0  0  0  0  0  0  0
  138.0420   70.3250  221.5770 C   0  0  0  0  0  0  0  0  0  0  0  0
  137.5425   70.0265  220.6435 H   0  0  0  0  0  0  0  0  0  0  0  0
  137.7603   71.3491  221.8631 H   0  0  0  0  0  0  0  0  0  0  0  0
  139.5560   70.2870  221.3640 C   0  0  0  0  0  0  0  0  0  0  0  0
  139.9339   69.2797  221.5932 H   0  0  0  0  0  0  0  0  0  0  0  0
  139.7866   70.5341  220.3172 H   0  0  0  0  0  0  0  0  0  0  0  0
  140.1780   71.2360  222.2260 O   0  0  0  0  0  0  0  0  0  0  0  0
  140.3450   72.5950  221.9190 C   0  0  0  0  0  0  0  0  0  0  0  0
  139.3770   73.5630  222.2560 C   0  0  0  0  0  0  0  0  0  0  0  0
  138.4455   73.2548  222.7533 H   0  0  0  0  0  0  0  0  0  0  0  0
  139.5940   74.9110  221.9620 C   0  0  0  0  0  0  0  0  0  0  0  0
  138.8370   75.6608  222.2354 H   0  0  0  0  0  0  0  0  0  0  0  0
  140.7710   75.3100  221.3210 C   0  0  0  0  0  0  0  0  0  0  0  0
  141.0400   77.0030  220.9480 Cl  0  0  0  0  0  0  0  0  0  0  0  0
  141.7320   74.3560  220.9730 C   0  0  0  0  0  0  0  0  0  0  0  0
  142.6572   74.6688  220.4669 H   0  0  0  0  0  0  0  0  0  0  0  0
  141.5200   73.0030  221.2670 C   0  0  0  0  0  0  0  0  0  0  0  0
  142.7550   71.8270  220.8390 Cl  0  0  0  0  0  0  0  0  0  0  0  0
  1  2  1  0
  2  3  1  0
  3  4  1  0
  4  5  1  0
  5  6  2  0
  6  7  1  0
  6  8  1  0
  8  9  2  0
  9 10  1  0
  9 11  1  0
 11 12  2  0
 12 13  1  0
 12 14  1  0
 14 15  1  0
 14 16  2  0
 16 17  1  0
  3 18  2  0
 18 19  1  0
 18 20  1  0
 20 21  1  0
 20 22  1  0
 20 23  1  0
 23 24  1  0
 23 25  1  0
 23 26  1  0
 26 27  1  0
 27 28  2  0
 28 29  1  0
 28 30  1  0
 30 31  1  0
 30 32  2  0
 32 33  1  0
 32 34  1  0
 34 35  1  0
 34 36  2  0
 36 37  1  0
 16  8  1  0
 36 27  1  0
M  CHG  1   4  -1
M  END
>  <UniqueID>  (58) 
15

>  <SMILES>  (58) 
O/C(=C/CCOc1ccc(Cl)cc1Cl)[N-]/N=C\c1cccnc1F

>  <Energy>  (58) 
35.51302600902802

>  <Genealogy>  (58) 
O=C(CCCOc1ccc(Cl)cc1Cl)[N-]N=Cc1cccnc1F (protonated)
OC(=CCCOc1ccc(Cl)cc1Cl)[N-]N=Cc1cccnc1F (tautomer)
O/C(=C/CCOc1ccc(Cl)cc1Cl)[N-]/N=C\c1cccnc1F (cis-trans isomerization)
O/C(=C/CCOc1ccc(Cl)cc1Cl)[N-]/N=C\c1cccnc1F (3D coordinates assigned)
O/C(=C/CCOc1ccc(Cl)cc1Cl)[N-]/N=C\c1cccnc1F (optimized conformer: 35.51302600902802 kcal/mol)

>  <smiles>  (58) 
O=C(CCCOc1ccc(Cl)cc1Cl)NN=Cc1cccnc1F

>  <score_type>  (58) 
oracle

>  <origin>  (58) 
autodockgpu

>  <m_score__min__energy>  (58) 
-6.4500000000000002

>  <m_primary>  (58) 
energy

>  <meeko>  (58) 
{"free_energy": -4.52, "intermolecular_energy": -7.5, "internal_energy": -1.63, "cluster_size": 1, "cluster_id": 13, "rank_in_cluster": 1}

>  <energy>  (58) 
-5.14

>  <cluster_rmsd>  (58) 
0.0

>  <rmsd>  (58) 
271.37

>  <cluster>  (58) 
11

$$$$
QFPZKQQOUZJSQV-ZHMKIILHNA-N
     RDKit          3D

 37 38  0  0  0  0  0  0  0  0999 V2000
  142.1830   75.8090  221.6630 H   0  0  0  0  0  0  0  0  0  0  0  0
  141.7730   74.8920  221.5440 O   0  0  0  0  0  0  0  0  0  0  0  0
  139.5750   75.5340  220.9930 C   0  0  0  0  0  0  0  0  0  0  0  0
  139.8660   73.5920  222.3750 N   0  0  0  0  0  0  0  0  0  0  0  0
  140.6830   72.6020  222.9400 N   0  0  0  0  0  0  0  0  0  0  0  0
  140.3970   74.6890  221.6250 C   0  0  0  0  0  0  0  0  0  0  0  0
  139.1467   75.2308  220.0263 H   0  0  0  0  0  0  0  0  0  0  0  0
  140.2410   71.1490  224.8410 C   0  0  0  0  0  0  0  0  0  0  0  0
  139.5080   70.0670  225.3600 C   0  0  0  0  0  0  0  0  0  0  0  0
  138.7650   69.2800  224.5420 F   0  0  0  0  0  0  0  0  0  0  0  0
  139.5720   69.7740  226.6860 N   0  0  0  0  0  0  0  0  0  0  0  0
  140.3330   70.5030  227.5440 C   0  0  0  0  0  0  0  0  0  0  0  0
  140.3492   70.2501  228.6144 H   0  0  0  0  0  0  0  0  0  0  0  0
  141.0940   71.5720  227.0690 C   0  0  0  0  0  0  0  0  0  0  0  0
  141.7174   72.1600  227.7587 H   0  0  0  0  0  0  0  0  0  0  0  0
  141.0560   71.8880  225.7080 C   0  0  0  0  0  0  0  0  0  0  0  0
  141.6657   72.7164  225.3180 H   0  0  0  0  0  0  0  0  0  0  0  0
  140.1920   71.4940  223.4050 C   0  0  0  0  0  0  0  0  0  0  0  0
  139.7228   70.7868  222.7052 H   0  0  0  0  0  0  0  0  0  0  0  0
  139.2130   76.8840  221.5530 C   0  0  0  0  0  0  0  0  0  0  0  0
  138.9743   77.5633  220.7214 H   0  0  0  0  0  0  0  0  0  0  0  0
  138.3464   76.7596  222.2190 H   0  0  0  0  0  0  0  0  0  0  0  0
  140.3620   77.4810  222.3680 C   0  0  0  0  0  0  0  0  0  0  0  0
  140.0815   78.4858  222.7168 H   0  0  0  0  0  0  0  0  0  0  0  0
  140.5704   76.8381  223.2359 H   0  0  0  0  0  0  0  0  0  0  0  0
  141.5250   77.5690  221.5500 O   0  0  0  0  0  0  0  0  0  0  0  0
  141.7460   78.5690  220.5910 C   0  0  0  0  0  0  0  0  0  0  0  0
  141.5250   79.9340  220.8670 C   0  0  0  0  0  0  0  0  0  0  0  0
  141.1441   80.2378  221.8532 H   0  0  0  0  0  0  0  0  0  0  0  0
  141.7870   80.9030  219.8950 C   0  0  0  0  0  0  0  0  0  0  0  0
  141.6192   81.9664  220.1209 H   0  0  0  0  0  0  0  0  0  0  0  0
  142.2620   80.5240  218.6360 C   0  0  0  0  0  0  0  0  0  0  0  0
  142.5860   81.7420  217.4150 Cl  0  0  0  0  0  0  0  0  0  0  0  0
  142.4740   79.1720  218.3500 C   0  0  0  0  0  0  0  0  0  0  0  0
  142.8456   78.8732  217.3587 H   0  0  0  0  0  0  0  0  0  0  0  0
  142.2150   78.1970  219.3210 C   0  0  0  0  0  0  0  0  0  0  0  0
  142.5120   76.5070  218.9410 Cl  0  0  0  0  0  0  0  0  0  0  0  0
  1  2  1  0
  2  3  1  0
  3  4  1  0
  4  5  1  0
  5  6  2  0
  6  7  1  0
  6  8  1  0
  8  9  2  0
  9 10  1  0
  9 11  1  0
 11 12  2  0
 12 13  1  0
 12 14  1  0
 14 15  1  0
 14 16  2  0
 16 17  1  0
  3 18  2  0
 18 19  1  0
 18 20  1  0
 20 21  1  0
 20 22  1  0
 20 23  1  0
 23 24  1  0
 23 25  1  0
 23 26  1  0
 26 27  1  0
 27 28  2  0
 28 29  1  0
 28 30  1  0
 30 31  1  0
 30 32  2  0
 32 33  1  0
 32 34  1  0
 34 35  1  0
 34 36  2  0
 36 37  1  0
 16  8  1  0
 36 27  1  0
M  CHG  1   4  -1
M  END
>  <UniqueID>  (59) 
15

>  <SMILES>  (59) 
O/C(=C/CCOc1ccc(Cl)cc1Cl)[N-]/N=C\c1cccnc1F

>  <Energy>  (59) 
35.51302600902802

>  <Genealogy>  (59) 
O=C(CCCOc1ccc(Cl)cc1Cl)[N-]N=Cc1cccnc1F (protonated)
OC(=CCCOc1ccc(Cl)cc1Cl)[N-]N=Cc1cccnc1F (tautomer)
O/C(=C/CCOc1ccc(Cl)cc1Cl)[N-]/N=C\c1cccnc1F (cis-trans isomerization)
O/C(=C/CCOc1ccc(Cl)cc1Cl)[N-]/N=C\c1cccnc1F (3D coordinates assigned)
O/C(=C/CCOc1ccc(Cl)cc1Cl)[N-]/N=C\c1cccnc1F (optimized conformer: 35.51302600902802 kcal/mol)

>  <smiles>  (59) 
O=C(CCCOc1ccc(Cl)cc1Cl)NN=Cc1cccnc1F

>  <score_type>  (59) 
oracle

>  <origin>  (59) 
autodockgpu

>  <m_score__min__energy>  (59) 
-6.4500000000000002

>  <m_primary>  (59) 
energy

>  <meeko>  (59) 
{"free_energy": -5.36, "intermolecular_energy": -8.34, "internal_energy": -1.25, "cluster_size": 1, "cluster_id": 9, "rank_in_cluster": 1}

>  <energy>  (59) 
-4.98

>  <cluster_rmsd>  (59) 
0.0

>  <rmsd>  (59) 
271.07

>  <cluster>  (59) 
12

$$$$
QFPZKQQOUZJSQV-ZHMKIILHNA-N
     RDKit          3D

 37 38  0  0  0  0  0  0  0  0999 V2000
  139.2950   73.7220  223.0610 H   0  0  0  0  0  0  0  0  0  0  0  0
  139.1390   74.4560  222.3820 O   0  0  0  0  0  0  0  0  0  0  0  0
  140.1540   74.8960  221.5340 C   0  0  0  0  0  0  0  0  0  0  0  0
  140.4120   76.2940  221.3720 N   0  0  0  0  0  0  0  0  0  0  0  0
  141.5870   76.7780  220.7800 N   0  0  0  0  0  0  0  0  0  0  0  0
  141.7890   78.0480  220.5990 C   0  0  0  0  0  0  0  0  0  0  0  0
  141.8784   78.4299  219.5713 H   0  0  0  0  0  0  0  0  0  0  0  0
  141.9030   78.9980  221.7250 C   0  0  0  0  0  0  0  0  0  0  0  0
  142.1000   80.3730  221.5060 C   0  0  0  0  0  0  0  0  0  0  0  0
  142.1490   80.8720  220.2450 F   0  0  0  0  0  0  0  0  0  0  0  0
  142.2020   81.2240  222.5620 N   0  0  0  0  0  0  0  0  0  0  0  0
  142.1200   80.7850  223.8450 C   0  0  0  0  0  0  0  0  0  0  0  0
  142.2256   81.4969  224.6769 H   0  0  0  0  0  0  0  0  0  0  0  0
  141.9020   79.4320  224.1090 C   0  0  0  0  0  0  0  0  0  0  0  0
  141.8254   79.0736  225.1461 H   0  0  0  0  0  0  0  0  0  0  0  0
  141.7820   78.5370  223.0420 C   0  0  0  0  0  0  0  0  0  0  0  0
  141.5926   77.4710  223.2366 H   0  0  0  0  0  0  0  0  0  0  0  0
  140.8860   73.9940  220.8710 C   0  0  0  0  0  0  0  0  0  0  0  0
  140.9791   74.0882  219.7790 H   0  0  0  0  0  0  0  0  0  0  0  0
  141.5880   72.8540  221.5620 C   0  0  0  0  0  0  0  0  0  0  0  0
  142.2462   72.3493  220.8395 H   0  0  0  0  0  0  0  0  0  0  0  0
  142.1685   73.2648  222.4012 H   0  0  0  0  0  0  0  0  0  0  0  0
  140.5920   71.8370  222.1210 C   0  0  0  0  0  0  0  0  0  0  0  0
  139.7290   71.7579  221.4436 H   0  0  0  0  0  0  0  0  0  0  0  0
  141.0795   70.8548  222.2083 H   0  0  0  0  0  0  0  0  0  0  0  0
  140.1500   72.2650  223.4060 O   0  0  0  0  0  0  0  0  0  0  0  0
  140.2220   71.4840  224.5700 C   0  0  0  0  0  0  0  0  0  0  0  0
  141.0740   71.8170  225.6420 C   0  0  0  0  0  0  0  0  0  0  0  0
  141.7267   72.6994  225.5685 H   0  0  0  0  0  0  0  0  0  0  0  0
  141.0940   71.0320  226.7980 C   0  0  0  0  0  0  0  0  0  0  0  0
  141.7555   71.3029  227.6341 H   0  0  0  0  0  0  0  0  0  0  0  0
  140.2750   69.9030  226.8940 C   0  0  0  0  0  0  0  0  0  0  0  0
  140.3050   68.9150  228.3440 Cl  0  0  0  0  0  0  0  0  0  0  0  0
  139.4350   69.5590  225.8310 C   0  0  0  0  0  0  0  0  0  0  0  0
  138.7920   68.6696  225.9055 H   0  0  0  0  0  0  0  0  0  0  0  0
  139.4100   70.3440  224.6710 C   0  0  0  0  0  0  0  0  0  0  0  0
  138.3270   69.9010  223.3580 Cl  0  0  0  0  0  0  0  0  0  0  0  0
  1  2  1  0
  2  3  1  0
  3  4  1  0
  4  5  1  0
  5  6  2  0
  6  7  1  0
  6  8  1  0
  8  9  2  0
  9 10  1  0
  9 11  1  0
 11 12  2  0
 12 13  1  0
 12 14  1  0
 14 15  1  0
 14 16  2  0
 16 17  1  0
  3 18  2  0
 18 19  1  0
 18 20  1  0
 20 21  1  0
 20 22  1  0
 20 23  1  0
 23 24  1  0
 23 25  1  0
 23 26  1  0
 26 27  1  0
 27 28  2  0
 28 29  1  0
 28 30  1  0
 30 31  1  0
 30 32  2  0
 32 33  1  0
 32 34  1  0
 34 35  1  0
 34 36  2  0
 36 37  1  0
 16  8  1  0
 36 27  1  0
M  CHG  1   4  -1
M  END
>  <UniqueID>  (60) 
15

>  <SMILES>  (60) 
O/C(=C/CCOc1ccc(Cl)cc1Cl)[N-]/N=C\c1cccnc1F

>  <Energy>  (60) 
35.51302600902802

>  <Genealogy>  (60) 
O=C(CCCOc1ccc(Cl)cc1Cl)[N-]N=Cc1cccnc1F (protonated)
OC(=CCCOc1ccc(Cl)cc1Cl)[N-]N=Cc1cccnc1F (tautomer)
O/C(=C/CCOc1ccc(Cl)cc1Cl)[N-]/N=C\c1cccnc1F (cis-trans isomerization)
O/C(=C/CCOc1ccc(Cl)cc1Cl)[N-]/N=C\c1cccnc1F (3D coordinates assigned)
O/C(=C/CCOc1ccc(Cl)cc1Cl)[N-]/N=C\c1cccnc1F (optimized conformer: 35.51302600902802 kcal/mol)

>  <smiles>  (60) 
O=C(CCCOc1ccc(Cl)cc1Cl)NN=Cc1cccnc1F

>  <score_type>  (60) 
oracle

>  <origin>  (60) 
autodockgpu

>  <m_score__min__energy>  (60) 
-6.4500000000000002

>  <m_primary>  (60) 
energy

>  <meeko>  (60) 
{"free_energy": -5.86, "intermolecular_energy": -8.84, "internal_energy": -1.07, "cluster_size": 5, "cluster_id": 2, "rank_in_cluster": 4}

>  <energy>  (60) 
-4.52

>  <cluster_rmsd>  (60) 
0.0

>  <rmsd>  (60) 
271.21

>  <cluster>  (60) 
13

$$$$
AMYMGDKGSBDGMC-NYADSFOUNA-M
     RDKit          3D

 37 38  0  0  0  0  0  0  0  0999 V2000
  139.6122   70.4790  223.4423 H   0  0  0  0  0  0  0  0  0  0  0  0
  140.1670   71.1910  224.0710 C   0  0  0  0  0  0  0  0  0  0  0  0
  140.7030   72.2330  223.5250 N   0  0  0  0  0  0  0  0  0  0  0  0
  139.9480   73.0850  222.7090 N   0  0  0  0  0  0  0  0  0  0  0  0
  140.4730   73.5600  221.4700 C   0  0  0  0  0  0  0  0  0  0  0  0
  141.1550   72.7940  220.7360 O   0  0  0  0  0  0  0  0  0  0  0  0
  140.2270   74.9740  221.0460 C   0  0  0  0  0  0  0  0  0  0  0  0
  140.7818   75.6473  221.7160 H   0  0  0  0  0  0  0  0  0  0  0  0
  140.5661   75.0803  220.0050 H   0  0  0  0  0  0  0  0  0  0  0  0
  138.7350   75.3400  221.0990 C   0  0  0  0  0  0  0  0  0  0  0  0
  138.5115   76.0178  220.2620 H   0  0  0  0  0  0  0  0  0  0  0  0
  138.1659   74.4009  221.0340 H   0  0  0  0  0  0  0  0  0  0  0  0
  138.3260   76.0320  222.4110 C   0  0  0  0  0  0  0  0  0  0  0  0
  137.2971   75.7336  222.6608 H   0  0  0  0  0  0  0  0  0  0  0  0
  139.0391   75.7201  223.1884 H   0  0  0  0  0  0  0  0  0  0  0  0
  138.3800   77.4560  222.3210 O   0  0  0  0  0  0  0  0  0  0  0  0
  139.4030   78.3230  222.7540 C   0  0  0  0  0  0  0  0  0  0  0  0
  140.7130   77.8420  222.6180 C   0  0  0  0  0  0  0  0  0  0  0  0
  140.8776   76.8242  222.2347 H   0  0  0  0  0  0  0  0  0  0  0  0
  141.8110   78.6310  222.9600 C   0  0  0  0  0  0  0  0  0  0  0  0
  142.8311   78.2412  222.8282 H   0  0  0  0  0  0  0  0  0  0  0  0
  141.6150   79.9140  223.4690 C   0  0  0  0  0  0  0  0  0  0  0  0
  142.9960   80.9070  223.8980 Cl  0  0  0  0  0  0  0  0  0  0  0  0
  140.3190   80.3980  223.6540 C   0  0  0  0  0  0  0  0  0  0  0  0
  140.1692   81.4049  224.0707 H   0  0  0  0  0  0  0  0  0  0  0  0
  139.2060   79.6160  223.3150 C   0  0  0  0  0  0  0  0  0  0  0  0
  137.6330   80.2930  223.7190 Cl  0  0  0  0  0  0  0  0  0  0  0  0
  140.2840   70.9360  225.5230 C   0  0  0  0  0  0  0  0  0  0  0  0
  139.7720   69.7720  226.1350 C   0  0  0  0  0  0  0  0  0  0  0  0
  139.1390   68.8160  225.4100 F   0  0  0  0  0  0  0  0  0  0  0  0
  139.9160   69.5880  227.4750 N   0  0  0  0  0  0  0  0  0  0  0  0
  140.5450   70.4980  228.2630 C   0  0  0  0  0  0  0  0  0  0  0  0
  140.6410   70.3167  229.3437 H   0  0  0  0  0  0  0  0  0  0  0  0
  141.0690   71.6620  227.7020 C   0  0  0  0  0  0  0  0  0  0  0  0
  141.5793   72.4025  228.3354 H   0  0  0  0  0  0  0  0  0  0  0  0
  140.9400   71.8790  226.3290 C   0  0  0  0  0  0  0  0  0  0  0  0
  141.3541   72.7925  225.8773 H   0  0  0  0  0  0  0  0  0  0  0  0
  1  2  1  0
  2  3  2  0
  3  4  1  0
  4  5  1  0
  5  6  2  0
  5  7  1  0
  7  8  1  0
  7  9  1  0
  7 10  1  0
 10 11  1  0
 10 12  1  0
 10 13  1  0
 13 14  1  0
 13 15  1  0
 13 16  1  0
 16 17  1  0
 17 18  2  0
 18 19  1  0
 18 20  1  0
 20 21  1  0
 20 22  2  0
 22 23  1  0
 22 24  1  0
 24 25  1  0
 24 26  2  0
 26 27  1  0
  2 28  1  0
 28 29  2  0
 29 30  1  0
 29 31  1  0
 31 32  2  0
 32 33  1  0
 32 34  1  0
 34 35  1  0
 34 36  2  0
 36 37  1  0
 26 17  1  0
 36 28  1  0
M  CHG  1   4  -1
M  END
>  <UniqueID>  (61) 
16

>  <SMILES>  (61) 
O=C(CCCOc1ccc(Cl)cc1Cl)[N-]/N=C/c1cccnc1F

>  <Energy>  (61) 
37.80070138269376

>  <Genealogy>  (61) 
O=C(CCCOc1ccc(Cl)cc1Cl)[N-]N=Cc1cccnc1F (protonated)
O=C(CCCOc1ccc(Cl)cc1Cl)[N-]/N=C/c1cccnc1F (cis-trans isomerization)
O=C(CCCOc1ccc(Cl)cc1Cl)[N-]/N=C/c1cccnc1F (3D coordinates assigned)
O=C(CCCOc1ccc(Cl)cc1Cl)[N-]/N=C/c1cccnc1F (optimized conformer: 37.80070138269376 kcal/mol)

>  <smiles>  (61) 
O=C(CCCOc1ccc(Cl)cc1Cl)NN=Cc1cccnc1F

>  <score_type>  (61) 
oracle

>  <origin>  (61) 
autodockgpu

>  <m_score__min__energy>  (61) 
-6.3399999999999999

>  <m_primary>  (61) 
energy

>  <meeko>  (61) 
{"free_energy": -6.21, "intermolecular_energy": -8.89, "internal_energy": -0.58, "cluster_size": 8, "cluster_id": 1, "rank_in_cluster": 3}

>  <energy>  (61) 
-6.34

>  <cluster_rmsd>  (61) 
0.0

>  <rmsd>  (61) 
272.08

>  <cluster>  (61) 
1

$$$$
AMYMGDKGSBDGMC-NYADSFOUNA-M
     RDKit          3D

 37 38  0  0  0  0  0  0  0  0999 V2000
  140.5922   77.4038  220.1317 H   0  0  0  0  0  0  0  0  0  0  0  0
  141.1380   77.2610  221.0760 C   0  0  0  0  0  0  0  0  0  0  0  0
  141.4650   76.0650  221.4440 N   0  0  0  0  0  0  0  0  0  0  0  0
  140.6970   74.9590  221.0580 N   0  0  0  0  0  0  0  0  0  0  0  0
  139.5340   74.5870  221.7960 C   0  0  0  0  0  0  0  0  0  0  0  0
  139.1230   75.3150  222.7410 O   0  0  0  0  0  0  0  0  0  0  0  0
  138.8060   73.3230  221.4590 C   0  0  0  0  0  0  0  0  0  0  0  0
  138.0483   73.1323  222.2333 H   0  0  0  0  0  0  0  0  0  0  0  0
  138.3410   73.4519  220.4705 H   0  0  0  0  0  0  0  0  0  0  0  0
  139.7540   72.1150  221.3840 C   0  0  0  0  0  0  0  0  0  0  0  0
  139.1493   71.2024  221.2766 H   0  0  0  0  0  0  0  0  0  0  0  0
  140.4187   72.2746  220.5222 H   0  0  0  0  0  0  0  0  0  0  0  0
  140.6470   71.9660  222.6280 C   0  0  0  0  0  0  0  0  0  0  0  0
  141.2620   71.0611  222.5140 H   0  0  0  0  0  0  0  0  0  0  0  0
  141.2675   72.8712  222.7033 H   0  0  0  0  0  0  0  0  0  0  0  0
  139.8920   71.8570  223.8360 O   0  0  0  0  0  0  0  0  0  0  0  0
  140.0950   70.9790  224.9180 C   0  0  0  0  0  0  0  0  0  0  0  0
  140.8580   71.4810  225.9820 C   0  0  0  0  0  0  0  0  0  0  0  0
  141.2903   72.4898  225.9075 H   0  0  0  0  0  0  0  0  0  0  0  0
  141.0790   70.7250  227.1330 C   0  0  0  0  0  0  0  0  0  0  0  0
  141.6659   71.1452  227.9631 H   0  0  0  0  0  0  0  0  0  0  0  0
  140.5560   69.4370  227.2310 C   0  0  0  0  0  0  0  0  0  0  0  0
  140.8320   68.4860  228.6790 Cl  0  0  0  0  0  0  0  0  0  0  0  0
  139.8290   68.8980  226.1670 C   0  0  0  0  0  0  0  0  0  0  0  0
  139.4317   67.8750  226.2427 H   0  0  0  0  0  0  0  0  0  0  0  0
  139.6000   69.6460  225.0040 C   0  0  0  0  0  0  0  0  0  0  0  0
  138.7830   68.8060  223.6920 Cl  0  0  0  0  0  0  0  0  0  0  0  0
  141.4830   78.4410  221.8990 C   0  0  0  0  0  0  0  0  0  0  0  0
  141.7940   79.6970  221.3340 C   0  0  0  0  0  0  0  0  0  0  0  0
  141.7900   79.8850  219.9910 F   0  0  0  0  0  0  0  0  0  0  0  0
  142.0960   80.7490  222.1410 N   0  0  0  0  0  0  0  0  0  0  0  0
  142.1120   80.6370  223.4950 C   0  0  0  0  0  0  0  0  0  0  0  0
  142.3641   81.5092  224.1161 H   0  0  0  0  0  0  0  0  0  0  0  0
  141.8090   79.4170  224.0970 C   0  0  0  0  0  0  0  0  0  0  0  0
  141.8194   79.3211  225.1928 H   0  0  0  0  0  0  0  0  0  0  0  0
  141.4920   78.3170  223.2960 C   0  0  0  0  0  0  0  0  0  0  0  0
  141.2488   77.3509  223.7624 H   0  0  0  0  0  0  0  0  0  0  0  0
  1  2  1  0
  2  3  2  0
  3  4  1  0
  4  5  1  0
  5  6  2  0
  5  7  1  0
  7  8  1  0
  7  9  1  0
  7 10  1  0
 10 11  1  0
 10 12  1  0
 10 13  1  0
 13 14  1  0
 13 15  1  0
 13 16  1  0
 16 17  1  0
 17 18  2  0
 18 19  1  0
 18 20  1  0
 20 21  1  0
 20 22  2  0
 22 23  1  0
 22 24  1  0
 24 25  1  0
 24 26  2  0
 26 27  1  0
  2 28  1  0
 28 29  2  0
 29 30  1  0
 29 31  1  0
 31 32  2  0
 32 33  1  0
 32 34  1  0
 34 35  1  0
 34 36  2  0
 36 37  1  0
 26 17  1  0
 36 28  1  0
M  CHG  1   4  -1
M  END
>  <UniqueID>  (62) 
16

>  <SMILES>  (62) 
O=C(CCCOc1ccc(Cl)cc1Cl)[N-]/N=C/c1cccnc1F

>  <Energy>  (62) 
37.80070138269376

>  <Genealogy>  (62) 
O=C(CCCOc1ccc(Cl)cc1Cl)[N-]N=Cc1cccnc1F (protonated)
O=C(CCCOc1ccc(Cl)cc1Cl)[N-]/N=C/c1cccnc1F (cis-trans isomerization)
O=C(CCCOc1ccc(Cl)cc1Cl)[N-]/N=C/c1cccnc1F (3D coordinates assigned)
O=C(CCCOc1ccc(Cl)cc1Cl)[N-]/N=C/c1cccnc1F (optimized conformer: 37.80070138269376 kcal/mol)

>  <smiles>  (62) 
O=C(CCCOc1ccc(Cl)cc1Cl)NN=Cc1cccnc1F

>  <score_type>  (62) 
oracle

>  <origin>  (62) 
autodockgpu

>  <m_score__min__energy>  (62) 
-6.3399999999999999

>  <m_primary>  (62) 
energy

>  <meeko>  (62) 
{"free_energy": -5.68, "intermolecular_energy": -8.37, "internal_energy": -0.59, "cluster_size": 2, "cluster_id": 5, "rank_in_cluster": 1}

>  <energy>  (62) 
-6.28

>  <cluster_rmsd>  (62) 
1.22

>  <rmsd>  (62) 
272.06

>  <cluster>  (62) 
1

$$$$
AMYMGDKGSBDGMC-NYADSFOUNA-M
     RDKit          3D

 37 38  0  0  0  0  0  0  0  0999 V2000
  140.3514   72.1523  225.6657 H   0  0  0  0  0  0  0  0  0  0  0  0
  140.3460   71.3170  224.9500 C   0  0  0  0  0  0  0  0  0  0  0  0
  140.4790   71.5640  223.6870 N   0  0  0  0  0  0  0  0  0  0  0  0
  139.4320   72.1360  222.9520 N   0  0  0  0  0  0  0  0  0  0  0  0
  139.6440   73.3180  222.1830 C   0  0  0  0  0  0  0  0  0  0  0  0
  140.7290   73.9530  222.2830 O   0  0  0  0  0  0  0  0  0  0  0  0
  138.5710   73.8160  221.2650 C   0  0  0  0  0  0  0  0  0  0  0  0
  139.0428   74.2777  220.3851 H   0  0  0  0  0  0  0  0  0  0  0  0
  137.9453   72.9582  220.9775 H   0  0  0  0  0  0  0  0  0  0  0  0
  137.6670   74.8550  221.9450 C   0  0  0  0  0  0  0  0  0  0  0  0
  136.6183   74.5873  221.7489 H   0  0  0  0  0  0  0  0  0  0  0  0
  137.9040   74.8405  223.0191 H   0  0  0  0  0  0  0  0  0  0  0  0
  137.9070   76.2900  221.4440 C   0  0  0  0  0  0  0  0  0  0  0  0
  138.8392   76.3082  220.8603 H   0  0  0  0  0  0  0  0  0  0  0  0
  137.0398   76.5789  220.8320 H   0  0  0  0  0  0  0  0  0  0  0  0
  138.0170   77.2330  222.5120 O   0  0  0  0  0  0  0  0  0  0  0  0
  139.1040   78.0700  222.8320 C   0  0  0  0  0  0  0  0  0  0  0  0
  140.3790   77.5190  222.6450 C   0  0  0  0  0  0  0  0  0  0  0  0
  140.4721   76.4747  222.3122 H   0  0  0  0  0  0  0  0  0  0  0  0
  141.5320   78.2700  222.8730 C   0  0  0  0  0  0  0  0  0  0  0  0
  142.5226   77.8234  222.7018 H   0  0  0  0  0  0  0  0  0  0  0  0
  141.4280   79.5870  223.3180 C   0  0  0  0  0  0  0  0  0  0  0  0
  142.8770   80.5330  223.6050 Cl  0  0  0  0  0  0  0  0  0  0  0  0
  140.1700   80.1440  223.5530 C   0  0  0  0  0  0  0  0  0  0  0  0
  140.0937   81.1785  223.9192 H   0  0  0  0  0  0  0  0  0  0  0  0
  139.0020   79.4010  223.3280 C   0  0  0  0  0  0  0  0  0  0  0  0
  137.4910   80.1760  223.7860 Cl  0  0  0  0  0  0  0  0  0  0  0  0
  140.1870   69.9360  225.4510 C   0  0  0  0  0  0  0  0  0  0  0  0
  139.2920   69.0130  224.8680 C   0  0  0  0  0  0  0  0  0  0  0  0
  138.5230   69.3550  223.8040 F   0  0  0  0  0  0  0  0  0  0  0  0
  139.1940   67.7520  225.3680 N   0  0  0  0  0  0  0  0  0  0  0  0
  139.9380   67.3370  226.4260 C   0  0  0  0  0  0  0  0  0  0  0  0
  139.8302   66.3099  226.8047 H   0  0  0  0  0  0  0  0  0  0  0  0
  140.8380   68.2120  227.0320 C   0  0  0  0  0  0  0  0  0  0  0  0
  141.4438   67.8807  227.8883 H   0  0  0  0  0  0  0  0  0  0  0  0
  140.9630   69.5140  226.5410 C   0  0  0  0  0  0  0  0  0  0  0  0
  141.6726   70.2110  227.0108 H   0  0  0  0  0  0  0  0  0  0  0  0
  1  2  1  0
  2  3  2  0
  3  4  1  0
  4  5  1  0
  5  6  2  0
  5  7  1  0
  7  8  1  0
  7  9  1  0
  7 10  1  0
 10 11  1  0
 10 12  1  0
 10 13  1  0
 13 14  1  0
 13 15  1  0
 13 16  1  0
 16 17  1  0
 17 18  2  0
 18 19  1  0
 18 20  1  0
 20 21  1  0
 20 22  2  0
 22 23  1  0
 22 24  1  0
 24 25  1  0
 24 26  2  0
 26 27  1  0
  2 28  1  0
 28 29  2  0
 29 30  1  0
 29 31  1  0
 31 32  2  0
 32 33  1  0
 32 34  1  0
 34 35  1  0
 34 36  2  0
 36 37  1  0
 26 17  1  0
 36 28  1  0
M  CHG  1   4  -1
M  END
>  <UniqueID>  (63) 
16

>  <SMILES>  (63) 
O=C(CCCOc1ccc(Cl)cc1Cl)[N-]/N=C/c1cccnc1F

>  <Energy>  (63) 
37.80070138269376

>  <Genealogy>  (63) 
O=C(CCCOc1ccc(Cl)cc1Cl)[N-]N=Cc1cccnc1F (protonated)
O=C(CCCOc1ccc(Cl)cc1Cl)[N-]/N=C/c1cccnc1F (cis-trans isomerization)
O=C(CCCOc1ccc(Cl)cc1Cl)[N-]/N=C/c1cccnc1F (3D coordinates assigned)
O=C(CCCOc1ccc(Cl)cc1Cl)[N-]/N=C/c1cccnc1F (optimized conformer: 37.80070138269376 kcal/mol)

>  <smiles>  (63) 
O=C(CCCOc1ccc(Cl)cc1Cl)NN=Cc1cccnc1F

>  <score_type>  (63) 
oracle

>  <origin>  (63) 
autodockgpu

>  <m_score__min__energy>  (63) 
-6.3399999999999999

>  <m_primary>  (63) 
energy

>  <meeko>  (63) 
{"free_energy": -6.28, "intermolecular_energy": -8.96, "internal_energy": -0.46, "cluster_size": 8, "cluster_id": 1, "rank_in_cluster": 2}

>  <energy>  (63) 
-6.21

>  <cluster_rmsd>  (63) 
1.7

>  <rmsd>  (63) 
272.59

>  <cluster>  (63) 
1

$$$$
AMYMGDKGSBDGMC-NYADSFOUNA-M
     RDKit          3D

 37 38  0  0  0  0  0  0  0  0999 V2000
  139.5915   72.1086  225.6292 H   0  0  0  0  0  0  0  0  0  0  0  0
  140.1020   71.3280  225.0460 C   0  0  0  0  0  0  0  0  0  0  0  0
  140.7120   71.6520  223.9530 N   0  0  0  0  0  0  0  0  0  0  0  0
  140.0050   71.8050  222.7540 N   0  0  0  0  0  0  0  0  0  0  0  0
  139.7830   73.1010  222.2000 C   0  0  0  0  0  0  0  0  0  0  0  0
  140.7540   73.8820  222.0070 O   0  0  0  0  0  0  0  0  0  0  0  0
  138.3930   73.5410  221.8610 C   0  0  0  0  0  0  0  0  0  0  0  0
  138.1623   73.2273  220.8322 H   0  0  0  0  0  0  0  0  0  0  0  0
  137.7046   73.0770  222.5826 H   0  0  0  0  0  0  0  0  0  0  0  0
  138.2300   75.0660  221.9630 C   0  0  0  0  0  0  0  0  0  0  0  0
  137.1560   75.3007  222.0021 H   0  0  0  0  0  0  0  0  0  0  0  0
  138.7579   75.3906  222.8718 H   0  0  0  0  0  0  0  0  0  0  0  0
  138.8530   75.8240  220.7780 C   0  0  0  0  0  0  0  0  0  0  0  0
  139.8880   75.4769  220.6425 H   0  0  0  0  0  0  0  0  0  0  0  0
  138.2372   75.6188  219.8899 H   0  0  0  0  0  0  0  0  0  0  0  0
  138.8670   77.2380  220.9780 O   0  0  0  0  0  0  0  0  0  0  0  0
  139.8710   78.0290  221.5700 C   0  0  0  0  0  0  0  0  0  0  0  0
  139.4860   78.7650  222.6990 C   0  0  0  0  0  0  0  0  0  0  0  0
  138.4390   78.7311  223.0346 H   0  0  0  0  0  0  0  0  0  0  0  0
  140.4070   79.5400  223.4050 C   0  0  0  0  0  0  0  0  0  0  0  0
  140.0880   80.0953  224.2993 H   0  0  0  0  0  0  0  0  0  0  0  0
  141.7320   79.6100  222.9760 C   0  0  0  0  0  0  0  0  0  0  0  0
  142.8910   80.5840  223.8630 Cl  0  0  0  0  0  0  0  0  0  0  0  0
  142.1290   78.9200  221.8290 C   0  0  0  0  0  0  0  0  0  0  0  0
  143.1715   78.9913  221.4852 H   0  0  0  0  0  0  0  0  0  0  0  0
  141.2140   78.1370  221.1100 C   0  0  0  0  0  0  0  0  0  0  0  0
  141.8110   77.4260  219.6160 Cl  0  0  0  0  0  0  0  0  0  0  0  0
  140.0760   69.9300  225.5290 C   0  0  0  0  0  0  0  0  0  0  0  0
  139.1600   68.9740  225.0400 C   0  0  0  0  0  0  0  0  0  0  0  0
  138.2470   69.2960  224.0900 F   0  0  0  0  0  0  0  0  0  0  0  0
  139.1890   67.7000  225.5150 N   0  0  0  0  0  0  0  0  0  0  0  0
  140.0810   67.3040  226.4600 C   0  0  0  0  0  0  0  0  0  0  0  0
  140.0731   66.2656  226.8227 H   0  0  0  0  0  0  0  0  0  0  0  0
  141.0060   68.2130  226.9700 C   0  0  0  0  0  0  0  0  0  0  0  0
  141.7309   67.8974  227.7348 H   0  0  0  0  0  0  0  0  0  0  0  0
  141.0040   69.5280  226.5010 C   0  0  0  0  0  0  0  0  0  0  0  0
  141.7328   70.2515  226.8952 H   0  0  0  0  0  0  0  0  0  0  0  0
  1  2  1  0
  2  3  2  0
  3  4  1  0
  4  5  1  0
  5  6  2  0
  5  7  1  0
  7  8  1  0
  7  9  1  0
  7 10  1  0
 10 11  1  0
 10 12  1  0
 10 13  1  0
 13 14  1  0
 13 15  1  0
 13 16  1  0
 16 17  1  0
 17 18  2  0
 18 19  1  0
 18 20  1  0
 20 21  1  0
 20 22  2  0
 22 23  1  0
 22 24  1  0
 24 25  1  0
 24 26  2  0
 26 27  1  0
  2 28  1  0
 28 29  2  0
 29 30  1  0
 29 31  1  0
 31 32  2  0
 32 33  1  0
 32 34  1  0
 34 35  1  0
 34 36  2  0
 36 37  1  0
 26 17  1  0
 36 28  1  0
M  CHG  1   4  -1
M  END
>  <UniqueID>  (64) 
16

>  <SMILES>  (64) 
O=C(CCCOc1ccc(Cl)cc1Cl)[N-]/N=C/c1cccnc1F

>  <Energy>  (64) 
37.80070138269376

>  <Genealogy>  (64) 
O=C(CCCOc1ccc(Cl)cc1Cl)[N-]N=Cc1cccnc1F (protonated)
O=C(CCCOc1ccc(Cl)cc1Cl)[N-]/N=C/c1cccnc1F (cis-trans isomerization)
O=C(CCCOc1ccc(Cl)cc1Cl)[N-]/N=C/c1cccnc1F (3D coordinates assigned)
O=C(CCCOc1ccc(Cl)cc1Cl)[N-]/N=C/c1cccnc1F (optimized conformer: 37.80070138269376 kcal/mol)

>  <smiles>  (64) 
O=C(CCCOc1ccc(Cl)cc1Cl)NN=Cc1cccnc1F

>  <score_type>  (64) 
oracle

>  <origin>  (64) 
autodockgpu

>  <m_score__min__energy>  (64) 
-6.3399999999999999

>  <m_primary>  (64) 
energy

>  <meeko>  (64) 
{"free_energy": -6.03, "intermolecular_energy": -8.71, "internal_energy": -0.59, "cluster_size": 8, "cluster_id": 1, "rank_in_cluster": 4}

>  <energy>  (64) 
-6.03

>  <cluster_rmsd>  (64) 
0.61

>  <rmsd>  (64) 
271.89

>  <cluster>  (64) 
1

$$$$
AMYMGDKGSBDGMC-NYADSFOUNA-M
     RDKit          3D

 37 38  0  0  0  0  0  0  0  0999 V2000
  143.9964   71.1342  219.0318 H   0  0  0  0  0  0  0  0  0  0  0  0
  144.9670   70.6210  219.0990 C   0  0  0  0  0  0  0  0  0  0  0  0
  146.0510   71.3230  219.1570 N   0  0  0  0  0  0  0  0  0  0  0  0
  146.0060   72.7220  219.1070 N   0  0  0  0  0  0  0  0  0  0  0  0
  145.8530   73.4890  220.3000 C   0  0  0  0  0  0  0  0  0  0  0  0
  146.6940   73.3830  221.2340 O   0  0  0  0  0  0  0  0  0  0  0  0
  144.6840   74.4120  220.4520 C   0  0  0  0  0  0  0  0  0  0  0  0
  144.8092   74.9942  221.3769 H   0  0  0  0  0  0  0  0  0  0  0  0
  144.6525   75.0682  219.5698 H   0  0  0  0  0  0  0  0  0  0  0  0
  143.3520   73.6480  220.5230 C   0  0  0  0  0  0  0  0  0  0  0  0
  143.5634   72.5704  220.4586 H   0  0  0  0  0  0  0  0  0  0  0  0
  142.8705   73.9190  221.4742 H   0  0  0  0  0  0  0  0  0  0  0  0
  142.3760   74.0230  219.3940 C   0  0  0  0  0  0  0  0  0  0  0  0
  142.9279   74.5771  218.6204 H   0  0  0  0  0  0  0  0  0  0  0  0
  141.9499   73.0896  218.9974 H   0  0  0  0  0  0  0  0  0  0  0  0
  141.2920   74.8340  219.8530 O   0  0  0  0  0  0  0  0  0  0  0  0
  141.3470   76.0270  220.6000 C   0  0  0  0  0  0  0  0  0  0  0  0
  140.7490   75.9860  221.8680 C   0  0  0  0  0  0  0  0  0  0  0  0
  140.2392   75.0678  222.1953 H   0  0  0  0  0  0  0  0  0  0  0  0
  140.7890   77.0880  222.7210 C   0  0  0  0  0  0  0  0  0  0  0  0
  140.3289   77.0285  223.7184 H   0  0  0  0  0  0  0  0  0  0  0  0
  141.4120   78.2650  222.3100 C   0  0  0  0  0  0  0  0  0  0  0  0
  141.4640   79.6520  223.3830 Cl  0  0  0  0  0  0  0  0  0  0  0  0
  141.9770   78.3450  221.0350 C   0  0  0  0  0  0  0  0  0  0  0  0
  142.4538   79.2812  220.7091 H   0  0  0  0  0  0  0  0  0  0  0  0
  141.9430   77.2450  220.1660 C   0  0  0  0  0  0  0  0  0  0  0  0
  142.5740   77.5190  218.5470 Cl  0  0  0  0  0  0  0  0  0  0  0  0
  145.0040   69.1430  219.1210 C   0  0  0  0  0  0  0  0  0  0  0  0
  143.8450   68.3550  219.2880 C   0  0  0  0  0  0  0  0  0  0  0  0
  142.6230   68.9240  219.4390 F   0  0  0  0  0  0  0  0  0  0  0  0
  143.9400   66.9990  219.2920 N   0  0  0  0  0  0  0  0  0  0  0  0
  145.1290   66.3590  219.1380 C   0  0  0  0  0  0  0  0  0  0  0  0
  145.1677   65.2597  219.1482 H   0  0  0  0  0  0  0  0  0  0  0  0
  146.3000   67.0970  218.9670 C   0  0  0  0  0  0  0  0  0  0  0  0
  147.2656   66.5852  218.8420 H   0  0  0  0  0  0  0  0  0  0  0  0
  146.2350   68.4910  218.9560 C   0  0  0  0  0  0  0  0  0  0  0  0
  147.1530   69.0810  218.8173 H   0  0  0  0  0  0  0  0  0  0  0  0
  1  2  1  0
  2  3  2  0
  3  4  1  0
  4  5  1  0
  5  6  2  0
  5  7  1  0
  7  8  1  0
  7  9  1  0
  7 10  1  0
 10 11  1  0
 10 12  1  0
 10 13  1  0
 13 14  1  0
 13 15  1  0
 13 16  1  0
 16 17  1  0
 17 18  2  0
 18 19  1  0
 18 20  1  0
 20 21  1  0
 20 22  2  0
 22 23  1  0
 22 24  1  0
 24 25  1  0
 24 26  2  0
 26 27  1  0
  2 28  1  0
 28 29  2  0
 29 30  1  0
 29 31  1  0
 31 32  2  0
 32 33  1  0
 32 34  1  0
 34 35  1  0
 34 36  2  0
 36 37  1  0
 26 17  1  0
 36 28  1  0
M  CHG  1   4  -1
M  END
>  <UniqueID>  (65) 
16

>  <SMILES>  (65) 
O=C(CCCOc1ccc(Cl)cc1Cl)[N-]/N=C/c1cccnc1F

>  <Energy>  (65) 
37.80070138269376

>  <Genealogy>  (65) 
O=C(CCCOc1ccc(Cl)cc1Cl)[N-]N=Cc1cccnc1F (protonated)
O=C(CCCOc1ccc(Cl)cc1Cl)[N-]/N=C/c1cccnc1F (cis-trans isomerization)
O=C(CCCOc1ccc(Cl)cc1Cl)[N-]/N=C/c1cccnc1F (3D coordinates assigned)
O=C(CCCOc1ccc(Cl)cc1Cl)[N-]/N=C/c1cccnc1F (optimized conformer: 37.80070138269376 kcal/mol)

>  <smiles>  (65) 
O=C(CCCOc1ccc(Cl)cc1Cl)NN=Cc1cccnc1F

>  <score_type>  (65) 
oracle

>  <origin>  (65) 
autodockgpu

>  <m_score__min__energy>  (65) 
-6.3399999999999999

>  <m_primary>  (65) 
energy

>  <meeko>  (65) 
{"free_energy": -6.23, "intermolecular_energy": -8.91, "internal_energy": -0.73, "cluster_size": 2, "cluster_id": 3, "rank_in_cluster": 1}

>  <energy>  (65) 
-5.84

>  <cluster_rmsd>  (65) 
0.67

>  <rmsd>  (65) 
271.82

>  <cluster>  (65) 
1

$$$$
AMYMGDKGSBDGMC-NYADSFOUNA-M
     RDKit          3D

 37 38  0  0  0  0  0  0  0  0999 V2000
  141.0525   67.3719  228.0072 H   0  0  0  0  0  0  0  0  0  0  0  0
  140.6650   67.9710  227.1700 C   0  0  0  0  0  0  0  0  0  0  0  0
  140.1950   67.3700  226.1250 N   0  0  0  0  0  0  0  0  0  0  0  0
  138.8650   67.5560  225.7260 N   0  0  0  0  0  0  0  0  0  0  0  0
  138.4590   68.7630  225.0840 C   0  0  0  0  0  0  0  0  0  0  0  0
  137.8380   69.6480  225.7340 O   0  0  0  0  0  0  0  0  0  0  0  0
  138.7580   68.9760  223.6330 C   0  0  0  0  0  0  0  0  0  0  0  0
  139.5814   69.6998  223.5426 H   0  0  0  0  0  0  0  0  0  0  0  0
  139.0326   68.0044  223.1964 H   0  0  0  0  0  0  0  0  0  0  0  0
  137.5390   69.5130  222.8670 C   0  0  0  0  0  0  0  0  0  0  0  0
  137.7224   69.3915  221.7892 H   0  0  0  0  0  0  0  0  0  0  0  0
  136.6630   68.9401  223.2050 H   0  0  0  0  0  0  0  0  0  0  0  0
  137.2500   70.9970  223.1490 C   0  0  0  0  0  0  0  0  0  0  0  0
  137.7689   71.2874  224.0744 H   0  0  0  0  0  0  0  0  0  0  0  0
  137.6074   71.5763  222.2849 H   0  0  0  0  0  0  0  0  0  0  0  0
  135.8550   71.2650  223.3030 O   0  0  0  0  0  0  0  0  0  0  0  0
  135.2290   72.1660  224.1860 C   0  0  0  0  0  0  0  0  0  0  0  0
  135.4150   73.5280  223.9070 C   0  0  0  0  0  0  0  0  0  0  0  0
  136.0590   73.8239  223.0658 H   0  0  0  0  0  0  0  0  0  0  0  0
  134.7980   74.5140  224.6770 C   0  0  0  0  0  0  0  0  0  0  0  0
  134.9427   75.5760  224.4297 H   0  0  0  0  0  0  0  0  0  0  0  0
  133.9980   74.1530  225.7600 C   0  0  0  0  0  0  0  0  0  0  0  0
  133.2210   75.3920  226.7290 Cl  0  0  0  0  0  0  0  0  0  0  0  0
  133.8330   72.8050  226.0840 C   0  0  0  0  0  0  0  0  0  0  0  0
  133.2136   72.5256  226.9491 H   0  0  0  0  0  0  0  0  0  0  0  0
  134.4480   71.8030  225.3190 C   0  0  0  0  0  0  0  0  0  0  0  0
  134.2640   70.1560  225.9100 Cl  0  0  0  0  0  0  0  0  0  0  0  0
  140.6920   69.4470  227.2620 C   0  0  0  0  0  0  0  0  0  0  0  0
  141.4350   70.2510  226.3710 C   0  0  0  0  0  0  0  0  0  0  0  0
  142.1700   69.7010  225.3730 F   0  0  0  0  0  0  0  0  0  0  0  0
  141.4160   71.6040  226.5000 N   0  0  0  0  0  0  0  0  0  0  0  0
  140.6960   72.2260  227.4710 C   0  0  0  0  0  0  0  0  0  0  0  0
  140.7067   73.3233  227.5466 H   0  0  0  0  0  0  0  0  0  0  0  0
  139.9440   71.4720  228.3710 C   0  0  0  0  0  0  0  0  0  0  0  0
  139.3578   71.9692  229.1579 H   0  0  0  0  0  0  0  0  0  0  0  0
  139.9420   70.0800  228.2640 C   0  0  0  0  0  0  0  0  0  0  0  0
  139.3499   69.4773  228.9684 H   0  0  0  0  0  0  0  0  0  0  0  0
  1  2  1  0
  2  3  2  0
  3  4  1  0
  4  5  1  0
  5  6  2  0
  5  7  1  0
  7  8  1  0
  7  9  1  0
  7 10  1  0
 10 11  1  0
 10 12  1  0
 10 13  1  0
 13 14  1  0
 13 15  1  0
 13 16  1  0
 16 17  1  0
 17 18  2  0
 18 19  1  0
 18 20  1  0
 20 21  1  0
 20 22  2  0
 22 23  1  0
 22 24  1  0
 24 25  1  0
 24 26  2  0
 26 27  1  0
  2 28  1  0
 28 29  2  0
 29 30  1  0
 29 31  1  0
 31 32  2  0
 32 33  1  0
 32 34  1  0
 34 35  1  0
 34 36  2  0
 36 37  1  0
 26 17  1  0
 36 28  1  0
M  CHG  1   4  -1
M  END
>  <UniqueID>  (66) 
16

>  <SMILES>  (66) 
O=C(CCCOc1ccc(Cl)cc1Cl)[N-]/N=C/c1cccnc1F

>  <Energy>  (66) 
37.80070138269376

>  <Genealogy>  (66) 
O=C(CCCOc1ccc(Cl)cc1Cl)[N-]N=Cc1cccnc1F (protonated)
O=C(CCCOc1ccc(Cl)cc1Cl)[N-]/N=C/c1cccnc1F (cis-trans isomerization)
O=C(CCCOc1ccc(Cl)cc1Cl)[N-]/N=C/c1cccnc1F (3D coordinates assigned)
O=C(CCCOc1ccc(Cl)cc1Cl)[N-]/N=C/c1cccnc1F (optimized conformer: 37.80070138269376 kcal/mol)

>  <smiles>  (66) 
O=C(CCCOc1ccc(Cl)cc1Cl)NN=Cc1cccnc1F

>  <score_type>  (66) 
oracle

>  <origin>  (66) 
autodockgpu

>  <m_score__min__energy>  (66) 
-6.3399999999999999

>  <m_primary>  (66) 
energy

>  <meeko>  (66) 
{"free_energy": -5.45, "intermolecular_energy": -8.13, "internal_energy": -1.02, "cluster_size": 1, "cluster_id": 7, "rank_in_cluster": 1}

>  <energy>  (66) 
-5.81

>  <cluster_rmsd>  (66) 
1.69

>  <rmsd>  (66) 
272.4

>  <cluster>  (66) 
1

$$$$
AMYMGDKGSBDGMC-NYADSFOUNA-M
     RDKit          3D

 37 38  0  0  0  0  0  0  0  0999 V2000
  141.5552   71.1669  224.0643 H   0  0  0  0  0  0  0  0  0  0  0  0
  140.6300   71.0420  224.6460 C   0  0  0  0  0  0  0  0  0  0  0  0
  139.5240   71.5310  224.1890 N   0  0  0  0  0  0  0  0  0  0  0  0
  139.2590   71.5470  222.8130 N   0  0  0  0  0  0  0  0  0  0  0  0
  139.7520   72.6030  221.9900 C   0  0  0  0  0  0  0  0  0  0  0  0
  140.7390   73.2930  222.3670 O   0  0  0  0  0  0  0  0  0  0  0  0
  139.0890   72.9030  220.6810 C   0  0  0  0  0  0  0  0  0  0  0  0
  139.7937   72.6796  219.8665 H   0  0  0  0  0  0  0  0  0  0  0  0
  138.1853   72.2802  220.6071 H   0  0  0  0  0  0  0  0  0  0  0  0
  138.6610   74.3750  220.5770 C   0  0  0  0  0  0  0  0  0  0  0  0
  139.4924   74.9508  220.1444 H   0  0  0  0  0  0  0  0  0  0  0  0
  137.7610   74.4092  219.9454 H   0  0  0  0  0  0  0  0  0  0  0  0
  138.2900   74.9970  221.9340 C   0  0  0  0  0  0  0  0  0  0  0  0
  137.5280   75.7731  221.7695 H   0  0  0  0  0  0  0  0  0  0  0  0
  137.9133   74.1897  222.5792 H   0  0  0  0  0  0  0  0  0  0  0  0
  139.4120   75.5890  222.5910 O   0  0  0  0  0  0  0  0  0  0  0  0
  140.0230   76.8310  222.3330 C   0  0  0  0  0  0  0  0  0  0  0  0
  139.4600   77.9390  222.9830 C   0  0  0  0  0  0  0  0  0  0  0  0
  138.5664   77.8007  223.6094 H   0  0  0  0  0  0  0  0  0  0  0  0
  140.0120   79.2130  222.8500 C   0  0  0  0  0  0  0  0  0  0  0  0
  139.5654   80.0651  223.3833 H   0  0  0  0  0  0  0  0  0  0  0  0
  141.1310   79.4050  222.0400 C   0  0  0  0  0  0  0  0  0  0  0  0
  141.8270   81.0070  221.8730 Cl  0  0  0  0  0  0  0  0  0  0  0  0
  141.6830   78.3260  221.3490 C   0  0  0  0  0  0  0  0  0  0  0  0
  142.5561   78.4860  220.6992 H   0  0  0  0  0  0  0  0  0  0  0  0
  141.1380   77.0400  221.4730 C   0  0  0  0  0  0  0  0  0  0  0  0
  141.8470   75.7970  220.4500 Cl  0  0  0  0  0  0  0  0  0  0  0  0
  140.6770   70.3180  225.9350 C   0  0  0  0  0  0  0  0  0  0  0  0
  141.0140   70.9510  227.1500 C   0  0  0  0  0  0  0  0  0  0  0  0
  141.3160   72.2730  227.1960 F   0  0  0  0  0  0  0  0  0  0  0  0
  141.0330   70.2360  228.3070 N   0  0  0  0  0  0  0  0  0  0  0  0
  140.7350   68.9100  228.3390 C   0  0  0  0  0  0  0  0  0  0  0  0
  140.7637   68.3626  229.2927 H   0  0  0  0  0  0  0  0  0  0  0  0
  140.3930   68.2440  227.1630 C   0  0  0  0  0  0  0  0  0  0  0  0
  140.1491   67.1716  227.1832 H   0  0  0  0  0  0  0  0  0  0  0  0
  140.3630   68.9510  225.9590 C   0  0  0  0  0  0  0  0  0  0  0  0
  140.0923   68.4342  225.0264 H   0  0  0  0  0  0  0  0  0  0  0  0
  1  2  1  0
  2  3  2  0
  3  4  1  0
  4  5  1  0
  5  6  2  0
  5  7  1  0
  7  8  1  0
  7  9  1  0
  7 10  1  0
 10 11  1  0
 10 12  1  0
 10 13  1  0
 13 14  1  0
 13 15  1  0
 13 16  1  0
 16 17  1  0
 17 18  2  0
 18 19  1  0
 18 20  1  0
 20 21  1  0
 20 22  2  0
 22 23  1  0
 22 24  1  0
 24 25  1  0
 24 26  2  0
 26 27  1  0
  2 28  1  0
 28 29  2  0
 29 30  1  0
 29 31  1  0
 31 32  2  0
 32 33  1  0
 32 34  1  0
 34 35  1  0
 34 36  2  0
 36 37  1  0
 26 17  1  0
 36 28  1  0
M  CHG  1   4  -1
M  END
>  <UniqueID>  (67) 
16

>  <SMILES>  (67) 
O=C(CCCOc1ccc(Cl)cc1Cl)[N-]/N=C/c1cccnc1F

>  <Energy>  (67) 
37.80070138269376

>  <Genealogy>  (67) 
O=C(CCCOc1ccc(Cl)cc1Cl)[N-]N=Cc1cccnc1F (protonated)
O=C(CCCOc1ccc(Cl)cc1Cl)[N-]/N=C/c1cccnc1F (cis-trans isomerization)
O=C(CCCOc1ccc(Cl)cc1Cl)[N-]/N=C/c1cccnc1F (3D coordinates assigned)
O=C(CCCOc1ccc(Cl)cc1Cl)[N-]/N=C/c1cccnc1F (optimized conformer: 37.80070138269376 kcal/mol)

>  <smiles>  (67) 
O=C(CCCOc1ccc(Cl)cc1Cl)NN=Cc1cccnc1F

>  <score_type>  (67) 
oracle

>  <origin>  (67) 
autodockgpu

>  <m_score__min__energy>  (67) 
-6.3399999999999999

>  <m_primary>  (67) 
energy

>  <meeko>  (67) 
{"free_energy": -5.63, "intermolecular_energy": -8.32, "internal_energy": -0.51, "cluster_size": 8, "cluster_id": 1, "rank_in_cluster": 8}

>  <energy>  (67) 
-5.72

>  <cluster_rmsd>  (67) 
1.32

>  <rmsd>  (67) 
272.09

>  <cluster>  (67) 
1

$$$$
AMYMGDKGSBDGMC-NYADSFOUNA-M
     RDKit          3D

 37 38  0  0  0  0  0  0  0  0999 V2000
  141.2680   67.6028  225.9797 H   0  0  0  0  0  0  0  0  0  0  0  0
  140.3710   68.2280  226.1000 C   0  0  0  0  0  0  0  0  0  0  0  0
  139.2230   67.7690  225.7190 N   0  0  0  0  0  0  0  0  0  0  0  0
  138.7450   68.0140  224.4250 N   0  0  0  0  0  0  0  0  0  0  0  0
  138.3280   69.3230  224.0390 C   0  0  0  0  0  0  0  0  0  0  0  0
  137.3140   69.8480  224.5740 O   0  0  0  0  0  0  0  0  0  0  0  0
  139.0870   70.0700  222.9870 C   0  0  0  0  0  0  0  0  0  0  0  0
  140.0371   69.5491  222.7976 H   0  0  0  0  0  0  0  0  0  0  0  0
  138.4646   70.1058  222.0807 H   0  0  0  0  0  0  0  0  0  0  0  0
  139.3900   71.5150  223.4110 C   0  0  0  0  0  0  0  0  0  0  0  0
  138.5269   72.1442  223.1481 H   0  0  0  0  0  0  0  0  0  0  0  0
  139.5801   71.5034  224.4944 H   0  0  0  0  0  0  0  0  0  0  0  0
  140.6430   72.0980  222.7350 C   0  0  0  0  0  0  0  0  0  0  0  0
  141.2598   72.5907  223.5010 H   0  0  0  0  0  0  0  0  0  0  0  0
  141.1804   71.2668  222.2550 H   0  0  0  0  0  0  0  0  0  0  0  0
  140.3250   73.0520  221.7200 O   0  0  0  0  0  0  0  0  0  0  0  0
  139.9670   74.4060  221.8730 C   0  0  0  0  0  0  0  0  0  0  0  0
  141.0310   75.3150  221.9670 C   0  0  0  0  0  0  0  0  0  0  0  0
  142.0648   74.9392  221.9641 H   0  0  0  0  0  0  0  0  0  0  0  0
  140.8010   76.6870  222.0640 C   0  0  0  0  0  0  0  0  0  0  0  0
  141.6499   77.3844  222.1176 H   0  0  0  0  0  0  0  0  0  0  0  0
  139.4950   77.1750  222.0930 C   0  0  0  0  0  0  0  0  0  0  0  0
  139.2060   78.9010  222.2140 Cl  0  0  0  0  0  0  0  0  0  0  0  0
  138.4200   76.2860  222.0450 C   0  0  0  0  0  0  0  0  0  0  0  0
  137.3915   76.6741  222.0837 H   0  0  0  0  0  0  0  0  0  0  0  0
  138.6360   74.9030  221.9480 C   0  0  0  0  0  0  0  0  0  0  0  0
  137.2010   73.8890  222.0260 Cl  0  0  0  0  0  0  0  0  0  0  0  0
  140.5020   69.5760  226.6940 C   0  0  0  0  0  0  0  0  0  0  0  0
  141.2950   70.5890  226.1140 C   0  0  0  0  0  0  0  0  0  0  0  0
  141.9850   70.3720  224.9660 F   0  0  0  0  0  0  0  0  0  0  0  0
  141.3710   71.8130  226.7010 N   0  0  0  0  0  0  0  0  0  0  0  0
  140.7020   72.1050  227.8470 C   0  0  0  0  0  0  0  0  0  0  0  0
  140.7902   73.1055  228.2957 H   0  0  0  0  0  0  0  0  0  0  0  0
  139.9040   71.1370  228.4540 C   0  0  0  0  0  0  0  0  0  0  0  0
  139.3589   71.3683  229.3810 H   0  0  0  0  0  0  0  0  0  0  0  0
  139.8030   69.8700  227.8740 C   0  0  0  0  0  0  0  0  0  0  0  0
  139.1732   69.1005  228.3443 H   0  0  0  0  0  0  0  0  0  0  0  0
  1  2  1  0
  2  3  2  0
  3  4  1  0
  4  5  1  0
  5  6  2  0
  5  7  1  0
  7  8  1  0
  7  9  1  0
  7 10  1  0
 10 11  1  0
 10 12  1  0
 10 13  1  0
 13 14  1  0
 13 15  1  0
 13 16  1  0
 16 17  1  0
 17 18  2  0
 18 19  1  0
 18 20  1  0
 20 21  1  0
 20 22  2  0
 22 23  1  0
 22 24  1  0
 24 25  1  0
 24 26  2  0
 26 27  1  0
  2 28  1  0
 28 29  2  0
 29 30  1  0
 29 31  1  0
 31 32  2  0
 32 33  1  0
 32 34  1  0
 34 35  1  0
 34 36  2  0
 36 37  1  0
 26 17  1  0
 36 28  1  0
M  CHG  1   4  -1
M  END
>  <UniqueID>  (68) 
16

>  <SMILES>  (68) 
O=C(CCCOc1ccc(Cl)cc1Cl)[N-]/N=C/c1cccnc1F

>  <Energy>  (68) 
37.80070138269376

>  <Genealogy>  (68) 
O=C(CCCOc1ccc(Cl)cc1Cl)[N-]N=Cc1cccnc1F (protonated)
O=C(CCCOc1ccc(Cl)cc1Cl)[N-]/N=C/c1cccnc1F (cis-trans isomerization)
O=C(CCCOc1ccc(Cl)cc1Cl)[N-]/N=C/c1cccnc1F (3D coordinates assigned)
O=C(CCCOc1ccc(Cl)cc1Cl)[N-]/N=C/c1cccnc1F (optimized conformer: 37.80070138269376 kcal/mol)

>  <smiles>  (68) 
O=C(CCCOc1ccc(Cl)cc1Cl)NN=Cc1cccnc1F

>  <score_type>  (68) 
oracle

>  <origin>  (68) 
autodockgpu

>  <m_score__min__energy>  (68) 
-6.3399999999999999

>  <m_primary>  (68) 
energy

>  <meeko>  (68) 
{"free_energy": -5.66, "intermolecular_energy": -8.34, "internal_energy": -1.04, "cluster_size": 4, "cluster_id": 2, "rank_in_cluster": 4}

>  <energy>  (68) 
-5.63

>  <cluster_rmsd>  (68) 
1.76

>  <rmsd>  (68) 
272.24

>  <cluster>  (68) 
1

$$$$
AMYMGDKGSBDGMC-NYADSFOUNA-M
     RDKit          3D

 37 38  0  0  0  0  0  0  0  0999 V2000
  142.8575   70.2429  219.5338 H   0  0  0  0  0  0  0  0  0  0  0  0
  142.8580   71.1660  220.1320 C   0  0  0  0  0  0  0  0  0  0  0  0
  141.8090   71.4740  220.8230 N   0  0  0  0  0  0  0  0  0  0  0  0
  140.8560   72.3700  220.3220 N   0  0  0  0  0  0  0  0  0  0  0  0
  140.0790   73.1750  221.2060 C   0  0  0  0  0  0  0  0  0  0  0  0
  140.6360   73.7970  222.1520 O   0  0  0  0  0  0  0  0  0  0  0  0
  138.5960   73.2730  221.0210 C   0  0  0  0  0  0  0  0  0  0  0  0
  138.3402   74.3064  220.7439 H   0  0  0  0  0  0  0  0  0  0  0  0
  138.3047   72.5654  220.2307 H   0  0  0  0  0  0  0  0  0  0  0  0
  137.8300   72.8980  222.3000 C   0  0  0  0  0  0  0  0  0  0  0  0
  138.0952   73.6164  223.0897 H   0  0  0  0  0  0  0  0  0  0  0  0
  136.7572   72.9265  222.0587 H   0  0  0  0  0  0  0  0  0  0  0  0
  138.1480   71.4790  222.8030 C   0  0  0  0  0  0  0  0  0  0  0  0
  137.3621   71.1706  223.5081 H   0  0  0  0  0  0  0  0  0  0  0  0
  138.1889   70.8157  221.9265 H   0  0  0  0  0  0  0  0  0  0  0  0
  139.4120   71.4020  223.4640 O   0  0  0  0  0  0  0  0  0  0  0  0
  139.7650   70.6320  224.5900 C   0  0  0  0  0  0  0  0  0  0  0  0
  140.4380   71.3140  225.6130 C   0  0  0  0  0  0  0  0  0  0  0  0
  140.6941   72.3751  225.4771 H   0  0  0  0  0  0  0  0  0  0  0  0
  140.7890   70.6710  226.8010 C   0  0  0  0  0  0  0  0  0  0  0  0
  141.3006   71.2295  227.5987 H   0  0  0  0  0  0  0  0  0  0  0  0
  140.4910   69.3210  226.9760 C   0  0  0  0  0  0  0  0  0  0  0  0
  140.9310   68.5120  228.4690 Cl  0  0  0  0  0  0  0  0  0  0  0  0
  139.8590   68.6090  225.9540 C   0  0  0  0  0  0  0  0  0  0  0  0
  139.6396   67.5399  226.0912 H   0  0  0  0  0  0  0  0  0  0  0  0
  139.5010   69.2420  224.7550 C   0  0  0  0  0  0  0  0  0  0  0  0
  138.8310   68.2050  223.5030 Cl  0  0  0  0  0  0  0  0  0  0  0  0
  144.0580   72.0300  220.1300 C   0  0  0  0  0  0  0  0  0  0  0  0
  145.2420   71.6850  219.4430 C   0  0  0  0  0  0  0  0  0  0  0  0
  145.3370   70.5280  218.7400 F   0  0  0  0  0  0  0  0  0  0  0  0
  146.3130   72.5230  219.4690 N   0  0  0  0  0  0  0  0  0  0  0  0
  146.2880   73.7020  220.1450 C   0  0  0  0  0  0  0  0  0  0  0  0
  147.1740   74.3539  220.1470 H   0  0  0  0  0  0  0  0  0  0  0  0
  145.1390   74.0850  220.8360 C   0  0  0  0  0  0  0  0  0  0  0  0
  145.1127   75.0385  221.3839 H   0  0  0  0  0  0  0  0  0  0  0  0
  144.0220   73.2470  220.8260 C   0  0  0  0  0  0  0  0  0  0  0  0
  143.1104   73.5426  221.3661 H   0  0  0  0  0  0  0  0  0  0  0  0
  1  2  1  0
  2  3  2  0
  3  4  1  0
  4  5  1  0
  5  6  2  0
  5  7  1  0
  7  8  1  0
  7  9  1  0
  7 10  1  0
 10 11  1  0
 10 12  1  0
 10 13  1  0
 13 14  1  0
 13 15  1  0
 13 16  1  0
 16 17  1  0
 17 18  2  0
 18 19  1  0
 18 20  1  0
 20 21  1  0
 20 22  2  0
 22 23  1  0
 22 24  1  0
 24 25  1  0
 24 26  2  0
 26 27  1  0
  2 28  1  0
 28 29  2  0
 29 30  1  0
 29 31  1  0
 31 32  2  0
 32 33  1  0
 32 34  1  0
 34 35  1  0
 34 36  2  0
 36 37  1  0
 26 17  1  0
 36 28  1  0
M  CHG  1   4  -1
M  END
>  <UniqueID>  (69) 
16

>  <SMILES>  (69) 
O=C(CCCOc1ccc(Cl)cc1Cl)[N-]/N=C/c1cccnc1F

>  <Energy>  (69) 
37.80070138269376

>  <Genealogy>  (69) 
O=C(CCCOc1ccc(Cl)cc1Cl)[N-]N=Cc1cccnc1F (protonated)
O=C(CCCOc1ccc(Cl)cc1Cl)[N-]/N=C/c1cccnc1F (cis-trans isomerization)
O=C(CCCOc1ccc(Cl)cc1Cl)[N-]/N=C/c1cccnc1F (3D coordinates assigned)
O=C(CCCOc1ccc(Cl)cc1Cl)[N-]/N=C/c1cccnc1F (optimized conformer: 37.80070138269376 kcal/mol)

>  <smiles>  (69) 
O=C(CCCOc1ccc(Cl)cc1Cl)NN=Cc1cccnc1F

>  <score_type>  (69) 
oracle

>  <origin>  (69) 
autodockgpu

>  <m_score__min__energy>  (69) 
-6.3399999999999999

>  <m_primary>  (69) 
energy

>  <meeko>  (69) 
{"free_energy": -5.61, "intermolecular_energy": -8.29, "internal_energy": -0.65, "cluster_size": 1, "cluster_id": 6, "rank_in_cluster": 1}

>  <energy>  (69) 
-6.25

>  <cluster_rmsd>  (69) 
0.0

>  <rmsd>  (69) 
271.98

>  <cluster>  (69) 
2

$$$$
AMYMGDKGSBDGMC-NYADSFOUNA-M
     RDKit          3D

 37 38  0  0  0  0  0  0  0  0999 V2000
  135.9850   73.5980  223.5397 H   0  0  0  0  0  0  0  0  0  0  0  0
  135.5490   72.6770  223.9540 C   0  0  0  0  0  0  0  0  0  0  0  0
  135.8760   71.5360  223.4420 N   0  0  0  0  0  0  0  0  0  0  0  0
  136.2860   70.4730  224.2570 N   0  0  0  0  0  0  0  0  0  0  0  0
  135.9250   69.1300  223.9370 C   0  0  0  0  0  0  0  0  0  0  0  0
  135.0450   68.5320  224.6150 O   0  0  0  0  0  0  0  0  0  0  0  0
  136.6020   68.4230  222.8040 C   0  0  0  0  0  0  0  0  0  0  0  0
  137.3613   67.7409  223.2142 H   0  0  0  0  0  0  0  0  0  0  0  0
  135.8346   67.8720  222.2406 H   0  0  0  0  0  0  0  0  0  0  0  0
  137.2860   69.4040  221.8390 C   0  0  0  0  0  0  0  0  0  0  0  0
  137.1515   69.0344  220.8117 H   0  0  0  0  0  0  0  0  0  0  0  0
  136.8189   70.3885  221.9892 H   0  0  0  0  0  0  0  0  0  0  0  0
  138.7920   69.5680  222.1060 C   0  0  0  0  0  0  0  0  0  0  0  0
  139.3493   69.0728  221.2972 H   0  0  0  0  0  0  0  0  0  0  0  0
  139.0082   70.6458  222.1463 H   0  0  0  0  0  0  0  0  0  0  0  0
  139.1930   68.9990  223.3530 O   0  0  0  0  0  0  0  0  0  0  0  0
  139.7340   69.6520  224.4790 C   0  0  0  0  0  0  0  0  0  0  0  0
  140.1650   70.9710  224.2750 C   0  0  0  0  0  0  0  0  0  0  0  0
  140.1069   71.4085  223.2674 H   0  0  0  0  0  0  0  0  0  0  0  0
  140.6660   71.7380  225.3270 C   0  0  0  0  0  0  0  0  0  0  0  0
  140.9812   72.7768  225.1493 H   0  0  0  0  0  0  0  0  0  0  0  0
  140.7670   71.1870  226.6040 C   0  0  0  0  0  0  0  0  0  0  0  0
  141.3960   72.1510  227.9280 Cl  0  0  0  0  0  0  0  0  0  0  0  0
  140.3850   69.8620  226.8220 C   0  0  0  0  0  0  0  0  0  0  0  0
  140.4813   69.4271  227.8278 H   0  0  0  0  0  0  0  0  0  0  0  0
  139.8800   69.0790  225.7740 C   0  0  0  0  0  0  0  0  0  0  0  0
  139.5580   67.3920  226.1540 Cl  0  0  0  0  0  0  0  0  0  0  0  0
  134.6010   72.7700  225.0850 C   0  0  0  0  0  0  0  0  0  0  0  0
  134.3430   73.9800  225.7640 C   0  0  0  0  0  0  0  0  0  0  0  0
  134.9610   75.1340  225.4060 F   0  0  0  0  0  0  0  0  0  0  0  0
  133.4540   74.0070  226.7920 N   0  0  0  0  0  0  0  0  0  0  0  0
  132.7910   72.8940  227.2010 C   0  0  0  0  0  0  0  0  0  0  0  0
  132.0804   72.9532  228.0386 H   0  0  0  0  0  0  0  0  0  0  0  0
  133.0120   71.6760  226.5580 C   0  0  0  0  0  0  0  0  0  0  0  0
  132.4787   70.7709  226.8842 H   0  0  0  0  0  0  0  0  0  0  0  0
  133.9170   71.6170  225.4960 C   0  0  0  0  0  0  0  0  0  0  0  0
  134.0940   70.6619  224.9797 H   0  0  0  0  0  0  0  0  0  0  0  0
  1  2  1  0
  2  3  2  0
  3  4  1  0
  4  5  1  0
  5  6  2  0
  5  7  1  0
  7  8  1  0
  7  9  1  0
  7 10  1  0
 10 11  1  0
 10 12  1  0
 10 13  1  0
 13 14  1  0
 13 15  1  0
 13 16  1  0
 16 17  1  0
 17 18  2  0
 18 19  1  0
 18 20  1  0
 20 21  1  0
 20 22  2  0
 22 23  1  0
 22 24  1  0
 24 25  1  0
 24 26  2  0
 26 27  1  0
  2 28  1  0
 28 29  2  0
 29 30  1  0
 29 31  1  0
 31 32  2  0
 32 33  1  0
 32 34  1  0
 34 35  1  0
 34 36  2  0
 36 37  1  0
 26 17  1  0
 36 28  1  0
M  CHG  1   4  -1
M  END
>  <UniqueID>  (70) 
16

>  <SMILES>  (70) 
O=C(CCCOc1ccc(Cl)cc1Cl)[N-]/N=C/c1cccnc1F

>  <Energy>  (70) 
37.80070138269376

>  <Genealogy>  (70) 
O=C(CCCOc1ccc(Cl)cc1Cl)[N-]N=Cc1cccnc1F (protonated)
O=C(CCCOc1ccc(Cl)cc1Cl)[N-]/N=C/c1cccnc1F (cis-trans isomerization)
O=C(CCCOc1ccc(Cl)cc1Cl)[N-]/N=C/c1cccnc1F (3D coordinates assigned)
O=C(CCCOc1ccc(Cl)cc1Cl)[N-]/N=C/c1cccnc1F (optimized conformer: 37.80070138269376 kcal/mol)

>  <smiles>  (70) 
O=C(CCCOc1ccc(Cl)cc1Cl)NN=Cc1cccnc1F

>  <score_type>  (70) 
oracle

>  <origin>  (70) 
autodockgpu

>  <m_score__min__energy>  (70) 
-6.3399999999999999

>  <m_primary>  (70) 
energy

>  <meeko>  (70) 
{"free_energy": -5.13, "intermolecular_energy": -7.82, "internal_energy": -1.03, "cluster_size": 1, "cluster_id": 8, "rank_in_cluster": 1}

>  <energy>  (70) 
-6.1

>  <cluster_rmsd>  (70) 
1.32

>  <rmsd>  (70) 
271.97

>  <cluster>  (70) 
2

$$$$
AMYMGDKGSBDGMC-NYADSFOUNA-M
     RDKit          3D

 37 38  0  0  0  0  0  0  0  0999 V2000
  139.7408   67.4598  227.6211 H   0  0  0  0  0  0  0  0  0  0  0  0
  139.9590   68.1100  226.7610 C   0  0  0  0  0  0  0  0  0  0  0  0
  139.8850   67.6240  225.5640 N   0  0  0  0  0  0  0  0  0  0  0  0
  138.7390   67.8130  224.7820 N   0  0  0  0  0  0  0  0  0  0  0  0
  138.3780   69.1130  224.3200 C   0  0  0  0  0  0  0  0  0  0  0  0
  137.6380   69.8530  225.0240 O   0  0  0  0  0  0  0  0  0  0  0  0
  138.8670   69.5970  222.9900 C   0  0  0  0  0  0  0  0  0  0  0  0
  139.9309   69.3371  222.8870 H   0  0  0  0  0  0  0  0  0  0  0  0
  138.2614   69.1135  222.2093 H   0  0  0  0  0  0  0  0  0  0  0  0
  138.7110   71.1180  222.8370 C   0  0  0  0  0  0  0  0  0  0  0  0
  138.4783   71.3412  221.7853 H   0  0  0  0  0  0  0  0  0  0  0  0
  137.9045   71.4329  223.5155 H   0  0  0  0  0  0  0  0  0  0  0  0
  139.9740   71.9020  223.2350 C   0  0  0  0  0  0  0  0  0  0  0  0
  139.8327   72.3070  224.2479 H   0  0  0  0  0  0  0  0  0  0  0  0
  140.8254   71.2069  223.1912 H   0  0  0  0  0  0  0  0  0  0  0  0
  140.2520   72.9830  222.3450 O   0  0  0  0  0  0  0  0  0  0  0  0
  141.3850   73.1760  221.5300 C   0  0  0  0  0  0  0  0  0  0  0  0
  142.1640   72.0370  221.2810 C   0  0  0  0  0  0  0  0  0  0  0  0
  141.8913   71.0824  221.7547 H   0  0  0  0  0  0  0  0  0  0  0  0
  143.2780   72.0920  220.4440 C   0  0  0  0  0  0  0  0  0  0  0  0
  143.8647   71.1823  220.2486 H   0  0  0  0  0  0  0  0  0  0  0  0
  143.6480   73.3000  219.8550 C   0  0  0  0  0  0  0  0  0  0  0  0
  145.0480   73.3700  218.8010 Cl  0  0  0  0  0  0  0  0  0  0  0  0
  142.9140   74.4570  220.1230 C   0  0  0  0  0  0  0  0  0  0  0  0
  143.2196   75.4115  219.6697 H   0  0  0  0  0  0  0  0  0  0  0  0
  141.7920   74.4170  220.9630 C   0  0  0  0  0  0  0  0  0  0  0  0
  141.0360   75.9650  221.3190 Cl  0  0  0  0  0  0  0  0  0  0  0  0
  140.3310   69.5220  226.9960 C   0  0  0  0  0  0  0  0  0  0  0  0
  139.9250   70.2340  228.1450 C   0  0  0  0  0  0  0  0  0  0  0  0
  139.1630   69.6480  229.1030 F   0  0  0  0  0  0  0  0  0  0  0  0
  140.3040   71.5290  228.3130 N   0  0  0  0  0  0  0  0  0  0  0  0
  141.0730   72.1780  227.3990 C   0  0  0  0  0  0  0  0  0  0  0  0
  141.3574   73.2274  227.5656 H   0  0  0  0  0  0  0  0  0  0  0  0
  141.5010   71.5140  226.2510 C   0  0  0  0  0  0  0  0  0  0  0  0
  142.1252   72.0338  225.5092 H   0  0  0  0  0  0  0  0  0  0  0  0
  141.1300   70.1820  226.0510 C   0  0  0  0  0  0  0  0  0  0  0  0
  141.4657   69.6490  225.1492 H   0  0  0  0  0  0  0  0  0  0  0  0
  1  2  1  0
  2  3  2  0
  3  4  1  0
  4  5  1  0
  5  6  2  0
  5  7  1  0
  7  8  1  0
  7  9  1  0
  7 10  1  0
 10 11  1  0
 10 12  1  0
 10 13  1  0
 13 14  1  0
 13 15  1  0
 13 16  1  0
 16 17  1  0
 17 18  2  0
 18 19  1  0
 18 20  1  0
 20 21  1  0
 20 22  2  0
 22 23  1  0
 22 24  1  0
 24 25  1  0
 24 26  2  0
 26 27  1  0
  2 28  1  0
 28 29  2  0
 29 30  1  0
 29 31  1  0
 31 32  2  0
 32 33  1  0
 32 34  1  0
 34 35  1  0
 34 36  2  0
 36 37  1  0
 26 17  1  0
 36 28  1  0
M  CHG  1   4  -1
M  END
>  <UniqueID>  (71) 
16

>  <SMILES>  (71) 
O=C(CCCOc1ccc(Cl)cc1Cl)[N-]/N=C/c1cccnc1F

>  <Energy>  (71) 
37.80070138269376

>  <Genealogy>  (71) 
O=C(CCCOc1ccc(Cl)cc1Cl)[N-]N=Cc1cccnc1F (protonated)
O=C(CCCOc1ccc(Cl)cc1Cl)[N-]/N=C/c1cccnc1F (cis-trans isomerization)
O=C(CCCOc1ccc(Cl)cc1Cl)[N-]/N=C/c1cccnc1F (3D coordinates assigned)
O=C(CCCOc1ccc(Cl)cc1Cl)[N-]/N=C/c1cccnc1F (optimized conformer: 37.80070138269376 kcal/mol)

>  <smiles>  (71) 
O=C(CCCOc1ccc(Cl)cc1Cl)NN=Cc1cccnc1F

>  <score_type>  (71) 
oracle

>  <origin>  (71) 
autodockgpu

>  <m_score__min__energy>  (71) 
-6.3399999999999999

>  <m_primary>  (71) 
energy

>  <meeko>  (71) 
{"free_energy": -6.1, "intermolecular_energy": -8.79, "internal_energy": -1.0, "cluster_size": 4, "cluster_id": 2, "rank_in_cluster": 2}

>  <energy>  (71) 
-5.88

>  <cluster_rmsd>  (71) 
1.94

>  <rmsd>  (71) 
271.83

>  <cluster>  (71) 
2

$$$$
AMYMGDKGSBDGMC-NYADSFOUNA-M
     RDKit          3D

 37 38  0  0  0  0  0  0  0  0999 V2000
  141.2266   67.7407  225.9539 H   0  0  0  0  0  0  0  0  0  0  0  0
  140.3450   68.3500  226.2020 C   0  0  0  0  0  0  0  0  0  0  0  0
  139.1630   67.8560  226.0220 N   0  0  0  0  0  0  0  0  0  0  0  0
  138.3590   68.2840  224.9580 N   0  0  0  0  0  0  0  0  0  0  0  0
  138.7790   68.0970  223.6070 C   0  0  0  0  0  0  0  0  0  0  0  0
  139.1610   66.9610  223.2150 O   0  0  0  0  0  0  0  0  0  0  0  0
  138.7790   69.2530  222.6570 C   0  0  0  0  0  0  0  0  0  0  0  0
  139.3855   68.9899  221.7778 H   0  0  0  0  0  0  0  0  0  0  0  0
  137.7362   69.4598  222.3744 H   0  0  0  0  0  0  0  0  0  0  0  0
  139.3580   70.5250  223.2960 C   0  0  0  0  0  0  0  0  0  0  0  0
  139.0365   70.5650  224.3472 H   0  0  0  0  0  0  0  0  0  0  0  0
  140.4523   70.4692  223.1990 H   0  0  0  0  0  0  0  0  0  0  0  0
  138.9040   71.8180  222.5970 C   0  0  0  0  0  0  0  0  0  0  0  0
  138.7420   71.6038  221.5303 H   0  0  0  0  0  0  0  0  0  0  0  0
  137.9791   72.1554  223.0877 H   0  0  0  0  0  0  0  0  0  0  0  0
  139.8640   72.8700  222.7120 O   0  0  0  0  0  0  0  0  0  0  0  0
  140.9860   73.1230  221.9000 C   0  0  0  0  0  0  0  0  0  0  0  0
  141.7930   72.0150  221.6050 C   0  0  0  0  0  0  0  0  0  0  0  0
  141.5479   71.0367  222.0441 H   0  0  0  0  0  0  0  0  0  0  0  0
  142.9010   72.1300  220.7650 C   0  0  0  0  0  0  0  0  0  0  0  0
  143.5104   71.2441  220.5330 H   0  0  0  0  0  0  0  0  0  0  0  0
  143.2350   73.3690  220.2200 C   0  0  0  0  0  0  0  0  0  0  0  0
  144.6270   73.5150  219.1620 Cl  0  0  0  0  0  0  0  0  0  0  0  0
  142.4720   74.4960  220.5330 C   0  0  0  0  0  0  0  0  0  0  0  0
  142.7489   75.4740  220.1126 H   0  0  0  0  0  0  0  0  0  0  0  0
  141.3570   74.3950  221.3770 C   0  0  0  0  0  0  0  0  0  0  0  0
  140.5620   75.9070  221.7930 Cl  0  0  0  0  0  0  0  0  0  0  0  0
  140.5360   69.7160  226.7340 C   0  0  0  0  0  0  0  0  0  0  0  0
  141.3540   70.6730  226.0980 C   0  0  0  0  0  0  0  0  0  0  0  0
  142.0160   70.3820  224.9500 F   0  0  0  0  0  0  0  0  0  0  0  0
  141.4860   71.9170  226.6300 N   0  0  0  0  0  0  0  0  0  0  0  0
  140.8480   72.2830  227.7730 C   0  0  0  0  0  0  0  0  0  0  0  0
  140.9800   73.2979  228.1763 H   0  0  0  0  0  0  0  0  0  0  0  0
  140.0260   71.3710  228.4340 C   0  0  0  0  0  0  0  0  0  0  0  0
  139.5059   71.6616  229.3587 H   0  0  0  0  0  0  0  0  0  0  0  0
  139.8690   70.0860  227.9120 C   0  0  0  0  0  0  0  0  0  0  0  0
  139.2204   69.3611  228.4256 H   0  0  0  0  0  0  0  0  0  0  0  0
  1  2  1  0
  2  3  2  0
  3  4  1  0
  4  5  1  0
  5  6  2  0
  5  7  1  0
  7  8  1  0
  7  9  1  0
  7 10  1  0
 10 11  1  0
 10 12  1  0
 10 13  1  0
 13 14  1  0
 13 15  1  0
 13 16  1  0
 16 17  1  0
 17 18  2  0
 18 19  1  0
 18 20  1  0
 20 21  1  0
 20 22  2  0
 22 23  1  0
 22 24  1  0
 24 25  1  0
 24 26  2  0
 26 27  1  0
  2 28  1  0
 28 29  2  0
 29 30  1  0
 29 31  1  0
 31 32  2  0
 32 33  1  0
 32 34  1  0
 34 35  1  0
 34 36  2  0
 36 37  1  0
 26 17  1  0
 36 28  1  0
M  CHG  1   4  -1
M  END
>  <UniqueID>  (72) 
16

>  <SMILES>  (72) 
O=C(CCCOc1ccc(Cl)cc1Cl)[N-]/N=C/c1cccnc1F

>  <Energy>  (72) 
37.80070138269376

>  <Genealogy>  (72) 
O=C(CCCOc1ccc(Cl)cc1Cl)[N-]N=Cc1cccnc1F (protonated)
O=C(CCCOc1ccc(Cl)cc1Cl)[N-]/N=C/c1cccnc1F (cis-trans isomerization)
O=C(CCCOc1ccc(Cl)cc1Cl)[N-]/N=C/c1cccnc1F (3D coordinates assigned)
O=C(CCCOc1ccc(Cl)cc1Cl)[N-]/N=C/c1cccnc1F (optimized conformer: 37.80070138269376 kcal/mol)

>  <smiles>  (72) 
O=C(CCCOc1ccc(Cl)cc1Cl)NN=Cc1cccnc1F

>  <score_type>  (72) 
oracle

>  <origin>  (72) 
autodockgpu

>  <m_score__min__energy>  (72) 
-6.3399999999999999

>  <m_primary>  (72) 
energy

>  <meeko>  (72) 
{"free_energy": -5.88, "intermolecular_energy": -8.57, "internal_energy": -0.89, "cluster_size": 4, "cluster_id": 2, "rank_in_cluster": 3}

>  <energy>  (72) 
-5.66

>  <cluster_rmsd>  (72) 
1.69

>  <rmsd>  (72) 
271.93

>  <cluster>  (72) 
2

$$$$
AMYMGDKGSBDGMC-NYADSFOUNA-M
     RDKit          3D

 37 38  0  0  0  0  0  0  0  0999 V2000
  141.0687   71.7531  224.3313 H   0  0  0  0  0  0  0  0  0  0  0  0
  140.1430   71.1590  224.3190 C   0  0  0  0  0  0  0  0  0  0  0  0
  139.1720   71.5160  223.5430 N   0  0  0  0  0  0  0  0  0  0  0  0
  139.4260   72.0370  222.2680 N   0  0  0  0  0  0  0  0  0  0  0  0
  139.5770   73.4420  222.0720 C   0  0  0  0  0  0  0  0  0  0  0  0
  140.7290   73.9560  222.0320 O   0  0  0  0  0  0  0  0  0  0  0  0
  138.3670   74.3130  221.9290 C   0  0  0  0  0  0  0  0  0  0  0  0
  137.4714   73.7176  222.1601 H   0  0  0  0  0  0  0  0  0  0  0  0
  138.4727   75.1586  222.6245 H   0  0  0  0  0  0  0  0  0  0  0  0
  138.2320   74.8810  220.5080 C   0  0  0  0  0  0  0  0  0  0  0  0
  138.9455   74.3587  219.8537 H   0  0  0  0  0  0  0  0  0  0  0  0
  137.1900   74.7251  220.1917 H   0  0  0  0  0  0  0  0  0  0  0  0
  138.5120   76.3920  220.4290 C   0  0  0  0  0  0  0  0  0  0  0  0
  139.4342   76.5498  219.8505 H   0  0  0  0  0  0  0  0  0  0  0  0
  137.6450   76.8672  219.9469 H   0  0  0  0  0  0  0  0  0  0  0  0
  138.6720   76.9880  221.7170 O   0  0  0  0  0  0  0  0  0  0  0  0
  139.6570   77.9010  222.1420 C   0  0  0  0  0  0  0  0  0  0  0  0
  139.2400   78.8680  223.0680 C   0  0  0  0  0  0  0  0  0  0  0  0
  138.1847   78.8999  223.3766 H   0  0  0  0  0  0  0  0  0  0  0  0
  140.1380   79.7900  223.6050 C   0  0  0  0  0  0  0  0  0  0  0  0
  139.7931   80.5277  224.3444 H   0  0  0  0  0  0  0  0  0  0  0  0
  141.4730   79.7760  223.2040 C   0  0  0  0  0  0  0  0  0  0  0  0
  142.6040   80.9340  223.8790 Cl  0  0  0  0  0  0  0  0  0  0  0  0
  141.9030   78.8510  222.2510 C   0  0  0  0  0  0  0  0  0  0  0  0
  142.9541   78.8538  221.9267 H   0  0  0  0  0  0  0  0  0  0  0  0
  141.0110   77.9180  221.7020 C   0  0  0  0  0  0  0  0  0  0  0  0
  141.6500   76.8980  220.4200 Cl  0  0  0  0  0  0  0  0  0  0  0  0
  140.0350   69.9690  225.1900 C   0  0  0  0  0  0  0  0  0  0  0  0
  139.2590   68.8420  224.8450 C   0  0  0  0  0  0  0  0  0  0  0  0
  138.5660   68.7950  223.6790 F   0  0  0  0  0  0  0  0  0  0  0  0
  139.2030   67.7720  225.6820 N   0  0  0  0  0  0  0  0  0  0  0  0
  139.8770   67.7450  226.8620 C   0  0  0  0  0  0  0  0  0  0  0  0
  139.8062   66.8634  227.5161 H   0  0  0  0  0  0  0  0  0  0  0  0
  140.6580   68.8350  227.2430 C   0  0  0  0  0  0  0  0  0  0  0  0
  141.2065   68.8183  228.1964 H   0  0  0  0  0  0  0  0  0  0  0  0
  140.7380   69.9480  226.4040 C   0  0  0  0  0  0  0  0  0  0  0  0
  141.3542   70.8113  226.6957 H   0  0  0  0  0  0  0  0  0  0  0  0
  1  2  1  0
  2  3  2  0
  3  4  1  0
  4  5  1  0
  5  6  2  0
  5  7  1  0
  7  8  1  0
  7  9  1  0
  7 10  1  0
 10 11  1  0
 10 12  1  0
 10 13  1  0
 13 14  1  0
 13 15  1  0
 13 16  1  0
 16 17  1  0
 17 18  2  0
 18 19  1  0
 18 20  1  0
 20 21  1  0
 20 22  2  0
 22 23  1  0
 22 24  1  0
 24 25  1  0
 24 26  2  0
 26 27  1  0
  2 28  1  0
 28 29  2  0
 29 30  1  0
 29 31  1  0
 31 32  2  0
 32 33  1  0
 32 34  1  0
 34 35  1  0
 34 36  2  0
 36 37  1  0
 26 17  1  0
 36 28  1  0
M  CHG  1   4  -1
M  END
>  <UniqueID>  (73) 
16

>  <SMILES>  (73) 
O=C(CCCOc1ccc(Cl)cc1Cl)[N-]/N=C/c1cccnc1F

>  <Energy>  (73) 
37.80070138269376

>  <Genealogy>  (73) 
O=C(CCCOc1ccc(Cl)cc1Cl)[N-]N=Cc1cccnc1F (protonated)
O=C(CCCOc1ccc(Cl)cc1Cl)[N-]/N=C/c1cccnc1F (cis-trans isomerization)
O=C(CCCOc1ccc(Cl)cc1Cl)[N-]/N=C/c1cccnc1F (3D coordinates assigned)
O=C(CCCOc1ccc(Cl)cc1Cl)[N-]/N=C/c1cccnc1F (optimized conformer: 37.80070138269376 kcal/mol)

>  <smiles>  (73) 
O=C(CCCOc1ccc(Cl)cc1Cl)NN=Cc1cccnc1F

>  <score_type>  (73) 
oracle

>  <origin>  (73) 
autodockgpu

>  <m_score__min__energy>  (73) 
-6.3399999999999999

>  <m_primary>  (73) 
energy

>  <meeko>  (73) 
{"free_energy": -5.84, "intermolecular_energy": -8.52, "internal_energy": -0.5, "cluster_size": 8, "cluster_id": 1, "rank_in_cluster": 5}

>  <energy>  (73) 
-6.23

>  <cluster_rmsd>  (73) 
0.0

>  <rmsd>  (73) 
270.9

>  <cluster>  (73) 
3

$$$$
AMYMGDKGSBDGMC-NYADSFOUNA-M
     RDKit          3D

 37 38  0  0  0  0  0  0  0  0999 V2000
  141.4076   70.8284  223.2183 H   0  0  0  0  0  0  0  0  0  0  0  0
  140.6730   71.3880  223.8160 C   0  0  0  0  0  0  0  0  0  0  0  0
  139.9540   72.2990  223.2450 N   0  0  0  0  0  0  0  0  0  0  0  0
  140.5490   73.3010  222.4680 N   0  0  0  0  0  0  0  0  0  0  0  0
  139.7590   74.1170  221.6040 C   0  0  0  0  0  0  0  0  0  0  0  0
  140.2720   74.6270  220.5700 O   0  0  0  0  0  0  0  0  0  0  0  0
  138.3220   74.3810  221.9310 C   0  0  0  0  0  0  0  0  0  0  0  0
  137.7712   73.4292  221.9051 H   0  0  0  0  0  0  0  0  0  0  0  0
  138.2793   74.8381  222.9306 H   0  0  0  0  0  0  0  0  0  0  0  0
  137.6750   75.3560  220.9350 C   0  0  0  0  0  0  0  0  0  0  0  0
  137.7744   74.9380  219.9224 H   0  0  0  0  0  0  0  0  0  0  0  0
  136.6227   75.4754  221.2323 H   0  0  0  0  0  0  0  0  0  0  0  0
  138.3150   76.7550  220.9510 C   0  0  0  0  0  0  0  0  0  0  0  0
  139.2887   76.7029  220.4418 H   0  0  0  0  0  0  0  0  0  0  0  0
  137.6259   77.4427  220.4389 H   0  0  0  0  0  0  0  0  0  0  0  0
  138.5170   77.2510  222.2750 O   0  0  0  0  0  0  0  0  0  0  0  0
  139.4900   78.1630  222.7290 C   0  0  0  0  0  0  0  0  0  0  0  0
  140.8190   77.7190  222.6750 C   0  0  0  0  0  0  0  0  0  0  0  0
  141.0329   76.6948  222.3356 H   0  0  0  0  0  0  0  0  0  0  0  0
  141.8750   78.5530  223.0440 C   0  0  0  0  0  0  0  0  0  0  0  0
  142.9117   78.1915  222.9760 H   0  0  0  0  0  0  0  0  0  0  0  0
  141.6150   79.8450  223.4990 C   0  0  0  0  0  0  0  0  0  0  0  0
  142.9420   80.8950  223.9620 Cl  0  0  0  0  0  0  0  0  0  0  0  0
  140.2980   80.2940  223.6020 C   0  0  0  0  0  0  0  0  0  0  0  0
  140.0976   81.3090  223.9756 H   0  0  0  0  0  0  0  0  0  0  0  0
  139.2270   79.4670  223.2350 C   0  0  0  0  0  0  0  0  0  0  0  0
  137.6160   80.1070  223.5360 Cl  0  0  0  0  0  0  0  0  0  0  0  0
  140.5280   71.0830  225.2560 C   0  0  0  0  0  0  0  0  0  0  0  0
  139.7830   69.9820  225.7290 C   0  0  0  0  0  0  0  0  0  0  0  0
  139.1540   69.1370  224.8730 F   0  0  0  0  0  0  0  0  0  0  0  0
  139.6910   69.7460  227.0650 N   0  0  0  0  0  0  0  0  0  0  0  0
  140.3000   70.5450  227.9810 C   0  0  0  0  0  0  0  0  0  0  0  0
  140.2011   70.3261  229.0545 H   0  0  0  0  0  0  0  0  0  0  0  0
  141.0500   71.6420  227.5590 C   0  0  0  0  0  0  0  0  0  0  0  0
  141.5466   72.2911  228.2953 H   0  0  0  0  0  0  0  0  0  0  0  0
  141.1650   71.9090  226.1940 C   0  0  0  0  0  0  0  0  0  0  0  0
  141.7575   72.7705  225.8523 H   0  0  0  0  0  0  0  0  0  0  0  0
  1  2  1  0
  2  3  2  0
  3  4  1  0
  4  5  1  0
  5  6  2  0
  5  7  1  0
  7  8  1  0
  7  9  1  0
  7 10  1  0
 10 11  1  0
 10 12  1  0
 10 13  1  0
 13 14  1  0
 13 15  1  0
 13 16  1  0
 16 17  1  0
 17 18  2  0
 18 19  1  0
 18 20  1  0
 20 21  1  0
 20 22  2  0
 22 23  1  0
 22 24  1  0
 24 25  1  0
 24 26  2  0
 26 27  1  0
  2 28  1  0
 28 29  2  0
 29 30  1  0
 29 31  1  0
 31 32  2  0
 32 33  1  0
 32 34  1  0
 34 35  1  0
 34 36  2  0
 36 37  1  0
 26 17  1  0
 36 28  1  0
M  CHG  1   4  -1
M  END
>  <UniqueID>  (74) 
16

>  <SMILES>  (74) 
O=C(CCCOc1ccc(Cl)cc1Cl)[N-]/N=C/c1cccnc1F

>  <Energy>  (74) 
37.80070138269376

>  <Genealogy>  (74) 
O=C(CCCOc1ccc(Cl)cc1Cl)[N-]N=Cc1cccnc1F (protonated)
O=C(CCCOc1ccc(Cl)cc1Cl)[N-]/N=C/c1cccnc1F (cis-trans isomerization)
O=C(CCCOc1ccc(Cl)cc1Cl)[N-]/N=C/c1cccnc1F (3D coordinates assigned)
O=C(CCCOc1ccc(Cl)cc1Cl)[N-]/N=C/c1cccnc1F (optimized conformer: 37.80070138269376 kcal/mol)

>  <smiles>  (74) 
O=C(CCCOc1ccc(Cl)cc1Cl)NN=Cc1cccnc1F

>  <score_type>  (74) 
oracle

>  <origin>  (74) 
autodockgpu

>  <m_score__min__energy>  (74) 
-6.3399999999999999

>  <m_primary>  (74) 
energy

>  <meeko>  (74) 
{"free_energy": -5.81, "intermolecular_energy": -8.5, "internal_energy": -0.6, "cluster_size": 8, "cluster_id": 1, "rank_in_cluster": 6}

>  <energy>  (74) 
-6.18

>  <cluster_rmsd>  (74) 
1.61

>  <rmsd>  (74) 
271.18

>  <cluster>  (74) 
3

$$$$
AMYMGDKGSBDGMC-NYADSFOUNA-M
     RDKit          3D

 37 38  0  0  0  0  0  0  0  0999 V2000
  139.6949   67.4226  227.6077 H   0  0  0  0  0  0  0  0  0  0  0  0
  139.6930   68.1550  226.7870 C   0  0  0  0  0  0  0  0  0  0  0  0
  139.2750   67.7940  225.6170 N   0  0  0  0  0  0  0  0  0  0  0  0
  138.1880   68.4370  225.0130 N   0  0  0  0  0  0  0  0  0  0  0  0
  138.3720   69.6490  224.2840 C   0  0  0  0  0  0  0  0  0  0  0  0
  137.5880   70.6210  224.4620 O   0  0  0  0  0  0  0  0  0  0  0  0
  139.4890   69.7640  223.2930 C   0  0  0  0  0  0  0  0  0  0  0  0
  140.4452   69.7858  223.8364 H   0  0  0  0  0  0  0  0  0  0  0  0
  139.4352   68.8973  222.6178 H   0  0  0  0  0  0  0  0  0  0  0  0
  139.3730   71.0380  222.4410 C   0  0  0  0  0  0  0  0  0  0  0  0
  139.4178   70.7537  221.3793 H   0  0  0  0  0  0  0  0  0  0  0  0
  138.4182   71.5186  222.7006 H   0  0  0  0  0  0  0  0  0  0  0  0
  140.4890   72.0590  222.7210 C   0  0  0  0  0  0  0  0  0  0  0  0
  140.7657   71.9962  223.7838 H   0  0  0  0  0  0  0  0  0  0  0  0
  141.3380   71.8133  222.0661 H   0  0  0  0  0  0  0  0  0  0  0  0
  140.0910   73.4000  222.4300 O   0  0  0  0  0  0  0  0  0  0  0  0
  140.7390   74.3470  221.6120 C   0  0  0  0  0  0  0  0  0  0  0  0
  141.8880   73.8990  220.9460 C   0  0  0  0  0  0  0  0  0  0  0  0
  142.2490   72.8748  221.1214 H   0  0  0  0  0  0  0  0  0  0  0  0
  142.5820   74.7280  220.0650 C   0  0  0  0  0  0  0  0  0  0  0  0
  143.4707   74.3500  219.5384 H   0  0  0  0  0  0  0  0  0  0  0  0
  142.1490   76.0360  219.8520 C   0  0  0  0  0  0  0  0  0  0  0  0
  143.0200   77.0800  218.7440 Cl  0  0  0  0  0  0  0  0  0  0  0  0
  141.0320   76.5190  220.5370 C   0  0  0  0  0  0  0  0  0  0  0  0
  140.7029   77.5564  220.3776 H   0  0  0  0  0  0  0  0  0  0  0  0
  140.3250   75.6960  221.4260 C   0  0  0  0  0  0  0  0  0  0  0  0
  139.0190   76.4650  222.3190 Cl  0  0  0  0  0  0  0  0  0  0  0  0
  140.1680   69.5310  227.0440 C   0  0  0  0  0  0  0  0  0  0  0  0
  139.7900   70.2650  228.1890 C   0  0  0  0  0  0  0  0  0  0  0  0
  138.9600   69.7350  229.1220 F   0  0  0  0  0  0  0  0  0  0  0  0
  140.2650   71.5250  228.3760 N   0  0  0  0  0  0  0  0  0  0  0  0
  141.1060   72.1180  227.4880 C   0  0  0  0  0  0  0  0  0  0  0  0
  141.4682   73.1404  227.6710 H   0  0  0  0  0  0  0  0  0  0  0  0
  141.5090   71.4290  226.3450 C   0  0  0  0  0  0  0  0  0  0  0  0
  142.1905   71.9025  225.6230 H   0  0  0  0  0  0  0  0  0  0  0  0
  141.0400   70.1330  226.1250 C   0  0  0  0  0  0  0  0  0  0  0  0
  141.3555   69.5814  225.2271 H   0  0  0  0  0  0  0  0  0  0  0  0
  1  2  1  0
  2  3  2  0
  3  4  1  0
  4  5  1  0
  5  6  2  0
  5  7  1  0
  7  8  1  0
  7  9  1  0
  7 10  1  0
 10 11  1  0
 10 12  1  0
 10 13  1  0
 13 14  1  0
 13 15  1  0
 13 16  1  0
 16 17  1  0
 17 18  2  0
 18 19  1  0
 18 20  1  0
 20 21  1  0
 20 22  2  0
 22 23  1  0
 22 24  1  0
 24 25  1  0
 24 26  2  0
 26 27  1  0
  2 28  1  0
 28 29  2  0
 29 30  1  0
 29 31  1  0
 31 32  2  0
 32 33  1  0
 32 34  1  0
 34 35  1  0
 34 36  2  0
 36 37  1  0
 26 17  1  0
 36 28  1  0
M  CHG  1   4  -1
M  END
>  <UniqueID>  (75) 
16

>  <SMILES>  (75) 
O=C(CCCOc1ccc(Cl)cc1Cl)[N-]/N=C/c1cccnc1F

>  <Energy>  (75) 
37.80070138269376

>  <Genealogy>  (75) 
O=C(CCCOc1ccc(Cl)cc1Cl)[N-]N=Cc1cccnc1F (protonated)
O=C(CCCOc1ccc(Cl)cc1Cl)[N-]/N=C/c1cccnc1F (cis-trans isomerization)
O=C(CCCOc1ccc(Cl)cc1Cl)[N-]/N=C/c1cccnc1F (3D coordinates assigned)
O=C(CCCOc1ccc(Cl)cc1Cl)[N-]/N=C/c1cccnc1F (optimized conformer: 37.80070138269376 kcal/mol)

>  <smiles>  (75) 
O=C(CCCOc1ccc(Cl)cc1Cl)NN=Cc1cccnc1F

>  <score_type>  (75) 
oracle

>  <origin>  (75) 
autodockgpu

>  <m_score__min__energy>  (75) 
-6.3399999999999999

>  <m_primary>  (75) 
energy

>  <meeko>  (75) 
{"free_energy": -6.25, "intermolecular_energy": -8.93, "internal_energy": -0.8, "cluster_size": 4, "cluster_id": 2, "rank_in_cluster": 1}

>  <energy>  (75) 
-5.77

>  <cluster_rmsd>  (75) 
0.0

>  <rmsd>  (75) 
271.32

>  <cluster>  (75) 
4

$$$$
AMYMGDKGSBDGMC-NYADSFOUNA-M
     RDKit          3D

 37 38  0  0  0  0  0  0  0  0999 V2000
  139.4014   71.9915  225.9129 H   0  0  0  0  0  0  0  0  0  0  0  0
  140.0290   71.2930  225.3400 C   0  0  0  0  0  0  0  0  0  0  0  0
  140.7290   71.7380  224.3480 N   0  0  0  0  0  0  0  0  0  0  0  0
  140.3310   71.5070  223.0250 N   0  0  0  0  0  0  0  0  0  0  0  0
  139.9810   72.5940  222.1700 C   0  0  0  0  0  0  0  0  0  0  0  0
  140.5190   73.7240  222.3290 O   0  0  0  0  0  0  0  0  0  0  0  0
  138.9640   72.3980  221.0890 C   0  0  0  0  0  0  0  0  0  0  0  0
  138.4798   71.4204  221.2302 H   0  0  0  0  0  0  0  0  0  0  0  0
  138.2339   73.2179  221.1574 H   0  0  0  0  0  0  0  0  0  0  0  0
  139.5950   72.4410  219.6890 C   0  0  0  0  0  0  0  0  0  0  0  0
  140.4065   71.6994  219.6486 H   0  0  0  0  0  0  0  0  0  0  0  0
  138.7970   72.2212  218.9645 H   0  0  0  0  0  0  0  0  0  0  0  0
  140.1740   73.8190  219.3260 C   0  0  0  0  0  0  0  0  0  0  0  0
  139.5384   74.2759  218.5532 H   0  0  0  0  0  0  0  0  0  0  0  0
  140.1944   74.4245  220.2442 H   0  0  0  0  0  0  0  0  0  0  0  0
  141.5120   73.7390  218.8300 O   0  0  0  0  0  0  0  0  0  0  0  0
  142.7180   73.7600  219.5580 C   0  0  0  0  0  0  0  0  0  0  0  0
  143.1180   72.5380  220.1180 C   0  0  0  0  0  0  0  0  0  0  0  0
  142.4706   71.6555  220.0079 H   0  0  0  0  0  0  0  0  0  0  0  0
  144.3220   72.4220  220.8120 C   0  0  0  0  0  0  0  0  0  0  0  0
  144.6256   71.4499  221.2277 H   0  0  0  0  0  0  0  0  0  0  0  0
  145.1410   73.5380  220.9790 C   0  0  0  0  0  0  0  0  0  0  0  0
  146.6560   73.3930  221.8510 Cl  0  0  0  0  0  0  0  0  0  0  0  0
  144.7430   74.7750  220.4670 C   0  0  0  0  0  0  0  0  0  0  0  0
  145.3850   75.6561  220.6140 H   0  0  0  0  0  0  0  0  0  0  0  0
  143.5350   74.9070  219.7680 C   0  0  0  0  0  0  0  0  0  0  0  0
  143.0920   76.5410  219.2900 Cl  0  0  0  0  0  0  0  0  0  0  0  0
  140.0550   69.8640  225.7200 C   0  0  0  0  0  0  0  0  0  0  0  0
  139.1450   68.9210  225.1980 C   0  0  0  0  0  0  0  0  0  0  0  0
  138.1870   69.2850  224.3090 F   0  0  0  0  0  0  0  0  0  0  0  0
  139.2220   67.6180  225.5790 N   0  0  0  0  0  0  0  0  0  0  0  0
  140.1590   67.1790  226.4600 C   0  0  0  0  0  0  0  0  0  0  0  0
  140.1891   66.1177  226.7478 H   0  0  0  0  0  0  0  0  0  0  0  0
  141.0820   68.0740  226.9990 C   0  0  0  0  0  0  0  0  0  0  0  0
  141.8439   67.7243  227.7112 H   0  0  0  0  0  0  0  0  0  0  0  0
  141.0300   69.4190  226.6260 C   0  0  0  0  0  0  0  0  0  0  0  0
  141.7559   70.1320  227.0439 H   0  0  0  0  0  0  0  0  0  0  0  0
  1  2  1  0
  2  3  2  0
  3  4  1  0
  4  5  1  0
  5  6  2  0
  5  7  1  0
  7  8  1  0
  7  9  1  0
  7 10  1  0
 10 11  1  0
 10 12  1  0
 10 13  1  0
 13 14  1  0
 13 15  1  0
 13 16  1  0
 16 17  1  0
 17 18  2  0
 18 19  1  0
 18 20  1  0
 20 21  1  0
 20 22  2  0
 22 23  1  0
 22 24  1  0
 24 25  1  0
 24 26  2  0
 26 27  1  0
  2 28  1  0
 28 29  2  0
 29 30  1  0
 29 31  1  0
 31 32  2  0
 32 33  1  0
 32 34  1  0
 34 35  1  0
 34 36  2  0
 36 37  1  0
 26 17  1  0
 36 28  1  0
M  CHG  1   4  -1
M  END
>  <UniqueID>  (76) 
16

>  <SMILES>  (76) 
O=C(CCCOc1ccc(Cl)cc1Cl)[N-]/N=C/c1cccnc1F

>  <Energy>  (76) 
37.80070138269376

>  <Genealogy>  (76) 
O=C(CCCOc1ccc(Cl)cc1Cl)[N-]N=Cc1cccnc1F (protonated)
O=C(CCCOc1ccc(Cl)cc1Cl)[N-]/N=C/c1cccnc1F (cis-trans isomerization)
O=C(CCCOc1ccc(Cl)cc1Cl)[N-]/N=C/c1cccnc1F (3D coordinates assigned)
O=C(CCCOc1ccc(Cl)cc1Cl)[N-]/N=C/c1cccnc1F (optimized conformer: 37.80070138269376 kcal/mol)

>  <smiles>  (76) 
O=C(CCCOc1ccc(Cl)cc1Cl)NN=Cc1cccnc1F

>  <score_type>  (76) 
oracle

>  <origin>  (76) 
autodockgpu

>  <m_score__min__energy>  (76) 
-6.3399999999999999

>  <m_primary>  (76) 
energy

>  <meeko>  (76) 
{"free_energy": -5.77, "intermolecular_energy": -8.45, "internal_energy": -0.86, "cluster_size": 1, "cluster_id": 4, "rank_in_cluster": 1}

>  <energy>  (76) 
-5.68

>  <cluster_rmsd>  (76) 
0.0

>  <rmsd>  (76) 
272.35

>  <cluster>  (76) 
5

$$$$
AMYMGDKGSBDGMC-NYADSFOUNA-M
     RDKit          3D

 37 38  0  0  0  0  0  0  0  0999 V2000
  140.9089   70.8246  222.8141 H   0  0  0  0  0  0  0  0  0  0  0  0
  140.4460   71.4920  223.5560 C   0  0  0  0  0  0  0  0  0  0  0  0
  139.9520   72.6230  223.1700 N   0  0  0  0  0  0  0  0  0  0  0  0
  140.6850   73.4820  222.3400 N   0  0  0  0  0  0  0  0  0  0  0  0
  140.5060   73.4550  220.9250 C   0  0  0  0  0  0  0  0  0  0  0  0
  141.3410   72.8570  220.1930 O   0  0  0  0  0  0  0  0  0  0  0  0
  139.3330   74.1490  220.3060 C   0  0  0  0  0  0  0  0  0  0  0  0
  139.6695   75.1080  219.8852 H   0  0  0  0  0  0  0  0  0  0  0  0
  138.9241   73.4923  219.5240 H   0  0  0  0  0  0  0  0  0  0  0  0
  138.2180   74.4200  221.3280 C   0  0  0  0  0  0  0  0  0  0  0  0
  137.2777   74.5887  220.7827 H   0  0  0  0  0  0  0  0  0  0  0  0
  138.1611   73.5429  221.9893 H   0  0  0  0  0  0  0  0  0  0  0  0
  138.4940   75.6450  222.2170 C   0  0  0  0  0  0  0  0  0  0  0  0
  137.5430   75.9863  222.6518 H   0  0  0  0  0  0  0  0  0  0  0  0
  139.2086   75.3380  222.9949 H   0  0  0  0  0  0  0  0  0  0  0  0
  139.0810   76.7280  221.4930 O   0  0  0  0  0  0  0  0  0  0  0  0
  139.9760   77.7100  221.9600 C   0  0  0  0  0  0  0  0  0  0  0  0
  139.5020   78.5290  222.9950 C   0  0  0  0  0  0  0  0  0  0  0  0
  138.4695   78.4035  223.3529 H   0  0  0  0  0  0  0  0  0  0  0  0
  140.3160   79.5000  223.5790 C   0  0  0  0  0  0  0  0  0  0  0  0
  139.9307   80.1189  224.4027 H   0  0  0  0  0  0  0  0  0  0  0  0
  141.6190   79.6850  223.1170 C   0  0  0  0  0  0  0  0  0  0  0  0
  142.6450   80.9050  223.8510 Cl  0  0  0  0  0  0  0  0  0  0  0  0
  142.0980   78.9110  222.0580 C   0  0  0  0  0  0  0  0  0  0  0  0
  143.1210   79.0715  221.6870 H   0  0  0  0  0  0  0  0  0  0  0  0
  141.2910   77.9320  221.4620 C   0  0  0  0  0  0  0  0  0  0  0  0
  141.9690   77.1190  220.0580 Cl  0  0  0  0  0  0  0  0  0  0  0  0
  140.4010   71.0780  224.9750 C   0  0  0  0  0  0  0  0  0  0  0  0
  139.7470   69.9030  225.4040 C   0  0  0  0  0  0  0  0  0  0  0  0
  139.1180   69.0860  224.5220 F   0  0  0  0  0  0  0  0  0  0  0  0
  139.7460   69.5670  226.7220 N   0  0  0  0  0  0  0  0  0  0  0  0
  140.3610   70.3330  227.6600 C   0  0  0  0  0  0  0  0  0  0  0  0
  140.3365   70.0321  228.7178 H   0  0  0  0  0  0  0  0  0  0  0  0
  141.0230   71.5000  227.2830 C   0  0  0  0  0  0  0  0  0  0  0  0
  141.5242   72.1229  228.0385 H   0  0  0  0  0  0  0  0  0  0  0  0
  141.0440   71.8710  225.9370 C   0  0  0  0  0  0  0  0  0  0  0  0
  141.5669   72.7888  225.6298 H   0  0  0  0  0  0  0  0  0  0  0  0
  1  2  1  0
  2  3  2  0
  3  4  1  0
  4  5  1  0
  5  6  2  0
  5  7  1  0
  7  8  1  0
  7  9  1  0
  7 10  1  0
 10 11  1  0
 10 12  1  0
 10 13  1  0
 13 14  1  0
 13 15  1  0
 13 16  1  0
 16 17  1  0
 17 18  2  0
 18 19  1  0
 18 20  1  0
 20 21  1  0
 20 22  2  0
 22 23  1  0
 22 24  1  0
 24 25  1  0
 24 26  2  0
 26 27  1  0
  2 28  1  0
 28 29  2  0
 29 30  1  0
 29 31  1  0
 31 32  2  0
 32 33  1  0
 32 34  1  0
 34 35  1  0
 34 36  2  0
 36 37  1  0
 26 17  1  0
 36 28  1  0
M  CHG  1   4  -1
M  END
>  <UniqueID>  (77) 
16

>  <SMILES>  (77) 
O=C(CCCOc1ccc(Cl)cc1Cl)[N-]/N=C/c1cccnc1F

>  <Energy>  (77) 
37.80070138269376

>  <Genealogy>  (77) 
O=C(CCCOc1ccc(Cl)cc1Cl)[N-]N=Cc1cccnc1F (protonated)
O=C(CCCOc1ccc(Cl)cc1Cl)[N-]/N=C/c1cccnc1F (cis-trans isomerization)
O=C(CCCOc1ccc(Cl)cc1Cl)[N-]/N=C/c1cccnc1F (3D coordinates assigned)
O=C(CCCOc1ccc(Cl)cc1Cl)[N-]/N=C/c1cccnc1F (optimized conformer: 37.80070138269376 kcal/mol)

>  <smiles>  (77) 
O=C(CCCOc1ccc(Cl)cc1Cl)NN=Cc1cccnc1F

>  <score_type>  (77) 
oracle

>  <origin>  (77) 
autodockgpu

>  <m_score__min__energy>  (77) 
-6.3399999999999999

>  <m_primary>  (77) 
energy

>  <meeko>  (77) 
{"free_energy": -5.72, "intermolecular_energy": -8.41, "internal_energy": -0.78, "cluster_size": 8, "cluster_id": 1, "rank_in_cluster": 7}

>  <energy>  (77) 
-5.41

>  <cluster_rmsd>  (77) 
1.93

>  <rmsd>  (77) 
271.89

>  <cluster>  (77) 
5

$$$$
AMYMGDKGSBDGMC-NYADSFOUNA-M
     RDKit          3D

 37 38  0  0  0  0  0  0  0  0999 V2000
  146.4636   70.8381  216.5152 H   0  0  0  0  0  0  0  0  0  0  0  0
  145.9060   70.9640  217.4550 C   0  0  0  0  0  0  0  0  0  0  0  0
  145.5800   72.1540  217.8430 N   0  0  0  0  0  0  0  0  0  0  0  0
  146.0400   72.6630  219.0650 N   0  0  0  0  0  0  0  0  0  0  0  0
  145.1310   72.9280  220.1310 C   0  0  0  0  0  0  0  0  0  0  0  0
  144.6980   71.9820  220.8450 O   0  0  0  0  0  0  0  0  0  0  0  0
  144.6770   74.3300  220.3970 C   0  0  0  0  0  0  0  0  0  0  0  0
  144.6121   74.4820  221.4845 H   0  0  0  0  0  0  0  0  0  0  0  0
  145.4072   75.0157  219.9424 H   0  0  0  0  0  0  0  0  0  0  0  0
  143.3030   74.6180  219.7730 C   0  0  0  0  0  0  0  0  0  0  0  0
  143.3146   75.6365  219.3578 H   0  0  0  0  0  0  0  0  0  0  0  0
  143.1308   73.8567  218.9979 H   0  0  0  0  0  0  0  0  0  0  0  0
  142.1440   74.5140  220.7800 C   0  0  0  0  0  0  0  0  0  0  0  0
  141.5811   73.5913  220.5756 H   0  0  0  0  0  0  0  0  0  0  0  0
  142.5792   74.5076  221.7902 H   0  0  0  0  0  0  0  0  0  0  0  0
  141.2480   75.6240  220.7010 O   0  0  0  0  0  0  0  0  0  0  0  0
  141.3940   76.9090  221.2600 C   0  0  0  0  0  0  0  0  0  0  0  0
  141.0560   77.0320  222.6150 C   0  0  0  0  0  0  0  0  0  0  0  0
  140.6597   76.1588  223.1540 H   0  0  0  0  0  0  0  0  0  0  0  0
  141.2130   78.2410  223.2920 C   0  0  0  0  0  0  0  0  0  0  0  0
  140.9575   78.3110  224.3596 H   0  0  0  0  0  0  0  0  0  0  0  0
  141.6940   79.3610  222.6150 C   0  0  0  0  0  0  0  0  0  0  0  0
  141.8930   80.8820  223.4660 Cl  0  0  0  0  0  0  0  0  0  0  0  0
  141.9960   79.2740  221.2550 C   0  0  0  0  0  0  0  0  0  0  0  0
  142.3592   80.1645  220.7211 H   0  0  0  0  0  0  0  0  0  0  0  0
  141.8420   78.0650  220.5610 C   0  0  0  0  0  0  0  0  0  0  0  0
  142.1350   78.1250  218.8270 Cl  0  0  0  0  0  0  0  0  0  0  0  0
  145.5450   69.7690  218.2480 C   0  0  0  0  0  0  0  0  0  0  0  0
  146.3120   69.3260  219.3460 C   0  0  0  0  0  0  0  0  0  0  0  0
  147.4330   69.9840  219.7340 F   0  0  0  0  0  0  0  0  0  0  0  0
  145.9270   68.2240  220.0440 N   0  0  0  0  0  0  0  0  0  0  0  0
  144.8120   67.5190  219.7190 C   0  0  0  0  0  0  0  0  0  0  0  0
  144.5326   66.6306  220.3045 H   0  0  0  0  0  0  0  0  0  0  0  0
  144.0220   67.9220  218.6430 C   0  0  0  0  0  0  0  0  0  0  0  0
  143.1178   67.3556  218.3756 H   0  0  0  0  0  0  0  0  0  0  0  0
  144.3890   69.0510  217.9080 C   0  0  0  0  0  0  0  0  0  0  0  0
  143.7698   69.3783  217.0598 H   0  0  0  0  0  0  0  0  0  0  0  0
  1  2  1  0
  2  3  2  0
  3  4  1  0
  4  5  1  0
  5  6  2  0
  5  7  1  0
  7  8  1  0
  7  9  1  0
  7 10  1  0
 10 11  1  0
 10 12  1  0
 10 13  1  0
 13 14  1  0
 13 15  1  0
 13 16  1  0
 16 17  1  0
 17 18  2  0
 18 19  1  0
 18 20  1  0
 20 21  1  0
 20 22  2  0
 22 23  1  0
 22 24  1  0
 24 25  1  0
 24 26  2  0
 26 27  1  0
  2 28  1  0
 28 29  2  0
 29 30  1  0
 29 31  1  0
 31 32  2  0
 32 33  1  0
 32 34  1  0
 34 35  1  0
 34 36  2  0
 36 37  1  0
 26 17  1  0
 36 28  1  0
M  CHG  1   4  -1
M  END
>  <UniqueID>  (78) 
16

>  <SMILES>  (78) 
O=C(CCCOc1ccc(Cl)cc1Cl)[N-]/N=C/c1cccnc1F

>  <Energy>  (78) 
37.80070138269376

>  <Genealogy>  (78) 
O=C(CCCOc1ccc(Cl)cc1Cl)[N-]N=Cc1cccnc1F (protonated)
O=C(CCCOc1ccc(Cl)cc1Cl)[N-]/N=C/c1cccnc1F (cis-trans isomerization)
O=C(CCCOc1ccc(Cl)cc1Cl)[N-]/N=C/c1cccnc1F (3D coordinates assigned)
O=C(CCCOc1ccc(Cl)cc1Cl)[N-]/N=C/c1cccnc1F (optimized conformer: 37.80070138269376 kcal/mol)

>  <smiles>  (78) 
O=C(CCCOc1ccc(Cl)cc1Cl)NN=Cc1cccnc1F

>  <score_type>  (78) 
oracle

>  <origin>  (78) 
autodockgpu

>  <m_score__min__energy>  (78) 
-6.3399999999999999

>  <m_primary>  (78) 
energy

>  <meeko>  (78) 
{"free_energy": -6.18, "intermolecular_energy": -8.87, "internal_energy": -0.79, "cluster_size": 2, "cluster_id": 3, "rank_in_cluster": 2}

>  <energy>  (78) 
-5.61

>  <cluster_rmsd>  (78) 
0.0

>  <rmsd>  (78) 
271.3

>  <cluster>  (78) 
6

$$$$
AMYMGDKGSBDGMC-NYADSFOUNA-M
     RDKit          3D

 37 38  0  0  0  0  0  0  0  0999 V2000
  141.2477   74.5932  220.3608 H   0  0  0  0  0  0  0  0  0  0  0  0
  140.7480   75.1090  221.1940 C   0  0  0  0  0  0  0  0  0  0  0  0
  139.9000   74.4600  221.9240 N   0  0  0  0  0  0  0  0  0  0  0  0
  140.3090   73.3720  222.7060 N   0  0  0  0  0  0  0  0  0  0  0  0
  140.4910   72.0830  222.1230 C   0  0  0  0  0  0  0  0  0  0  0  0
  141.6530   71.6380  221.9200 O   0  0  0  0  0  0  0  0  0  0  0  0
  139.3000   71.2620  221.7360 C   0  0  0  0  0  0  0  0  0  0  0  0
  139.0112   71.5187  220.7061 H   0  0  0  0  0  0  0  0  0  0  0  0
  139.5775   70.2008  221.8186 H   0  0  0  0  0  0  0  0  0  0  0  0
  138.1010   71.5130  222.6650 C   0  0  0  0  0  0  0  0  0  0  0  0
  138.2948   72.4265  223.2463 H   0  0  0  0  0  0  0  0  0  0  0  0
  137.2094   71.6088  222.0279 H   0  0  0  0  0  0  0  0  0  0  0  0
  137.8390   70.3570  223.6450 C   0  0  0  0  0  0  0  0  0  0  0  0
  137.4678   70.7753  224.5923 H   0  0  0  0  0  0  0  0  0  0  0  0
  137.1003   69.6871  223.1807 H   0  0  0  0  0  0  0  0  0  0  0  0
  139.0130   69.5880  223.9130 O   0  0  0  0  0  0  0  0  0  0  0  0
  139.5980   69.2900  225.1590 C   0  0  0  0  0  0  0  0  0  0  0  0
  139.2920   68.0310  225.6950 C   0  0  0  0  0  0  0  0  0  0  0  0
  138.5944   67.3710  225.1587 H   0  0  0  0  0  0  0  0  0  0  0  0
  139.8560   67.6000  226.8960 C   0  0  0  0  0  0  0  0  0  0  0  0
  139.6160   66.6013  227.2896 H   0  0  0  0  0  0  0  0  0  0  0  0
  140.7240   68.4360  227.5970 C   0  0  0  0  0  0  0  0  0  0  0  0
  141.4350   67.8950  229.1070 Cl  0  0  0  0  0  0  0  0  0  0  0  0
  141.0100   69.7110  227.1050 C   0  0  0  0  0  0  0  0  0  0  0  0
  141.6830   70.3729  227.6698 H   0  0  0  0  0  0  0  0  0  0  0  0
  140.4500   70.1580  225.9000 C   0  0  0  0  0  0  0  0  0  0  0  0
  140.7880   71.8270  225.4610 Cl  0  0  0  0  0  0  0  0  0  0  0  0
  141.0590   76.5300  221.4570 C   0  0  0  0  0  0  0  0  0  0  0  0
  141.6040   77.3840  220.4730 C   0  0  0  0  0  0  0  0  0  0  0  0
  141.8720   76.9340  219.2220 F   0  0  0  0  0  0  0  0  0  0  0  0
  141.8630   78.6850  220.7700 N   0  0  0  0  0  0  0  0  0  0  0  0
  141.6130   79.2070  221.9990 C   0  0  0  0  0  0  0  0  0  0  0  0
  141.8375   80.2643  222.2035 H   0  0  0  0  0  0  0  0  0  0  0  0
  141.0720   78.4030  223.0010 C   0  0  0  0  0  0  0  0  0  0  0  0
  140.8668   78.8205  223.9978 H   0  0  0  0  0  0  0  0  0  0  0  0
  140.7930   77.0620  222.7270 C   0  0  0  0  0  0  0  0  0  0  0  0
  140.3629   76.4207  223.5105 H   0  0  0  0  0  0  0  0  0  0  0  0
  1  2  1  0
  2  3  2  0
  3  4  1  0
  4  5  1  0
  5  6  2  0
  5  7  1  0
  7  8  1  0
  7  9  1  0
  7 10  1  0
 10 11  1  0
 10 12  1  0
 10 13  1  0
 13 14  1  0
 13 15  1  0
 13 16  1  0
 16 17  1  0
 17 18  2  0
 18 19  1  0
 18 20  1  0
 20 21  1  0
 20 22  2  0
 22 23  1  0
 22 24  1  0
 24 25  1  0
 24 26  2  0
 26 27  1  0
  2 28  1  0
 28 29  2  0
 29 30  1  0
 29 31  1  0
 31 32  2  0
 32 33  1  0
 32 34  1  0
 34 35  1  0
 34 36  2  0
 36 37  1  0
 26 17  1  0
 36 28  1  0
M  CHG  1   4  -1
M  END
>  <UniqueID>  (79) 
16

>  <SMILES>  (79) 
O=C(CCCOc1ccc(Cl)cc1Cl)[N-]/N=C/c1cccnc1F

>  <Energy>  (79) 
37.80070138269376

>  <Genealogy>  (79) 
O=C(CCCOc1ccc(Cl)cc1Cl)[N-]N=Cc1cccnc1F (protonated)
O=C(CCCOc1ccc(Cl)cc1Cl)[N-]/N=C/c1cccnc1F (cis-trans isomerization)
O=C(CCCOc1ccc(Cl)cc1Cl)[N-]/N=C/c1cccnc1F (3D coordinates assigned)
O=C(CCCOc1ccc(Cl)cc1Cl)[N-]/N=C/c1cccnc1F (optimized conformer: 37.80070138269376 kcal/mol)

>  <smiles>  (79) 
O=C(CCCOc1ccc(Cl)cc1Cl)NN=Cc1cccnc1F

>  <score_type>  (79) 
oracle

>  <origin>  (79) 
autodockgpu

>  <m_score__min__energy>  (79) 
-6.3399999999999999

>  <m_primary>  (79) 
energy

>  <meeko>  (79) 
{"free_energy": -5.41, "intermolecular_energy": -8.09, "internal_energy": -0.72, "cluster_size": 2, "cluster_id": 5, "rank_in_cluster": 2}

>  <energy>  (79) 
-5.45

>  <cluster_rmsd>  (79) 
0.0

>  <rmsd>  (79) 
271.79

>  <cluster>  (79) 
7

$$$$
AMYMGDKGSBDGMC-NYADSFOUNA-M
     RDKit          3D

 37 38  0  0  0  0  0  0  0  0999 V2000
  139.6531   72.1699  225.8329 H   0  0  0  0  0  0  0  0  0  0  0  0
  140.1150   71.3890  225.2110 C   0  0  0  0  0  0  0  0  0  0  0  0
  140.7080   71.7240  224.1110 N   0  0  0  0  0  0  0  0  0  0  0  0
  139.9900   71.8450  222.9150 N   0  0  0  0  0  0  0  0  0  0  0  0
  139.7710   73.1240  222.3230 C   0  0  0  0  0  0  0  0  0  0  0  0
  140.6940   73.9840  222.3140 O   0  0  0  0  0  0  0  0  0  0  0  0
  138.4390   73.4540  221.7240 C   0  0  0  0  0  0  0  0  0  0  0  0
  138.2748   72.8107  220.8470 H   0  0  0  0  0  0  0  0  0  0  0  0
  137.6697   73.2841  222.4917 H   0  0  0  0  0  0  0  0  0  0  0  0
  138.3540   74.9240  221.2840 C   0  0  0  0  0  0  0  0  0  0  0  0
  139.3117   75.2065  220.8225 H   0  0  0  0  0  0  0  0  0  0  0  0
  137.5145   75.0053  220.5779 H   0  0  0  0  0  0  0  0  0  0  0  0
  138.0680   75.8900  222.4460 C   0  0  0  0  0  0  0  0  0  0  0  0
  137.0071   75.8031  222.7235 H   0  0  0  0  0  0  0  0  0  0  0  0
  138.7293   75.6130  223.2802 H   0  0  0  0  0  0  0  0  0  0  0  0
  138.3430   77.2510  222.1090 O   0  0  0  0  0  0  0  0  0  0  0  0
  139.4770   78.0210  222.4350 C   0  0  0  0  0  0  0  0  0  0  0  0
  139.2690   79.0630  223.3490 C   0  0  0  0  0  0  0  0  0  0  0  0
  138.2533   79.2574  223.7239 H   0  0  0  0  0  0  0  0  0  0  0  0
  140.3260   79.8580  223.7920 C   0  0  0  0  0  0  0  0  0  0  0  0
  140.1433   80.6588  224.5236 H   0  0  0  0  0  0  0  0  0  0  0  0
  141.6140   79.6370  223.3070 C   0  0  0  0  0  0  0  0  0  0  0  0
  142.9450   80.6350  223.8630 Cl  0  0  0  0  0  0  0  0  0  0  0  0
  141.8390   78.6330  222.3630 C   0  0  0  0  0  0  0  0  0  0  0  0
  142.8544   78.4731  221.9715 H   0  0  0  0  0  0  0  0  0  0  0  0
  140.7860   77.8260  221.9080 C   0  0  0  0  0  0  0  0  0  0  0  0
  141.1800   76.6870  220.6270 Cl  0  0  0  0  0  0  0  0  0  0  0  0
  140.0450   69.9790  225.6500 C   0  0  0  0  0  0  0  0  0  0  0  0
  139.1710   69.0420  225.0590 C   0  0  0  0  0  0  0  0  0  0  0  0
  138.3410   69.3950  224.0450 F   0  0  0  0  0  0  0  0  0  0  0  0
  139.1550   67.7550  225.4990 N   0  0  0  0  0  0  0  0  0  0  0  0
  139.9630   67.3280  226.5040 C   0  0  0  0  0  0  0  0  0  0  0  0
  139.9213   66.2800  226.8357 H   0  0  0  0  0  0  0  0  0  0  0  0
  140.8450   68.2180  227.1150 C   0  0  0  0  0  0  0  0  0  0  0  0
  141.5022   67.8778  227.9288 H   0  0  0  0  0  0  0  0  0  0  0  0
  140.8860   69.5450  226.6840 C   0  0  0  0  0  0  0  0  0  0  0  0
  141.5814   70.2534  227.1579 H   0  0  0  0  0  0  0  0  0  0  0  0
  1  2  1  0
  2  3  2  0
  3  4  1  0
  4  5  1  0
  5  6  2  0
  5  7  1  0
  7  8  1  0
  7  9  1  0
  7 10  1  0
 10 11  1  0
 10 12  1  0
 10 13  1  0
 13 14  1  0
 13 15  1  0
 13 16  1  0
 16 17  1  0
 17 18  2  0
 18 19  1  0
 18 20  1  0
 20 21  1  0
 20 22  2  0
 22 23  1  0
 22 24  1  0
 24 25  1  0
 24 26  2  0
 26 27  1  0
  2 28  1  0
 28 29  2  0
 29 30  1  0
 29 31  1  0
 31 32  2  0
 32 33  1  0
 32 34  1  0
 34 35  1  0
 34 36  2  0
 36 37  1  0
 26 17  1  0
 36 28  1  0
M  CHG  1   4  -1
M  END
>  <UniqueID>  (80) 
16

>  <SMILES>  (80) 
O=C(CCCOc1ccc(Cl)cc1Cl)[N-]/N=C/c1cccnc1F

>  <Energy>  (80) 
37.80070138269376

>  <Genealogy>  (80) 
O=C(CCCOc1ccc(Cl)cc1Cl)[N-]N=Cc1cccnc1F (protonated)
O=C(CCCOc1ccc(Cl)cc1Cl)[N-]/N=C/c1cccnc1F (cis-trans isomerization)
O=C(CCCOc1ccc(Cl)cc1Cl)[N-]/N=C/c1cccnc1F (3D coordinates assigned)
O=C(CCCOc1ccc(Cl)cc1Cl)[N-]/N=C/c1cccnc1F (optimized conformer: 37.80070138269376 kcal/mol)

>  <smiles>  (80) 
O=C(CCCOc1ccc(Cl)cc1Cl)NN=Cc1cccnc1F

>  <score_type>  (80) 
oracle

>  <origin>  (80) 
autodockgpu

>  <m_score__min__energy>  (80) 
-6.3399999999999999

>  <m_primary>  (80) 
energy

>  <meeko>  (80) 
{"free_energy": -6.34, "intermolecular_energy": -9.02, "internal_energy": -0.63, "cluster_size": 8, "cluster_id": 1, "rank_in_cluster": 1}

>  <energy>  (80) 
-5.13

>  <cluster_rmsd>  (80) 
0.0

>  <rmsd>  (80) 
270.92

>  <cluster>  (80) 
8

$$$$
