YCOHEPDJLXZVBZ-DEOSSOPVNA-N
     RDKit          3D

 49 53  0  0  0  0  0  0  0  0999 V2000
  139.1910   75.9780  220.1610 O   0  0  0  0  0  0  0  0  0  0  0  0
  139.2980   76.2870  221.6280 S   0  0  0  0  0  0  0  0  0  0  0  0
  139.7460   75.0470  222.3500 O   0  0  0  0  0  0  0  0  0  0  0  0
  137.7040   76.7990  222.2520 C   0  0  0  0  0  0  0  0  0  0  0  0
  137.6440   78.2990  222.3390 C   0  0  0  0  0  0  0  0  0  0  0  0
  138.1660   78.9630  223.4620 C   0  0  0  0  0  0  0  0  0  0  0  0
  138.1990   80.3590  223.5020 C   0  0  0  0  0  0  0  0  0  0  0  0
  137.7200   81.1030  222.4190 C   0  0  0  0  0  0  0  0  0  0  0  0
  137.2030   80.4500  221.2960 C   0  0  0  0  0  0  0  0  0  0  0  0
  137.1660   79.0530  221.2550 C   0  0  0  0  0  0  0  0  0  0  0  0
  140.4470   77.5660  221.8730 N   0  0  0  0  0  0  0  0  0  0  0  0
  141.2150   77.5940  223.0880 C   0  0  0  0  0  0  0  0  0  0  0  0
  141.7720   78.7270  223.5140 C   0  0  0  0  0  0  0  0  0  0  0  0
  141.5950   79.9750  222.7540 C   0  0  0  0  0  0  0  0  0  0  0  0
  142.0190   81.1960  223.2980 C   0  0  0  0  0  0  0  0  0  0  0  0
  141.8190   82.3860  222.5930 C   0  0  0  0  0  0  0  0  0  0  0  0
  141.1960   82.3640  221.3420 C   0  0  0  0  0  0  0  0  0  0  0  0
  140.7750   81.1510  220.7910 C   0  0  0  0  0  0  0  0  0  0  0  0
  140.9670   79.9500  221.4920 C   0  0  0  0  0  0  0  0  0  0  0  0
  140.5550   78.6350  220.8690 C   0  0  1  0  0  0  0  0  0  0  0  0
  141.5490   78.2390  219.8090 C   0  0  0  0  0  0  0  0  0  0  0  0
  141.9840   79.0210  218.7420 C   0  0  0  0  0  0  0  0  0  0  0  0
  142.8370   78.3230  217.9590 N   0  0  0  0  0  0  0  0  0  0  0  0
  142.9390   77.1040  218.5160 C   0  0  0  0  0  0  0  0  0  0  0  0
  143.6950   76.0280  218.0560 C   0  0  0  0  0  0  0  0  0  0  0  0
  143.6450   74.8270  218.7870 C   0  0  0  0  0  0  0  0  0  0  0  0
  142.8450   74.7300  219.9470 C   0  0  0  0  0  0  0  0  0  0  0  0
  142.0900   75.8320  220.3870 C   0  0  0  0  0  0  0  0  0  0  0  0
  142.1640   77.0110  219.6440 C   0  0  0  0  0  0  0  0  0  0  0  0
  136.9152   76.4415  221.5737 H   0  0  0  0  0  0  0  0  0  0  0  0
  137.5547   76.3726  223.2550 H   0  0  0  0  0  0  0  0  0  0  0  0
  138.5501   78.3813  224.3129 H   0  0  0  0  0  0  0  0  0  0  0  0
  138.6023   80.8738  224.3865 H   0  0  0  0  0  0  0  0  0  0  0  0
  137.7500   82.2021  222.4507 H   0  0  0  0  0  0  0  0  0  0  0  0
  136.8254   81.0354  220.4447 H   0  0  0  0  0  0  0  0  0  0  0  0
  136.7605   78.5420  220.3693 H   0  0  0  0  0  0  0  0  0  0  0  0
  141.3441   76.6707  223.6719 H   0  0  0  0  0  0  0  0  0  0  0  0
  142.3675   78.7297  224.4389 H   0  0  0  0  0  0  0  0  0  0  0  0
  142.5102   81.2172  224.2820 H   0  0  0  0  0  0  0  0  0  0  0  0
  142.1525   83.3418  223.0234 H   0  0  0  0  0  0  0  0  0  0  0  0
  141.0370   83.3025  220.7907 H   0  0  0  0  0  0  0  0  0  0  0  0
  140.2909   81.1371  219.8034 H   0  0  0  0  0  0  0  0  0  0  0  0
  139.5618   78.7742  220.4170 H   0  0  0  0  0  0  0  0  0  0  0  0
  141.6765   80.0616  218.5614 H   0  0  0  0  0  0  0  0  0  0  0  0
  143.3100   78.6620  217.0920 H   0  0  0  0  0  0  0  0  0  0  0  0
  144.3119   76.1148  217.1494 H   0  0  0  0  0  0  0  0  0  0  0  0
  144.2322   73.9587  218.4533 H   0  0  0  0  0  0  0  0  0  0  0  0
  142.8122   73.7858  220.5103 H   0  0  0  0  0  0  0  0  0  0  0  0
  141.4616   75.7667  221.2875 H   0  0  0  0  0  0  0  0  0  0  0  0
  1  2  2  0
  2  3  2  0
  2  4  1  0
  4  5  1  0
  5  6  2  0
  6  7  1  0
  7  8  2  0
  8  9  1  0
  9 10  2  0
  2 11  1  0
 11 12  1  0
 12 13  2  0
 13 14  1  0
 14 15  2  0
 15 16  1  0
 16 17  2  0
 17 18  1  0
 18 19  2  0
 19 20  1  0
 20 21  1  0
 21 22  2  0
 22 23  1  0
 23 24  1  0
 24 25  2  0
 25 26  1  0
 26 27  2  0
 27 28  1  0
 28 29  2  0
 10  5  1  0
 20 11  1  0
 29 21  1  0
 19 14  1  0
 29 24  1  0
  4 30  1  0
  4 31  1  0
  6 32  1  0
  7 33  1  0
  8 34  1  0
  9 35  1  0
 10 36  1  0
 12 37  1  0
 13 38  1  0
 15 39  1  0
 16 40  1  0
 17 41  1  0
 18 42  1  0
 20 43  1  6
 22 44  1  0
 23 45  1  0
 25 46  1  0
 26 47  1  0
 27 48  1  0
 28 49  1  0
M  END
>  <UniqueID>  (1) 
9

>  <SMILES>  (1) 
O=S(=O)(Cc1ccccc1)N1C=Cc2ccccc2[C@H]1c1c[nH]c2ccccc12

>  <Energy>  (1) 
78.48791210739698

>  <Genealogy>  (1) 
O=S(=O)(Cc1ccccc1)N1C=Cc2ccccc2[C@H]1c1c[nH]c2ccccc12 (chirality)
O=S(=O)(Cc1ccccc1)N1C=Cc2ccccc2[C@H]1c1c[nH]c2ccccc12 (3D coordinates assigned)
O=S(=O)(Cc1ccccc1)N1C=Cc2ccccc2[C@H]1c1c[nH]c2ccccc12 (nonaromatic ring conformer: 78.48791210739698 kcal/mol)

>  <smiles>  (1) 
O=S(=O)(Cc1ccccc1)N1C=Cc2ccccc2C1c1c[nH]c2ccccc12

>  <score_type>  (1) 
oracle

>  <origin>  (1) 
autodockgpu

>  <m_score__min__energy>  (1) 
-8.3599999999999994

>  <m_primary>  (1) 
energy

>  <meeko>  (1) 
{"free_energy": -7.14, "intermolecular_energy": -8.33, "internal_energy": -2.62, "cluster_size": 8, "cluster_id": 4, "rank_in_cluster": 4}

>  <energy>  (1) 
-8.36

>  <cluster_rmsd>  (1) 
0.0

>  <rmsd>  (1) 
270.2

>  <cluster>  (1) 
1

$$$$
YCOHEPDJLXZVBZ-DEOSSOPVNA-N
     RDKit          3D

 49 53  0  0  0  0  0  0  0  0999 V2000
  143.6870   80.1360  222.7780 O   0  0  0  0  0  0  0  0  0  0  0  0
  142.2980   80.5540  223.1750 S   0  0  0  0  0  0  0  0  0  0  0  0
  142.4000   81.6300  224.2200 O   0  0  0  0  0  0  0  0  0  0  0  0
  141.4160   79.1530  223.8450 C   0  0  0  0  0  0  0  0  0  0  0  0
  139.9350   79.3480  223.6730 C   0  0  0  0  0  0  0  0  0  0  0  0
  139.3440   80.5820  223.9900 C   0  0  0  0  0  0  0  0  0  0  0  0
  137.9850   80.7970  223.7410 C   0  0  0  0  0  0  0  0  0  0  0  0
  137.2100   79.7850  223.1650 C   0  0  0  0  0  0  0  0  0  0  0  0
  137.7920   78.5560  222.8420 C   0  0  0  0  0  0  0  0  0  0  0  0
  139.1490   78.3370  223.0940 C   0  0  0  0  0  0  0  0  0  0  0  0
  141.4490   81.1550  221.7840 N   0  0  0  0  0  0  0  0  0  0  0  0
  141.4480   82.5680  221.5210 C   0  0  0  0  0  0  0  0  0  0  0  0
  140.5040   83.1160  220.7570 C   0  0  0  0  0  0  0  0  0  0  0  0
  139.4340   82.2830  220.1830 C   0  0  0  0  0  0  0  0  0  0  0  0
  138.3420   82.8850  219.5410 C   0  0  0  0  0  0  0  0  0  0  0  0
  137.3090   82.0980  219.0270 C   0  0  0  0  0  0  0  0  0  0  0  0
  137.3600   80.7070  219.1500 C   0  0  0  0  0  0  0  0  0  0  0  0
  138.4460   80.0990  219.7850 C   0  0  0  0  0  0  0  0  0  0  0  0
  139.4880   80.8810  220.3090 C   0  0  0  0  0  0  0  0  0  0  0  0
  140.6860   80.2160  220.9490 C   0  0  1  0  0  0  0  0  0  0  0  0
  141.5800   79.6390  219.8840 C   0  0  0  0  0  0  0  0  0  0  0  0
  142.1360   80.3220  218.8040 C   0  0  0  0  0  0  0  0  0  0  0  0
  142.8400   79.4750  218.0200 N   0  0  0  0  0  0  0  0  0  0  0  0
  142.7280   78.2620  218.5880 C   0  0  0  0  0  0  0  0  0  0  0  0
  143.2730   77.0640  218.1310 C   0  0  0  0  0  0  0  0  0  0  0  0
  143.0170   75.8980  218.8740 C   0  0  0  0  0  0  0  0  0  0  0  0
  142.2260   75.9560  220.0430 C   0  0  0  0  0  0  0  0  0  0  0  0
  141.6860   77.1780  220.4800 C   0  0  0  0  0  0  0  0  0  0  0  0
  141.9620   78.3190  219.7250 C   0  0  0  0  0  0  0  0  0  0  0  0
  141.7271   78.2399  223.3164 H   0  0  0  0  0  0  0  0  0  0  0  0
  141.6461   79.0602  224.9167 H   0  0  0  0  0  0  0  0  0  0  0  0
  139.9526   81.3825  224.4359 H   0  0  0  0  0  0  0  0  0  0  0  0
  137.5251   81.7626  223.9982 H   0  0  0  0  0  0  0  0  0  0  0  0
  136.1418   79.9565  222.9661 H   0  0  0  0  0  0  0  0  0  0  0  0
  137.1816   77.7608  222.3892 H   0  0  0  0  0  0  0  0  0  0  0  0
  139.6041   77.3688  222.8380 H   0  0  0  0  0  0  0  0  0  0  0  0
  142.2343   83.2032  221.9547 H   0  0  0  0  0  0  0  0  0  0  0  0
  140.5240   84.1969  220.5539 H   0  0  0  0  0  0  0  0  0  0  0  0
  138.2990   83.9797  219.4421 H   0  0  0  0  0  0  0  0  0  0  0  0
  136.4540   82.5739  218.5246 H   0  0  0  0  0  0  0  0  0  0  0  0
  136.5439   80.0897  218.7463 H   0  0  0  0  0  0  0  0  0  0  0  0
  138.4849   79.0034  219.8748 H   0  0  0  0  0  0  0  0  0  0  0  0
  140.3147   79.4111  221.6004 H   0  0  0  0  0  0  0  0  0  0  0  0
  142.0185   81.3994  218.6158 H   0  0  0  0  0  0  0  0  0  0  0  0
  143.3560   79.7170  217.1450 H   0  0  0  0  0  0  0  0  0  0  0  0
  143.8846   77.0313  217.2173 H   0  0  0  0  0  0  0  0  0  0  0  0
  143.4348   74.9357  218.5433 H   0  0  0  0  0  0  0  0  0  0  0  0
  142.0311   75.0374  220.6159 H   0  0  0  0  0  0  0  0  0  0  0  0
  141.0663   77.2332  221.3871 H   0  0  0  0  0  0  0  0  0  0  0  0
  1  2  2  0
  2  3  2  0
  2  4  1  0
  4  5  1  0
  5  6  2  0
  6  7  1  0
  7  8  2  0
  8  9  1  0
  9 10  2  0
  2 11  1  0
 11 12  1  0
 12 13  2  0
 13 14  1  0
 14 15  2  0
 15 16  1  0
 16 17  2  0
 17 18  1  0
 18 19  2  0
 19 20  1  0
 20 21  1  0
 21 22  2  0
 22 23  1  0
 23 24  1  0
 24 25  2  0
 25 26  1  0
 26 27  2  0
 27 28  1  0
 28 29  2  0
 10  5  1  0
 20 11  1  0
 29 21  1  0
 19 14  1  0
 29 24  1  0
  4 30  1  0
  4 31  1  0
  6 32  1  0
  7 33  1  0
  8 34  1  0
  9 35  1  0
 10 36  1  0
 12 37  1  0
 13 38  1  0
 15 39  1  0
 16 40  1  0
 17 41  1  0
 18 42  1  0
 20 43  1  1
 22 44  1  0
 23 45  1  0
 25 46  1  0
 26 47  1  0
 27 48  1  0
 28 49  1  0
M  END
>  <UniqueID>  (2) 
9

>  <SMILES>  (2) 
O=S(=O)(Cc1ccccc1)N1C=Cc2ccccc2[C@H]1c1c[nH]c2ccccc12

>  <Energy>  (2) 
78.48791210739698

>  <Genealogy>  (2) 
O=S(=O)(Cc1ccccc1)N1C=Cc2ccccc2[C@H]1c1c[nH]c2ccccc12 (chirality)
O=S(=O)(Cc1ccccc1)N1C=Cc2ccccc2[C@H]1c1c[nH]c2ccccc12 (3D coordinates assigned)
O=S(=O)(Cc1ccccc1)N1C=Cc2ccccc2[C@H]1c1c[nH]c2ccccc12 (nonaromatic ring conformer: 78.48791210739698 kcal/mol)

>  <smiles>  (2) 
O=S(=O)(Cc1ccccc1)N1C=Cc2ccccc2C1c1c[nH]c2ccccc12

>  <score_type>  (2) 
oracle

>  <origin>  (2) 
autodockgpu

>  <m_score__min__energy>  (2) 
-8.3599999999999994

>  <m_primary>  (2) 
energy

>  <meeko>  (2) 
{"free_energy": -7.16, "intermolecular_energy": -8.35, "internal_energy": -2.68, "cluster_size": 7, "cluster_id": 3, "rank_in_cluster": 4}

>  <energy>  (2) 
-8.34

>  <cluster_rmsd>  (2) 
0.19

>  <rmsd>  (2) 
270.18

>  <cluster>  (2) 
1

$$$$
YCOHEPDJLXZVBZ-DEOSSOPVNA-N
     RDKit          3D

 49 53  0  0  0  0  0  0  0  0999 V2000
  139.1920   75.9870  220.1510 O   0  0  0  0  0  0  0  0  0  0  0  0
  139.2990   76.2960  221.6180 S   0  0  0  0  0  0  0  0  0  0  0  0
  139.7470   75.0560  222.3400 O   0  0  0  0  0  0  0  0  0  0  0  0
  137.7050   76.8080  222.2420 C   0  0  0  0  0  0  0  0  0  0  0  0
  137.6480   78.3070  222.3370 C   0  0  0  0  0  0  0  0  0  0  0  0
  138.1680   78.9650  223.4640 C   0  0  0  0  0  0  0  0  0  0  0  0
  138.2030   80.3610  223.5110 C   0  0  0  0  0  0  0  0  0  0  0  0
  137.7290   81.1110  222.4310 C   0  0  0  0  0  0  0  0  0  0  0  0
  137.2140   80.4640  221.3030 C   0  0  0  0  0  0  0  0  0  0  0  0
  137.1740   79.0680  221.2550 C   0  0  0  0  0  0  0  0  0  0  0  0
  140.4490   77.5750  221.8630 N   0  0  0  0  0  0  0  0  0  0  0  0
  141.2150   77.6040  223.0780 C   0  0  0  0  0  0  0  0  0  0  0  0
  141.7720   78.7370  223.5040 C   0  0  0  0  0  0  0  0  0  0  0  0
  141.5950   79.9850  222.7420 C   0  0  0  0  0  0  0  0  0  0  0  0
  142.0190   81.2070  223.2850 C   0  0  0  0  0  0  0  0  0  0  0  0
  141.8200   82.3960  222.5800 C   0  0  0  0  0  0  0  0  0  0  0  0
  141.1990   82.3730  221.3290 C   0  0  0  0  0  0  0  0  0  0  0  0
  140.7770   81.1590  220.7780 C   0  0  0  0  0  0  0  0  0  0  0  0
  140.9680   79.9590  221.4810 C   0  0  0  0  0  0  0  0  0  0  0  0
  140.5570   78.6430  220.8580 C   0  0  1  0  0  0  0  0  0  0  0  0
  141.5520   78.2470  219.8000 C   0  0  0  0  0  0  0  0  0  0  0  0
  141.9860   79.0270  218.7300 C   0  0  0  0  0  0  0  0  0  0  0  0
  142.8400   78.3280  217.9490 N   0  0  0  0  0  0  0  0  0  0  0  0
  142.9440   77.1100  218.5090 C   0  0  0  0  0  0  0  0  0  0  0  0
  143.7020   76.0340  218.0520 C   0  0  0  0  0  0  0  0  0  0  0  0
  143.6540   74.8350  218.7860 C   0  0  0  0  0  0  0  0  0  0  0  0
  142.8530   74.7400  219.9460 C   0  0  0  0  0  0  0  0  0  0  0  0
  142.0960   75.8410  220.3830 C   0  0  0  0  0  0  0  0  0  0  0  0
  142.1690   77.0190  219.6370 C   0  0  0  0  0  0  0  0  0  0  0  0
  136.9167   76.4559  221.5604 H   0  0  0  0  0  0  0  0  0  0  0  0
  137.5531   76.3765  223.2424 H   0  0  0  0  0  0  0  0  0  0  0  0
  138.5492   78.3787  224.3131 H   0  0  0  0  0  0  0  0  0  0  0  0
  138.6043   80.8706  224.3994 H   0  0  0  0  0  0  0  0  0  0  0  0
  137.7610   82.2099  222.4682 H   0  0  0  0  0  0  0  0  0  0  0  0
  136.8403   81.0543  220.4533 H   0  0  0  0  0  0  0  0  0  0  0  0
  136.7694   78.5623  220.3658 H   0  0  0  0  0  0  0  0  0  0  0  0
  141.3430   76.6812  223.6628 H   0  0  0  0  0  0  0  0  0  0  0  0
  142.3669   78.7403  224.4292 H   0  0  0  0  0  0  0  0  0  0  0  0
  142.5098   81.2288  224.2692 H   0  0  0  0  0  0  0  0  0  0  0  0
  142.1528   83.3520  223.0105 H   0  0  0  0  0  0  0  0  0  0  0  0
  141.0417   83.3111  220.7765 H   0  0  0  0  0  0  0  0  0  0  0  0
  140.2936   81.1443  219.7900 H   0  0  0  0  0  0  0  0  0  0  0  0
  139.5644   78.7811  220.4046 H   0  0  0  0  0  0  0  0  0  0  0  0
  141.6768   80.0666  218.5463 H   0  0  0  0  0  0  0  0  0  0  0  0
  143.3120   78.6650  217.0820 H   0  0  0  0  0  0  0  0  0  0  0  0
  144.3189   76.1195  217.1453 H   0  0  0  0  0  0  0  0  0  0  0  0
  144.2431   73.9669  218.4552 H   0  0  0  0  0  0  0  0  0  0  0  0
  142.8215   73.7971  220.5116 H   0  0  0  0  0  0  0  0  0  0  0  0
  141.4669   75.7766  221.2830 H   0  0  0  0  0  0  0  0  0  0  0  0
  1  2  2  0
  2  3  2  0
  2  4  1  0
  4  5  1  0
  5  6  2  0
  6  7  1  0
  7  8  2  0
  8  9  1  0
  9 10  2  0
  2 11  1  0
 11 12  1  0
 12 13  2  0
 13 14  1  0
 14 15  2  0
 15 16  1  0
 16 17  2  0
 17 18  1  0
 18 19  2  0
 19 20  1  0
 20 21  1  0
 21 22  2  0
 22 23  1  0
 23 24  1  0
 24 25  2  0
 25 26  1  0
 26 27  2  0
 27 28  1  0
 28 29  2  0
 10  5  1  0
 20 11  1  0
 29 21  1  0
 19 14  1  0
 29 24  1  0
  4 30  1  0
  4 31  1  0
  6 32  1  0
  7 33  1  0
  8 34  1  0
  9 35  1  0
 10 36  1  0
 12 37  1  0
 13 38  1  0
 15 39  1  0
 16 40  1  0
 17 41  1  0
 18 42  1  0
 20 43  1  6
 22 44  1  0
 23 45  1  0
 25 46  1  0
 26 47  1  0
 27 48  1  0
 28 49  1  0
M  END
>  <UniqueID>  (3) 
9

>  <SMILES>  (3) 
O=S(=O)(Cc1ccccc1)N1C=Cc2ccccc2[C@H]1c1c[nH]c2ccccc12

>  <Energy>  (3) 
78.48791210739698

>  <Genealogy>  (3) 
O=S(=O)(Cc1ccccc1)N1C=Cc2ccccc2[C@H]1c1c[nH]c2ccccc12 (chirality)
O=S(=O)(Cc1ccccc1)N1C=Cc2ccccc2[C@H]1c1c[nH]c2ccccc12 (3D coordinates assigned)
O=S(=O)(Cc1ccccc1)N1C=Cc2ccccc2[C@H]1c1c[nH]c2ccccc12 (nonaromatic ring conformer: 78.48791210739698 kcal/mol)

>  <smiles>  (3) 
O=S(=O)(Cc1ccccc1)N1C=Cc2ccccc2C1c1c[nH]c2ccccc12

>  <score_type>  (3) 
oracle

>  <origin>  (3) 
autodockgpu

>  <m_score__min__energy>  (3) 
-8.3599999999999994

>  <m_primary>  (3) 
energy

>  <meeko>  (3) 
{"free_energy": -7.14, "intermolecular_energy": -8.33, "internal_energy": -2.62, "cluster_size": 8, "cluster_id": 4, "rank_in_cluster": 5}

>  <energy>  (3) 
-8.31

>  <cluster_rmsd>  (3) 
0.2

>  <rmsd>  (3) 
270.17

>  <cluster>  (3) 
1

$$$$
YCOHEPDJLXZVBZ-DEOSSOPVNA-N
     RDKit          3D

 49 53  0  0  0  0  0  0  0  0999 V2000
  139.2030   75.9700  220.1430 O   0  0  0  0  0  0  0  0  0  0  0  0
  139.3230   76.2680  221.6110 S   0  0  0  0  0  0  0  0  0  0  0  0
  139.7820   75.0240  222.3190 O   0  0  0  0  0  0  0  0  0  0  0  0
  137.7330   76.7690  222.2550 C   0  0  0  0  0  0  0  0  0  0  0  0
  137.6680   78.2680  222.3520 C   0  0  0  0  0  0  0  0  0  0  0  0
  138.2020   78.9280  223.4720 C   0  0  0  0  0  0  0  0  0  0  0  0
  138.2280   80.3240  223.5200 C   0  0  0  0  0  0  0  0  0  0  0  0
  137.7320   81.0720  222.4480 C   0  0  0  0  0  0  0  0  0  0  0  0
  137.2040   80.4230  221.3280 C   0  0  0  0  0  0  0  0  0  0  0  0
  137.1720   79.0270  221.2780 C   0  0  0  0  0  0  0  0  0  0  0  0
  140.4700   77.5490  221.8560 N   0  0  0  0  0  0  0  0  0  0  0  0
  141.2430   77.5750  223.0670 C   0  0  0  0  0  0  0  0  0  0  0  0
  141.7990   78.7070  223.4940 C   0  0  0  0  0  0  0  0  0  0  0  0
  141.6150   79.9580  222.7390 C   0  0  0  0  0  0  0  0  0  0  0  0
  142.0380   81.1790  223.2850 C   0  0  0  0  0  0  0  0  0  0  0  0
  141.8320   82.3700  222.5860 C   0  0  0  0  0  0  0  0  0  0  0  0
  141.2040   82.3510  221.3380 C   0  0  0  0  0  0  0  0  0  0  0  0
  140.7830   81.1390  220.7840 C   0  0  0  0  0  0  0  0  0  0  0  0
  140.9810   79.9360  221.4810 C   0  0  0  0  0  0  0  0  0  0  0  0
  140.5700   78.6210  220.8550 C   0  0  1  0  0  0  0  0  0  0  0  0
  141.5600   78.2320  219.7890 C   0  0  0  0  0  0  0  0  0  0  0  0
  141.9880   79.0190  218.7220 C   0  0  0  0  0  0  0  0  0  0  0  0
  142.8390   78.3260  217.9330 N   0  0  0  0  0  0  0  0  0  0  0  0
  142.9480   77.1050  218.4860 C   0  0  0  0  0  0  0  0  0  0  0  0
  143.7050   76.0320  218.0190 C   0  0  0  0  0  0  0  0  0  0  0  0
  143.6620   74.8300  218.7460 C   0  0  0  0  0  0  0  0  0  0  0  0
  142.8680   74.7270  219.9100 C   0  0  0  0  0  0  0  0  0  0  0  0
  142.1110   75.8240  220.3570 C   0  0  0  0  0  0  0  0  0  0  0  0
  142.1780   77.0070  219.6170 C   0  0  0  0  0  0  0  0  0  0  0  0
  136.9387   76.4125  221.5828 H   0  0  0  0  0  0  0  0  0  0  0  0
  137.5957   76.3355  223.2566 H   0  0  0  0  0  0  0  0  0  0  0  0
  138.6010   78.3432  224.3140 H   0  0  0  0  0  0  0  0  0  0  0  0
  138.6394   80.8355  224.4027 H   0  0  0  0  0  0  0  0  0  0  0  0
  137.7572   82.1711  222.4858 H   0  0  0  0  0  0  0  0  0  0  0  0
  136.8133   81.0120  220.4851 H   0  0  0  0  0  0  0  0  0  0  0  0
  136.7569   78.5199  220.3945 H   0  0  0  0  0  0  0  0  0  0  0  0
  141.3768   76.6501  223.6473 H   0  0  0  0  0  0  0  0  0  0  0  0
  142.3991   78.7078  224.4159 H   0  0  0  0  0  0  0  0  0  0  0  0
  142.5335   81.1982  224.2669 H   0  0  0  0  0  0  0  0  0  0  0  0
  142.1647   83.3250  223.0186 H   0  0  0  0  0  0  0  0  0  0  0  0
  141.0407   83.2912  220.7908 H   0  0  0  0  0  0  0  0  0  0  0  0
  140.2948   81.1273  219.7984 H   0  0  0  0  0  0  0  0  0  0  0  0
  139.5744   78.7581  220.4078 H   0  0  0  0  0  0  0  0  0  0  0  0
  141.6768   80.0593  218.5462 H   0  0  0  0  0  0  0  0  0  0  0  0
  143.3070   78.6690  217.0650 H   0  0  0  0  0  0  0  0  0  0  0  0
  144.3171   76.1231  217.1096 H   0  0  0  0  0  0  0  0  0  0  0  0
  144.2500   73.9644  218.4068 H   0  0  0  0  0  0  0  0  0  0  0  0
  142.8419   73.7811  220.4709 H   0  0  0  0  0  0  0  0  0  0  0  0
  141.4864   75.7532  221.2597 H   0  0  0  0  0  0  0  0  0  0  0  0
  1  2  2  0
  2  3  2  0
  2  4  1  0
  4  5  1  0
  5  6  2  0
  6  7  1  0
  7  8  2  0
  8  9  1  0
  9 10  2  0
  2 11  1  0
 11 12  1  0
 12 13  2  0
 13 14  1  0
 14 15  2  0
 15 16  1  0
 16 17  2  0
 17 18  1  0
 18 19  2  0
 19 20  1  0
 20 21  1  0
 21 22  2  0
 22 23  1  0
 23 24  1  0
 24 25  2  0
 25 26  1  0
 26 27  2  0
 27 28  1  0
 28 29  2  0
 10  5  1  0
 20 11  1  0
 29 21  1  0
 19 14  1  0
 29 24  1  0
  4 30  1  0
  4 31  1  0
  6 32  1  0
  7 33  1  0
  8 34  1  0
  9 35  1  0
 10 36  1  0
 12 37  1  0
 13 38  1  0
 15 39  1  0
 16 40  1  0
 17 41  1  0
 18 42  1  0
 20 43  1  6
 22 44  1  0
 23 45  1  0
 25 46  1  0
 26 47  1  0
 27 48  1  0
 28 49  1  0
M  END
>  <UniqueID>  (4) 
9

>  <SMILES>  (4) 
O=S(=O)(Cc1ccccc1)N1C=Cc2ccccc2[C@H]1c1c[nH]c2ccccc12

>  <Energy>  (4) 
78.48791210739698

>  <Genealogy>  (4) 
O=S(=O)(Cc1ccccc1)N1C=Cc2ccccc2[C@H]1c1c[nH]c2ccccc12 (chirality)
O=S(=O)(Cc1ccccc1)N1C=Cc2ccccc2[C@H]1c1c[nH]c2ccccc12 (3D coordinates assigned)
O=S(=O)(Cc1ccccc1)N1C=Cc2ccccc2[C@H]1c1c[nH]c2ccccc12 (nonaromatic ring conformer: 78.48791210739698 kcal/mol)

>  <smiles>  (4) 
O=S(=O)(Cc1ccccc1)N1C=Cc2ccccc2C1c1c[nH]c2ccccc12

>  <score_type>  (4) 
oracle

>  <origin>  (4) 
autodockgpu

>  <m_score__min__energy>  (4) 
-8.3599999999999994

>  <m_primary>  (4) 
energy

>  <meeko>  (4) 
{"free_energy": -7.13, "intermolecular_energy": -8.32, "internal_energy": -2.62, "cluster_size": 8, "cluster_id": 4, "rank_in_cluster": 6}

>  <energy>  (4) 
-8.28

>  <cluster_rmsd>  (4) 
0.0

>  <rmsd>  (4) 
270.76

>  <cluster>  (4) 
2

$$$$
YCOHEPDJLXZVBZ-DEOSSOPVNA-N
     RDKit          3D

 49 53  0  0  0  0  0  0  0  0999 V2000
  143.6830   80.1600  222.7590 O   0  0  0  0  0  0  0  0  0  0  0  0
  142.2880   80.5610  223.1510 S   0  0  0  0  0  0  0  0  0  0  0  0
  142.3720   81.6230  224.2110 O   0  0  0  0  0  0  0  0  0  0  0  0
  141.4120   79.1420  223.7930 C   0  0  0  0  0  0  0  0  0  0  0  0
  139.9300   79.3410  223.6390 C   0  0  0  0  0  0  0  0  0  0  0  0
  139.3430   80.5710  223.9790 C   0  0  0  0  0  0  0  0  0  0  0  0
  137.9820   80.7900  223.7470 C   0  0  0  0  0  0  0  0  0  0  0  0
  137.2010   79.7860  223.1660 C   0  0  0  0  0  0  0  0  0  0  0  0
  137.7780   78.5620  222.8200 C   0  0  0  0  0  0  0  0  0  0  0  0
  139.1380   78.3380  223.0550 C   0  0  0  0  0  0  0  0  0  0  0  0
  141.4450   81.1740  221.7610 N   0  0  0  0  0  0  0  0  0  0  0  0
  141.4540   82.5890  221.5050 C   0  0  0  0  0  0  0  0  0  0  0  0
  140.5150   83.1470  220.7420 C   0  0  0  0  0  0  0  0  0  0  0  0
  139.4400   82.3240  220.1630 C   0  0  0  0  0  0  0  0  0  0  0  0
  138.3530   82.9360  219.5220 C   0  0  0  0  0  0  0  0  0  0  0  0
  137.3150   82.1590  219.0030 C   0  0  0  0  0  0  0  0  0  0  0  0
  137.3560   80.7670  219.1200 C   0  0  0  0  0  0  0  0  0  0  0  0
  138.4370   80.1480  219.7530 C   0  0  0  0  0  0  0  0  0  0  0  0
  139.4840   80.9210  220.2820 C   0  0  0  0  0  0  0  0  0  0  0  0
  140.6760   80.2440  220.9210 C   0  0  1  0  0  0  0  0  0  0  0  0
  141.5670   79.6670  219.8540 C   0  0  0  0  0  0  0  0  0  0  0  0
  142.1140   80.3460  218.7680 C   0  0  0  0  0  0  0  0  0  0  0  0
  142.8190   79.4980  217.9840 N   0  0  0  0  0  0  0  0  0  0  0  0
  142.7150   78.2880  218.5590 C   0  0  0  0  0  0  0  0  0  0  0  0
  143.2640   77.0900  218.1060 C   0  0  0  0  0  0  0  0  0  0  0  0
  143.0170   75.9270  218.8570 C   0  0  0  0  0  0  0  0  0  0  0  0
  142.2320   75.9870  220.0300 C   0  0  0  0  0  0  0  0  0  0  0  0
  141.6890   77.2090  220.4630 C   0  0  0  0  0  0  0  0  0  0  0  0
  141.9550   78.3480  219.7000 C   0  0  0  0  0  0  0  0  0  0  0  0
  141.7186   78.2429  223.2384 H   0  0  0  0  0  0  0  0  0  0  0  0
  141.6516   79.0215  224.8598 H   0  0  0  0  0  0  0  0  0  0  0  0
  139.9567   81.3650  224.4296 H   0  0  0  0  0  0  0  0  0  0  0  0
  137.5253   81.7523  224.0215 H   0  0  0  0  0  0  0  0  0  0  0  0
  136.1308   79.9605  222.9812 H   0  0  0  0  0  0  0  0  0  0  0  0
  137.1621   77.7738  222.3624 H   0  0  0  0  0  0  0  0  0  0  0  0
  139.5896   77.3729  222.7816 H   0  0  0  0  0  0  0  0  0  0  0  0
  142.2437   83.2168  221.9434 H   0  0  0  0  0  0  0  0  0  0  0  0
  140.5430   84.2286  220.5435 H   0  0  0  0  0  0  0  0  0  0  0  0
  138.3179   84.0314  219.4277 H   0  0  0  0  0  0  0  0  0  0  0  0
  136.4641   82.6433  218.5015 H   0  0  0  0  0  0  0  0  0  0  0  0
  136.5357   80.1575  218.7130 H   0  0  0  0  0  0  0  0  0  0  0  0
  138.4683   79.0517  219.8374 H   0  0  0  0  0  0  0  0  0  0  0  0
  140.2982   79.4388  221.5683 H   0  0  0  0  0  0  0  0  0  0  0  0
  141.9902   81.4218  218.5746 H   0  0  0  0  0  0  0  0  0  0  0  0
  143.3280   79.7380  217.1060 H   0  0  0  0  0  0  0  0  0  0  0  0
  143.8716   77.0551  217.1897 H   0  0  0  0  0  0  0  0  0  0  0  0
  143.4375   74.9649  218.5291 H   0  0  0  0  0  0  0  0  0  0  0  0
  142.0443   75.0706  220.6088 H   0  0  0  0  0  0  0  0  0  0  0  0
  141.0744   77.2663  221.3735 H   0  0  0  0  0  0  0  0  0  0  0  0
  1  2  2  0
  2  3  2  0
  2  4  1  0
  4  5  1  0
  5  6  2  0
  6  7  1  0
  7  8  2  0
  8  9  1  0
  9 10  2  0
  2 11  1  0
 11 12  1  0
 12 13  2  0
 13 14  1  0
 14 15  2  0
 15 16  1  0
 16 17  2  0
 17 18  1  0
 18 19  2  0
 19 20  1  0
 20 21  1  0
 21 22  2  0
 22 23  1  0
 23 24  1  0
 24 25  2  0
 25 26  1  0
 26 27  2  0
 27 28  1  0
 28 29  2  0
 10  5  1  0
 20 11  1  0
 29 21  1  0
 19 14  1  0
 29 24  1  0
  4 30  1  0
  4 31  1  0
  6 32  1  0
  7 33  1  0
  8 34  1  0
  9 35  1  0
 10 36  1  0
 12 37  1  0
 13 38  1  0
 15 39  1  0
 16 40  1  0
 17 41  1  0
 18 42  1  0
 20 43  1  1
 22 44  1  0
 23 45  1  0
 25 46  1  0
 26 47  1  0
 27 48  1  0
 28 49  1  0
M  END
>  <UniqueID>  (5) 
9

>  <SMILES>  (5) 
O=S(=O)(Cc1ccccc1)N1C=Cc2ccccc2[C@H]1c1c[nH]c2ccccc12

>  <Energy>  (5) 
78.48791210739698

>  <Genealogy>  (5) 
O=S(=O)(Cc1ccccc1)N1C=Cc2ccccc2[C@H]1c1c[nH]c2ccccc12 (chirality)
O=S(=O)(Cc1ccccc1)N1C=Cc2ccccc2[C@H]1c1c[nH]c2ccccc12 (3D coordinates assigned)
O=S(=O)(Cc1ccccc1)N1C=Cc2ccccc2[C@H]1c1c[nH]c2ccccc12 (nonaromatic ring conformer: 78.48791210739698 kcal/mol)

>  <smiles>  (5) 
O=S(=O)(Cc1ccccc1)N1C=Cc2ccccc2C1c1c[nH]c2ccccc12

>  <score_type>  (5) 
oracle

>  <origin>  (5) 
autodockgpu

>  <m_score__min__energy>  (5) 
-8.3599999999999994

>  <m_primary>  (5) 
energy

>  <meeko>  (5) 
{"free_energy": -7.15, "intermolecular_energy": -8.34, "internal_energy": -2.67, "cluster_size": 7, "cluster_id": 3, "rank_in_cluster": 6}

>  <energy>  (5) 
-7.78

>  <cluster_rmsd>  (5) 
0.98

>  <rmsd>  (5) 
270.65

>  <cluster>  (5) 
2

$$$$
YCOHEPDJLXZVBZ-DEOSSOPVNA-N
     RDKit          3D

 49 53  0  0  0  0  0  0  0  0999 V2000
  143.6940   80.1340  222.7780 O   0  0  0  0  0  0  0  0  0  0  0  0
  142.3040   80.5510  223.1740 S   0  0  0  0  0  0  0  0  0  0  0  0
  142.4040   81.6260  224.2190 O   0  0  0  0  0  0  0  0  0  0  0  0
  141.4220   79.1480  223.8410 C   0  0  0  0  0  0  0  0  0  0  0  0
  139.9420   79.3430  223.6690 C   0  0  0  0  0  0  0  0  0  0  0  0
  139.3480   80.5740  223.9950 C   0  0  0  0  0  0  0  0  0  0  0  0
  137.9900   80.7890  223.7460 C   0  0  0  0  0  0  0  0  0  0  0  0
  137.2170   79.7810  223.1610 C   0  0  0  0  0  0  0  0  0  0  0  0
  137.8010   78.5550  222.8290 C   0  0  0  0  0  0  0  0  0  0  0  0
  139.1580   78.3360  223.0810 C   0  0  0  0  0  0  0  0  0  0  0  0
  141.4570   81.1520  221.7820 N   0  0  0  0  0  0  0  0  0  0  0  0
  141.4550   82.5650  221.5190 C   0  0  0  0  0  0  0  0  0  0  0  0
  140.5120   83.1130  220.7540 C   0  0  0  0  0  0  0  0  0  0  0  0
  139.4430   82.2800  220.1790 C   0  0  0  0  0  0  0  0  0  0  0  0
  138.3520   82.8810  219.5350 C   0  0  0  0  0  0  0  0  0  0  0  0
  137.3190   82.0940  219.0200 C   0  0  0  0  0  0  0  0  0  0  0  0
  137.3700   80.7030  219.1430 C   0  0  0  0  0  0  0  0  0  0  0  0
  138.4560   80.0950  219.7790 C   0  0  0  0  0  0  0  0  0  0  0  0
  139.4970   80.8770  220.3040 C   0  0  0  0  0  0  0  0  0  0  0  0
  140.6950   80.2120  220.9460 C   0  0  1  0  0  0  0  0  0  0  0  0
  141.5900   79.6370  219.8810 C   0  0  0  0  0  0  0  0  0  0  0  0
  142.1520   80.3210  218.8060 C   0  0  0  0  0  0  0  0  0  0  0  0
  142.8560   79.4740  218.0210 N   0  0  0  0  0  0  0  0  0  0  0  0
  142.7370   78.2600  218.5840 C   0  0  0  0  0  0  0  0  0  0  0  0
  143.2790   77.0610  218.1250 C   0  0  0  0  0  0  0  0  0  0  0  0
  143.0160   75.8930  218.8630 C   0  0  0  0  0  0  0  0  0  0  0  0
  142.2220   75.9500  220.0300 C   0  0  0  0  0  0  0  0  0  0  0  0
  141.6850   77.1730  220.4690 C   0  0  0  0  0  0  0  0  0  0  0  0
  141.9680   78.3160  219.7190 C   0  0  0  0  0  0  0  0  0  0  0  0
  141.7334   78.2361  223.3106 H   0  0  0  0  0  0  0  0  0  0  0  0
  141.6518   79.0529  224.9125 H   0  0  0  0  0  0  0  0  0  0  0  0
  139.9547   81.3718  224.4482 H   0  0  0  0  0  0  0  0  0  0  0  0
  137.5286   81.7519  224.0103 H   0  0  0  0  0  0  0  0  0  0  0  0
  136.1489   79.9529  222.9620 H   0  0  0  0  0  0  0  0  0  0  0  0
  137.1922   77.7625  222.3693 H   0  0  0  0  0  0  0  0  0  0  0  0
  139.6147   77.3705  222.8177 H   0  0  0  0  0  0  0  0  0  0  0  0
  142.2404   83.2006  221.9539 H   0  0  0  0  0  0  0  0  0  0  0  0
  140.5322   84.1939  220.5509 H   0  0  0  0  0  0  0  0  0  0  0  0
  138.3094   83.9756  219.4350 H   0  0  0  0  0  0  0  0  0  0  0  0
  136.4643   82.5700  218.5170 H   0  0  0  0  0  0  0  0  0  0  0  0
  136.5543   80.0856  218.7387 H   0  0  0  0  0  0  0  0  0  0  0  0
  138.4952   78.9994  219.8685 H   0  0  0  0  0  0  0  0  0  0  0  0
  140.3241   79.4068  221.5972 H   0  0  0  0  0  0  0  0  0  0  0  0
  142.0391   81.3995  218.6211 H   0  0  0  0  0  0  0  0  0  0  0  0
  143.3750   79.7170  217.1490 H   0  0  0  0  0  0  0  0  0  0  0  0
  143.8937   77.0291  217.2134 H   0  0  0  0  0  0  0  0  0  0  0  0
  143.4307   74.9302  218.5298 H   0  0  0  0  0  0  0  0  0  0  0  0
  142.0223   75.0304  220.5997 H   0  0  0  0  0  0  0  0  0  0  0  0
  141.0621   77.2275  221.3740 H   0  0  0  0  0  0  0  0  0  0  0  0
  1  2  2  0
  2  3  2  0
  2  4  1  0
  4  5  1  0
  5  6  2  0
  6  7  1  0
  7  8  2  0
  8  9  1  0
  9 10  2  0
  2 11  1  0
 11 12  1  0
 12 13  2  0
 13 14  1  0
 14 15  2  0
 15 16  1  0
 16 17  2  0
 17 18  1  0
 18 19  2  0
 19 20  1  0
 20 21  1  0
 21 22  2  0
 22 23  1  0
 23 24  1  0
 24 25  2  0
 25 26  1  0
 26 27  2  0
 27 28  1  0
 28 29  2  0
 10  5  1  0
 20 11  1  0
 29 21  1  0
 19 14  1  0
 29 24  1  0
  4 30  1  0
  4 31  1  0
  6 32  1  0
  7 33  1  0
  8 34  1  0
  9 35  1  0
 10 36  1  0
 12 37  1  0
 13 38  1  0
 15 39  1  0
 16 40  1  0
 17 41  1  0
 18 42  1  0
 20 43  1  1
 22 44  1  0
 23 45  1  0
 25 46  1  0
 26 47  1  0
 27 48  1  0
 28 49  1  0
M  END
>  <UniqueID>  (6) 
9

>  <SMILES>  (6) 
O=S(=O)(Cc1ccccc1)N1C=Cc2ccccc2[C@H]1c1c[nH]c2ccccc12

>  <Energy>  (6) 
78.48791210739698

>  <Genealogy>  (6) 
O=S(=O)(Cc1ccccc1)N1C=Cc2ccccc2[C@H]1c1c[nH]c2ccccc12 (chirality)
O=S(=O)(Cc1ccccc1)N1C=Cc2ccccc2[C@H]1c1c[nH]c2ccccc12 (3D coordinates assigned)
O=S(=O)(Cc1ccccc1)N1C=Cc2ccccc2[C@H]1c1c[nH]c2ccccc12 (nonaromatic ring conformer: 78.48791210739698 kcal/mol)

>  <smiles>  (6) 
O=S(=O)(Cc1ccccc1)N1C=Cc2ccccc2C1c1c[nH]c2ccccc12

>  <score_type>  (6) 
oracle

>  <origin>  (6) 
autodockgpu

>  <m_score__min__energy>  (6) 
-8.3599999999999994

>  <m_primary>  (6) 
energy

>  <meeko>  (6) 
{"free_energy": -7.16, "intermolecular_energy": -8.35, "internal_energy": -2.68, "cluster_size": 7, "cluster_id": 3, "rank_in_cluster": 5}

>  <energy>  (6) 
-7.16

>  <cluster_rmsd>  (6) 
0.0

>  <rmsd>  (6) 
270.88

>  <cluster>  (6) 
3

$$$$
YCOHEPDJLXZVBZ-DEOSSOPVNA-N
     RDKit          3D

 49 53  0  0  0  0  0  0  0  0999 V2000
  139.4430   72.8470  222.6740 O   0  0  0  0  0  0  0  0  0  0  0  0
  140.1500   71.5210  222.7130 S   0  0  0  0  0  0  0  0  0  0  0  0
  141.1730   71.5520  223.8130 O   0  0  0  0  0  0  0  0  0  0  0  0
  140.9630   71.2260  221.1490 C   0  0  0  0  0  0  0  0  0  0  0  0
  142.0980   72.1950  220.9690 C   0  0  0  0  0  0  0  0  0  0  0  0
  143.4160   71.7250  220.8470 C   0  0  0  0  0  0  0  0  0  0  0  0
  144.4600   72.6170  220.5830 C   0  0  0  0  0  0  0  0  0  0  0  0
  144.1950   73.9810  220.4310 C   0  0  0  0  0  0  0  0  0  0  0  0
  142.8850   74.4560  220.5470 C   0  0  0  0  0  0  0  0  0  0  0  0
  141.8400   73.5680  220.8140 C   0  0  0  0  0  0  0  0  0  0  0  0
  138.9980   70.2540  223.0070 N   0  0  0  0  0  0  0  0  0  0  0  0
  138.7990   69.2420  222.0060 C   0  0  0  0  0  0  0  0  0  0  0  0
  137.6770   68.5250  221.9800 C   0  0  0  0  0  0  0  0  0  0  0  0
  136.6130   68.7690  222.9680 C   0  0  0  0  0  0  0  0  0  0  0  0
  135.3630   68.1490  222.8250 C   0  0  0  0  0  0  0  0  0  0  0  0
  134.3420   68.4070  223.7420 C   0  0  0  0  0  0  0  0  0  0  0  0
  134.5620   69.2850  224.8070 C   0  0  0  0  0  0  0  0  0  0  0  0
  135.8050   69.9040  224.9600 C   0  0  0  0  0  0  0  0  0  0  0  0
  136.8380   69.6540  224.0410 C   0  0  0  0  0  0  0  0  0  0  0  0
  138.1970   70.2870  224.2400 C   0  0  1  0  0  0  0  0  0  0  0  0
  138.9340   69.5770  225.3450 C   0  0  0  0  0  0  0  0  0  0  0  0
  138.8580   68.2220  225.6590 C   0  0  0  0  0  0  0  0  0  0  0  0
  139.6120   67.9450  226.7470 N   0  0  0  0  0  0  0  0  0  0  0  0
  140.1570   69.1130  227.1280 C   0  0  0  0  0  0  0  0  0  0  0  0
  141.0020   69.3340  228.2140 C   0  0  0  0  0  0  0  0  0  0  0  0
  141.4480   70.6480  228.4450 C   0  0  0  0  0  0  0  0  0  0  0  0
  141.0410   71.7000  227.5950 C   0  0  0  0  0  0  0  0  0  0  0  0
  140.1850   71.4480  226.5080 C   0  0  0  0  0  0  0  0  0  0  0  0
  139.7630   70.1340  226.3010 C   0  0  0  0  0  0  0  0  0  0  0  0
  141.3549   70.1983  221.1302 H   0  0  0  0  0  0  0  0  0  0  0  0
  140.2378   71.3636  220.3334 H   0  0  0  0  0  0  0  0  0  0  0  0
  143.6277   70.6514  220.9595 H   0  0  0  0  0  0  0  0  0  0  0  0
  145.4913   72.2447  220.4948 H   0  0  0  0  0  0  0  0  0  0  0  0
  145.0171   74.6808  220.2201 H   0  0  0  0  0  0  0  0  0  0  0  0
  142.6771   75.5296  220.4279 H   0  0  0  0  0  0  0  0  0  0  0  0
  140.8105   73.9451  220.9033 H   0  0  0  0  0  0  0  0  0  0  0  0
  139.5807   69.0580  221.2543 H   0  0  0  0  0  0  0  0  0  0  0  0
  137.5443   67.7454  221.2154 H   0  0  0  0  0  0  0  0  0  0  0  0
  135.1865   67.4575  221.9880 H   0  0  0  0  0  0  0  0  0  0  0  0
  133.3632   67.9186  223.6260 H   0  0  0  0  0  0  0  0  0  0  0  0
  133.7549   69.4890  225.5260 H   0  0  0  0  0  0  0  0  0  0  0  0
  135.9756   70.5897  225.8031 H   0  0  0  0  0  0  0  0  0  0  0  0
  138.0406   71.3411  224.5130 H   0  0  0  0  0  0  0  0  0  0  0  0
  138.2674   67.4811  225.1002 H   0  0  0  0  0  0  0  0  0  0  0  0
  139.7350   67.0130  227.2020 H   0  0  0  0  0  0  0  0  0  0  0  0
  141.3106   68.5067  228.8701 H   0  0  0  0  0  0  0  0  0  0  0  0
  142.1175   70.8573  229.2924 H   0  0  0  0  0  0  0  0  0  0  0  0
  141.3961   72.7237  227.7846 H   0  0  0  0  0  0  0  0  0  0  0  0
  139.8586   72.2606  225.8423 H   0  0  0  0  0  0  0  0  0  0  0  0
  1  2  2  0
  2  3  2  0
  2  4  1  0
  4  5  1  0
  5  6  2  0
  6  7  1  0
  7  8  2  0
  8  9  1  0
  9 10  2  0
  2 11  1  0
 11 12  1  0
 12 13  2  0
 13 14  1  0
 14 15  2  0
 15 16  1  0
 16 17  2  0
 17 18  1  0
 18 19  2  0
 19 20  1  0
 20 21  1  0
 21 22  2  0
 22 23  1  0
 23 24  1  0
 24 25  2  0
 25 26  1  0
 26 27  2  0
 27 28  1  0
 28 29  2  0
 10  5  1  0
 20 11  1  0
 29 21  1  0
 19 14  1  0
 29 24  1  0
  4 30  1  0
  4 31  1  0
  6 32  1  0
  7 33  1  0
  8 34  1  0
  9 35  1  0
 10 36  1  0
 12 37  1  0
 13 38  1  0
 15 39  1  0
 16 40  1  0
 17 41  1  0
 18 42  1  0
 20 43  1  1
 22 44  1  0
 23 45  1  0
 25 46  1  0
 26 47  1  0
 27 48  1  0
 28 49  1  0
M  END
>  <UniqueID>  (7) 
9

>  <SMILES>  (7) 
O=S(=O)(Cc1ccccc1)N1C=Cc2ccccc2[C@H]1c1c[nH]c2ccccc12

>  <Energy>  (7) 
78.48791210739698

>  <Genealogy>  (7) 
O=S(=O)(Cc1ccccc1)N1C=Cc2ccccc2[C@H]1c1c[nH]c2ccccc12 (chirality)
O=S(=O)(Cc1ccccc1)N1C=Cc2ccccc2[C@H]1c1c[nH]c2ccccc12 (3D coordinates assigned)
O=S(=O)(Cc1ccccc1)N1C=Cc2ccccc2[C@H]1c1c[nH]c2ccccc12 (nonaromatic ring conformer: 78.48791210739698 kcal/mol)

>  <smiles>  (7) 
O=S(=O)(Cc1ccccc1)N1C=Cc2ccccc2C1c1c[nH]c2ccccc12

>  <score_type>  (7) 
oracle

>  <origin>  (7) 
autodockgpu

>  <m_score__min__energy>  (7) 
-8.3599999999999994

>  <m_primary>  (7) 
energy

>  <meeko>  (7) 
{"free_energy": -8.36, "intermolecular_energy": -9.56, "internal_energy": -1.58, "cluster_size": 3, "cluster_id": 1, "rank_in_cluster": 1}

>  <energy>  (7) 
-7.16

>  <cluster_rmsd>  (7) 
0.01

>  <rmsd>  (7) 
270.88

>  <cluster>  (7) 
3

$$$$
YCOHEPDJLXZVBZ-DEOSSOPVNA-N
     RDKit          3D

 49 53  0  0  0  0  0  0  0  0999 V2000
  141.1400   75.9360  218.7380 O   0  0  0  0  0  0  0  0  0  0  0  0
  142.1710   77.0240  218.8610 S   0  0  0  0  0  0  0  0  0  0  0  0
  142.3970   77.6280  217.5030 O   0  0  0  0  0  0  0  0  0  0  0  0
  143.7020   76.3370  219.4730 C   0  0  0  0  0  0  0  0  0  0  0  0
  143.5400   74.8640  219.7250 C   0  0  0  0  0  0  0  0  0  0  0  0
  144.4640   73.9490  219.1910 C   0  0  0  0  0  0  0  0  0  0  0  0
  144.3700   72.5900  219.5040 C   0  0  0  0  0  0  0  0  0  0  0  0
  143.3600   72.1360  220.3580 C   0  0  0  0  0  0  0  0  0  0  0  0
  142.4410   73.0400  220.8970 C   0  0  0  0  0  0  0  0  0  0  0  0
  142.5290   74.3990  220.5830 C   0  0  0  0  0  0  0  0  0  0  0  0
  141.6060   78.2400  219.9660 N   0  0  0  0  0  0  0  0  0  0  0  0
  141.1030   79.4810  219.4440 C   0  0  0  0  0  0  0  0  0  0  0  0
  141.0620   80.5720  220.2070 C   0  0  0  0  0  0  0  0  0  0  0  0
  141.5480   80.5280  221.5960 C   0  0  0  0  0  0  0  0  0  0  0  0
  141.6790   81.7130  222.3340 C   0  0  0  0  0  0  0  0  0  0  0  0
  142.1730   81.6770  223.6400 C   0  0  0  0  0  0  0  0  0  0  0  0
  142.5380   80.4580  224.2170 C   0  0  0  0  0  0  0  0  0  0  0  0
  142.4070   79.2710  223.4910 C   0  0  0  0  0  0  0  0  0  0  0  0
  141.9150   79.2970  222.1760 C   0  0  0  0  0  0  0  0  0  0  0  0
  141.7260   78.0050  221.4120 C   0  0  1  0  0  0  0  0  0  0  0  0
  140.5010   77.2890  221.9160 C   0  0  0  0  0  0  0  0  0  0  0  0
  140.3740   75.9230  222.1550 C   0  0  0  0  0  0  0  0  0  0  0  0
  139.1150   75.6260  222.5490 N   0  0  0  0  0  0  0  0  0  0  0  0
  138.4420   76.7890  222.5510 C   0  0  0  0  0  0  0  0  0  0  0  0
  137.1010   76.9870  222.8740 C   0  0  0  0  0  0  0  0  0  0  0  0
  136.5900   78.2940  222.7940 C   0  0  0  0  0  0  0  0  0  0  0  0
  137.4220   79.3630  222.3950 C   0  0  0  0  0  0  0  0  0  0  0  0
  138.7710   79.1350  222.0720 C   0  0  0  0  0  0  0  0  0  0  0  0
  139.2520   77.8280  222.1660 C   0  0  0  0  0  0  0  0  0  0  0  0
  144.4954   76.4939  218.7275 H   0  0  0  0  0  0  0  0  0  0  0  0
  143.9711   76.8371  220.4151 H   0  0  0  0  0  0  0  0  0  0  0  0
  145.2639   74.3038  218.5244 H   0  0  0  0  0  0  0  0  0  0  0  0
  145.0912   71.8769  219.0781 H   0  0  0  0  0  0  0  0  0  0  0  0
  143.2890   71.0666  220.6056 H   0  0  0  0  0  0  0  0  0  0  0  0
  141.6474   72.6817  221.5692 H   0  0  0  0  0  0  0  0  0  0  0  0
  141.8037   75.1077  221.0093 H   0  0  0  0  0  0  0  0  0  0  0  0
  140.7483   79.5303  218.4039 H   0  0  0  0  0  0  0  0  0  0  0  0
  140.6627   81.5113  219.7969 H   0  0  0  0  0  0  0  0  0  0  0  0
  141.3917   82.6743  221.8829 H   0  0  0  0  0  0  0  0  0  0  0  0
  142.2748   82.6093  224.2148 H   0  0  0  0  0  0  0  0  0  0  0  0
  142.9292   80.4325  225.2447 H   0  0  0  0  0  0  0  0  0  0  0  0
  142.6903   78.3130  223.9513 H   0  0  0  0  0  0  0  0  0  0  0  0
  142.6172   77.3821  221.5786 H   0  0  0  0  0  0  0  0  0  0  0  0
  141.1845   75.1883  222.0394 H   0  0  0  0  0  0  0  0  0  0  0  0
  138.7420   74.6810  222.7900 H   0  0  0  0  0  0  0  0  0  0  0  0
  136.4620   76.1463  223.1821 H   0  0  0  0  0  0  0  0  0  0  0  0
  135.5359   78.4852  223.0437 H   0  0  0  0  0  0  0  0  0  0  0  0
  137.0114   80.3818  222.3365 H   0  0  0  0  0  0  0  0  0  0  0  0
  139.4263   79.9598  221.7554 H   0  0  0  0  0  0  0  0  0  0  0  0
  1  2  2  0
  2  3  2  0
  2  4  1  0
  4  5  1  0
  5  6  2  0
  6  7  1  0
  7  8  2  0
  8  9  1  0
  9 10  2  0
  2 11  1  0
 11 12  1  0
 12 13  2  0
 13 14  1  0
 14 15  2  0
 15 16  1  0
 16 17  2  0
 17 18  1  0
 18 19  2  0
 19 20  1  0
 20 21  1  0
 21 22  2  0
 22 23  1  0
 23 24  1  0
 24 25  2  0
 25 26  1  0
 26 27  2  0
 27 28  1  0
 28 29  2  0
 10  5  1  0
 20 11  1  0
 29 21  1  0
 19 14  1  0
 29 24  1  0
  4 30  1  0
  4 31  1  0
  6 32  1  0
  7 33  1  0
  8 34  1  0
  9 35  1  0
 10 36  1  0
 12 37  1  0
 13 38  1  0
 15 39  1  0
 16 40  1  0
 17 41  1  0
 18 42  1  0
 20 43  1  6
 22 44  1  0
 23 45  1  0
 25 46  1  0
 26 47  1  0
 27 48  1  0
 28 49  1  0
M  END
>  <UniqueID>  (8) 
9

>  <SMILES>  (8) 
O=S(=O)(Cc1ccccc1)N1C=Cc2ccccc2[C@H]1c1c[nH]c2ccccc12

>  <Energy>  (8) 
78.48791210739698

>  <Genealogy>  (8) 
O=S(=O)(Cc1ccccc1)N1C=Cc2ccccc2[C@H]1c1c[nH]c2ccccc12 (chirality)
O=S(=O)(Cc1ccccc1)N1C=Cc2ccccc2[C@H]1c1c[nH]c2ccccc12 (3D coordinates assigned)
O=S(=O)(Cc1ccccc1)N1C=Cc2ccccc2[C@H]1c1c[nH]c2ccccc12 (nonaromatic ring conformer: 78.48791210739698 kcal/mol)

>  <smiles>  (8) 
O=S(=O)(Cc1ccccc1)N1C=Cc2ccccc2C1c1c[nH]c2ccccc12

>  <score_type>  (8) 
oracle

>  <origin>  (8) 
autodockgpu

>  <m_score__min__energy>  (8) 
-8.3599999999999994

>  <m_primary>  (8) 
energy

>  <meeko>  (8) 
{"free_energy": -7.78, "intermolecular_energy": -8.98, "internal_energy": -1.82, "cluster_size": 2, "cluster_id": 2, "rank_in_cluster": 2}

>  <energy>  (8) 
-7.16

>  <cluster_rmsd>  (8) 
0.08

>  <rmsd>  (8) 
270.89

>  <cluster>  (8) 
3

$$$$
YCOHEPDJLXZVBZ-DEOSSOPVNA-N
     RDKit          3D

 49 53  0  0  0  0  0  0  0  0999 V2000
  139.2760   75.9130  220.0570 O   0  0  0  0  0  0  0  0  0  0  0  0
  139.2810   76.3080  221.5080 S   0  0  0  0  0  0  0  0  0  0  0  0
  139.6500   75.1060  222.3320 O   0  0  0  0  0  0  0  0  0  0  0  0
  137.6570   76.8820  221.9820 C   0  0  0  0  0  0  0  0  0  0  0  0
  137.6910   78.3630  222.2370 C   0  0  0  0  0  0  0  0  0  0  0  0
  138.2380   78.8620  223.4310 C   0  0  0  0  0  0  0  0  0  0  0  0
  138.3580   80.2410  223.6290 C   0  0  0  0  0  0  0  0  0  0  0  0
  137.9410   81.1300  222.6340 C   0  0  0  0  0  0  0  0  0  0  0  0
  137.4000   80.6420  221.4410 C   0  0  0  0  0  0  0  0  0  0  0  0
  137.2750   79.2640  221.2420 C   0  0  0  0  0  0  0  0  0  0  0  0
  140.4360   77.5800  221.7620 N   0  0  0  0  0  0  0  0  0  0  0  0
  141.1970   77.6020  222.9820 C   0  0  0  0  0  0  0  0  0  0  0  0
  141.7570   78.7310  223.4130 C   0  0  0  0  0  0  0  0  0  0  0  0
  141.5910   79.9820  222.6540 C   0  0  0  0  0  0  0  0  0  0  0  0
  142.0180   81.2000  223.2020 C   0  0  0  0  0  0  0  0  0  0  0  0
  141.8290   82.3920  222.4990 C   0  0  0  0  0  0  0  0  0  0  0  0
  141.2140   82.3750  221.2440 C   0  0  0  0  0  0  0  0  0  0  0  0
  140.7890   81.1650  220.6880 C   0  0  0  0  0  0  0  0  0  0  0  0
  140.9710   79.9620  221.3890 C   0  0  0  0  0  0  0  0  0  0  0  0
  140.5560   78.6500  220.7610 C   0  0  1  0  0  0  0  0  0  0  0  0
  141.5540   78.2510  219.7060 C   0  0  0  0  0  0  0  0  0  0  0  0
  141.9840   79.0250  218.6310 C   0  0  0  0  0  0  0  0  0  0  0  0
  142.8430   78.3250  217.8570 N   0  0  0  0  0  0  0  0  0  0  0  0
  142.9540   77.1130  218.4270 C   0  0  0  0  0  0  0  0  0  0  0  0
  143.7190   76.0370  217.9790 C   0  0  0  0  0  0  0  0  0  0  0  0
  143.6780   74.8450  218.7230 C   0  0  0  0  0  0  0  0  0  0  0  0
  142.8770   74.7540  219.8830 C   0  0  0  0  0  0  0  0  0  0  0  0
  142.1120   75.8540  220.3100 C   0  0  0  0  0  0  0  0  0  0  0  0
  142.1780   77.0260  219.5550 C   0  0  0  0  0  0  0  0  0  0  0  0
  136.9439   76.6678  221.1723 H   0  0  0  0  0  0  0  0  0  0  0  0
  137.3440   76.3639  222.9005 H   0  0  0  0  0  0  0  0  0  0  0  0
  138.5732   78.1651  224.2132 H   0  0  0  0  0  0  0  0  0  0  0  0
  138.7809   80.6266  224.5684 H   0  0  0  0  0  0  0  0  0  0  0  0
  138.0387   82.2145  222.7900 H   0  0  0  0  0  0  0  0  0  0  0  0
  137.0726   81.3425  220.6586 H   0  0  0  0  0  0  0  0  0  0  0  0
  136.8490   78.8831  220.3021 H   0  0  0  0  0  0  0  0  0  0  0  0
  141.3178   76.6771  223.5651 H   0  0  0  0  0  0  0  0  0  0  0  0
  142.3470   78.7290  224.3414 H   0  0  0  0  0  0  0  0  0  0  0  0
  142.5035   81.2168  224.1889 H   0  0  0  0  0  0  0  0  0  0  0  0
  142.1645   83.3452  222.9335 H   0  0  0  0  0  0  0  0  0  0  0  0
  141.0642   83.3152  220.6930 H   0  0  0  0  0  0  0  0  0  0  0  0
  140.3102   81.1552  219.6977 H   0  0  0  0  0  0  0  0  0  0  0  0
  139.5663   78.7951  220.3033 H   0  0  0  0  0  0  0  0  0  0  0  0
  141.6686   80.0611  218.4387 H   0  0  0  0  0  0  0  0  0  0  0  0
  143.3150   78.6580  216.9870 H   0  0  0  0  0  0  0  0  0  0  0  0
  144.3355   76.1183  217.0716 H   0  0  0  0  0  0  0  0  0  0  0  0
  144.2731   73.9781  218.4000 H   0  0  0  0  0  0  0  0  0  0  0  0
  142.8515   73.8157  220.4565 H   0  0  0  0  0  0  0  0  0  0  0  0
  141.4821   75.7927  221.2097 H   0  0  0  0  0  0  0  0  0  0  0  0
  1  2  2  0
  2  3  2  0
  2  4  1  0
  4  5  1  0
  5  6  2  0
  6  7  1  0
  7  8  2  0
  8  9  1  0
  9 10  2  0
  2 11  1  0
 11 12  1  0
 12 13  2  0
 13 14  1  0
 14 15  2  0
 15 16  1  0
 16 17  2  0
 17 18  1  0
 18 19  2  0
 19 20  1  0
 20 21  1  0
 21 22  2  0
 22 23  1  0
 23 24  1  0
 24 25  2  0
 25 26  1  0
 26 27  2  0
 27 28  1  0
 28 29  2  0
 10  5  1  0
 20 11  1  0
 29 21  1  0
 19 14  1  0
 29 24  1  0
  4 30  1  0
  4 31  1  0
  6 32  1  0
  7 33  1  0
  8 34  1  0
  9 35  1  0
 10 36  1  0
 12 37  1  0
 13 38  1  0
 15 39  1  0
 16 40  1  0
 17 41  1  0
 18 42  1  0
 20 43  1  6
 22 44  1  0
 23 45  1  0
 25 46  1  0
 26 47  1  0
 27 48  1  0
 28 49  1  0
M  END
>  <UniqueID>  (9) 
9

>  <SMILES>  (9) 
O=S(=O)(Cc1ccccc1)N1C=Cc2ccccc2[C@H]1c1c[nH]c2ccccc12

>  <Energy>  (9) 
78.48791210739698

>  <Genealogy>  (9) 
O=S(=O)(Cc1ccccc1)N1C=Cc2ccccc2[C@H]1c1c[nH]c2ccccc12 (chirality)
O=S(=O)(Cc1ccccc1)N1C=Cc2ccccc2[C@H]1c1c[nH]c2ccccc12 (3D coordinates assigned)
O=S(=O)(Cc1ccccc1)N1C=Cc2ccccc2[C@H]1c1c[nH]c2ccccc12 (nonaromatic ring conformer: 78.48791210739698 kcal/mol)

>  <smiles>  (9) 
O=S(=O)(Cc1ccccc1)N1C=Cc2ccccc2C1c1c[nH]c2ccccc12

>  <score_type>  (9) 
oracle

>  <origin>  (9) 
autodockgpu

>  <m_score__min__energy>  (9) 
-8.3599999999999994

>  <m_primary>  (9) 
energy

>  <meeko>  (9) 
{"free_energy": -7.09, "intermolecular_energy": -8.29, "internal_energy": -2.58, "cluster_size": 8, "cluster_id": 4, "rank_in_cluster": 8}

>  <energy>  (9) 
-7.16

>  <cluster_rmsd>  (9) 
0.03

>  <rmsd>  (9) 
270.89

>  <cluster>  (9) 
3

$$$$
YCOHEPDJLXZVBZ-DEOSSOPVNA-N
     RDKit          3D

 49 53  0  0  0  0  0  0  0  0999 V2000
  143.5870   79.8240  222.7180 O   0  0  0  0  0  0  0  0  0  0  0  0
  142.2680   80.4000  223.1540 S   0  0  0  0  0  0  0  0  0  0  0  0
  142.5270   81.4830  224.1640 O   0  0  0  0  0  0  0  0  0  0  0  0
  141.2680   79.1190  223.8960 C   0  0  0  0  0  0  0  0  0  0  0  0
  139.8100   79.4160  223.6800 C   0  0  0  0  0  0  0  0  0  0  0  0
  139.2900   80.6790  224.0100 C   0  0  0  0  0  0  0  0  0  0  0  0
  137.9580   80.9890  223.7220 C   0  0  0  0  0  0  0  0  0  0  0  0
  137.1390   80.0450  223.0950 C   0  0  0  0  0  0  0  0  0  0  0  0
  137.6500   78.7880  222.7590 C   0  0  0  0  0  0  0  0  0  0  0  0
  138.9800   78.4740  223.0490 C   0  0  0  0  0  0  0  0  0  0  0  0
  141.4340   81.0550  221.7790 N   0  0  0  0  0  0  0  0  0  0  0  0
  141.4450   82.4770  221.5660 C   0  0  0  0  0  0  0  0  0  0  0  0
  140.5100   83.0580  220.8150 C   0  0  0  0  0  0  0  0  0  0  0  0
  139.4380   82.2540  220.2050 C   0  0  0  0  0  0  0  0  0  0  0  0
  138.3560   82.8860  219.5760 C   0  0  0  0  0  0  0  0  0  0  0  0
  137.3200   82.1250  219.0280 C   0  0  0  0  0  0  0  0  0  0  0  0
  137.3600   80.7300  219.1030 C   0  0  0  0  0  0  0  0  0  0  0  0
  138.4370   80.0920  219.7230 C   0  0  0  0  0  0  0  0  0  0  0  0
  139.4810   80.8480  220.2820 C   0  0  0  0  0  0  0  0  0  0  0  0
  140.6700   80.1510  220.9070 C   0  0  1  0  0  0  0  0  0  0  0  0
  141.5670   79.6060  219.8280 C   0  0  0  0  0  0  0  0  0  0  0  0
  142.1030   80.3130  218.7540 C   0  0  0  0  0  0  0  0  0  0  0  0
  142.8180   79.4900  217.9540 N   0  0  0  0  0  0  0  0  0  0  0  0
  142.7310   78.2670  218.5060 C   0  0  0  0  0  0  0  0  0  0  0  0
  143.2950   77.0850  218.0300 C   0  0  0  0  0  0  0  0  0  0  0  0
  143.0650   75.9050  218.7590 C   0  0  0  0  0  0  0  0  0  0  0  0
  142.2810   75.9330  219.9340 C   0  0  0  0  0  0  0  0  0  0  0  0
  141.7210   77.1390  220.3900 C   0  0  0  0  0  0  0  0  0  0  0  0
  141.9720   78.2950  219.6490 C   0  0  0  0  0  0  0  0  0  0  0  0
  141.5149   78.1512  223.4352 H   0  0  0  0  0  0  0  0  0  0  0  0
  141.4729   79.0807  224.9761 H   0  0  0  0  0  0  0  0  0  0  0  0
  139.9337   81.4265  224.4968 H   0  0  0  0  0  0  0  0  0  0  0  0
  137.5536   81.9765  223.9888 H   0  0  0  0  0  0  0  0  0  0  0  0
  136.0918   80.2917  222.8660 H   0  0  0  0  0  0  0  0  0  0  0  0
  137.0047   78.0459  222.2661 H   0  0  0  0  0  0  0  0  0  0  0  0
  139.3794   77.4845  222.7821 H   0  0  0  0  0  0  0  0  0  0  0  0
  142.2326   83.0910  222.0273 H   0  0  0  0  0  0  0  0  0  0  0  0
  140.5393   84.1451  220.6498 H   0  0  0  0  0  0  0  0  0  0  0  0
  138.3225   83.9837  219.5137 H   0  0  0  0  0  0  0  0  0  0  0  0
  136.4719   82.6246  218.5369 H   0  0  0  0  0  0  0  0  0  0  0  0
  136.5420   80.1334  218.6730 H   0  0  0  0  0  0  0  0  0  0  0  0
  138.4678   78.9936  219.7738 H   0  0  0  0  0  0  0  0  0  0  0  0
  140.2887   79.3264  221.5273 H   0  0  0  0  0  0  0  0  0  0  0  0
  141.9640   81.3904  218.5809 H   0  0  0  0  0  0  0  0  0  0  0  0
  143.3230   79.7520  217.0790 H   0  0  0  0  0  0  0  0  0  0  0  0
  143.9014   77.0754  217.1123 H   0  0  0  0  0  0  0  0  0  0  0  0
  143.4978   74.9549  218.4127 H   0  0  0  0  0  0  0  0  0  0  0  0
  142.1075   75.0037  220.4965 H   0  0  0  0  0  0  0  0  0  0  0  0
  141.1052   77.1707  221.3009 H   0  0  0  0  0  0  0  0  0  0  0  0
  1  2  2  0
  2  3  2  0
  2  4  1  0
  4  5  1  0
  5  6  2  0
  6  7  1  0
  7  8  2  0
  8  9  1  0
  9 10  2  0
  2 11  1  0
 11 12  1  0
 12 13  2  0
 13 14  1  0
 14 15  2  0
 15 16  1  0
 16 17  2  0
 17 18  1  0
 18 19  2  0
 19 20  1  0
 20 21  1  0
 21 22  2  0
 22 23  1  0
 23 24  1  0
 24 25  2  0
 25 26  1  0
 26 27  2  0
 27 28  1  0
 28 29  2  0
 10  5  1  0
 20 11  1  0
 29 21  1  0
 19 14  1  0
 29 24  1  0
  4 30  1  0
  4 31  1  0
  6 32  1  0
  7 33  1  0
  8 34  1  0
  9 35  1  0
 10 36  1  0
 12 37  1  0
 13 38  1  0
 15 39  1  0
 16 40  1  0
 17 41  1  0
 18 42  1  0
 20 43  1  1
 22 44  1  0
 23 45  1  0
 25 46  1  0
 26 47  1  0
 27 48  1  0
 28 49  1  0
M  END
>  <UniqueID>  (10) 
9

>  <SMILES>  (10) 
O=S(=O)(Cc1ccccc1)N1C=Cc2ccccc2[C@H]1c1c[nH]c2ccccc12

>  <Energy>  (10) 
78.48791210739698

>  <Genealogy>  (10) 
O=S(=O)(Cc1ccccc1)N1C=Cc2ccccc2[C@H]1c1c[nH]c2ccccc12 (chirality)
O=S(=O)(Cc1ccccc1)N1C=Cc2ccccc2[C@H]1c1c[nH]c2ccccc12 (3D coordinates assigned)
O=S(=O)(Cc1ccccc1)N1C=Cc2ccccc2[C@H]1c1c[nH]c2ccccc12 (nonaromatic ring conformer: 78.48791210739698 kcal/mol)

>  <smiles>  (10) 
O=S(=O)(Cc1ccccc1)N1C=Cc2ccccc2C1c1c[nH]c2ccccc12

>  <score_type>  (10) 
oracle

>  <origin>  (10) 
autodockgpu

>  <m_score__min__energy>  (10) 
-8.3599999999999994

>  <m_primary>  (10) 
energy

>  <meeko>  (10) 
{"free_energy": -7.03, "intermolecular_energy": -8.23, "internal_energy": -2.73, "cluster_size": 7, "cluster_id": 3, "rank_in_cluster": 7}

>  <energy>  (10) 
-7.16

>  <cluster_rmsd>  (10) 
0.02

>  <rmsd>  (10) 
270.89

>  <cluster>  (10) 
3

$$$$
YCOHEPDJLXZVBZ-DEOSSOPVNA-N
     RDKit          3D

 49 53  0  0  0  0  0  0  0  0999 V2000
  139.2210   75.9150  220.1640 O   0  0  0  0  0  0  0  0  0  0  0  0
  139.3680   76.2280  221.6270 S   0  0  0  0  0  0  0  0  0  0  0  0
  139.8660   74.9990  222.3350 O   0  0  0  0  0  0  0  0  0  0  0  0
  137.7850   76.7070  222.3020 C   0  0  0  0  0  0  0  0  0  0  0  0
  137.6930   78.2050  222.3840 C   0  0  0  0  0  0  0  0  0  0  0  0
  138.2570   78.8900  223.4740 C   0  0  0  0  0  0  0  0  0  0  0  0
  138.2570   80.2870  223.5040 C   0  0  0  0  0  0  0  0  0  0  0  0
  137.7040   81.0110  222.4430 C   0  0  0  0  0  0  0  0  0  0  0  0
  137.1460   80.3380  221.3520 C   0  0  0  0  0  0  0  0  0  0  0  0
  137.1400   78.9400  221.3210 C   0  0  0  0  0  0  0  0  0  0  0  0
  140.4980   77.5320  221.8350 N   0  0  0  0  0  0  0  0  0  0  0  0
  141.2770   77.5980  223.0410 C   0  0  0  0  0  0  0  0  0  0  0  0
  141.8180   78.7490  223.4380 C   0  0  0  0  0  0  0  0  0  0  0  0
  141.6110   79.9780  222.6540 C   0  0  0  0  0  0  0  0  0  0  0  0
  142.0190   81.2180  223.1690 C   0  0  0  0  0  0  0  0  0  0  0  0
  141.7910   82.3890  222.4430 C   0  0  0  0  0  0  0  0  0  0  0  0
  141.1570   82.3300  221.1990 C   0  0  0  0  0  0  0  0  0  0  0  0
  140.7510   81.0990  220.6760 C   0  0  0  0  0  0  0  0  0  0  0  0
  140.9710   79.9160  221.4000 C   0  0  0  0  0  0  0  0  0  0  0  0
  140.5770   78.5810  220.8080 C   0  0  1  0  0  0  0  0  0  0  0  0
  141.5670   78.1820  219.7470 C   0  0  0  0  0  0  0  0  0  0  0  0
  141.9970   78.9590  218.6740 C   0  0  0  0  0  0  0  0  0  0  0  0
  142.8480   78.2570  217.8910 N   0  0  0  0  0  0  0  0  0  0  0  0
  142.9530   77.0410  218.4530 C   0  0  0  0  0  0  0  0  0  0  0  0
  143.7090   75.9630  217.9960 C   0  0  0  0  0  0  0  0  0  0  0  0
  143.6630   74.7670  218.7330 C   0  0  0  0  0  0  0  0  0  0  0  0
  142.8670   74.6750  219.8970 C   0  0  0  0  0  0  0  0  0  0  0  0
  142.1120   75.7770  220.3340 C   0  0  0  0  0  0  0  0  0  0  0  0
  142.1820   76.9530  219.5850 C   0  0  0  0  0  0  0  0  0  0  0  0
  136.9823   76.3278  221.6525 H   0  0  0  0  0  0  0  0  0  0  0  0
  137.6798   76.2830  223.3116 H   0  0  0  0  0  0  0  0  0  0  0  0
  138.7002   78.3241  224.3067 H   0  0  0  0  0  0  0  0  0  0  0  0
  138.6926   80.8180  224.3633 H   0  0  0  0  0  0  0  0  0  0  0  0
  137.7081   82.1107  222.4669 H   0  0  0  0  0  0  0  0  0  0  0  0
  136.7116   80.9084  220.5178 H   0  0  0  0  0  0  0  0  0  0  0  0
  136.7007   78.4132  220.4611 H   0  0  0  0  0  0  0  0  0  0  0  0
  141.4280   76.6893  223.6422 H   0  0  0  0  0  0  0  0  0  0  0  0
  142.4225   78.7813  224.3564 H   0  0  0  0  0  0  0  0  0  0  0  0
  142.5197   81.2678  224.1472 H   0  0  0  0  0  0  0  0  0  0  0  0
  142.1109   83.3592  222.8509 H   0  0  0  0  0  0  0  0  0  0  0  0
  140.9771   83.2542  220.6303 H   0  0  0  0  0  0  0  0  0  0  0  0
  140.2575   81.0567  219.6938 H   0  0  0  0  0  0  0  0  0  0  0  0
  139.5772   78.6921  220.3628 H   0  0  0  0  0  0  0  0  0  0  0  0
  141.6878   79.9983  218.4891 H   0  0  0  0  0  0  0  0  0  0  0  0
  143.3170   78.5920  217.0210 H   0  0  0  0  0  0  0  0  0  0  0  0
  144.3226   76.0456  217.0868 H   0  0  0  0  0  0  0  0  0  0  0  0
  144.2500   73.8976  218.4018 H   0  0  0  0  0  0  0  0  0  0  0  0
  142.8381   73.7337  220.4654 H   0  0  0  0  0  0  0  0  0  0  0  0
  141.4864   75.7149  221.2366 H   0  0  0  0  0  0  0  0  0  0  0  0
  1  2  2  0
  2  3  2  0
  2  4  1  0
  4  5  1  0
  5  6  2  0
  6  7  1  0
  7  8  2  0
  8  9  1  0
  9 10  2  0
  2 11  1  0
 11 12  1  0
 12 13  2  0
 13 14  1  0
 14 15  2  0
 15 16  1  0
 16 17  2  0
 17 18  1  0
 18 19  2  0
 19 20  1  0
 20 21  1  0
 21 22  2  0
 22 23  1  0
 23 24  1  0
 24 25  2  0
 25 26  1  0
 26 27  2  0
 27 28  1  0
 28 29  2  0
 10  5  1  0
 20 11  1  0
 29 21  1  0
 19 14  1  0
 29 24  1  0
  4 30  1  0
  4 31  1  0
  6 32  1  0
  7 33  1  0
  8 34  1  0
  9 35  1  0
 10 36  1  0
 12 37  1  0
 13 38  1  0
 15 39  1  0
 16 40  1  0
 17 41  1  0
 18 42  1  0
 20 43  1  6
 22 44  1  0
 23 45  1  0
 25 46  1  0
 26 47  1  0
 27 48  1  0
 28 49  1  0
M  END
>  <UniqueID>  (11) 
9

>  <SMILES>  (11) 
O=S(=O)(Cc1ccccc1)N1C=Cc2ccccc2[C@H]1c1c[nH]c2ccccc12

>  <Energy>  (11) 
78.48791210739698

>  <Genealogy>  (11) 
O=S(=O)(Cc1ccccc1)N1C=Cc2ccccc2[C@H]1c1c[nH]c2ccccc12 (chirality)
O=S(=O)(Cc1ccccc1)N1C=Cc2ccccc2[C@H]1c1c[nH]c2ccccc12 (3D coordinates assigned)
O=S(=O)(Cc1ccccc1)N1C=Cc2ccccc2[C@H]1c1c[nH]c2ccccc12 (nonaromatic ring conformer: 78.48791210739698 kcal/mol)

>  <smiles>  (11) 
O=S(=O)(Cc1ccccc1)N1C=Cc2ccccc2C1c1c[nH]c2ccccc12

>  <score_type>  (11) 
oracle

>  <origin>  (11) 
autodockgpu

>  <m_score__min__energy>  (11) 
-8.3599999999999994

>  <m_primary>  (11) 
energy

>  <meeko>  (11) 
{"free_energy": -7.15, "intermolecular_energy": -8.34, "internal_energy": -2.6, "cluster_size": 8, "cluster_id": 4, "rank_in_cluster": 3}

>  <energy>  (11) 
-7.15

>  <cluster_rmsd>  (11) 
0.04

>  <rmsd>  (11) 
270.87

>  <cluster>  (11) 
3

$$$$
YCOHEPDJLXZVBZ-DEOSSOPVNA-N
     RDKit          3D

 49 53  0  0  0  0  0  0  0  0999 V2000
  143.6880   80.1420  222.7810 O   0  0  0  0  0  0  0  0  0  0  0  0
  142.2940   80.5500  223.1700 S   0  0  0  0  0  0  0  0  0  0  0  0
  142.3810   81.6220  224.2200 O   0  0  0  0  0  0  0  0  0  0  0  0
  141.4150   79.1390  223.8260 C   0  0  0  0  0  0  0  0  0  0  0  0
  139.9350   79.3280  223.6500 C   0  0  0  0  0  0  0  0  0  0  0  0
  139.3360   80.5590  223.9710 C   0  0  0  0  0  0  0  0  0  0  0  0
  137.9780   80.7680  223.7180 C   0  0  0  0  0  0  0  0  0  0  0  0
  137.2100   79.7560  223.1350 C   0  0  0  0  0  0  0  0  0  0  0  0
  137.7980   78.5310  222.8070 C   0  0  0  0  0  0  0  0  0  0  0  0
  139.1560   78.3170  223.0630 C   0  0  0  0  0  0  0  0  0  0  0  0
  141.4510   81.1510  221.7740 N   0  0  0  0  0  0  0  0  0  0  0  0
  141.4520   82.5640  221.5120 C   0  0  0  0  0  0  0  0  0  0  0  0
  140.5110   83.1120  220.7430 C   0  0  0  0  0  0  0  0  0  0  0  0
  139.4440   82.2800  220.1640 C   0  0  0  0  0  0  0  0  0  0  0  0
  138.3550   82.8820  219.5170 C   0  0  0  0  0  0  0  0  0  0  0  0
  137.3240   82.0950  218.9980 C   0  0  0  0  0  0  0  0  0  0  0  0
  137.3740   80.7040  219.1210 C   0  0  0  0  0  0  0  0  0  0  0  0
  138.4570   80.0960  219.7610 C   0  0  0  0  0  0  0  0  0  0  0  0
  139.4970   80.8770  220.2900 C   0  0  0  0  0  0  0  0  0  0  0  0
  140.6920   80.2120  220.9360 C   0  0  1  0  0  0  0  0  0  0  0  0
  141.5900   79.6350  219.8750 C   0  0  0  0  0  0  0  0  0  0  0  0
  142.1520   80.3180  218.7990 C   0  0  0  0  0  0  0  0  0  0  0  0
  142.8590   79.4710  218.0170 N   0  0  0  0  0  0  0  0  0  0  0  0
  142.7430   78.2580  218.5830 C   0  0  0  0  0  0  0  0  0  0  0  0
  143.2890   77.0580  218.1290 C   0  0  0  0  0  0  0  0  0  0  0  0
  143.0270   75.8930  218.8700 C   0  0  0  0  0  0  0  0  0  0  0  0
  142.2310   75.9510  220.0350 C   0  0  0  0  0  0  0  0  0  0  0  0
  141.6900   77.1740  220.4700 C   0  0  0  0  0  0  0  0  0  0  0  0
  141.9710   78.3150  219.7170 C   0  0  0  0  0  0  0  0  0  0  0  0
  141.7324   78.2315  223.2915 H   0  0  0  0  0  0  0  0  0  0  0  0
  141.6412   79.0392  224.8979 H   0  0  0  0  0  0  0  0  0  0  0  0
  139.9389   81.3604  224.4230 H   0  0  0  0  0  0  0  0  0  0  0  0
  137.5125   81.7302  223.9779 H   0  0  0  0  0  0  0  0  0  0  0  0
  136.1416   79.9238  222.9341 H   0  0  0  0  0  0  0  0  0  0  0  0
  137.1927   77.7356  222.3477 H   0  0  0  0  0  0  0  0  0  0  0  0
  139.6165   77.3523  222.8035 H   0  0  0  0  0  0  0  0  0  0  0  0
  142.2362   83.1990  221.9499 H   0  0  0  0  0  0  0  0  0  0  0  0
  140.5322   84.1929  220.5399 H   0  0  0  0  0  0  0  0  0  0  0  0
  138.3125   83.9767  219.4179 H   0  0  0  0  0  0  0  0  0  0  0  0
  136.4714   82.5712  218.4917 H   0  0  0  0  0  0  0  0  0  0  0  0
  136.5597   80.0869  218.7135 H   0  0  0  0  0  0  0  0  0  0  0  0
  138.4950   79.0003  219.8509 H   0  0  0  0  0  0  0  0  0  0  0  0
  140.3182   79.4074  221.5863 H   0  0  0  0  0  0  0  0  0  0  0  0
  142.0368   81.3958  218.6115 H   0  0  0  0  0  0  0  0  0  0  0  0
  143.3800   79.7120  217.1450 H   0  0  0  0  0  0  0  0  0  0  0  0
  143.9058   77.0242  217.2188 H   0  0  0  0  0  0  0  0  0  0  0  0
  143.4445   74.9301  218.5405 H   0  0  0  0  0  0  0  0  0  0  0  0
  142.0326   75.0324  220.6067 H   0  0  0  0  0  0  0  0  0  0  0  0
  141.0658   77.2295  221.3741 H   0  0  0  0  0  0  0  0  0  0  0  0
  1  2  2  0
  2  3  2  0
  2  4  1  0
  4  5  1  0
  5  6  2  0
  6  7  1  0
  7  8  2  0
  8  9  1  0
  9 10  2  0
  2 11  1  0
 11 12  1  0
 12 13  2  0
 13 14  1  0
 14 15  2  0
 15 16  1  0
 16 17  2  0
 17 18  1  0
 18 19  2  0
 19 20  1  0
 20 21  1  0
 21 22  2  0
 22 23  1  0
 23 24  1  0
 24 25  2  0
 25 26  1  0
 26 27  2  0
 27 28  1  0
 28 29  2  0
 10  5  1  0
 20 11  1  0
 29 21  1  0
 19 14  1  0
 29 24  1  0
  4 30  1  0
  4 31  1  0
  6 32  1  0
  7 33  1  0
  8 34  1  0
  9 35  1  0
 10 36  1  0
 12 37  1  0
 13 38  1  0
 15 39  1  0
 16 40  1  0
 17 41  1  0
 18 42  1  0
 20 43  1  1
 22 44  1  0
 23 45  1  0
 25 46  1  0
 26 47  1  0
 27 48  1  0
 28 49  1  0
M  END
>  <UniqueID>  (12) 
9

>  <SMILES>  (12) 
O=S(=O)(Cc1ccccc1)N1C=Cc2ccccc2[C@H]1c1c[nH]c2ccccc12

>  <Energy>  (12) 
78.48791210739698

>  <Genealogy>  (12) 
O=S(=O)(Cc1ccccc1)N1C=Cc2ccccc2[C@H]1c1c[nH]c2ccccc12 (chirality)
O=S(=O)(Cc1ccccc1)N1C=Cc2ccccc2[C@H]1c1c[nH]c2ccccc12 (3D coordinates assigned)
O=S(=O)(Cc1ccccc1)N1C=Cc2ccccc2[C@H]1c1c[nH]c2ccccc12 (nonaromatic ring conformer: 78.48791210739698 kcal/mol)

>  <smiles>  (12) 
O=S(=O)(Cc1ccccc1)N1C=Cc2ccccc2C1c1c[nH]c2ccccc12

>  <score_type>  (12) 
oracle

>  <origin>  (12) 
autodockgpu

>  <m_score__min__energy>  (12) 
-8.3599999999999994

>  <m_primary>  (12) 
energy

>  <meeko>  (12) 
{"free_energy": -7.16, "intermolecular_energy": -8.36, "internal_energy": -2.67, "cluster_size": 7, "cluster_id": 3, "rank_in_cluster": 2}

>  <energy>  (12) 
-7.03

>  <cluster_rmsd>  (12) 
0.15

>  <rmsd>  (12) 
270.85

>  <cluster>  (12) 
3

$$$$
YCOHEPDJLXZVBZ-DEOSSOPVNA-N
     RDKit          3D

 49 53  0  0  0  0  0  0  0  0999 V2000
  139.2070   75.9400  220.1850 O   0  0  0  0  0  0  0  0  0  0  0  0
  139.3500   76.2440  221.6500 S   0  0  0  0  0  0  0  0  0  0  0  0
  139.8370   75.0070  222.3530 O   0  0  0  0  0  0  0  0  0  0  0  0
  137.7680   76.7300  222.3220 C   0  0  0  0  0  0  0  0  0  0  0  0
  137.6750   78.2290  222.3850 C   0  0  0  0  0  0  0  0  0  0  0  0
  138.2260   78.9260  223.4740 C   0  0  0  0  0  0  0  0  0  0  0  0
  138.2260   80.3230  223.4890 C   0  0  0  0  0  0  0  0  0  0  0  0
  137.6860   81.0350  222.4130 C   0  0  0  0  0  0  0  0  0  0  0  0
  137.1420   80.3500  221.3230 C   0  0  0  0  0  0  0  0  0  0  0  0
  137.1360   78.9520  221.3080 C   0  0  0  0  0  0  0  0  0  0  0  0
  140.4880   77.5380  221.8690 N   0  0  0  0  0  0  0  0  0  0  0  0
  141.2640   77.5910  223.0770 C   0  0  0  0  0  0  0  0  0  0  0  0
  141.8120   78.7360  223.4830 C   0  0  0  0  0  0  0  0  0  0  0  0
  141.6160   79.9720  222.7070 C   0  0  0  0  0  0  0  0  0  0  0  0
  142.0310   81.2040  223.2310 C   0  0  0  0  0  0  0  0  0  0  0  0
  141.8130   82.3820  222.5110 C   0  0  0  0  0  0  0  0  0  0  0  0
  141.1820   82.3360  221.2660 C   0  0  0  0  0  0  0  0  0  0  0  0
  140.7700   81.1110  220.7340 C   0  0  0  0  0  0  0  0  0  0  0  0
  140.9790   79.9220  221.4510 C   0  0  0  0  0  0  0  0  0  0  0  0
  140.5770   78.5940  220.8490 C   0  0  1  0  0  0  0  0  0  0  0  0
  141.5670   78.1940  219.7880 C   0  0  0  0  0  0  0  0  0  0  0  0
  142.0000   78.9720  218.7160 C   0  0  0  0  0  0  0  0  0  0  0  0
  142.8500   78.2700  217.9330 N   0  0  0  0  0  0  0  0  0  0  0  0
  142.9520   77.0530  218.4940 C   0  0  0  0  0  0  0  0  0  0  0  0
  143.7060   75.9750  218.0350 C   0  0  0  0  0  0  0  0  0  0  0  0
  143.6570   74.7770  218.7700 C   0  0  0  0  0  0  0  0  0  0  0  0
  142.8610   74.6840  219.9320 C   0  0  0  0  0  0  0  0  0  0  0  0
  142.1080   75.7870  220.3710 C   0  0  0  0  0  0  0  0  0  0  0  0
  142.1810   76.9650  219.6250 C   0  0  0  0  0  0  0  0  0  0  0  0
  136.9643   76.3418  221.6791 H   0  0  0  0  0  0  0  0  0  0  0  0
  137.6651   76.3188  223.3370 H   0  0  0  0  0  0  0  0  0  0  0  0
  138.6591   78.3692  224.3181 H   0  0  0  0  0  0  0  0  0  0  0  0
  138.6510   80.8634  224.3477 H   0  0  0  0  0  0  0  0  0  0  0  0
  137.6895   82.1349  222.4247 H   0  0  0  0  0  0  0  0  0  0  0  0
  136.7185   80.9109  220.4768 H   0  0  0  0  0  0  0  0  0  0  0  0
  136.7071   78.4157  220.4487 H   0  0  0  0  0  0  0  0  0  0  0  0
  141.4073   76.6774  223.6727 H   0  0  0  0  0  0  0  0  0  0  0  0
  142.4143   78.7579  224.4032 H   0  0  0  0  0  0  0  0  0  0  0  0
  142.5293   81.2439  224.2109 H   0  0  0  0  0  0  0  0  0  0  0  0
  142.1391   83.3472  222.9258 H   0  0  0  0  0  0  0  0  0  0  0  0
  141.0090   83.2652  220.7033 H   0  0  0  0  0  0  0  0  0  0  0  0
  140.2801   81.0782  219.7497 H   0  0  0  0  0  0  0  0  0  0  0  0
  139.5793   78.7161  220.4020 H   0  0  0  0  0  0  0  0  0  0  0  0
  141.6931   80.0122  218.5324 H   0  0  0  0  0  0  0  0  0  0  0  0
  143.3200   78.6060  217.0640 H   0  0  0  0  0  0  0  0  0  0  0  0
  144.3203   76.0583  217.1263 H   0  0  0  0  0  0  0  0  0  0  0  0
  144.2425   73.9072  218.4374 H   0  0  0  0  0  0  0  0  0  0  0  0
  142.8296   73.7415  220.4982 H   0  0  0  0  0  0  0  0  0  0  0  0
  141.4816   75.7240  221.2730 H   0  0  0  0  0  0  0  0  0  0  0  0
  1  2  2  0
  2  3  2  0
  2  4  1  0
  4  5  1  0
  5  6  2  0
  6  7  1  0
  7  8  2  0
  8  9  1  0
  9 10  2  0
  2 11  1  0
 11 12  1  0
 12 13  2  0
 13 14  1  0
 14 15  2  0
 15 16  1  0
 16 17  2  0
 17 18  1  0
 18 19  2  0
 19 20  1  0
 20 21  1  0
 21 22  2  0
 22 23  1  0
 23 24  1  0
 24 25  2  0
 25 26  1  0
 26 27  2  0
 27 28  1  0
 28 29  2  0
 10  5  1  0
 20 11  1  0
 29 21  1  0
 19 14  1  0
 29 24  1  0
  4 30  1  0
  4 31  1  0
  6 32  1  0
  7 33  1  0
  8 34  1  0
  9 35  1  0
 10 36  1  0
 12 37  1  0
 13 38  1  0
 15 39  1  0
 16 40  1  0
 17 41  1  0
 18 42  1  0
 20 43  1  6
 22 44  1  0
 23 45  1  0
 25 46  1  0
 26 47  1  0
 27 48  1  0
 28 49  1  0
M  END
>  <UniqueID>  (13) 
9

>  <SMILES>  (13) 
O=S(=O)(Cc1ccccc1)N1C=Cc2ccccc2[C@H]1c1c[nH]c2ccccc12

>  <Energy>  (13) 
78.48791210739698

>  <Genealogy>  (13) 
O=S(=O)(Cc1ccccc1)N1C=Cc2ccccc2[C@H]1c1c[nH]c2ccccc12 (chirality)
O=S(=O)(Cc1ccccc1)N1C=Cc2ccccc2[C@H]1c1c[nH]c2ccccc12 (3D coordinates assigned)
O=S(=O)(Cc1ccccc1)N1C=Cc2ccccc2[C@H]1c1c[nH]c2ccccc12 (nonaromatic ring conformer: 78.48791210739698 kcal/mol)

>  <smiles>  (13) 
O=S(=O)(Cc1ccccc1)N1C=Cc2ccccc2C1c1c[nH]c2ccccc12

>  <score_type>  (13) 
oracle

>  <origin>  (13) 
autodockgpu

>  <m_score__min__energy>  (13) 
-8.3599999999999994

>  <m_primary>  (13) 
energy

>  <meeko>  (13) 
{"free_energy": -7.15, "intermolecular_energy": -8.35, "internal_energy": -2.6, "cluster_size": 8, "cluster_id": 4, "rank_in_cluster": 2}

>  <energy>  (13) 
-7.16

>  <cluster_rmsd>  (13) 
0.0

>  <rmsd>  (13) 
270.56

>  <cluster>  (13) 
4

$$$$
YCOHEPDJLXZVBZ-DEOSSOPVNA-N
     RDKit          3D

 49 53  0  0  0  0  0  0  0  0999 V2000
  143.6920   80.1430  222.7780 O   0  0  0  0  0  0  0  0  0  0  0  0
  142.2980   80.5470  223.1690 S   0  0  0  0  0  0  0  0  0  0  0  0
  142.3840   81.6160  224.2220 O   0  0  0  0  0  0  0  0  0  0  0  0
  141.4230   79.1330  223.8230 C   0  0  0  0  0  0  0  0  0  0  0  0
  139.9410   79.3200  223.6480 C   0  0  0  0  0  0  0  0  0  0  0  0
  139.3390   80.5450  223.9800 C   0  0  0  0  0  0  0  0  0  0  0  0
  137.9800   80.7530  223.7290 C   0  0  0  0  0  0  0  0  0  0  0  0
  137.2150   79.7440  223.1360 C   0  0  0  0  0  0  0  0  0  0  0  0
  137.8070   78.5240  222.7980 C   0  0  0  0  0  0  0  0  0  0  0  0
  139.1650   78.3110  223.0520 C   0  0  0  0  0  0  0  0  0  0  0  0
  141.4520   81.1500  221.7770 N   0  0  0  0  0  0  0  0  0  0  0  0
  141.4500   82.5640  221.5180 C   0  0  0  0  0  0  0  0  0  0  0  0
  140.5080   83.1130  220.7520 C   0  0  0  0  0  0  0  0  0  0  0  0
  139.4410   82.2800  220.1720 C   0  0  0  0  0  0  0  0  0  0  0  0
  138.3510   82.8820  219.5270 C   0  0  0  0  0  0  0  0  0  0  0  0
  137.3210   82.0950  219.0070 C   0  0  0  0  0  0  0  0  0  0  0  0
  137.3730   80.7030  219.1270 C   0  0  0  0  0  0  0  0  0  0  0  0
  138.4580   80.0950  219.7640 C   0  0  0  0  0  0  0  0  0  0  0  0
  139.4970   80.8770  220.2940 C   0  0  0  0  0  0  0  0  0  0  0  0
  140.6940   80.2120  220.9370 C   0  0  1  0  0  0  0  0  0  0  0  0
  141.5920   79.6400  219.8730 C   0  0  0  0  0  0  0  0  0  0  0  0
  142.1460   80.3260  218.7940 C   0  0  0  0  0  0  0  0  0  0  0  0
  142.8560   79.4820  218.0110 N   0  0  0  0  0  0  0  0  0  0  0  0
  142.7490   78.2690  218.5780 C   0  0  0  0  0  0  0  0  0  0  0  0
  143.3010   77.0730  218.1230 C   0  0  0  0  0  0  0  0  0  0  0  0
  143.0500   75.9060  218.8660 C   0  0  0  0  0  0  0  0  0  0  0  0
  142.2570   75.9600  220.0340 C   0  0  0  0  0  0  0  0  0  0  0  0
  141.7100   77.1800  220.4690 C   0  0  0  0  0  0  0  0  0  0  0  0
  141.9820   78.3220  219.7140 C   0  0  0  0  0  0  0  0  0  0  0  0
  141.7418   78.2271  223.2866 H   0  0  0  0  0  0  0  0  0  0  0  0
  141.6504   79.0312  224.8944 H   0  0  0  0  0  0  0  0  0  0  0  0
  139.9397   81.3438  224.4394 H   0  0  0  0  0  0  0  0  0  0  0  0
  137.5118   81.7113  223.9982 H   0  0  0  0  0  0  0  0  0  0  0  0
  136.1464   79.9106  222.9354 H   0  0  0  0  0  0  0  0  0  0  0  0
  137.2040   77.7309  222.3318 H   0  0  0  0  0  0  0  0  0  0  0  0
  139.6282   77.3498  222.7844 H   0  0  0  0  0  0  0  0  0  0  0  0
  142.2338   83.1991  221.9565 H   0  0  0  0  0  0  0  0  0  0  0  0
  140.5274   84.1944  220.5518 H   0  0  0  0  0  0  0  0  0  0  0  0
  138.3071   83.9769  219.4303 H   0  0  0  0  0  0  0  0  0  0  0  0
  136.4675   82.5711  218.5022 H   0  0  0  0  0  0  0  0  0  0  0  0
  136.5588   80.0857  218.7195 H   0  0  0  0  0  0  0  0  0  0  0  0
  138.4984   78.9992  219.8507 H   0  0  0  0  0  0  0  0  0  0  0  0
  140.3225   79.4047  221.5853 H   0  0  0  0  0  0  0  0  0  0  0  0
  142.0232   81.4027  218.6055 H   0  0  0  0  0  0  0  0  0  0  0  0
  143.3720   79.7260  217.1360 H   0  0  0  0  0  0  0  0  0  0  0  0
  143.9144   77.0429  217.2104 H   0  0  0  0  0  0  0  0  0  0  0  0
  143.4733   74.9458  218.5361 H   0  0  0  0  0  0  0  0  0  0  0  0
  142.0661   75.0408  220.6073 H   0  0  0  0  0  0  0  0  0  0  0  0
  141.0880   77.2327  221.3747 H   0  0  0  0  0  0  0  0  0  0  0  0
  1  2  2  0
  2  3  2  0
  2  4  1  0
  4  5  1  0
  5  6  2  0
  6  7  1  0
  7  8  2  0
  8  9  1  0
  9 10  2  0
  2 11  1  0
 11 12  1  0
 12 13  2  0
 13 14  1  0
 14 15  2  0
 15 16  1  0
 16 17  2  0
 17 18  1  0
 18 19  2  0
 19 20  1  0
 20 21  1  0
 21 22  2  0
 22 23  1  0
 23 24  1  0
 24 25  2  0
 25 26  1  0
 26 27  2  0
 27 28  1  0
 28 29  2  0
 10  5  1  0
 20 11  1  0
 29 21  1  0
 19 14  1  0
 29 24  1  0
  4 30  1  0
  4 31  1  0
  6 32  1  0
  7 33  1  0
  8 34  1  0
  9 35  1  0
 10 36  1  0
 12 37  1  0
 13 38  1  0
 15 39  1  0
 16 40  1  0
 17 41  1  0
 18 42  1  0
 20 43  1  1
 22 44  1  0
 23 45  1  0
 25 46  1  0
 26 47  1  0
 27 48  1  0
 28 49  1  0
M  END
>  <UniqueID>  (14) 
9

>  <SMILES>  (14) 
O=S(=O)(Cc1ccccc1)N1C=Cc2ccccc2[C@H]1c1c[nH]c2ccccc12

>  <Energy>  (14) 
78.48791210739698

>  <Genealogy>  (14) 
O=S(=O)(Cc1ccccc1)N1C=Cc2ccccc2[C@H]1c1c[nH]c2ccccc12 (chirality)
O=S(=O)(Cc1ccccc1)N1C=Cc2ccccc2[C@H]1c1c[nH]c2ccccc12 (3D coordinates assigned)
O=S(=O)(Cc1ccccc1)N1C=Cc2ccccc2[C@H]1c1c[nH]c2ccccc12 (nonaromatic ring conformer: 78.48791210739698 kcal/mol)

>  <smiles>  (14) 
O=S(=O)(Cc1ccccc1)N1C=Cc2ccccc2C1c1c[nH]c2ccccc12

>  <score_type>  (14) 
oracle

>  <origin>  (14) 
autodockgpu

>  <m_score__min__energy>  (14) 
-8.3599999999999994

>  <m_primary>  (14) 
energy

>  <meeko>  (14) 
{"free_energy": -7.16, "intermolecular_energy": -8.36, "internal_energy": -2.67, "cluster_size": 7, "cluster_id": 3, "rank_in_cluster": 1}

>  <energy>  (14) 
-7.15

>  <cluster_rmsd>  (14) 
0.05

>  <rmsd>  (14) 
270.56

>  <cluster>  (14) 
4

$$$$
YCOHEPDJLXZVBZ-DEOSSOPVNA-N
     RDKit          3D

 49 53  0  0  0  0  0  0  0  0999 V2000
  141.0510   75.4990  218.5390 O   0  0  0  0  0  0  0  0  0  0  0  0
  142.0950   75.9590  219.5180 S   0  0  0  0  0  0  0  0  0  0  0  0
  143.3760   76.2080  218.7740 O   0  0  0  0  0  0  0  0  0  0  0  0
  142.3580   74.6960  220.7550 C   0  0  0  0  0  0  0  0  0  0  0  0
  143.6200   73.9380  220.4540 C   0  0  0  0  0  0  0  0  0  0  0  0
  144.8720   74.5010  220.7520 C   0  0  0  0  0  0  0  0  0  0  0  0
  146.0410   73.7600  220.5630 C   0  0  0  0  0  0  0  0  0  0  0  0
  145.9690   72.4480  220.0840 C   0  0  0  0  0  0  0  0  0  0  0  0
  144.7280   71.8780  219.7900 C   0  0  0  0  0  0  0  0  0  0  0  0
  143.5570   72.6180  219.9740 C   0  0  0  0  0  0  0  0  0  0  0  0
  141.5640   77.4200  220.2950 N   0  0  0  0  0  0  0  0  0  0  0  0
  141.3210   78.5890  219.4940 C   0  0  0  0  0  0  0  0  0  0  0  0
  141.3320   79.8020  220.0440 C   0  0  0  0  0  0  0  0  0  0  0  0
  141.6100   79.9670  221.4810 C   0  0  0  0  0  0  0  0  0  0  0  0
  141.8070   81.2470  222.0180 C   0  0  0  0  0  0  0  0  0  0  0  0
  142.1070   81.4020  223.3730 C   0  0  0  0  0  0  0  0  0  0  0  0
  142.2100   80.2810  224.2010 C   0  0  0  0  0  0  0  0  0  0  0  0
  142.0110   79.0010  223.6750 C   0  0  0  0  0  0  0  0  0  0  0  0
  141.7140   78.8340  222.3130 C   0  0  0  0  0  0  0  0  0  0  0  0
  141.4490   77.4510  221.7600 C   0  0  1  0  0  0  0  0  0  0  0  0
  140.0760   76.9910  222.1730 C   0  0  0  0  0  0  0  0  0  0  0  0
  139.6520   75.6740  222.3330 C   0  0  0  0  0  0  0  0  0  0  0  0
  138.3400   75.6350  222.6580 N   0  0  0  0  0  0  0  0  0  0  0  0
  137.9280   76.9130  222.6950 C   0  0  0  0  0  0  0  0  0  0  0  0
  136.6430   77.3770  222.9720 C   0  0  0  0  0  0  0  0  0  0  0  0
  136.4230   78.7660  222.9410 C   0  0  0  0  0  0  0  0  0  0  0  0
  137.4820   79.6500  222.6340 C   0  0  0  0  0  0  0  0  0  0  0  0
  138.7670   79.1540  222.3570 C   0  0  0  0  0  0  0  0  0  0  0  0
  138.9560   77.7720  222.4000 C   0  0  0  0  0  0  0  0  0  0  0  0
  142.4436   75.1677  221.7450 H   0  0  0  0  0  0  0  0  0  0  0  0
  141.5070   73.9990  220.7466 H   0  0  0  0  0  0  0  0  0  0  0  0
  144.9321   75.5301  221.1359 H   0  0  0  0  0  0  0  0  0  0  0  0
  147.0190   74.2088  220.7911 H   0  0  0  0  0  0  0  0  0  0  0  0
  146.8901   71.8646  219.9387 H   0  0  0  0  0  0  0  0  0  0  0  0
  144.6725   70.8460  219.4134 H   0  0  0  0  0  0  0  0  0  0  0  0
  142.5814   72.1657  219.7422 H   0  0  0  0  0  0  0  0  0  0  0  0
  141.1242   78.4806  218.4172 H   0  0  0  0  0  0  0  0  0  0  0  0
  141.1322   80.6863  219.4210 H   0  0  0  0  0  0  0  0  0  0  0  0
  141.7250   82.1320  221.3699 H   0  0  0  0  0  0  0  0  0  0  0  0
  142.2625   82.4082  223.7893 H   0  0  0  0  0  0  0  0  0  0  0  0
  142.4479   80.4058  225.2677 H   0  0  0  0  0  0  0  0  0  0  0  0
  142.0874   78.1212  224.3309 H   0  0  0  0  0  0  0  0  0  0  0  0
  142.2099   76.7720  222.1724 H   0  0  0  0  0  0  0  0  0  0  0  0
  140.2945   74.7894  222.2119 H   0  0  0  0  0  0  0  0  0  0  0  0
  137.7640   74.7810  222.8320 H   0  0  0  0  0  0  0  0  0  0  0  0
  135.8264   76.6786  223.2075 H   0  0  0  0  0  0  0  0  0  0  0  0
  135.4214   79.1662  223.1568 H   0  0  0  0  0  0  0  0  0  0  0  0
  137.2989   80.7344  222.6118 H   0  0  0  0  0  0  0  0  0  0  0  0
  139.5974   79.8332  222.1140 H   0  0  0  0  0  0  0  0  0  0  0  0
  1  2  2  0
  2  3  2  0
  2  4  1  0
  4  5  1  0
  5  6  2  0
  6  7  1  0
  7  8  2  0
  8  9  1  0
  9 10  2  0
  2 11  1  0
 11 12  1  0
 12 13  2  0
 13 14  1  0
 14 15  2  0
 15 16  1  0
 16 17  2  0
 17 18  1  0
 18 19  2  0
 19 20  1  0
 20 21  1  0
 21 22  2  0
 22 23  1  0
 23 24  1  0
 24 25  2  0
 25 26  1  0
 26 27  2  0
 27 28  1  0
 28 29  2  0
 10  5  1  0
 20 11  1  0
 29 21  1  0
 19 14  1  0
 29 24  1  0
  4 30  1  0
  4 31  1  0
  6 32  1  0
  7 33  1  0
  8 34  1  0
  9 35  1  0
 10 36  1  0
 12 37  1  0
 13 38  1  0
 15 39  1  0
 16 40  1  0
 17 41  1  0
 18 42  1  0
 20 43  1  1
 22 44  1  0
 23 45  1  0
 25 46  1  0
 26 47  1  0
 27 48  1  0
 28 49  1  0
M  END
>  <UniqueID>  (15) 
9

>  <SMILES>  (15) 
O=S(=O)(Cc1ccccc1)N1C=Cc2ccccc2[C@H]1c1c[nH]c2ccccc12

>  <Energy>  (15) 
78.48791210739698

>  <Genealogy>  (15) 
O=S(=O)(Cc1ccccc1)N1C=Cc2ccccc2[C@H]1c1c[nH]c2ccccc12 (chirality)
O=S(=O)(Cc1ccccc1)N1C=Cc2ccccc2[C@H]1c1c[nH]c2ccccc12 (3D coordinates assigned)
O=S(=O)(Cc1ccccc1)N1C=Cc2ccccc2[C@H]1c1c[nH]c2ccccc12 (nonaromatic ring conformer: 78.48791210739698 kcal/mol)

>  <smiles>  (15) 
O=S(=O)(Cc1ccccc1)N1C=Cc2ccccc2C1c1c[nH]c2ccccc12

>  <score_type>  (15) 
oracle

>  <origin>  (15) 
autodockgpu

>  <m_score__min__energy>  (15) 
-8.3599999999999994

>  <m_primary>  (15) 
energy

>  <meeko>  (15) 
{"free_energy": -8.28, "intermolecular_energy": -9.47, "internal_energy": -1.59, "cluster_size": 2, "cluster_id": 2, "rank_in_cluster": 1}

>  <energy>  (15) 
-7.15

>  <cluster_rmsd>  (15) 
0.08

>  <rmsd>  (15) 
270.53

>  <cluster>  (15) 
4

$$$$
YCOHEPDJLXZVBZ-DEOSSOPVNA-N
     RDKit          3D

 49 53  0  0  0  0  0  0  0  0999 V2000
  139.5830   72.8570  222.7050 O   0  0  0  0  0  0  0  0  0  0  0  0
  140.2890   71.5330  222.6170 S   0  0  0  0  0  0  0  0  0  0  0  0
  141.3680   71.4920  223.6630 O   0  0  0  0  0  0  0  0  0  0  0  0
  141.0200   71.3460  220.9970 C   0  0  0  0  0  0  0  0  0  0  0  0
  142.2110   72.2530  220.8630 C   0  0  0  0  0  0  0  0  0  0  0  0
  143.5080   71.7140  220.8160 C   0  0  0  0  0  0  0  0  0  0  0  0
  144.6090   72.5470  220.5960 C   0  0  0  0  0  0  0  0  0  0  0  0
  144.4230   73.9200  220.4110 C   0  0  0  0  0  0  0  0  0  0  0  0
  143.1360   74.4630  220.4500 C   0  0  0  0  0  0  0  0  0  0  0  0
  142.0330   73.6340  220.6760 C   0  0  0  0  0  0  0  0  0  0  0  0
  139.1530   70.2470  222.8850 N   0  0  0  0  0  0  0  0  0  0  0  0
  139.0020   69.2260  221.8840 C   0  0  0  0  0  0  0  0  0  0  0  0
  137.8940   68.4880  221.8280 C   0  0  0  0  0  0  0  0  0  0  0  0
  136.7970   68.7180  222.7830 C   0  0  0  0  0  0  0  0  0  0  0  0
  135.5640   68.0740  222.6060 C   0  0  0  0  0  0  0  0  0  0  0  0
  134.5110   68.3190  223.4900 C   0  0  0  0  0  0  0  0  0  0  0  0
  134.6820   69.2060  224.5560 C   0  0  0  0  0  0  0  0  0  0  0  0
  135.9090   69.8480  224.7420 C   0  0  0  0  0  0  0  0  0  0  0  0
  136.9730   69.6130  223.8570 C   0  0  0  0  0  0  0  0  0  0  0  0
  138.3140   70.2720  224.0920 C   0  0  1  0  0  0  0  0  0  0  0  0
  139.0300   69.5810  225.2230 C   0  0  0  0  0  0  0  0  0  0  0  0
  138.9600   68.2290  225.5510 C   0  0  0  0  0  0  0  0  0  0  0  0
  139.6900   67.9720  226.6600 N   0  0  0  0  0  0  0  0  0  0  0  0
  140.2120   69.1500  227.0420 C   0  0  0  0  0  0  0  0  0  0  0  0
  141.0270   69.3920  228.1470 C   0  0  0  0  0  0  0  0  0  0  0  0
  141.4530   70.7130  228.3740 C   0  0  0  0  0  0  0  0  0  0  0  0
  141.0560   71.7510  227.5030 C   0  0  0  0  0  0  0  0  0  0  0  0
  140.2310   71.4790  226.3970 C   0  0  0  0  0  0  0  0  0  0  0  0
  139.8290   70.1580  226.1940 C   0  0  0  0  0  0  0  0  0  0  0  0
  141.3395   70.3024  220.8597 H   0  0  0  0  0  0  0  0  0  0  0  0
  140.2757   71.6118  220.2320 H   0  0  0  0  0  0  0  0  0  0  0  0
  143.6574   70.6328  220.9528 H   0  0  0  0  0  0  0  0  0  0  0  0
  145.6230   72.1214  220.5684 H   0  0  0  0  0  0  0  0  0  0  0  0
  145.2902   74.5734  220.2346 H   0  0  0  0  0  0  0  0  0  0  0  0
  142.9906   75.5434  220.3028 H   0  0  0  0  0  0  0  0  0  0  0  0
  141.0214   74.0650  220.7075 H   0  0  0  0  0  0  0  0  0  0  0  0
  139.8092   69.0524  221.1572 H   0  0  0  0  0  0  0  0  0  0  0  0
  137.7982   67.7024  221.0640 H   0  0  0  0  0  0  0  0  0  0  0  0
  135.4258   67.3741  221.7687 H   0  0  0  0  0  0  0  0  0  0  0  0
  133.5450   67.8127  223.3468 H   0  0  0  0  0  0  0  0  0  0  0  0
  133.8501   69.3990  225.2493 H   0  0  0  0  0  0  0  0  0  0  0  0
  136.0418   70.5409  225.5860 H   0  0  0  0  0  0  0  0  0  0  0  0
  138.1299   71.3247  224.3525 H   0  0  0  0  0  0  0  0  0  0  0  0
  138.3906   67.4757  224.9868 H   0  0  0  0  0  0  0  0  0  0  0  0
  139.8110   67.0470  227.1280 H   0  0  0  0  0  0  0  0  0  0  0  0
  141.3274   68.5755  228.8201 H   0  0  0  0  0  0  0  0  0  0  0  0
  142.0992   70.9388  229.2350 H   0  0  0  0  0  0  0  0  0  0  0  0
  141.3947   72.7805  227.6910 H   0  0  0  0  0  0  0  0  0  0  0  0
  139.9131   72.2809  225.7145 H   0  0  0  0  0  0  0  0  0  0  0  0
  1  2  2  0
  2  3  2  0
  2  4  1  0
  4  5  1  0
  5  6  2  0
  6  7  1  0
  7  8  2  0
  8  9  1  0
  9 10  2  0
  2 11  1  0
 11 12  1  0
 12 13  2  0
 13 14  1  0
 14 15  2  0
 15 16  1  0
 16 17  2  0
 17 18  1  0
 18 19  2  0
 19 20  1  0
 20 21  1  0
 21 22  2  0
 22 23  1  0
 23 24  1  0
 24 25  2  0
 25 26  1  0
 26 27  2  0
 27 28  1  0
 28 29  2  0
 10  5  1  0
 20 11  1  0
 29 21  1  0
 19 14  1  0
 29 24  1  0
  4 30  1  0
  4 31  1  0
  6 32  1  0
  7 33  1  0
  8 34  1  0
  9 35  1  0
 10 36  1  0
 12 37  1  0
 13 38  1  0
 15 39  1  0
 16 40  1  0
 17 41  1  0
 18 42  1  0
 20 43  1  1
 22 44  1  0
 23 45  1  0
 25 46  1  0
 26 47  1  0
 27 48  1  0
 28 49  1  0
M  END
>  <UniqueID>  (16) 
9

>  <SMILES>  (16) 
O=S(=O)(Cc1ccccc1)N1C=Cc2ccccc2[C@H]1c1c[nH]c2ccccc12

>  <Energy>  (16) 
78.48791210739698

>  <Genealogy>  (16) 
O=S(=O)(Cc1ccccc1)N1C=Cc2ccccc2[C@H]1c1c[nH]c2ccccc12 (chirality)
O=S(=O)(Cc1ccccc1)N1C=Cc2ccccc2[C@H]1c1c[nH]c2ccccc12 (3D coordinates assigned)
O=S(=O)(Cc1ccccc1)N1C=Cc2ccccc2[C@H]1c1c[nH]c2ccccc12 (nonaromatic ring conformer: 78.48791210739698 kcal/mol)

>  <smiles>  (16) 
O=S(=O)(Cc1ccccc1)N1C=Cc2ccccc2C1c1c[nH]c2ccccc12

>  <score_type>  (16) 
oracle

>  <origin>  (16) 
autodockgpu

>  <m_score__min__energy>  (16) 
-8.3599999999999994

>  <m_primary>  (16) 
energy

>  <meeko>  (16) 
{"free_energy": -8.31, "intermolecular_energy": -9.5, "internal_energy": -1.62, "cluster_size": 3, "cluster_id": 1, "rank_in_cluster": 3}

>  <energy>  (16) 
-7.14

>  <cluster_rmsd>  (16) 
0.02

>  <rmsd>  (16) 
270.57

>  <cluster>  (16) 
4

$$$$
YCOHEPDJLXZVBZ-DEOSSOPVNA-N
     RDKit          3D

 49 53  0  0  0  0  0  0  0  0999 V2000
  139.2060   75.9330  220.1730 O   0  0  0  0  0  0  0  0  0  0  0  0
  139.3480   76.2530  221.6350 S   0  0  0  0  0  0  0  0  0  0  0  0
  139.8320   75.0230  222.3520 O   0  0  0  0  0  0  0  0  0  0  0  0
  137.7660   76.7500  222.3000 C   0  0  0  0  0  0  0  0  0  0  0  0
  137.6910   78.2490  222.3800 C   0  0  0  0  0  0  0  0  0  0  0  0
  138.2360   78.9270  223.4840 C   0  0  0  0  0  0  0  0  0  0  0  0
  138.2520   80.3240  223.5140 C   0  0  0  0  0  0  0  0  0  0  0  0
  137.7330   81.0540  222.4410 C   0  0  0  0  0  0  0  0  0  0  0  0
  137.1940   80.3880  221.3370 C   0  0  0  0  0  0  0  0  0  0  0  0
  137.1720   78.9910  221.3050 C   0  0  0  0  0  0  0  0  0  0  0  0
  140.4890   77.5480  221.8410 N   0  0  0  0  0  0  0  0  0  0  0  0
  141.2640   77.6130  223.0500 C   0  0  0  0  0  0  0  0  0  0  0  0
  141.8130   78.7600  223.4440 C   0  0  0  0  0  0  0  0  0  0  0  0
  141.6210   79.9880  222.6540 C   0  0  0  0  0  0  0  0  0  0  0  0
  142.0370   81.2260  223.1640 C   0  0  0  0  0  0  0  0  0  0  0  0
  141.8230   82.3960  222.4310 C   0  0  0  0  0  0  0  0  0  0  0  0
  141.1930   82.3370  221.1850 C   0  0  0  0  0  0  0  0  0  0  0  0
  140.7790   81.1070  220.6670 C   0  0  0  0  0  0  0  0  0  0  0  0
  140.9850   79.9250  221.3970 C   0  0  0  0  0  0  0  0  0  0  0  0
  140.5810   78.5910  220.8100 C   0  0  1  0  0  0  0  0  0  0  0  0
  141.5720   78.1780  219.7540 C   0  0  0  0  0  0  0  0  0  0  0  0
  142.0060   78.9430  218.6740 C   0  0  0  0  0  0  0  0  0  0  0  0
  142.8560   78.2310  217.9000 N   0  0  0  0  0  0  0  0  0  0  0  0
  142.9570   77.0200  218.4750 C   0  0  0  0  0  0  0  0  0  0  0  0
  143.7100   75.9350  218.0300 C   0  0  0  0  0  0  0  0  0  0  0  0
  143.6590   74.7460  218.7790 C   0  0  0  0  0  0  0  0  0  0  0  0
  142.8610   74.6690  219.9420 C   0  0  0  0  0  0  0  0  0  0  0  0
  142.1090   75.7780  220.3670 C   0  0  0  0  0  0  0  0  0  0  0  0
  142.1840   76.9460  219.6060 C   0  0  0  0  0  0  0  0  0  0  0  0
  136.9630   76.3793  221.6459 H   0  0  0  0  0  0  0  0  0  0  0  0
  137.6494   76.3279  223.3091 H   0  0  0  0  0  0  0  0  0  0  0  0
  138.6514   78.3559  224.3274 H   0  0  0  0  0  0  0  0  0  0  0  0
  138.6736   80.8499  224.3833 H   0  0  0  0  0  0  0  0  0  0  0  0
  137.7488   82.1536  222.4656 H   0  0  0  0  0  0  0  0  0  0  0  0
  136.7868   80.9637  220.4927 H   0  0  0  0  0  0  0  0  0  0  0  0
  136.7466   78.4698  220.4347 H   0  0  0  0  0  0  0  0  0  0  0  0
  141.4049   76.7057  223.6558 H   0  0  0  0  0  0  0  0  0  0  0  0
  142.4136   78.7907  224.3651 H   0  0  0  0  0  0  0  0  0  0  0  0
  142.5334   81.2763  224.1443 H   0  0  0  0  0  0  0  0  0  0  0  0
  142.1509   83.3651  222.8353 H   0  0  0  0  0  0  0  0  0  0  0  0
  141.0228   83.2600  220.6113 H   0  0  0  0  0  0  0  0  0  0  0  0
  140.2895   81.0643  219.6829 H   0  0  0  0  0  0  0  0  0  0  0  0
  139.5838   78.7089  220.3609 H   0  0  0  0  0  0  0  0  0  0  0  0
  141.7000   79.9813  218.4781 H   0  0  0  0  0  0  0  0  0  0  0  0
  143.3280   78.5550  217.0280 H   0  0  0  0  0  0  0  0  0  0  0  0
  144.3252   76.0065  217.1209 H   0  0  0  0  0  0  0  0  0  0  0  0
  144.2435   73.8714  218.4576 H   0  0  0  0  0  0  0  0  0  0  0  0
  142.8277   73.7336  220.5198 H   0  0  0  0  0  0  0  0  0  0  0  0
  141.4821   75.7272  221.2695 H   0  0  0  0  0  0  0  0  0  0  0  0
  1  2  2  0
  2  3  2  0
  2  4  1  0
  4  5  1  0
  5  6  2  0
  6  7  1  0
  7  8  2  0
  8  9  1  0
  9 10  2  0
  2 11  1  0
 11 12  1  0
 12 13  2  0
 13 14  1  0
 14 15  2  0
 15 16  1  0
 16 17  2  0
 17 18  1  0
 18 19  2  0
 19 20  1  0
 20 21  1  0
 21 22  2  0
 22 23  1  0
 23 24  1  0
 24 25  2  0
 25 26  1  0
 26 27  2  0
 27 28  1  0
 28 29  2  0
 10  5  1  0
 20 11  1  0
 29 21  1  0
 19 14  1  0
 29 24  1  0
  4 30  1  0
  4 31  1  0
  6 32  1  0
  7 33  1  0
  8 34  1  0
  9 35  1  0
 10 36  1  0
 12 37  1  0
 13 38  1  0
 15 39  1  0
 16 40  1  0
 17 41  1  0
 18 42  1  0
 20 43  1  6
 22 44  1  0
 23 45  1  0
 25 46  1  0
 26 47  1  0
 27 48  1  0
 28 49  1  0
M  END
>  <UniqueID>  (17) 
9

>  <SMILES>  (17) 
O=S(=O)(Cc1ccccc1)N1C=Cc2ccccc2[C@H]1c1c[nH]c2ccccc12

>  <Energy>  (17) 
78.48791210739698

>  <Genealogy>  (17) 
O=S(=O)(Cc1ccccc1)N1C=Cc2ccccc2[C@H]1c1c[nH]c2ccccc12 (chirality)
O=S(=O)(Cc1ccccc1)N1C=Cc2ccccc2[C@H]1c1c[nH]c2ccccc12 (3D coordinates assigned)
O=S(=O)(Cc1ccccc1)N1C=Cc2ccccc2[C@H]1c1c[nH]c2ccccc12 (nonaromatic ring conformer: 78.48791210739698 kcal/mol)

>  <smiles>  (17) 
O=S(=O)(Cc1ccccc1)N1C=Cc2ccccc2C1c1c[nH]c2ccccc12

>  <score_type>  (17) 
oracle

>  <origin>  (17) 
autodockgpu

>  <m_score__min__energy>  (17) 
-8.3599999999999994

>  <m_primary>  (17) 
energy

>  <meeko>  (17) 
{"free_energy": -7.12, "intermolecular_energy": -8.31, "internal_energy": -2.62, "cluster_size": 8, "cluster_id": 4, "rank_in_cluster": 7}

>  <energy>  (17) 
-7.14

>  <cluster_rmsd>  (17) 
0.03

>  <rmsd>  (17) 
270.57

>  <cluster>  (17) 
4

$$$$
YCOHEPDJLXZVBZ-DEOSSOPVNA-N
     RDKit          3D

 49 53  0  0  0  0  0  0  0  0999 V2000
  139.2030   75.9630  220.1600 O   0  0  0  0  0  0  0  0  0  0  0  0
  139.3170   76.2730  221.6270 S   0  0  0  0  0  0  0  0  0  0  0  0
  139.7750   75.0350  222.3460 O   0  0  0  0  0  0  0  0  0  0  0  0
  137.7250   76.7790  222.2600 C   0  0  0  0  0  0  0  0  0  0  0  0
  137.6590   78.2780  222.3470 C   0  0  0  0  0  0  0  0  0  0  0  0
  138.1870   78.9450  223.4650 C   0  0  0  0  0  0  0  0  0  0  0  0
  138.2130   80.3420  223.5040 C   0  0  0  0  0  0  0  0  0  0  0  0
  137.7220   81.0820  222.4250 C   0  0  0  0  0  0  0  0  0  0  0  0
  137.2010   80.4260  221.3060 C   0  0  0  0  0  0  0  0  0  0  0  0
  137.1690   79.0300  221.2660 C   0  0  0  0  0  0  0  0  0  0  0  0
  140.4630   77.5570  221.8640 N   0  0  0  0  0  0  0  0  0  0  0  0
  141.2320   77.5930  223.0780 C   0  0  0  0  0  0  0  0  0  0  0  0
  141.7860   78.7290  223.4980 C   0  0  0  0  0  0  0  0  0  0  0  0
  141.6030   79.9740  222.7330 C   0  0  0  0  0  0  0  0  0  0  0  0
  142.0240   81.1990  223.2710 C   0  0  0  0  0  0  0  0  0  0  0  0
  141.8180   82.3850  222.5630 C   0  0  0  0  0  0  0  0  0  0  0  0
  141.1940   82.3550  221.3130 C   0  0  0  0  0  0  0  0  0  0  0  0
  140.7760   81.1390  220.7670 C   0  0  0  0  0  0  0  0  0  0  0  0
  140.9730   79.9410  221.4730 C   0  0  0  0  0  0  0  0  0  0  0  0
  140.5650   78.6220  220.8560 C   0  0  1  0  0  0  0  0  0  0  0  0
  141.5580   78.2260  219.7960 C   0  0  0  0  0  0  0  0  0  0  0  0
  141.9950   79.0080  218.7300 C   0  0  0  0  0  0  0  0  0  0  0  0
  142.8470   78.3090  217.9460 N   0  0  0  0  0  0  0  0  0  0  0  0
  142.9460   77.0890  218.5020 C   0  0  0  0  0  0  0  0  0  0  0  0
  143.7000   76.0120  218.0410 C   0  0  0  0  0  0  0  0  0  0  0  0
  143.6480   74.8110  218.7700 C   0  0  0  0  0  0  0  0  0  0  0  0
  142.8470   74.7140  219.9300 C   0  0  0  0  0  0  0  0  0  0  0  0
  142.0940   75.8160  220.3710 C   0  0  0  0  0  0  0  0  0  0  0  0
  142.1700   76.9970  219.6300 C   0  0  0  0  0  0  0  0  0  0  0  0
  136.9338   76.4181  221.5865 H   0  0  0  0  0  0  0  0  0  0  0  0
  137.5836   76.3526  223.2641 H   0  0  0  0  0  0  0  0  0  0  0  0
  138.5814   78.3657  224.3129 H   0  0  0  0  0  0  0  0  0  0  0  0
  138.6204   80.8595  224.3850 H   0  0  0  0  0  0  0  0  0  0  0  0
  137.7455   82.1813  222.4563 H   0  0  0  0  0  0  0  0  0  0  0  0
  136.8160   81.0093  220.4565 H   0  0  0  0  0  0  0  0  0  0  0  0
  136.7582   78.5170  220.3839 H   0  0  0  0  0  0  0  0  0  0  0  0
  141.3642   76.6729  223.6661 H   0  0  0  0  0  0  0  0  0  0  0  0
  142.3836   78.7373  224.4215 H   0  0  0  0  0  0  0  0  0  0  0  0
  142.5179   81.2256  224.2535 H   0  0  0  0  0  0  0  0  0  0  0  0
  142.1473   83.3439  222.9898 H   0  0  0  0  0  0  0  0  0  0  0  0
  141.0316   83.2907  220.7579 H   0  0  0  0  0  0  0  0  0  0  0  0
  140.2906   81.1197  219.7801 H   0  0  0  0  0  0  0  0  0  0  0  0
  139.5704   78.7554  220.4054 H   0  0  0  0  0  0  0  0  0  0  0  0
  141.6897   80.0494  218.5505 H   0  0  0  0  0  0  0  0  0  0  0  0
  143.3200   78.6480  217.0800 H   0  0  0  0  0  0  0  0  0  0  0  0
  144.3170   76.0987  217.1345 H   0  0  0  0  0  0  0  0  0  0  0  0
  144.2340   73.9422  218.4356 H   0  0  0  0  0  0  0  0  0  0  0  0
  142.8124   73.7691  220.4921 H   0  0  0  0  0  0  0  0  0  0  0  0
  141.4650   75.7501  221.2710 H   0  0  0  0  0  0  0  0  0  0  0  0
  1  2  2  0
  2  3  2  0
  2  4  1  0
  4  5  1  0
  5  6  2  0
  6  7  1  0
  7  8  2  0
  8  9  1  0
  9 10  2  0
  2 11  1  0
 11 12  1  0
 12 13  2  0
 13 14  1  0
 14 15  2  0
 15 16  1  0
 16 17  2  0
 17 18  1  0
 18 19  2  0
 19 20  1  0
 20 21  1  0
 21 22  2  0
 22 23  1  0
 23 24  1  0
 24 25  2  0
 25 26  1  0
 26 27  2  0
 27 28  1  0
 28 29  2  0
 10  5  1  0
 20 11  1  0
 29 21  1  0
 19 14  1  0
 29 24  1  0
  4 30  1  0
  4 31  1  0
  6 32  1  0
  7 33  1  0
  8 34  1  0
  9 35  1  0
 10 36  1  0
 12 37  1  0
 13 38  1  0
 15 39  1  0
 16 40  1  0
 17 41  1  0
 18 42  1  0
 20 43  1  6
 22 44  1  0
 23 45  1  0
 25 46  1  0
 26 47  1  0
 27 48  1  0
 28 49  1  0
M  END
>  <UniqueID>  (18) 
9

>  <SMILES>  (18) 
O=S(=O)(Cc1ccccc1)N1C=Cc2ccccc2[C@H]1c1c[nH]c2ccccc12

>  <Energy>  (18) 
78.48791210739698

>  <Genealogy>  (18) 
O=S(=O)(Cc1ccccc1)N1C=Cc2ccccc2[C@H]1c1c[nH]c2ccccc12 (chirality)
O=S(=O)(Cc1ccccc1)N1C=Cc2ccccc2[C@H]1c1c[nH]c2ccccc12 (3D coordinates assigned)
O=S(=O)(Cc1ccccc1)N1C=Cc2ccccc2[C@H]1c1c[nH]c2ccccc12 (nonaromatic ring conformer: 78.48791210739698 kcal/mol)

>  <smiles>  (18) 
O=S(=O)(Cc1ccccc1)N1C=Cc2ccccc2C1c1c[nH]c2ccccc12

>  <score_type>  (18) 
oracle

>  <origin>  (18) 
autodockgpu

>  <m_score__min__energy>  (18) 
-8.3599999999999994

>  <m_primary>  (18) 
energy

>  <meeko>  (18) 
{"free_energy": -7.16, "intermolecular_energy": -8.35, "internal_energy": -2.61, "cluster_size": 8, "cluster_id": 4, "rank_in_cluster": 1}

>  <energy>  (18) 
-7.13

>  <cluster_rmsd>  (18) 
0.02

>  <rmsd>  (18) 
270.56

>  <cluster>  (18) 
4

$$$$
YCOHEPDJLXZVBZ-DEOSSOPVNA-N
     RDKit          3D

 49 53  0  0  0  0  0  0  0  0999 V2000
  143.6770   80.1380  222.7710 O   0  0  0  0  0  0  0  0  0  0  0  0
  142.2960   80.5750  223.1720 S   0  0  0  0  0  0  0  0  0  0  0  0
  142.4150   81.6480  224.2170 O   0  0  0  0  0  0  0  0  0  0  0  0
  141.3960   79.1840  223.8420 C   0  0  0  0  0  0  0  0  0  0  0  0
  139.9260   79.3460  223.5750 C   0  0  0  0  0  0  0  0  0  0  0  0
  139.1940   78.2980  222.9910 C   0  0  0  0  0  0  0  0  0  0  0  0
  137.8100   78.4110  222.8300 C   0  0  0  0  0  0  0  0  0  0  0  0
  137.1460   79.5640  223.2570 C   0  0  0  0  0  0  0  0  0  0  0  0
  137.8660   80.6090  223.8430 C   0  0  0  0  0  0  0  0  0  0  0  0
  139.2500   80.5020  224.0020 C   0  0  0  0  0  0  0  0  0  0  0  0
  141.4510   81.1880  221.7830 N   0  0  0  0  0  0  0  0  0  0  0  0
  141.4540   82.6030  221.5300 C   0  0  0  0  0  0  0  0  0  0  0  0
  140.5130   83.1580  220.7680 C   0  0  0  0  0  0  0  0  0  0  0  0
  139.4430   82.3320  220.1850 C   0  0  0  0  0  0  0  0  0  0  0  0
  138.3540   82.9410  219.5440 C   0  0  0  0  0  0  0  0  0  0  0  0
  137.3210   82.1600  219.0220 C   0  0  0  0  0  0  0  0  0  0  0  0
  137.3680   80.7680  219.1350 C   0  0  0  0  0  0  0  0  0  0  0  0
  138.4510   80.1530  219.7680 C   0  0  0  0  0  0  0  0  0  0  0  0
  139.4940   80.9290  220.3010 C   0  0  0  0  0  0  0  0  0  0  0  0
  140.6880   80.2560  220.9400 C   0  0  1  0  0  0  0  0  0  0  0  0
  141.5840   79.6860  219.8720 C   0  0  0  0  0  0  0  0  0  0  0  0
  142.1360   80.3720  218.7930 C   0  0  0  0  0  0  0  0  0  0  0  0
  142.8430   79.5300  218.0070 N   0  0  0  0  0  0  0  0  0  0  0  0
  142.7360   78.3160  218.5720 C   0  0  0  0  0  0  0  0  0  0  0  0
  143.2850   77.1200  218.1120 C   0  0  0  0  0  0  0  0  0  0  0  0
  143.0340   75.9520  218.8540 C   0  0  0  0  0  0  0  0  0  0  0  0
  142.2440   76.0040  220.0230 C   0  0  0  0  0  0  0  0  0  0  0  0
  141.7000   77.2240  220.4630 C   0  0  0  0  0  0  0  0  0  0  0  0
  141.9710   78.3670  219.7100 C   0  0  0  0  0  0  0  0  0  0  0  0
  141.7523   78.2573  223.3683 H   0  0  0  0  0  0  0  0  0  0  0  0
  141.5625   79.1357  224.9283 H   0  0  0  0  0  0  0  0  0  0  0  0
  139.7118   77.3859  222.6595 H   0  0  0  0  0  0  0  0  0  0  0  0
  137.2425   77.5907  222.3663 H   0  0  0  0  0  0  0  0  0  0  0  0
  136.0565   79.6493  223.1320 H   0  0  0  0  0  0  0  0  0  0  0  0
  137.3426   81.5162  224.1792 H   0  0  0  0  0  0  0  0  0  0  0  0
  139.8133   81.3264  224.4636 H   0  0  0  0  0  0  0  0  0  0  0  0
  142.2408   83.2334  221.9698 H   0  0  0  0  0  0  0  0  0  0  0  0
  140.5356   84.2404  220.5731 H   0  0  0  0  0  0  0  0  0  0  0  0
  138.3138   84.0364  219.4524 H   0  0  0  0  0  0  0  0  0  0  0  0
  136.4684   82.6415  218.5208 H   0  0  0  0  0  0  0  0  0  0  0  0
  136.5513   80.1557  218.7250 H   0  0  0  0  0  0  0  0  0  0  0  0
  138.4873   79.0566  219.8495 H   0  0  0  0  0  0  0  0  0  0  0  0
  140.3135   79.4472  221.5846 H   0  0  0  0  0  0  0  0  0  0  0  0
  142.0136   81.4491  218.6065 H   0  0  0  0  0  0  0  0  0  0  0  0
  143.3570   79.7750  217.1320 H   0  0  0  0  0  0  0  0  0  0  0  0
  143.8954   77.0908  217.1974 H   0  0  0  0  0  0  0  0  0  0  0  0
  143.4558   74.9920  218.5216 H   0  0  0  0  0  0  0  0  0  0  0  0
  142.0526   75.0834  220.5939 H   0  0  0  0  0  0  0  0  0  0  0  0
  141.0812   77.2754  221.3710 H   0  0  0  0  0  0  0  0  0  0  0  0
  1  2  2  0
  2  3  2  0
  2  4  1  0
  4  5  1  0
  5  6  2  0
  6  7  1  0
  7  8  2  0
  8  9  1  0
  9 10  2  0
  2 11  1  0
 11 12  1  0
 12 13  2  0
 13 14  1  0
 14 15  2  0
 15 16  1  0
 16 17  2  0
 17 18  1  0
 18 19  2  0
 19 20  1  0
 20 21  1  0
 21 22  2  0
 22 23  1  0
 23 24  1  0
 24 25  2  0
 25 26  1  0
 26 27  2  0
 27 28  1  0
 28 29  2  0
 10  5  1  0
 20 11  1  0
 29 21  1  0
 19 14  1  0
 29 24  1  0
  4 30  1  0
  4 31  1  0
  6 32  1  0
  7 33  1  0
  8 34  1  0
  9 35  1  0
 10 36  1  0
 12 37  1  0
 13 38  1  0
 15 39  1  0
 16 40  1  0
 17 41  1  0
 18 42  1  0
 20 43  1  1
 22 44  1  0
 23 45  1  0
 25 46  1  0
 26 47  1  0
 27 48  1  0
 28 49  1  0
M  END
>  <UniqueID>  (19) 
9

>  <SMILES>  (19) 
O=S(=O)(Cc1ccccc1)N1C=Cc2ccccc2[C@H]1c1c[nH]c2ccccc12

>  <Energy>  (19) 
78.48791210739698

>  <Genealogy>  (19) 
O=S(=O)(Cc1ccccc1)N1C=Cc2ccccc2[C@H]1c1c[nH]c2ccccc12 (chirality)
O=S(=O)(Cc1ccccc1)N1C=Cc2ccccc2[C@H]1c1c[nH]c2ccccc12 (3D coordinates assigned)
O=S(=O)(Cc1ccccc1)N1C=Cc2ccccc2[C@H]1c1c[nH]c2ccccc12 (nonaromatic ring conformer: 78.48791210739698 kcal/mol)

>  <smiles>  (19) 
O=S(=O)(Cc1ccccc1)N1C=Cc2ccccc2C1c1c[nH]c2ccccc12

>  <score_type>  (19) 
oracle

>  <origin>  (19) 
autodockgpu

>  <m_score__min__energy>  (19) 
-8.3599999999999994

>  <m_primary>  (19) 
energy

>  <meeko>  (19) 
{"free_energy": -7.16, "intermolecular_energy": -8.36, "internal_energy": -2.56, "cluster_size": 7, "cluster_id": 3, "rank_in_cluster": 3}

>  <energy>  (19) 
-7.12

>  <cluster_rmsd>  (19) 
0.07

>  <rmsd>  (19) 
270.54

>  <cluster>  (19) 
4

$$$$
YCOHEPDJLXZVBZ-DEOSSOPVNA-N
     RDKit          3D

 49 53  0  0  0  0  0  0  0  0999 V2000
  139.5680   72.8480  222.7140 O   0  0  0  0  0  0  0  0  0  0  0  0
  140.2820   71.5260  222.6540 S   0  0  0  0  0  0  0  0  0  0  0  0
  141.3360   71.5000  223.7250 O   0  0  0  0  0  0  0  0  0  0  0  0
  141.0510   71.3290  221.0540 C   0  0  0  0  0  0  0  0  0  0  0  0
  142.2070   72.2800  220.9190 C   0  0  0  0  0  0  0  0  0  0  0  0
  143.5220   71.7890  220.8530 C   0  0  0  0  0  0  0  0  0  0  0  0
  144.5900   72.6640  220.6310 C   0  0  0  0  0  0  0  0  0  0  0  0
  144.3520   74.0310  220.4640 C   0  0  0  0  0  0  0  0  0  0  0  0
  143.0470   74.5270  220.5230 C   0  0  0  0  0  0  0  0  0  0  0  0
  141.9770   73.6560  220.7490 C   0  0  0  0  0  0  0  0  0  0  0  0
  139.1450   70.2360  222.9060 N   0  0  0  0  0  0  0  0  0  0  0  0
  139.0080   69.2180  221.9010 C   0  0  0  0  0  0  0  0  0  0  0  0
  137.9030   68.4770  221.8320 C   0  0  0  0  0  0  0  0  0  0  0  0
  136.7950   68.7020  222.7750 C   0  0  0  0  0  0  0  0  0  0  0  0
  135.5650   68.0560  222.5830 C   0  0  0  0  0  0  0  0  0  0  0  0
  134.5010   68.2960  223.4560 C   0  0  0  0  0  0  0  0  0  0  0  0
  134.6590   69.1810  224.5250 C   0  0  0  0  0  0  0  0  0  0  0  0
  135.8820   69.8260  224.7270 C   0  0  0  0  0  0  0  0  0  0  0  0
  136.9570   69.5960  223.8530 C   0  0  0  0  0  0  0  0  0  0  0  0
  138.2940   70.2570  224.1050 C   0  0  1  0  0  0  0  0  0  0  0  0
  138.9980   69.5650  225.2420 C   0  0  0  0  0  0  0  0  0  0  0  0
  138.9150   68.2160  225.5760 C   0  0  0  0  0  0  0  0  0  0  0  0
  139.6380   67.9570  226.6890 N   0  0  0  0  0  0  0  0  0  0  0  0
  140.1700   69.1320  227.0670 C   0  0  0  0  0  0  0  0  0  0  0  0
  140.9820   69.3720  228.1740 C   0  0  0  0  0  0  0  0  0  0  0  0
  141.4190   70.6900  228.3970 C   0  0  0  0  0  0  0  0  0  0  0  0
  141.0350   71.7280  227.5190 C   0  0  0  0  0  0  0  0  0  0  0  0
  140.2130   71.4580  226.4110 C   0  0  0  0  0  0  0  0  0  0  0  0
  139.7990   70.1390  226.2130 C   0  0  0  0  0  0  0  0  0  0  0  0
  141.4147   70.2962  220.9493 H   0  0  0  0  0  0  0  0  0  0  0  0
  140.3117   71.5454  220.2688 H   0  0  0  0  0  0  0  0  0  0  0  0
  143.7119   70.7126  220.9764 H   0  0  0  0  0  0  0  0  0  0  0  0
  145.6184   72.2760  220.5878 H   0  0  0  0  0  0  0  0  0  0  0  0
  145.1930   74.7173  220.2859 H   0  0  0  0  0  0  0  0  0  0  0  0
  142.8615   75.6032  220.3916 H   0  0  0  0  0  0  0  0  0  0  0  0
  140.9507   74.0494  220.7939 H   0  0  0  0  0  0  0  0  0  0  0  0
  139.8231   69.0490  221.1820 H   0  0  0  0  0  0  0  0  0  0  0  0
  137.8180   67.6923  221.0658 H   0  0  0  0  0  0  0  0  0  0  0  0
  135.4377   67.3581  221.7423 H   0  0  0  0  0  0  0  0  0  0  0  0
  133.5379   67.7875  223.3013 H   0  0  0  0  0  0  0  0  0  0  0  0
  133.8189   69.3706  225.2093 H   0  0  0  0  0  0  0  0  0  0  0  0
  136.0033   70.5169  225.5743 H   0  0  0  0  0  0  0  0  0  0  0  0
  138.1065   71.3088  224.3670 H   0  0  0  0  0  0  0  0  0  0  0  0
  138.3411   67.4653  225.0129 H   0  0  0  0  0  0  0  0  0  0  0  0
  139.7480   67.0340  227.1620 H   0  0  0  0  0  0  0  0  0  0  0  0
  141.2720   68.5559  228.8522 H   0  0  0  0  0  0  0  0  0  0  0  0
  142.0634   70.9139  229.2599 H   0  0  0  0  0  0  0  0  0  0  0  0
  141.3819   72.7554  227.7038 H   0  0  0  0  0  0  0  0  0  0  0  0
  139.9060   72.2592  225.7227 H   0  0  0  0  0  0  0  0  0  0  0  0
  1  2  2  0
  2  3  2  0
  2  4  1  0
  4  5  1  0
  5  6  2  0
  6  7  1  0
  7  8  2  0
  8  9  1  0
  9 10  2  0
  2 11  1  0
 11 12  1  0
 12 13  2  0
 13 14  1  0
 14 15  2  0
 15 16  1  0
 16 17  2  0
 17 18  1  0
 18 19  2  0
 19 20  1  0
 20 21  1  0
 21 22  2  0
 22 23  1  0
 23 24  1  0
 24 25  2  0
 25 26  1  0
 26 27  2  0
 27 28  1  0
 28 29  2  0
 10  5  1  0
 20 11  1  0
 29 21  1  0
 19 14  1  0
 29 24  1  0
  4 30  1  0
  4 31  1  0
  6 32  1  0
  7 33  1  0
  8 34  1  0
  9 35  1  0
 10 36  1  0
 12 37  1  0
 13 38  1  0
 15 39  1  0
 16 40  1  0
 17 41  1  0
 18 42  1  0
 20 43  1  1
 22 44  1  0
 23 45  1  0
 25 46  1  0
 26 47  1  0
 27 48  1  0
 28 49  1  0
M  END
>  <UniqueID>  (20) 
9

>  <SMILES>  (20) 
O=S(=O)(Cc1ccccc1)N1C=Cc2ccccc2[C@H]1c1c[nH]c2ccccc12

>  <Energy>  (20) 
78.48791210739698

>  <Genealogy>  (20) 
O=S(=O)(Cc1ccccc1)N1C=Cc2ccccc2[C@H]1c1c[nH]c2ccccc12 (chirality)
O=S(=O)(Cc1ccccc1)N1C=Cc2ccccc2[C@H]1c1c[nH]c2ccccc12 (3D coordinates assigned)
O=S(=O)(Cc1ccccc1)N1C=Cc2ccccc2[C@H]1c1c[nH]c2ccccc12 (nonaromatic ring conformer: 78.48791210739698 kcal/mol)

>  <smiles>  (20) 
O=S(=O)(Cc1ccccc1)N1C=Cc2ccccc2C1c1c[nH]c2ccccc12

>  <score_type>  (20) 
oracle

>  <origin>  (20) 
autodockgpu

>  <m_score__min__energy>  (20) 
-8.3599999999999994

>  <m_primary>  (20) 
energy

>  <meeko>  (20) 
{"free_energy": -8.34, "intermolecular_energy": -9.53, "internal_energy": -1.61, "cluster_size": 3, "cluster_id": 1, "rank_in_cluster": 2}

>  <energy>  (20) 
-7.09

>  <cluster_rmsd>  (20) 
0.15

>  <rmsd>  (20) 
270.53

>  <cluster>  (20) 
4

$$$$
YCOHEPDJLXZVBZ-XMMPIXPANA-N
     RDKit          3D

 49 53  0  0  0  0  0  0  0  0999 V2000
  134.7540   68.1420  224.3040 O   0  0  0  0  0  0  0  0  0  0  0  0
  135.4660   69.4610  224.4220 S   0  0  0  0  0  0  0  0  0  0  0  0
  135.5880   69.8140  225.8780 O   0  0  0  0  0  0  0  0  0  0  0  0
  134.5320   70.7230  223.5730 C   0  0  0  0  0  0  0  0  0  0  0  0
  135.4380   71.5100  222.6660 C   0  0  0  0  0  0  0  0  0  0  0  0
  136.1390   72.6250  223.1570 C   0  0  0  0  0  0  0  0  0  0  0  0
  137.0560   73.2950  222.3440 C   0  0  0  0  0  0  0  0  0  0  0  0
  137.2800   72.8590  221.0350 C   0  0  0  0  0  0  0  0  0  0  0  0
  136.5890   71.7510  220.5400 C   0  0  0  0  0  0  0  0  0  0  0  0
  135.6730   71.0740  221.3520 C   0  0  0  0  0  0  0  0  0  0  0  0
  137.0490   69.3440  223.7150 N   0  0  0  0  0  0  0  0  0  0  0  0
  137.2560   68.4610  222.6000 C   0  0  0  0  0  0  0  0  0  0  0  0
  138.2860   68.6370  221.7750 C   0  0  0  0  0  0  0  0  0  0  0  0
  139.2230   69.7550  221.9820 C   0  0  0  0  0  0  0  0  0  0  0  0
  140.1900   70.0500  221.0110 C   0  0  0  0  0  0  0  0  0  0  0  0
  141.0570   71.1320  221.1890 C   0  0  0  0  0  0  0  0  0  0  0  0
  140.9630   71.9220  222.3370 C   0  0  0  0  0  0  0  0  0  0  0  0
  140.0050   71.6330  223.3110 C   0  0  0  0  0  0  0  0  0  0  0  0
  139.1260   70.5510  223.1410 C   0  0  0  0  0  0  0  0  0  0  0  0
  138.1250   70.2100  224.2230 C   0  0  2  0  0  0  0  0  0  0  0  0
  138.8240   69.5310  225.3700 C   0  0  0  0  0  0  0  0  0  0  0  0
  138.8020   68.1710  225.6720 C   0  0  0  0  0  0  0  0  0  0  0  0
  139.5890   67.9110  226.7410 N   0  0  0  0  0  0  0  0  0  0  0  0
  140.1160   69.0910  227.1100 C   0  0  0  0  0  0  0  0  0  0  0  0
  141.0040   69.3250  228.1590 C   0  0  0  0  0  0  0  0  0  0  0  0
  141.4470   70.6440  228.3630 C   0  0  0  0  0  0  0  0  0  0  0  0
  140.9990   71.6880  227.5230 C   0  0  0  0  0  0  0  0  0  0  0  0
  140.1040   71.4220  226.4710 C   0  0  0  0  0  0  0  0  0  0  0  0
  139.6770   70.1030  226.2950 C   0  0  0  0  0  0  0  0  0  0  0  0
  133.7395   70.2495  222.9749 H   0  0  0  0  0  0  0  0  0  0  0  0
  134.0845   71.4016  224.3142 H   0  0  0  0  0  0  0  0  0  0  0  0
  135.9646   72.9715  224.1863 H   0  0  0  0  0  0  0  0  0  0  0  0
  137.6023   74.1664  222.7341 H   0  0  0  0  0  0  0  0  0  0  0  0
  138.0007   73.3887  220.3947 H   0  0  0  0  0  0  0  0  0  0  0  0
  136.7654   71.4098  219.5092 H   0  0  0  0  0  0  0  0  0  0  0  0
  135.1354   70.1979  220.9603 H   0  0  0  0  0  0  0  0  0  0  0  0
  136.5557   67.6307  222.4264 H   0  0  0  0  0  0  0  0  0  0  0  0
  138.4382   67.9441  220.9344 H   0  0  0  0  0  0  0  0  0  0  0  0
  140.2668   69.4285  220.1067 H   0  0  0  0  0  0  0  0  0  0  0  0
  141.8138   71.3614  220.4244 H   0  0  0  0  0  0  0  0  0  0  0  0
  141.6453   72.7739  222.4742 H   0  0  0  0  0  0  0  0  0  0  0  0
  139.9386   72.2556  224.2154 H   0  0  0  0  0  0  0  0  0  0  0  0
  137.6691   71.1500  224.5674 H   0  0  0  0  0  0  0  0  0  0  0  0
  138.2256   67.4149  225.1188 H   0  0  0  0  0  0  0  0  0  0  0  0
  139.7590   66.9780  227.1790 H   0  0  0  0  0  0  0  0  0  0  0  0
  141.3470   68.5044  228.8062 H   0  0  0  0  0  0  0  0  0  0  0  0
  142.1472   70.8644  229.1822 H   0  0  0  0  0  0  0  0  0  0  0  0
  141.3525   72.7157  227.6929 H   0  0  0  0  0  0  0  0  0  0  0  0
  139.7516   72.2261  225.8083 H   0  0  0  0  0  0  0  0  0  0  0  0
  1  2  2  0
  2  3  2  0
  2  4  1  0
  4  5  1  0
  5  6  2  0
  6  7  1  0
  7  8  2  0
  8  9  1  0
  9 10  2  0
  2 11  1  0
 11 12  1  0
 12 13  2  0
 13 14  1  0
 14 15  2  0
 15 16  1  0
 16 17  2  0
 17 18  1  0
 18 19  2  0
 19 20  1  0
 20 21  1  0
 21 22  2  0
 22 23  1  0
 23 24  1  0
 24 25  2  0
 25 26  1  0
 26 27  2  0
 27 28  1  0
 28 29  2  0
 10  5  1  0
 20 11  1  0
 29 21  1  0
 19 14  1  0
 29 24  1  0
  4 30  1  0
  4 31  1  0
  6 32  1  0
  7 33  1  0
  8 34  1  0
  9 35  1  0
 10 36  1  0
 12 37  1  0
 13 38  1  0
 15 39  1  0
 16 40  1  0
 17 41  1  0
 18 42  1  0
 20 43  1  1
 22 44  1  0
 23 45  1  0
 25 46  1  0
 26 47  1  0
 27 48  1  0
 28 49  1  0
M  END
>  <UniqueID>  (21) 
10

>  <SMILES>  (21) 
O=S(=O)(Cc1ccccc1)N1C=Cc2ccccc2[C@@H]1c1c[nH]c2ccccc12

>  <Energy>  (21) 
80.55466081329438

>  <Genealogy>  (21) 
O=S(=O)(Cc1ccccc1)N1C=Cc2ccccc2[C@@H]1c1c[nH]c2ccccc12 (chirality)
O=S(=O)(Cc1ccccc1)N1C=Cc2ccccc2[C@@H]1c1c[nH]c2ccccc12 (3D coordinates assigned)
O=S(=O)(Cc1ccccc1)N1C=Cc2ccccc2[C@@H]1c1c[nH]c2ccccc12 (nonaromatic ring conformer: 80.55466081329438 kcal/mol)

>  <smiles>  (21) 
O=S(=O)(Cc1ccccc1)N1C=Cc2ccccc2C1c1c[nH]c2ccccc12

>  <score_type>  (21) 
oracle

>  <origin>  (21) 
autodockgpu

>  <m_score__min__energy>  (21) 
-8.5399999999999991

>  <m_primary>  (21) 
energy

>  <meeko>  (21) 
{"free_energy": -7.3, "intermolecular_energy": -8.5, "internal_energy": -2.76, "cluster_size": 2, "cluster_id": 2, "rank_in_cluster": 2}

>  <energy>  (21) 
-8.54

>  <cluster_rmsd>  (21) 
0.0

>  <rmsd>  (21) 
270.94

>  <cluster>  (21) 
1

$$$$
YCOHEPDJLXZVBZ-XMMPIXPANA-N
     RDKit          3D

 49 53  0  0  0  0  0  0  0  0999 V2000
  140.5610   74.9900  221.9820 O   0  0  0  0  0  0  0  0  0  0  0  0
  140.2890   75.8800  220.8020 S   0  0  0  0  0  0  0  0  0  0  0  0
  138.8830   75.6350  220.3280 O   0  0  0  0  0  0  0  0  0  0  0  0
  141.4400   75.5030  219.4900 C   0  0  0  0  0  0  0  0  0  0  0  0
  142.5980   74.7120  220.0350 C   0  0  0  0  0  0  0  0  0  0  0  0
  142.4290   73.3640  220.3960 C   0  0  0  0  0  0  0  0  0  0  0  0
  143.5250   72.6020  220.8070 C   0  0  0  0  0  0  0  0  0  0  0  0
  144.7970   73.1790  220.8620 C   0  0  0  0  0  0  0  0  0  0  0  0
  144.9740   74.5170  220.5040 C   0  0  0  0  0  0  0  0  0  0  0  0
  143.8800   75.2830  220.0870 C   0  0  0  0  0  0  0  0  0  0  0  0
  140.4680   77.5460  221.2610 N   0  0  0  0  0  0  0  0  0  0  0  0
  139.3090   78.2850  221.6830 C   0  0  0  0  0  0  0  0  0  0  0  0
  139.4370   79.3830  222.4240 C   0  0  0  0  0  0  0  0  0  0  0  0
  140.7700   79.8490  222.8420 C   0  0  0  0  0  0  0  0  0  0  0  0
  140.8910   80.8900  223.7730 C   0  0  0  0  0  0  0  0  0  0  0  0
  142.1560   81.3090  224.1980 C   0  0  0  0  0  0  0  0  0  0  0  0
  143.3030   80.6940  223.6930 C   0  0  0  0  0  0  0  0  0  0  0  0
  143.1920   79.6600  222.7610 C   0  0  0  0  0  0  0  0  0  0  0  0
  141.9270   79.2270  222.3310 C   0  0  0  0  0  0  0  0  0  0  0  0
  141.8130   78.1420  221.2830 C   0  0  2  0  0  0  0  0  0  0  0  0
  142.1410   78.7050  219.9260 C   0  0  0  0  0  0  0  0  0  0  0  0
  142.7580   78.0340  218.8730 C   0  0  0  0  0  0  0  0  0  0  0  0
  142.8420   78.8350  217.7870 N   0  0  0  0  0  0  0  0  0  0  0  0
  142.2760   80.0020  218.1400 C   0  0  0  0  0  0  0  0  0  0  0  0
  142.1150   81.1350  217.3440 C   0  0  0  0  0  0  0  0  0  0  0  0
  141.4750   82.2520  217.9120 C   0  0  0  0  0  0  0  0  0  0  0  0
  141.0140   82.2100  219.2470 C   0  0  0  0  0  0  0  0  0  0  0  0
  141.1880   81.0520  220.0260 C   0  0  0  0  0  0  0  0  0  0  0  0
  141.8310   79.9600  219.4370 C   0  0  0  0  0  0  0  0  0  0  0  0
  140.9287   74.9136  218.7146 H   0  0  0  0  0  0  0  0  0  0  0  0
  141.8152   76.4420  219.0570 H   0  0  0  0  0  0  0  0  0  0  0  0
  141.4292   72.9073  220.3546 H   0  0  0  0  0  0  0  0  0  0  0  0
  143.3871   71.5473  221.0876 H   0  0  0  0  0  0  0  0  0  0  0  0
  145.6592   72.5785  221.1876 H   0  0  0  0  0  0  0  0  0  0  0  0
  145.9755   74.9697  220.5499 H   0  0  0  0  0  0  0  0  0  0  0  0
  144.0243   76.3348  219.7992 H   0  0  0  0  0  0  0  0  0  0  0  0
  138.3065   77.9393  221.3904 H   0  0  0  0  0  0  0  0  0  0  0  0
  138.5416   79.9460  222.7261 H   0  0  0  0  0  0  0  0  0  0  0  0
  139.9890   81.3785  224.1702 H   0  0  0  0  0  0  0  0  0  0  0  0
  142.2472   82.1241  224.9310 H   0  0  0  0  0  0  0  0  0  0  0  0
  144.2965   81.0247  224.0300 H   0  0  0  0  0  0  0  0  0  0  0  0
  144.0991   79.1826  222.3620 H   0  0  0  0  0  0  0  0  0  0  0  0
  142.5304   77.3492  221.5414 H   0  0  0  0  0  0  0  0  0  0  0  0
  143.1253   76.9981  218.9185 H   0  0  0  0  0  0  0  0  0  0  0  0
  143.2540   78.5890  216.8590 H   0  0  0  0  0  0  0  0  0  0  0  0
  142.4766   81.1552  216.3053 H   0  0  0  0  0  0  0  0  0  0  0  0
  141.3327   83.1636  217.3130 H   0  0  0  0  0  0  0  0  0  0  0  0
  140.5153   83.0895  219.6802 H   0  0  0  0  0  0  0  0  0  0  0  0
  140.8296   81.0073  221.0650 H   0  0  0  0  0  0  0  0  0  0  0  0
  1  2  2  0
  2  3  2  0
  2  4  1  0
  4  5  1  0
  5  6  2  0
  6  7  1  0
  7  8  2  0
  8  9  1  0
  9 10  2  0
  2 11  1  0
 11 12  1  0
 12 13  2  0
 13 14  1  0
 14 15  2  0
 15 16  1  0
 16 17  2  0
 17 18  1  0
 18 19  2  0
 19 20  1  0
 20 21  1  0
 21 22  2  0
 22 23  1  0
 23 24  1  0
 24 25  2  0
 25 26  1  0
 26 27  2  0
 27 28  1  0
 28 29  2  0
 10  5  1  0
 20 11  1  0
 29 21  1  0
 19 14  1  0
 29 24  1  0
  4 30  1  0
  4 31  1  0
  6 32  1  0
  7 33  1  0
  8 34  1  0
  9 35  1  0
 10 36  1  0
 12 37  1  0
 13 38  1  0
 15 39  1  0
 16 40  1  0
 17 41  1  0
 18 42  1  0
 20 43  1  1
 22 44  1  0
 23 45  1  0
 25 46  1  0
 26 47  1  0
 27 48  1  0
 28 49  1  0
M  END
>  <UniqueID>  (22) 
10

>  <SMILES>  (22) 
O=S(=O)(Cc1ccccc1)N1C=Cc2ccccc2[C@@H]1c1c[nH]c2ccccc12

>  <Energy>  (22) 
80.55466081329438

>  <Genealogy>  (22) 
O=S(=O)(Cc1ccccc1)N1C=Cc2ccccc2[C@@H]1c1c[nH]c2ccccc12 (chirality)
O=S(=O)(Cc1ccccc1)N1C=Cc2ccccc2[C@@H]1c1c[nH]c2ccccc12 (3D coordinates assigned)
O=S(=O)(Cc1ccccc1)N1C=Cc2ccccc2[C@@H]1c1c[nH]c2ccccc12 (nonaromatic ring conformer: 80.55466081329438 kcal/mol)

>  <smiles>  (22) 
O=S(=O)(Cc1ccccc1)N1C=Cc2ccccc2C1c1c[nH]c2ccccc12

>  <score_type>  (22) 
oracle

>  <origin>  (22) 
autodockgpu

>  <m_score__min__energy>  (22) 
-8.5399999999999991

>  <m_primary>  (22) 
energy

>  <meeko>  (22) 
{"free_energy": -8.46, "intermolecular_energy": -9.66, "internal_energy": -1.67, "cluster_size": 11, "cluster_id": 1, "rank_in_cluster": 8}

>  <energy>  (22) 
-8.51

>  <cluster_rmsd>  (22) 
0.16

>  <rmsd>  (22) 
270.89

>  <cluster>  (22) 
1

$$$$
YCOHEPDJLXZVBZ-XMMPIXPANA-N
     RDKit          3D

 49 53  0  0  0  0  0  0  0  0999 V2000
  142.1440   78.7510  224.0150 O   0  0  0  0  0  0  0  0  0  0  0  0
  142.2840   79.9230  223.0850 S   0  0  0  0  0  0  0  0  0  0  0  0
  143.7200   80.3690  223.0840 O   0  0  0  0  0  0  0  0  0  0  0  0
  141.2390   81.2590  223.6450 C   0  0  0  0  0  0  0  0  0  0  0  0
  139.8010   80.9520  223.3300 C   0  0  0  0  0  0  0  0  0  0  0  0
  139.0900   81.7460  222.4130 C   0  0  0  0  0  0  0  0  0  0  0  0
  137.7880   81.4030  222.0450 C   0  0  0  0  0  0  0  0  0  0  0  0
  137.1830   80.2660  222.5890 C   0  0  0  0  0  0  0  0  0  0  0  0
  137.8820   79.4710  223.5000 C   0  0  0  0  0  0  0  0  0  0  0  0
  139.1890   79.8080  223.8680 C   0  0  0  0  0  0  0  0  0  0  0  0
  141.8150   79.4640  221.4760 N   0  0  0  0  0  0  0  0  0  0  0  0
  141.4230   80.4830  220.5420 C   0  0  0  0  0  0  0  0  0  0  0  0
  141.4650   80.2560  219.2310 C   0  0  0  0  0  0  0  0  0  0  0  0
  141.9340   78.9590  218.7150 C   0  0  0  0  0  0  0  0  0  0  0  0
  142.1570   78.7880  217.3410 C   0  0  0  0  0  0  0  0  0  0  0  0
  142.6370   77.5690  216.8530 C   0  0  0  0  0  0  0  0  0  0  0  0
  142.8940   76.5160  217.7330 C   0  0  0  0  0  0  0  0  0  0  0  0
  142.6700   76.6760  219.1030 C   0  0  0  0  0  0  0  0  0  0  0  0
  142.1930   77.8980  219.6040 C   0  0  0  0  0  0  0  0  0  0  0  0
  141.9030   78.0490  221.0810 C   0  0  2  0  0  0  0  0  0  0  0  0
  140.6180   77.3440  221.4250 C   0  0  0  0  0  0  0  0  0  0  0  0
  140.4460   76.3450  222.3800 C   0  0  0  0  0  0  0  0  0  0  0  0
  139.1450   75.9840  222.4570 N   0  0  0  0  0  0  0  0  0  0  0  0
  138.4920   76.7520  221.5690 C   0  0  0  0  0  0  0  0  0  0  0  0
  137.1250   76.7520  221.3000 C   0  0  0  0  0  0  0  0  0  0  0  0
  136.6440   77.6560  220.3350 C   0  0  0  0  0  0  0  0  0  0  0  0
  137.5320   78.5320  219.6710 C   0  0  0  0  0  0  0  0  0  0  0  0
  138.9070   78.5110  219.9640 C   0  0  0  0  0  0  0  0  0  0  0  0
  139.3560   77.6000  220.9220 C   0  0  0  0  0  0  0  0  0  0  0  0
  141.3558   81.3822  224.7318 H   0  0  0  0  0  0  0  0  0  0  0  0
  141.5317   82.1867  223.1315 H   0  0  0  0  0  0  0  0  0  0  0  0
  139.5621   82.6419  221.9835 H   0  0  0  0  0  0  0  0  0  0  0  0
  137.2374   82.0278  221.3263 H   0  0  0  0  0  0  0  0  0  0  0  0
  136.1563   79.9976  222.2995 H   0  0  0  0  0  0  0  0  0  0  0  0
  137.4039   78.5781  223.9290 H   0  0  0  0  0  0  0  0  0  0  0  0
  139.7387   79.1754  224.5805 H   0  0  0  0  0  0  0  0  0  0  0  0
  141.0846   81.4612  220.9143 H   0  0  0  0  0  0  0  0  0  0  0  0
  141.1476   81.0415  218.5294 H   0  0  0  0  0  0  0  0  0  0  0  0
  141.9536   79.6154  216.6453 H   0  0  0  0  0  0  0  0  0  0  0  0
  142.8123   77.4394  215.7748 H   0  0  0  0  0  0  0  0  0  0  0  0
  143.2736   75.5584  217.3471 H   0  0  0  0  0  0  0  0  0  0  0  0
  142.8681   75.8414  219.7917 H   0  0  0  0  0  0  0  0  0  0  0  0
  142.7372   77.5943  221.6353 H   0  0  0  0  0  0  0  0  0  0  0  0
  141.2546   75.9107  222.9863 H   0  0  0  0  0  0  0  0  0  0  0  0
  138.7340   75.2610  223.0900 H   0  0  0  0  0  0  0  0  0  0  0  0
  136.4433   76.0670  221.8254 H   0  0  0  0  0  0  0  0  0  0  0  0
  135.5705   77.6810  220.0961 H   0  0  0  0  0  0  0  0  0  0  0  0
  137.1447   79.2355  218.9193 H   0  0  0  0  0  0  0  0  0  0  0  0
  139.6064   79.1904  219.4549 H   0  0  0  0  0  0  0  0  0  0  0  0
  1  2  2  0
  2  3  2  0
  2  4  1  0
  4  5  1  0
  5  6  2  0
  6  7  1  0
  7  8  2  0
  8  9  1  0
  9 10  2  0
  2 11  1  0
 11 12  1  0
 12 13  2  0
 13 14  1  0
 14 15  2  0
 15 16  1  0
 16 17  2  0
 17 18  1  0
 18 19  2  0
 19 20  1  0
 20 21  1  0
 21 22  2  0
 22 23  1  0
 23 24  1  0
 24 25  2  0
 25 26  1  0
 26 27  2  0
 27 28  1  0
 28 29  2  0
 10  5  1  0
 20 11  1  0
 29 21  1  0
 19 14  1  0
 29 24  1  0
  4 30  1  0
  4 31  1  0
  6 32  1  0
  7 33  1  0
  8 34  1  0
  9 35  1  0
 10 36  1  0
 12 37  1  0
 13 38  1  0
 15 39  1  0
 16 40  1  0
 17 41  1  0
 18 42  1  0
 20 43  1  1
 22 44  1  0
 23 45  1  0
 25 46  1  0
 26 47  1  0
 27 48  1  0
 28 49  1  0
M  END
>  <UniqueID>  (23) 
10

>  <SMILES>  (23) 
O=S(=O)(Cc1ccccc1)N1C=Cc2ccccc2[C@@H]1c1c[nH]c2ccccc12

>  <Energy>  (23) 
80.55466081329438

>  <Genealogy>  (23) 
O=S(=O)(Cc1ccccc1)N1C=Cc2ccccc2[C@@H]1c1c[nH]c2ccccc12 (chirality)
O=S(=O)(Cc1ccccc1)N1C=Cc2ccccc2[C@@H]1c1c[nH]c2ccccc12 (3D coordinates assigned)
O=S(=O)(Cc1ccccc1)N1C=Cc2ccccc2[C@@H]1c1c[nH]c2ccccc12 (nonaromatic ring conformer: 80.55466081329438 kcal/mol)

>  <smiles>  (23) 
O=S(=O)(Cc1ccccc1)N1C=Cc2ccccc2C1c1c[nH]c2ccccc12

>  <score_type>  (23) 
oracle

>  <origin>  (23) 
autodockgpu

>  <m_score__min__energy>  (23) 
-8.5399999999999991

>  <m_primary>  (23) 
energy

>  <meeko>  (23) 
{"free_energy": -6.71, "intermolecular_energy": -7.9, "internal_energy": -3.02, "cluster_size": 6, "cluster_id": 4, "rank_in_cluster": 6}

>  <energy>  (23) 
-8.5

>  <cluster_rmsd>  (23) 
0.21

>  <rmsd>  (23) 
270.85

>  <cluster>  (23) 
1

$$$$
YCOHEPDJLXZVBZ-XMMPIXPANA-N
     RDKit          3D

 49 53  0  0  0  0  0  0  0  0999 V2000
  140.7120   74.9070  221.9240 O   0  0  0  0  0  0  0  0  0  0  0  0
  140.4210   75.7900  220.7420 S   0  0  0  0  0  0  0  0  0  0  0  0
  139.0350   75.4870  220.2450 O   0  0  0  0  0  0  0  0  0  0  0  0
  141.6080   75.4680  219.4480 C   0  0  0  0  0  0  0  0  0  0  0  0
  142.7670   74.6820  219.9980 C   0  0  0  0  0  0  0  0  0  0  0  0
  142.6090   73.3270  220.3330 C   0  0  0  0  0  0  0  0  0  0  0  0
  143.7080   72.5710  220.7480 C   0  0  0  0  0  0  0  0  0  0  0  0
  144.9720   73.1620  220.8340 C   0  0  0  0  0  0  0  0  0  0  0  0
  145.1370   74.5090  220.5020 C   0  0  0  0  0  0  0  0  0  0  0  0
  144.0410   75.2680  220.0810 C   0  0  0  0  0  0  0  0  0  0  0  0
  140.5210   77.4590  221.2110 N   0  0  0  0  0  0  0  0  0  0  0  0
  139.3280   78.1420  221.6340 C   0  0  0  0  0  0  0  0  0  0  0  0
  139.4030   79.2410  222.3820 C   0  0  0  0  0  0  0  0  0  0  0  0
  140.7120   79.7660  222.8050 C   0  0  0  0  0  0  0  0  0  0  0  0
  140.7830   80.8060  223.7420 C   0  0  0  0  0  0  0  0  0  0  0  0
  142.0250   81.2810  224.1720 C   0  0  0  0  0  0  0  0  0  0  0  0
  143.2010   80.7230  223.6670 C   0  0  0  0  0  0  0  0  0  0  0  0
  143.1400   79.6900  222.7290 C   0  0  0  0  0  0  0  0  0  0  0  0
  141.8970   79.2010  222.2940 C   0  0  0  0  0  0  0  0  0  0  0  0
  141.8370   78.1170  221.2400 C   0  0  2  0  0  0  0  0  0  0  0  0
  142.1410   78.7030  219.8870 C   0  0  0  0  0  0  0  0  0  0  0  0
  142.7730   78.0600  218.8240 C   0  0  0  0  0  0  0  0  0  0  0  0
  142.8280   78.8740  217.7450 N   0  0  0  0  0  0  0  0  0  0  0  0
  142.2280   80.0190  218.1120 C   0  0  0  0  0  0  0  0  0  0  0  0
  142.0290   81.1540  217.3280 C   0  0  0  0  0  0  0  0  0  0  0  0
  141.3590   82.2460  217.9080 C   0  0  0  0  0  0  0  0  0  0  0  0
  140.9050   82.1780  219.2450 C   0  0  0  0  0  0  0  0  0  0  0  0
  141.1180   81.0190  220.0120 C   0  0  0  0  0  0  0  0  0  0  0  0
  141.7910   79.9520  219.4100 C   0  0  0  0  0  0  0  0  0  0  0  0
  141.1248   74.8915  218.6454 H   0  0  0  0  0  0  0  0  0  0  0  0
  141.9767   76.4247  219.0495 H   0  0  0  0  0  0  0  0  0  0  0  0
  141.6155   72.8592  220.2683 H   0  0  0  0  0  0  0  0  0  0  0  0
  143.5787   71.5099  221.0073 H   0  0  0  0  0  0  0  0  0  0  0  0
  145.8365   72.5666  221.1630 H   0  0  0  0  0  0  0  0  0  0  0  0
  146.1316   74.9735  220.5720 H   0  0  0  0  0  0  0  0  0  0  0  0
  144.1766   76.3265  219.8141 H   0  0  0  0  0  0  0  0  0  0  0  0
  138.3433   77.7524  221.3364 H   0  0  0  0  0  0  0  0  0  0  0  0
  138.4817   79.7597  222.6857 H   0  0  0  0  0  0  0  0  0  0  0  0
  139.8585   81.2496  224.1401 H   0  0  0  0  0  0  0  0  0  0  0  0
  142.0761   82.0957  224.9094 H   0  0  0  0  0  0  0  0  0  0  0  0
  144.1772   81.0976  224.0085 H   0  0  0  0  0  0  0  0  0  0  0  0
  144.0691   79.2576  222.3292 H   0  0  0  0  0  0  0  0  0  0  0  0
  142.5901   77.3572  221.4960 H   0  0  0  0  0  0  0  0  0  0  0  0
  143.1709   77.0351  218.8578 H   0  0  0  0  0  0  0  0  0  0  0  0
  143.2430   78.6480  216.8140 H   0  0  0  0  0  0  0  0  0  0  0  0
  142.3849   81.1944  216.2880 H   0  0  0  0  0  0  0  0  0  0  0  0
  141.1872   83.1583  217.3179 H   0  0  0  0  0  0  0  0  0  0  0  0
  140.3814   83.0378  219.6884 H   0  0  0  0  0  0  0  0  0  0  0  0
  140.7663   80.9540  221.0522 H   0  0  0  0  0  0  0  0  0  0  0  0
  1  2  2  0
  2  3  2  0
  2  4  1  0
  4  5  1  0
  5  6  2  0
  6  7  1  0
  7  8  2  0
  8  9  1  0
  9 10  2  0
  2 11  1  0
 11 12  1  0
 12 13  2  0
 13 14  1  0
 14 15  2  0
 15 16  1  0
 16 17  2  0
 17 18  1  0
 18 19  2  0
 19 20  1  0
 20 21  1  0
 21 22  2  0
 22 23  1  0
 23 24  1  0
 24 25  2  0
 25 26  1  0
 26 27  2  0
 27 28  1  0
 28 29  2  0
 10  5  1  0
 20 11  1  0
 29 21  1  0
 19 14  1  0
 29 24  1  0
  4 30  1  0
  4 31  1  0
  6 32  1  0
  7 33  1  0
  8 34  1  0
  9 35  1  0
 10 36  1  0
 12 37  1  0
 13 38  1  0
 15 39  1  0
 16 40  1  0
 17 41  1  0
 18 42  1  0
 20 43  1  1
 22 44  1  0
 23 45  1  0
 25 46  1  0
 26 47  1  0
 27 48  1  0
 28 49  1  0
M  END
>  <UniqueID>  (24) 
10

>  <SMILES>  (24) 
O=S(=O)(Cc1ccccc1)N1C=Cc2ccccc2[C@@H]1c1c[nH]c2ccccc12

>  <Energy>  (24) 
80.55466081329438

>  <Genealogy>  (24) 
O=S(=O)(Cc1ccccc1)N1C=Cc2ccccc2[C@@H]1c1c[nH]c2ccccc12 (chirality)
O=S(=O)(Cc1ccccc1)N1C=Cc2ccccc2[C@@H]1c1c[nH]c2ccccc12 (3D coordinates assigned)
O=S(=O)(Cc1ccccc1)N1C=Cc2ccccc2[C@@H]1c1c[nH]c2ccccc12 (nonaromatic ring conformer: 80.55466081329438 kcal/mol)

>  <smiles>  (24) 
O=S(=O)(Cc1ccccc1)N1C=Cc2ccccc2C1c1c[nH]c2ccccc12

>  <score_type>  (24) 
oracle

>  <origin>  (24) 
autodockgpu

>  <m_score__min__energy>  (24) 
-8.5399999999999991

>  <m_primary>  (24) 
energy

>  <meeko>  (24) 
{"free_energy": -8.49, "intermolecular_energy": -9.68, "internal_energy": -1.65, "cluster_size": 11, "cluster_id": 1, "rank_in_cluster": 6}

>  <energy>  (24) 
-8.5

>  <cluster_rmsd>  (24) 
0.1

>  <rmsd>  (24) 
270.9

>  <cluster>  (24) 
1

$$$$
YCOHEPDJLXZVBZ-XMMPIXPANA-N
     RDKit          3D

 49 53  0  0  0  0  0  0  0  0999 V2000
  140.7600   74.7820  221.8760 O   0  0  0  0  0  0  0  0  0  0  0  0
  140.4520   75.6440  220.6830 S   0  0  0  0  0  0  0  0  0  0  0  0
  139.0760   75.3020  220.1840 O   0  0  0  0  0  0  0  0  0  0  0  0
  141.6530   75.3380  219.3980 C   0  0  0  0  0  0  0  0  0  0  0  0
  142.8130   74.5590  219.9540 C   0  0  0  0  0  0  0  0  0  0  0  0
  142.6720   73.1930  220.2550 C   0  0  0  0  0  0  0  0  0  0  0  0
  143.7760   72.4470  220.6760 C   0  0  0  0  0  0  0  0  0  0  0  0
  145.0270   73.0570  220.8020 C   0  0  0  0  0  0  0  0  0  0  0  0
  145.1750   74.4140  220.5050 C   0  0  0  0  0  0  0  0  0  0  0  0
  144.0750   75.1640  220.0780 C   0  0  0  0  0  0  0  0  0  0  0  0
  140.5090   77.3210  221.1340 N   0  0  0  0  0  0  0  0  0  0  0  0
  139.2910   77.9890  221.5040 C   0  0  0  0  0  0  0  0  0  0  0  0
  139.3210   79.0980  222.2400 C   0  0  0  0  0  0  0  0  0  0  0  0
  140.6050   79.6490  222.7040 C   0  0  0  0  0  0  0  0  0  0  0  0
  140.6250   80.7020  223.6300 C   0  0  0  0  0  0  0  0  0  0  0  0
  141.8430   81.2030  224.0990 C   0  0  0  0  0  0  0  0  0  0  0  0
  143.0450   80.6570  223.6440 C   0  0  0  0  0  0  0  0  0  0  0  0
  143.0350   79.6110  222.7180 C   0  0  0  0  0  0  0  0  0  0  0  0
  141.8170   79.0980  222.2440 C   0  0  0  0  0  0  0  0  0  0  0  0
  141.8120   78.0000  221.2020 C   0  0  2  0  0  0  0  0  0  0  0  0
  142.1570   78.5740  219.8540 C   0  0  0  0  0  0  0  0  0  0  0  0
  142.8060   77.9170  218.8110 C   0  0  0  0  0  0  0  0  0  0  0  0
  142.8980   78.7230  217.7290 N   0  0  0  0  0  0  0  0  0  0  0  0
  142.3050   79.8780  218.0740 C   0  0  0  0  0  0  0  0  0  0  0  0
  142.1400   81.0110  217.2790 C   0  0  0  0  0  0  0  0  0  0  0  0
  141.4700   82.1150  217.8380 C   0  0  0  0  0  0  0  0  0  0  0  0
  140.9830   82.0600  219.1630 C   0  0  0  0  0  0  0  0  0  0  0  0
  141.1620   80.9030  219.9420 C   0  0  0  0  0  0  0  0  0  0  0  0
  141.8350   79.8250  219.3620 C   0  0  0  0  0  0  0  0  0  0  0  0
  141.1816   74.7616  218.5884 H   0  0  0  0  0  0  0  0  0  0  0  0
  142.0174   76.2996  219.0076 H   0  0  0  0  0  0  0  0  0  0  0  0
  141.6887   72.7095  220.1587 H   0  0  0  0  0  0  0  0  0  0  0  0
  143.6602   71.3781  220.9085 H   0  0  0  0  0  0  0  0  0  0  0  0
  145.8949   72.4688  221.1349 H   0  0  0  0  0  0  0  0  0  0  0  0
  146.1596   74.8937  220.6074 H   0  0  0  0  0  0  0  0  0  0  0  0
  144.1979   76.2306  219.8385 H   0  0  0  0  0  0  0  0  0  0  0  0
  138.3243   77.5796  221.1756 H   0  0  0  0  0  0  0  0  0  0  0  0
  138.3811   79.6055  222.5029 H   0  0  0  0  0  0  0  0  0  0  0  0
  139.6795   81.1351  223.9884 H   0  0  0  0  0  0  0  0  0  0  0  0
  141.8545   82.0277  224.8268 H   0  0  0  0  0  0  0  0  0  0  0  0
  144.0022   81.0515  224.0157 H   0  0  0  0  0  0  0  0  0  0  0  0
  143.9847   79.1878  222.3590 H   0  0  0  0  0  0  0  0  0  0  0  0
  142.5665   77.2550  221.4947 H   0  0  0  0  0  0  0  0  0  0  0  0
  143.1897   76.8873  218.8606 H   0  0  0  0  0  0  0  0  0  0  0  0
  143.3330   78.4870  216.8090 H   0  0  0  0  0  0  0  0  0  0  0  0
  142.5213   81.0412  216.2477 H   0  0  0  0  0  0  0  0  0  0  0  0
  141.3246   83.0264  217.2396 H   0  0  0  0  0  0  0  0  0  0  0  0
  140.4597   82.9289  219.5886 H   0  0  0  0  0  0  0  0  0  0  0  0
  140.7846   80.8486  220.9738 H   0  0  0  0  0  0  0  0  0  0  0  0
  1  2  2  0
  2  3  2  0
  2  4  1  0
  4  5  1  0
  5  6  2  0
  6  7  1  0
  7  8  2  0
  8  9  1  0
  9 10  2  0
  2 11  1  0
 11 12  1  0
 12 13  2  0
 13 14  1  0
 14 15  2  0
 15 16  1  0
 16 17  2  0
 17 18  1  0
 18 19  2  0
 19 20  1  0
 20 21  1  0
 21 22  2  0
 22 23  1  0
 23 24  1  0
 24 25  2  0
 25 26  1  0
 26 27  2  0
 27 28  1  0
 28 29  2  0
 10  5  1  0
 20 11  1  0
 29 21  1  0
 19 14  1  0
 29 24  1  0
  4 30  1  0
  4 31  1  0
  6 32  1  0
  7 33  1  0
  8 34  1  0
  9 35  1  0
 10 36  1  0
 12 37  1  0
 13 38  1  0
 15 39  1  0
 16 40  1  0
 17 41  1  0
 18 42  1  0
 20 43  1  1
 22 44  1  0
 23 45  1  0
 25 46  1  0
 26 47  1  0
 27 48  1  0
 28 49  1  0
M  END
>  <UniqueID>  (25) 
10

>  <SMILES>  (25) 
O=S(=O)(Cc1ccccc1)N1C=Cc2ccccc2[C@@H]1c1c[nH]c2ccccc12

>  <Energy>  (25) 
80.55466081329438

>  <Genealogy>  (25) 
O=S(=O)(Cc1ccccc1)N1C=Cc2ccccc2[C@@H]1c1c[nH]c2ccccc12 (chirality)
O=S(=O)(Cc1ccccc1)N1C=Cc2ccccc2[C@@H]1c1c[nH]c2ccccc12 (3D coordinates assigned)
O=S(=O)(Cc1ccccc1)N1C=Cc2ccccc2[C@@H]1c1c[nH]c2ccccc12 (nonaromatic ring conformer: 80.55466081329438 kcal/mol)

>  <smiles>  (25) 
O=S(=O)(Cc1ccccc1)N1C=Cc2ccccc2C1c1c[nH]c2ccccc12

>  <score_type>  (25) 
oracle

>  <origin>  (25) 
autodockgpu

>  <m_score__min__energy>  (25) 
-8.5399999999999991

>  <m_primary>  (25) 
energy

>  <meeko>  (25) 
{"free_energy": -8.5, "intermolecular_energy": -9.69, "internal_energy": -1.6, "cluster_size": 11, "cluster_id": 1, "rank_in_cluster": 5}

>  <energy>  (25) 
-8.5

>  <cluster_rmsd>  (25) 
0.3

>  <rmsd>  (25) 
270.8

>  <cluster>  (25) 
1

$$$$
YCOHEPDJLXZVBZ-XMMPIXPANA-N
     RDKit          3D

 49 53  0  0  0  0  0  0  0  0999 V2000
  140.6970   74.8540  221.9290 O   0  0  0  0  0  0  0  0  0  0  0  0
  140.4110   75.7270  220.7400 S   0  0  0  0  0  0  0  0  0  0  0  0
  139.0260   75.4200  220.2400 O   0  0  0  0  0  0  0  0  0  0  0  0
  141.6030   75.3940  219.4530 C   0  0  0  0  0  0  0  0  0  0  0  0
  142.7570   74.6100  220.0130 C   0  0  0  0  0  0  0  0  0  0  0  0
  142.5910   73.2610  220.3720 C   0  0  0  0  0  0  0  0  0  0  0  0
  143.6870   72.5050  220.7980 C   0  0  0  0  0  0  0  0  0  0  0  0
  144.9550   73.0890  220.8690 C   0  0  0  0  0  0  0  0  0  0  0  0
  145.1280   74.4290  220.5130 C   0  0  0  0  0  0  0  0  0  0  0  0
  144.0360   75.1880  220.0820 C   0  0  0  0  0  0  0  0  0  0  0  0
  140.5100   77.4000  221.1950 N   0  0  0  0  0  0  0  0  0  0  0  0
  139.3140   78.0900  221.5950 C   0  0  0  0  0  0  0  0  0  0  0  0
  139.3820   79.1950  222.3340 C   0  0  0  0  0  0  0  0  0  0  0  0
  140.6870   79.7200  222.7700 C   0  0  0  0  0  0  0  0  0  0  0  0
  140.7480   80.7690  223.6990 C   0  0  0  0  0  0  0  0  0  0  0  0
  141.9860   81.2440  224.1420 C   0  0  0  0  0  0  0  0  0  0  0  0
  143.1660   80.6770  223.6580 C   0  0  0  0  0  0  0  0  0  0  0  0
  143.1150   79.6360  222.7290 C   0  0  0  0  0  0  0  0  0  0  0  0
  141.8770   79.1470  222.2810 C   0  0  0  0  0  0  0  0  0  0  0  0
  141.8270   78.0540  221.2360 C   0  0  2  0  0  0  0  0  0  0  0  0
  142.1520   78.6270  219.8820 C   0  0  0  0  0  0  0  0  0  0  0  0
  142.7880   77.9690  218.8300 C   0  0  0  0  0  0  0  0  0  0  0  0
  142.8630   78.7740  217.7460 N   0  0  0  0  0  0  0  0  0  0  0  0
  142.2720   79.9290  218.0980 C   0  0  0  0  0  0  0  0  0  0  0  0
  142.0950   81.0600  217.3040 C   0  0  0  0  0  0  0  0  0  0  0  0
  141.4300   82.1630  217.8700 C   0  0  0  0  0  0  0  0  0  0  0  0
  140.9620   82.1100  219.2020 C   0  0  0  0  0  0  0  0  0  0  0  0
  141.1540   80.9540  219.9800 C   0  0  0  0  0  0  0  0  0  0  0  0
  141.8210   79.8760  219.3930 C   0  0  0  0  0  0  0  0  0  0  0  0
  141.1221   74.8131  218.6522 H   0  0  0  0  0  0  0  0  0  0  0  0
  141.9753   76.3472  219.0496 H   0  0  0  0  0  0  0  0  0  0  0  0
  141.5945   72.7984  220.3175 H   0  0  0  0  0  0  0  0  0  0  0  0
  143.5515   71.4498  221.0776 H   0  0  0  0  0  0  0  0  0  0  0  0
  145.8167   72.4936  221.2052 H   0  0  0  0  0  0  0  0  0  0  0  0
  146.1260   74.8879  220.5720 H   0  0  0  0  0  0  0  0  0  0  0  0
  144.1783   76.2406  219.7961 H   0  0  0  0  0  0  0  0  0  0  0  0
  138.3323   77.7007  221.2871 H   0  0  0  0  0  0  0  0  0  0  0  0
  138.4583   79.7190  222.6206 H   0  0  0  0  0  0  0  0  0  0  0  0
  139.8194   81.2191  224.0800 H   0  0  0  0  0  0  0  0  0  0  0  0
  142.0301   82.0652  224.8725 H   0  0  0  0  0  0  0  0  0  0  0  0
  144.1388   81.0513  224.0095 H   0  0  0  0  0  0  0  0  0  0  0  0
  144.0482   79.1971  222.3464 H   0  0  0  0  0  0  0  0  0  0  0  0
  142.5735   77.2937  221.5090 H   0  0  0  0  0  0  0  0  0  0  0  0
  143.1743   76.9401  218.8754 H   0  0  0  0  0  0  0  0  0  0  0  0
  143.2850   78.5370  216.8210 H   0  0  0  0  0  0  0  0  0  0  0  0
  142.4633   81.0896  216.2679 H   0  0  0  0  0  0  0  0  0  0  0  0
  141.2734   83.0726  217.2716 H   0  0  0  0  0  0  0  0  0  0  0  0
  140.4438   82.9789  219.6337 H   0  0  0  0  0  0  0  0  0  0  0  0
  140.7908   80.9005  221.0169 H   0  0  0  0  0  0  0  0  0  0  0  0
  1  2  2  0
  2  3  2  0
  2  4  1  0
  4  5  1  0
  5  6  2  0
  6  7  1  0
  7  8  2  0
  8  9  1  0
  9 10  2  0
  2 11  1  0
 11 12  1  0
 12 13  2  0
 13 14  1  0
 14 15  2  0
 15 16  1  0
 16 17  2  0
 17 18  1  0
 18 19  2  0
 19 20  1  0
 20 21  1  0
 21 22  2  0
 22 23  1  0
 23 24  1  0
 24 25  2  0
 25 26  1  0
 26 27  2  0
 27 28  1  0
 28 29  2  0
 10  5  1  0
 20 11  1  0
 29 21  1  0
 19 14  1  0
 29 24  1  0
  4 30  1  0
  4 31  1  0
  6 32  1  0
  7 33  1  0
  8 34  1  0
  9 35  1  0
 10 36  1  0
 12 37  1  0
 13 38  1  0
 15 39  1  0
 16 40  1  0
 17 41  1  0
 18 42  1  0
 20 43  1  1
 22 44  1  0
 23 45  1  0
 25 46  1  0
 26 47  1  0
 27 48  1  0
 28 49  1  0
M  END
>  <UniqueID>  (26) 
10

>  <SMILES>  (26) 
O=S(=O)(Cc1ccccc1)N1C=Cc2ccccc2[C@@H]1c1c[nH]c2ccccc12

>  <Energy>  (26) 
80.55466081329438

>  <Genealogy>  (26) 
O=S(=O)(Cc1ccccc1)N1C=Cc2ccccc2[C@@H]1c1c[nH]c2ccccc12 (chirality)
O=S(=O)(Cc1ccccc1)N1C=Cc2ccccc2[C@@H]1c1c[nH]c2ccccc12 (3D coordinates assigned)
O=S(=O)(Cc1ccccc1)N1C=Cc2ccccc2[C@@H]1c1c[nH]c2ccccc12 (nonaromatic ring conformer: 80.55466081329438 kcal/mol)

>  <smiles>  (26) 
O=S(=O)(Cc1ccccc1)N1C=Cc2ccccc2C1c1c[nH]c2ccccc12

>  <score_type>  (26) 
oracle

>  <origin>  (26) 
autodockgpu

>  <m_score__min__energy>  (26) 
-8.5399999999999991

>  <m_primary>  (26) 
energy

>  <meeko>  (26) 
{"free_energy": -8.5, "intermolecular_energy": -9.7, "internal_energy": -1.62, "cluster_size": 11, "cluster_id": 1, "rank_in_cluster": 3}

>  <energy>  (26) 
-8.49

>  <cluster_rmsd>  (26) 
0.16

>  <rmsd>  (26) 
270.88

>  <cluster>  (26) 
1

$$$$
YCOHEPDJLXZVBZ-XMMPIXPANA-N
     RDKit          3D

 49 53  0  0  0  0  0  0  0  0999 V2000
  134.6990   68.1470  224.2980 O   0  0  0  0  0  0  0  0  0  0  0  0
  135.4540   69.4280  224.5200 S   0  0  0  0  0  0  0  0  0  0  0  0
  135.5960   69.6530  226.0000 O   0  0  0  0  0  0  0  0  0  0  0  0
  134.5550   70.7860  223.7880 C   0  0  0  0  0  0  0  0  0  0  0  0
  133.9450   71.6390  224.8670 C   0  0  0  0  0  0  0  0  0  0  0  0
  133.0310   71.0840  225.7790 C   0  0  0  0  0  0  0  0  0  0  0  0
  132.5430   71.8490  226.8400 C   0  0  0  0  0  0  0  0  0  0  0  0
  132.9600   73.1730  226.9990 C   0  0  0  0  0  0  0  0  0  0  0  0
  133.8690   73.7330  226.0970 C   0  0  0  0  0  0  0  0  0  0  0  0
  134.3650   72.9690  225.0360 C   0  0  0  0  0  0  0  0  0  0  0  0
  137.0270   69.3230  223.7920 N   0  0  0  0  0  0  0  0  0  0  0  0
  137.2250   68.4420  222.6730 C   0  0  0  0  0  0  0  0  0  0  0  0
  138.2430   68.6260  221.8350 C   0  0  0  0  0  0  0  0  0  0  0  0
  139.1750   69.7490  222.0310 C   0  0  0  0  0  0  0  0  0  0  0  0
  140.1280   70.0510  221.0480 C   0  0  0  0  0  0  0  0  0  0  0  0
  140.9900   71.1390  221.2160 C   0  0  0  0  0  0  0  0  0  0  0  0
  140.9060   71.9270  222.3650 C   0  0  0  0  0  0  0  0  0  0  0  0
  139.9640   71.6300  223.3520 C   0  0  0  0  0  0  0  0  0  0  0  0
  139.0900   70.5420  223.1920 C   0  0  0  0  0  0  0  0  0  0  0  0
  138.1050   70.1940  224.2860 C   0  0  2  0  0  0  0  0  0  0  0  0
  138.8240   69.5180  225.4240 C   0  0  0  0  0  0  0  0  0  0  0  0
  138.8250   68.1560  225.7160 C   0  0  0  0  0  0  0  0  0  0  0  0
  139.6240   67.9010  226.7760 N   0  0  0  0  0  0  0  0  0  0  0  0
  140.1350   69.0860  227.1510 C   0  0  0  0  0  0  0  0  0  0  0  0
  141.0280   69.3260  228.1940 C   0  0  0  0  0  0  0  0  0  0  0  0
  141.4520   70.6510  228.4050 C   0  0  0  0  0  0  0  0  0  0  0  0
  140.9800   71.6930  227.5750 C   0  0  0  0  0  0  0  0  0  0  0  0
  140.0820   71.4210  226.5290 C   0  0  0  0  0  0  0  0  0  0  0  0
  139.6750   70.0970  226.3460 C   0  0  0  0  0  0  0  0  0  0  0  0
  135.2439   71.3969  223.1862 H   0  0  0  0  0  0  0  0  0  0  0  0
  133.7550   70.3865  223.1474 H   0  0  0  0  0  0  0  0  0  0  0  0
  132.6988   70.0426  225.6564 H   0  0  0  0  0  0  0  0  0  0  0  0
  131.8292   71.4088  227.5518 H   0  0  0  0  0  0  0  0  0  0  0  0
  132.5728   73.7748  227.8344 H   0  0  0  0  0  0  0  0  0  0  0  0
  134.1947   74.7762  226.2219 H   0  0  0  0  0  0  0  0  0  0  0  0
  135.0858   73.4104  224.3320 H   0  0  0  0  0  0  0  0  0  0  0  0
  136.5280   67.6072  222.5076 H   0  0  0  0  0  0  0  0  0  0  0  0
  138.3887   67.9352  220.9914 H   0  0  0  0  0  0  0  0  0  0  0  0
  140.1977   69.4305  220.1424 H   0  0  0  0  0  0  0  0  0  0  0  0
  141.7352   71.3742  220.4418 H   0  0  0  0  0  0  0  0  0  0  0  0
  141.5835   72.7840  222.4933 H   0  0  0  0  0  0  0  0  0  0  0  0
  139.9061   72.2505  224.2585 H   0  0  0  0  0  0  0  0  0  0  0  0
  137.6476   71.1309  224.6367 H   0  0  0  0  0  0  0  0  0  0  0  0
  138.2557   67.3951  225.1620 H   0  0  0  0  0  0  0  0  0  0  0  0
  139.8120   66.9680  227.2060 H   0  0  0  0  0  0  0  0  0  0  0  0
  141.3897   68.5059  228.8317 H   0  0  0  0  0  0  0  0  0  0  0  0
  142.1547   70.8771  229.2205 H   0  0  0  0  0  0  0  0  0  0  0  0
  141.3183   72.7251  227.7492 H   0  0  0  0  0  0  0  0  0  0  0  0
  139.7114   72.2244  225.8754 H   0  0  0  0  0  0  0  0  0  0  0  0
  1  2  2  0
  2  3  2  0
  2  4  1  0
  4  5  1  0
  5  6  2  0
  6  7  1  0
  7  8  2  0
  8  9  1  0
  9 10  2  0
  2 11  1  0
 11 12  1  0
 12 13  2  0
 13 14  1  0
 14 15  2  0
 15 16  1  0
 16 17  2  0
 17 18  1  0
 18 19  2  0
 19 20  1  0
 20 21  1  0
 21 22  2  0
 22 23  1  0
 23 24  1  0
 24 25  2  0
 25 26  1  0
 26 27  2  0
 27 28  1  0
 28 29  2  0
 10  5  1  0
 20 11  1  0
 29 21  1  0
 19 14  1  0
 29 24  1  0
  4 30  1  0
  4 31  1  0
  6 32  1  0
  7 33  1  0
  8 34  1  0
  9 35  1  0
 10 36  1  0
 12 37  1  0
 13 38  1  0
 15 39  1  0
 16 40  1  0
 17 41  1  0
 18 42  1  0
 20 43  1  1
 22 44  1  0
 23 45  1  0
 25 46  1  0
 26 47  1  0
 27 48  1  0
 28 49  1  0
M  END
>  <UniqueID>  (27) 
10

>  <SMILES>  (27) 
O=S(=O)(Cc1ccccc1)N1C=Cc2ccccc2[C@@H]1c1c[nH]c2ccccc12

>  <Energy>  (27) 
80.55466081329438

>  <Genealogy>  (27) 
O=S(=O)(Cc1ccccc1)N1C=Cc2ccccc2[C@@H]1c1c[nH]c2ccccc12 (chirality)
O=S(=O)(Cc1ccccc1)N1C=Cc2ccccc2[C@@H]1c1c[nH]c2ccccc12 (3D coordinates assigned)
O=S(=O)(Cc1ccccc1)N1C=Cc2ccccc2[C@@H]1c1c[nH]c2ccccc12 (nonaromatic ring conformer: 80.55466081329438 kcal/mol)

>  <smiles>  (27) 
O=S(=O)(Cc1ccccc1)N1C=Cc2ccccc2C1c1c[nH]c2ccccc12

>  <score_type>  (27) 
oracle

>  <origin>  (27) 
autodockgpu

>  <m_score__min__energy>  (27) 
-8.5399999999999991

>  <m_primary>  (27) 
energy

>  <meeko>  (27) 
{"free_energy": -8.52, "intermolecular_energy": -9.71, "internal_energy": -1.65, "cluster_size": 2, "cluster_id": 2, "rank_in_cluster": 1}

>  <energy>  (27) 
-8.47

>  <cluster_rmsd>  (27) 
0.13

>  <rmsd>  (27) 
270.92

>  <cluster>  (27) 
1

$$$$
YCOHEPDJLXZVBZ-XMMPIXPANA-N
     RDKit          3D

 49 53  0  0  0  0  0  0  0  0999 V2000
  142.0720   78.7360  224.0510 O   0  0  0  0  0  0  0  0  0  0  0  0
  142.2770   79.8680  223.0830 S   0  0  0  0  0  0  0  0  0  0  0  0
  143.7300   80.2540  223.0940 O   0  0  0  0  0  0  0  0  0  0  0  0
  141.2790   81.2650  223.5750 C   0  0  0  0  0  0  0  0  0  0  0  0
  139.8310   80.9940  223.2720 C   0  0  0  0  0  0  0  0  0  0  0  0
  139.1390   79.9840  223.9620 C   0  0  0  0  0  0  0  0  0  0  0  0
  137.7700   79.7990  223.7530 C   0  0  0  0  0  0  0  0  0  0  0  0
  137.0820   80.6190  222.8540 C   0  0  0  0  0  0  0  0  0  0  0  0
  137.7630   81.6250  222.1640 C   0  0  0  0  0  0  0  0  0  0  0  0
  139.1320   81.8170  222.3740 C   0  0  0  0  0  0  0  0  0  0  0  0
  141.8170   79.3700  221.4830 N   0  0  0  0  0  0  0  0  0  0  0  0
  141.4940   80.3710  220.5030 C   0  0  0  0  0  0  0  0  0  0  0  0
  141.5510   80.0930  219.2030 C   0  0  0  0  0  0  0  0  0  0  0  0
  141.9660   78.7560  218.7450 C   0  0  0  0  0  0  0  0  0  0  0  0
  142.2070   78.5220  217.3840 C   0  0  0  0  0  0  0  0  0  0  0  0
  142.6360   77.2640  216.9520 C   0  0  0  0  0  0  0  0  0  0  0  0
  142.8250   76.2340  217.8760 C   0  0  0  0  0  0  0  0  0  0  0  0
  142.5820   76.4560  219.2330 C   0  0  0  0  0  0  0  0  0  0  0  0
  142.1550   77.7180  219.6790 C   0  0  0  0  0  0  0  0  0  0  0  0
  141.8450   77.9390  221.1430 C   0  0  2  0  0  0  0  0  0  0  0  0
  140.5200   77.3100  221.4850 C   0  0  0  0  0  0  0  0  0  0  0  0
  140.3020   76.2590  222.3730 C   0  0  0  0  0  0  0  0  0  0  0  0
  138.9800   75.9930  222.4740 N   0  0  0  0  0  0  0  0  0  0  0  0
  138.3610   76.8720  221.6680 C   0  0  0  0  0  0  0  0  0  0  0  0
  136.9890   76.9950  221.4530 C   0  0  0  0  0  0  0  0  0  0  0  0
  136.5490   78.0010  220.5740 C   0  0  0  0  0  0  0  0  0  0  0  0
  137.4810   78.8540  219.9390 C   0  0  0  0  0  0  0  0  0  0  0  0
  138.8590   78.7070  220.1770 C   0  0  0  0  0  0  0  0  0  0  0  0
  139.2660   77.6970  221.0510 C   0  0  0  0  0  0  0  0  0  0  0  0
  141.3994   81.4366  224.6548 H   0  0  0  0  0  0  0  0  0  0  0  0
  141.6043   82.1557  223.0175 H   0  0  0  0  0  0  0  0  0  0  0  0
  139.6775   79.3364  224.6696 H   0  0  0  0  0  0  0  0  0  0  0  0
  137.2332   79.0074  224.2963 H   0  0  0  0  0  0  0  0  0  0  0  0
  136.0043   80.4722  222.6898 H   0  0  0  0  0  0  0  0  0  0  0  0
  137.2211   82.2673  221.4542 H   0  0  0  0  0  0  0  0  0  0  0  0
  139.6630   82.6150  221.8343 H   0  0  0  0  0  0  0  0  0  0  0  0
  141.1965   81.3778  220.8314 H   0  0  0  0  0  0  0  0  0  0  0  0
  141.2867   80.8659  218.4663 H   0  0  0  0  0  0  0  0  0  0  0  0
  142.0580   79.3311  216.6538 H   0  0  0  0  0  0  0  0  0  0  0  0
  142.8250   77.0850  215.8832 H   0  0  0  0  0  0  0  0  0  0  0  0
  143.1660   75.2457  217.5340 H   0  0  0  0  0  0  0  0  0  0  0  0
  142.7255   75.6394  219.9559 H   0  0  0  0  0  0  0  0  0  0  0  0
  142.6458   77.4670  221.7312 H   0  0  0  0  0  0  0  0  0  0  0  0
  141.0936   75.7213  222.9155 H   0  0  0  0  0  0  0  0  0  0  0  0
  138.5350   75.2590  223.0690 H   0  0  0  0  0  0  0  0  0  0  0  0
  136.2736   76.3268  221.9547 H   0  0  0  0  0  0  0  0  0  0  0  0
  135.4735   78.1249  220.3794 H   0  0  0  0  0  0  0  0  0  0  0  0
  137.1256   79.6380  219.2541 H   0  0  0  0  0  0  0  0  0  0  0  0
  139.5927   79.3664  219.6904 H   0  0  0  0  0  0  0  0  0  0  0  0
  1  2  2  0
  2  3  2  0
  2  4  1  0
  4  5  1  0
  5  6  2  0
  6  7  1  0
  7  8  2  0
  8  9  1  0
  9 10  2  0
  2 11  1  0
 11 12  1  0
 12 13  2  0
 13 14  1  0
 14 15  2  0
 15 16  1  0
 16 17  2  0
 17 18  1  0
 18 19  2  0
 19 20  1  0
 20 21  1  0
 21 22  2  0
 22 23  1  0
 23 24  1  0
 24 25  2  0
 25 26  1  0
 26 27  2  0
 27 28  1  0
 28 29  2  0
 10  5  1  0
 20 11  1  0
 29 21  1  0
 19 14  1  0
 29 24  1  0
  4 30  1  0
  4 31  1  0
  6 32  1  0
  7 33  1  0
  8 34  1  0
  9 35  1  0
 10 36  1  0
 12 37  1  0
 13 38  1  0
 15 39  1  0
 16 40  1  0
 17 41  1  0
 18 42  1  0
 20 43  1  1
 22 44  1  0
 23 45  1  0
 25 46  1  0
 26 47  1  0
 27 48  1  0
 28 49  1  0
M  END
>  <UniqueID>  (28) 
10

>  <SMILES>  (28) 
O=S(=O)(Cc1ccccc1)N1C=Cc2ccccc2[C@@H]1c1c[nH]c2ccccc12

>  <Energy>  (28) 
80.55466081329438

>  <Genealogy>  (28) 
O=S(=O)(Cc1ccccc1)N1C=Cc2ccccc2[C@@H]1c1c[nH]c2ccccc12 (chirality)
O=S(=O)(Cc1ccccc1)N1C=Cc2ccccc2[C@@H]1c1c[nH]c2ccccc12 (3D coordinates assigned)
O=S(=O)(Cc1ccccc1)N1C=Cc2ccccc2[C@@H]1c1c[nH]c2ccccc12 (nonaromatic ring conformer: 80.55466081329438 kcal/mol)

>  <smiles>  (28) 
O=S(=O)(Cc1ccccc1)N1C=Cc2ccccc2C1c1c[nH]c2ccccc12

>  <score_type>  (28) 
oracle

>  <origin>  (28) 
autodockgpu

>  <m_score__min__energy>  (28) 
-8.5399999999999991

>  <m_primary>  (28) 
energy

>  <meeko>  (28) 
{"free_energy": -6.75, "intermolecular_energy": -7.94, "internal_energy": -2.97, "cluster_size": 6, "cluster_id": 4, "rank_in_cluster": 2}

>  <energy>  (28) 
-8.46

>  <cluster_rmsd>  (28) 
0.14

>  <rmsd>  (28) 
270.9

>  <cluster>  (28) 
1

$$$$
YCOHEPDJLXZVBZ-XMMPIXPANA-N
     RDKit          3D

 49 53  0  0  0  0  0  0  0  0999 V2000
  138.5860   82.0620  218.0150 O   0  0  0  0  0  0  0  0  0  0  0  0
  138.6040   80.8550  218.9120 S   0  0  0  0  0  0  0  0  0  0  0  0
  138.6080   79.6190  218.0560 O   0  0  0  0  0  0  0  0  0  0  0  0
  137.1530   80.8620  219.9520 C   0  0  0  0  0  0  0  0  0  0  0  0
  137.5360   80.5400  221.3700 C   0  0  0  0  0  0  0  0  0  0  0  0
  137.6270   79.2030  221.7940 C   0  0  0  0  0  0  0  0  0  0  0  0
  138.0800   78.9010  223.0800 C   0  0  0  0  0  0  0  0  0  0  0  0
  138.4430   79.9290  223.9540 C   0  0  0  0  0  0  0  0  0  0  0  0
  138.3550   81.2610  223.5410 C   0  0  0  0  0  0  0  0  0  0  0  0
  137.9080   81.5680  222.2520 C   0  0  0  0  0  0  0  0  0  0  0  0
  140.0250   80.8780  219.9100 N   0  0  0  0  0  0  0  0  0  0  0  0
  140.6310   82.1400  220.2390 C   0  0  0  0  0  0  0  0  0  0  0  0
  141.4260   82.2560  221.2990 C   0  0  0  0  0  0  0  0  0  0  0  0
  141.6850   81.0940  222.1670 C   0  0  0  0  0  0  0  0  0  0  0  0
  142.3660   81.2620  223.3810 C   0  0  0  0  0  0  0  0  0  0  0  0
  142.5810   80.1660  224.2230 C   0  0  0  0  0  0  0  0  0  0  0  0
  142.1200   78.9000  223.8550 C   0  0  0  0  0  0  0  0  0  0  0  0
  141.4450   78.7240  222.6450 C   0  0  0  0  0  0  0  0  0  0  0  0
  141.2200   79.8180  221.7940 C   0  0  0  0  0  0  0  0  0  0  0  0
  140.5340   79.6120  220.4610 C   0  0  2  0  0  0  0  0  0  0  0  0
  141.4920   78.9820  219.4850 C   0  0  0  0  0  0  0  0  0  0  0  0
  142.1470   79.6180  218.4320 C   0  0  0  0  0  0  0  0  0  0  0  0
  142.9740   78.7550  217.8000 N   0  0  0  0  0  0  0  0  0  0  0  0
  142.8570   77.5840  218.4500 C   0  0  0  0  0  0  0  0  0  0  0  0
  143.5290   76.3950  218.1700 C   0  0  0  0  0  0  0  0  0  0  0  0
  143.2680   75.2840  218.9920 C   0  0  0  0  0  0  0  0  0  0  0  0
  142.3520   75.3850  220.0630 C   0  0  0  0  0  0  0  0  0  0  0  0
  141.6900   76.5980  220.3230 C   0  0  0  0  0  0  0  0  0  0  0  0
  141.9650   77.6840  219.4880 C   0  0  0  0  0  0  0  0  0  0  0  0
  136.6850   81.8569  219.9179 H   0  0  0  0  0  0  0  0  0  0  0  0
  136.4439   80.1039  219.5881 H   0  0  0  0  0  0  0  0  0  0  0  0
  137.3401   78.3909  221.1098 H   0  0  0  0  0  0  0  0  0  0  0  0
  138.1511   77.8526  223.4053 H   0  0  0  0  0  0  0  0  0  0  0  0
  138.7981   79.6897  224.9672 H   0  0  0  0  0  0  0  0  0  0  0  0
  138.6378   82.0696  224.2311 H   0  0  0  0  0  0  0  0  0  0  0  0
  137.8476   82.6174  221.9279 H   0  0  0  0  0  0  0  0  0  0  0  0
  140.4349   83.0188  219.6072 H   0  0  0  0  0  0  0  0  0  0  0  0
  141.8928   83.2251  221.5289 H   0  0  0  0  0  0  0  0  0  0  0  0
  142.7319   82.2577  223.6718 H   0  0  0  0  0  0  0  0  0  0  0  0
  143.1136   80.3013  225.1759 H   0  0  0  0  0  0  0  0  0  0  0  0
  142.2889   78.0398  224.5195 H   0  0  0  0  0  0  0  0  0  0  0  0
  141.0881   77.7240  222.3574 H   0  0  0  0  0  0  0  0  0  0  0  0
  139.6752   78.9444  220.6247 H   0  0  0  0  0  0  0  0  0  0  0  0
  142.0104   80.6735  218.1542 H   0  0  0  0  0  0  0  0  0  0  0  0
  143.5870   78.9640  216.9810 H   0  0  0  0  0  0  0  0  0  0  0  0
  144.2402   76.3280  217.3335 H   0  0  0  0  0  0  0  0  0  0  0  0
  143.7805   74.3299  218.7998 H   0  0  0  0  0  0  0  0  0  0  0  0
  142.1553   74.5085  220.6979 H   0  0  0  0  0  0  0  0  0  0  0  0
  140.9785   76.6890  221.1570 H   0  0  0  0  0  0  0  0  0  0  0  0
  1  2  2  0
  2  3  2  0
  2  4  1  0
  4  5  1  0
  5  6  2  0
  6  7  1  0
  7  8  2  0
  8  9  1  0
  9 10  2  0
  2 11  1  0
 11 12  1  0
 12 13  2  0
 13 14  1  0
 14 15  2  0
 15 16  1  0
 16 17  2  0
 17 18  1  0
 18 19  2  0
 19 20  1  0
 20 21  1  0
 21 22  2  0
 22 23  1  0
 23 24  1  0
 24 25  2  0
 25 26  1  0
 26 27  2  0
 27 28  1  0
 28 29  2  0
 10  5  1  0
 20 11  1  0
 29 21  1  0
 19 14  1  0
 29 24  1  0
  4 30  1  0
  4 31  1  0
  6 32  1  0
  7 33  1  0
  8 34  1  0
  9 35  1  0
 10 36  1  0
 12 37  1  0
 13 38  1  0
 15 39  1  0
 16 40  1  0
 17 41  1  0
 18 42  1  0
 20 43  1  1
 22 44  1  0
 23 45  1  0
 25 46  1  0
 26 47  1  0
 27 48  1  0
 28 49  1  0
M  END
>  <UniqueID>  (29) 
10

>  <SMILES>  (29) 
O=S(=O)(Cc1ccccc1)N1C=Cc2ccccc2[C@@H]1c1c[nH]c2ccccc12

>  <Energy>  (29) 
80.55466081329438

>  <Genealogy>  (29) 
O=S(=O)(Cc1ccccc1)N1C=Cc2ccccc2[C@@H]1c1c[nH]c2ccccc12 (chirality)
O=S(=O)(Cc1ccccc1)N1C=Cc2ccccc2[C@@H]1c1c[nH]c2ccccc12 (3D coordinates assigned)
O=S(=O)(Cc1ccccc1)N1C=Cc2ccccc2[C@@H]1c1c[nH]c2ccccc12 (nonaromatic ring conformer: 80.55466081329438 kcal/mol)

>  <smiles>  (29) 
O=S(=O)(Cc1ccccc1)N1C=Cc2ccccc2C1c1c[nH]c2ccccc12

>  <score_type>  (29) 
oracle

>  <origin>  (29) 
autodockgpu

>  <m_score__min__energy>  (29) 
-8.5399999999999991

>  <m_primary>  (29) 
energy

>  <meeko>  (29) 
{"free_energy": -6.88, "intermolecular_energy": -8.08, "internal_energy": -2.76, "cluster_size": 1, "cluster_id": 3, "rank_in_cluster": 1}

>  <energy>  (29) 
-8.45

>  <cluster_rmsd>  (29) 
0.18

>  <rmsd>  (29) 
270.89

>  <cluster>  (29) 
1

$$$$
YCOHEPDJLXZVBZ-XMMPIXPANA-N
     RDKit          3D

 49 53  0  0  0  0  0  0  0  0999 V2000
  140.8080   74.9350  221.9430 O   0  0  0  0  0  0  0  0  0  0  0  0
  140.4120   75.8130  220.7890 S   0  0  0  0  0  0  0  0  0  0  0  0
  138.9960   75.4900  220.4010 O   0  0  0  0  0  0  0  0  0  0  0  0
  141.4990   75.5090  219.4060 C   0  0  0  0  0  0  0  0  0  0  0  0
  142.6740   74.6810  219.8480 C   0  0  0  0  0  0  0  0  0  0  0  0
  143.9420   75.2690  219.9920 C   0  0  0  0  0  0  0  0  0  0  0  0
  145.0100   74.5240  220.4990 C   0  0  0  0  0  0  0  0  0  0  0  0
  144.8220   73.1890  220.8650 C   0  0  0  0  0  0  0  0  0  0  0  0
  143.5640   72.5970  220.7250 C   0  0  0  0  0  0  0  0  0  0  0  0
  142.4910   73.3390  220.2230 C   0  0  0  0  0  0  0  0  0  0  0  0
  140.5240   77.4840  221.2490 N   0  0  0  0  0  0  0  0  0  0  0  0
  139.3360   78.1770  221.6690 C   0  0  0  0  0  0  0  0  0  0  0  0
  139.4180   79.2790  222.4120 C   0  0  0  0  0  0  0  0  0  0  0  0
  140.7310   79.7970  222.8320 C   0  0  0  0  0  0  0  0  0  0  0  0
  140.8090   80.8420  223.7650 C   0  0  0  0  0  0  0  0  0  0  0  0
  142.0550   81.3100  224.1920 C   0  0  0  0  0  0  0  0  0  0  0  0
  143.2270   80.7410  223.6900 C   0  0  0  0  0  0  0  0  0  0  0  0
  143.1590   79.7040  222.7570 C   0  0  0  0  0  0  0  0  0  0  0  0
  141.9120   79.2220  222.3240 C   0  0  0  0  0  0  0  0  0  0  0  0
  141.8440   78.1330  221.2750 C   0  0  2  0  0  0  0  0  0  0  0  0
  142.1530   78.7100  219.9190 C   0  0  0  0  0  0  0  0  0  0  0  0
  142.7790   78.0580  218.8590 C   0  0  0  0  0  0  0  0  0  0  0  0
  142.8400   78.8660  217.7770 N   0  0  0  0  0  0  0  0  0  0  0  0
  142.2490   80.0170  218.1380 C   0  0  0  0  0  0  0  0  0  0  0  0
  142.0590   81.1510  217.3490 C   0  0  0  0  0  0  0  0  0  0  0  0
  141.3980   82.2500  217.9250 C   0  0  0  0  0  0  0  0  0  0  0  0
  140.9440   82.1920  219.2620 C   0  0  0  0  0  0  0  0  0  0  0  0
  141.1480   81.0350  220.0340 C   0  0  0  0  0  0  0  0  0  0  0  0
  141.8120   79.9600  219.4370 C   0  0  0  0  0  0  0  0  0  0  0  0
  140.9481   74.9699  218.6212 H   0  0  0  0  0  0  0  0  0  0  0  0
  141.8618   76.4705  219.0136 H   0  0  0  0  0  0  0  0  0  0  0  0
  144.0945   76.3198  219.7045 H   0  0  0  0  0  0  0  0  0  0  0  0
  146.0004   74.9895  220.6101 H   0  0  0  0  0  0  0  0  0  0  0  0
  145.6641   72.6040  221.2633 H   0  0  0  0  0  0  0  0  0  0  0  0
  143.4178   71.5448  221.0105 H   0  0  0  0  0  0  0  0  0  0  0  0
  141.5006   72.8712  220.1212 H   0  0  0  0  0  0  0  0  0  0  0  0
  138.3487   77.7925  221.3733 H   0  0  0  0  0  0  0  0  0  0  0  0
  138.5003   79.8051  222.7136 H   0  0  0  0  0  0  0  0  0  0  0  0
  139.8877   81.2939  224.1613 H   0  0  0  0  0  0  0  0  0  0  0  0
  142.1123   82.1282  224.9250 H   0  0  0  0  0  0  0  0  0  0  0  0
  144.2058   81.1102  224.0300 H   0  0  0  0  0  0  0  0  0  0  0  0
  144.0850   79.2629  222.3596 H   0  0  0  0  0  0  0  0  0  0  0  0
  142.5914   77.3690  221.5351 H   0  0  0  0  0  0  0  0  0  0  0  0
  143.1689   77.0301  218.8971 H   0  0  0  0  0  0  0  0  0  0  0  0
  143.2530   78.6330  216.8460 H   0  0  0  0  0  0  0  0  0  0  0  0
  142.4151   81.1846  216.3088 H   0  0  0  0  0  0  0  0  0  0  0  0
  141.2331   83.1611  217.3310 H   0  0  0  0  0  0  0  0  0  0  0  0
  140.4275   83.0580  219.7016 H   0  0  0  0  0  0  0  0  0  0  0  0
  140.7962   80.9777  221.0747 H   0  0  0  0  0  0  0  0  0  0  0  0
  1  2  2  0
  2  3  2  0
  2  4  1  0
  4  5  1  0
  5  6  2  0
  6  7  1  0
  7  8  2  0
  8  9  1  0
  9 10  2  0
  2 11  1  0
 11 12  1  0
 12 13  2  0
 13 14  1  0
 14 15  2  0
 15 16  1  0
 16 17  2  0
 17 18  1  0
 18 19  2  0
 19 20  1  0
 20 21  1  0
 21 22  2  0
 22 23  1  0
 23 24  1  0
 24 25  2  0
 25 26  1  0
 26 27  2  0
 27 28  1  0
 28 29  2  0
 10  5  1  0
 20 11  1  0
 29 21  1  0
 19 14  1  0
 29 24  1  0
  4 30  1  0
  4 31  1  0
  6 32  1  0
  7 33  1  0
  8 34  1  0
  9 35  1  0
 10 36  1  0
 12 37  1  0
 13 38  1  0
 15 39  1  0
 16 40  1  0
 17 41  1  0
 18 42  1  0
 20 43  1  1
 22 44  1  0
 23 45  1  0
 25 46  1  0
 26 47  1  0
 27 48  1  0
 28 49  1  0
M  END
>  <UniqueID>  (30) 
10

>  <SMILES>  (30) 
O=S(=O)(Cc1ccccc1)N1C=Cc2ccccc2[C@@H]1c1c[nH]c2ccccc12

>  <Energy>  (30) 
80.55466081329438

>  <Genealogy>  (30) 
O=S(=O)(Cc1ccccc1)N1C=Cc2ccccc2[C@@H]1c1c[nH]c2ccccc12 (chirality)
O=S(=O)(Cc1ccccc1)N1C=Cc2ccccc2[C@@H]1c1c[nH]c2ccccc12 (3D coordinates assigned)
O=S(=O)(Cc1ccccc1)N1C=Cc2ccccc2[C@@H]1c1c[nH]c2ccccc12 (nonaromatic ring conformer: 80.55466081329438 kcal/mol)

>  <smiles>  (30) 
O=S(=O)(Cc1ccccc1)N1C=Cc2ccccc2C1c1c[nH]c2ccccc12

>  <score_type>  (30) 
oracle

>  <origin>  (30) 
autodockgpu

>  <m_score__min__energy>  (30) 
-8.5399999999999991

>  <m_primary>  (30) 
energy

>  <meeko>  (30) 
{"free_energy": -8.37, "intermolecular_energy": -9.56, "internal_energy": -1.64, "cluster_size": 11, "cluster_id": 1, "rank_in_cluster": 11}

>  <energy>  (30) 
-8.43

>  <cluster_rmsd>  (30) 
0.11

>  <rmsd>  (30) 
270.9

>  <cluster>  (30) 
1

$$$$
YCOHEPDJLXZVBZ-XMMPIXPANA-N
     RDKit          3D

 49 53  0  0  0  0  0  0  0  0999 V2000
  140.6960   74.9070  221.9660 O   0  0  0  0  0  0  0  0  0  0  0  0
  140.4040   75.7830  220.7800 S   0  0  0  0  0  0  0  0  0  0  0  0
  139.0150   75.4830  220.2890 O   0  0  0  0  0  0  0  0  0  0  0  0
  141.5860   75.4490  219.4840 C   0  0  0  0  0  0  0  0  0  0  0  0
  142.7430   74.6620  220.0350 C   0  0  0  0  0  0  0  0  0  0  0  0
  142.5770   73.3140  220.3950 C   0  0  0  0  0  0  0  0  0  0  0  0
  143.6740   72.5560  220.8110 C   0  0  0  0  0  0  0  0  0  0  0  0
  144.9440   73.1380  220.8730 C   0  0  0  0  0  0  0  0  0  0  0  0
  145.1170   74.4770  220.5170 C   0  0  0  0  0  0  0  0  0  0  0  0
  144.0230   75.2380  220.0950 C   0  0  0  0  0  0  0  0  0  0  0  0
  140.5120   77.4550  221.2380 N   0  0  0  0  0  0  0  0  0  0  0  0
  139.3220   78.1470  221.6530 C   0  0  0  0  0  0  0  0  0  0  0  0
  139.4020   79.2510  222.3940 C   0  0  0  0  0  0  0  0  0  0  0  0
  140.7130   79.7710  222.8170 C   0  0  0  0  0  0  0  0  0  0  0  0
  140.7860   80.8170  223.7480 C   0  0  0  0  0  0  0  0  0  0  0  0
  142.0300   81.2880  224.1780 C   0  0  0  0  0  0  0  0  0  0  0  0
  143.2040   80.7200  223.6790 C   0  0  0  0  0  0  0  0  0  0  0  0
  143.1400   79.6810  222.7480 C   0  0  0  0  0  0  0  0  0  0  0  0
  141.8960   79.1960  222.3130 C   0  0  0  0  0  0  0  0  0  0  0  0
  141.8320   78.1060  221.2660 C   0  0  2  0  0  0  0  0  0  0  0  0
  142.1430   78.6810  219.9100 C   0  0  0  0  0  0  0  0  0  0  0  0
  142.7650   78.0250  218.8500 C   0  0  0  0  0  0  0  0  0  0  0  0
  142.8300   78.8320  217.7670 N   0  0  0  0  0  0  0  0  0  0  0  0
  142.2460   79.9870  218.1280 C   0  0  0  0  0  0  0  0  0  0  0  0
  142.0620   81.1210  217.3390 C   0  0  0  0  0  0  0  0  0  0  0  0
  141.4070   82.2250  217.9150 C   0  0  0  0  0  0  0  0  0  0  0  0
  140.9540   82.1690  219.2520 C   0  0  0  0  0  0  0  0  0  0  0  0
  141.1510   81.0110  220.0250 C   0  0  0  0  0  0  0  0  0  0  0  0
  141.8090   79.9330  219.4280 C   0  0  0  0  0  0  0  0  0  0  0  0
  141.0982   74.8697  218.6862 H   0  0  0  0  0  0  0  0  0  0  0  0
  141.9572   76.4019  219.0788 H   0  0  0  0  0  0  0  0  0  0  0  0
  141.5790   72.8537  220.3490 H   0  0  0  0  0  0  0  0  0  0  0  0
  143.5388   71.5006  221.0900 H   0  0  0  0  0  0  0  0  0  0  0  0
  145.8070   72.5407  221.2023 H   0  0  0  0  0  0  0  0  0  0  0  0
  146.1162   74.9340  220.5687 H   0  0  0  0  0  0  0  0  0  0  0  0
  144.1647   76.2907  219.8091 H   0  0  0  0  0  0  0  0  0  0  0  0
  138.3358   77.7610  221.3557 H   0  0  0  0  0  0  0  0  0  0  0  0
  138.4831   79.7774  222.6917 H   0  0  0  0  0  0  0  0  0  0  0  0
  139.8627   81.2678  224.1407 H   0  0  0  0  0  0  0  0  0  0  0  0
  142.0841   82.1070  224.9103 H   0  0  0  0  0  0  0  0  0  0  0  0
  144.1815   81.0918  224.0200 H   0  0  0  0  0  0  0  0  0  0  0  0
  144.0678   79.2408  222.3538 H   0  0  0  0  0  0  0  0  0  0  0  0
  142.5800   77.3436  221.5289 H   0  0  0  0  0  0  0  0  0  0  0  0
  143.1493   76.9950  218.8887 H   0  0  0  0  0  0  0  0  0  0  0  0
  143.2420   78.5970  216.8360 H   0  0  0  0  0  0  0  0  0  0  0  0
  142.4177   81.1520  216.2986 H   0  0  0  0  0  0  0  0  0  0  0  0
  141.2467   83.1368  217.3210 H   0  0  0  0  0  0  0  0  0  0  0  0
  140.4431   83.0382  219.6918 H   0  0  0  0  0  0  0  0  0  0  0  0
  140.7986   80.9558  221.0655 H   0  0  0  0  0  0  0  0  0  0  0  0
  1  2  2  0
  2  3  2  0
  2  4  1  0
  4  5  1  0
  5  6  2  0
  6  7  1  0
  7  8  2  0
  8  9  1  0
  9 10  2  0
  2 11  1  0
 11 12  1  0
 12 13  2  0
 13 14  1  0
 14 15  2  0
 15 16  1  0
 16 17  2  0
 17 18  1  0
 18 19  2  0
 19 20  1  0
 20 21  1  0
 21 22  2  0
 22 23  1  0
 23 24  1  0
 24 25  2  0
 25 26  1  0
 26 27  2  0
 27 28  1  0
 28 29  2  0
 10  5  1  0
 20 11  1  0
 29 21  1  0
 19 14  1  0
 29 24  1  0
  4 30  1  0
  4 31  1  0
  6 32  1  0
  7 33  1  0
  8 34  1  0
  9 35  1  0
 10 36  1  0
 12 37  1  0
 13 38  1  0
 15 39  1  0
 16 40  1  0
 17 41  1  0
 18 42  1  0
 20 43  1  1
 22 44  1  0
 23 45  1  0
 25 46  1  0
 26 47  1  0
 27 48  1  0
 28 49  1  0
M  END
>  <UniqueID>  (31) 
10

>  <SMILES>  (31) 
O=S(=O)(Cc1ccccc1)N1C=Cc2ccccc2[C@@H]1c1c[nH]c2ccccc12

>  <Energy>  (31) 
80.55466081329438

>  <Genealogy>  (31) 
O=S(=O)(Cc1ccccc1)N1C=Cc2ccccc2[C@@H]1c1c[nH]c2ccccc12 (chirality)
O=S(=O)(Cc1ccccc1)N1C=Cc2ccccc2[C@@H]1c1c[nH]c2ccccc12 (3D coordinates assigned)
O=S(=O)(Cc1ccccc1)N1C=Cc2ccccc2[C@@H]1c1c[nH]c2ccccc12 (nonaromatic ring conformer: 80.55466081329438 kcal/mol)

>  <smiles>  (31) 
O=S(=O)(Cc1ccccc1)N1C=Cc2ccccc2C1c1c[nH]c2ccccc12

>  <score_type>  (31) 
oracle

>  <origin>  (31) 
autodockgpu

>  <m_score__min__energy>  (31) 
-8.5399999999999991

>  <m_primary>  (31) 
energy

>  <meeko>  (31) 
{"free_energy": -8.51, "intermolecular_energy": -9.71, "internal_energy": -1.62, "cluster_size": 11, "cluster_id": 1, "rank_in_cluster": 2}

>  <energy>  (31) 
-8.37

>  <cluster_rmsd>  (31) 
0.15

>  <rmsd>  (31) 
270.89

>  <cluster>  (31) 
1

$$$$
YCOHEPDJLXZVBZ-XMMPIXPANA-N
     RDKit          3D

 49 53  0  0  0  0  0  0  0  0999 V2000
  142.0780   78.7390  224.0530 O   0  0  0  0  0  0  0  0  0  0  0  0
  142.2810   79.8700  223.0840 S   0  0  0  0  0  0  0  0  0  0  0  0
  143.7330   80.2600  223.0960 O   0  0  0  0  0  0  0  0  0  0  0  0
  141.2790   81.2640  223.5750 C   0  0  0  0  0  0  0  0  0  0  0  0
  139.8330   80.9910  223.2660 C   0  0  0  0  0  0  0  0  0  0  0  0
  139.1390   79.9810  223.9550 C   0  0  0  0  0  0  0  0  0  0  0  0
  137.7710   79.7940  223.7410 C   0  0  0  0  0  0  0  0  0  0  0  0
  137.0860   80.6110  222.8380 C   0  0  0  0  0  0  0  0  0  0  0  0
  137.7680   81.6170  222.1490 C   0  0  0  0  0  0  0  0  0  0  0  0
  139.1360   81.8110  222.3640 C   0  0  0  0  0  0  0  0  0  0  0  0
  141.8250   79.3700  221.4840 N   0  0  0  0  0  0  0  0  0  0  0  0
  141.5060   80.3700  220.5010 C   0  0  0  0  0  0  0  0  0  0  0  0
  141.5660   80.0880  219.2010 C   0  0  0  0  0  0  0  0  0  0  0  0
  141.9790   78.7490  218.7480 C   0  0  0  0  0  0  0  0  0  0  0  0
  142.2230   78.5110  217.3880 C   0  0  0  0  0  0  0  0  0  0  0  0
  142.6500   77.2510  216.9600 C   0  0  0  0  0  0  0  0  0  0  0  0
  142.8320   76.2220  217.8870 C   0  0  0  0  0  0  0  0  0  0  0  0
  142.5870   76.4490  219.2430 C   0  0  0  0  0  0  0  0  0  0  0  0
  142.1630   77.7130  219.6850 C   0  0  0  0  0  0  0  0  0  0  0  0
  141.8490   77.9380  221.1470 C   0  0  2  0  0  0  0  0  0  0  0  0
  140.5220   77.3140  221.4880 C   0  0  0  0  0  0  0  0  0  0  0  0
  140.2970   76.2710  222.3830 C   0  0  0  0  0  0  0  0  0  0  0  0
  138.9740   76.0070  222.4790 N   0  0  0  0  0  0  0  0  0  0  0  0
  138.3600   76.8790  221.6620 C   0  0  0  0  0  0  0  0  0  0  0  0
  136.9900   77.0020  221.4380 C   0  0  0  0  0  0  0  0  0  0  0  0
  136.5570   78.0010  220.5470 C   0  0  0  0  0  0  0  0  0  0  0  0
  137.4930   78.8470  219.9100 C   0  0  0  0  0  0  0  0  0  0  0  0
  138.8690   78.7010  220.1570 C   0  0  0  0  0  0  0  0  0  0  0  0
  139.2710   77.6980  221.0420 C   0  0  0  0  0  0  0  0  0  0  0  0
  141.3950   81.4336  224.6556 H   0  0  0  0  0  0  0  0  0  0  0  0
  141.6048   82.1565  223.0206 H   0  0  0  0  0  0  0  0  0  0  0  0
  139.6754   79.3351  224.6657 H   0  0  0  0  0  0  0  0  0  0  0  0
  137.2329   79.0030  224.2839 H   0  0  0  0  0  0  0  0  0  0  0  0
  136.0092   80.4621  222.6695 H   0  0  0  0  0  0  0  0  0  0  0  0
  137.2279   82.2575  221.4362 H   0  0  0  0  0  0  0  0  0  0  0  0
  139.6679   82.6086  221.8247 H   0  0  0  0  0  0  0  0  0  0  0  0
  141.2094   81.3781  220.8263 H   0  0  0  0  0  0  0  0  0  0  0  0
  141.3056   80.8595  218.4614 H   0  0  0  0  0  0  0  0  0  0  0  0
  142.0779   79.3187  216.6555 H   0  0  0  0  0  0  0  0  0  0  0  0
  142.8429   77.0694  215.8924 H   0  0  0  0  0  0  0  0  0  0  0  0
  143.1689   75.2311  217.5483 H   0  0  0  0  0  0  0  0  0  0  0  0
  142.7268   75.6340  219.9684 H   0  0  0  0  0  0  0  0  0  0  0  0
  142.6466   77.4641  221.7380 H   0  0  0  0  0  0  0  0  0  0  0  0
  141.0848   75.7368  222.9345 H   0  0  0  0  0  0  0  0  0  0  0  0
  138.5240   75.2790  223.0780 H   0  0  0  0  0  0  0  0  0  0  0  0
  136.2706   76.3395  221.9415 H   0  0  0  0  0  0  0  0  0  0  0  0
  135.4828   78.1245  220.3448 H   0  0  0  0  0  0  0  0  0  0  0  0
  137.1422   79.6251  219.2161 H   0  0  0  0  0  0  0  0  0  0  0  0
  139.6058   79.3558  219.6688 H   0  0  0  0  0  0  0  0  0  0  0  0
  1  2  2  0
  2  3  2  0
  2  4  1  0
  4  5  1  0
  5  6  2  0
  6  7  1  0
  7  8  2  0
  8  9  1  0
  9 10  2  0
  2 11  1  0
 11 12  1  0
 12 13  2  0
 13 14  1  0
 14 15  2  0
 15 16  1  0
 16 17  2  0
 17 18  1  0
 18 19  2  0
 19 20  1  0
 20 21  1  0
 21 22  2  0
 22 23  1  0
 23 24  1  0
 24 25  2  0
 25 26  1  0
 26 27  2  0
 27 28  1  0
 28 29  2  0
 10  5  1  0
 20 11  1  0
 29 21  1  0
 19 14  1  0
 29 24  1  0
  4 30  1  0
  4 31  1  0
  6 32  1  0
  7 33  1  0
  8 34  1  0
  9 35  1  0
 10 36  1  0
 12 37  1  0
 13 38  1  0
 15 39  1  0
 16 40  1  0
 17 41  1  0
 18 42  1  0
 20 43  1  1
 22 44  1  0
 23 45  1  0
 25 46  1  0
 26 47  1  0
 27 48  1  0
 28 49  1  0
M  END
>  <UniqueID>  (32) 
10

>  <SMILES>  (32) 
O=S(=O)(Cc1ccccc1)N1C=Cc2ccccc2[C@@H]1c1c[nH]c2ccccc12

>  <Energy>  (32) 
80.55466081329438

>  <Genealogy>  (32) 
O=S(=O)(Cc1ccccc1)N1C=Cc2ccccc2[C@@H]1c1c[nH]c2ccccc12 (chirality)
O=S(=O)(Cc1ccccc1)N1C=Cc2ccccc2[C@@H]1c1c[nH]c2ccccc12 (3D coordinates assigned)
O=S(=O)(Cc1ccccc1)N1C=Cc2ccccc2[C@@H]1c1c[nH]c2ccccc12 (nonaromatic ring conformer: 80.55466081329438 kcal/mol)

>  <smiles>  (32) 
O=S(=O)(Cc1ccccc1)N1C=Cc2ccccc2C1c1c[nH]c2ccccc12

>  <score_type>  (32) 
oracle

>  <origin>  (32) 
autodockgpu

>  <m_score__min__energy>  (32) 
-8.5399999999999991

>  <m_primary>  (32) 
energy

>  <meeko>  (32) 
{"free_energy": -6.74, "intermolecular_energy": -7.93, "internal_energy": -2.98, "cluster_size": 6, "cluster_id": 4, "rank_in_cluster": 3}

>  <energy>  (32) 
-8.52

>  <cluster_rmsd>  (32) 
0.0

>  <rmsd>  (32) 
270.26

>  <cluster>  (32) 
2

$$$$
YCOHEPDJLXZVBZ-XMMPIXPANA-N
     RDKit          3D

 49 53  0  0  0  0  0  0  0  0999 V2000
  140.6570   74.9100  221.9250 O   0  0  0  0  0  0  0  0  0  0  0  0
  140.3870   75.8100  220.7520 S   0  0  0  0  0  0  0  0  0  0  0  0
  139.0000   75.5330  220.2410 O   0  0  0  0  0  0  0  0  0  0  0  0
  141.5790   75.4850  219.4630 C   0  0  0  0  0  0  0  0  0  0  0  0
  142.7190   74.6710  220.0110 C   0  0  0  0  0  0  0  0  0  0  0  0
  142.5300   73.3190  220.3440 C   0  0  0  0  0  0  0  0  0  0  0  0
  143.6110   72.5380  220.7570 C   0  0  0  0  0  0  0  0  0  0  0  0
  144.8880   73.0990  220.8430 C   0  0  0  0  0  0  0  0  0  0  0  0
  145.0850   74.4420  220.5140 C   0  0  0  0  0  0  0  0  0  0  0  0
  144.0060   75.2270  220.0940 C   0  0  0  0  0  0  0  0  0  0  0  0
  140.5080   77.4720  221.2390 N   0  0  0  0  0  0  0  0  0  0  0  0
  139.3280   78.1590  221.6910 C   0  0  0  0  0  0  0  0  0  0  0  0
  139.4240   79.2480  222.4510 C   0  0  0  0  0  0  0  0  0  0  0  0
  140.7440   79.7570  222.8580 C   0  0  0  0  0  0  0  0  0  0  0  0
  140.8380   80.7850  223.8070 C   0  0  0  0  0  0  0  0  0  0  0  0
  142.0910   81.2450  224.2220 C   0  0  0  0  0  0  0  0  0  0  0  0
  143.2540   80.6840  223.6910 C   0  0  0  0  0  0  0  0  0  0  0  0
  143.1700   79.6630  222.7410 C   0  0  0  0  0  0  0  0  0  0  0  0
  141.9160   79.1900  222.3200 C   0  0  0  0  0  0  0  0  0  0  0  0
  141.8290   78.1200  221.2540 C   0  0  2  0  0  0  0  0  0  0  0  0
  142.1160   78.7200  219.9040 C   0  0  0  0  0  0  0  0  0  0  0  0
  142.7100   78.0810  218.8170 C   0  0  0  0  0  0  0  0  0  0  0  0
  142.7580   78.9100  217.7500 N   0  0  0  0  0  0  0  0  0  0  0  0
  142.1920   80.0620  218.1470 C   0  0  0  0  0  0  0  0  0  0  0  0
  142.0000   81.2130  217.3850 C   0  0  0  0  0  0  0  0  0  0  0  0
  141.3660   82.3090  217.9980 C   0  0  0  0  0  0  0  0  0  0  0  0
  140.9410   82.2300  219.3430 C   0  0  0  0  0  0  0  0  0  0  0  0
  141.1460   81.0550  220.0870 C   0  0  0  0  0  0  0  0  0  0  0  0
  141.7820   79.9840  219.4540 C   0  0  0  0  0  0  0  0  0  0  0  0
  141.0923   74.9285  218.6485 H   0  0  0  0  0  0  0  0  0  0  0  0
  141.9679   76.4405  219.0811 H   0  0  0  0  0  0  0  0  0  0  0  0
  141.5261   72.8741  220.2790 H   0  0  0  0  0  0  0  0  0  0  0  0
  143.4573   71.4798  221.0150 H   0  0  0  0  0  0  0  0  0  0  0  0
  145.7384   72.4826  221.1699 H   0  0  0  0  0  0  0  0  0  0  0  0
  146.0902   74.8831  220.5853 H   0  0  0  0  0  0  0  0  0  0  0  0
  144.1660   76.2823  219.8281 H   0  0  0  0  0  0  0  0  0  0  0  0
  138.3353   77.7806  221.4057 H   0  0  0  0  0  0  0  0  0  0  0  0
  138.5122   79.7701  222.7765 H   0  0  0  0  0  0  0  0  0  0  0  0
  139.9236   81.2305  224.2258 H   0  0  0  0  0  0  0  0  0  0  0  0
  142.1609   82.0503  224.9681 H   0  0  0  0  0  0  0  0  0  0  0  0
  144.2386   81.0466  224.0213 H   0  0  0  0  0  0  0  0  0  0  0  0
  144.0890   79.2280  222.3212 H   0  0  0  0  0  0  0  0  0  0  0  0
  142.5797   77.3508  221.4882 H   0  0  0  0  0  0  0  0  0  0  0  0
  143.0868   77.0476  218.8260 H   0  0  0  0  0  0  0  0  0  0  0  0
  143.1470   78.6900  216.8060 H   0  0  0  0  0  0  0  0  0  0  0  0
  142.3335   81.2628  216.3379 H   0  0  0  0  0  0  0  0  0  0  0  0
  141.2000   83.2339  217.4262 H   0  0  0  0  0  0  0  0  0  0  0  0
  140.4463   83.0938  219.8112 H   0  0  0  0  0  0  0  0  0  0  0  0
  140.8163   80.9811  221.1338 H   0  0  0  0  0  0  0  0  0  0  0  0
  1  2  2  0
  2  3  2  0
  2  4  1  0
  4  5  1  0
  5  6  2  0
  6  7  1  0
  7  8  2  0
  8  9  1  0
  9 10  2  0
  2 11  1  0
 11 12  1  0
 12 13  2  0
 13 14  1  0
 14 15  2  0
 15 16  1  0
 16 17  2  0
 17 18  1  0
 18 19  2  0
 19 20  1  0
 20 21  1  0
 21 22  2  0
 22 23  1  0
 23 24  1  0
 24 25  2  0
 25 26  1  0
 26 27  2  0
 27 28  1  0
 28 29  2  0
 10  5  1  0
 20 11  1  0
 29 21  1  0
 19 14  1  0
 29 24  1  0
  4 30  1  0
  4 31  1  0
  6 32  1  0
  7 33  1  0
  8 34  1  0
  9 35  1  0
 10 36  1  0
 12 37  1  0
 13 38  1  0
 15 39  1  0
 16 40  1  0
 17 41  1  0
 18 42  1  0
 20 43  1  1
 22 44  1  0
 23 45  1  0
 25 46  1  0
 26 47  1  0
 27 48  1  0
 28 49  1  0
M  END
>  <UniqueID>  (33) 
10

>  <SMILES>  (33) 
O=S(=O)(Cc1ccccc1)N1C=Cc2ccccc2[C@@H]1c1c[nH]c2ccccc12

>  <Energy>  (33) 
80.55466081329438

>  <Genealogy>  (33) 
O=S(=O)(Cc1ccccc1)N1C=Cc2ccccc2[C@@H]1c1c[nH]c2ccccc12 (chirality)
O=S(=O)(Cc1ccccc1)N1C=Cc2ccccc2[C@@H]1c1c[nH]c2ccccc12 (3D coordinates assigned)
O=S(=O)(Cc1ccccc1)N1C=Cc2ccccc2[C@@H]1c1c[nH]c2ccccc12 (nonaromatic ring conformer: 80.55466081329438 kcal/mol)

>  <smiles>  (33) 
O=S(=O)(Cc1ccccc1)N1C=Cc2ccccc2C1c1c[nH]c2ccccc12

>  <score_type>  (33) 
oracle

>  <origin>  (33) 
autodockgpu

>  <m_score__min__energy>  (33) 
-8.5399999999999991

>  <m_primary>  (33) 
energy

>  <meeko>  (33) 
{"free_energy": -8.5, "intermolecular_energy": -9.7, "internal_energy": -1.62, "cluster_size": 11, "cluster_id": 1, "rank_in_cluster": 4}

>  <energy>  (33) 
-7.3

>  <cluster_rmsd>  (33) 
1.49

>  <rmsd>  (33) 
269.84

>  <cluster>  (33) 
2

$$$$
YCOHEPDJLXZVBZ-XMMPIXPANA-N
     RDKit          3D

 49 53  0  0  0  0  0  0  0  0999 V2000
  140.5660   74.9830  221.9560 O   0  0  0  0  0  0  0  0  0  0  0  0
  140.3080   75.8870  220.7830 S   0  0  0  0  0  0  0  0  0  0  0  0
  138.9100   75.6460  220.2880 O   0  0  0  0  0  0  0  0  0  0  0  0
  141.4780   75.5260  219.4830 C   0  0  0  0  0  0  0  0  0  0  0  0
  142.6320   74.7350  220.0340 C   0  0  0  0  0  0  0  0  0  0  0  0
  142.4580   73.3890  220.4010 C   0  0  0  0  0  0  0  0  0  0  0  0
  143.5510   72.6260  220.8180 C   0  0  0  0  0  0  0  0  0  0  0  0
  144.8250   73.2000  220.8740 C   0  0  0  0  0  0  0  0  0  0  0  0
  145.0060   74.5360  220.5120 C   0  0  0  0  0  0  0  0  0  0  0  0
  143.9150   75.3030  220.0880 C   0  0  0  0  0  0  0  0  0  0  0  0
  140.4790   77.5470  221.2650 N   0  0  0  0  0  0  0  0  0  0  0  0
  139.3240   78.2650  221.7280 C   0  0  0  0  0  0  0  0  0  0  0  0
  139.4570   79.3530  222.4840 C   0  0  0  0  0  0  0  0  0  0  0  0
  140.7950   79.8280  222.8750 C   0  0  0  0  0  0  0  0  0  0  0  0
  140.9280   80.8550  223.8200 C   0  0  0  0  0  0  0  0  0  0  0  0
  142.1980   81.2830  224.2190 C   0  0  0  0  0  0  0  0  0  0  0  0
  143.3390   80.6900  223.6750 C   0  0  0  0  0  0  0  0  0  0  0  0
  143.2160   79.6700  222.7290 C   0  0  0  0  0  0  0  0  0  0  0  0
  141.9450   79.2290  222.3250 C   0  0  0  0  0  0  0  0  0  0  0  0
  141.8170   78.1590  221.2620 C   0  0  2  0  0  0  0  0  0  0  0  0
  142.1040   78.7480  219.9070 C   0  0  0  0  0  0  0  0  0  0  0  0
  142.7240   78.1090  218.8350 C   0  0  0  0  0  0  0  0  0  0  0  0
  142.7640   78.9250  217.7570 N   0  0  0  0  0  0  0  0  0  0  0  0
  142.1660   80.0680  218.1340 C   0  0  0  0  0  0  0  0  0  0  0  0
  141.9550   81.2040  217.3540 C   0  0  0  0  0  0  0  0  0  0  0  0
  141.2890   82.2930  217.9460 C   0  0  0  0  0  0  0  0  0  0  0  0
  140.8520   82.2210  219.2880 C   0  0  0  0  0  0  0  0  0  0  0  0
  141.0770   81.0610  220.0500 C   0  0  0  0  0  0  0  0  0  0  0  0
  141.7450   79.9980  219.4380 C   0  0  0  0  0  0  0  0  0  0  0  0
  140.9789   74.9418  218.6958 H   0  0  0  0  0  0  0  0  0  0  0  0
  141.8552   76.4707  219.0645 H   0  0  0  0  0  0  0  0  0  0  0  0
  141.4569   72.9350  220.3596 H   0  0  0  0  0  0  0  0  0  0  0  0
  143.4096   71.5729  221.1025 H   0  0  0  0  0  0  0  0  0  0  0  0
  145.6850   72.5984  221.2035 H   0  0  0  0  0  0  0  0  0  0  0  0
  146.0082   74.9868  220.5601 H   0  0  0  0  0  0  0  0  0  0  0  0
  144.0628   76.3533  219.7964 H   0  0  0  0  0  0  0  0  0  0  0  0
  138.3186   77.9120  221.4549 H   0  0  0  0  0  0  0  0  0  0  0  0
  138.5629   79.8998  222.8182 H   0  0  0  0  0  0  0  0  0  0  0  0
  140.0308   81.3254  224.2488 H   0  0  0  0  0  0  0  0  0  0  0  0
  142.2982   82.0877  224.9622 H   0  0  0  0  0  0  0  0  0  0  0  0
  144.3369   81.0269  223.9922 H   0  0  0  0  0  0  0  0  0  0  0  0
  144.1179   79.2102  222.2986 H   0  0  0  0  0  0  0  0  0  0  0  0
  142.5498   77.3705  221.4885 H   0  0  0  0  0  0  0  0  0  0  0  0
  143.1246   77.0849  218.8617 H   0  0  0  0  0  0  0  0  0  0  0  0
  143.1680   78.7020  216.8200 H   0  0  0  0  0  0  0  0  0  0  0  0
  142.2980   81.2476  216.3098 H   0  0  0  0  0  0  0  0  0  0  0  0
  141.1073   83.2063  217.3604 H   0  0  0  0  0  0  0  0  0  0  0  0
  140.3321   83.0787  219.7397 H   0  0  0  0  0  0  0  0  0  0  0  0
  140.7379   80.9929  221.0942 H   0  0  0  0  0  0  0  0  0  0  0  0
  1  2  2  0
  2  3  2  0
  2  4  1  0
  4  5  1  0
  5  6  2  0
  6  7  1  0
  7  8  2  0
  8  9  1  0
  9 10  2  0
  2 11  1  0
 11 12  1  0
 12 13  2  0
 13 14  1  0
 14 15  2  0
 15 16  1  0
 16 17  2  0
 17 18  1  0
 18 19  2  0
 19 20  1  0
 20 21  1  0
 21 22  2  0
 22 23  1  0
 23 24  1  0
 24 25  2  0
 25 26  1  0
 26 27  2  0
 27 28  1  0
 28 29  2  0
 10  5  1  0
 20 11  1  0
 29 21  1  0
 19 14  1  0
 29 24  1  0
  4 30  1  0
  4 31  1  0
  6 32  1  0
  7 33  1  0
  8 34  1  0
  9 35  1  0
 10 36  1  0
 12 37  1  0
 13 38  1  0
 15 39  1  0
 16 40  1  0
 17 41  1  0
 18 42  1  0
 20 43  1  1
 22 44  1  0
 23 45  1  0
 25 46  1  0
 26 47  1  0
 27 48  1  0
 28 49  1  0
M  END
>  <UniqueID>  (34) 
10

>  <SMILES>  (34) 
O=S(=O)(Cc1ccccc1)N1C=Cc2ccccc2[C@@H]1c1c[nH]c2ccccc12

>  <Energy>  (34) 
80.55466081329438

>  <Genealogy>  (34) 
O=S(=O)(Cc1ccccc1)N1C=Cc2ccccc2[C@@H]1c1c[nH]c2ccccc12 (chirality)
O=S(=O)(Cc1ccccc1)N1C=Cc2ccccc2[C@@H]1c1c[nH]c2ccccc12 (3D coordinates assigned)
O=S(=O)(Cc1ccccc1)N1C=Cc2ccccc2[C@@H]1c1c[nH]c2ccccc12 (nonaromatic ring conformer: 80.55466081329438 kcal/mol)

>  <smiles>  (34) 
O=S(=O)(Cc1ccccc1)N1C=Cc2ccccc2C1c1c[nH]c2ccccc12

>  <score_type>  (34) 
oracle

>  <origin>  (34) 
autodockgpu

>  <m_score__min__energy>  (34) 
-8.5399999999999991

>  <m_primary>  (34) 
energy

>  <meeko>  (34) 
{"free_energy": -8.43, "intermolecular_energy": -9.63, "internal_energy": -1.71, "cluster_size": 11, "cluster_id": 1, "rank_in_cluster": 10}

>  <energy>  (34) 
-6.88

>  <cluster_rmsd>  (34) 
0.0

>  <rmsd>  (34) 
270.73

>  <cluster>  (34) 
3

$$$$
YCOHEPDJLXZVBZ-XMMPIXPANA-N
     RDKit          3D

 49 53  0  0  0  0  0  0  0  0999 V2000
  140.6050   74.9830  221.9700 O   0  0  0  0  0  0  0  0  0  0  0  0
  140.3330   75.8740  220.7900 S   0  0  0  0  0  0  0  0  0  0  0  0
  138.9320   75.6190  220.3070 O   0  0  0  0  0  0  0  0  0  0  0  0
  141.4950   75.5110  219.4850 C   0  0  0  0  0  0  0  0  0  0  0  0
  142.6500   74.7170  220.0310 C   0  0  0  0  0  0  0  0  0  0  0  0
  142.4780   73.3670  220.3850 C   0  0  0  0  0  0  0  0  0  0  0  0
  143.5720   72.6030  220.7970 C   0  0  0  0  0  0  0  0  0  0  0  0
  144.8440   73.1790  220.8620 C   0  0  0  0  0  0  0  0  0  0  0  0
  145.0230   74.5190  220.5120 C   0  0  0  0  0  0  0  0  0  0  0  0
  143.9320   75.2870  220.0930 C   0  0  0  0  0  0  0  0  0  0  0  0
  140.4950   77.5400  221.2560 N   0  0  0  0  0  0  0  0  0  0  0  0
  139.3290   78.2670  221.6790 C   0  0  0  0  0  0  0  0  0  0  0  0
  139.4450   79.3630  222.4250 C   0  0  0  0  0  0  0  0  0  0  0  0
  140.7740   79.8400  222.8460 C   0  0  0  0  0  0  0  0  0  0  0  0
  140.8830   80.8790  223.7820 C   0  0  0  0  0  0  0  0  0  0  0  0
  142.1430   81.3080  224.2100 C   0  0  0  0  0  0  0  0  0  0  0  0
  143.2970   80.7050  223.7050 C   0  0  0  0  0  0  0  0  0  0  0  0
  143.1970   79.6740  222.7680 C   0  0  0  0  0  0  0  0  0  0  0  0
  141.9360   79.2310  222.3350 C   0  0  0  0  0  0  0  0  0  0  0  0
  141.8350   78.1480  221.2830 C   0  0  2  0  0  0  0  0  0  0  0  0
  142.1600   78.7200  219.9280 C   0  0  0  0  0  0  0  0  0  0  0  0
  142.7870   78.0590  218.8740 C   0  0  0  0  0  0  0  0  0  0  0  0
  142.8650   78.8650  217.7910 N   0  0  0  0  0  0  0  0  0  0  0  0
  142.2840   80.0230  218.1460 C   0  0  0  0  0  0  0  0  0  0  0  0
  142.1120   81.1570  217.3540 C   0  0  0  0  0  0  0  0  0  0  0  0
  141.4570   82.2640  217.9230 C   0  0  0  0  0  0  0  0  0  0  0  0
  140.9930   82.2130  219.2570 C   0  0  0  0  0  0  0  0  0  0  0  0
  141.1790   81.0550  220.0320 C   0  0  0  0  0  0  0  0  0  0  0  0
  141.8360   79.9730  219.4420 C   0  0  0  0  0  0  0  0  0  0  0  0
  140.9909   74.9281  218.7001 H   0  0  0  0  0  0  0  0  0  0  0  0
  141.8723   76.4548  219.0645 H   0  0  0  0  0  0  0  0  0  0  0  0
  141.4781   72.9111  220.3372 H   0  0  0  0  0  0  0  0  0  0  0  0
  143.4326   71.5467  221.0707 H   0  0  0  0  0  0  0  0  0  0  0  0
  145.7043   72.5765  221.1890 H   0  0  0  0  0  0  0  0  0  0  0  0
  146.0242   74.9713  220.5660 H   0  0  0  0  0  0  0  0  0  0  0  0
  144.0784   76.3402  219.8113 H   0  0  0  0  0  0  0  0  0  0  0  0
  138.3303   77.9136  221.3829 H   0  0  0  0  0  0  0  0  0  0  0  0
  138.5439   79.9158  222.7289 H   0  0  0  0  0  0  0  0  0  0  0  0
  139.9757   81.3570  224.1799 H   0  0  0  0  0  0  0  0  0  0  0  0
  142.2255   82.1217  224.9456 H   0  0  0  0  0  0  0  0  0  0  0  0
  144.2868   81.0427  224.0459 H   0  0  0  0  0  0  0  0  0  0  0  0
  144.1090   79.2071  222.3676 H   0  0  0  0  0  0  0  0  0  0  0  0
  142.5593   77.3610  221.5399 H   0  0  0  0  0  0  0  0  0  0  0  0
  143.1653   77.0270  218.9167 H   0  0  0  0  0  0  0  0  0  0  0  0
  143.2820   78.6260  216.8640 H   0  0  0  0  0  0  0  0  0  0  0  0
  142.4770   81.1853  216.3167 H   0  0  0  0  0  0  0  0  0  0  0  0
  141.3049   83.1753  217.3259 H   0  0  0  0  0  0  0  0  0  0  0  0
  140.4829   83.0852  219.6917 H   0  0  0  0  0  0  0  0  0  0  0  0
  140.8186   81.0028  221.0700 H   0  0  0  0  0  0  0  0  0  0  0  0
  1  2  2  0
  2  3  2  0
  2  4  1  0
  4  5  1  0
  5  6  2  0
  6  7  1  0
  7  8  2  0
  8  9  1  0
  9 10  2  0
  2 11  1  0
 11 12  1  0
 12 13  2  0
 13 14  1  0
 14 15  2  0
 15 16  1  0
 16 17  2  0
 17 18  1  0
 18 19  2  0
 19 20  1  0
 20 21  1  0
 21 22  2  0
 22 23  1  0
 23 24  1  0
 24 25  2  0
 25 26  1  0
 26 27  2  0
 27 28  1  0
 28 29  2  0
 10  5  1  0
 20 11  1  0
 29 21  1  0
 19 14  1  0
 29 24  1  0
  4 30  1  0
  4 31  1  0
  6 32  1  0
  7 33  1  0
  8 34  1  0
  9 35  1  0
 10 36  1  0
 12 37  1  0
 13 38  1  0
 15 39  1  0
 16 40  1  0
 17 41  1  0
 18 42  1  0
 20 43  1  1
 22 44  1  0
 23 45  1  0
 25 46  1  0
 26 47  1  0
 27 48  1  0
 28 49  1  0
M  END
>  <UniqueID>  (35) 
10

>  <SMILES>  (35) 
O=S(=O)(Cc1ccccc1)N1C=Cc2ccccc2[C@@H]1c1c[nH]c2ccccc12

>  <Energy>  (35) 
80.55466081329438

>  <Genealogy>  (35) 
O=S(=O)(Cc1ccccc1)N1C=Cc2ccccc2[C@@H]1c1c[nH]c2ccccc12 (chirality)
O=S(=O)(Cc1ccccc1)N1C=Cc2ccccc2[C@@H]1c1c[nH]c2ccccc12 (3D coordinates assigned)
O=S(=O)(Cc1ccccc1)N1C=Cc2ccccc2[C@@H]1c1c[nH]c2ccccc12 (nonaromatic ring conformer: 80.55466081329438 kcal/mol)

>  <smiles>  (35) 
O=S(=O)(Cc1ccccc1)N1C=Cc2ccccc2C1c1c[nH]c2ccccc12

>  <score_type>  (35) 
oracle

>  <origin>  (35) 
autodockgpu

>  <m_score__min__energy>  (35) 
-8.5399999999999991

>  <m_primary>  (35) 
energy

>  <meeko>  (35) 
{"free_energy": -8.47, "intermolecular_energy": -9.66, "internal_energy": -1.67, "cluster_size": 11, "cluster_id": 1, "rank_in_cluster": 7}

>  <energy>  (35) 
-6.75

>  <cluster_rmsd>  (35) 
0.0

>  <rmsd>  (35) 
270.78

>  <cluster>  (35) 
4

$$$$
YCOHEPDJLXZVBZ-XMMPIXPANA-N
     RDKit          3D

 49 53  0  0  0  0  0  0  0  0999 V2000
  142.1550   78.7480  224.0000 O   0  0  0  0  0  0  0  0  0  0  0  0
  142.2880   79.9290  223.0790 S   0  0  0  0  0  0  0  0  0  0  0  0
  143.7210   80.3810  223.0790 O   0  0  0  0  0  0  0  0  0  0  0  0
  141.2390   81.2550  223.6530 C   0  0  0  0  0  0  0  0  0  0  0  0
  139.8010   80.9470  223.3350 C   0  0  0  0  0  0  0  0  0  0  0  0
  139.0790   81.7660  222.4500 C   0  0  0  0  0  0  0  0  0  0  0  0
  137.7770   81.4240  222.0770 C   0  0  0  0  0  0  0  0  0  0  0  0
  137.1860   80.2640  222.5850 C   0  0  0  0  0  0  0  0  0  0  0  0
  137.8960   79.4440  223.4650 C   0  0  0  0  0  0  0  0  0  0  0  0
  139.2020   79.7800  223.8370 C   0  0  0  0  0  0  0  0  0  0  0  0
  141.8160   79.4810  221.4690 N   0  0  0  0  0  0  0  0  0  0  0  0
  141.4140   80.5070  220.5450 C   0  0  0  0  0  0  0  0  0  0  0  0
  141.4540   80.2920  219.2320 C   0  0  0  0  0  0  0  0  0  0  0  0
  141.9300   79.0030  218.7020 C   0  0  0  0  0  0  0  0  0  0  0  0
  142.1490   78.8460  217.3260 C   0  0  0  0  0  0  0  0  0  0  0  0
  142.6360   77.6350  216.8250 C   0  0  0  0  0  0  0  0  0  0  0  0
  142.9030   76.5760  217.6950 C   0  0  0  0  0  0  0  0  0  0  0  0
  142.6830   76.7210  219.0660 C   0  0  0  0  0  0  0  0  0  0  0  0
  142.1990   77.9350  219.5810 C   0  0  0  0  0  0  0  0  0  0  0  0
  141.9140   78.0710  221.0600 C   0  0  2  0  0  0  0  0  0  0  0  0
  140.6340   77.3540  221.4020 C   0  0  0  0  0  0  0  0  0  0  0  0
  140.4720   76.3480  222.3520 C   0  0  0  0  0  0  0  0  0  0  0  0
  139.1740   75.9760  222.4290 N   0  0  0  0  0  0  0  0  0  0  0  0
  138.5140   76.7430  221.5450 C   0  0  0  0  0  0  0  0  0  0  0  0
  137.1460   76.7330  221.2770 C   0  0  0  0  0  0  0  0  0  0  0  0
  136.6570   77.6370  220.3170 C   0  0  0  0  0  0  0  0  0  0  0  0
  137.5370   78.5230  219.6550 C   0  0  0  0  0  0  0  0  0  0  0  0
  138.9120   78.5130  219.9470 C   0  0  0  0  0  0  0  0  0  0  0  0
  139.3700   77.6010  220.9010 C   0  0  0  0  0  0  0  0  0  0  0  0
  141.3557   81.3670  224.7410 H   0  0  0  0  0  0  0  0  0  0  0  0
  141.5286   82.1889  223.1490 H   0  0  0  0  0  0  0  0  0  0  0  0
  139.5412   82.6802  222.0493 H   0  0  0  0  0  0  0  0  0  0  0  0
  137.2167   82.0680  221.3832 H   0  0  0  0  0  0  0  0  0  0  0  0
  136.1602   79.9963  222.2914 H   0  0  0  0  0  0  0  0  0  0  0  0
  137.4277   78.5330  223.8660 H   0  0  0  0  0  0  0  0  0  0  0  0
  139.7613   79.1285  224.5245 H   0  0  0  0  0  0  0  0  0  0  0  0
  141.0699   81.4794  220.9272 H   0  0  0  0  0  0  0  0  0  0  0  0
  141.1295   81.0819  218.5386 H   0  0  0  0  0  0  0  0  0  0  0  0
  141.9370   79.6782  216.6386 H   0  0  0  0  0  0  0  0  0  0  0  0
  142.8089   77.5165  215.7452 H   0  0  0  0  0  0  0  0  0  0  0  0
  143.2878   75.6246  217.2990 H   0  0  0  0  0  0  0  0  0  0  0  0
  142.8895   75.8812  219.7457 H   0  0  0  0  0  0  0  0  0  0  0  0
  142.7545   77.6179  221.6062 H   0  0  0  0  0  0  0  0  0  0  0  0
  141.2851   75.9170  222.9545 H   0  0  0  0  0  0  0  0  0  0  0  0
  138.7690   75.2480  223.0580 H   0  0  0  0  0  0  0  0  0  0  0  0
  136.4704   76.0400  221.7998 H   0  0  0  0  0  0  0  0  0  0  0  0
  135.5830   77.6546  220.0799 H   0  0  0  0  0  0  0  0  0  0  0  0
  137.1430   79.2255  218.9058 H   0  0  0  0  0  0  0  0  0  0  0  0
  139.6050   79.2011  219.4407 H   0  0  0  0  0  0  0  0  0  0  0  0
  1  2  2  0
  2  3  2  0
  2  4  1  0
  4  5  1  0
  5  6  2  0
  6  7  1  0
  7  8  2  0
  8  9  1  0
  9 10  2  0
  2 11  1  0
 11 12  1  0
 12 13  2  0
 13 14  1  0
 14 15  2  0
 15 16  1  0
 16 17  2  0
 17 18  1  0
 18 19  2  0
 19 20  1  0
 20 21  1  0
 21 22  2  0
 22 23  1  0
 23 24  1  0
 24 25  2  0
 25 26  1  0
 26 27  2  0
 27 28  1  0
 28 29  2  0
 10  5  1  0
 20 11  1  0
 29 21  1  0
 19 14  1  0
 29 24  1  0
  4 30  1  0
  4 31  1  0
  6 32  1  0
  7 33  1  0
  8 34  1  0
  9 35  1  0
 10 36  1  0
 12 37  1  0
 13 38  1  0
 15 39  1  0
 16 40  1  0
 17 41  1  0
 18 42  1  0
 20 43  1  1
 22 44  1  0
 23 45  1  0
 25 46  1  0
 26 47  1  0
 27 48  1  0
 28 49  1  0
M  END
>  <UniqueID>  (36) 
10

>  <SMILES>  (36) 
O=S(=O)(Cc1ccccc1)N1C=Cc2ccccc2[C@@H]1c1c[nH]c2ccccc12

>  <Energy>  (36) 
80.55466081329438

>  <Genealogy>  (36) 
O=S(=O)(Cc1ccccc1)N1C=Cc2ccccc2[C@@H]1c1c[nH]c2ccccc12 (chirality)
O=S(=O)(Cc1ccccc1)N1C=Cc2ccccc2[C@@H]1c1c[nH]c2ccccc12 (3D coordinates assigned)
O=S(=O)(Cc1ccccc1)N1C=Cc2ccccc2[C@@H]1c1c[nH]c2ccccc12 (nonaromatic ring conformer: 80.55466081329438 kcal/mol)

>  <smiles>  (36) 
O=S(=O)(Cc1ccccc1)N1C=Cc2ccccc2C1c1c[nH]c2ccccc12

>  <score_type>  (36) 
oracle

>  <origin>  (36) 
autodockgpu

>  <m_score__min__energy>  (36) 
-8.5399999999999991

>  <m_primary>  (36) 
energy

>  <meeko>  (36) 
{"free_energy": -6.71, "intermolecular_energy": -7.91, "internal_energy": -3.01, "cluster_size": 6, "cluster_id": 4, "rank_in_cluster": 4}

>  <energy>  (36) 
-6.75

>  <cluster_rmsd>  (36) 
0.06

>  <rmsd>  (36) 
270.79

>  <cluster>  (36) 
4

$$$$
YCOHEPDJLXZVBZ-XMMPIXPANA-N
     RDKit          3D

 49 53  0  0  0  0  0  0  0  0999 V2000
  142.0220   78.7320  224.0690 O   0  0  0  0  0  0  0  0  0  0  0  0
  142.2620   79.8450  223.0880 S   0  0  0  0  0  0  0  0  0  0  0  0
  143.7190   80.2120  223.1220 O   0  0  0  0  0  0  0  0  0  0  0  0
  141.2740   81.2630  223.5390 C   0  0  0  0  0  0  0  0  0  0  0  0
  139.8240   80.9950  223.2390 C   0  0  0  0  0  0  0  0  0  0  0  0
  139.1340   79.9800  223.9240 C   0  0  0  0  0  0  0  0  0  0  0  0
  137.7640   79.7980  223.7180 C   0  0  0  0  0  0  0  0  0  0  0  0
  137.0740   80.6240  222.8270 C   0  0  0  0  0  0  0  0  0  0  0  0
  137.7530   81.6350  222.1430 C   0  0  0  0  0  0  0  0  0  0  0  0
  139.1230   81.8250  222.3490 C   0  0  0  0  0  0  0  0  0  0  0  0
  141.8270   79.3290  221.4870 N   0  0  0  0  0  0  0  0  0  0  0  0
  141.5290   80.3190  220.4880 C   0  0  0  0  0  0  0  0  0  0  0  0
  141.6080   80.0210  219.1930 C   0  0  0  0  0  0  0  0  0  0  0  0
  142.0200   78.6750  218.7610 C   0  0  0  0  0  0  0  0  0  0  0  0
  142.2840   78.4200  217.4080 C   0  0  0  0  0  0  0  0  0  0  0  0
  142.7100   77.1530  217.0020 C   0  0  0  0  0  0  0  0  0  0  0  0
  142.8730   76.1340  217.9430 C   0  0  0  0  0  0  0  0  0  0  0  0
  142.6080   76.3770  219.2920 C   0  0  0  0  0  0  0  0  0  0  0  0
  142.1840   77.6490  219.7120 C   0  0  0  0  0  0  0  0  0  0  0  0
  141.8490   77.8930  221.1680 C   0  0  2  0  0  0  0  0  0  0  0  0
  140.5130   77.2800  221.4940 C   0  0  0  0  0  0  0  0  0  0  0  0
  140.2730   76.2280  222.3760 C   0  0  0  0  0  0  0  0  0  0  0  0
  138.9470   75.9780  222.4640 N   0  0  0  0  0  0  0  0  0  0  0  0
  138.3470   76.8670  221.6550 C   0  0  0  0  0  0  0  0  0  0  0  0
  136.9790   77.0080  221.4260 C   0  0  0  0  0  0  0  0  0  0  0  0
  136.5600   78.0230  220.5460 C   0  0  0  0  0  0  0  0  0  0  0  0
  137.5090   78.8660  219.9230 C   0  0  0  0  0  0  0  0  0  0  0  0
  138.8820   78.7010  220.1740 C   0  0  0  0  0  0  0  0  0  0  0  0
  139.2690   77.6830  221.0490 C   0  0  0  0  0  0  0  0  0  0  0  0
  141.3928   81.4630  224.6141 H   0  0  0  0  0  0  0  0  0  0  0  0
  141.6080   82.1357  222.9586 H   0  0  0  0  0  0  0  0  0  0  0  0
  139.6744   79.3266  224.6247 H   0  0  0  0  0  0  0  0  0  0  0  0
  137.2281   79.0035  224.2579 H   0  0  0  0  0  0  0  0  0  0  0  0
  135.9960   80.4781  222.6642 H   0  0  0  0  0  0  0  0  0  0  0  0
  137.2087   82.2833  221.4406 H   0  0  0  0  0  0  0  0  0  0  0  0
  139.6527   82.6262  221.8128 H   0  0  0  0  0  0  0  0  0  0  0  0
  141.2329   81.3324  220.7967 H   0  0  0  0  0  0  0  0  0  0  0  0
  141.3639   80.7854  218.4406 H   0  0  0  0  0  0  0  0  0  0  0  0
  142.1553   79.2199  216.6639 H   0  0  0  0  0  0  0  0  0  0  0  0
  142.9174   76.9577  215.9395 H   0  0  0  0  0  0  0  0  0  0  0  0
  143.2108   75.1380  217.6207 H   0  0  0  0  0  0  0  0  0  0  0  0
  142.7316   75.5696  220.0288 H   0  0  0  0  0  0  0  0  0  0  0  0
  142.6346   77.4226  221.7776 H   0  0  0  0  0  0  0  0  0  0  0  0
  141.0527   75.6783  222.9236 H   0  0  0  0  0  0  0  0  0  0  0  0
  138.4870   75.2480  223.0520 H   0  0  0  0  0  0  0  0  0  0  0  0
  136.2503   76.3468  221.9176 H   0  0  0  0  0  0  0  0  0  0  0  0
  135.4881   78.1614  220.3416 H   0  0  0  0  0  0  0  0  0  0  0  0
  137.1703   79.6565  219.2371 H   0  0  0  0  0  0  0  0  0  0  0  0
  139.6284   79.3529  219.6965 H   0  0  0  0  0  0  0  0  0  0  0  0
  1  2  2  0
  2  3  2  0
  2  4  1  0
  4  5  1  0
  5  6  2  0
  6  7  1  0
  7  8  2  0
  8  9  1  0
  9 10  2  0
  2 11  1  0
 11 12  1  0
 12 13  2  0
 13 14  1  0
 14 15  2  0
 15 16  1  0
 16 17  2  0
 17 18  1  0
 18 19  2  0
 19 20  1  0
 20 21  1  0
 21 22  2  0
 22 23  1  0
 23 24  1  0
 24 25  2  0
 25 26  1  0
 26 27  2  0
 27 28  1  0
 28 29  2  0
 10  5  1  0
 20 11  1  0
 29 21  1  0
 19 14  1  0
 29 24  1  0
  4 30  1  0
  4 31  1  0
  6 32  1  0
  7 33  1  0
  8 34  1  0
  9 35  1  0
 10 36  1  0
 12 37  1  0
 13 38  1  0
 15 39  1  0
 16 40  1  0
 17 41  1  0
 18 42  1  0
 20 43  1  1
 22 44  1  0
 23 45  1  0
 25 46  1  0
 26 47  1  0
 27 48  1  0
 28 49  1  0
M  END
>  <UniqueID>  (37) 
10

>  <SMILES>  (37) 
O=S(=O)(Cc1ccccc1)N1C=Cc2ccccc2[C@@H]1c1c[nH]c2ccccc12

>  <Energy>  (37) 
80.55466081329438

>  <Genealogy>  (37) 
O=S(=O)(Cc1ccccc1)N1C=Cc2ccccc2[C@@H]1c1c[nH]c2ccccc12 (chirality)
O=S(=O)(Cc1ccccc1)N1C=Cc2ccccc2[C@@H]1c1c[nH]c2ccccc12 (3D coordinates assigned)
O=S(=O)(Cc1ccccc1)N1C=Cc2ccccc2[C@@H]1c1c[nH]c2ccccc12 (nonaromatic ring conformer: 80.55466081329438 kcal/mol)

>  <smiles>  (37) 
O=S(=O)(Cc1ccccc1)N1C=Cc2ccccc2C1c1c[nH]c2ccccc12

>  <score_type>  (37) 
oracle

>  <origin>  (37) 
autodockgpu

>  <m_score__min__energy>  (37) 
-8.5399999999999991

>  <m_primary>  (37) 
energy

>  <meeko>  (37) 
{"free_energy": -6.75, "intermolecular_energy": -7.95, "internal_energy": -2.97, "cluster_size": 6, "cluster_id": 4, "rank_in_cluster": 1}

>  <energy>  (37) 
-6.74

>  <cluster_rmsd>  (37) 
0.06

>  <rmsd>  (37) 
270.79

>  <cluster>  (37) 
4

$$$$
YCOHEPDJLXZVBZ-XMMPIXPANA-N
     RDKit          3D

 49 53  0  0  0  0  0  0  0  0999 V2000
  140.6300   74.9900  221.9660 O   0  0  0  0  0  0  0  0  0  0  0  0
  140.3750   75.8890  220.7890 S   0  0  0  0  0  0  0  0  0  0  0  0
  138.9920   75.6180  220.2670 O   0  0  0  0  0  0  0  0  0  0  0  0
  141.5770   75.5560  219.5110 C   0  0  0  0  0  0  0  0  0  0  0  0
  142.6970   74.7200  220.0650 C   0  0  0  0  0  0  0  0  0  0  0  0
  142.4730   73.3780  220.4190 C   0  0  0  0  0  0  0  0  0  0  0  0
  143.5350   72.5740  220.8380 C   0  0  0  0  0  0  0  0  0  0  0  0
  144.8270   73.1010  220.9090 C   0  0  0  0  0  0  0  0  0  0  0  0
  145.0590   74.4330  220.5590 C   0  0  0  0  0  0  0  0  0  0  0  0
  144.0000   75.2410  220.1340 C   0  0  0  0  0  0  0  0  0  0  0  0
  140.5000   77.5520  221.2750 N   0  0  0  0  0  0  0  0  0  0  0  0
  139.3260   78.2350  221.7450 C   0  0  0  0  0  0  0  0  0  0  0  0
  139.4310   79.3240  222.5040 C   0  0  0  0  0  0  0  0  0  0  0  0
  140.7560   79.8370  222.8910 C   0  0  0  0  0  0  0  0  0  0  0  0
  140.8630   80.8650  223.8390 C   0  0  0  0  0  0  0  0  0  0  0  0
  142.1210   81.3280  224.2340 C   0  0  0  0  0  0  0  0  0  0  0  0
  143.2770   80.7690  223.6840 C   0  0  0  0  0  0  0  0  0  0  0  0
  143.1800   79.7490  222.7360 C   0  0  0  0  0  0  0  0  0  0  0  0
  141.9210   79.2720  222.3350 C   0  0  0  0  0  0  0  0  0  0  0  0
  141.8200   78.2030  221.2700 C   0  0  2  0  0  0  0  0  0  0  0  0
  142.0840   78.8040  219.9150 C   0  0  0  0  0  0  0  0  0  0  0  0
  142.6210   78.1540  218.8060 C   0  0  0  0  0  0  0  0  0  0  0  0
  142.6630   78.9900  217.7430 N   0  0  0  0  0  0  0  0  0  0  0  0
  142.1490   80.1570  218.1670 C   0  0  0  0  0  0  0  0  0  0  0  0
  141.9720   81.3200  217.4190 C   0  0  0  0  0  0  0  0  0  0  0  0
  141.3960   82.4320  218.0600 C   0  0  0  0  0  0  0  0  0  0  0  0
  141.0120   82.3560  219.4170 C   0  0  0  0  0  0  0  0  0  0  0  0
  141.2000   81.1680  220.1460 C   0  0  0  0  0  0  0  0  0  0  0  0
  141.7790   80.0820  219.4860 C   0  0  0  0  0  0  0  0  0  0  0  0
  141.0913   75.0140  218.6862 H   0  0  0  0  0  0  0  0  0  0  0  0
  141.9853   76.5084  219.1418 H   0  0  0  0  0  0  0  0  0  0  0  0
  141.4571   72.9597  220.3657 H   0  0  0  0  0  0  0  0  0  0  0  0
  143.3541   71.5243  221.1125 H   0  0  0  0  0  0  0  0  0  0  0  0
  145.6620   72.4664  221.2408 H   0  0  0  0  0  0  0  0  0  0  0  0
  146.0764   74.8471  220.6178 H   0  0  0  0  0  0  0  0  0  0  0  0
  144.1876   76.2878  219.8528 H   0  0  0  0  0  0  0  0  0  0  0  0
  138.3301   77.8540  221.4748 H   0  0  0  0  0  0  0  0  0  0  0  0
  138.5228   79.8434  222.8439 H   0  0  0  0  0  0  0  0  0  0  0  0
  139.9544   81.3080  224.2728 H   0  0  0  0  0  0  0  0  0  0  0  0
  142.2010   82.1335  224.9788 H   0  0  0  0  0  0  0  0  0  0  0  0
  144.2660   81.1334  223.9987 H   0  0  0  0  0  0  0  0  0  0  0  0
  144.0933   79.3169  222.3011 H   0  0  0  0  0  0  0  0  0  0  0  0
  142.5766   77.4361  221.4923 H   0  0  0  0  0  0  0  0  0  0  0  0
  142.9627   77.1085  218.7960 H   0  0  0  0  0  0  0  0  0  0  0  0
  143.0140   78.7650  216.7850 H   0  0  0  0  0  0  0  0  0  0  0  0
  142.2729   81.3667  216.3620 H   0  0  0  0  0  0  0  0  0  0  0  0
  141.2437   83.3668  217.5006 H   0  0  0  0  0  0  0  0  0  0  0  0
  140.5627   83.2322  219.9073 H   0  0  0  0  0  0  0  0  0  0  0  0
  140.9006   81.0966  221.2021 H   0  0  0  0  0  0  0  0  0  0  0  0
  1  2  2  0
  2  3  2  0
  2  4  1  0
  4  5  1  0
  5  6  2  0
  6  7  1  0
  7  8  2  0
  8  9  1  0
  9 10  2  0
  2 11  1  0
 11 12  1  0
 12 13  2  0
 13 14  1  0
 14 15  2  0
 15 16  1  0
 16 17  2  0
 17 18  1  0
 18 19  2  0
 19 20  1  0
 20 21  1  0
 21 22  2  0
 22 23  1  0
 23 24  1  0
 24 25  2  0
 25 26  1  0
 26 27  2  0
 27 28  1  0
 28 29  2  0
 10  5  1  0
 20 11  1  0
 29 21  1  0
 19 14  1  0
 29 24  1  0
  4 30  1  0
  4 31  1  0
  6 32  1  0
  7 33  1  0
  8 34  1  0
  9 35  1  0
 10 36  1  0
 12 37  1  0
 13 38  1  0
 15 39  1  0
 16 40  1  0
 17 41  1  0
 18 42  1  0
 20 43  1  1
 22 44  1  0
 23 45  1  0
 25 46  1  0
 26 47  1  0
 27 48  1  0
 28 49  1  0
M  END
>  <UniqueID>  (38) 
10

>  <SMILES>  (38) 
O=S(=O)(Cc1ccccc1)N1C=Cc2ccccc2[C@@H]1c1c[nH]c2ccccc12

>  <Energy>  (38) 
80.55466081329438

>  <Genealogy>  (38) 
O=S(=O)(Cc1ccccc1)N1C=Cc2ccccc2[C@@H]1c1c[nH]c2ccccc12 (chirality)
O=S(=O)(Cc1ccccc1)N1C=Cc2ccccc2[C@@H]1c1c[nH]c2ccccc12 (3D coordinates assigned)
O=S(=O)(Cc1ccccc1)N1C=Cc2ccccc2[C@@H]1c1c[nH]c2ccccc12 (nonaromatic ring conformer: 80.55466081329438 kcal/mol)

>  <smiles>  (38) 
O=S(=O)(Cc1ccccc1)N1C=Cc2ccccc2C1c1c[nH]c2ccccc12

>  <score_type>  (38) 
oracle

>  <origin>  (38) 
autodockgpu

>  <m_score__min__energy>  (38) 
-8.5399999999999991

>  <m_primary>  (38) 
energy

>  <meeko>  (38) 
{"free_energy": -8.54, "intermolecular_energy": -9.74, "internal_energy": -1.57, "cluster_size": 11, "cluster_id": 1, "rank_in_cluster": 1}

>  <energy>  (38) 
-6.71

>  <cluster_rmsd>  (38) 
0.31

>  <rmsd>  (38) 
270.74

>  <cluster>  (38) 
4

$$$$
YCOHEPDJLXZVBZ-XMMPIXPANA-N
     RDKit          3D

 49 53  0  0  0  0  0  0  0  0999 V2000
  142.1290   78.7500  224.0000 O   0  0  0  0  0  0  0  0  0  0  0  0
  142.2870   79.9200  223.0700 S   0  0  0  0  0  0  0  0  0  0  0  0
  143.7270   80.3520  223.0800 O   0  0  0  0  0  0  0  0  0  0  0  0
  141.2510   81.2660  223.6200 C   0  0  0  0  0  0  0  0  0  0  0  0
  139.8100   80.9650  223.3080 C   0  0  0  0  0  0  0  0  0  0  0  0
  139.0950   81.7730  222.4080 C   0  0  0  0  0  0  0  0  0  0  0  0
  137.7900   81.4350  222.0420 C   0  0  0  0  0  0  0  0  0  0  0  0
  137.1880   80.2910  222.5720 C   0  0  0  0  0  0  0  0  0  0  0  0
  137.8920   79.4820  223.4680 C   0  0  0  0  0  0  0  0  0  0  0  0
  139.2000   79.8130  223.8330 C   0  0  0  0  0  0  0  0  0  0  0  0
  141.8270   79.4620  221.4590 N   0  0  0  0  0  0  0  0  0  0  0  0
  141.4450   80.4840  220.5220 C   0  0  0  0  0  0  0  0  0  0  0  0
  141.4950   80.2570  219.2110 C   0  0  0  0  0  0  0  0  0  0  0  0
  141.9620   78.9580  218.6980 C   0  0  0  0  0  0  0  0  0  0  0  0
  142.1930   78.7860  217.3250 C   0  0  0  0  0  0  0  0  0  0  0  0
  142.6710   77.5650  216.8410 C   0  0  0  0  0  0  0  0  0  0  0  0
  142.9190   76.5110  217.7220 C   0  0  0  0  0  0  0  0  0  0  0  0
  142.6870   76.6710  219.0900 C   0  0  0  0  0  0  0  0  0  0  0  0
  142.2110   77.8950  219.5890 C   0  0  0  0  0  0  0  0  0  0  0  0
  141.9130   78.0480  221.0640 C   0  0  2  0  0  0  0  0  0  0  0  0
  140.6230   77.3470  221.3990 C   0  0  0  0  0  0  0  0  0  0  0  0
  140.4430   76.3420  222.3470 C   0  0  0  0  0  0  0  0  0  0  0  0
  139.1400   75.9880  222.4180 N   0  0  0  0  0  0  0  0  0  0  0  0
  138.4940   76.7660  221.5330 C   0  0  0  0  0  0  0  0  0  0  0  0
  137.1270   76.7750  221.2600 C   0  0  0  0  0  0  0  0  0  0  0  0
  136.6540   77.6870  220.3000 C   0  0  0  0  0  0  0  0  0  0  0  0
  137.5480   78.5620  219.6440 C   0  0  0  0  0  0  0  0  0  0  0  0
  138.9220   78.5320  219.9400 C   0  0  0  0  0  0  0  0  0  0  0  0
  139.3640   77.6130  220.8950 C   0  0  0  0  0  0  0  0  0  0  0  0
  141.3693   81.3969  224.7058 H   0  0  0  0  0  0  0  0  0  0  0  0
  141.5489   82.1879  223.0992 H   0  0  0  0  0  0  0  0  0  0  0  0
  139.5648   82.6755  221.9899 H   0  0  0  0  0  0  0  0  0  0  0  0
  137.2356   82.0703  221.3356 H   0  0  0  0  0  0  0  0  0  0  0  0
  136.1597   80.0271  222.2840 H   0  0  0  0  0  0  0  0  0  0  0  0
  137.4159   78.5831  223.8868 H   0  0  0  0  0  0  0  0  0  0  0  0
  139.7534   79.1700  224.5331 H   0  0  0  0  0  0  0  0  0  0  0  0
  141.1080   81.4634  220.8923 H   0  0  0  0  0  0  0  0  0  0  0  0
  141.1858   81.0439  218.5073 H   0  0  0  0  0  0  0  0  0  0  0  0
  141.9975   79.6140  216.6277 H   0  0  0  0  0  0  0  0  0  0  0  0
  142.8521   77.4344  215.7639 H   0  0  0  0  0  0  0  0  0  0  0  0
  143.2980   75.5524  217.3380 H   0  0  0  0  0  0  0  0  0  0  0  0
  142.8777   75.8353  219.7794 H   0  0  0  0  0  0  0  0  0  0  0  0
  142.7429   77.5917  221.6235 H   0  0  0  0  0  0  0  0  0  0  0  0
  141.2475   75.8990  222.9524 H   0  0  0  0  0  0  0  0  0  0  0  0
  138.7230   75.2640  223.0450 H   0  0  0  0  0  0  0  0  0  0  0  0
  136.4401   76.0904  221.7791 H   0  0  0  0  0  0  0  0  0  0  0  0
  135.5814   77.7193  220.0584 H   0  0  0  0  0  0  0  0  0  0  0  0
  137.1662   79.2723  218.8958 H   0  0  0  0  0  0  0  0  0  0  0  0
  139.6263   79.2102  219.4360 H   0  0  0  0  0  0  0  0  0  0  0  0
  1  2  2  0
  2  3  2  0
  2  4  1  0
  4  5  1  0
  5  6  2  0
  6  7  1  0
  7  8  2  0
  8  9  1  0
  9 10  2  0
  2 11  1  0
 11 12  1  0
 12 13  2  0
 13 14  1  0
 14 15  2  0
 15 16  1  0
 16 17  2  0
 17 18  1  0
 18 19  2  0
 19 20  1  0
 20 21  1  0
 21 22  2  0
 22 23  1  0
 23 24  1  0
 24 25  2  0
 25 26  1  0
 26 27  2  0
 27 28  1  0
 28 29  2  0
 10  5  1  0
 20 11  1  0
 29 21  1  0
 19 14  1  0
 29 24  1  0
  4 30  1  0
  4 31  1  0
  6 32  1  0
  7 33  1  0
  8 34  1  0
  9 35  1  0
 10 36  1  0
 12 37  1  0
 13 38  1  0
 15 39  1  0
 16 40  1  0
 17 41  1  0
 18 42  1  0
 20 43  1  1
 22 44  1  0
 23 45  1  0
 25 46  1  0
 26 47  1  0
 27 48  1  0
 28 49  1  0
M  END
>  <UniqueID>  (39) 
10

>  <SMILES>  (39) 
O=S(=O)(Cc1ccccc1)N1C=Cc2ccccc2[C@@H]1c1c[nH]c2ccccc12

>  <Energy>  (39) 
80.55466081329438

>  <Genealogy>  (39) 
O=S(=O)(Cc1ccccc1)N1C=Cc2ccccc2[C@@H]1c1c[nH]c2ccccc12 (chirality)
O=S(=O)(Cc1ccccc1)N1C=Cc2ccccc2[C@@H]1c1c[nH]c2ccccc12 (3D coordinates assigned)
O=S(=O)(Cc1ccccc1)N1C=Cc2ccccc2[C@@H]1c1c[nH]c2ccccc12 (nonaromatic ring conformer: 80.55466081329438 kcal/mol)

>  <smiles>  (39) 
O=S(=O)(Cc1ccccc1)N1C=Cc2ccccc2C1c1c[nH]c2ccccc12

>  <score_type>  (39) 
oracle

>  <origin>  (39) 
autodockgpu

>  <m_score__min__energy>  (39) 
-8.5399999999999991

>  <m_primary>  (39) 
energy

>  <meeko>  (39) 
{"free_energy": -6.71, "intermolecular_energy": -7.9, "internal_energy": -3.02, "cluster_size": 6, "cluster_id": 4, "rank_in_cluster": 5}

>  <energy>  (39) 
-6.71

>  <cluster_rmsd>  (39) 
0.28

>  <rmsd>  (39) 
270.74

>  <cluster>  (39) 
4

$$$$
YCOHEPDJLXZVBZ-XMMPIXPANA-N
     RDKit          3D

 49 53  0  0  0  0  0  0  0  0999 V2000
  140.5570   74.9400  221.9700 O   0  0  0  0  0  0  0  0  0  0  0  0
  140.2890   75.8300  220.7890 S   0  0  0  0  0  0  0  0  0  0  0  0
  138.8830   75.5890  220.3140 O   0  0  0  0  0  0  0  0  0  0  0  0
  141.4410   75.4500  219.4800 C   0  0  0  0  0  0  0  0  0  0  0  0
  142.6020   74.6660  220.0280 C   0  0  0  0  0  0  0  0  0  0  0  0
  142.4400   73.3170  220.3880 C   0  0  0  0  0  0  0  0  0  0  0  0
  143.5390   72.5620  220.8030 C   0  0  0  0  0  0  0  0  0  0  0  0
  144.8080   73.1460  220.8630 C   0  0  0  0  0  0  0  0  0  0  0  0
  144.9770   74.4860  220.5060 C   0  0  0  0  0  0  0  0  0  0  0  0
  143.8800   75.2450  220.0860 C   0  0  0  0  0  0  0  0  0  0  0  0
  140.4720   77.4950  221.2490 N   0  0  0  0  0  0  0  0  0  0  0  0
  139.3150   78.2380  221.6690 C   0  0  0  0  0  0  0  0  0  0  0  0
  139.4440   79.3360  222.4110 C   0  0  0  0  0  0  0  0  0  0  0  0
  140.7780   79.7980  222.8300 C   0  0  0  0  0  0  0  0  0  0  0  0
  140.9000   80.8390  223.7620 C   0  0  0  0  0  0  0  0  0  0  0  0
  142.1650   81.2540  224.1890 C   0  0  0  0  0  0  0  0  0  0  0  0
  143.3120   80.6350  223.6860 C   0  0  0  0  0  0  0  0  0  0  0  0
  143.1990   79.6020  222.7530 C   0  0  0  0  0  0  0  0  0  0  0  0
  141.9330   79.1730  222.3210 C   0  0  0  0  0  0  0  0  0  0  0  0
  141.8180   78.0880  221.2730 C   0  0  2  0  0  0  0  0  0  0  0  0
  142.1500   78.6500  219.9170 C   0  0  0  0  0  0  0  0  0  0  0  0
  142.7760   77.9800  218.8680 C   0  0  0  0  0  0  0  0  0  0  0  0
  142.8620   78.7800  217.7810 N   0  0  0  0  0  0  0  0  0  0  0  0
  142.2870   79.9440  218.1280 C   0  0  0  0  0  0  0  0  0  0  0  0
  142.1240   81.0740  217.3300 C   0  0  0  0  0  0  0  0  0  0  0  0
  141.4750   82.1890  217.8920 C   0  0  0  0  0  0  0  0  0  0  0  0
  141.0070   82.1470  219.2240 C   0  0  0  0  0  0  0  0  0  0  0  0
  141.1830   80.9920  220.0060 C   0  0  0  0  0  0  0  0  0  0  0  0
  141.8350   79.9020  219.4230 C   0  0  0  0  0  0  0  0  0  0  0  0
  140.9316   74.8548  218.7078 H   0  0  0  0  0  0  0  0  0  0  0  0
  141.8131   76.3883  219.0428 H   0  0  0  0  0  0  0  0  0  0  0  0
  141.4432   72.8540  220.3426 H   0  0  0  0  0  0  0  0  0  0  0  0
  143.4062   71.5066  221.0830 H   0  0  0  0  0  0  0  0  0  0  0  0
  145.6728   72.5507  221.1912 H   0  0  0  0  0  0  0  0  0  0  0  0
  145.9753   74.9452  220.5554 H   0  0  0  0  0  0  0  0  0  0  0  0
  144.0186   76.2982  219.8004 H   0  0  0  0  0  0  0  0  0  0  0  0
  138.3121   77.8955  221.3741 H   0  0  0  0  0  0  0  0  0  0  0  0
  138.5496   79.9009  222.7125 H   0  0  0  0  0  0  0  0  0  0  0  0
  139.9987   81.3299  224.1578 H   0  0  0  0  0  0  0  0  0  0  0  0
  142.2573   82.0690  224.9220 H   0  0  0  0  0  0  0  0  0  0  0  0
  144.3059   80.9619  224.0255 H   0  0  0  0  0  0  0  0  0  0  0  0
  144.1052   79.1222  222.3547 H   0  0  0  0  0  0  0  0  0  0  0  0
  142.5328   77.2933  221.5327 H   0  0  0  0  0  0  0  0  0  0  0  0
  143.1479   76.9459  218.9170 H   0  0  0  0  0  0  0  0  0  0  0  0
  143.2800   78.5340  216.8560 H   0  0  0  0  0  0  0  0  0  0  0  0
  142.4910   81.0941  216.2932 H   0  0  0  0  0  0  0  0  0  0  0  0
  141.3313   83.0986  217.2904 H   0  0  0  0  0  0  0  0  0  0  0  0
  140.5010   83.0246  219.6527 H   0  0  0  0  0  0  0  0  0  0  0  0
  140.8193   80.9477  221.0432 H   0  0  0  0  0  0  0  0  0  0  0  0
  1  2  2  0
  2  3  2  0
  2  4  1  0
  4  5  1  0
  5  6  2  0
  6  7  1  0
  7  8  2  0
  8  9  1  0
  9 10  2  0
  2 11  1  0
 11 12  1  0
 12 13  2  0
 13 14  1  0
 14 15  2  0
 15 16  1  0
 16 17  2  0
 17 18  1  0
 18 19  2  0
 19 20  1  0
 20 21  1  0
 21 22  2  0
 22 23  1  0
 23 24  1  0
 24 25  2  0
 25 26  1  0
 26 27  2  0
 27 28  1  0
 28 29  2  0
 10  5  1  0
 20 11  1  0
 29 21  1  0
 19 14  1  0
 29 24  1  0
  4 30  1  0
  4 31  1  0
  6 32  1  0
  7 33  1  0
  8 34  1  0
  9 35  1  0
 10 36  1  0
 12 37  1  0
 13 38  1  0
 15 39  1  0
 16 40  1  0
 17 41  1  0
 18 42  1  0
 20 43  1  1
 22 44  1  0
 23 45  1  0
 25 46  1  0
 26 47  1  0
 27 48  1  0
 28 49  1  0
M  END
>  <UniqueID>  (40) 
10

>  <SMILES>  (40) 
O=S(=O)(Cc1ccccc1)N1C=Cc2ccccc2[C@@H]1c1c[nH]c2ccccc12

>  <Energy>  (40) 
80.55466081329438

>  <Genealogy>  (40) 
O=S(=O)(Cc1ccccc1)N1C=Cc2ccccc2[C@@H]1c1c[nH]c2ccccc12 (chirality)
O=S(=O)(Cc1ccccc1)N1C=Cc2ccccc2[C@@H]1c1c[nH]c2ccccc12 (3D coordinates assigned)
O=S(=O)(Cc1ccccc1)N1C=Cc2ccccc2[C@@H]1c1c[nH]c2ccccc12 (nonaromatic ring conformer: 80.55466081329438 kcal/mol)

>  <smiles>  (40) 
O=S(=O)(Cc1ccccc1)N1C=Cc2ccccc2C1c1c[nH]c2ccccc12

>  <score_type>  (40) 
oracle

>  <origin>  (40) 
autodockgpu

>  <m_score__min__energy>  (40) 
-8.5399999999999991

>  <m_primary>  (40) 
energy

>  <meeko>  (40) 
{"free_energy": -8.45, "intermolecular_energy": -9.64, "internal_energy": -1.69, "cluster_size": 11, "cluster_id": 1, "rank_in_cluster": 9}

>  <energy>  (40) 
-6.71

>  <cluster_rmsd>  (40) 
0.28

>  <rmsd>  (40) 
270.75

>  <cluster>  (40) 
4

$$$$
YCOHEPDJLXZVBZ-DEOSSOPVNA-N
     RDKit          3D

 49 53  0  0  0  0  0  0  0  0999 V2000
  139.1910   75.9780  220.1610 O   0  0  0  0  0  0  0  0  0  0  0  0
  139.2980   76.2870  221.6280 S   0  0  0  0  0  0  0  0  0  0  0  0
  139.7460   75.0470  222.3500 O   0  0  0  0  0  0  0  0  0  0  0  0
  137.7040   76.7990  222.2520 C   0  0  0  0  0  0  0  0  0  0  0  0
  137.6440   78.2990  222.3390 C   0  0  0  0  0  0  0  0  0  0  0  0
  138.1660   78.9630  223.4620 C   0  0  0  0  0  0  0  0  0  0  0  0
  138.1990   80.3590  223.5020 C   0  0  0  0  0  0  0  0  0  0  0  0
  137.7200   81.1030  222.4190 C   0  0  0  0  0  0  0  0  0  0  0  0
  137.2030   80.4500  221.2960 C   0  0  0  0  0  0  0  0  0  0  0  0
  137.1660   79.0530  221.2550 C   0  0  0  0  0  0  0  0  0  0  0  0
  140.4470   77.5660  221.8730 N   0  0  0  0  0  0  0  0  0  0  0  0
  141.2150   77.5940  223.0880 C   0  0  0  0  0  0  0  0  0  0  0  0
  141.7720   78.7270  223.5140 C   0  0  0  0  0  0  0  0  0  0  0  0
  141.5950   79.9750  222.7540 C   0  0  0  0  0  0  0  0  0  0  0  0
  142.0190   81.1960  223.2980 C   0  0  0  0  0  0  0  0  0  0  0  0
  141.8190   82.3860  222.5930 C   0  0  0  0  0  0  0  0  0  0  0  0
  141.1960   82.3640  221.3420 C   0  0  0  0  0  0  0  0  0  0  0  0
  140.7750   81.1510  220.7910 C   0  0  0  0  0  0  0  0  0  0  0  0
  140.9670   79.9500  221.4920 C   0  0  0  0  0  0  0  0  0  0  0  0
  140.5550   78.6350  220.8690 C   0  0  1  0  0  0  0  0  0  0  0  0
  141.5490   78.2390  219.8090 C   0  0  0  0  0  0  0  0  0  0  0  0
  141.9840   79.0210  218.7420 C   0  0  0  0  0  0  0  0  0  0  0  0
  142.8370   78.3230  217.9590 N   0  0  0  0  0  0  0  0  0  0  0  0
  142.9390   77.1040  218.5160 C   0  0  0  0  0  0  0  0  0  0  0  0
  143.6950   76.0280  218.0560 C   0  0  0  0  0  0  0  0  0  0  0  0
  143.6450   74.8270  218.7870 C   0  0  0  0  0  0  0  0  0  0  0  0
  142.8450   74.7300  219.9470 C   0  0  0  0  0  0  0  0  0  0  0  0
  142.0900   75.8320  220.3870 C   0  0  0  0  0  0  0  0  0  0  0  0
  142.1640   77.0110  219.6440 C   0  0  0  0  0  0  0  0  0  0  0  0
  136.9152   76.4415  221.5737 H   0  0  0  0  0  0  0  0  0  0  0  0
  137.5547   76.3726  223.2550 H   0  0  0  0  0  0  0  0  0  0  0  0
  138.5501   78.3813  224.3129 H   0  0  0  0  0  0  0  0  0  0  0  0
  138.6023   80.8738  224.3865 H   0  0  0  0  0  0  0  0  0  0  0  0
  137.7500   82.2021  222.4507 H   0  0  0  0  0  0  0  0  0  0  0  0
  136.8254   81.0354  220.4447 H   0  0  0  0  0  0  0  0  0  0  0  0
  136.7605   78.5420  220.3693 H   0  0  0  0  0  0  0  0  0  0  0  0
  141.3441   76.6707  223.6719 H   0  0  0  0  0  0  0  0  0  0  0  0
  142.3675   78.7297  224.4389 H   0  0  0  0  0  0  0  0  0  0  0  0
  142.5102   81.2172  224.2820 H   0  0  0  0  0  0  0  0  0  0  0  0
  142.1525   83.3418  223.0234 H   0  0  0  0  0  0  0  0  0  0  0  0
  141.0370   83.3025  220.7907 H   0  0  0  0  0  0  0  0  0  0  0  0
  140.2909   81.1371  219.8034 H   0  0  0  0  0  0  0  0  0  0  0  0
  139.5618   78.7742  220.4170 H   0  0  0  0  0  0  0  0  0  0  0  0
  141.6765   80.0616  218.5614 H   0  0  0  0  0  0  0  0  0  0  0  0
  143.3100   78.6620  217.0920 H   0  0  0  0  0  0  0  0  0  0  0  0
  144.3119   76.1148  217.1494 H   0  0  0  0  0  0  0  0  0  0  0  0
  144.2322   73.9587  218.4533 H   0  0  0  0  0  0  0  0  0  0  0  0
  142.8122   73.7858  220.5103 H   0  0  0  0  0  0  0  0  0  0  0  0
  141.4616   75.7667  221.2875 H   0  0  0  0  0  0  0  0  0  0  0  0
  1  2  2  0
  2  3  2  0
  2  4  1  0
  4  5  1  0
  5  6  2  0
  6  7  1  0
  7  8  2  0
  8  9  1  0
  9 10  2  0
  2 11  1  0
 11 12  1  0
 12 13  2  0
 13 14  1  0
 14 15  2  0
 15 16  1  0
 16 17  2  0
 17 18  1  0
 18 19  2  0
 19 20  1  0
 20 21  1  0
 21 22  2  0
 22 23  1  0
 23 24  1  0
 24 25  2  0
 25 26  1  0
 26 27  2  0
 27 28  1  0
 28 29  2  0
 10  5  1  0
 20 11  1  0
 29 21  1  0
 19 14  1  0
 29 24  1  0
  4 30  1  0
  4 31  1  0
  6 32  1  0
  7 33  1  0
  8 34  1  0
  9 35  1  0
 10 36  1  0
 12 37  1  0
 13 38  1  0
 15 39  1  0
 16 40  1  0
 17 41  1  0
 18 42  1  0
 20 43  1  6
 22 44  1  0
 23 45  1  0
 25 46  1  0
 26 47  1  0
 27 48  1  0
 28 49  1  0
M  END
>  <UniqueID>  (41) 
11

>  <SMILES>  (41) 
O=S(=O)(Cc1ccccc1)N1C=Cc2ccccc2[C@H]1c1c[nH]c2ccccc12

>  <Energy>  (41) 
80.99037269278776

>  <Genealogy>  (41) 
O=S(=O)(Cc1ccccc1)N1C=Cc2ccccc2[C@H]1c1c[nH]c2ccccc12 (chirality)
O=S(=O)(Cc1ccccc1)N1C=Cc2ccccc2[C@H]1c1c[nH]c2ccccc12 (3D coordinates assigned)
O=S(=O)(Cc1ccccc1)N1C=Cc2ccccc2[C@H]1c1c[nH]c2ccccc12 (nonaromatic ring conformer: 80.99037269278776 kcal/mol)

>  <smiles>  (41) 
O=S(=O)(Cc1ccccc1)N1C=Cc2ccccc2C1c1c[nH]c2ccccc12

>  <score_type>  (41) 
oracle

>  <origin>  (41) 
autodockgpu

>  <m_score__min__energy>  (41) 
-8.3599999999999994

>  <m_primary>  (41) 
energy

>  <meeko>  (41) 
{"free_energy": -7.14, "intermolecular_energy": -8.33, "internal_energy": -2.62, "cluster_size": 8, "cluster_id": 4, "rank_in_cluster": 4}

>  <energy>  (41) 
-8.36

>  <cluster_rmsd>  (41) 
0.0

>  <rmsd>  (41) 
270.2

>  <cluster>  (41) 
1

$$$$
YCOHEPDJLXZVBZ-DEOSSOPVNA-N
     RDKit          3D

 49 53  0  0  0  0  0  0  0  0999 V2000
  143.6870   80.1360  222.7780 O   0  0  0  0  0  0  0  0  0  0  0  0
  142.2980   80.5540  223.1750 S   0  0  0  0  0  0  0  0  0  0  0  0
  142.4000   81.6300  224.2200 O   0  0  0  0  0  0  0  0  0  0  0  0
  141.4160   79.1530  223.8450 C   0  0  0  0  0  0  0  0  0  0  0  0
  139.9350   79.3480  223.6730 C   0  0  0  0  0  0  0  0  0  0  0  0
  139.3440   80.5820  223.9900 C   0  0  0  0  0  0  0  0  0  0  0  0
  137.9850   80.7970  223.7410 C   0  0  0  0  0  0  0  0  0  0  0  0
  137.2100   79.7850  223.1650 C   0  0  0  0  0  0  0  0  0  0  0  0
  137.7920   78.5560  222.8420 C   0  0  0  0  0  0  0  0  0  0  0  0
  139.1490   78.3370  223.0940 C   0  0  0  0  0  0  0  0  0  0  0  0
  141.4490   81.1550  221.7840 N   0  0  0  0  0  0  0  0  0  0  0  0
  141.4480   82.5680  221.5210 C   0  0  0  0  0  0  0  0  0  0  0  0
  140.5040   83.1160  220.7570 C   0  0  0  0  0  0  0  0  0  0  0  0
  139.4340   82.2830  220.1830 C   0  0  0  0  0  0  0  0  0  0  0  0
  138.3420   82.8850  219.5410 C   0  0  0  0  0  0  0  0  0  0  0  0
  137.3090   82.0980  219.0270 C   0  0  0  0  0  0  0  0  0  0  0  0
  137.3600   80.7070  219.1500 C   0  0  0  0  0  0  0  0  0  0  0  0
  138.4460   80.0990  219.7850 C   0  0  0  0  0  0  0  0  0  0  0  0
  139.4880   80.8810  220.3090 C   0  0  0  0  0  0  0  0  0  0  0  0
  140.6860   80.2160  220.9490 C   0  0  1  0  0  0  0  0  0  0  0  0
  141.5800   79.6390  219.8840 C   0  0  0  0  0  0  0  0  0  0  0  0
  142.1360   80.3220  218.8040 C   0  0  0  0  0  0  0  0  0  0  0  0
  142.8400   79.4750  218.0200 N   0  0  0  0  0  0  0  0  0  0  0  0
  142.7280   78.2620  218.5880 C   0  0  0  0  0  0  0  0  0  0  0  0
  143.2730   77.0640  218.1310 C   0  0  0  0  0  0  0  0  0  0  0  0
  143.0170   75.8980  218.8740 C   0  0  0  0  0  0  0  0  0  0  0  0
  142.2260   75.9560  220.0430 C   0  0  0  0  0  0  0  0  0  0  0  0
  141.6860   77.1780  220.4800 C   0  0  0  0  0  0  0  0  0  0  0  0
  141.9620   78.3190  219.7250 C   0  0  0  0  0  0  0  0  0  0  0  0
  141.7271   78.2399  223.3164 H   0  0  0  0  0  0  0  0  0  0  0  0
  141.6461   79.0602  224.9167 H   0  0  0  0  0  0  0  0  0  0  0  0
  139.9526   81.3825  224.4359 H   0  0  0  0  0  0  0  0  0  0  0  0
  137.5251   81.7626  223.9982 H   0  0  0  0  0  0  0  0  0  0  0  0
  136.1418   79.9565  222.9661 H   0  0  0  0  0  0  0  0  0  0  0  0
  137.1816   77.7608  222.3892 H   0  0  0  0  0  0  0  0  0  0  0  0
  139.6041   77.3688  222.8380 H   0  0  0  0  0  0  0  0  0  0  0  0
  142.2343   83.2032  221.9547 H   0  0  0  0  0  0  0  0  0  0  0  0
  140.5240   84.1969  220.5539 H   0  0  0  0  0  0  0  0  0  0  0  0
  138.2990   83.9797  219.4421 H   0  0  0  0  0  0  0  0  0  0  0  0
  136.4540   82.5739  218.5246 H   0  0  0  0  0  0  0  0  0  0  0  0
  136.5439   80.0897  218.7463 H   0  0  0  0  0  0  0  0  0  0  0  0
  138.4849   79.0034  219.8748 H   0  0  0  0  0  0  0  0  0  0  0  0
  140.3147   79.4111  221.6004 H   0  0  0  0  0  0  0  0  0  0  0  0
  142.0185   81.3994  218.6158 H   0  0  0  0  0  0  0  0  0  0  0  0
  143.3560   79.7170  217.1450 H   0  0  0  0  0  0  0  0  0  0  0  0
  143.8846   77.0313  217.2173 H   0  0  0  0  0  0  0  0  0  0  0  0
  143.4348   74.9357  218.5433 H   0  0  0  0  0  0  0  0  0  0  0  0
  142.0311   75.0374  220.6159 H   0  0  0  0  0  0  0  0  0  0  0  0
  141.0663   77.2332  221.3871 H   0  0  0  0  0  0  0  0  0  0  0  0
  1  2  2  0
  2  3  2  0
  2  4  1  0
  4  5  1  0
  5  6  2  0
  6  7  1  0
  7  8  2  0
  8  9  1  0
  9 10  2  0
  2 11  1  0
 11 12  1  0
 12 13  2  0
 13 14  1  0
 14 15  2  0
 15 16  1  0
 16 17  2  0
 17 18  1  0
 18 19  2  0
 19 20  1  0
 20 21  1  0
 21 22  2  0
 22 23  1  0
 23 24  1  0
 24 25  2  0
 25 26  1  0
 26 27  2  0
 27 28  1  0
 28 29  2  0
 10  5  1  0
 20 11  1  0
 29 21  1  0
 19 14  1  0
 29 24  1  0
  4 30  1  0
  4 31  1  0
  6 32  1  0
  7 33  1  0
  8 34  1  0
  9 35  1  0
 10 36  1  0
 12 37  1  0
 13 38  1  0
 15 39  1  0
 16 40  1  0
 17 41  1  0
 18 42  1  0
 20 43  1  1
 22 44  1  0
 23 45  1  0
 25 46  1  0
 26 47  1  0
 27 48  1  0
 28 49  1  0
M  END
>  <UniqueID>  (42) 
11

>  <SMILES>  (42) 
O=S(=O)(Cc1ccccc1)N1C=Cc2ccccc2[C@H]1c1c[nH]c2ccccc12

>  <Energy>  (42) 
80.99037269278776

>  <Genealogy>  (42) 
O=S(=O)(Cc1ccccc1)N1C=Cc2ccccc2[C@H]1c1c[nH]c2ccccc12 (chirality)
O=S(=O)(Cc1ccccc1)N1C=Cc2ccccc2[C@H]1c1c[nH]c2ccccc12 (3D coordinates assigned)
O=S(=O)(Cc1ccccc1)N1C=Cc2ccccc2[C@H]1c1c[nH]c2ccccc12 (nonaromatic ring conformer: 80.99037269278776 kcal/mol)

>  <smiles>  (42) 
O=S(=O)(Cc1ccccc1)N1C=Cc2ccccc2C1c1c[nH]c2ccccc12

>  <score_type>  (42) 
oracle

>  <origin>  (42) 
autodockgpu

>  <m_score__min__energy>  (42) 
-8.3599999999999994

>  <m_primary>  (42) 
energy

>  <meeko>  (42) 
{"free_energy": -7.16, "intermolecular_energy": -8.35, "internal_energy": -2.68, "cluster_size": 7, "cluster_id": 3, "rank_in_cluster": 4}

>  <energy>  (42) 
-8.34

>  <cluster_rmsd>  (42) 
0.19

>  <rmsd>  (42) 
270.18

>  <cluster>  (42) 
1

$$$$
YCOHEPDJLXZVBZ-DEOSSOPVNA-N
     RDKit          3D

 49 53  0  0  0  0  0  0  0  0999 V2000
  139.1920   75.9870  220.1510 O   0  0  0  0  0  0  0  0  0  0  0  0
  139.2990   76.2960  221.6180 S   0  0  0  0  0  0  0  0  0  0  0  0
  139.7470   75.0560  222.3400 O   0  0  0  0  0  0  0  0  0  0  0  0
  137.7050   76.8080  222.2420 C   0  0  0  0  0  0  0  0  0  0  0  0
  137.6480   78.3070  222.3370 C   0  0  0  0  0  0  0  0  0  0  0  0
  138.1680   78.9650  223.4640 C   0  0  0  0  0  0  0  0  0  0  0  0
  138.2030   80.3610  223.5110 C   0  0  0  0  0  0  0  0  0  0  0  0
  137.7290   81.1110  222.4310 C   0  0  0  0  0  0  0  0  0  0  0  0
  137.2140   80.4640  221.3030 C   0  0  0  0  0  0  0  0  0  0  0  0
  137.1740   79.0680  221.2550 C   0  0  0  0  0  0  0  0  0  0  0  0
  140.4490   77.5750  221.8630 N   0  0  0  0  0  0  0  0  0  0  0  0
  141.2150   77.6040  223.0780 C   0  0  0  0  0  0  0  0  0  0  0  0
  141.7720   78.7370  223.5040 C   0  0  0  0  0  0  0  0  0  0  0  0
  141.5950   79.9850  222.7420 C   0  0  0  0  0  0  0  0  0  0  0  0
  142.0190   81.2070  223.2850 C   0  0  0  0  0  0  0  0  0  0  0  0
  141.8200   82.3960  222.5800 C   0  0  0  0  0  0  0  0  0  0  0  0
  141.1990   82.3730  221.3290 C   0  0  0  0  0  0  0  0  0  0  0  0
  140.7770   81.1590  220.7780 C   0  0  0  0  0  0  0  0  0  0  0  0
  140.9680   79.9590  221.4810 C   0  0  0  0  0  0  0  0  0  0  0  0
  140.5570   78.6430  220.8580 C   0  0  1  0  0  0  0  0  0  0  0  0
  141.5520   78.2470  219.8000 C   0  0  0  0  0  0  0  0  0  0  0  0
  141.9860   79.0270  218.7300 C   0  0  0  0  0  0  0  0  0  0  0  0
  142.8400   78.3280  217.9490 N   0  0  0  0  0  0  0  0  0  0  0  0
  142.9440   77.1100  218.5090 C   0  0  0  0  0  0  0  0  0  0  0  0
  143.7020   76.0340  218.0520 C   0  0  0  0  0  0  0  0  0  0  0  0
  143.6540   74.8350  218.7860 C   0  0  0  0  0  0  0  0  0  0  0  0
  142.8530   74.7400  219.9460 C   0  0  0  0  0  0  0  0  0  0  0  0
  142.0960   75.8410  220.3830 C   0  0  0  0  0  0  0  0  0  0  0  0
  142.1690   77.0190  219.6370 C   0  0  0  0  0  0  0  0  0  0  0  0
  136.9167   76.4559  221.5604 H   0  0  0  0  0  0  0  0  0  0  0  0
  137.5531   76.3765  223.2424 H   0  0  0  0  0  0  0  0  0  0  0  0
  138.5492   78.3787  224.3131 H   0  0  0  0  0  0  0  0  0  0  0  0
  138.6043   80.8706  224.3994 H   0  0  0  0  0  0  0  0  0  0  0  0
  137.7610   82.2099  222.4682 H   0  0  0  0  0  0  0  0  0  0  0  0
  136.8403   81.0543  220.4533 H   0  0  0  0  0  0  0  0  0  0  0  0
  136.7694   78.5623  220.3658 H   0  0  0  0  0  0  0  0  0  0  0  0
  141.3430   76.6812  223.6628 H   0  0  0  0  0  0  0  0  0  0  0  0
  142.3669   78.7403  224.4292 H   0  0  0  0  0  0  0  0  0  0  0  0
  142.5098   81.2288  224.2692 H   0  0  0  0  0  0  0  0  0  0  0  0
  142.1528   83.3520  223.0105 H   0  0  0  0  0  0  0  0  0  0  0  0
  141.0417   83.3111  220.7765 H   0  0  0  0  0  0  0  0  0  0  0  0
  140.2936   81.1443  219.7900 H   0  0  0  0  0  0  0  0  0  0  0  0
  139.5644   78.7811  220.4046 H   0  0  0  0  0  0  0  0  0  0  0  0
  141.6768   80.0666  218.5463 H   0  0  0  0  0  0  0  0  0  0  0  0
  143.3120   78.6650  217.0820 H   0  0  0  0  0  0  0  0  0  0  0  0
  144.3189   76.1195  217.1453 H   0  0  0  0  0  0  0  0  0  0  0  0
  144.2431   73.9669  218.4552 H   0  0  0  0  0  0  0  0  0  0  0  0
  142.8215   73.7971  220.5116 H   0  0  0  0  0  0  0  0  0  0  0  0
  141.4669   75.7766  221.2830 H   0  0  0  0  0  0  0  0  0  0  0  0
  1  2  2  0
  2  3  2  0
  2  4  1  0
  4  5  1  0
  5  6  2  0
  6  7  1  0
  7  8  2  0
  8  9  1  0
  9 10  2  0
  2 11  1  0
 11 12  1  0
 12 13  2  0
 13 14  1  0
 14 15  2  0
 15 16  1  0
 16 17  2  0
 17 18  1  0
 18 19  2  0
 19 20  1  0
 20 21  1  0
 21 22  2  0
 22 23  1  0
 23 24  1  0
 24 25  2  0
 25 26  1  0
 26 27  2  0
 27 28  1  0
 28 29  2  0
 10  5  1  0
 20 11  1  0
 29 21  1  0
 19 14  1  0
 29 24  1  0
  4 30  1  0
  4 31  1  0
  6 32  1  0
  7 33  1  0
  8 34  1  0
  9 35  1  0
 10 36  1  0
 12 37  1  0
 13 38  1  0
 15 39  1  0
 16 40  1  0
 17 41  1  0
 18 42  1  0
 20 43  1  6
 22 44  1  0
 23 45  1  0
 25 46  1  0
 26 47  1  0
 27 48  1  0
 28 49  1  0
M  END
>  <UniqueID>  (43) 
11

>  <SMILES>  (43) 
O=S(=O)(Cc1ccccc1)N1C=Cc2ccccc2[C@H]1c1c[nH]c2ccccc12

>  <Energy>  (43) 
80.99037269278776

>  <Genealogy>  (43) 
O=S(=O)(Cc1ccccc1)N1C=Cc2ccccc2[C@H]1c1c[nH]c2ccccc12 (chirality)
O=S(=O)(Cc1ccccc1)N1C=Cc2ccccc2[C@H]1c1c[nH]c2ccccc12 (3D coordinates assigned)
O=S(=O)(Cc1ccccc1)N1C=Cc2ccccc2[C@H]1c1c[nH]c2ccccc12 (nonaromatic ring conformer: 80.99037269278776 kcal/mol)

>  <smiles>  (43) 
O=S(=O)(Cc1ccccc1)N1C=Cc2ccccc2C1c1c[nH]c2ccccc12

>  <score_type>  (43) 
oracle

>  <origin>  (43) 
autodockgpu

>  <m_score__min__energy>  (43) 
-8.3599999999999994

>  <m_primary>  (43) 
energy

>  <meeko>  (43) 
{"free_energy": -7.14, "intermolecular_energy": -8.33, "internal_energy": -2.62, "cluster_size": 8, "cluster_id": 4, "rank_in_cluster": 5}

>  <energy>  (43) 
-8.31

>  <cluster_rmsd>  (43) 
0.2

>  <rmsd>  (43) 
270.17

>  <cluster>  (43) 
1

$$$$
YCOHEPDJLXZVBZ-DEOSSOPVNA-N
     RDKit          3D

 49 53  0  0  0  0  0  0  0  0999 V2000
  139.2030   75.9700  220.1430 O   0  0  0  0  0  0  0  0  0  0  0  0
  139.3230   76.2680  221.6110 S   0  0  0  0  0  0  0  0  0  0  0  0
  139.7820   75.0240  222.3190 O   0  0  0  0  0  0  0  0  0  0  0  0
  137.7330   76.7690  222.2550 C   0  0  0  0  0  0  0  0  0  0  0  0
  137.6680   78.2680  222.3520 C   0  0  0  0  0  0  0  0  0  0  0  0
  138.2020   78.9280  223.4720 C   0  0  0  0  0  0  0  0  0  0  0  0
  138.2280   80.3240  223.5200 C   0  0  0  0  0  0  0  0  0  0  0  0
  137.7320   81.0720  222.4480 C   0  0  0  0  0  0  0  0  0  0  0  0
  137.2040   80.4230  221.3280 C   0  0  0  0  0  0  0  0  0  0  0  0
  137.1720   79.0270  221.2780 C   0  0  0  0  0  0  0  0  0  0  0  0
  140.4700   77.5490  221.8560 N   0  0  0  0  0  0  0  0  0  0  0  0
  141.2430   77.5750  223.0670 C   0  0  0  0  0  0  0  0  0  0  0  0
  141.7990   78.7070  223.4940 C   0  0  0  0  0  0  0  0  0  0  0  0
  141.6150   79.9580  222.7390 C   0  0  0  0  0  0  0  0  0  0  0  0
  142.0380   81.1790  223.2850 C   0  0  0  0  0  0  0  0  0  0  0  0
  141.8320   82.3700  222.5860 C   0  0  0  0  0  0  0  0  0  0  0  0
  141.2040   82.3510  221.3380 C   0  0  0  0  0  0  0  0  0  0  0  0
  140.7830   81.1390  220.7840 C   0  0  0  0  0  0  0  0  0  0  0  0
  140.9810   79.9360  221.4810 C   0  0  0  0  0  0  0  0  0  0  0  0
  140.5700   78.6210  220.8550 C   0  0  1  0  0  0  0  0  0  0  0  0
  141.5600   78.2320  219.7890 C   0  0  0  0  0  0  0  0  0  0  0  0
  141.9880   79.0190  218.7220 C   0  0  0  0  0  0  0  0  0  0  0  0
  142.8390   78.3260  217.9330 N   0  0  0  0  0  0  0  0  0  0  0  0
  142.9480   77.1050  218.4860 C   0  0  0  0  0  0  0  0  0  0  0  0
  143.7050   76.0320  218.0190 C   0  0  0  0  0  0  0  0  0  0  0  0
  143.6620   74.8300  218.7460 C   0  0  0  0  0  0  0  0  0  0  0  0
  142.8680   74.7270  219.9100 C   0  0  0  0  0  0  0  0  0  0  0  0
  142.1110   75.8240  220.3570 C   0  0  0  0  0  0  0  0  0  0  0  0
  142.1780   77.0070  219.6170 C   0  0  0  0  0  0  0  0  0  0  0  0
  136.9387   76.4125  221.5828 H   0  0  0  0  0  0  0  0  0  0  0  0
  137.5957   76.3355  223.2566 H   0  0  0  0  0  0  0  0  0  0  0  0
  138.6010   78.3432  224.3140 H   0  0  0  0  0  0  0  0  0  0  0  0
  138.6394   80.8355  224.4027 H   0  0  0  0  0  0  0  0  0  0  0  0
  137.7572   82.1711  222.4858 H   0  0  0  0  0  0  0  0  0  0  0  0
  136.8133   81.0120  220.4851 H   0  0  0  0  0  0  0  0  0  0  0  0
  136.7569   78.5199  220.3945 H   0  0  0  0  0  0  0  0  0  0  0  0
  141.3768   76.6501  223.6473 H   0  0  0  0  0  0  0  0  0  0  0  0
  142.3991   78.7078  224.4159 H   0  0  0  0  0  0  0  0  0  0  0  0
  142.5335   81.1982  224.2669 H   0  0  0  0  0  0  0  0  0  0  0  0
  142.1647   83.3250  223.0186 H   0  0  0  0  0  0  0  0  0  0  0  0
  141.0407   83.2912  220.7908 H   0  0  0  0  0  0  0  0  0  0  0  0
  140.2948   81.1273  219.7984 H   0  0  0  0  0  0  0  0  0  0  0  0
  139.5744   78.7581  220.4078 H   0  0  0  0  0  0  0  0  0  0  0  0
  141.6768   80.0593  218.5462 H   0  0  0  0  0  0  0  0  0  0  0  0
  143.3070   78.6690  217.0650 H   0  0  0  0  0  0  0  0  0  0  0  0
  144.3171   76.1231  217.1096 H   0  0  0  0  0  0  0  0  0  0  0  0
  144.2500   73.9644  218.4068 H   0  0  0  0  0  0  0  0  0  0  0  0
  142.8419   73.7811  220.4709 H   0  0  0  0  0  0  0  0  0  0  0  0
  141.4864   75.7532  221.2597 H   0  0  0  0  0  0  0  0  0  0  0  0
  1  2  2  0
  2  3  2  0
  2  4  1  0
  4  5  1  0
  5  6  2  0
  6  7  1  0
  7  8  2  0
  8  9  1  0
  9 10  2  0
  2 11  1  0
 11 12  1  0
 12 13  2  0
 13 14  1  0
 14 15  2  0
 15 16  1  0
 16 17  2  0
 17 18  1  0
 18 19  2  0
 19 20  1  0
 20 21  1  0
 21 22  2  0
 22 23  1  0
 23 24  1  0
 24 25  2  0
 25 26  1  0
 26 27  2  0
 27 28  1  0
 28 29  2  0
 10  5  1  0
 20 11  1  0
 29 21  1  0
 19 14  1  0
 29 24  1  0
  4 30  1  0
  4 31  1  0
  6 32  1  0
  7 33  1  0
  8 34  1  0
  9 35  1  0
 10 36  1  0
 12 37  1  0
 13 38  1  0
 15 39  1  0
 16 40  1  0
 17 41  1  0
 18 42  1  0
 20 43  1  6
 22 44  1  0
 23 45  1  0
 25 46  1  0
 26 47  1  0
 27 48  1  0
 28 49  1  0
M  END
>  <UniqueID>  (44) 
11

>  <SMILES>  (44) 
O=S(=O)(Cc1ccccc1)N1C=Cc2ccccc2[C@H]1c1c[nH]c2ccccc12

>  <Energy>  (44) 
80.99037269278776

>  <Genealogy>  (44) 
O=S(=O)(Cc1ccccc1)N1C=Cc2ccccc2[C@H]1c1c[nH]c2ccccc12 (chirality)
O=S(=O)(Cc1ccccc1)N1C=Cc2ccccc2[C@H]1c1c[nH]c2ccccc12 (3D coordinates assigned)
O=S(=O)(Cc1ccccc1)N1C=Cc2ccccc2[C@H]1c1c[nH]c2ccccc12 (nonaromatic ring conformer: 80.99037269278776 kcal/mol)

>  <smiles>  (44) 
O=S(=O)(Cc1ccccc1)N1C=Cc2ccccc2C1c1c[nH]c2ccccc12

>  <score_type>  (44) 
oracle

>  <origin>  (44) 
autodockgpu

>  <m_score__min__energy>  (44) 
-8.3599999999999994

>  <m_primary>  (44) 
energy

>  <meeko>  (44) 
{"free_energy": -7.13, "intermolecular_energy": -8.32, "internal_energy": -2.62, "cluster_size": 8, "cluster_id": 4, "rank_in_cluster": 6}

>  <energy>  (44) 
-8.28

>  <cluster_rmsd>  (44) 
0.0

>  <rmsd>  (44) 
270.76

>  <cluster>  (44) 
2

$$$$
YCOHEPDJLXZVBZ-DEOSSOPVNA-N
     RDKit          3D

 49 53  0  0  0  0  0  0  0  0999 V2000
  143.6830   80.1600  222.7590 O   0  0  0  0  0  0  0  0  0  0  0  0
  142.2880   80.5610  223.1510 S   0  0  0  0  0  0  0  0  0  0  0  0
  142.3720   81.6230  224.2110 O   0  0  0  0  0  0  0  0  0  0  0  0
  141.4120   79.1420  223.7930 C   0  0  0  0  0  0  0  0  0  0  0  0
  139.9300   79.3410  223.6390 C   0  0  0  0  0  0  0  0  0  0  0  0
  139.3430   80.5710  223.9790 C   0  0  0  0  0  0  0  0  0  0  0  0
  137.9820   80.7900  223.7470 C   0  0  0  0  0  0  0  0  0  0  0  0
  137.2010   79.7860  223.1660 C   0  0  0  0  0  0  0  0  0  0  0  0
  137.7780   78.5620  222.8200 C   0  0  0  0  0  0  0  0  0  0  0  0
  139.1380   78.3380  223.0550 C   0  0  0  0  0  0  0  0  0  0  0  0
  141.4450   81.1740  221.7610 N   0  0  0  0  0  0  0  0  0  0  0  0
  141.4540   82.5890  221.5050 C   0  0  0  0  0  0  0  0  0  0  0  0
  140.5150   83.1470  220.7420 C   0  0  0  0  0  0  0  0  0  0  0  0
  139.4400   82.3240  220.1630 C   0  0  0  0  0  0  0  0  0  0  0  0
  138.3530   82.9360  219.5220 C   0  0  0  0  0  0  0  0  0  0  0  0
  137.3150   82.1590  219.0030 C   0  0  0  0  0  0  0  0  0  0  0  0
  137.3560   80.7670  219.1200 C   0  0  0  0  0  0  0  0  0  0  0  0
  138.4370   80.1480  219.7530 C   0  0  0  0  0  0  0  0  0  0  0  0
  139.4840   80.9210  220.2820 C   0  0  0  0  0  0  0  0  0  0  0  0
  140.6760   80.2440  220.9210 C   0  0  1  0  0  0  0  0  0  0  0  0
  141.5670   79.6670  219.8540 C   0  0  0  0  0  0  0  0  0  0  0  0
  142.1140   80.3460  218.7680 C   0  0  0  0  0  0  0  0  0  0  0  0
  142.8190   79.4980  217.9840 N   0  0  0  0  0  0  0  0  0  0  0  0
  142.7150   78.2880  218.5590 C   0  0  0  0  0  0  0  0  0  0  0  0
  143.2640   77.0900  218.1060 C   0  0  0  0  0  0  0  0  0  0  0  0
  143.0170   75.9270  218.8570 C   0  0  0  0  0  0  0  0  0  0  0  0
  142.2320   75.9870  220.0300 C   0  0  0  0  0  0  0  0  0  0  0  0
  141.6890   77.2090  220.4630 C   0  0  0  0  0  0  0  0  0  0  0  0
  141.9550   78.3480  219.7000 C   0  0  0  0  0  0  0  0  0  0  0  0
  141.7186   78.2429  223.2384 H   0  0  0  0  0  0  0  0  0  0  0  0
  141.6516   79.0215  224.8598 H   0  0  0  0  0  0  0  0  0  0  0  0
  139.9567   81.3650  224.4296 H   0  0  0  0  0  0  0  0  0  0  0  0
  137.5253   81.7523  224.0215 H   0  0  0  0  0  0  0  0  0  0  0  0
  136.1308   79.9605  222.9812 H   0  0  0  0  0  0  0  0  0  0  0  0
  137.1621   77.7738  222.3624 H   0  0  0  0  0  0  0  0  0  0  0  0
  139.5896   77.3729  222.7816 H   0  0  0  0  0  0  0  0  0  0  0  0
  142.2437   83.2168  221.9434 H   0  0  0  0  0  0  0  0  0  0  0  0
  140.5430   84.2286  220.5435 H   0  0  0  0  0  0  0  0  0  0  0  0
  138.3179   84.0314  219.4277 H   0  0  0  0  0  0  0  0  0  0  0  0
  136.4641   82.6433  218.5015 H   0  0  0  0  0  0  0  0  0  0  0  0
  136.5357   80.1575  218.7130 H   0  0  0  0  0  0  0  0  0  0  0  0
  138.4683   79.0517  219.8374 H   0  0  0  0  0  0  0  0  0  0  0  0
  140.2982   79.4388  221.5683 H   0  0  0  0  0  0  0  0  0  0  0  0
  141.9902   81.4218  218.5746 H   0  0  0  0  0  0  0  0  0  0  0  0
  143.3280   79.7380  217.1060 H   0  0  0  0  0  0  0  0  0  0  0  0
  143.8716   77.0551  217.1897 H   0  0  0  0  0  0  0  0  0  0  0  0
  143.4375   74.9649  218.5291 H   0  0  0  0  0  0  0  0  0  0  0  0
  142.0443   75.0706  220.6088 H   0  0  0  0  0  0  0  0  0  0  0  0
  141.0744   77.2663  221.3735 H   0  0  0  0  0  0  0  0  0  0  0  0
  1  2  2  0
  2  3  2  0
  2  4  1  0
  4  5  1  0
  5  6  2  0
  6  7  1  0
  7  8  2  0
  8  9  1  0
  9 10  2  0
  2 11  1  0
 11 12  1  0
 12 13  2  0
 13 14  1  0
 14 15  2  0
 15 16  1  0
 16 17  2  0
 17 18  1  0
 18 19  2  0
 19 20  1  0
 20 21  1  0
 21 22  2  0
 22 23  1  0
 23 24  1  0
 24 25  2  0
 25 26  1  0
 26 27  2  0
 27 28  1  0
 28 29  2  0
 10  5  1  0
 20 11  1  0
 29 21  1  0
 19 14  1  0
 29 24  1  0
  4 30  1  0
  4 31  1  0
  6 32  1  0
  7 33  1  0
  8 34  1  0
  9 35  1  0
 10 36  1  0
 12 37  1  0
 13 38  1  0
 15 39  1  0
 16 40  1  0
 17 41  1  0
 18 42  1  0
 20 43  1  1
 22 44  1  0
 23 45  1  0
 25 46  1  0
 26 47  1  0
 27 48  1  0
 28 49  1  0
M  END
>  <UniqueID>  (45) 
11

>  <SMILES>  (45) 
O=S(=O)(Cc1ccccc1)N1C=Cc2ccccc2[C@H]1c1c[nH]c2ccccc12

>  <Energy>  (45) 
80.99037269278776

>  <Genealogy>  (45) 
O=S(=O)(Cc1ccccc1)N1C=Cc2ccccc2[C@H]1c1c[nH]c2ccccc12 (chirality)
O=S(=O)(Cc1ccccc1)N1C=Cc2ccccc2[C@H]1c1c[nH]c2ccccc12 (3D coordinates assigned)
O=S(=O)(Cc1ccccc1)N1C=Cc2ccccc2[C@H]1c1c[nH]c2ccccc12 (nonaromatic ring conformer: 80.99037269278776 kcal/mol)

>  <smiles>  (45) 
O=S(=O)(Cc1ccccc1)N1C=Cc2ccccc2C1c1c[nH]c2ccccc12

>  <score_type>  (45) 
oracle

>  <origin>  (45) 
autodockgpu

>  <m_score__min__energy>  (45) 
-8.3599999999999994

>  <m_primary>  (45) 
energy

>  <meeko>  (45) 
{"free_energy": -7.15, "intermolecular_energy": -8.34, "internal_energy": -2.67, "cluster_size": 7, "cluster_id": 3, "rank_in_cluster": 6}

>  <energy>  (45) 
-7.78

>  <cluster_rmsd>  (45) 
0.98

>  <rmsd>  (45) 
270.65

>  <cluster>  (45) 
2

$$$$
YCOHEPDJLXZVBZ-DEOSSOPVNA-N
     RDKit          3D

 49 53  0  0  0  0  0  0  0  0999 V2000
  143.6940   80.1340  222.7780 O   0  0  0  0  0  0  0  0  0  0  0  0
  142.3040   80.5510  223.1740 S   0  0  0  0  0  0  0  0  0  0  0  0
  142.4040   81.6260  224.2190 O   0  0  0  0  0  0  0  0  0  0  0  0
  141.4220   79.1480  223.8410 C   0  0  0  0  0  0  0  0  0  0  0  0
  139.9420   79.3430  223.6690 C   0  0  0  0  0  0  0  0  0  0  0  0
  139.3480   80.5740  223.9950 C   0  0  0  0  0  0  0  0  0  0  0  0
  137.9900   80.7890  223.7460 C   0  0  0  0  0  0  0  0  0  0  0  0
  137.2170   79.7810  223.1610 C   0  0  0  0  0  0  0  0  0  0  0  0
  137.8010   78.5550  222.8290 C   0  0  0  0  0  0  0  0  0  0  0  0
  139.1580   78.3360  223.0810 C   0  0  0  0  0  0  0  0  0  0  0  0
  141.4570   81.1520  221.7820 N   0  0  0  0  0  0  0  0  0  0  0  0
  141.4550   82.5650  221.5190 C   0  0  0  0  0  0  0  0  0  0  0  0
  140.5120   83.1130  220.7540 C   0  0  0  0  0  0  0  0  0  0  0  0
  139.4430   82.2800  220.1790 C   0  0  0  0  0  0  0  0  0  0  0  0
  138.3520   82.8810  219.5350 C   0  0  0  0  0  0  0  0  0  0  0  0
  137.3190   82.0940  219.0200 C   0  0  0  0  0  0  0  0  0  0  0  0
  137.3700   80.7030  219.1430 C   0  0  0  0  0  0  0  0  0  0  0  0
  138.4560   80.0950  219.7790 C   0  0  0  0  0  0  0  0  0  0  0  0
  139.4970   80.8770  220.3040 C   0  0  0  0  0  0  0  0  0  0  0  0
  140.6950   80.2120  220.9460 C   0  0  1  0  0  0  0  0  0  0  0  0
  141.5900   79.6370  219.8810 C   0  0  0  0  0  0  0  0  0  0  0  0
  142.1520   80.3210  218.8060 C   0  0  0  0  0  0  0  0  0  0  0  0
  142.8560   79.4740  218.0210 N   0  0  0  0  0  0  0  0  0  0  0  0
  142.7370   78.2600  218.5840 C   0  0  0  0  0  0  0  0  0  0  0  0
  143.2790   77.0610  218.1250 C   0  0  0  0  0  0  0  0  0  0  0  0
  143.0160   75.8930  218.8630 C   0  0  0  0  0  0  0  0  0  0  0  0
  142.2220   75.9500  220.0300 C   0  0  0  0  0  0  0  0  0  0  0  0
  141.6850   77.1730  220.4690 C   0  0  0  0  0  0  0  0  0  0  0  0
  141.9680   78.3160  219.7190 C   0  0  0  0  0  0  0  0  0  0  0  0
  141.7334   78.2361  223.3106 H   0  0  0  0  0  0  0  0  0  0  0  0
  141.6518   79.0529  224.9125 H   0  0  0  0  0  0  0  0  0  0  0  0
  139.9547   81.3718  224.4482 H   0  0  0  0  0  0  0  0  0  0  0  0
  137.5286   81.7519  224.0103 H   0  0  0  0  0  0  0  0  0  0  0  0
  136.1489   79.9529  222.9620 H   0  0  0  0  0  0  0  0  0  0  0  0
  137.1922   77.7625  222.3693 H   0  0  0  0  0  0  0  0  0  0  0  0
  139.6147   77.3705  222.8177 H   0  0  0  0  0  0  0  0  0  0  0  0
  142.2404   83.2006  221.9539 H   0  0  0  0  0  0  0  0  0  0  0  0
  140.5322   84.1939  220.5509 H   0  0  0  0  0  0  0  0  0  0  0  0
  138.3094   83.9756  219.4350 H   0  0  0  0  0  0  0  0  0  0  0  0
  136.4643   82.5700  218.5170 H   0  0  0  0  0  0  0  0  0  0  0  0
  136.5543   80.0856  218.7387 H   0  0  0  0  0  0  0  0  0  0  0  0
  138.4952   78.9994  219.8685 H   0  0  0  0  0  0  0  0  0  0  0  0
  140.3241   79.4068  221.5972 H   0  0  0  0  0  0  0  0  0  0  0  0
  142.0391   81.3995  218.6211 H   0  0  0  0  0  0  0  0  0  0  0  0
  143.3750   79.7170  217.1490 H   0  0  0  0  0  0  0  0  0  0  0  0
  143.8937   77.0291  217.2134 H   0  0  0  0  0  0  0  0  0  0  0  0
  143.4307   74.9302  218.5298 H   0  0  0  0  0  0  0  0  0  0  0  0
  142.0223   75.0304  220.5997 H   0  0  0  0  0  0  0  0  0  0  0  0
  141.0621   77.2275  221.3740 H   0  0  0  0  0  0  0  0  0  0  0  0
  1  2  2  0
  2  3  2  0
  2  4  1  0
  4  5  1  0
  5  6  2  0
  6  7  1  0
  7  8  2  0
  8  9  1  0
  9 10  2  0
  2 11  1  0
 11 12  1  0
 12 13  2  0
 13 14  1  0
 14 15  2  0
 15 16  1  0
 16 17  2  0
 17 18  1  0
 18 19  2  0
 19 20  1  0
 20 21  1  0
 21 22  2  0
 22 23  1  0
 23 24  1  0
 24 25  2  0
 25 26  1  0
 26 27  2  0
 27 28  1  0
 28 29  2  0
 10  5  1  0
 20 11  1  0
 29 21  1  0
 19 14  1  0
 29 24  1  0
  4 30  1  0
  4 31  1  0
  6 32  1  0
  7 33  1  0
  8 34  1  0
  9 35  1  0
 10 36  1  0
 12 37  1  0
 13 38  1  0
 15 39  1  0
 16 40  1  0
 17 41  1  0
 18 42  1  0
 20 43  1  1
 22 44  1  0
 23 45  1  0
 25 46  1  0
 26 47  1  0
 27 48  1  0
 28 49  1  0
M  END
>  <UniqueID>  (46) 
11

>  <SMILES>  (46) 
O=S(=O)(Cc1ccccc1)N1C=Cc2ccccc2[C@H]1c1c[nH]c2ccccc12

>  <Energy>  (46) 
80.99037269278776

>  <Genealogy>  (46) 
O=S(=O)(Cc1ccccc1)N1C=Cc2ccccc2[C@H]1c1c[nH]c2ccccc12 (chirality)
O=S(=O)(Cc1ccccc1)N1C=Cc2ccccc2[C@H]1c1c[nH]c2ccccc12 (3D coordinates assigned)
O=S(=O)(Cc1ccccc1)N1C=Cc2ccccc2[C@H]1c1c[nH]c2ccccc12 (nonaromatic ring conformer: 80.99037269278776 kcal/mol)

>  <smiles>  (46) 
O=S(=O)(Cc1ccccc1)N1C=Cc2ccccc2C1c1c[nH]c2ccccc12

>  <score_type>  (46) 
oracle

>  <origin>  (46) 
autodockgpu

>  <m_score__min__energy>  (46) 
-8.3599999999999994

>  <m_primary>  (46) 
energy

>  <meeko>  (46) 
{"free_energy": -7.16, "intermolecular_energy": -8.35, "internal_energy": -2.68, "cluster_size": 7, "cluster_id": 3, "rank_in_cluster": 5}

>  <energy>  (46) 
-7.16

>  <cluster_rmsd>  (46) 
0.0

>  <rmsd>  (46) 
270.88

>  <cluster>  (46) 
3

$$$$
YCOHEPDJLXZVBZ-DEOSSOPVNA-N
     RDKit          3D

 49 53  0  0  0  0  0  0  0  0999 V2000
  139.4430   72.8470  222.6740 O   0  0  0  0  0  0  0  0  0  0  0  0
  140.1500   71.5210  222.7130 S   0  0  0  0  0  0  0  0  0  0  0  0
  141.1730   71.5520  223.8130 O   0  0  0  0  0  0  0  0  0  0  0  0
  140.9630   71.2260  221.1490 C   0  0  0  0  0  0  0  0  0  0  0  0
  142.0980   72.1950  220.9690 C   0  0  0  0  0  0  0  0  0  0  0  0
  143.4160   71.7250  220.8470 C   0  0  0  0  0  0  0  0  0  0  0  0
  144.4600   72.6170  220.5830 C   0  0  0  0  0  0  0  0  0  0  0  0
  144.1950   73.9810  220.4310 C   0  0  0  0  0  0  0  0  0  0  0  0
  142.8850   74.4560  220.5470 C   0  0  0  0  0  0  0  0  0  0  0  0
  141.8400   73.5680  220.8140 C   0  0  0  0  0  0  0  0  0  0  0  0
  138.9980   70.2540  223.0070 N   0  0  0  0  0  0  0  0  0  0  0  0
  138.7990   69.2420  222.0060 C   0  0  0  0  0  0  0  0  0  0  0  0
  137.6770   68.5250  221.9800 C   0  0  0  0  0  0  0  0  0  0  0  0
  136.6130   68.7690  222.9680 C   0  0  0  0  0  0  0  0  0  0  0  0
  135.3630   68.1490  222.8250 C   0  0  0  0  0  0  0  0  0  0  0  0
  134.3420   68.4070  223.7420 C   0  0  0  0  0  0  0  0  0  0  0  0
  134.5620   69.2850  224.8070 C   0  0  0  0  0  0  0  0  0  0  0  0
  135.8050   69.9040  224.9600 C   0  0  0  0  0  0  0  0  0  0  0  0
  136.8380   69.6540  224.0410 C   0  0  0  0  0  0  0  0  0  0  0  0
  138.1970   70.2870  224.2400 C   0  0  1  0  0  0  0  0  0  0  0  0
  138.9340   69.5770  225.3450 C   0  0  0  0  0  0  0  0  0  0  0  0
  138.8580   68.2220  225.6590 C   0  0  0  0  0  0  0  0  0  0  0  0
  139.6120   67.9450  226.7470 N   0  0  0  0  0  0  0  0  0  0  0  0
  140.1570   69.1130  227.1280 C   0  0  0  0  0  0  0  0  0  0  0  0
  141.0020   69.3340  228.2140 C   0  0  0  0  0  0  0  0  0  0  0  0
  141.4480   70.6480  228.4450 C   0  0  0  0  0  0  0  0  0  0  0  0
  141.0410   71.7000  227.5950 C   0  0  0  0  0  0  0  0  0  0  0  0
  140.1850   71.4480  226.5080 C   0  0  0  0  0  0  0  0  0  0  0  0
  139.7630   70.1340  226.3010 C   0  0  0  0  0  0  0  0  0  0  0  0
  141.3549   70.1983  221.1302 H   0  0  0  0  0  0  0  0  0  0  0  0
  140.2378   71.3636  220.3334 H   0  0  0  0  0  0  0  0  0  0  0  0
  143.6277   70.6514  220.9595 H   0  0  0  0  0  0  0  0  0  0  0  0
  145.4913   72.2447  220.4948 H   0  0  0  0  0  0  0  0  0  0  0  0
  145.0171   74.6808  220.2201 H   0  0  0  0  0  0  0  0  0  0  0  0
  142.6771   75.5296  220.4279 H   0  0  0  0  0  0  0  0  0  0  0  0
  140.8105   73.9451  220.9033 H   0  0  0  0  0  0  0  0  0  0  0  0
  139.5807   69.0580  221.2543 H   0  0  0  0  0  0  0  0  0  0  0  0
  137.5443   67.7454  221.2154 H   0  0  0  0  0  0  0  0  0  0  0  0
  135.1865   67.4575  221.9880 H   0  0  0  0  0  0  0  0  0  0  0  0
  133.3632   67.9186  223.6260 H   0  0  0  0  0  0  0  0  0  0  0  0
  133.7549   69.4890  225.5260 H   0  0  0  0  0  0  0  0  0  0  0  0
  135.9756   70.5897  225.8031 H   0  0  0  0  0  0  0  0  0  0  0  0
  138.0406   71.3411  224.5130 H   0  0  0  0  0  0  0  0  0  0  0  0
  138.2674   67.4811  225.1002 H   0  0  0  0  0  0  0  0  0  0  0  0
  139.7350   67.0130  227.2020 H   0  0  0  0  0  0  0  0  0  0  0  0
  141.3106   68.5067  228.8701 H   0  0  0  0  0  0  0  0  0  0  0  0
  142.1175   70.8573  229.2924 H   0  0  0  0  0  0  0  0  0  0  0  0
  141.3961   72.7237  227.7846 H   0  0  0  0  0  0  0  0  0  0  0  0
  139.8586   72.2606  225.8423 H   0  0  0  0  0  0  0  0  0  0  0  0
  1  2  2  0
  2  3  2  0
  2  4  1  0
  4  5  1  0
  5  6  2  0
  6  7  1  0
  7  8  2  0
  8  9  1  0
  9 10  2  0
  2 11  1  0
 11 12  1  0
 12 13  2  0
 13 14  1  0
 14 15  2  0
 15 16  1  0
 16 17  2  0
 17 18  1  0
 18 19  2  0
 19 20  1  0
 20 21  1  0
 21 22  2  0
 22 23  1  0
 23 24  1  0
 24 25  2  0
 25 26  1  0
 26 27  2  0
 27 28  1  0
 28 29  2  0
 10  5  1  0
 20 11  1  0
 29 21  1  0
 19 14  1  0
 29 24  1  0
  4 30  1  0
  4 31  1  0
  6 32  1  0
  7 33  1  0
  8 34  1  0
  9 35  1  0
 10 36  1  0
 12 37  1  0
 13 38  1  0
 15 39  1  0
 16 40  1  0
 17 41  1  0
 18 42  1  0
 20 43  1  1
 22 44  1  0
 23 45  1  0
 25 46  1  0
 26 47  1  0
 27 48  1  0
 28 49  1  0
M  END
>  <UniqueID>  (47) 
11

>  <SMILES>  (47) 
O=S(=O)(Cc1ccccc1)N1C=Cc2ccccc2[C@H]1c1c[nH]c2ccccc12

>  <Energy>  (47) 
80.99037269278776

>  <Genealogy>  (47) 
O=S(=O)(Cc1ccccc1)N1C=Cc2ccccc2[C@H]1c1c[nH]c2ccccc12 (chirality)
O=S(=O)(Cc1ccccc1)N1C=Cc2ccccc2[C@H]1c1c[nH]c2ccccc12 (3D coordinates assigned)
O=S(=O)(Cc1ccccc1)N1C=Cc2ccccc2[C@H]1c1c[nH]c2ccccc12 (nonaromatic ring conformer: 80.99037269278776 kcal/mol)

>  <smiles>  (47) 
O=S(=O)(Cc1ccccc1)N1C=Cc2ccccc2C1c1c[nH]c2ccccc12

>  <score_type>  (47) 
oracle

>  <origin>  (47) 
autodockgpu

>  <m_score__min__energy>  (47) 
-8.3599999999999994

>  <m_primary>  (47) 
energy

>  <meeko>  (47) 
{"free_energy": -8.36, "intermolecular_energy": -9.56, "internal_energy": -1.58, "cluster_size": 3, "cluster_id": 1, "rank_in_cluster": 1}

>  <energy>  (47) 
-7.16

>  <cluster_rmsd>  (47) 
0.01

>  <rmsd>  (47) 
270.88

>  <cluster>  (47) 
3

$$$$
YCOHEPDJLXZVBZ-DEOSSOPVNA-N
     RDKit          3D

 49 53  0  0  0  0  0  0  0  0999 V2000
  141.1400   75.9360  218.7380 O   0  0  0  0  0  0  0  0  0  0  0  0
  142.1710   77.0240  218.8610 S   0  0  0  0  0  0  0  0  0  0  0  0
  142.3970   77.6280  217.5030 O   0  0  0  0  0  0  0  0  0  0  0  0
  143.7020   76.3370  219.4730 C   0  0  0  0  0  0  0  0  0  0  0  0
  143.5400   74.8640  219.7250 C   0  0  0  0  0  0  0  0  0  0  0  0
  144.4640   73.9490  219.1910 C   0  0  0  0  0  0  0  0  0  0  0  0
  144.3700   72.5900  219.5040 C   0  0  0  0  0  0  0  0  0  0  0  0
  143.3600   72.1360  220.3580 C   0  0  0  0  0  0  0  0  0  0  0  0
  142.4410   73.0400  220.8970 C   0  0  0  0  0  0  0  0  0  0  0  0
  142.5290   74.3990  220.5830 C   0  0  0  0  0  0  0  0  0  0  0  0
  141.6060   78.2400  219.9660 N   0  0  0  0  0  0  0  0  0  0  0  0
  141.1030   79.4810  219.4440 C   0  0  0  0  0  0  0  0  0  0  0  0
  141.0620   80.5720  220.2070 C   0  0  0  0  0  0  0  0  0  0  0  0
  141.5480   80.5280  221.5960 C   0  0  0  0  0  0  0  0  0  0  0  0
  141.6790   81.7130  222.3340 C   0  0  0  0  0  0  0  0  0  0  0  0
  142.1730   81.6770  223.6400 C   0  0  0  0  0  0  0  0  0  0  0  0
  142.5380   80.4580  224.2170 C   0  0  0  0  0  0  0  0  0  0  0  0
  142.4070   79.2710  223.4910 C   0  0  0  0  0  0  0  0  0  0  0  0
  141.9150   79.2970  222.1760 C   0  0  0  0  0  0  0  0  0  0  0  0
  141.7260   78.0050  221.4120 C   0  0  1  0  0  0  0  0  0  0  0  0
  140.5010   77.2890  221.9160 C   0  0  0  0  0  0  0  0  0  0  0  0
  140.3740   75.9230  222.1550 C   0  0  0  0  0  0  0  0  0  0  0  0
  139.1150   75.6260  222.5490 N   0  0  0  0  0  0  0  0  0  0  0  0
  138.4420   76.7890  222.5510 C   0  0  0  0  0  0  0  0  0  0  0  0
  137.1010   76.9870  222.8740 C   0  0  0  0  0  0  0  0  0  0  0  0
  136.5900   78.2940  222.7940 C   0  0  0  0  0  0  0  0  0  0  0  0
  137.4220   79.3630  222.3950 C   0  0  0  0  0  0  0  0  0  0  0  0
  138.7710   79.1350  222.0720 C   0  0  0  0  0  0  0  0  0  0  0  0
  139.2520   77.8280  222.1660 C   0  0  0  0  0  0  0  0  0  0  0  0
  144.4954   76.4939  218.7275 H   0  0  0  0  0  0  0  0  0  0  0  0
  143.9711   76.8371  220.4151 H   0  0  0  0  0  0  0  0  0  0  0  0
  145.2639   74.3038  218.5244 H   0  0  0  0  0  0  0  0  0  0  0  0
  145.0912   71.8769  219.0781 H   0  0  0  0  0  0  0  0  0  0  0  0
  143.2890   71.0666  220.6056 H   0  0  0  0  0  0  0  0  0  0  0  0
  141.6474   72.6817  221.5692 H   0  0  0  0  0  0  0  0  0  0  0  0
  141.8037   75.1077  221.0093 H   0  0  0  0  0  0  0  0  0  0  0  0
  140.7483   79.5303  218.4039 H   0  0  0  0  0  0  0  0  0  0  0  0
  140.6627   81.5113  219.7969 H   0  0  0  0  0  0  0  0  0  0  0  0
  141.3917   82.6743  221.8829 H   0  0  0  0  0  0  0  0  0  0  0  0
  142.2748   82.6093  224.2148 H   0  0  0  0  0  0  0  0  0  0  0  0
  142.9292   80.4325  225.2447 H   0  0  0  0  0  0  0  0  0  0  0  0
  142.6903   78.3130  223.9513 H   0  0  0  0  0  0  0  0  0  0  0  0
  142.6172   77.3821  221.5786 H   0  0  0  0  0  0  0  0  0  0  0  0
  141.1845   75.1883  222.0394 H   0  0  0  0  0  0  0  0  0  0  0  0
  138.7420   74.6810  222.7900 H   0  0  0  0  0  0  0  0  0  0  0  0
  136.4620   76.1463  223.1821 H   0  0  0  0  0  0  0  0  0  0  0  0
  135.5359   78.4852  223.0437 H   0  0  0  0  0  0  0  0  0  0  0  0
  137.0114   80.3818  222.3365 H   0  0  0  0  0  0  0  0  0  0  0  0
  139.4263   79.9598  221.7554 H   0  0  0  0  0  0  0  0  0  0  0  0
  1  2  2  0
  2  3  2  0
  2  4  1  0
  4  5  1  0
  5  6  2  0
  6  7  1  0
  7  8  2  0
  8  9  1  0
  9 10  2  0
  2 11  1  0
 11 12  1  0
 12 13  2  0
 13 14  1  0
 14 15  2  0
 15 16  1  0
 16 17  2  0
 17 18  1  0
 18 19  2  0
 19 20  1  0
 20 21  1  0
 21 22  2  0
 22 23  1  0
 23 24  1  0
 24 25  2  0
 25 26  1  0
 26 27  2  0
 27 28  1  0
 28 29  2  0
 10  5  1  0
 20 11  1  0
 29 21  1  0
 19 14  1  0
 29 24  1  0
  4 30  1  0
  4 31  1  0
  6 32  1  0
  7 33  1  0
  8 34  1  0
  9 35  1  0
 10 36  1  0
 12 37  1  0
 13 38  1  0
 15 39  1  0
 16 40  1  0
 17 41  1  0
 18 42  1  0
 20 43  1  6
 22 44  1  0
 23 45  1  0
 25 46  1  0
 26 47  1  0
 27 48  1  0
 28 49  1  0
M  END
>  <UniqueID>  (48) 
11

>  <SMILES>  (48) 
O=S(=O)(Cc1ccccc1)N1C=Cc2ccccc2[C@H]1c1c[nH]c2ccccc12

>  <Energy>  (48) 
80.99037269278776

>  <Genealogy>  (48) 
O=S(=O)(Cc1ccccc1)N1C=Cc2ccccc2[C@H]1c1c[nH]c2ccccc12 (chirality)
O=S(=O)(Cc1ccccc1)N1C=Cc2ccccc2[C@H]1c1c[nH]c2ccccc12 (3D coordinates assigned)
O=S(=O)(Cc1ccccc1)N1C=Cc2ccccc2[C@H]1c1c[nH]c2ccccc12 (nonaromatic ring conformer: 80.99037269278776 kcal/mol)

>  <smiles>  (48) 
O=S(=O)(Cc1ccccc1)N1C=Cc2ccccc2C1c1c[nH]c2ccccc12

>  <score_type>  (48) 
oracle

>  <origin>  (48) 
autodockgpu

>  <m_score__min__energy>  (48) 
-8.3599999999999994

>  <m_primary>  (48) 
energy

>  <meeko>  (48) 
{"free_energy": -7.78, "intermolecular_energy": -8.98, "internal_energy": -1.82, "cluster_size": 2, "cluster_id": 2, "rank_in_cluster": 2}

>  <energy>  (48) 
-7.16

>  <cluster_rmsd>  (48) 
0.08

>  <rmsd>  (48) 
270.89

>  <cluster>  (48) 
3

$$$$
YCOHEPDJLXZVBZ-DEOSSOPVNA-N
     RDKit          3D

 49 53  0  0  0  0  0  0  0  0999 V2000
  139.2760   75.9130  220.0570 O   0  0  0  0  0  0  0  0  0  0  0  0
  139.2810   76.3080  221.5080 S   0  0  0  0  0  0  0  0  0  0  0  0
  139.6500   75.1060  222.3320 O   0  0  0  0  0  0  0  0  0  0  0  0
  137.6570   76.8820  221.9820 C   0  0  0  0  0  0  0  0  0  0  0  0
  137.6910   78.3630  222.2370 C   0  0  0  0  0  0  0  0  0  0  0  0
  138.2380   78.8620  223.4310 C   0  0  0  0  0  0  0  0  0  0  0  0
  138.3580   80.2410  223.6290 C   0  0  0  0  0  0  0  0  0  0  0  0
  137.9410   81.1300  222.6340 C   0  0  0  0  0  0  0  0  0  0  0  0
  137.4000   80.6420  221.4410 C   0  0  0  0  0  0  0  0  0  0  0  0
  137.2750   79.2640  221.2420 C   0  0  0  0  0  0  0  0  0  0  0  0
  140.4360   77.5800  221.7620 N   0  0  0  0  0  0  0  0  0  0  0  0
  141.1970   77.6020  222.9820 C   0  0  0  0  0  0  0  0  0  0  0  0
  141.7570   78.7310  223.4130 C   0  0  0  0  0  0  0  0  0  0  0  0
  141.5910   79.9820  222.6540 C   0  0  0  0  0  0  0  0  0  0  0  0
  142.0180   81.2000  223.2020 C   0  0  0  0  0  0  0  0  0  0  0  0
  141.8290   82.3920  222.4990 C   0  0  0  0  0  0  0  0  0  0  0  0
  141.2140   82.3750  221.2440 C   0  0  0  0  0  0  0  0  0  0  0  0
  140.7890   81.1650  220.6880 C   0  0  0  0  0  0  0  0  0  0  0  0
  140.9710   79.9620  221.3890 C   0  0  0  0  0  0  0  0  0  0  0  0
  140.5560   78.6500  220.7610 C   0  0  1  0  0  0  0  0  0  0  0  0
  141.5540   78.2510  219.7060 C   0  0  0  0  0  0  0  0  0  0  0  0
  141.9840   79.0250  218.6310 C   0  0  0  0  0  0  0  0  0  0  0  0
  142.8430   78.3250  217.8570 N   0  0  0  0  0  0  0  0  0  0  0  0
  142.9540   77.1130  218.4270 C   0  0  0  0  0  0  0  0  0  0  0  0
  143.7190   76.0370  217.9790 C   0  0  0  0  0  0  0  0  0  0  0  0
  143.6780   74.8450  218.7230 C   0  0  0  0  0  0  0  0  0  0  0  0
  142.8770   74.7540  219.8830 C   0  0  0  0  0  0  0  0  0  0  0  0
  142.1120   75.8540  220.3100 C   0  0  0  0  0  0  0  0  0  0  0  0
  142.1780   77.0260  219.5550 C   0  0  0  0  0  0  0  0  0  0  0  0
  136.9439   76.6678  221.1723 H   0  0  0  0  0  0  0  0  0  0  0  0
  137.3440   76.3639  222.9005 H   0  0  0  0  0  0  0  0  0  0  0  0
  138.5732   78.1651  224.2132 H   0  0  0  0  0  0  0  0  0  0  0  0
  138.7809   80.6266  224.5684 H   0  0  0  0  0  0  0  0  0  0  0  0
  138.0387   82.2145  222.7900 H   0  0  0  0  0  0  0  0  0  0  0  0
  137.0726   81.3425  220.6586 H   0  0  0  0  0  0  0  0  0  0  0  0
  136.8490   78.8831  220.3021 H   0  0  0  0  0  0  0  0  0  0  0  0
  141.3178   76.6771  223.5651 H   0  0  0  0  0  0  0  0  0  0  0  0
  142.3470   78.7290  224.3414 H   0  0  0  0  0  0  0  0  0  0  0  0
  142.5035   81.2168  224.1889 H   0  0  0  0  0  0  0  0  0  0  0  0
  142.1645   83.3452  222.9335 H   0  0  0  0  0  0  0  0  0  0  0  0
  141.0642   83.3152  220.6930 H   0  0  0  0  0  0  0  0  0  0  0  0
  140.3102   81.1552  219.6977 H   0  0  0  0  0  0  0  0  0  0  0  0
  139.5663   78.7951  220.3033 H   0  0  0  0  0  0  0  0  0  0  0  0
  141.6686   80.0611  218.4387 H   0  0  0  0  0  0  0  0  0  0  0  0
  143.3150   78.6580  216.9870 H   0  0  0  0  0  0  0  0  0  0  0  0
  144.3355   76.1183  217.0716 H   0  0  0  0  0  0  0  0  0  0  0  0
  144.2731   73.9781  218.4000 H   0  0  0  0  0  0  0  0  0  0  0  0
  142.8515   73.8157  220.4565 H   0  0  0  0  0  0  0  0  0  0  0  0
  141.4821   75.7927  221.2097 H   0  0  0  0  0  0  0  0  0  0  0  0
  1  2  2  0
  2  3  2  0
  2  4  1  0
  4  5  1  0
  5  6  2  0
  6  7  1  0
  7  8  2  0
  8  9  1  0
  9 10  2  0
  2 11  1  0
 11 12  1  0
 12 13  2  0
 13 14  1  0
 14 15  2  0
 15 16  1  0
 16 17  2  0
 17 18  1  0
 18 19  2  0
 19 20  1  0
 20 21  1  0
 21 22  2  0
 22 23  1  0
 23 24  1  0
 24 25  2  0
 25 26  1  0
 26 27  2  0
 27 28  1  0
 28 29  2  0
 10  5  1  0
 20 11  1  0
 29 21  1  0
 19 14  1  0
 29 24  1  0
  4 30  1  0
  4 31  1  0
  6 32  1  0
  7 33  1  0
  8 34  1  0
  9 35  1  0
 10 36  1  0
 12 37  1  0
 13 38  1  0
 15 39  1  0
 16 40  1  0
 17 41  1  0
 18 42  1  0
 20 43  1  6
 22 44  1  0
 23 45  1  0
 25 46  1  0
 26 47  1  0
 27 48  1  0
 28 49  1  0
M  END
>  <UniqueID>  (49) 
11

>  <SMILES>  (49) 
O=S(=O)(Cc1ccccc1)N1C=Cc2ccccc2[C@H]1c1c[nH]c2ccccc12

>  <Energy>  (49) 
80.99037269278776

>  <Genealogy>  (49) 
O=S(=O)(Cc1ccccc1)N1C=Cc2ccccc2[C@H]1c1c[nH]c2ccccc12 (chirality)
O=S(=O)(Cc1ccccc1)N1C=Cc2ccccc2[C@H]1c1c[nH]c2ccccc12 (3D coordinates assigned)
O=S(=O)(Cc1ccccc1)N1C=Cc2ccccc2[C@H]1c1c[nH]c2ccccc12 (nonaromatic ring conformer: 80.99037269278776 kcal/mol)

>  <smiles>  (49) 
O=S(=O)(Cc1ccccc1)N1C=Cc2ccccc2C1c1c[nH]c2ccccc12

>  <score_type>  (49) 
oracle

>  <origin>  (49) 
autodockgpu

>  <m_score__min__energy>  (49) 
-8.3599999999999994

>  <m_primary>  (49) 
energy

>  <meeko>  (49) 
{"free_energy": -7.09, "intermolecular_energy": -8.29, "internal_energy": -2.58, "cluster_size": 8, "cluster_id": 4, "rank_in_cluster": 8}

>  <energy>  (49) 
-7.16

>  <cluster_rmsd>  (49) 
0.03

>  <rmsd>  (49) 
270.89

>  <cluster>  (49) 
3

$$$$
YCOHEPDJLXZVBZ-DEOSSOPVNA-N
     RDKit          3D

 49 53  0  0  0  0  0  0  0  0999 V2000
  143.5870   79.8240  222.7180 O   0  0  0  0  0  0  0  0  0  0  0  0
  142.2680   80.4000  223.1540 S   0  0  0  0  0  0  0  0  0  0  0  0
  142.5270   81.4830  224.1640 O   0  0  0  0  0  0  0  0  0  0  0  0
  141.2680   79.1190  223.8960 C   0  0  0  0  0  0  0  0  0  0  0  0
  139.8100   79.4160  223.6800 C   0  0  0  0  0  0  0  0  0  0  0  0
  139.2900   80.6790  224.0100 C   0  0  0  0  0  0  0  0  0  0  0  0
  137.9580   80.9890  223.7220 C   0  0  0  0  0  0  0  0  0  0  0  0
  137.1390   80.0450  223.0950 C   0  0  0  0  0  0  0  0  0  0  0  0
  137.6500   78.7880  222.7590 C   0  0  0  0  0  0  0  0  0  0  0  0
  138.9800   78.4740  223.0490 C   0  0  0  0  0  0  0  0  0  0  0  0
  141.4340   81.0550  221.7790 N   0  0  0  0  0  0  0  0  0  0  0  0
  141.4450   82.4770  221.5660 C   0  0  0  0  0  0  0  0  0  0  0  0
  140.5100   83.0580  220.8150 C   0  0  0  0  0  0  0  0  0  0  0  0
  139.4380   82.2540  220.2050 C   0  0  0  0  0  0  0  0  0  0  0  0
  138.3560   82.8860  219.5760 C   0  0  0  0  0  0  0  0  0  0  0  0
  137.3200   82.1250  219.0280 C   0  0  0  0  0  0  0  0  0  0  0  0
  137.3600   80.7300  219.1030 C   0  0  0  0  0  0  0  0  0  0  0  0
  138.4370   80.0920  219.7230 C   0  0  0  0  0  0  0  0  0  0  0  0
  139.4810   80.8480  220.2820 C   0  0  0  0  0  0  0  0  0  0  0  0
  140.6700   80.1510  220.9070 C   0  0  1  0  0  0  0  0  0  0  0  0
  141.5670   79.6060  219.8280 C   0  0  0  0  0  0  0  0  0  0  0  0
  142.1030   80.3130  218.7540 C   0  0  0  0  0  0  0  0  0  0  0  0
  142.8180   79.4900  217.9540 N   0  0  0  0  0  0  0  0  0  0  0  0
  142.7310   78.2670  218.5060 C   0  0  0  0  0  0  0  0  0  0  0  0
  143.2950   77.0850  218.0300 C   0  0  0  0  0  0  0  0  0  0  0  0
  143.0650   75.9050  218.7590 C   0  0  0  0  0  0  0  0  0  0  0  0
  142.2810   75.9330  219.9340 C   0  0  0  0  0  0  0  0  0  0  0  0
  141.7210   77.1390  220.3900 C   0  0  0  0  0  0  0  0  0  0  0  0
  141.9720   78.2950  219.6490 C   0  0  0  0  0  0  0  0  0  0  0  0
  141.5149   78.1512  223.4352 H   0  0  0  0  0  0  0  0  0  0  0  0
  141.4729   79.0807  224.9761 H   0  0  0  0  0  0  0  0  0  0  0  0
  139.9337   81.4265  224.4968 H   0  0  0  0  0  0  0  0  0  0  0  0
  137.5536   81.9765  223.9888 H   0  0  0  0  0  0  0  0  0  0  0  0
  136.0918   80.2917  222.8660 H   0  0  0  0  0  0  0  0  0  0  0  0
  137.0047   78.0459  222.2661 H   0  0  0  0  0  0  0  0  0  0  0  0
  139.3794   77.4845  222.7821 H   0  0  0  0  0  0  0  0  0  0  0  0
  142.2326   83.0910  222.0273 H   0  0  0  0  0  0  0  0  0  0  0  0
  140.5393   84.1451  220.6498 H   0  0  0  0  0  0  0  0  0  0  0  0
  138.3225   83.9837  219.5137 H   0  0  0  0  0  0  0  0  0  0  0  0
  136.4719   82.6246  218.5369 H   0  0  0  0  0  0  0  0  0  0  0  0
  136.5420   80.1334  218.6730 H   0  0  0  0  0  0  0  0  0  0  0  0
  138.4678   78.9936  219.7738 H   0  0  0  0  0  0  0  0  0  0  0  0
  140.2887   79.3264  221.5273 H   0  0  0  0  0  0  0  0  0  0  0  0
  141.9640   81.3904  218.5809 H   0  0  0  0  0  0  0  0  0  0  0  0
  143.3230   79.7520  217.0790 H   0  0  0  0  0  0  0  0  0  0  0  0
  143.9014   77.0754  217.1123 H   0  0  0  0  0  0  0  0  0  0  0  0
  143.4978   74.9549  218.4127 H   0  0  0  0  0  0  0  0  0  0  0  0
  142.1075   75.0037  220.4965 H   0  0  0  0  0  0  0  0  0  0  0  0
  141.1052   77.1707  221.3009 H   0  0  0  0  0  0  0  0  0  0  0  0
  1  2  2  0
  2  3  2  0
  2  4  1  0
  4  5  1  0
  5  6  2  0
  6  7  1  0
  7  8  2  0
  8  9  1  0
  9 10  2  0
  2 11  1  0
 11 12  1  0
 12 13  2  0
 13 14  1  0
 14 15  2  0
 15 16  1  0
 16 17  2  0
 17 18  1  0
 18 19  2  0
 19 20  1  0
 20 21  1  0
 21 22  2  0
 22 23  1  0
 23 24  1  0
 24 25  2  0
 25 26  1  0
 26 27  2  0
 27 28  1  0
 28 29  2  0
 10  5  1  0
 20 11  1  0
 29 21  1  0
 19 14  1  0
 29 24  1  0
  4 30  1  0
  4 31  1  0
  6 32  1  0
  7 33  1  0
  8 34  1  0
  9 35  1  0
 10 36  1  0
 12 37  1  0
 13 38  1  0
 15 39  1  0
 16 40  1  0
 17 41  1  0
 18 42  1  0
 20 43  1  1
 22 44  1  0
 23 45  1  0
 25 46  1  0
 26 47  1  0
 27 48  1  0
 28 49  1  0
M  END
>  <UniqueID>  (50) 
11

>  <SMILES>  (50) 
O=S(=O)(Cc1ccccc1)N1C=Cc2ccccc2[C@H]1c1c[nH]c2ccccc12

>  <Energy>  (50) 
80.99037269278776

>  <Genealogy>  (50) 
O=S(=O)(Cc1ccccc1)N1C=Cc2ccccc2[C@H]1c1c[nH]c2ccccc12 (chirality)
O=S(=O)(Cc1ccccc1)N1C=Cc2ccccc2[C@H]1c1c[nH]c2ccccc12 (3D coordinates assigned)
O=S(=O)(Cc1ccccc1)N1C=Cc2ccccc2[C@H]1c1c[nH]c2ccccc12 (nonaromatic ring conformer: 80.99037269278776 kcal/mol)

>  <smiles>  (50) 
O=S(=O)(Cc1ccccc1)N1C=Cc2ccccc2C1c1c[nH]c2ccccc12

>  <score_type>  (50) 
oracle

>  <origin>  (50) 
autodockgpu

>  <m_score__min__energy>  (50) 
-8.3599999999999994

>  <m_primary>  (50) 
energy

>  <meeko>  (50) 
{"free_energy": -7.03, "intermolecular_energy": -8.23, "internal_energy": -2.73, "cluster_size": 7, "cluster_id": 3, "rank_in_cluster": 7}

>  <energy>  (50) 
-7.16

>  <cluster_rmsd>  (50) 
0.02

>  <rmsd>  (50) 
270.89

>  <cluster>  (50) 
3

$$$$
YCOHEPDJLXZVBZ-DEOSSOPVNA-N
     RDKit          3D

 49 53  0  0  0  0  0  0  0  0999 V2000
  139.2210   75.9150  220.1640 O   0  0  0  0  0  0  0  0  0  0  0  0
  139.3680   76.2280  221.6270 S   0  0  0  0  0  0  0  0  0  0  0  0
  139.8660   74.9990  222.3350 O   0  0  0  0  0  0  0  0  0  0  0  0
  137.7850   76.7070  222.3020 C   0  0  0  0  0  0  0  0  0  0  0  0
  137.6930   78.2050  222.3840 C   0  0  0  0  0  0  0  0  0  0  0  0
  138.2570   78.8900  223.4740 C   0  0  0  0  0  0  0  0  0  0  0  0
  138.2570   80.2870  223.5040 C   0  0  0  0  0  0  0  0  0  0  0  0
  137.7040   81.0110  222.4430 C   0  0  0  0  0  0  0  0  0  0  0  0
  137.1460   80.3380  221.3520 C   0  0  0  0  0  0  0  0  0  0  0  0
  137.1400   78.9400  221.3210 C   0  0  0  0  0  0  0  0  0  0  0  0
  140.4980   77.5320  221.8350 N   0  0  0  0  0  0  0  0  0  0  0  0
  141.2770   77.5980  223.0410 C   0  0  0  0  0  0  0  0  0  0  0  0
  141.8180   78.7490  223.4380 C   0  0  0  0  0  0  0  0  0  0  0  0
  141.6110   79.9780  222.6540 C   0  0  0  0  0  0  0  0  0  0  0  0
  142.0190   81.2180  223.1690 C   0  0  0  0  0  0  0  0  0  0  0  0
  141.7910   82.3890  222.4430 C   0  0  0  0  0  0  0  0  0  0  0  0
  141.1570   82.3300  221.1990 C   0  0  0  0  0  0  0  0  0  0  0  0
  140.7510   81.0990  220.6760 C   0  0  0  0  0  0  0  0  0  0  0  0
  140.9710   79.9160  221.4000 C   0  0  0  0  0  0  0  0  0  0  0  0
  140.5770   78.5810  220.8080 C   0  0  1  0  0  0  0  0  0  0  0  0
  141.5670   78.1820  219.7470 C   0  0  0  0  0  0  0  0  0  0  0  0
  141.9970   78.9590  218.6740 C   0  0  0  0  0  0  0  0  0  0  0  0
  142.8480   78.2570  217.8910 N   0  0  0  0  0  0  0  0  0  0  0  0
  142.9530   77.0410  218.4530 C   0  0  0  0  0  0  0  0  0  0  0  0
  143.7090   75.9630  217.9960 C   0  0  0  0  0  0  0  0  0  0  0  0
  143.6630   74.7670  218.7330 C   0  0  0  0  0  0  0  0  0  0  0  0
  142.8670   74.6750  219.8970 C   0  0  0  0  0  0  0  0  0  0  0  0
  142.1120   75.7770  220.3340 C   0  0  0  0  0  0  0  0  0  0  0  0
  142.1820   76.9530  219.5850 C   0  0  0  0  0  0  0  0  0  0  0  0
  136.9823   76.3278  221.6525 H   0  0  0  0  0  0  0  0  0  0  0  0
  137.6798   76.2830  223.3116 H   0  0  0  0  0  0  0  0  0  0  0  0
  138.7002   78.3241  224.3067 H   0  0  0  0  0  0  0  0  0  0  0  0
  138.6926   80.8180  224.3633 H   0  0  0  0  0  0  0  0  0  0  0  0
  137.7081   82.1107  222.4669 H   0  0  0  0  0  0  0  0  0  0  0  0
  136.7116   80.9084  220.5178 H   0  0  0  0  0  0  0  0  0  0  0  0
  136.7007   78.4132  220.4611 H   0  0  0  0  0  0  0  0  0  0  0  0
  141.4280   76.6893  223.6422 H   0  0  0  0  0  0  0  0  0  0  0  0
  142.4225   78.7813  224.3564 H   0  0  0  0  0  0  0  0  0  0  0  0
  142.5197   81.2678  224.1472 H   0  0  0  0  0  0  0  0  0  0  0  0
  142.1109   83.3592  222.8509 H   0  0  0  0  0  0  0  0  0  0  0  0
  140.9771   83.2542  220.6303 H   0  0  0  0  0  0  0  0  0  0  0  0
  140.2575   81.0567  219.6938 H   0  0  0  0  0  0  0  0  0  0  0  0
  139.5772   78.6921  220.3628 H   0  0  0  0  0  0  0  0  0  0  0  0
  141.6878   79.9983  218.4891 H   0  0  0  0  0  0  0  0  0  0  0  0
  143.3170   78.5920  217.0210 H   0  0  0  0  0  0  0  0  0  0  0  0
  144.3226   76.0456  217.0868 H   0  0  0  0  0  0  0  0  0  0  0  0
  144.2500   73.8976  218.4018 H   0  0  0  0  0  0  0  0  0  0  0  0
  142.8381   73.7337  220.4654 H   0  0  0  0  0  0  0  0  0  0  0  0
  141.4864   75.7149  221.2366 H   0  0  0  0  0  0  0  0  0  0  0  0
  1  2  2  0
  2  3  2  0
  2  4  1  0
  4  5  1  0
  5  6  2  0
  6  7  1  0
  7  8  2  0
  8  9  1  0
  9 10  2  0
  2 11  1  0
 11 12  1  0
 12 13  2  0
 13 14  1  0
 14 15  2  0
 15 16  1  0
 16 17  2  0
 17 18  1  0
 18 19  2  0
 19 20  1  0
 20 21  1  0
 21 22  2  0
 22 23  1  0
 23 24  1  0
 24 25  2  0
 25 26  1  0
 26 27  2  0
 27 28  1  0
 28 29  2  0
 10  5  1  0
 20 11  1  0
 29 21  1  0
 19 14  1  0
 29 24  1  0
  4 30  1  0
  4 31  1  0
  6 32  1  0
  7 33  1  0
  8 34  1  0
  9 35  1  0
 10 36  1  0
 12 37  1  0
 13 38  1  0
 15 39  1  0
 16 40  1  0
 17 41  1  0
 18 42  1  0
 20 43  1  6
 22 44  1  0
 23 45  1  0
 25 46  1  0
 26 47  1  0
 27 48  1  0
 28 49  1  0
M  END
>  <UniqueID>  (51) 
11

>  <SMILES>  (51) 
O=S(=O)(Cc1ccccc1)N1C=Cc2ccccc2[C@H]1c1c[nH]c2ccccc12

>  <Energy>  (51) 
80.99037269278776

>  <Genealogy>  (51) 
O=S(=O)(Cc1ccccc1)N1C=Cc2ccccc2[C@H]1c1c[nH]c2ccccc12 (chirality)
O=S(=O)(Cc1ccccc1)N1C=Cc2ccccc2[C@H]1c1c[nH]c2ccccc12 (3D coordinates assigned)
O=S(=O)(Cc1ccccc1)N1C=Cc2ccccc2[C@H]1c1c[nH]c2ccccc12 (nonaromatic ring conformer: 80.99037269278776 kcal/mol)

>  <smiles>  (51) 
O=S(=O)(Cc1ccccc1)N1C=Cc2ccccc2C1c1c[nH]c2ccccc12

>  <score_type>  (51) 
oracle

>  <origin>  (51) 
autodockgpu

>  <m_score__min__energy>  (51) 
-8.3599999999999994

>  <m_primary>  (51) 
energy

>  <meeko>  (51) 
{"free_energy": -7.15, "intermolecular_energy": -8.34, "internal_energy": -2.6, "cluster_size": 8, "cluster_id": 4, "rank_in_cluster": 3}

>  <energy>  (51) 
-7.15

>  <cluster_rmsd>  (51) 
0.04

>  <rmsd>  (51) 
270.87

>  <cluster>  (51) 
3

$$$$
YCOHEPDJLXZVBZ-DEOSSOPVNA-N
     RDKit          3D

 49 53  0  0  0  0  0  0  0  0999 V2000
  143.6880   80.1420  222.7810 O   0  0  0  0  0  0  0  0  0  0  0  0
  142.2940   80.5500  223.1700 S   0  0  0  0  0  0  0  0  0  0  0  0
  142.3810   81.6220  224.2200 O   0  0  0  0  0  0  0  0  0  0  0  0
  141.4150   79.1390  223.8260 C   0  0  0  0  0  0  0  0  0  0  0  0
  139.9350   79.3280  223.6500 C   0  0  0  0  0  0  0  0  0  0  0  0
  139.3360   80.5590  223.9710 C   0  0  0  0  0  0  0  0  0  0  0  0
  137.9780   80.7680  223.7180 C   0  0  0  0  0  0  0  0  0  0  0  0
  137.2100   79.7560  223.1350 C   0  0  0  0  0  0  0  0  0  0  0  0
  137.7980   78.5310  222.8070 C   0  0  0  0  0  0  0  0  0  0  0  0
  139.1560   78.3170  223.0630 C   0  0  0  0  0  0  0  0  0  0  0  0
  141.4510   81.1510  221.7740 N   0  0  0  0  0  0  0  0  0  0  0  0
  141.4520   82.5640  221.5120 C   0  0  0  0  0  0  0  0  0  0  0  0
  140.5110   83.1120  220.7430 C   0  0  0  0  0  0  0  0  0  0  0  0
  139.4440   82.2800  220.1640 C   0  0  0  0  0  0  0  0  0  0  0  0
  138.3550   82.8820  219.5170 C   0  0  0  0  0  0  0  0  0  0  0  0
  137.3240   82.0950  218.9980 C   0  0  0  0  0  0  0  0  0  0  0  0
  137.3740   80.7040  219.1210 C   0  0  0  0  0  0  0  0  0  0  0  0
  138.4570   80.0960  219.7610 C   0  0  0  0  0  0  0  0  0  0  0  0
  139.4970   80.8770  220.2900 C   0  0  0  0  0  0  0  0  0  0  0  0
  140.6920   80.2120  220.9360 C   0  0  1  0  0  0  0  0  0  0  0  0
  141.5900   79.6350  219.8750 C   0  0  0  0  0  0  0  0  0  0  0  0
  142.1520   80.3180  218.7990 C   0  0  0  0  0  0  0  0  0  0  0  0
  142.8590   79.4710  218.0170 N   0  0  0  0  0  0  0  0  0  0  0  0
  142.7430   78.2580  218.5830 C   0  0  0  0  0  0  0  0  0  0  0  0
  143.2890   77.0580  218.1290 C   0  0  0  0  0  0  0  0  0  0  0  0
  143.0270   75.8930  218.8700 C   0  0  0  0  0  0  0  0  0  0  0  0
  142.2310   75.9510  220.0350 C   0  0  0  0  0  0  0  0  0  0  0  0
  141.6900   77.1740  220.4700 C   0  0  0  0  0  0  0  0  0  0  0  0
  141.9710   78.3150  219.7170 C   0  0  0  0  0  0  0  0  0  0  0  0
  141.7324   78.2315  223.2915 H   0  0  0  0  0  0  0  0  0  0  0  0
  141.6412   79.0392  224.8979 H   0  0  0  0  0  0  0  0  0  0  0  0
  139.9389   81.3604  224.4230 H   0  0  0  0  0  0  0  0  0  0  0  0
  137.5125   81.7302  223.9779 H   0  0  0  0  0  0  0  0  0  0  0  0
  136.1416   79.9238  222.9341 H   0  0  0  0  0  0  0  0  0  0  0  0
  137.1927   77.7356  222.3477 H   0  0  0  0  0  0  0  0  0  0  0  0
  139.6165   77.3523  222.8035 H   0  0  0  0  0  0  0  0  0  0  0  0
  142.2362   83.1990  221.9499 H   0  0  0  0  0  0  0  0  0  0  0  0
  140.5322   84.1929  220.5399 H   0  0  0  0  0  0  0  0  0  0  0  0
  138.3125   83.9767  219.4179 H   0  0  0  0  0  0  0  0  0  0  0  0
  136.4714   82.5712  218.4917 H   0  0  0  0  0  0  0  0  0  0  0  0
  136.5597   80.0869  218.7135 H   0  0  0  0  0  0  0  0  0  0  0  0
  138.4950   79.0003  219.8509 H   0  0  0  0  0  0  0  0  0  0  0  0
  140.3182   79.4074  221.5863 H   0  0  0  0  0  0  0  0  0  0  0  0
  142.0368   81.3958  218.6115 H   0  0  0  0  0  0  0  0  0  0  0  0
  143.3800   79.7120  217.1450 H   0  0  0  0  0  0  0  0  0  0  0  0
  143.9058   77.0242  217.2188 H   0  0  0  0  0  0  0  0  0  0  0  0
  143.4445   74.9301  218.5405 H   0  0  0  0  0  0  0  0  0  0  0  0
  142.0326   75.0324  220.6067 H   0  0  0  0  0  0  0  0  0  0  0  0
  141.0658   77.2295  221.3741 H   0  0  0  0  0  0  0  0  0  0  0  0
  1  2  2  0
  2  3  2  0
  2  4  1  0
  4  5  1  0
  5  6  2  0
  6  7  1  0
  7  8  2  0
  8  9  1  0
  9 10  2  0
  2 11  1  0
 11 12  1  0
 12 13  2  0
 13 14  1  0
 14 15  2  0
 15 16  1  0
 16 17  2  0
 17 18  1  0
 18 19  2  0
 19 20  1  0
 20 21  1  0
 21 22  2  0
 22 23  1  0
 23 24  1  0
 24 25  2  0
 25 26  1  0
 26 27  2  0
 27 28  1  0
 28 29  2  0
 10  5  1  0
 20 11  1  0
 29 21  1  0
 19 14  1  0
 29 24  1  0
  4 30  1  0
  4 31  1  0
  6 32  1  0
  7 33  1  0
  8 34  1  0
  9 35  1  0
 10 36  1  0
 12 37  1  0
 13 38  1  0
 15 39  1  0
 16 40  1  0
 17 41  1  0
 18 42  1  0
 20 43  1  1
 22 44  1  0
 23 45  1  0
 25 46  1  0
 26 47  1  0
 27 48  1  0
 28 49  1  0
M  END
>  <UniqueID>  (52) 
11

>  <SMILES>  (52) 
O=S(=O)(Cc1ccccc1)N1C=Cc2ccccc2[C@H]1c1c[nH]c2ccccc12

>  <Energy>  (52) 
80.99037269278776

>  <Genealogy>  (52) 
O=S(=O)(Cc1ccccc1)N1C=Cc2ccccc2[C@H]1c1c[nH]c2ccccc12 (chirality)
O=S(=O)(Cc1ccccc1)N1C=Cc2ccccc2[C@H]1c1c[nH]c2ccccc12 (3D coordinates assigned)
O=S(=O)(Cc1ccccc1)N1C=Cc2ccccc2[C@H]1c1c[nH]c2ccccc12 (nonaromatic ring conformer: 80.99037269278776 kcal/mol)

>  <smiles>  (52) 
O=S(=O)(Cc1ccccc1)N1C=Cc2ccccc2C1c1c[nH]c2ccccc12

>  <score_type>  (52) 
oracle

>  <origin>  (52) 
autodockgpu

>  <m_score__min__energy>  (52) 
-8.3599999999999994

>  <m_primary>  (52) 
energy

>  <meeko>  (52) 
{"free_energy": -7.16, "intermolecular_energy": -8.36, "internal_energy": -2.67, "cluster_size": 7, "cluster_id": 3, "rank_in_cluster": 2}

>  <energy>  (52) 
-7.03

>  <cluster_rmsd>  (52) 
0.15

>  <rmsd>  (52) 
270.85

>  <cluster>  (52) 
3

$$$$
YCOHEPDJLXZVBZ-DEOSSOPVNA-N
     RDKit          3D

 49 53  0  0  0  0  0  0  0  0999 V2000
  139.2070   75.9400  220.1850 O   0  0  0  0  0  0  0  0  0  0  0  0
  139.3500   76.2440  221.6500 S   0  0  0  0  0  0  0  0  0  0  0  0
  139.8370   75.0070  222.3530 O   0  0  0  0  0  0  0  0  0  0  0  0
  137.7680   76.7300  222.3220 C   0  0  0  0  0  0  0  0  0  0  0  0
  137.6750   78.2290  222.3850 C   0  0  0  0  0  0  0  0  0  0  0  0
  138.2260   78.9260  223.4740 C   0  0  0  0  0  0  0  0  0  0  0  0
  138.2260   80.3230  223.4890 C   0  0  0  0  0  0  0  0  0  0  0  0
  137.6860   81.0350  222.4130 C   0  0  0  0  0  0  0  0  0  0  0  0
  137.1420   80.3500  221.3230 C   0  0  0  0  0  0  0  0  0  0  0  0
  137.1360   78.9520  221.3080 C   0  0  0  0  0  0  0  0  0  0  0  0
  140.4880   77.5380  221.8690 N   0  0  0  0  0  0  0  0  0  0  0  0
  141.2640   77.5910  223.0770 C   0  0  0  0  0  0  0  0  0  0  0  0
  141.8120   78.7360  223.4830 C   0  0  0  0  0  0  0  0  0  0  0  0
  141.6160   79.9720  222.7070 C   0  0  0  0  0  0  0  0  0  0  0  0
  142.0310   81.2040  223.2310 C   0  0  0  0  0  0  0  0  0  0  0  0
  141.8130   82.3820  222.5110 C   0  0  0  0  0  0  0  0  0  0  0  0
  141.1820   82.3360  221.2660 C   0  0  0  0  0  0  0  0  0  0  0  0
  140.7700   81.1110  220.7340 C   0  0  0  0  0  0  0  0  0  0  0  0
  140.9790   79.9220  221.4510 C   0  0  0  0  0  0  0  0  0  0  0  0
  140.5770   78.5940  220.8490 C   0  0  1  0  0  0  0  0  0  0  0  0
  141.5670   78.1940  219.7880 C   0  0  0  0  0  0  0  0  0  0  0  0
  142.0000   78.9720  218.7160 C   0  0  0  0  0  0  0  0  0  0  0  0
  142.8500   78.2700  217.9330 N   0  0  0  0  0  0  0  0  0  0  0  0
  142.9520   77.0530  218.4940 C   0  0  0  0  0  0  0  0  0  0  0  0
  143.7060   75.9750  218.0350 C   0  0  0  0  0  0  0  0  0  0  0  0
  143.6570   74.7770  218.7700 C   0  0  0  0  0  0  0  0  0  0  0  0
  142.8610   74.6840  219.9320 C   0  0  0  0  0  0  0  0  0  0  0  0
  142.1080   75.7870  220.3710 C   0  0  0  0  0  0  0  0  0  0  0  0
  142.1810   76.9650  219.6250 C   0  0  0  0  0  0  0  0  0  0  0  0
  136.9643   76.3418  221.6791 H   0  0  0  0  0  0  0  0  0  0  0  0
  137.6651   76.3188  223.3370 H   0  0  0  0  0  0  0  0  0  0  0  0
  138.6591   78.3692  224.3181 H   0  0  0  0  0  0  0  0  0  0  0  0
  138.6510   80.8634  224.3477 H   0  0  0  0  0  0  0  0  0  0  0  0
  137.6895   82.1349  222.4247 H   0  0  0  0  0  0  0  0  0  0  0  0
  136.7185   80.9109  220.4768 H   0  0  0  0  0  0  0  0  0  0  0  0
  136.7071   78.4157  220.4487 H   0  0  0  0  0  0  0  0  0  0  0  0
  141.4073   76.6774  223.6727 H   0  0  0  0  0  0  0  0  0  0  0  0
  142.4143   78.7579  224.4032 H   0  0  0  0  0  0  0  0  0  0  0  0
  142.5293   81.2439  224.2109 H   0  0  0  0  0  0  0  0  0  0  0  0
  142.1391   83.3472  222.9258 H   0  0  0  0  0  0  0  0  0  0  0  0
  141.0090   83.2652  220.7033 H   0  0  0  0  0  0  0  0  0  0  0  0
  140.2801   81.0782  219.7497 H   0  0  0  0  0  0  0  0  0  0  0  0
  139.5793   78.7161  220.4020 H   0  0  0  0  0  0  0  0  0  0  0  0
  141.6931   80.0122  218.5324 H   0  0  0  0  0  0  0  0  0  0  0  0
  143.3200   78.6060  217.0640 H   0  0  0  0  0  0  0  0  0  0  0  0
  144.3203   76.0583  217.1263 H   0  0  0  0  0  0  0  0  0  0  0  0
  144.2425   73.9072  218.4374 H   0  0  0  0  0  0  0  0  0  0  0  0
  142.8296   73.7415  220.4982 H   0  0  0  0  0  0  0  0  0  0  0  0
  141.4816   75.7240  221.2730 H   0  0  0  0  0  0  0  0  0  0  0  0
  1  2  2  0
  2  3  2  0
  2  4  1  0
  4  5  1  0
  5  6  2  0
  6  7  1  0
  7  8  2  0
  8  9  1  0
  9 10  2  0
  2 11  1  0
 11 12  1  0
 12 13  2  0
 13 14  1  0
 14 15  2  0
 15 16  1  0
 16 17  2  0
 17 18  1  0
 18 19  2  0
 19 20  1  0
 20 21  1  0
 21 22  2  0
 22 23  1  0
 23 24  1  0
 24 25  2  0
 25 26  1  0
 26 27  2  0
 27 28  1  0
 28 29  2  0
 10  5  1  0
 20 11  1  0
 29 21  1  0
 19 14  1  0
 29 24  1  0
  4 30  1  0
  4 31  1  0
  6 32  1  0
  7 33  1  0
  8 34  1  0
  9 35  1  0
 10 36  1  0
 12 37  1  0
 13 38  1  0
 15 39  1  0
 16 40  1  0
 17 41  1  0
 18 42  1  0
 20 43  1  6
 22 44  1  0
 23 45  1  0
 25 46  1  0
 26 47  1  0
 27 48  1  0
 28 49  1  0
M  END
>  <UniqueID>  (53) 
11

>  <SMILES>  (53) 
O=S(=O)(Cc1ccccc1)N1C=Cc2ccccc2[C@H]1c1c[nH]c2ccccc12

>  <Energy>  (53) 
80.99037269278776

>  <Genealogy>  (53) 
O=S(=O)(Cc1ccccc1)N1C=Cc2ccccc2[C@H]1c1c[nH]c2ccccc12 (chirality)
O=S(=O)(Cc1ccccc1)N1C=Cc2ccccc2[C@H]1c1c[nH]c2ccccc12 (3D coordinates assigned)
O=S(=O)(Cc1ccccc1)N1C=Cc2ccccc2[C@H]1c1c[nH]c2ccccc12 (nonaromatic ring conformer: 80.99037269278776 kcal/mol)

>  <smiles>  (53) 
O=S(=O)(Cc1ccccc1)N1C=Cc2ccccc2C1c1c[nH]c2ccccc12

>  <score_type>  (53) 
oracle

>  <origin>  (53) 
autodockgpu

>  <m_score__min__energy>  (53) 
-8.3599999999999994

>  <m_primary>  (53) 
energy

>  <meeko>  (53) 
{"free_energy": -7.15, "intermolecular_energy": -8.35, "internal_energy": -2.6, "cluster_size": 8, "cluster_id": 4, "rank_in_cluster": 2}

>  <energy>  (53) 
-7.16

>  <cluster_rmsd>  (53) 
0.0

>  <rmsd>  (53) 
270.56

>  <cluster>  (53) 
4

$$$$
YCOHEPDJLXZVBZ-DEOSSOPVNA-N
     RDKit          3D

 49 53  0  0  0  0  0  0  0  0999 V2000
  143.6920   80.1430  222.7780 O   0  0  0  0  0  0  0  0  0  0  0  0
  142.2980   80.5470  223.1690 S   0  0  0  0  0  0  0  0  0  0  0  0
  142.3840   81.6160  224.2220 O   0  0  0  0  0  0  0  0  0  0  0  0
  141.4230   79.1330  223.8230 C   0  0  0  0  0  0  0  0  0  0  0  0
  139.9410   79.3200  223.6480 C   0  0  0  0  0  0  0  0  0  0  0  0
  139.3390   80.5450  223.9800 C   0  0  0  0  0  0  0  0  0  0  0  0
  137.9800   80.7530  223.7290 C   0  0  0  0  0  0  0  0  0  0  0  0
  137.2150   79.7440  223.1360 C   0  0  0  0  0  0  0  0  0  0  0  0
  137.8070   78.5240  222.7980 C   0  0  0  0  0  0  0  0  0  0  0  0
  139.1650   78.3110  223.0520 C   0  0  0  0  0  0  0  0  0  0  0  0
  141.4520   81.1500  221.7770 N   0  0  0  0  0  0  0  0  0  0  0  0
  141.4500   82.5640  221.5180 C   0  0  0  0  0  0  0  0  0  0  0  0
  140.5080   83.1130  220.7520 C   0  0  0  0  0  0  0  0  0  0  0  0
  139.4410   82.2800  220.1720 C   0  0  0  0  0  0  0  0  0  0  0  0
  138.3510   82.8820  219.5270 C   0  0  0  0  0  0  0  0  0  0  0  0
  137.3210   82.0950  219.0070 C   0  0  0  0  0  0  0  0  0  0  0  0
  137.3730   80.7030  219.1270 C   0  0  0  0  0  0  0  0  0  0  0  0
  138.4580   80.0950  219.7640 C   0  0  0  0  0  0  0  0  0  0  0  0
  139.4970   80.8770  220.2940 C   0  0  0  0  0  0  0  0  0  0  0  0
  140.6940   80.2120  220.9370 C   0  0  1  0  0  0  0  0  0  0  0  0
  141.5920   79.6400  219.8730 C   0  0  0  0  0  0  0  0  0  0  0  0
  142.1460   80.3260  218.7940 C   0  0  0  0  0  0  0  0  0  0  0  0
  142.8560   79.4820  218.0110 N   0  0  0  0  0  0  0  0  0  0  0  0
  142.7490   78.2690  218.5780 C   0  0  0  0  0  0  0  0  0  0  0  0
  143.3010   77.0730  218.1230 C   0  0  0  0  0  0  0  0  0  0  0  0
  143.0500   75.9060  218.8660 C   0  0  0  0  0  0  0  0  0  0  0  0
  142.2570   75.9600  220.0340 C   0  0  0  0  0  0  0  0  0  0  0  0
  141.7100   77.1800  220.4690 C   0  0  0  0  0  0  0  0  0  0  0  0
  141.9820   78.3220  219.7140 C   0  0  0  0  0  0  0  0  0  0  0  0
  141.7418   78.2271  223.2866 H   0  0  0  0  0  0  0  0  0  0  0  0
  141.6504   79.0312  224.8944 H   0  0  0  0  0  0  0  0  0  0  0  0
  139.9397   81.3438  224.4394 H   0  0  0  0  0  0  0  0  0  0  0  0
  137.5118   81.7113  223.9982 H   0  0  0  0  0  0  0  0  0  0  0  0
  136.1464   79.9106  222.9354 H   0  0  0  0  0  0  0  0  0  0  0  0
  137.2040   77.7309  222.3318 H   0  0  0  0  0  0  0  0  0  0  0  0
  139.6282   77.3498  222.7844 H   0  0  0  0  0  0  0  0  0  0  0  0
  142.2338   83.1991  221.9565 H   0  0  0  0  0  0  0  0  0  0  0  0
  140.5274   84.1944  220.5518 H   0  0  0  0  0  0  0  0  0  0  0  0
  138.3071   83.9769  219.4303 H   0  0  0  0  0  0  0  0  0  0  0  0
  136.4675   82.5711  218.5022 H   0  0  0  0  0  0  0  0  0  0  0  0
  136.5588   80.0857  218.7195 H   0  0  0  0  0  0  0  0  0  0  0  0
  138.4984   78.9992  219.8507 H   0  0  0  0  0  0  0  0  0  0  0  0
  140.3225   79.4047  221.5853 H   0  0  0  0  0  0  0  0  0  0  0  0
  142.0232   81.4027  218.6055 H   0  0  0  0  0  0  0  0  0  0  0  0
  143.3720   79.7260  217.1360 H   0  0  0  0  0  0  0  0  0  0  0  0
  143.9144   77.0429  217.2104 H   0  0  0  0  0  0  0  0  0  0  0  0
  143.4733   74.9458  218.5361 H   0  0  0  0  0  0  0  0  0  0  0  0
  142.0661   75.0408  220.6073 H   0  0  0  0  0  0  0  0  0  0  0  0
  141.0880   77.2327  221.3747 H   0  0  0  0  0  0  0  0  0  0  0  0
  1  2  2  0
  2  3  2  0
  2  4  1  0
  4  5  1  0
  5  6  2  0
  6  7  1  0
  7  8  2  0
  8  9  1  0
  9 10  2  0
  2 11  1  0
 11 12  1  0
 12 13  2  0
 13 14  1  0
 14 15  2  0
 15 16  1  0
 16 17  2  0
 17 18  1  0
 18 19  2  0
 19 20  1  0
 20 21  1  0
 21 22  2  0
 22 23  1  0
 23 24  1  0
 24 25  2  0
 25 26  1  0
 26 27  2  0
 27 28  1  0
 28 29  2  0
 10  5  1  0
 20 11  1  0
 29 21  1  0
 19 14  1  0
 29 24  1  0
  4 30  1  0
  4 31  1  0
  6 32  1  0
  7 33  1  0
  8 34  1  0
  9 35  1  0
 10 36  1  0
 12 37  1  0
 13 38  1  0
 15 39  1  0
 16 40  1  0
 17 41  1  0
 18 42  1  0
 20 43  1  1
 22 44  1  0
 23 45  1  0
 25 46  1  0
 26 47  1  0
 27 48  1  0
 28 49  1  0
M  END
>  <UniqueID>  (54) 
11

>  <SMILES>  (54) 
O=S(=O)(Cc1ccccc1)N1C=Cc2ccccc2[C@H]1c1c[nH]c2ccccc12

>  <Energy>  (54) 
80.99037269278776

>  <Genealogy>  (54) 
O=S(=O)(Cc1ccccc1)N1C=Cc2ccccc2[C@H]1c1c[nH]c2ccccc12 (chirality)
O=S(=O)(Cc1ccccc1)N1C=Cc2ccccc2[C@H]1c1c[nH]c2ccccc12 (3D coordinates assigned)
O=S(=O)(Cc1ccccc1)N1C=Cc2ccccc2[C@H]1c1c[nH]c2ccccc12 (nonaromatic ring conformer: 80.99037269278776 kcal/mol)

>  <smiles>  (54) 
O=S(=O)(Cc1ccccc1)N1C=Cc2ccccc2C1c1c[nH]c2ccccc12

>  <score_type>  (54) 
oracle

>  <origin>  (54) 
autodockgpu

>  <m_score__min__energy>  (54) 
-8.3599999999999994

>  <m_primary>  (54) 
energy

>  <meeko>  (54) 
{"free_energy": -7.16, "intermolecular_energy": -8.36, "internal_energy": -2.67, "cluster_size": 7, "cluster_id": 3, "rank_in_cluster": 1}

>  <energy>  (54) 
-7.15

>  <cluster_rmsd>  (54) 
0.05

>  <rmsd>  (54) 
270.56

>  <cluster>  (54) 
4

$$$$
YCOHEPDJLXZVBZ-DEOSSOPVNA-N
     RDKit          3D

 49 53  0  0  0  0  0  0  0  0999 V2000
  141.0510   75.4990  218.5390 O   0  0  0  0  0  0  0  0  0  0  0  0
  142.0950   75.9590  219.5180 S   0  0  0  0  0  0  0  0  0  0  0  0
  143.3760   76.2080  218.7740 O   0  0  0  0  0  0  0  0  0  0  0  0
  142.3580   74.6960  220.7550 C   0  0  0  0  0  0  0  0  0  0  0  0
  143.6200   73.9380  220.4540 C   0  0  0  0  0  0  0  0  0  0  0  0
  144.8720   74.5010  220.7520 C   0  0  0  0  0  0  0  0  0  0  0  0
  146.0410   73.7600  220.5630 C   0  0  0  0  0  0  0  0  0  0  0  0
  145.9690   72.4480  220.0840 C   0  0  0  0  0  0  0  0  0  0  0  0
  144.7280   71.8780  219.7900 C   0  0  0  0  0  0  0  0  0  0  0  0
  143.5570   72.6180  219.9740 C   0  0  0  0  0  0  0  0  0  0  0  0
  141.5640   77.4200  220.2950 N   0  0  0  0  0  0  0  0  0  0  0  0
  141.3210   78.5890  219.4940 C   0  0  0  0  0  0  0  0  0  0  0  0
  141.3320   79.8020  220.0440 C   0  0  0  0  0  0  0  0  0  0  0  0
  141.6100   79.9670  221.4810 C   0  0  0  0  0  0  0  0  0  0  0  0
  141.8070   81.2470  222.0180 C   0  0  0  0  0  0  0  0  0  0  0  0
  142.1070   81.4020  223.3730 C   0  0  0  0  0  0  0  0  0  0  0  0
  142.2100   80.2810  224.2010 C   0  0  0  0  0  0  0  0  0  0  0  0
  142.0110   79.0010  223.6750 C   0  0  0  0  0  0  0  0  0  0  0  0
  141.7140   78.8340  222.3130 C   0  0  0  0  0  0  0  0  0  0  0  0
  141.4490   77.4510  221.7600 C   0  0  1  0  0  0  0  0  0  0  0  0
  140.0760   76.9910  222.1730 C   0  0  0  0  0  0  0  0  0  0  0  0
  139.6520   75.6740  222.3330 C   0  0  0  0  0  0  0  0  0  0  0  0
  138.3400   75.6350  222.6580 N   0  0  0  0  0  0  0  0  0  0  0  0
  137.9280   76.9130  222.6950 C   0  0  0  0  0  0  0  0  0  0  0  0
  136.6430   77.3770  222.9720 C   0  0  0  0  0  0  0  0  0  0  0  0
  136.4230   78.7660  222.9410 C   0  0  0  0  0  0  0  0  0  0  0  0
  137.4820   79.6500  222.6340 C   0  0  0  0  0  0  0  0  0  0  0  0
  138.7670   79.1540  222.3570 C   0  0  0  0  0  0  0  0  0  0  0  0
  138.9560   77.7720  222.4000 C   0  0  0  0  0  0  0  0  0  0  0  0
  142.4436   75.1677  221.7450 H   0  0  0  0  0  0  0  0  0  0  0  0
  141.5070   73.9990  220.7466 H   0  0  0  0  0  0  0  0  0  0  0  0
  144.9321   75.5301  221.1359 H   0  0  0  0  0  0  0  0  0  0  0  0
  147.0190   74.2088  220.7911 H   0  0  0  0  0  0  0  0  0  0  0  0
  146.8901   71.8646  219.9387 H   0  0  0  0  0  0  0  0  0  0  0  0
  144.6725   70.8460  219.4134 H   0  0  0  0  0  0  0  0  0  0  0  0
  142.5814   72.1657  219.7422 H   0  0  0  0  0  0  0  0  0  0  0  0
  141.1242   78.4806  218.4172 H   0  0  0  0  0  0  0  0  0  0  0  0
  141.1322   80.6863  219.4210 H   0  0  0  0  0  0  0  0  0  0  0  0
  141.7250   82.1320  221.3699 H   0  0  0  0  0  0  0  0  0  0  0  0
  142.2625   82.4082  223.7893 H   0  0  0  0  0  0  0  0  0  0  0  0
  142.4479   80.4058  225.2677 H   0  0  0  0  0  0  0  0  0  0  0  0
  142.0874   78.1212  224.3309 H   0  0  0  0  0  0  0  0  0  0  0  0
  142.2099   76.7720  222.1724 H   0  0  0  0  0  0  0  0  0  0  0  0
  140.2945   74.7894  222.2119 H   0  0  0  0  0  0  0  0  0  0  0  0
  137.7640   74.7810  222.8320 H   0  0  0  0  0  0  0  0  0  0  0  0
  135.8264   76.6786  223.2075 H   0  0  0  0  0  0  0  0  0  0  0  0
  135.4214   79.1662  223.1568 H   0  0  0  0  0  0  0  0  0  0  0  0
  137.2989   80.7344  222.6118 H   0  0  0  0  0  0  0  0  0  0  0  0
  139.5974   79.8332  222.1140 H   0  0  0  0  0  0  0  0  0  0  0  0
  1  2  2  0
  2  3  2  0
  2  4  1  0
  4  5  1  0
  5  6  2  0
  6  7  1  0
  7  8  2  0
  8  9  1  0
  9 10  2  0
  2 11  1  0
 11 12  1  0
 12 13  2  0
 13 14  1  0
 14 15  2  0
 15 16  1  0
 16 17  2  0
 17 18  1  0
 18 19  2  0
 19 20  1  0
 20 21  1  0
 21 22  2  0
 22 23  1  0
 23 24  1  0
 24 25  2  0
 25 26  1  0
 26 27  2  0
 27 28  1  0
 28 29  2  0
 10  5  1  0
 20 11  1  0
 29 21  1  0
 19 14  1  0
 29 24  1  0
  4 30  1  0
  4 31  1  0
  6 32  1  0
  7 33  1  0
  8 34  1  0
  9 35  1  0
 10 36  1  0
 12 37  1  0
 13 38  1  0
 15 39  1  0
 16 40  1  0
 17 41  1  0
 18 42  1  0
 20 43  1  1
 22 44  1  0
 23 45  1  0
 25 46  1  0
 26 47  1  0
 27 48  1  0
 28 49  1  0
M  END
>  <UniqueID>  (55) 
11

>  <SMILES>  (55) 
O=S(=O)(Cc1ccccc1)N1C=Cc2ccccc2[C@H]1c1c[nH]c2ccccc12

>  <Energy>  (55) 
80.99037269278776

>  <Genealogy>  (55) 
O=S(=O)(Cc1ccccc1)N1C=Cc2ccccc2[C@H]1c1c[nH]c2ccccc12 (chirality)
O=S(=O)(Cc1ccccc1)N1C=Cc2ccccc2[C@H]1c1c[nH]c2ccccc12 (3D coordinates assigned)
O=S(=O)(Cc1ccccc1)N1C=Cc2ccccc2[C@H]1c1c[nH]c2ccccc12 (nonaromatic ring conformer: 80.99037269278776 kcal/mol)

>  <smiles>  (55) 
O=S(=O)(Cc1ccccc1)N1C=Cc2ccccc2C1c1c[nH]c2ccccc12

>  <score_type>  (55) 
oracle

>  <origin>  (55) 
autodockgpu

>  <m_score__min__energy>  (55) 
-8.3599999999999994

>  <m_primary>  (55) 
energy

>  <meeko>  (55) 
{"free_energy": -8.28, "intermolecular_energy": -9.47, "internal_energy": -1.59, "cluster_size": 2, "cluster_id": 2, "rank_in_cluster": 1}

>  <energy>  (55) 
-7.15

>  <cluster_rmsd>  (55) 
0.08

>  <rmsd>  (55) 
270.53

>  <cluster>  (55) 
4

$$$$
YCOHEPDJLXZVBZ-DEOSSOPVNA-N
     RDKit          3D

 49 53  0  0  0  0  0  0  0  0999 V2000
  139.5830   72.8570  222.7050 O   0  0  0  0  0  0  0  0  0  0  0  0
  140.2890   71.5330  222.6170 S   0  0  0  0  0  0  0  0  0  0  0  0
  141.3680   71.4920  223.6630 O   0  0  0  0  0  0  0  0  0  0  0  0
  141.0200   71.3460  220.9970 C   0  0  0  0  0  0  0  0  0  0  0  0
  142.2110   72.2530  220.8630 C   0  0  0  0  0  0  0  0  0  0  0  0
  143.5080   71.7140  220.8160 C   0  0  0  0  0  0  0  0  0  0  0  0
  144.6090   72.5470  220.5960 C   0  0  0  0  0  0  0  0  0  0  0  0
  144.4230   73.9200  220.4110 C   0  0  0  0  0  0  0  0  0  0  0  0
  143.1360   74.4630  220.4500 C   0  0  0  0  0  0  0  0  0  0  0  0
  142.0330   73.6340  220.6760 C   0  0  0  0  0  0  0  0  0  0  0  0
  139.1530   70.2470  222.8850 N   0  0  0  0  0  0  0  0  0  0  0  0
  139.0020   69.2260  221.8840 C   0  0  0  0  0  0  0  0  0  0  0  0
  137.8940   68.4880  221.8280 C   0  0  0  0  0  0  0  0  0  0  0  0
  136.7970   68.7180  222.7830 C   0  0  0  0  0  0  0  0  0  0  0  0
  135.5640   68.0740  222.6060 C   0  0  0  0  0  0  0  0  0  0  0  0
  134.5110   68.3190  223.4900 C   0  0  0  0  0  0  0  0  0  0  0  0
  134.6820   69.2060  224.5560 C   0  0  0  0  0  0  0  0  0  0  0  0
  135.9090   69.8480  224.7420 C   0  0  0  0  0  0  0  0  0  0  0  0
  136.9730   69.6130  223.8570 C   0  0  0  0  0  0  0  0  0  0  0  0
  138.3140   70.2720  224.0920 C   0  0  1  0  0  0  0  0  0  0  0  0
  139.0300   69.5810  225.2230 C   0  0  0  0  0  0  0  0  0  0  0  0
  138.9600   68.2290  225.5510 C   0  0  0  0  0  0  0  0  0  0  0  0
  139.6900   67.9720  226.6600 N   0  0  0  0  0  0  0  0  0  0  0  0
  140.2120   69.1500  227.0420 C   0  0  0  0  0  0  0  0  0  0  0  0
  141.0270   69.3920  228.1470 C   0  0  0  0  0  0  0  0  0  0  0  0
  141.4530   70.7130  228.3740 C   0  0  0  0  0  0  0  0  0  0  0  0
  141.0560   71.7510  227.5030 C   0  0  0  0  0  0  0  0  0  0  0  0
  140.2310   71.4790  226.3970 C   0  0  0  0  0  0  0  0  0  0  0  0
  139.8290   70.1580  226.1940 C   0  0  0  0  0  0  0  0  0  0  0  0
  141.3395   70.3024  220.8597 H   0  0  0  0  0  0  0  0  0  0  0  0
  140.2757   71.6118  220.2320 H   0  0  0  0  0  0  0  0  0  0  0  0
  143.6574   70.6328  220.9528 H   0  0  0  0  0  0  0  0  0  0  0  0
  145.6230   72.1214  220.5684 H   0  0  0  0  0  0  0  0  0  0  0  0
  145.2902   74.5734  220.2346 H   0  0  0  0  0  0  0  0  0  0  0  0
  142.9906   75.5434  220.3028 H   0  0  0  0  0  0  0  0  0  0  0  0
  141.0214   74.0650  220.7075 H   0  0  0  0  0  0  0  0  0  0  0  0
  139.8092   69.0524  221.1572 H   0  0  0  0  0  0  0  0  0  0  0  0
  137.7982   67.7024  221.0640 H   0  0  0  0  0  0  0  0  0  0  0  0
  135.4258   67.3741  221.7687 H   0  0  0  0  0  0  0  0  0  0  0  0
  133.5450   67.8127  223.3468 H   0  0  0  0  0  0  0  0  0  0  0  0
  133.8501   69.3990  225.2493 H   0  0  0  0  0  0  0  0  0  0  0  0
  136.0418   70.5409  225.5860 H   0  0  0  0  0  0  0  0  0  0  0  0
  138.1299   71.3247  224.3525 H   0  0  0  0  0  0  0  0  0  0  0  0
  138.3906   67.4757  224.9868 H   0  0  0  0  0  0  0  0  0  0  0  0
  139.8110   67.0470  227.1280 H   0  0  0  0  0  0  0  0  0  0  0  0
  141.3274   68.5755  228.8201 H   0  0  0  0  0  0  0  0  0  0  0  0
  142.0992   70.9388  229.2350 H   0  0  0  0  0  0  0  0  0  0  0  0
  141.3947   72.7805  227.6910 H   0  0  0  0  0  0  0  0  0  0  0  0
  139.9131   72.2809  225.7145 H   0  0  0  0  0  0  0  0  0  0  0  0
  1  2  2  0
  2  3  2  0
  2  4  1  0
  4  5  1  0
  5  6  2  0
  6  7  1  0
  7  8  2  0
  8  9  1  0
  9 10  2  0
  2 11  1  0
 11 12  1  0
 12 13  2  0
 13 14  1  0
 14 15  2  0
 15 16  1  0
 16 17  2  0
 17 18  1  0
 18 19  2  0
 19 20  1  0
 20 21  1  0
 21 22  2  0
 22 23  1  0
 23 24  1  0
 24 25  2  0
 25 26  1  0
 26 27  2  0
 27 28  1  0
 28 29  2  0
 10  5  1  0
 20 11  1  0
 29 21  1  0
 19 14  1  0
 29 24  1  0
  4 30  1  0
  4 31  1  0
  6 32  1  0
  7 33  1  0
  8 34  1  0
  9 35  1  0
 10 36  1  0
 12 37  1  0
 13 38  1  0
 15 39  1  0
 16 40  1  0
 17 41  1  0
 18 42  1  0
 20 43  1  1
 22 44  1  0
 23 45  1  0
 25 46  1  0
 26 47  1  0
 27 48  1  0
 28 49  1  0
M  END
>  <UniqueID>  (56) 
11

>  <SMILES>  (56) 
O=S(=O)(Cc1ccccc1)N1C=Cc2ccccc2[C@H]1c1c[nH]c2ccccc12

>  <Energy>  (56) 
80.99037269278776

>  <Genealogy>  (56) 
O=S(=O)(Cc1ccccc1)N1C=Cc2ccccc2[C@H]1c1c[nH]c2ccccc12 (chirality)
O=S(=O)(Cc1ccccc1)N1C=Cc2ccccc2[C@H]1c1c[nH]c2ccccc12 (3D coordinates assigned)
O=S(=O)(Cc1ccccc1)N1C=Cc2ccccc2[C@H]1c1c[nH]c2ccccc12 (nonaromatic ring conformer: 80.99037269278776 kcal/mol)

>  <smiles>  (56) 
O=S(=O)(Cc1ccccc1)N1C=Cc2ccccc2C1c1c[nH]c2ccccc12

>  <score_type>  (56) 
oracle

>  <origin>  (56) 
autodockgpu

>  <m_score__min__energy>  (56) 
-8.3599999999999994

>  <m_primary>  (56) 
energy

>  <meeko>  (56) 
{"free_energy": -8.31, "intermolecular_energy": -9.5, "internal_energy": -1.62, "cluster_size": 3, "cluster_id": 1, "rank_in_cluster": 3}

>  <energy>  (56) 
-7.14

>  <cluster_rmsd>  (56) 
0.02

>  <rmsd>  (56) 
270.57

>  <cluster>  (56) 
4

$$$$
YCOHEPDJLXZVBZ-DEOSSOPVNA-N
     RDKit          3D

 49 53  0  0  0  0  0  0  0  0999 V2000
  139.2060   75.9330  220.1730 O   0  0  0  0  0  0  0  0  0  0  0  0
  139.3480   76.2530  221.6350 S   0  0  0  0  0  0  0  0  0  0  0  0
  139.8320   75.0230  222.3520 O   0  0  0  0  0  0  0  0  0  0  0  0
  137.7660   76.7500  222.3000 C   0  0  0  0  0  0  0  0  0  0  0  0
  137.6910   78.2490  222.3800 C   0  0  0  0  0  0  0  0  0  0  0  0
  138.2360   78.9270  223.4840 C   0  0  0  0  0  0  0  0  0  0  0  0
  138.2520   80.3240  223.5140 C   0  0  0  0  0  0  0  0  0  0  0  0
  137.7330   81.0540  222.4410 C   0  0  0  0  0  0  0  0  0  0  0  0
  137.1940   80.3880  221.3370 C   0  0  0  0  0  0  0  0  0  0  0  0
  137.1720   78.9910  221.3050 C   0  0  0  0  0  0  0  0  0  0  0  0
  140.4890   77.5480  221.8410 N   0  0  0  0  0  0  0  0  0  0  0  0
  141.2640   77.6130  223.0500 C   0  0  0  0  0  0  0  0  0  0  0  0
  141.8130   78.7600  223.4440 C   0  0  0  0  0  0  0  0  0  0  0  0
  141.6210   79.9880  222.6540 C   0  0  0  0  0  0  0  0  0  0  0  0
  142.0370   81.2260  223.1640 C   0  0  0  0  0  0  0  0  0  0  0  0
  141.8230   82.3960  222.4310 C   0  0  0  0  0  0  0  0  0  0  0  0
  141.1930   82.3370  221.1850 C   0  0  0  0  0  0  0  0  0  0  0  0
  140.7790   81.1070  220.6670 C   0  0  0  0  0  0  0  0  0  0  0  0
  140.9850   79.9250  221.3970 C   0  0  0  0  0  0  0  0  0  0  0  0
  140.5810   78.5910  220.8100 C   0  0  1  0  0  0  0  0  0  0  0  0
  141.5720   78.1780  219.7540 C   0  0  0  0  0  0  0  0  0  0  0  0
  142.0060   78.9430  218.6740 C   0  0  0  0  0  0  0  0  0  0  0  0
  142.8560   78.2310  217.9000 N   0  0  0  0  0  0  0  0  0  0  0  0
  142.9570   77.0200  218.4750 C   0  0  0  0  0  0  0  0  0  0  0  0
  143.7100   75.9350  218.0300 C   0  0  0  0  0  0  0  0  0  0  0  0
  143.6590   74.7460  218.7790 C   0  0  0  0  0  0  0  0  0  0  0  0
  142.8610   74.6690  219.9420 C   0  0  0  0  0  0  0  0  0  0  0  0
  142.1090   75.7780  220.3670 C   0  0  0  0  0  0  0  0  0  0  0  0
  142.1840   76.9460  219.6060 C   0  0  0  0  0  0  0  0  0  0  0  0
  136.9630   76.3793  221.6459 H   0  0  0  0  0  0  0  0  0  0  0  0
  137.6494   76.3279  223.3091 H   0  0  0  0  0  0  0  0  0  0  0  0
  138.6514   78.3559  224.3274 H   0  0  0  0  0  0  0  0  0  0  0  0
  138.6736   80.8499  224.3833 H   0  0  0  0  0  0  0  0  0  0  0  0
  137.7488   82.1536  222.4656 H   0  0  0  0  0  0  0  0  0  0  0  0
  136.7868   80.9637  220.4927 H   0  0  0  0  0  0  0  0  0  0  0  0
  136.7466   78.4698  220.4347 H   0  0  0  0  0  0  0  0  0  0  0  0
  141.4049   76.7057  223.6558 H   0  0  0  0  0  0  0  0  0  0  0  0
  142.4136   78.7907  224.3651 H   0  0  0  0  0  0  0  0  0  0  0  0
  142.5334   81.2763  224.1443 H   0  0  0  0  0  0  0  0  0  0  0  0
  142.1509   83.3651  222.8353 H   0  0  0  0  0  0  0  0  0  0  0  0
  141.0228   83.2600  220.6113 H   0  0  0  0  0  0  0  0  0  0  0  0
  140.2895   81.0643  219.6829 H   0  0  0  0  0  0  0  0  0  0  0  0
  139.5838   78.7089  220.3609 H   0  0  0  0  0  0  0  0  0  0  0  0
  141.7000   79.9813  218.4781 H   0  0  0  0  0  0  0  0  0  0  0  0
  143.3280   78.5550  217.0280 H   0  0  0  0  0  0  0  0  0  0  0  0
  144.3252   76.0065  217.1209 H   0  0  0  0  0  0  0  0  0  0  0  0
  144.2435   73.8714  218.4576 H   0  0  0  0  0  0  0  0  0  0  0  0
  142.8277   73.7336  220.5198 H   0  0  0  0  0  0  0  0  0  0  0  0
  141.4821   75.7272  221.2695 H   0  0  0  0  0  0  0  0  0  0  0  0
  1  2  2  0
  2  3  2  0
  2  4  1  0
  4  5  1  0
  5  6  2  0
  6  7  1  0
  7  8  2  0
  8  9  1  0
  9 10  2  0
  2 11  1  0
 11 12  1  0
 12 13  2  0
 13 14  1  0
 14 15  2  0
 15 16  1  0
 16 17  2  0
 17 18  1  0
 18 19  2  0
 19 20  1  0
 20 21  1  0
 21 22  2  0
 22 23  1  0
 23 24  1  0
 24 25  2  0
 25 26  1  0
 26 27  2  0
 27 28  1  0
 28 29  2  0
 10  5  1  0
 20 11  1  0
 29 21  1  0
 19 14  1  0
 29 24  1  0
  4 30  1  0
  4 31  1  0
  6 32  1  0
  7 33  1  0
  8 34  1  0
  9 35  1  0
 10 36  1  0
 12 37  1  0
 13 38  1  0
 15 39  1  0
 16 40  1  0
 17 41  1  0
 18 42  1  0
 20 43  1  6
 22 44  1  0
 23 45  1  0
 25 46  1  0
 26 47  1  0
 27 48  1  0
 28 49  1  0
M  END
>  <UniqueID>  (57) 
11

>  <SMILES>  (57) 
O=S(=O)(Cc1ccccc1)N1C=Cc2ccccc2[C@H]1c1c[nH]c2ccccc12

>  <Energy>  (57) 
80.99037269278776

>  <Genealogy>  (57) 
O=S(=O)(Cc1ccccc1)N1C=Cc2ccccc2[C@H]1c1c[nH]c2ccccc12 (chirality)
O=S(=O)(Cc1ccccc1)N1C=Cc2ccccc2[C@H]1c1c[nH]c2ccccc12 (3D coordinates assigned)
O=S(=O)(Cc1ccccc1)N1C=Cc2ccccc2[C@H]1c1c[nH]c2ccccc12 (nonaromatic ring conformer: 80.99037269278776 kcal/mol)

>  <smiles>  (57) 
O=S(=O)(Cc1ccccc1)N1C=Cc2ccccc2C1c1c[nH]c2ccccc12

>  <score_type>  (57) 
oracle

>  <origin>  (57) 
autodockgpu

>  <m_score__min__energy>  (57) 
-8.3599999999999994

>  <m_primary>  (57) 
energy

>  <meeko>  (57) 
{"free_energy": -7.12, "intermolecular_energy": -8.31, "internal_energy": -2.62, "cluster_size": 8, "cluster_id": 4, "rank_in_cluster": 7}

>  <energy>  (57) 
-7.14

>  <cluster_rmsd>  (57) 
0.03

>  <rmsd>  (57) 
270.57

>  <cluster>  (57) 
4

$$$$
YCOHEPDJLXZVBZ-DEOSSOPVNA-N
     RDKit          3D

 49 53  0  0  0  0  0  0  0  0999 V2000
  139.2030   75.9630  220.1600 O   0  0  0  0  0  0  0  0  0  0  0  0
  139.3170   76.2730  221.6270 S   0  0  0  0  0  0  0  0  0  0  0  0
  139.7750   75.0350  222.3460 O   0  0  0  0  0  0  0  0  0  0  0  0
  137.7250   76.7790  222.2600 C   0  0  0  0  0  0  0  0  0  0  0  0
  137.6590   78.2780  222.3470 C   0  0  0  0  0  0  0  0  0  0  0  0
  138.1870   78.9450  223.4650 C   0  0  0  0  0  0  0  0  0  0  0  0
  138.2130   80.3420  223.5040 C   0  0  0  0  0  0  0  0  0  0  0  0
  137.7220   81.0820  222.4250 C   0  0  0  0  0  0  0  0  0  0  0  0
  137.2010   80.4260  221.3060 C   0  0  0  0  0  0  0  0  0  0  0  0
  137.1690   79.0300  221.2660 C   0  0  0  0  0  0  0  0  0  0  0  0
  140.4630   77.5570  221.8640 N   0  0  0  0  0  0  0  0  0  0  0  0
  141.2320   77.5930  223.0780 C   0  0  0  0  0  0  0  0  0  0  0  0
  141.7860   78.7290  223.4980 C   0  0  0  0  0  0  0  0  0  0  0  0
  141.6030   79.9740  222.7330 C   0  0  0  0  0  0  0  0  0  0  0  0
  142.0240   81.1990  223.2710 C   0  0  0  0  0  0  0  0  0  0  0  0
  141.8180   82.3850  222.5630 C   0  0  0  0  0  0  0  0  0  0  0  0
  141.1940   82.3550  221.3130 C   0  0  0  0  0  0  0  0  0  0  0  0
  140.7760   81.1390  220.7670 C   0  0  0  0  0  0  0  0  0  0  0  0
  140.9730   79.9410  221.4730 C   0  0  0  0  0  0  0  0  0  0  0  0
  140.5650   78.6220  220.8560 C   0  0  1  0  0  0  0  0  0  0  0  0
  141.5580   78.2260  219.7960 C   0  0  0  0  0  0  0  0  0  0  0  0
  141.9950   79.0080  218.7300 C   0  0  0  0  0  0  0  0  0  0  0  0
  142.8470   78.3090  217.9460 N   0  0  0  0  0  0  0  0  0  0  0  0
  142.9460   77.0890  218.5020 C   0  0  0  0  0  0  0  0  0  0  0  0
  143.7000   76.0120  218.0410 C   0  0  0  0  0  0  0  0  0  0  0  0
  143.6480   74.8110  218.7700 C   0  0  0  0  0  0  0  0  0  0  0  0
  142.8470   74.7140  219.9300 C   0  0  0  0  0  0  0  0  0  0  0  0
  142.0940   75.8160  220.3710 C   0  0  0  0  0  0  0  0  0  0  0  0
  142.1700   76.9970  219.6300 C   0  0  0  0  0  0  0  0  0  0  0  0
  136.9338   76.4181  221.5865 H   0  0  0  0  0  0  0  0  0  0  0  0
  137.5836   76.3526  223.2641 H   0  0  0  0  0  0  0  0  0  0  0  0
  138.5814   78.3657  224.3129 H   0  0  0  0  0  0  0  0  0  0  0  0
  138.6204   80.8595  224.3850 H   0  0  0  0  0  0  0  0  0  0  0  0
  137.7455   82.1813  222.4563 H   0  0  0  0  0  0  0  0  0  0  0  0
  136.8160   81.0093  220.4565 H   0  0  0  0  0  0  0  0  0  0  0  0
  136.7582   78.5170  220.3839 H   0  0  0  0  0  0  0  0  0  0  0  0
  141.3642   76.6729  223.6661 H   0  0  0  0  0  0  0  0  0  0  0  0
  142.3836   78.7373  224.4215 H   0  0  0  0  0  0  0  0  0  0  0  0
  142.5179   81.2256  224.2535 H   0  0  0  0  0  0  0  0  0  0  0  0
  142.1473   83.3439  222.9898 H   0  0  0  0  0  0  0  0  0  0  0  0
  141.0316   83.2907  220.7579 H   0  0  0  0  0  0  0  0  0  0  0  0
  140.2906   81.1197  219.7801 H   0  0  0  0  0  0  0  0  0  0  0  0
  139.5704   78.7554  220.4054 H   0  0  0  0  0  0  0  0  0  0  0  0
  141.6897   80.0494  218.5505 H   0  0  0  0  0  0  0  0  0  0  0  0
  143.3200   78.6480  217.0800 H   0  0  0  0  0  0  0  0  0  0  0  0
  144.3170   76.0987  217.1345 H   0  0  0  0  0  0  0  0  0  0  0  0
  144.2340   73.9422  218.4356 H   0  0  0  0  0  0  0  0  0  0  0  0
  142.8124   73.7691  220.4921 H   0  0  0  0  0  0  0  0  0  0  0  0
  141.4650   75.7501  221.2710 H   0  0  0  0  0  0  0  0  0  0  0  0
  1  2  2  0
  2  3  2  0
  2  4  1  0
  4  5  1  0
  5  6  2  0
  6  7  1  0
  7  8  2  0
  8  9  1  0
  9 10  2  0
  2 11  1  0
 11 12  1  0
 12 13  2  0
 13 14  1  0
 14 15  2  0
 15 16  1  0
 16 17  2  0
 17 18  1  0
 18 19  2  0
 19 20  1  0
 20 21  1  0
 21 22  2  0
 22 23  1  0
 23 24  1  0
 24 25  2  0
 25 26  1  0
 26 27  2  0
 27 28  1  0
 28 29  2  0
 10  5  1  0
 20 11  1  0
 29 21  1  0
 19 14  1  0
 29 24  1  0
  4 30  1  0
  4 31  1  0
  6 32  1  0
  7 33  1  0
  8 34  1  0
  9 35  1  0
 10 36  1  0
 12 37  1  0
 13 38  1  0
 15 39  1  0
 16 40  1  0
 17 41  1  0
 18 42  1  0
 20 43  1  6
 22 44  1  0
 23 45  1  0
 25 46  1  0
 26 47  1  0
 27 48  1  0
 28 49  1  0
M  END
>  <UniqueID>  (58) 
11

>  <SMILES>  (58) 
O=S(=O)(Cc1ccccc1)N1C=Cc2ccccc2[C@H]1c1c[nH]c2ccccc12

>  <Energy>  (58) 
80.99037269278776

>  <Genealogy>  (58) 
O=S(=O)(Cc1ccccc1)N1C=Cc2ccccc2[C@H]1c1c[nH]c2ccccc12 (chirality)
O=S(=O)(Cc1ccccc1)N1C=Cc2ccccc2[C@H]1c1c[nH]c2ccccc12 (3D coordinates assigned)
O=S(=O)(Cc1ccccc1)N1C=Cc2ccccc2[C@H]1c1c[nH]c2ccccc12 (nonaromatic ring conformer: 80.99037269278776 kcal/mol)

>  <smiles>  (58) 
O=S(=O)(Cc1ccccc1)N1C=Cc2ccccc2C1c1c[nH]c2ccccc12

>  <score_type>  (58) 
oracle

>  <origin>  (58) 
autodockgpu

>  <m_score__min__energy>  (58) 
-8.3599999999999994

>  <m_primary>  (58) 
energy

>  <meeko>  (58) 
{"free_energy": -7.16, "intermolecular_energy": -8.35, "internal_energy": -2.61, "cluster_size": 8, "cluster_id": 4, "rank_in_cluster": 1}

>  <energy>  (58) 
-7.13

>  <cluster_rmsd>  (58) 
0.02

>  <rmsd>  (58) 
270.56

>  <cluster>  (58) 
4

$$$$
YCOHEPDJLXZVBZ-DEOSSOPVNA-N
     RDKit          3D

 49 53  0  0  0  0  0  0  0  0999 V2000
  143.6770   80.1380  222.7710 O   0  0  0  0  0  0  0  0  0  0  0  0
  142.2960   80.5750  223.1720 S   0  0  0  0  0  0  0  0  0  0  0  0
  142.4150   81.6480  224.2170 O   0  0  0  0  0  0  0  0  0  0  0  0
  141.3960   79.1840  223.8420 C   0  0  0  0  0  0  0  0  0  0  0  0
  139.9260   79.3460  223.5750 C   0  0  0  0  0  0  0  0  0  0  0  0
  139.1940   78.2980  222.9910 C   0  0  0  0  0  0  0  0  0  0  0  0
  137.8100   78.4110  222.8300 C   0  0  0  0  0  0  0  0  0  0  0  0
  137.1460   79.5640  223.2570 C   0  0  0  0  0  0  0  0  0  0  0  0
  137.8660   80.6090  223.8430 C   0  0  0  0  0  0  0  0  0  0  0  0
  139.2500   80.5020  224.0020 C   0  0  0  0  0  0  0  0  0  0  0  0
  141.4510   81.1880  221.7830 N   0  0  0  0  0  0  0  0  0  0  0  0
  141.4540   82.6030  221.5300 C   0  0  0  0  0  0  0  0  0  0  0  0
  140.5130   83.1580  220.7680 C   0  0  0  0  0  0  0  0  0  0  0  0
  139.4430   82.3320  220.1850 C   0  0  0  0  0  0  0  0  0  0  0  0
  138.3540   82.9410  219.5440 C   0  0  0  0  0  0  0  0  0  0  0  0
  137.3210   82.1600  219.0220 C   0  0  0  0  0  0  0  0  0  0  0  0
  137.3680   80.7680  219.1350 C   0  0  0  0  0  0  0  0  0  0  0  0
  138.4510   80.1530  219.7680 C   0  0  0  0  0  0  0  0  0  0  0  0
  139.4940   80.9290  220.3010 C   0  0  0  0  0  0  0  0  0  0  0  0
  140.6880   80.2560  220.9400 C   0  0  1  0  0  0  0  0  0  0  0  0
  141.5840   79.6860  219.8720 C   0  0  0  0  0  0  0  0  0  0  0  0
  142.1360   80.3720  218.7930 C   0  0  0  0  0  0  0  0  0  0  0  0
  142.8430   79.5300  218.0070 N   0  0  0  0  0  0  0  0  0  0  0  0
  142.7360   78.3160  218.5720 C   0  0  0  0  0  0  0  0  0  0  0  0
  143.2850   77.1200  218.1120 C   0  0  0  0  0  0  0  0  0  0  0  0
  143.0340   75.9520  218.8540 C   0  0  0  0  0  0  0  0  0  0  0  0
  142.2440   76.0040  220.0230 C   0  0  0  0  0  0  0  0  0  0  0  0
  141.7000   77.2240  220.4630 C   0  0  0  0  0  0  0  0  0  0  0  0
  141.9710   78.3670  219.7100 C   0  0  0  0  0  0  0  0  0  0  0  0
  141.7523   78.2573  223.3683 H   0  0  0  0  0  0  0  0  0  0  0  0
  141.5625   79.1357  224.9283 H   0  0  0  0  0  0  0  0  0  0  0  0
  139.7118   77.3859  222.6595 H   0  0  0  0  0  0  0  0  0  0  0  0
  137.2425   77.5907  222.3663 H   0  0  0  0  0  0  0  0  0  0  0  0
  136.0565   79.6493  223.1320 H   0  0  0  0  0  0  0  0  0  0  0  0
  137.3426   81.5162  224.1792 H   0  0  0  0  0  0  0  0  0  0  0  0
  139.8133   81.3264  224.4636 H   0  0  0  0  0  0  0  0  0  0  0  0
  142.2408   83.2334  221.9698 H   0  0  0  0  0  0  0  0  0  0  0  0
  140.5356   84.2404  220.5731 H   0  0  0  0  0  0  0  0  0  0  0  0
  138.3138   84.0364  219.4524 H   0  0  0  0  0  0  0  0  0  0  0  0
  136.4684   82.6415  218.5208 H   0  0  0  0  0  0  0  0  0  0  0  0
  136.5513   80.1557  218.7250 H   0  0  0  0  0  0  0  0  0  0  0  0
  138.4873   79.0566  219.8495 H   0  0  0  0  0  0  0  0  0  0  0  0
  140.3135   79.4472  221.5846 H   0  0  0  0  0  0  0  0  0  0  0  0
  142.0136   81.4491  218.6065 H   0  0  0  0  0  0  0  0  0  0  0  0
  143.3570   79.7750  217.1320 H   0  0  0  0  0  0  0  0  0  0  0  0
  143.8954   77.0908  217.1974 H   0  0  0  0  0  0  0  0  0  0  0  0
  143.4558   74.9920  218.5216 H   0  0  0  0  0  0  0  0  0  0  0  0
  142.0526   75.0834  220.5939 H   0  0  0  0  0  0  0  0  0  0  0  0
  141.0812   77.2754  221.3710 H   0  0  0  0  0  0  0  0  0  0  0  0
  1  2  2  0
  2  3  2  0
  2  4  1  0
  4  5  1  0
  5  6  2  0
  6  7  1  0
  7  8  2  0
  8  9  1  0
  9 10  2  0
  2 11  1  0
 11 12  1  0
 12 13  2  0
 13 14  1  0
 14 15  2  0
 15 16  1  0
 16 17  2  0
 17 18  1  0
 18 19  2  0
 19 20  1  0
 20 21  1  0
 21 22  2  0
 22 23  1  0
 23 24  1  0
 24 25  2  0
 25 26  1  0
 26 27  2  0
 27 28  1  0
 28 29  2  0
 10  5  1  0
 20 11  1  0
 29 21  1  0
 19 14  1  0
 29 24  1  0
  4 30  1  0
  4 31  1  0
  6 32  1  0
  7 33  1  0
  8 34  1  0
  9 35  1  0
 10 36  1  0
 12 37  1  0
 13 38  1  0
 15 39  1  0
 16 40  1  0
 17 41  1  0
 18 42  1  0
 20 43  1  1
 22 44  1  0
 23 45  1  0
 25 46  1  0
 26 47  1  0
 27 48  1  0
 28 49  1  0
M  END
>  <UniqueID>  (59) 
11

>  <SMILES>  (59) 
O=S(=O)(Cc1ccccc1)N1C=Cc2ccccc2[C@H]1c1c[nH]c2ccccc12

>  <Energy>  (59) 
80.99037269278776

>  <Genealogy>  (59) 
O=S(=O)(Cc1ccccc1)N1C=Cc2ccccc2[C@H]1c1c[nH]c2ccccc12 (chirality)
O=S(=O)(Cc1ccccc1)N1C=Cc2ccccc2[C@H]1c1c[nH]c2ccccc12 (3D coordinates assigned)
O=S(=O)(Cc1ccccc1)N1C=Cc2ccccc2[C@H]1c1c[nH]c2ccccc12 (nonaromatic ring conformer: 80.99037269278776 kcal/mol)

>  <smiles>  (59) 
O=S(=O)(Cc1ccccc1)N1C=Cc2ccccc2C1c1c[nH]c2ccccc12

>  <score_type>  (59) 
oracle

>  <origin>  (59) 
autodockgpu

>  <m_score__min__energy>  (59) 
-8.3599999999999994

>  <m_primary>  (59) 
energy

>  <meeko>  (59) 
{"free_energy": -7.16, "intermolecular_energy": -8.36, "internal_energy": -2.56, "cluster_size": 7, "cluster_id": 3, "rank_in_cluster": 3}

>  <energy>  (59) 
-7.12

>  <cluster_rmsd>  (59) 
0.07

>  <rmsd>  (59) 
270.54

>  <cluster>  (59) 
4

$$$$
YCOHEPDJLXZVBZ-DEOSSOPVNA-N
     RDKit          3D

 49 53  0  0  0  0  0  0  0  0999 V2000
  139.5680   72.8480  222.7140 O   0  0  0  0  0  0  0  0  0  0  0  0
  140.2820   71.5260  222.6540 S   0  0  0  0  0  0  0  0  0  0  0  0
  141.3360   71.5000  223.7250 O   0  0  0  0  0  0  0  0  0  0  0  0
  141.0510   71.3290  221.0540 C   0  0  0  0  0  0  0  0  0  0  0  0
  142.2070   72.2800  220.9190 C   0  0  0  0  0  0  0  0  0  0  0  0
  143.5220   71.7890  220.8530 C   0  0  0  0  0  0  0  0  0  0  0  0
  144.5900   72.6640  220.6310 C   0  0  0  0  0  0  0  0  0  0  0  0
  144.3520   74.0310  220.4640 C   0  0  0  0  0  0  0  0  0  0  0  0
  143.0470   74.5270  220.5230 C   0  0  0  0  0  0  0  0  0  0  0  0
  141.9770   73.6560  220.7490 C   0  0  0  0  0  0  0  0  0  0  0  0
  139.1450   70.2360  222.9060 N   0  0  0  0  0  0  0  0  0  0  0  0
  139.0080   69.2180  221.9010 C   0  0  0  0  0  0  0  0  0  0  0  0
  137.9030   68.4770  221.8320 C   0  0  0  0  0  0  0  0  0  0  0  0
  136.7950   68.7020  222.7750 C   0  0  0  0  0  0  0  0  0  0  0  0
  135.5650   68.0560  222.5830 C   0  0  0  0  0  0  0  0  0  0  0  0
  134.5010   68.2960  223.4560 C   0  0  0  0  0  0  0  0  0  0  0  0
  134.6590   69.1810  224.5250 C   0  0  0  0  0  0  0  0  0  0  0  0
  135.8820   69.8260  224.7270 C   0  0  0  0  0  0  0  0  0  0  0  0
  136.9570   69.5960  223.8530 C   0  0  0  0  0  0  0  0  0  0  0  0
  138.2940   70.2570  224.1050 C   0  0  1  0  0  0  0  0  0  0  0  0
  138.9980   69.5650  225.2420 C   0  0  0  0  0  0  0  0  0  0  0  0
  138.9150   68.2160  225.5760 C   0  0  0  0  0  0  0  0  0  0  0  0
  139.6380   67.9570  226.6890 N   0  0  0  0  0  0  0  0  0  0  0  0
  140.1700   69.1320  227.0670 C   0  0  0  0  0  0  0  0  0  0  0  0
  140.9820   69.3720  228.1740 C   0  0  0  0  0  0  0  0  0  0  0  0
  141.4190   70.6900  228.3970 C   0  0  0  0  0  0  0  0  0  0  0  0
  141.0350   71.7280  227.5190 C   0  0  0  0  0  0  0  0  0  0  0  0
  140.2130   71.4580  226.4110 C   0  0  0  0  0  0  0  0  0  0  0  0
  139.7990   70.1390  226.2130 C   0  0  0  0  0  0  0  0  0  0  0  0
  141.4147   70.2962  220.9493 H   0  0  0  0  0  0  0  0  0  0  0  0
  140.3117   71.5454  220.2688 H   0  0  0  0  0  0  0  0  0  0  0  0
  143.7119   70.7126  220.9764 H   0  0  0  0  0  0  0  0  0  0  0  0
  145.6184   72.2760  220.5878 H   0  0  0  0  0  0  0  0  0  0  0  0
  145.1930   74.7173  220.2859 H   0  0  0  0  0  0  0  0  0  0  0  0
  142.8615   75.6032  220.3916 H   0  0  0  0  0  0  0  0  0  0  0  0
  140.9507   74.0494  220.7939 H   0  0  0  0  0  0  0  0  0  0  0  0
  139.8231   69.0490  221.1820 H   0  0  0  0  0  0  0  0  0  0  0  0
  137.8180   67.6923  221.0658 H   0  0  0  0  0  0  0  0  0  0  0  0
  135.4377   67.3581  221.7423 H   0  0  0  0  0  0  0  0  0  0  0  0
  133.5379   67.7875  223.3013 H   0  0  0  0  0  0  0  0  0  0  0  0
  133.8189   69.3706  225.2093 H   0  0  0  0  0  0  0  0  0  0  0  0
  136.0033   70.5169  225.5743 H   0  0  0  0  0  0  0  0  0  0  0  0
  138.1065   71.3088  224.3670 H   0  0  0  0  0  0  0  0  0  0  0  0
  138.3411   67.4653  225.0129 H   0  0  0  0  0  0  0  0  0  0  0  0
  139.7480   67.0340  227.1620 H   0  0  0  0  0  0  0  0  0  0  0  0
  141.2720   68.5559  228.8522 H   0  0  0  0  0  0  0  0  0  0  0  0
  142.0634   70.9139  229.2599 H   0  0  0  0  0  0  0  0  0  0  0  0
  141.3819   72.7554  227.7038 H   0  0  0  0  0  0  0  0  0  0  0  0
  139.9060   72.2592  225.7227 H   0  0  0  0  0  0  0  0  0  0  0  0
  1  2  2  0
  2  3  2  0
  2  4  1  0
  4  5  1  0
  5  6  2  0
  6  7  1  0
  7  8  2  0
  8  9  1  0
  9 10  2  0
  2 11  1  0
 11 12  1  0
 12 13  2  0
 13 14  1  0
 14 15  2  0
 15 16  1  0
 16 17  2  0
 17 18  1  0
 18 19  2  0
 19 20  1  0
 20 21  1  0
 21 22  2  0
 22 23  1  0
 23 24  1  0
 24 25  2  0
 25 26  1  0
 26 27  2  0
 27 28  1  0
 28 29  2  0
 10  5  1  0
 20 11  1  0
 29 21  1  0
 19 14  1  0
 29 24  1  0
  4 30  1  0
  4 31  1  0
  6 32  1  0
  7 33  1  0
  8 34  1  0
  9 35  1  0
 10 36  1  0
 12 37  1  0
 13 38  1  0
 15 39  1  0
 16 40  1  0
 17 41  1  0
 18 42  1  0
 20 43  1  1
 22 44  1  0
 23 45  1  0
 25 46  1  0
 26 47  1  0
 27 48  1  0
 28 49  1  0
M  END
>  <UniqueID>  (60) 
11

>  <SMILES>  (60) 
O=S(=O)(Cc1ccccc1)N1C=Cc2ccccc2[C@H]1c1c[nH]c2ccccc12

>  <Energy>  (60) 
80.99037269278776

>  <Genealogy>  (60) 
O=S(=O)(Cc1ccccc1)N1C=Cc2ccccc2[C@H]1c1c[nH]c2ccccc12 (chirality)
O=S(=O)(Cc1ccccc1)N1C=Cc2ccccc2[C@H]1c1c[nH]c2ccccc12 (3D coordinates assigned)
O=S(=O)(Cc1ccccc1)N1C=Cc2ccccc2[C@H]1c1c[nH]c2ccccc12 (nonaromatic ring conformer: 80.99037269278776 kcal/mol)

>  <smiles>  (60) 
O=S(=O)(Cc1ccccc1)N1C=Cc2ccccc2C1c1c[nH]c2ccccc12

>  <score_type>  (60) 
oracle

>  <origin>  (60) 
autodockgpu

>  <m_score__min__energy>  (60) 
-8.3599999999999994

>  <m_primary>  (60) 
energy

>  <meeko>  (60) 
{"free_energy": -8.34, "intermolecular_energy": -9.53, "internal_energy": -1.61, "cluster_size": 3, "cluster_id": 1, "rank_in_cluster": 2}

>  <energy>  (60) 
-7.09

>  <cluster_rmsd>  (60) 
0.15

>  <rmsd>  (60) 
270.53

>  <cluster>  (60) 
4

$$$$
YCOHEPDJLXZVBZ-XMMPIXPANA-N
     RDKit          3D

 49 53  0  0  0  0  0  0  0  0999 V2000
  134.7540   68.1420  224.3040 O   0  0  0  0  0  0  0  0  0  0  0  0
  135.4660   69.4610  224.4220 S   0  0  0  0  0  0  0  0  0  0  0  0
  135.5880   69.8140  225.8780 O   0  0  0  0  0  0  0  0  0  0  0  0
  134.5320   70.7230  223.5730 C   0  0  0  0  0  0  0  0  0  0  0  0
  135.4380   71.5100  222.6660 C   0  0  0  0  0  0  0  0  0  0  0  0
  136.1390   72.6250  223.1570 C   0  0  0  0  0  0  0  0  0  0  0  0
  137.0560   73.2950  222.3440 C   0  0  0  0  0  0  0  0  0  0  0  0
  137.2800   72.8590  221.0350 C   0  0  0  0  0  0  0  0  0  0  0  0
  136.5890   71.7510  220.5400 C   0  0  0  0  0  0  0  0  0  0  0  0
  135.6730   71.0740  221.3520 C   0  0  0  0  0  0  0  0  0  0  0  0
  137.0490   69.3440  223.7150 N   0  0  0  0  0  0  0  0  0  0  0  0
  137.2560   68.4610  222.6000 C   0  0  0  0  0  0  0  0  0  0  0  0
  138.2860   68.6370  221.7750 C   0  0  0  0  0  0  0  0  0  0  0  0
  139.2230   69.7550  221.9820 C   0  0  0  0  0  0  0  0  0  0  0  0
  140.1900   70.0500  221.0110 C   0  0  0  0  0  0  0  0  0  0  0  0
  141.0570   71.1320  221.1890 C   0  0  0  0  0  0  0  0  0  0  0  0
  140.9630   71.9220  222.3370 C   0  0  0  0  0  0  0  0  0  0  0  0
  140.0050   71.6330  223.3110 C   0  0  0  0  0  0  0  0  0  0  0  0
  139.1260   70.5510  223.1410 C   0  0  0  0  0  0  0  0  0  0  0  0
  138.1250   70.2100  224.2230 C   0  0  2  0  0  0  0  0  0  0  0  0
  138.8240   69.5310  225.3700 C   0  0  0  0  0  0  0  0  0  0  0  0
  138.8020   68.1710  225.6720 C   0  0  0  0  0  0  0  0  0  0  0  0
  139.5890   67.9110  226.7410 N   0  0  0  0  0  0  0  0  0  0  0  0
  140.1160   69.0910  227.1100 C   0  0  0  0  0  0  0  0  0  0  0  0
  141.0040   69.3250  228.1590 C   0  0  0  0  0  0  0  0  0  0  0  0
  141.4470   70.6440  228.3630 C   0  0  0  0  0  0  0  0  0  0  0  0
  140.9990   71.6880  227.5230 C   0  0  0  0  0  0  0  0  0  0  0  0
  140.1040   71.4220  226.4710 C   0  0  0  0  0  0  0  0  0  0  0  0
  139.6770   70.1030  226.2950 C   0  0  0  0  0  0  0  0  0  0  0  0
  133.7395   70.2495  222.9749 H   0  0  0  0  0  0  0  0  0  0  0  0
  134.0845   71.4016  224.3142 H   0  0  0  0  0  0  0  0  0  0  0  0
  135.9646   72.9715  224.1863 H   0  0  0  0  0  0  0  0  0  0  0  0
  137.6023   74.1664  222.7341 H   0  0  0  0  0  0  0  0  0  0  0  0
  138.0007   73.3887  220.3947 H   0  0  0  0  0  0  0  0  0  0  0  0
  136.7654   71.4098  219.5092 H   0  0  0  0  0  0  0  0  0  0  0  0
  135.1354   70.1979  220.9603 H   0  0  0  0  0  0  0  0  0  0  0  0
  136.5557   67.6307  222.4264 H   0  0  0  0  0  0  0  0  0  0  0  0
  138.4382   67.9441  220.9344 H   0  0  0  0  0  0  0  0  0  0  0  0
  140.2668   69.4285  220.1067 H   0  0  0  0  0  0  0  0  0  0  0  0
  141.8138   71.3614  220.4244 H   0  0  0  0  0  0  0  0  0  0  0  0
  141.6453   72.7739  222.4742 H   0  0  0  0  0  0  0  0  0  0  0  0
  139.9386   72.2556  224.2154 H   0  0  0  0  0  0  0  0  0  0  0  0
  137.6691   71.1500  224.5674 H   0  0  0  0  0  0  0  0  0  0  0  0
  138.2256   67.4149  225.1188 H   0  0  0  0  0  0  0  0  0  0  0  0
  139.7590   66.9780  227.1790 H   0  0  0  0  0  0  0  0  0  0  0  0
  141.3470   68.5044  228.8062 H   0  0  0  0  0  0  0  0  0  0  0  0
  142.1472   70.8644  229.1822 H   0  0  0  0  0  0  0  0  0  0  0  0
  141.3525   72.7157  227.6929 H   0  0  0  0  0  0  0  0  0  0  0  0
  139.7516   72.2261  225.8083 H   0  0  0  0  0  0  0  0  0  0  0  0
  1  2  2  0
  2  3  2  0
  2  4  1  0
  4  5  1  0
  5  6  2  0
  6  7  1  0
  7  8  2  0
  8  9  1  0
  9 10  2  0
  2 11  1  0
 11 12  1  0
 12 13  2  0
 13 14  1  0
 14 15  2  0
 15 16  1  0
 16 17  2  0
 17 18  1  0
 18 19  2  0
 19 20  1  0
 20 21  1  0
 21 22  2  0
 22 23  1  0
 23 24  1  0
 24 25  2  0
 25 26  1  0
 26 27  2  0
 27 28  1  0
 28 29  2  0
 10  5  1  0
 20 11  1  0
 29 21  1  0
 19 14  1  0
 29 24  1  0
  4 30  1  0
  4 31  1  0
  6 32  1  0
  7 33  1  0
  8 34  1  0
  9 35  1  0
 10 36  1  0
 12 37  1  0
 13 38  1  0
 15 39  1  0
 16 40  1  0
 17 41  1  0
 18 42  1  0
 20 43  1  1
 22 44  1  0
 23 45  1  0
 25 46  1  0
 26 47  1  0
 27 48  1  0
 28 49  1  0
M  END
>  <UniqueID>  (61) 
12

>  <SMILES>  (61) 
O=S(=O)(Cc1ccccc1)N1C=Cc2ccccc2[C@@H]1c1c[nH]c2ccccc12

>  <Energy>  (61) 
80.99038826142095

>  <Genealogy>  (61) 
O=S(=O)(Cc1ccccc1)N1C=Cc2ccccc2[C@@H]1c1c[nH]c2ccccc12 (chirality)
O=S(=O)(Cc1ccccc1)N1C=Cc2ccccc2[C@@H]1c1c[nH]c2ccccc12 (3D coordinates assigned)
O=S(=O)(Cc1ccccc1)N1C=Cc2ccccc2[C@@H]1c1c[nH]c2ccccc12 (nonaromatic ring conformer: 80.99038826142095 kcal/mol)

>  <smiles>  (61) 
O=S(=O)(Cc1ccccc1)N1C=Cc2ccccc2C1c1c[nH]c2ccccc12

>  <score_type>  (61) 
oracle

>  <origin>  (61) 
autodockgpu

>  <m_score__min__energy>  (61) 
-8.5399999999999991

>  <m_primary>  (61) 
energy

>  <meeko>  (61) 
{"free_energy": -7.3, "intermolecular_energy": -8.5, "internal_energy": -2.76, "cluster_size": 2, "cluster_id": 2, "rank_in_cluster": 2}

>  <energy>  (61) 
-8.54

>  <cluster_rmsd>  (61) 
0.0

>  <rmsd>  (61) 
270.94

>  <cluster>  (61) 
1

$$$$
YCOHEPDJLXZVBZ-XMMPIXPANA-N
     RDKit          3D

 49 53  0  0  0  0  0  0  0  0999 V2000
  140.5610   74.9900  221.9820 O   0  0  0  0  0  0  0  0  0  0  0  0
  140.2890   75.8800  220.8020 S   0  0  0  0  0  0  0  0  0  0  0  0
  138.8830   75.6350  220.3280 O   0  0  0  0  0  0  0  0  0  0  0  0
  141.4400   75.5030  219.4900 C   0  0  0  0  0  0  0  0  0  0  0  0
  142.5980   74.7120  220.0350 C   0  0  0  0  0  0  0  0  0  0  0  0
  142.4290   73.3640  220.3960 C   0  0  0  0  0  0  0  0  0  0  0  0
  143.5250   72.6020  220.8070 C   0  0  0  0  0  0  0  0  0  0  0  0
  144.7970   73.1790  220.8620 C   0  0  0  0  0  0  0  0  0  0  0  0
  144.9740   74.5170  220.5040 C   0  0  0  0  0  0  0  0  0  0  0  0
  143.8800   75.2830  220.0870 C   0  0  0  0  0  0  0  0  0  0  0  0
  140.4680   77.5460  221.2610 N   0  0  0  0  0  0  0  0  0  0  0  0
  139.3090   78.2850  221.6830 C   0  0  0  0  0  0  0  0  0  0  0  0
  139.4370   79.3830  222.4240 C   0  0  0  0  0  0  0  0  0  0  0  0
  140.7700   79.8490  222.8420 C   0  0  0  0  0  0  0  0  0  0  0  0
  140.8910   80.8900  223.7730 C   0  0  0  0  0  0  0  0  0  0  0  0
  142.1560   81.3090  224.1980 C   0  0  0  0  0  0  0  0  0  0  0  0
  143.3030   80.6940  223.6930 C   0  0  0  0  0  0  0  0  0  0  0  0
  143.1920   79.6600  222.7610 C   0  0  0  0  0  0  0  0  0  0  0  0
  141.9270   79.2270  222.3310 C   0  0  0  0  0  0  0  0  0  0  0  0
  141.8130   78.1420  221.2830 C   0  0  2  0  0  0  0  0  0  0  0  0
  142.1410   78.7050  219.9260 C   0  0  0  0  0  0  0  0  0  0  0  0
  142.7580   78.0340  218.8730 C   0  0  0  0  0  0  0  0  0  0  0  0
  142.8420   78.8350  217.7870 N   0  0  0  0  0  0  0  0  0  0  0  0
  142.2760   80.0020  218.1400 C   0  0  0  0  0  0  0  0  0  0  0  0
  142.1150   81.1350  217.3440 C   0  0  0  0  0  0  0  0  0  0  0  0
  141.4750   82.2520  217.9120 C   0  0  0  0  0  0  0  0  0  0  0  0
  141.0140   82.2100  219.2470 C   0  0  0  0  0  0  0  0  0  0  0  0
  141.1880   81.0520  220.0260 C   0  0  0  0  0  0  0  0  0  0  0  0
  141.8310   79.9600  219.4370 C   0  0  0  0  0  0  0  0  0  0  0  0
  140.9287   74.9136  218.7146 H   0  0  0  0  0  0  0  0  0  0  0  0
  141.8152   76.4420  219.0570 H   0  0  0  0  0  0  0  0  0  0  0  0
  141.4292   72.9073  220.3546 H   0  0  0  0  0  0  0  0  0  0  0  0
  143.3871   71.5473  221.0876 H   0  0  0  0  0  0  0  0  0  0  0  0
  145.6592   72.5785  221.1876 H   0  0  0  0  0  0  0  0  0  0  0  0
  145.9755   74.9697  220.5499 H   0  0  0  0  0  0  0  0  0  0  0  0
  144.0243   76.3348  219.7992 H   0  0  0  0  0  0  0  0  0  0  0  0
  138.3065   77.9393  221.3904 H   0  0  0  0  0  0  0  0  0  0  0  0
  138.5416   79.9460  222.7261 H   0  0  0  0  0  0  0  0  0  0  0  0
  139.9890   81.3785  224.1702 H   0  0  0  0  0  0  0  0  0  0  0  0
  142.2472   82.1241  224.9310 H   0  0  0  0  0  0  0  0  0  0  0  0
  144.2965   81.0247  224.0300 H   0  0  0  0  0  0  0  0  0  0  0  0
  144.0991   79.1826  222.3620 H   0  0  0  0  0  0  0  0  0  0  0  0
  142.5304   77.3492  221.5414 H   0  0  0  0  0  0  0  0  0  0  0  0
  143.1253   76.9981  218.9185 H   0  0  0  0  0  0  0  0  0  0  0  0
  143.2540   78.5890  216.8590 H   0  0  0  0  0  0  0  0  0  0  0  0
  142.4766   81.1552  216.3053 H   0  0  0  0  0  0  0  0  0  0  0  0
  141.3327   83.1636  217.3130 H   0  0  0  0  0  0  0  0  0  0  0  0
  140.5153   83.0895  219.6802 H   0  0  0  0  0  0  0  0  0  0  0  0
  140.8296   81.0073  221.0650 H   0  0  0  0  0  0  0  0  0  0  0  0
  1  2  2  0
  2  3  2  0
  2  4  1  0
  4  5  1  0
  5  6  2  0
  6  7  1  0
  7  8  2  0
  8  9  1  0
  9 10  2  0
  2 11  1  0
 11 12  1  0
 12 13  2  0
 13 14  1  0
 14 15  2  0
 15 16  1  0
 16 17  2  0
 17 18  1  0
 18 19  2  0
 19 20  1  0
 20 21  1  0
 21 22  2  0
 22 23  1  0
 23 24  1  0
 24 25  2  0
 25 26  1  0
 26 27  2  0
 27 28  1  0
 28 29  2  0
 10  5  1  0
 20 11  1  0
 29 21  1  0
 19 14  1  0
 29 24  1  0
  4 30  1  0
  4 31  1  0
  6 32  1  0
  7 33  1  0
  8 34  1  0
  9 35  1  0
 10 36  1  0
 12 37  1  0
 13 38  1  0
 15 39  1  0
 16 40  1  0
 17 41  1  0
 18 42  1  0
 20 43  1  1
 22 44  1  0
 23 45  1  0
 25 46  1  0
 26 47  1  0
 27 48  1  0
 28 49  1  0
M  END
>  <UniqueID>  (62) 
12

>  <SMILES>  (62) 
O=S(=O)(Cc1ccccc1)N1C=Cc2ccccc2[C@@H]1c1c[nH]c2ccccc12

>  <Energy>  (62) 
80.99038826142095

>  <Genealogy>  (62) 
O=S(=O)(Cc1ccccc1)N1C=Cc2ccccc2[C@@H]1c1c[nH]c2ccccc12 (chirality)
O=S(=O)(Cc1ccccc1)N1C=Cc2ccccc2[C@@H]1c1c[nH]c2ccccc12 (3D coordinates assigned)
O=S(=O)(Cc1ccccc1)N1C=Cc2ccccc2[C@@H]1c1c[nH]c2ccccc12 (nonaromatic ring conformer: 80.99038826142095 kcal/mol)

>  <smiles>  (62) 
O=S(=O)(Cc1ccccc1)N1C=Cc2ccccc2C1c1c[nH]c2ccccc12

>  <score_type>  (62) 
oracle

>  <origin>  (62) 
autodockgpu

>  <m_score__min__energy>  (62) 
-8.5399999999999991

>  <m_primary>  (62) 
energy

>  <meeko>  (62) 
{"free_energy": -8.46, "intermolecular_energy": -9.66, "internal_energy": -1.67, "cluster_size": 11, "cluster_id": 1, "rank_in_cluster": 8}

>  <energy>  (62) 
-8.51

>  <cluster_rmsd>  (62) 
0.16

>  <rmsd>  (62) 
270.89

>  <cluster>  (62) 
1

$$$$
YCOHEPDJLXZVBZ-XMMPIXPANA-N
     RDKit          3D

 49 53  0  0  0  0  0  0  0  0999 V2000
  142.1440   78.7510  224.0150 O   0  0  0  0  0  0  0  0  0  0  0  0
  142.2840   79.9230  223.0850 S   0  0  0  0  0  0  0  0  0  0  0  0
  143.7200   80.3690  223.0840 O   0  0  0  0  0  0  0  0  0  0  0  0
  141.2390   81.2590  223.6450 C   0  0  0  0  0  0  0  0  0  0  0  0
  139.8010   80.9520  223.3300 C   0  0  0  0  0  0  0  0  0  0  0  0
  139.0900   81.7460  222.4130 C   0  0  0  0  0  0  0  0  0  0  0  0
  137.7880   81.4030  222.0450 C   0  0  0  0  0  0  0  0  0  0  0  0
  137.1830   80.2660  222.5890 C   0  0  0  0  0  0  0  0  0  0  0  0
  137.8820   79.4710  223.5000 C   0  0  0  0  0  0  0  0  0  0  0  0
  139.1890   79.8080  223.8680 C   0  0  0  0  0  0  0  0  0  0  0  0
  141.8150   79.4640  221.4760 N   0  0  0  0  0  0  0  0  0  0  0  0
  141.4230   80.4830  220.5420 C   0  0  0  0  0  0  0  0  0  0  0  0
  141.4650   80.2560  219.2310 C   0  0  0  0  0  0  0  0  0  0  0  0
  141.9340   78.9590  218.7150 C   0  0  0  0  0  0  0  0  0  0  0  0
  142.1570   78.7880  217.3410 C   0  0  0  0  0  0  0  0  0  0  0  0
  142.6370   77.5690  216.8530 C   0  0  0  0  0  0  0  0  0  0  0  0
  142.8940   76.5160  217.7330 C   0  0  0  0  0  0  0  0  0  0  0  0
  142.6700   76.6760  219.1030 C   0  0  0  0  0  0  0  0  0  0  0  0
  142.1930   77.8980  219.6040 C   0  0  0  0  0  0  0  0  0  0  0  0
  141.9030   78.0490  221.0810 C   0  0  2  0  0  0  0  0  0  0  0  0
  140.6180   77.3440  221.4250 C   0  0  0  0  0  0  0  0  0  0  0  0
  140.4460   76.3450  222.3800 C   0  0  0  0  0  0  0  0  0  0  0  0
  139.1450   75.9840  222.4570 N   0  0  0  0  0  0  0  0  0  0  0  0
  138.4920   76.7520  221.5690 C   0  0  0  0  0  0  0  0  0  0  0  0
  137.1250   76.7520  221.3000 C   0  0  0  0  0  0  0  0  0  0  0  0
  136.6440   77.6560  220.3350 C   0  0  0  0  0  0  0  0  0  0  0  0
  137.5320   78.5320  219.6710 C   0  0  0  0  0  0  0  0  0  0  0  0
  138.9070   78.5110  219.9640 C   0  0  0  0  0  0  0  0  0  0  0  0
  139.3560   77.6000  220.9220 C   0  0  0  0  0  0  0  0  0  0  0  0
  141.3558   81.3822  224.7318 H   0  0  0  0  0  0  0  0  0  0  0  0
  141.5317   82.1867  223.1315 H   0  0  0  0  0  0  0  0  0  0  0  0
  139.5621   82.6419  221.9835 H   0  0  0  0  0  0  0  0  0  0  0  0
  137.2374   82.0278  221.3263 H   0  0  0  0  0  0  0  0  0  0  0  0
  136.1563   79.9976  222.2995 H   0  0  0  0  0  0  0  0  0  0  0  0
  137.4039   78.5781  223.9290 H   0  0  0  0  0  0  0  0  0  0  0  0
  139.7387   79.1754  224.5805 H   0  0  0  0  0  0  0  0  0  0  0  0
  141.0846   81.4612  220.9143 H   0  0  0  0  0  0  0  0  0  0  0  0
  141.1476   81.0415  218.5294 H   0  0  0  0  0  0  0  0  0  0  0  0
  141.9536   79.6154  216.6453 H   0  0  0  0  0  0  0  0  0  0  0  0
  142.8123   77.4394  215.7748 H   0  0  0  0  0  0  0  0  0  0  0  0
  143.2736   75.5584  217.3471 H   0  0  0  0  0  0  0  0  0  0  0  0
  142.8681   75.8414  219.7917 H   0  0  0  0  0  0  0  0  0  0  0  0
  142.7372   77.5943  221.6353 H   0  0  0  0  0  0  0  0  0  0  0  0
  141.2546   75.9107  222.9863 H   0  0  0  0  0  0  0  0  0  0  0  0
  138.7340   75.2610  223.0900 H   0  0  0  0  0  0  0  0  0  0  0  0
  136.4433   76.0670  221.8254 H   0  0  0  0  0  0  0  0  0  0  0  0
  135.5705   77.6810  220.0961 H   0  0  0  0  0  0  0  0  0  0  0  0
  137.1447   79.2355  218.9193 H   0  0  0  0  0  0  0  0  0  0  0  0
  139.6064   79.1904  219.4549 H   0  0  0  0  0  0  0  0  0  0  0  0
  1  2  2  0
  2  3  2  0
  2  4  1  0
  4  5  1  0
  5  6  2  0
  6  7  1  0
  7  8  2  0
  8  9  1  0
  9 10  2  0
  2 11  1  0
 11 12  1  0
 12 13  2  0
 13 14  1  0
 14 15  2  0
 15 16  1  0
 16 17  2  0
 17 18  1  0
 18 19  2  0
 19 20  1  0
 20 21  1  0
 21 22  2  0
 22 23  1  0
 23 24  1  0
 24 25  2  0
 25 26  1  0
 26 27  2  0
 27 28  1  0
 28 29  2  0
 10  5  1  0
 20 11  1  0
 29 21  1  0
 19 14  1  0
 29 24  1  0
  4 30  1  0
  4 31  1  0
  6 32  1  0
  7 33  1  0
  8 34  1  0
  9 35  1  0
 10 36  1  0
 12 37  1  0
 13 38  1  0
 15 39  1  0
 16 40  1  0
 17 41  1  0
 18 42  1  0
 20 43  1  1
 22 44  1  0
 23 45  1  0
 25 46  1  0
 26 47  1  0
 27 48  1  0
 28 49  1  0
M  END
>  <UniqueID>  (63) 
12

>  <SMILES>  (63) 
O=S(=O)(Cc1ccccc1)N1C=Cc2ccccc2[C@@H]1c1c[nH]c2ccccc12

>  <Energy>  (63) 
80.99038826142095

>  <Genealogy>  (63) 
O=S(=O)(Cc1ccccc1)N1C=Cc2ccccc2[C@@H]1c1c[nH]c2ccccc12 (chirality)
O=S(=O)(Cc1ccccc1)N1C=Cc2ccccc2[C@@H]1c1c[nH]c2ccccc12 (3D coordinates assigned)
O=S(=O)(Cc1ccccc1)N1C=Cc2ccccc2[C@@H]1c1c[nH]c2ccccc12 (nonaromatic ring conformer: 80.99038826142095 kcal/mol)

>  <smiles>  (63) 
O=S(=O)(Cc1ccccc1)N1C=Cc2ccccc2C1c1c[nH]c2ccccc12

>  <score_type>  (63) 
oracle

>  <origin>  (63) 
autodockgpu

>  <m_score__min__energy>  (63) 
-8.5399999999999991

>  <m_primary>  (63) 
energy

>  <meeko>  (63) 
{"free_energy": -6.71, "intermolecular_energy": -7.9, "internal_energy": -3.02, "cluster_size": 6, "cluster_id": 4, "rank_in_cluster": 6}

>  <energy>  (63) 
-8.5

>  <cluster_rmsd>  (63) 
0.21

>  <rmsd>  (63) 
270.85

>  <cluster>  (63) 
1

$$$$
YCOHEPDJLXZVBZ-XMMPIXPANA-N
     RDKit          3D

 49 53  0  0  0  0  0  0  0  0999 V2000
  140.7120   74.9070  221.9240 O   0  0  0  0  0  0  0  0  0  0  0  0
  140.4210   75.7900  220.7420 S   0  0  0  0  0  0  0  0  0  0  0  0
  139.0350   75.4870  220.2450 O   0  0  0  0  0  0  0  0  0  0  0  0
  141.6080   75.4680  219.4480 C   0  0  0  0  0  0  0  0  0  0  0  0
  142.7670   74.6820  219.9980 C   0  0  0  0  0  0  0  0  0  0  0  0
  142.6090   73.3270  220.3330 C   0  0  0  0  0  0  0  0  0  0  0  0
  143.7080   72.5710  220.7480 C   0  0  0  0  0  0  0  0  0  0  0  0
  144.9720   73.1620  220.8340 C   0  0  0  0  0  0  0  0  0  0  0  0
  145.1370   74.5090  220.5020 C   0  0  0  0  0  0  0  0  0  0  0  0
  144.0410   75.2680  220.0810 C   0  0  0  0  0  0  0  0  0  0  0  0
  140.5210   77.4590  221.2110 N   0  0  0  0  0  0  0  0  0  0  0  0
  139.3280   78.1420  221.6340 C   0  0  0  0  0  0  0  0  0  0  0  0
  139.4030   79.2410  222.3820 C   0  0  0  0  0  0  0  0  0  0  0  0
  140.7120   79.7660  222.8050 C   0  0  0  0  0  0  0  0  0  0  0  0
  140.7830   80.8060  223.7420 C   0  0  0  0  0  0  0  0  0  0  0  0
  142.0250   81.2810  224.1720 C   0  0  0  0  0  0  0  0  0  0  0  0
  143.2010   80.7230  223.6670 C   0  0  0  0  0  0  0  0  0  0  0  0
  143.1400   79.6900  222.7290 C   0  0  0  0  0  0  0  0  0  0  0  0
  141.8970   79.2010  222.2940 C   0  0  0  0  0  0  0  0  0  0  0  0
  141.8370   78.1170  221.2400 C   0  0  2  0  0  0  0  0  0  0  0  0
  142.1410   78.7030  219.8870 C   0  0  0  0  0  0  0  0  0  0  0  0
  142.7730   78.0600  218.8240 C   0  0  0  0  0  0  0  0  0  0  0  0
  142.8280   78.8740  217.7450 N   0  0  0  0  0  0  0  0  0  0  0  0
  142.2280   80.0190  218.1120 C   0  0  0  0  0  0  0  0  0  0  0  0
  142.0290   81.1540  217.3280 C   0  0  0  0  0  0  0  0  0  0  0  0
  141.3590   82.2460  217.9080 C   0  0  0  0  0  0  0  0  0  0  0  0
  140.9050   82.1780  219.2450 C   0  0  0  0  0  0  0  0  0  0  0  0
  141.1180   81.0190  220.0120 C   0  0  0  0  0  0  0  0  0  0  0  0
  141.7910   79.9520  219.4100 C   0  0  0  0  0  0  0  0  0  0  0  0
  141.1248   74.8915  218.6454 H   0  0  0  0  0  0  0  0  0  0  0  0
  141.9767   76.4247  219.0495 H   0  0  0  0  0  0  0  0  0  0  0  0
  141.6155   72.8592  220.2683 H   0  0  0  0  0  0  0  0  0  0  0  0
  143.5787   71.5099  221.0073 H   0  0  0  0  0  0  0  0  0  0  0  0
  145.8365   72.5666  221.1630 H   0  0  0  0  0  0  0  0  0  0  0  0
  146.1316   74.9735  220.5720 H   0  0  0  0  0  0  0  0  0  0  0  0
  144.1766   76.3265  219.8141 H   0  0  0  0  0  0  0  0  0  0  0  0
  138.3433   77.7524  221.3364 H   0  0  0  0  0  0  0  0  0  0  0  0
  138.4817   79.7597  222.6857 H   0  0  0  0  0  0  0  0  0  0  0  0
  139.8585   81.2496  224.1401 H   0  0  0  0  0  0  0  0  0  0  0  0
  142.0761   82.0957  224.9094 H   0  0  0  0  0  0  0  0  0  0  0  0
  144.1772   81.0976  224.0085 H   0  0  0  0  0  0  0  0  0  0  0  0
  144.0691   79.2576  222.3292 H   0  0  0  0  0  0  0  0  0  0  0  0
  142.5901   77.3572  221.4960 H   0  0  0  0  0  0  0  0  0  0  0  0
  143.1709   77.0351  218.8578 H   0  0  0  0  0  0  0  0  0  0  0  0
  143.2430   78.6480  216.8140 H   0  0  0  0  0  0  0  0  0  0  0  0
  142.3849   81.1944  216.2880 H   0  0  0  0  0  0  0  0  0  0  0  0
  141.1872   83.1583  217.3179 H   0  0  0  0  0  0  0  0  0  0  0  0
  140.3814   83.0378  219.6884 H   0  0  0  0  0  0  0  0  0  0  0  0
  140.7663   80.9540  221.0522 H   0  0  0  0  0  0  0  0  0  0  0  0
  1  2  2  0
  2  3  2  0
  2  4  1  0
  4  5  1  0
  5  6  2  0
  6  7  1  0
  7  8  2  0
  8  9  1  0
  9 10  2  0
  2 11  1  0
 11 12  1  0
 12 13  2  0
 13 14  1  0
 14 15  2  0
 15 16  1  0
 16 17  2  0
 17 18  1  0
 18 19  2  0
 19 20  1  0
 20 21  1  0
 21 22  2  0
 22 23  1  0
 23 24  1  0
 24 25  2  0
 25 26  1  0
 26 27  2  0
 27 28  1  0
 28 29  2  0
 10  5  1  0
 20 11  1  0
 29 21  1  0
 19 14  1  0
 29 24  1  0
  4 30  1  0
  4 31  1  0
  6 32  1  0
  7 33  1  0
  8 34  1  0
  9 35  1  0
 10 36  1  0
 12 37  1  0
 13 38  1  0
 15 39  1  0
 16 40  1  0
 17 41  1  0
 18 42  1  0
 20 43  1  1
 22 44  1  0
 23 45  1  0
 25 46  1  0
 26 47  1  0
 27 48  1  0
 28 49  1  0
M  END
>  <UniqueID>  (64) 
12

>  <SMILES>  (64) 
O=S(=O)(Cc1ccccc1)N1C=Cc2ccccc2[C@@H]1c1c[nH]c2ccccc12

>  <Energy>  (64) 
80.99038826142095

>  <Genealogy>  (64) 
O=S(=O)(Cc1ccccc1)N1C=Cc2ccccc2[C@@H]1c1c[nH]c2ccccc12 (chirality)
O=S(=O)(Cc1ccccc1)N1C=Cc2ccccc2[C@@H]1c1c[nH]c2ccccc12 (3D coordinates assigned)
O=S(=O)(Cc1ccccc1)N1C=Cc2ccccc2[C@@H]1c1c[nH]c2ccccc12 (nonaromatic ring conformer: 80.99038826142095 kcal/mol)

>  <smiles>  (64) 
O=S(=O)(Cc1ccccc1)N1C=Cc2ccccc2C1c1c[nH]c2ccccc12

>  <score_type>  (64) 
oracle

>  <origin>  (64) 
autodockgpu

>  <m_score__min__energy>  (64) 
-8.5399999999999991

>  <m_primary>  (64) 
energy

>  <meeko>  (64) 
{"free_energy": -8.49, "intermolecular_energy": -9.68, "internal_energy": -1.65, "cluster_size": 11, "cluster_id": 1, "rank_in_cluster": 6}

>  <energy>  (64) 
-8.5

>  <cluster_rmsd>  (64) 
0.1

>  <rmsd>  (64) 
270.9

>  <cluster>  (64) 
1

$$$$
YCOHEPDJLXZVBZ-XMMPIXPANA-N
     RDKit          3D

 49 53  0  0  0  0  0  0  0  0999 V2000
  140.7600   74.7820  221.8760 O   0  0  0  0  0  0  0  0  0  0  0  0
  140.4520   75.6440  220.6830 S   0  0  0  0  0  0  0  0  0  0  0  0
  139.0760   75.3020  220.1840 O   0  0  0  0  0  0  0  0  0  0  0  0
  141.6530   75.3380  219.3980 C   0  0  0  0  0  0  0  0  0  0  0  0
  142.8130   74.5590  219.9540 C   0  0  0  0  0  0  0  0  0  0  0  0
  142.6720   73.1930  220.2550 C   0  0  0  0  0  0  0  0  0  0  0  0
  143.7760   72.4470  220.6760 C   0  0  0  0  0  0  0  0  0  0  0  0
  145.0270   73.0570  220.8020 C   0  0  0  0  0  0  0  0  0  0  0  0
  145.1750   74.4140  220.5050 C   0  0  0  0  0  0  0  0  0  0  0  0
  144.0750   75.1640  220.0780 C   0  0  0  0  0  0  0  0  0  0  0  0
  140.5090   77.3210  221.1340 N   0  0  0  0  0  0  0  0  0  0  0  0
  139.2910   77.9890  221.5040 C   0  0  0  0  0  0  0  0  0  0  0  0
  139.3210   79.0980  222.2400 C   0  0  0  0  0  0  0  0  0  0  0  0
  140.6050   79.6490  222.7040 C   0  0  0  0  0  0  0  0  0  0  0  0
  140.6250   80.7020  223.6300 C   0  0  0  0  0  0  0  0  0  0  0  0
  141.8430   81.2030  224.0990 C   0  0  0  0  0  0  0  0  0  0  0  0
  143.0450   80.6570  223.6440 C   0  0  0  0  0  0  0  0  0  0  0  0
  143.0350   79.6110  222.7180 C   0  0  0  0  0  0  0  0  0  0  0  0
  141.8170   79.0980  222.2440 C   0  0  0  0  0  0  0  0  0  0  0  0
  141.8120   78.0000  221.2020 C   0  0  2  0  0  0  0  0  0  0  0  0
  142.1570   78.5740  219.8540 C   0  0  0  0  0  0  0  0  0  0  0  0
  142.8060   77.9170  218.8110 C   0  0  0  0  0  0  0  0  0  0  0  0
  142.8980   78.7230  217.7290 N   0  0  0  0  0  0  0  0  0  0  0  0
  142.3050   79.8780  218.0740 C   0  0  0  0  0  0  0  0  0  0  0  0
  142.1400   81.0110  217.2790 C   0  0  0  0  0  0  0  0  0  0  0  0
  141.4700   82.1150  217.8380 C   0  0  0  0  0  0  0  0  0  0  0  0
  140.9830   82.0600  219.1630 C   0  0  0  0  0  0  0  0  0  0  0  0
  141.1620   80.9030  219.9420 C   0  0  0  0  0  0  0  0  0  0  0  0
  141.8350   79.8250  219.3620 C   0  0  0  0  0  0  0  0  0  0  0  0
  141.1816   74.7616  218.5884 H   0  0  0  0  0  0  0  0  0  0  0  0
  142.0174   76.2996  219.0076 H   0  0  0  0  0  0  0  0  0  0  0  0
  141.6887   72.7095  220.1587 H   0  0  0  0  0  0  0  0  0  0  0  0
  143.6602   71.3781  220.9085 H   0  0  0  0  0  0  0  0  0  0  0  0
  145.8949   72.4688  221.1349 H   0  0  0  0  0  0  0  0  0  0  0  0
  146.1596   74.8937  220.6074 H   0  0  0  0  0  0  0  0  0  0  0  0
  144.1979   76.2306  219.8385 H   0  0  0  0  0  0  0  0  0  0  0  0
  138.3243   77.5796  221.1756 H   0  0  0  0  0  0  0  0  0  0  0  0
  138.3811   79.6055  222.5029 H   0  0  0  0  0  0  0  0  0  0  0  0
  139.6795   81.1351  223.9884 H   0  0  0  0  0  0  0  0  0  0  0  0
  141.8545   82.0277  224.8268 H   0  0  0  0  0  0  0  0  0  0  0  0
  144.0022   81.0515  224.0157 H   0  0  0  0  0  0  0  0  0  0  0  0
  143.9847   79.1878  222.3590 H   0  0  0  0  0  0  0  0  0  0  0  0
  142.5665   77.2550  221.4947 H   0  0  0  0  0  0  0  0  0  0  0  0
  143.1897   76.8873  218.8606 H   0  0  0  0  0  0  0  0  0  0  0  0
  143.3330   78.4870  216.8090 H   0  0  0  0  0  0  0  0  0  0  0  0
  142.5213   81.0412  216.2477 H   0  0  0  0  0  0  0  0  0  0  0  0
  141.3246   83.0264  217.2396 H   0  0  0  0  0  0  0  0  0  0  0  0
  140.4597   82.9289  219.5886 H   0  0  0  0  0  0  0  0  0  0  0  0
  140.7846   80.8486  220.9738 H   0  0  0  0  0  0  0  0  0  0  0  0
  1  2  2  0
  2  3  2  0
  2  4  1  0
  4  5  1  0
  5  6  2  0
  6  7  1  0
  7  8  2  0
  8  9  1  0
  9 10  2  0
  2 11  1  0
 11 12  1  0
 12 13  2  0
 13 14  1  0
 14 15  2  0
 15 16  1  0
 16 17  2  0
 17 18  1  0
 18 19  2  0
 19 20  1  0
 20 21  1  0
 21 22  2  0
 22 23  1  0
 23 24  1  0
 24 25  2  0
 25 26  1  0
 26 27  2  0
 27 28  1  0
 28 29  2  0
 10  5  1  0
 20 11  1  0
 29 21  1  0
 19 14  1  0
 29 24  1  0
  4 30  1  0
  4 31  1  0
  6 32  1  0
  7 33  1  0
  8 34  1  0
  9 35  1  0
 10 36  1  0
 12 37  1  0
 13 38  1  0
 15 39  1  0
 16 40  1  0
 17 41  1  0
 18 42  1  0
 20 43  1  1
 22 44  1  0
 23 45  1  0
 25 46  1  0
 26 47  1  0
 27 48  1  0
 28 49  1  0
M  END
>  <UniqueID>  (65) 
12

>  <SMILES>  (65) 
O=S(=O)(Cc1ccccc1)N1C=Cc2ccccc2[C@@H]1c1c[nH]c2ccccc12

>  <Energy>  (65) 
80.99038826142095

>  <Genealogy>  (65) 
O=S(=O)(Cc1ccccc1)N1C=Cc2ccccc2[C@@H]1c1c[nH]c2ccccc12 (chirality)
O=S(=O)(Cc1ccccc1)N1C=Cc2ccccc2[C@@H]1c1c[nH]c2ccccc12 (3D coordinates assigned)
O=S(=O)(Cc1ccccc1)N1C=Cc2ccccc2[C@@H]1c1c[nH]c2ccccc12 (nonaromatic ring conformer: 80.99038826142095 kcal/mol)

>  <smiles>  (65) 
O=S(=O)(Cc1ccccc1)N1C=Cc2ccccc2C1c1c[nH]c2ccccc12

>  <score_type>  (65) 
oracle

>  <origin>  (65) 
autodockgpu

>  <m_score__min__energy>  (65) 
-8.5399999999999991

>  <m_primary>  (65) 
energy

>  <meeko>  (65) 
{"free_energy": -8.5, "intermolecular_energy": -9.69, "internal_energy": -1.6, "cluster_size": 11, "cluster_id": 1, "rank_in_cluster": 5}

>  <energy>  (65) 
-8.5

>  <cluster_rmsd>  (65) 
0.3

>  <rmsd>  (65) 
270.8

>  <cluster>  (65) 
1

$$$$
YCOHEPDJLXZVBZ-XMMPIXPANA-N
     RDKit          3D

 49 53  0  0  0  0  0  0  0  0999 V2000
  140.6970   74.8540  221.9290 O   0  0  0  0  0  0  0  0  0  0  0  0
  140.4110   75.7270  220.7400 S   0  0  0  0  0  0  0  0  0  0  0  0
  139.0260   75.4200  220.2400 O   0  0  0  0  0  0  0  0  0  0  0  0
  141.6030   75.3940  219.4530 C   0  0  0  0  0  0  0  0  0  0  0  0
  142.7570   74.6100  220.0130 C   0  0  0  0  0  0  0  0  0  0  0  0
  142.5910   73.2610  220.3720 C   0  0  0  0  0  0  0  0  0  0  0  0
  143.6870   72.5050  220.7980 C   0  0  0  0  0  0  0  0  0  0  0  0
  144.9550   73.0890  220.8690 C   0  0  0  0  0  0  0  0  0  0  0  0
  145.1280   74.4290  220.5130 C   0  0  0  0  0  0  0  0  0  0  0  0
  144.0360   75.1880  220.0820 C   0  0  0  0  0  0  0  0  0  0  0  0
  140.5100   77.4000  221.1950 N   0  0  0  0  0  0  0  0  0  0  0  0
  139.3140   78.0900  221.5950 C   0  0  0  0  0  0  0  0  0  0  0  0
  139.3820   79.1950  222.3340 C   0  0  0  0  0  0  0  0  0  0  0  0
  140.6870   79.7200  222.7700 C   0  0  0  0  0  0  0  0  0  0  0  0
  140.7480   80.7690  223.6990 C   0  0  0  0  0  0  0  0  0  0  0  0
  141.9860   81.2440  224.1420 C   0  0  0  0  0  0  0  0  0  0  0  0
  143.1660   80.6770  223.6580 C   0  0  0  0  0  0  0  0  0  0  0  0
  143.1150   79.6360  222.7290 C   0  0  0  0  0  0  0  0  0  0  0  0
  141.8770   79.1470  222.2810 C   0  0  0  0  0  0  0  0  0  0  0  0
  141.8270   78.0540  221.2360 C   0  0  2  0  0  0  0  0  0  0  0  0
  142.1520   78.6270  219.8820 C   0  0  0  0  0  0  0  0  0  0  0  0
  142.7880   77.9690  218.8300 C   0  0  0  0  0  0  0  0  0  0  0  0
  142.8630   78.7740  217.7460 N   0  0  0  0  0  0  0  0  0  0  0  0
  142.2720   79.9290  218.0980 C   0  0  0  0  0  0  0  0  0  0  0  0
  142.0950   81.0600  217.3040 C   0  0  0  0  0  0  0  0  0  0  0  0
  141.4300   82.1630  217.8700 C   0  0  0  0  0  0  0  0  0  0  0  0
  140.9620   82.1100  219.2020 C   0  0  0  0  0  0  0  0  0  0  0  0
  141.1540   80.9540  219.9800 C   0  0  0  0  0  0  0  0  0  0  0  0
  141.8210   79.8760  219.3930 C   0  0  0  0  0  0  0  0  0  0  0  0
  141.1221   74.8131  218.6522 H   0  0  0  0  0  0  0  0  0  0  0  0
  141.9753   76.3472  219.0496 H   0  0  0  0  0  0  0  0  0  0  0  0
  141.5945   72.7984  220.3175 H   0  0  0  0  0  0  0  0  0  0  0  0
  143.5515   71.4498  221.0776 H   0  0  0  0  0  0  0  0  0  0  0  0
  145.8167   72.4936  221.2052 H   0  0  0  0  0  0  0  0  0  0  0  0
  146.1260   74.8879  220.5720 H   0  0  0  0  0  0  0  0  0  0  0  0
  144.1783   76.2406  219.7961 H   0  0  0  0  0  0  0  0  0  0  0  0
  138.3323   77.7007  221.2871 H   0  0  0  0  0  0  0  0  0  0  0  0
  138.4583   79.7190  222.6206 H   0  0  0  0  0  0  0  0  0  0  0  0
  139.8194   81.2191  224.0800 H   0  0  0  0  0  0  0  0  0  0  0  0
  142.0301   82.0652  224.8725 H   0  0  0  0  0  0  0  0  0  0  0  0
  144.1388   81.0513  224.0095 H   0  0  0  0  0  0  0  0  0  0  0  0
  144.0482   79.1971  222.3464 H   0  0  0  0  0  0  0  0  0  0  0  0
  142.5735   77.2937  221.5090 H   0  0  0  0  0  0  0  0  0  0  0  0
  143.1743   76.9401  218.8754 H   0  0  0  0  0  0  0  0  0  0  0  0
  143.2850   78.5370  216.8210 H   0  0  0  0  0  0  0  0  0  0  0  0
  142.4633   81.0896  216.2679 H   0  0  0  0  0  0  0  0  0  0  0  0
  141.2734   83.0726  217.2716 H   0  0  0  0  0  0  0  0  0  0  0  0
  140.4438   82.9789  219.6337 H   0  0  0  0  0  0  0  0  0  0  0  0
  140.7908   80.9005  221.0169 H   0  0  0  0  0  0  0  0  0  0  0  0
  1  2  2  0
  2  3  2  0
  2  4  1  0
  4  5  1  0
  5  6  2  0
  6  7  1  0
  7  8  2  0
  8  9  1  0
  9 10  2  0
  2 11  1  0
 11 12  1  0
 12 13  2  0
 13 14  1  0
 14 15  2  0
 15 16  1  0
 16 17  2  0
 17 18  1  0
 18 19  2  0
 19 20  1  0
 20 21  1  0
 21 22  2  0
 22 23  1  0
 23 24  1  0
 24 25  2  0
 25 26  1  0
 26 27  2  0
 27 28  1  0
 28 29  2  0
 10  5  1  0
 20 11  1  0
 29 21  1  0
 19 14  1  0
 29 24  1  0
  4 30  1  0
  4 31  1  0
  6 32  1  0
  7 33  1  0
  8 34  1  0
  9 35  1  0
 10 36  1  0
 12 37  1  0
 13 38  1  0
 15 39  1  0
 16 40  1  0
 17 41  1  0
 18 42  1  0
 20 43  1  1
 22 44  1  0
 23 45  1  0
 25 46  1  0
 26 47  1  0
 27 48  1  0
 28 49  1  0
M  END
>  <UniqueID>  (66) 
12

>  <SMILES>  (66) 
O=S(=O)(Cc1ccccc1)N1C=Cc2ccccc2[C@@H]1c1c[nH]c2ccccc12

>  <Energy>  (66) 
80.99038826142095

>  <Genealogy>  (66) 
O=S(=O)(Cc1ccccc1)N1C=Cc2ccccc2[C@@H]1c1c[nH]c2ccccc12 (chirality)
O=S(=O)(Cc1ccccc1)N1C=Cc2ccccc2[C@@H]1c1c[nH]c2ccccc12 (3D coordinates assigned)
O=S(=O)(Cc1ccccc1)N1C=Cc2ccccc2[C@@H]1c1c[nH]c2ccccc12 (nonaromatic ring conformer: 80.99038826142095 kcal/mol)

>  <smiles>  (66) 
O=S(=O)(Cc1ccccc1)N1C=Cc2ccccc2C1c1c[nH]c2ccccc12

>  <score_type>  (66) 
oracle

>  <origin>  (66) 
autodockgpu

>  <m_score__min__energy>  (66) 
-8.5399999999999991

>  <m_primary>  (66) 
energy

>  <meeko>  (66) 
{"free_energy": -8.5, "intermolecular_energy": -9.7, "internal_energy": -1.62, "cluster_size": 11, "cluster_id": 1, "rank_in_cluster": 3}

>  <energy>  (66) 
-8.49

>  <cluster_rmsd>  (66) 
0.16

>  <rmsd>  (66) 
270.88

>  <cluster>  (66) 
1

$$$$
YCOHEPDJLXZVBZ-XMMPIXPANA-N
     RDKit          3D

 49 53  0  0  0  0  0  0  0  0999 V2000
  134.6990   68.1470  224.2980 O   0  0  0  0  0  0  0  0  0  0  0  0
  135.4540   69.4280  224.5200 S   0  0  0  0  0  0  0  0  0  0  0  0
  135.5960   69.6530  226.0000 O   0  0  0  0  0  0  0  0  0  0  0  0
  134.5550   70.7860  223.7880 C   0  0  0  0  0  0  0  0  0  0  0  0
  133.9450   71.6390  224.8670 C   0  0  0  0  0  0  0  0  0  0  0  0
  133.0310   71.0840  225.7790 C   0  0  0  0  0  0  0  0  0  0  0  0
  132.5430   71.8490  226.8400 C   0  0  0  0  0  0  0  0  0  0  0  0
  132.9600   73.1730  226.9990 C   0  0  0  0  0  0  0  0  0  0  0  0
  133.8690   73.7330  226.0970 C   0  0  0  0  0  0  0  0  0  0  0  0
  134.3650   72.9690  225.0360 C   0  0  0  0  0  0  0  0  0  0  0  0
  137.0270   69.3230  223.7920 N   0  0  0  0  0  0  0  0  0  0  0  0
  137.2250   68.4420  222.6730 C   0  0  0  0  0  0  0  0  0  0  0  0
  138.2430   68.6260  221.8350 C   0  0  0  0  0  0  0  0  0  0  0  0
  139.1750   69.7490  222.0310 C   0  0  0  0  0  0  0  0  0  0  0  0
  140.1280   70.0510  221.0480 C   0  0  0  0  0  0  0  0  0  0  0  0
  140.9900   71.1390  221.2160 C   0  0  0  0  0  0  0  0  0  0  0  0
  140.9060   71.9270  222.3650 C   0  0  0  0  0  0  0  0  0  0  0  0
  139.9640   71.6300  223.3520 C   0  0  0  0  0  0  0  0  0  0  0  0
  139.0900   70.5420  223.1920 C   0  0  0  0  0  0  0  0  0  0  0  0
  138.1050   70.1940  224.2860 C   0  0  2  0  0  0  0  0  0  0  0  0
  138.8240   69.5180  225.4240 C   0  0  0  0  0  0  0  0  0  0  0  0
  138.8250   68.1560  225.7160 C   0  0  0  0  0  0  0  0  0  0  0  0
  139.6240   67.9010  226.7760 N   0  0  0  0  0  0  0  0  0  0  0  0
  140.1350   69.0860  227.1510 C   0  0  0  0  0  0  0  0  0  0  0  0
  141.0280   69.3260  228.1940 C   0  0  0  0  0  0  0  0  0  0  0  0
  141.4520   70.6510  228.4050 C   0  0  0  0  0  0  0  0  0  0  0  0
  140.9800   71.6930  227.5750 C   0  0  0  0  0  0  0  0  0  0  0  0
  140.0820   71.4210  226.5290 C   0  0  0  0  0  0  0  0  0  0  0  0
  139.6750   70.0970  226.3460 C   0  0  0  0  0  0  0  0  0  0  0  0
  135.2439   71.3969  223.1862 H   0  0  0  0  0  0  0  0  0  0  0  0
  133.7550   70.3865  223.1474 H   0  0  0  0  0  0  0  0  0  0  0  0
  132.6988   70.0426  225.6564 H   0  0  0  0  0  0  0  0  0  0  0  0
  131.8292   71.4088  227.5518 H   0  0  0  0  0  0  0  0  0  0  0  0
  132.5728   73.7748  227.8344 H   0  0  0  0  0  0  0  0  0  0  0  0
  134.1947   74.7762  226.2219 H   0  0  0  0  0  0  0  0  0  0  0  0
  135.0858   73.4104  224.3320 H   0  0  0  0  0  0  0  0  0  0  0  0
  136.5280   67.6072  222.5076 H   0  0  0  0  0  0  0  0  0  0  0  0
  138.3887   67.9352  220.9914 H   0  0  0  0  0  0  0  0  0  0  0  0
  140.1977   69.4305  220.1424 H   0  0  0  0  0  0  0  0  0  0  0  0
  141.7352   71.3742  220.4418 H   0  0  0  0  0  0  0  0  0  0  0  0
  141.5835   72.7840  222.4933 H   0  0  0  0  0  0  0  0  0  0  0  0
  139.9061   72.2505  224.2585 H   0  0  0  0  0  0  0  0  0  0  0  0
  137.6476   71.1309  224.6367 H   0  0  0  0  0  0  0  0  0  0  0  0
  138.2557   67.3951  225.1620 H   0  0  0  0  0  0  0  0  0  0  0  0
  139.8120   66.9680  227.2060 H   0  0  0  0  0  0  0  0  0  0  0  0
  141.3897   68.5059  228.8317 H   0  0  0  0  0  0  0  0  0  0  0  0
  142.1547   70.8771  229.2205 H   0  0  0  0  0  0  0  0  0  0  0  0
  141.3183   72.7251  227.7492 H   0  0  0  0  0  0  0  0  0  0  0  0
  139.7114   72.2244  225.8754 H   0  0  0  0  0  0  0  0  0  0  0  0
  1  2  2  0
  2  3  2  0
  2  4  1  0
  4  5  1  0
  5  6  2  0
  6  7  1  0
  7  8  2  0
  8  9  1  0
  9 10  2  0
  2 11  1  0
 11 12  1  0
 12 13  2  0
 13 14  1  0
 14 15  2  0
 15 16  1  0
 16 17  2  0
 17 18  1  0
 18 19  2  0
 19 20  1  0
 20 21  1  0
 21 22  2  0
 22 23  1  0
 23 24  1  0
 24 25  2  0
 25 26  1  0
 26 27  2  0
 27 28  1  0
 28 29  2  0
 10  5  1  0
 20 11  1  0
 29 21  1  0
 19 14  1  0
 29 24  1  0
  4 30  1  0
  4 31  1  0
  6 32  1  0
  7 33  1  0
  8 34  1  0
  9 35  1  0
 10 36  1  0
 12 37  1  0
 13 38  1  0
 15 39  1  0
 16 40  1  0
 17 41  1  0
 18 42  1  0
 20 43  1  1
 22 44  1  0
 23 45  1  0
 25 46  1  0
 26 47  1  0
 27 48  1  0
 28 49  1  0
M  END
>  <UniqueID>  (67) 
12

>  <SMILES>  (67) 
O=S(=O)(Cc1ccccc1)N1C=Cc2ccccc2[C@@H]1c1c[nH]c2ccccc12

>  <Energy>  (67) 
80.99038826142095

>  <Genealogy>  (67) 
O=S(=O)(Cc1ccccc1)N1C=Cc2ccccc2[C@@H]1c1c[nH]c2ccccc12 (chirality)
O=S(=O)(Cc1ccccc1)N1C=Cc2ccccc2[C@@H]1c1c[nH]c2ccccc12 (3D coordinates assigned)
O=S(=O)(Cc1ccccc1)N1C=Cc2ccccc2[C@@H]1c1c[nH]c2ccccc12 (nonaromatic ring conformer: 80.99038826142095 kcal/mol)

>  <smiles>  (67) 
O=S(=O)(Cc1ccccc1)N1C=Cc2ccccc2C1c1c[nH]c2ccccc12

>  <score_type>  (67) 
oracle

>  <origin>  (67) 
autodockgpu

>  <m_score__min__energy>  (67) 
-8.5399999999999991

>  <m_primary>  (67) 
energy

>  <meeko>  (67) 
{"free_energy": -8.52, "intermolecular_energy": -9.71, "internal_energy": -1.65, "cluster_size": 2, "cluster_id": 2, "rank_in_cluster": 1}

>  <energy>  (67) 
-8.47

>  <cluster_rmsd>  (67) 
0.13

>  <rmsd>  (67) 
270.92

>  <cluster>  (67) 
1

$$$$
YCOHEPDJLXZVBZ-XMMPIXPANA-N
     RDKit          3D

 49 53  0  0  0  0  0  0  0  0999 V2000
  142.0720   78.7360  224.0510 O   0  0  0  0  0  0  0  0  0  0  0  0
  142.2770   79.8680  223.0830 S   0  0  0  0  0  0  0  0  0  0  0  0
  143.7300   80.2540  223.0940 O   0  0  0  0  0  0  0  0  0  0  0  0
  141.2790   81.2650  223.5750 C   0  0  0  0  0  0  0  0  0  0  0  0
  139.8310   80.9940  223.2720 C   0  0  0  0  0  0  0  0  0  0  0  0
  139.1390   79.9840  223.9620 C   0  0  0  0  0  0  0  0  0  0  0  0
  137.7700   79.7990  223.7530 C   0  0  0  0  0  0  0  0  0  0  0  0
  137.0820   80.6190  222.8540 C   0  0  0  0  0  0  0  0  0  0  0  0
  137.7630   81.6250  222.1640 C   0  0  0  0  0  0  0  0  0  0  0  0
  139.1320   81.8170  222.3740 C   0  0  0  0  0  0  0  0  0  0  0  0
  141.8170   79.3700  221.4830 N   0  0  0  0  0  0  0  0  0  0  0  0
  141.4940   80.3710  220.5030 C   0  0  0  0  0  0  0  0  0  0  0  0
  141.5510   80.0930  219.2030 C   0  0  0  0  0  0  0  0  0  0  0  0
  141.9660   78.7560  218.7450 C   0  0  0  0  0  0  0  0  0  0  0  0
  142.2070   78.5220  217.3840 C   0  0  0  0  0  0  0  0  0  0  0  0
  142.6360   77.2640  216.9520 C   0  0  0  0  0  0  0  0  0  0  0  0
  142.8250   76.2340  217.8760 C   0  0  0  0  0  0  0  0  0  0  0  0
  142.5820   76.4560  219.2330 C   0  0  0  0  0  0  0  0  0  0  0  0
  142.1550   77.7180  219.6790 C   0  0  0  0  0  0  0  0  0  0  0  0
  141.8450   77.9390  221.1430 C   0  0  2  0  0  0  0  0  0  0  0  0
  140.5200   77.3100  221.4850 C   0  0  0  0  0  0  0  0  0  0  0  0
  140.3020   76.2590  222.3730 C   0  0  0  0  0  0  0  0  0  0  0  0
  138.9800   75.9930  222.4740 N   0  0  0  0  0  0  0  0  0  0  0  0
  138.3610   76.8720  221.6680 C   0  0  0  0  0  0  0  0  0  0  0  0
  136.9890   76.9950  221.4530 C   0  0  0  0  0  0  0  0  0  0  0  0
  136.5490   78.0010  220.5740 C   0  0  0  0  0  0  0  0  0  0  0  0
  137.4810   78.8540  219.9390 C   0  0  0  0  0  0  0  0  0  0  0  0
  138.8590   78.7070  220.1770 C   0  0  0  0  0  0  0  0  0  0  0  0
  139.2660   77.6970  221.0510 C   0  0  0  0  0  0  0  0  0  0  0  0
  141.3994   81.4366  224.6548 H   0  0  0  0  0  0  0  0  0  0  0  0
  141.6043   82.1557  223.0175 H   0  0  0  0  0  0  0  0  0  0  0  0
  139.6775   79.3364  224.6696 H   0  0  0  0  0  0  0  0  0  0  0  0
  137.2332   79.0074  224.2963 H   0  0  0  0  0  0  0  0  0  0  0  0
  136.0043   80.4722  222.6898 H   0  0  0  0  0  0  0  0  0  0  0  0
  137.2211   82.2673  221.4542 H   0  0  0  0  0  0  0  0  0  0  0  0
  139.6630   82.6150  221.8343 H   0  0  0  0  0  0  0  0  0  0  0  0
  141.1965   81.3778  220.8314 H   0  0  0  0  0  0  0  0  0  0  0  0
  141.2867   80.8659  218.4663 H   0  0  0  0  0  0  0  0  0  0  0  0
  142.0580   79.3311  216.6538 H   0  0  0  0  0  0  0  0  0  0  0  0
  142.8250   77.0850  215.8832 H   0  0  0  0  0  0  0  0  0  0  0  0
  143.1660   75.2457  217.5340 H   0  0  0  0  0  0  0  0  0  0  0  0
  142.7255   75.6394  219.9559 H   0  0  0  0  0  0  0  0  0  0  0  0
  142.6458   77.4670  221.7312 H   0  0  0  0  0  0  0  0  0  0  0  0
  141.0936   75.7213  222.9155 H   0  0  0  0  0  0  0  0  0  0  0  0
  138.5350   75.2590  223.0690 H   0  0  0  0  0  0  0  0  0  0  0  0
  136.2736   76.3268  221.9547 H   0  0  0  0  0  0  0  0  0  0  0  0
  135.4735   78.1249  220.3794 H   0  0  0  0  0  0  0  0  0  0  0  0
  137.1256   79.6380  219.2541 H   0  0  0  0  0  0  0  0  0  0  0  0
  139.5927   79.3664  219.6904 H   0  0  0  0  0  0  0  0  0  0  0  0
  1  2  2  0
  2  3  2  0
  2  4  1  0
  4  5  1  0
  5  6  2  0
  6  7  1  0
  7  8  2  0
  8  9  1  0
  9 10  2  0
  2 11  1  0
 11 12  1  0
 12 13  2  0
 13 14  1  0
 14 15  2  0
 15 16  1  0
 16 17  2  0
 17 18  1  0
 18 19  2  0
 19 20  1  0
 20 21  1  0
 21 22  2  0
 22 23  1  0
 23 24  1  0
 24 25  2  0
 25 26  1  0
 26 27  2  0
 27 28  1  0
 28 29  2  0
 10  5  1  0
 20 11  1  0
 29 21  1  0
 19 14  1  0
 29 24  1  0
  4 30  1  0
  4 31  1  0
  6 32  1  0
  7 33  1  0
  8 34  1  0
  9 35  1  0
 10 36  1  0
 12 37  1  0
 13 38  1  0
 15 39  1  0
 16 40  1  0
 17 41  1  0
 18 42  1  0
 20 43  1  1
 22 44  1  0
 23 45  1  0
 25 46  1  0
 26 47  1  0
 27 48  1  0
 28 49  1  0
M  END
>  <UniqueID>  (68) 
12

>  <SMILES>  (68) 
O=S(=O)(Cc1ccccc1)N1C=Cc2ccccc2[C@@H]1c1c[nH]c2ccccc12

>  <Energy>  (68) 
80.99038826142095

>  <Genealogy>  (68) 
O=S(=O)(Cc1ccccc1)N1C=Cc2ccccc2[C@@H]1c1c[nH]c2ccccc12 (chirality)
O=S(=O)(Cc1ccccc1)N1C=Cc2ccccc2[C@@H]1c1c[nH]c2ccccc12 (3D coordinates assigned)
O=S(=O)(Cc1ccccc1)N1C=Cc2ccccc2[C@@H]1c1c[nH]c2ccccc12 (nonaromatic ring conformer: 80.99038826142095 kcal/mol)

>  <smiles>  (68) 
O=S(=O)(Cc1ccccc1)N1C=Cc2ccccc2C1c1c[nH]c2ccccc12

>  <score_type>  (68) 
oracle

>  <origin>  (68) 
autodockgpu

>  <m_score__min__energy>  (68) 
-8.5399999999999991

>  <m_primary>  (68) 
energy

>  <meeko>  (68) 
{"free_energy": -6.75, "intermolecular_energy": -7.94, "internal_energy": -2.97, "cluster_size": 6, "cluster_id": 4, "rank_in_cluster": 2}

>  <energy>  (68) 
-8.46

>  <cluster_rmsd>  (68) 
0.14

>  <rmsd>  (68) 
270.9

>  <cluster>  (68) 
1

$$$$
YCOHEPDJLXZVBZ-XMMPIXPANA-N
     RDKit          3D

 49 53  0  0  0  0  0  0  0  0999 V2000
  138.5860   82.0620  218.0150 O   0  0  0  0  0  0  0  0  0  0  0  0
  138.6040   80.8550  218.9120 S   0  0  0  0  0  0  0  0  0  0  0  0
  138.6080   79.6190  218.0560 O   0  0  0  0  0  0  0  0  0  0  0  0
  137.1530   80.8620  219.9520 C   0  0  0  0  0  0  0  0  0  0  0  0
  137.5360   80.5400  221.3700 C   0  0  0  0  0  0  0  0  0  0  0  0
  137.6270   79.2030  221.7940 C   0  0  0  0  0  0  0  0  0  0  0  0
  138.0800   78.9010  223.0800 C   0  0  0  0  0  0  0  0  0  0  0  0
  138.4430   79.9290  223.9540 C   0  0  0  0  0  0  0  0  0  0  0  0
  138.3550   81.2610  223.5410 C   0  0  0  0  0  0  0  0  0  0  0  0
  137.9080   81.5680  222.2520 C   0  0  0  0  0  0  0  0  0  0  0  0
  140.0250   80.8780  219.9100 N   0  0  0  0  0  0  0  0  0  0  0  0
  140.6310   82.1400  220.2390 C   0  0  0  0  0  0  0  0  0  0  0  0
  141.4260   82.2560  221.2990 C   0  0  0  0  0  0  0  0  0  0  0  0
  141.6850   81.0940  222.1670 C   0  0  0  0  0  0  0  0  0  0  0  0
  142.3660   81.2620  223.3810 C   0  0  0  0  0  0  0  0  0  0  0  0
  142.5810   80.1660  224.2230 C   0  0  0  0  0  0  0  0  0  0  0  0
  142.1200   78.9000  223.8550 C   0  0  0  0  0  0  0  0  0  0  0  0
  141.4450   78.7240  222.6450 C   0  0  0  0  0  0  0  0  0  0  0  0
  141.2200   79.8180  221.7940 C   0  0  0  0  0  0  0  0  0  0  0  0
  140.5340   79.6120  220.4610 C   0  0  2  0  0  0  0  0  0  0  0  0
  141.4920   78.9820  219.4850 C   0  0  0  0  0  0  0  0  0  0  0  0
  142.1470   79.6180  218.4320 C   0  0  0  0  0  0  0  0  0  0  0  0
  142.9740   78.7550  217.8000 N   0  0  0  0  0  0  0  0  0  0  0  0
  142.8570   77.5840  218.4500 C   0  0  0  0  0  0  0  0  0  0  0  0
  143.5290   76.3950  218.1700 C   0  0  0  0  0  0  0  0  0  0  0  0
  143.2680   75.2840  218.9920 C   0  0  0  0  0  0  0  0  0  0  0  0
  142.3520   75.3850  220.0630 C   0  0  0  0  0  0  0  0  0  0  0  0
  141.6900   76.5980  220.3230 C   0  0  0  0  0  0  0  0  0  0  0  0
  141.9650   77.6840  219.4880 C   0  0  0  0  0  0  0  0  0  0  0  0
  136.6850   81.8569  219.9179 H   0  0  0  0  0  0  0  0  0  0  0  0
  136.4439   80.1039  219.5881 H   0  0  0  0  0  0  0  0  0  0  0  0
  137.3401   78.3909  221.1098 H   0  0  0  0  0  0  0  0  0  0  0  0
  138.1511   77.8526  223.4053 H   0  0  0  0  0  0  0  0  0  0  0  0
  138.7981   79.6897  224.9672 H   0  0  0  0  0  0  0  0  0  0  0  0
  138.6378   82.0696  224.2311 H   0  0  0  0  0  0  0  0  0  0  0  0
  137.8476   82.6174  221.9279 H   0  0  0  0  0  0  0  0  0  0  0  0
  140.4349   83.0188  219.6072 H   0  0  0  0  0  0  0  0  0  0  0  0
  141.8928   83.2251  221.5289 H   0  0  0  0  0  0  0  0  0  0  0  0
  142.7319   82.2577  223.6718 H   0  0  0  0  0  0  0  0  0  0  0  0
  143.1136   80.3013  225.1759 H   0  0  0  0  0  0  0  0  0  0  0  0
  142.2889   78.0398  224.5195 H   0  0  0  0  0  0  0  0  0  0  0  0
  141.0881   77.7240  222.3574 H   0  0  0  0  0  0  0  0  0  0  0  0
  139.6752   78.9444  220.6247 H   0  0  0  0  0  0  0  0  0  0  0  0
  142.0104   80.6735  218.1542 H   0  0  0  0  0  0  0  0  0  0  0  0
  143.5870   78.9640  216.9810 H   0  0  0  0  0  0  0  0  0  0  0  0
  144.2402   76.3280  217.3335 H   0  0  0  0  0  0  0  0  0  0  0  0
  143.7805   74.3299  218.7998 H   0  0  0  0  0  0  0  0  0  0  0  0
  142.1553   74.5085  220.6979 H   0  0  0  0  0  0  0  0  0  0  0  0
  140.9785   76.6890  221.1570 H   0  0  0  0  0  0  0  0  0  0  0  0
  1  2  2  0
  2  3  2  0
  2  4  1  0
  4  5  1  0
  5  6  2  0
  6  7  1  0
  7  8  2  0
  8  9  1  0
  9 10  2  0
  2 11  1  0
 11 12  1  0
 12 13  2  0
 13 14  1  0
 14 15  2  0
 15 16  1  0
 16 17  2  0
 17 18  1  0
 18 19  2  0
 19 20  1  0
 20 21  1  0
 21 22  2  0
 22 23  1  0
 23 24  1  0
 24 25  2  0
 25 26  1  0
 26 27  2  0
 27 28  1  0
 28 29  2  0
 10  5  1  0
 20 11  1  0
 29 21  1  0
 19 14  1  0
 29 24  1  0
  4 30  1  0
  4 31  1  0
  6 32  1  0
  7 33  1  0
  8 34  1  0
  9 35  1  0
 10 36  1  0
 12 37  1  0
 13 38  1  0
 15 39  1  0
 16 40  1  0
 17 41  1  0
 18 42  1  0
 20 43  1  1
 22 44  1  0
 23 45  1  0
 25 46  1  0
 26 47  1  0
 27 48  1  0
 28 49  1  0
M  END
>  <UniqueID>  (69) 
12

>  <SMILES>  (69) 
O=S(=O)(Cc1ccccc1)N1C=Cc2ccccc2[C@@H]1c1c[nH]c2ccccc12

>  <Energy>  (69) 
80.99038826142095

>  <Genealogy>  (69) 
O=S(=O)(Cc1ccccc1)N1C=Cc2ccccc2[C@@H]1c1c[nH]c2ccccc12 (chirality)
O=S(=O)(Cc1ccccc1)N1C=Cc2ccccc2[C@@H]1c1c[nH]c2ccccc12 (3D coordinates assigned)
O=S(=O)(Cc1ccccc1)N1C=Cc2ccccc2[C@@H]1c1c[nH]c2ccccc12 (nonaromatic ring conformer: 80.99038826142095 kcal/mol)

>  <smiles>  (69) 
O=S(=O)(Cc1ccccc1)N1C=Cc2ccccc2C1c1c[nH]c2ccccc12

>  <score_type>  (69) 
oracle

>  <origin>  (69) 
autodockgpu

>  <m_score__min__energy>  (69) 
-8.5399999999999991

>  <m_primary>  (69) 
energy

>  <meeko>  (69) 
{"free_energy": -6.88, "intermolecular_energy": -8.08, "internal_energy": -2.76, "cluster_size": 1, "cluster_id": 3, "rank_in_cluster": 1}

>  <energy>  (69) 
-8.45

>  <cluster_rmsd>  (69) 
0.18

>  <rmsd>  (69) 
270.89

>  <cluster>  (69) 
1

$$$$
YCOHEPDJLXZVBZ-XMMPIXPANA-N
     RDKit          3D

 49 53  0  0  0  0  0  0  0  0999 V2000
  140.8080   74.9350  221.9430 O   0  0  0  0  0  0  0  0  0  0  0  0
  140.4120   75.8130  220.7890 S   0  0  0  0  0  0  0  0  0  0  0  0
  138.9960   75.4900  220.4010 O   0  0  0  0  0  0  0  0  0  0  0  0
  141.4990   75.5090  219.4060 C   0  0  0  0  0  0  0  0  0  0  0  0
  142.6740   74.6810  219.8480 C   0  0  0  0  0  0  0  0  0  0  0  0
  143.9420   75.2690  219.9920 C   0  0  0  0  0  0  0  0  0  0  0  0
  145.0100   74.5240  220.4990 C   0  0  0  0  0  0  0  0  0  0  0  0
  144.8220   73.1890  220.8650 C   0  0  0  0  0  0  0  0  0  0  0  0
  143.5640   72.5970  220.7250 C   0  0  0  0  0  0  0  0  0  0  0  0
  142.4910   73.3390  220.2230 C   0  0  0  0  0  0  0  0  0  0  0  0
  140.5240   77.4840  221.2490 N   0  0  0  0  0  0  0  0  0  0  0  0
  139.3360   78.1770  221.6690 C   0  0  0  0  0  0  0  0  0  0  0  0
  139.4180   79.2790  222.4120 C   0  0  0  0  0  0  0  0  0  0  0  0
  140.7310   79.7970  222.8320 C   0  0  0  0  0  0  0  0  0  0  0  0
  140.8090   80.8420  223.7650 C   0  0  0  0  0  0  0  0  0  0  0  0
  142.0550   81.3100  224.1920 C   0  0  0  0  0  0  0  0  0  0  0  0
  143.2270   80.7410  223.6900 C   0  0  0  0  0  0  0  0  0  0  0  0
  143.1590   79.7040  222.7570 C   0  0  0  0  0  0  0  0  0  0  0  0
  141.9120   79.2220  222.3240 C   0  0  0  0  0  0  0  0  0  0  0  0
  141.8440   78.1330  221.2750 C   0  0  2  0  0  0  0  0  0  0  0  0
  142.1530   78.7100  219.9190 C   0  0  0  0  0  0  0  0  0  0  0  0
  142.7790   78.0580  218.8590 C   0  0  0  0  0  0  0  0  0  0  0  0
  142.8400   78.8660  217.7770 N   0  0  0  0  0  0  0  0  0  0  0  0
  142.2490   80.0170  218.1380 C   0  0  0  0  0  0  0  0  0  0  0  0
  142.0590   81.1510  217.3490 C   0  0  0  0  0  0  0  0  0  0  0  0
  141.3980   82.2500  217.9250 C   0  0  0  0  0  0  0  0  0  0  0  0
  140.9440   82.1920  219.2620 C   0  0  0  0  0  0  0  0  0  0  0  0
  141.1480   81.0350  220.0340 C   0  0  0  0  0  0  0  0  0  0  0  0
  141.8120   79.9600  219.4370 C   0  0  0  0  0  0  0  0  0  0  0  0
  140.9481   74.9699  218.6212 H   0  0  0  0  0  0  0  0  0  0  0  0
  141.8618   76.4705  219.0136 H   0  0  0  0  0  0  0  0  0  0  0  0
  144.0945   76.3198  219.7045 H   0  0  0  0  0  0  0  0  0  0  0  0
  146.0004   74.9895  220.6101 H   0  0  0  0  0  0  0  0  0  0  0  0
  145.6641   72.6040  221.2633 H   0  0  0  0  0  0  0  0  0  0  0  0
  143.4178   71.5448  221.0105 H   0  0  0  0  0  0  0  0  0  0  0  0
  141.5006   72.8712  220.1212 H   0  0  0  0  0  0  0  0  0  0  0  0
  138.3487   77.7925  221.3733 H   0  0  0  0  0  0  0  0  0  0  0  0
  138.5003   79.8051  222.7136 H   0  0  0  0  0  0  0  0  0  0  0  0
  139.8877   81.2939  224.1613 H   0  0  0  0  0  0  0  0  0  0  0  0
  142.1123   82.1282  224.9250 H   0  0  0  0  0  0  0  0  0  0  0  0
  144.2058   81.1102  224.0300 H   0  0  0  0  0  0  0  0  0  0  0  0
  144.0850   79.2629  222.3596 H   0  0  0  0  0  0  0  0  0  0  0  0
  142.5914   77.3690  221.5351 H   0  0  0  0  0  0  0  0  0  0  0  0
  143.1689   77.0301  218.8971 H   0  0  0  0  0  0  0  0  0  0  0  0
  143.2530   78.6330  216.8460 H   0  0  0  0  0  0  0  0  0  0  0  0
  142.4151   81.1846  216.3088 H   0  0  0  0  0  0  0  0  0  0  0  0
  141.2331   83.1611  217.3310 H   0  0  0  0  0  0  0  0  0  0  0  0
  140.4275   83.0580  219.7016 H   0  0  0  0  0  0  0  0  0  0  0  0
  140.7962   80.9777  221.0747 H   0  0  0  0  0  0  0  0  0  0  0  0
  1  2  2  0
  2  3  2  0
  2  4  1  0
  4  5  1  0
  5  6  2  0
  6  7  1  0
  7  8  2  0
  8  9  1  0
  9 10  2  0
  2 11  1  0
 11 12  1  0
 12 13  2  0
 13 14  1  0
 14 15  2  0
 15 16  1  0
 16 17  2  0
 17 18  1  0
 18 19  2  0
 19 20  1  0
 20 21  1  0
 21 22  2  0
 22 23  1  0
 23 24  1  0
 24 25  2  0
 25 26  1  0
 26 27  2  0
 27 28  1  0
 28 29  2  0
 10  5  1  0
 20 11  1  0
 29 21  1  0
 19 14  1  0
 29 24  1  0
  4 30  1  0
  4 31  1  0
  6 32  1  0
  7 33  1  0
  8 34  1  0
  9 35  1  0
 10 36  1  0
 12 37  1  0
 13 38  1  0
 15 39  1  0
 16 40  1  0
 17 41  1  0
 18 42  1  0
 20 43  1  1
 22 44  1  0
 23 45  1  0
 25 46  1  0
 26 47  1  0
 27 48  1  0
 28 49  1  0
M  END
>  <UniqueID>  (70) 
12

>  <SMILES>  (70) 
O=S(=O)(Cc1ccccc1)N1C=Cc2ccccc2[C@@H]1c1c[nH]c2ccccc12

>  <Energy>  (70) 
80.99038826142095

>  <Genealogy>  (70) 
O=S(=O)(Cc1ccccc1)N1C=Cc2ccccc2[C@@H]1c1c[nH]c2ccccc12 (chirality)
O=S(=O)(Cc1ccccc1)N1C=Cc2ccccc2[C@@H]1c1c[nH]c2ccccc12 (3D coordinates assigned)
O=S(=O)(Cc1ccccc1)N1C=Cc2ccccc2[C@@H]1c1c[nH]c2ccccc12 (nonaromatic ring conformer: 80.99038826142095 kcal/mol)

>  <smiles>  (70) 
O=S(=O)(Cc1ccccc1)N1C=Cc2ccccc2C1c1c[nH]c2ccccc12

>  <score_type>  (70) 
oracle

>  <origin>  (70) 
autodockgpu

>  <m_score__min__energy>  (70) 
-8.5399999999999991

>  <m_primary>  (70) 
energy

>  <meeko>  (70) 
{"free_energy": -8.37, "intermolecular_energy": -9.56, "internal_energy": -1.64, "cluster_size": 11, "cluster_id": 1, "rank_in_cluster": 11}

>  <energy>  (70) 
-8.43

>  <cluster_rmsd>  (70) 
0.11

>  <rmsd>  (70) 
270.9

>  <cluster>  (70) 
1

$$$$
YCOHEPDJLXZVBZ-XMMPIXPANA-N
     RDKit          3D

 49 53  0  0  0  0  0  0  0  0999 V2000
  140.6960   74.9070  221.9660 O   0  0  0  0  0  0  0  0  0  0  0  0
  140.4040   75.7830  220.7800 S   0  0  0  0  0  0  0  0  0  0  0  0
  139.0150   75.4830  220.2890 O   0  0  0  0  0  0  0  0  0  0  0  0
  141.5860   75.4490  219.4840 C   0  0  0  0  0  0  0  0  0  0  0  0
  142.7430   74.6620  220.0350 C   0  0  0  0  0  0  0  0  0  0  0  0
  142.5770   73.3140  220.3950 C   0  0  0  0  0  0  0  0  0  0  0  0
  143.6740   72.5560  220.8110 C   0  0  0  0  0  0  0  0  0  0  0  0
  144.9440   73.1380  220.8730 C   0  0  0  0  0  0  0  0  0  0  0  0
  145.1170   74.4770  220.5170 C   0  0  0  0  0  0  0  0  0  0  0  0
  144.0230   75.2380  220.0950 C   0  0  0  0  0  0  0  0  0  0  0  0
  140.5120   77.4550  221.2380 N   0  0  0  0  0  0  0  0  0  0  0  0
  139.3220   78.1470  221.6530 C   0  0  0  0  0  0  0  0  0  0  0  0
  139.4020   79.2510  222.3940 C   0  0  0  0  0  0  0  0  0  0  0  0
  140.7130   79.7710  222.8170 C   0  0  0  0  0  0  0  0  0  0  0  0
  140.7860   80.8170  223.7480 C   0  0  0  0  0  0  0  0  0  0  0  0
  142.0300   81.2880  224.1780 C   0  0  0  0  0  0  0  0  0  0  0  0
  143.2040   80.7200  223.6790 C   0  0  0  0  0  0  0  0  0  0  0  0
  143.1400   79.6810  222.7480 C   0  0  0  0  0  0  0  0  0  0  0  0
  141.8960   79.1960  222.3130 C   0  0  0  0  0  0  0  0  0  0  0  0
  141.8320   78.1060  221.2660 C   0  0  2  0  0  0  0  0  0  0  0  0
  142.1430   78.6810  219.9100 C   0  0  0  0  0  0  0  0  0  0  0  0
  142.7650   78.0250  218.8500 C   0  0  0  0  0  0  0  0  0  0  0  0
  142.8300   78.8320  217.7670 N   0  0  0  0  0  0  0  0  0  0  0  0
  142.2460   79.9870  218.1280 C   0  0  0  0  0  0  0  0  0  0  0  0
  142.0620   81.1210  217.3390 C   0  0  0  0  0  0  0  0  0  0  0  0
  141.4070   82.2250  217.9150 C   0  0  0  0  0  0  0  0  0  0  0  0
  140.9540   82.1690  219.2520 C   0  0  0  0  0  0  0  0  0  0  0  0
  141.1510   81.0110  220.0250 C   0  0  0  0  0  0  0  0  0  0  0  0
  141.8090   79.9330  219.4280 C   0  0  0  0  0  0  0  0  0  0  0  0
  141.0982   74.8697  218.6862 H   0  0  0  0  0  0  0  0  0  0  0  0
  141.9572   76.4019  219.0788 H   0  0  0  0  0  0  0  0  0  0  0  0
  141.5790   72.8537  220.3490 H   0  0  0  0  0  0  0  0  0  0  0  0
  143.5388   71.5006  221.0900 H   0  0  0  0  0  0  0  0  0  0  0  0
  145.8070   72.5407  221.2023 H   0  0  0  0  0  0  0  0  0  0  0  0
  146.1162   74.9340  220.5687 H   0  0  0  0  0  0  0  0  0  0  0  0
  144.1647   76.2907  219.8091 H   0  0  0  0  0  0  0  0  0  0  0  0
  138.3358   77.7610  221.3557 H   0  0  0  0  0  0  0  0  0  0  0  0
  138.4831   79.7774  222.6917 H   0  0  0  0  0  0  0  0  0  0  0  0
  139.8627   81.2678  224.1407 H   0  0  0  0  0  0  0  0  0  0  0  0
  142.0841   82.1070  224.9103 H   0  0  0  0  0  0  0  0  0  0  0  0
  144.1815   81.0918  224.0200 H   0  0  0  0  0  0  0  0  0  0  0  0
  144.0678   79.2408  222.3538 H   0  0  0  0  0  0  0  0  0  0  0  0
  142.5800   77.3436  221.5289 H   0  0  0  0  0  0  0  0  0  0  0  0
  143.1493   76.9950  218.8887 H   0  0  0  0  0  0  0  0  0  0  0  0
  143.2420   78.5970  216.8360 H   0  0  0  0  0  0  0  0  0  0  0  0
  142.4177   81.1520  216.2986 H   0  0  0  0  0  0  0  0  0  0  0  0
  141.2467   83.1368  217.3210 H   0  0  0  0  0  0  0  0  0  0  0  0
  140.4431   83.0382  219.6918 H   0  0  0  0  0  0  0  0  0  0  0  0
  140.7986   80.9558  221.0655 H   0  0  0  0  0  0  0  0  0  0  0  0
  1  2  2  0
  2  3  2  0
  2  4  1  0
  4  5  1  0
  5  6  2  0
  6  7  1  0
  7  8  2  0
  8  9  1  0
  9 10  2  0
  2 11  1  0
 11 12  1  0
 12 13  2  0
 13 14  1  0
 14 15  2  0
 15 16  1  0
 16 17  2  0
 17 18  1  0
 18 19  2  0
 19 20  1  0
 20 21  1  0
 21 22  2  0
 22 23  1  0
 23 24  1  0
 24 25  2  0
 25 26  1  0
 26 27  2  0
 27 28  1  0
 28 29  2  0
 10  5  1  0
 20 11  1  0
 29 21  1  0
 19 14  1  0
 29 24  1  0
  4 30  1  0
  4 31  1  0
  6 32  1  0
  7 33  1  0
  8 34  1  0
  9 35  1  0
 10 36  1  0
 12 37  1  0
 13 38  1  0
 15 39  1  0
 16 40  1  0
 17 41  1  0
 18 42  1  0
 20 43  1  1
 22 44  1  0
 23 45  1  0
 25 46  1  0
 26 47  1  0
 27 48  1  0
 28 49  1  0
M  END
>  <UniqueID>  (71) 
12

>  <SMILES>  (71) 
O=S(=O)(Cc1ccccc1)N1C=Cc2ccccc2[C@@H]1c1c[nH]c2ccccc12

>  <Energy>  (71) 
80.99038826142095

>  <Genealogy>  (71) 
O=S(=O)(Cc1ccccc1)N1C=Cc2ccccc2[C@@H]1c1c[nH]c2ccccc12 (chirality)
O=S(=O)(Cc1ccccc1)N1C=Cc2ccccc2[C@@H]1c1c[nH]c2ccccc12 (3D coordinates assigned)
O=S(=O)(Cc1ccccc1)N1C=Cc2ccccc2[C@@H]1c1c[nH]c2ccccc12 (nonaromatic ring conformer: 80.99038826142095 kcal/mol)

>  <smiles>  (71) 
O=S(=O)(Cc1ccccc1)N1C=Cc2ccccc2C1c1c[nH]c2ccccc12

>  <score_type>  (71) 
oracle

>  <origin>  (71) 
autodockgpu

>  <m_score__min__energy>  (71) 
-8.5399999999999991

>  <m_primary>  (71) 
energy

>  <meeko>  (71) 
{"free_energy": -8.51, "intermolecular_energy": -9.71, "internal_energy": -1.62, "cluster_size": 11, "cluster_id": 1, "rank_in_cluster": 2}

>  <energy>  (71) 
-8.37

>  <cluster_rmsd>  (71) 
0.15

>  <rmsd>  (71) 
270.89

>  <cluster>  (71) 
1

$$$$
YCOHEPDJLXZVBZ-XMMPIXPANA-N
     RDKit          3D

 49 53  0  0  0  0  0  0  0  0999 V2000
  142.0780   78.7390  224.0530 O   0  0  0  0  0  0  0  0  0  0  0  0
  142.2810   79.8700  223.0840 S   0  0  0  0  0  0  0  0  0  0  0  0
  143.7330   80.2600  223.0960 O   0  0  0  0  0  0  0  0  0  0  0  0
  141.2790   81.2640  223.5750 C   0  0  0  0  0  0  0  0  0  0  0  0
  139.8330   80.9910  223.2660 C   0  0  0  0  0  0  0  0  0  0  0  0
  139.1390   79.9810  223.9550 C   0  0  0  0  0  0  0  0  0  0  0  0
  137.7710   79.7940  223.7410 C   0  0  0  0  0  0  0  0  0  0  0  0
  137.0860   80.6110  222.8380 C   0  0  0  0  0  0  0  0  0  0  0  0
  137.7680   81.6170  222.1490 C   0  0  0  0  0  0  0  0  0  0  0  0
  139.1360   81.8110  222.3640 C   0  0  0  0  0  0  0  0  0  0  0  0
  141.8250   79.3700  221.4840 N   0  0  0  0  0  0  0  0  0  0  0  0
  141.5060   80.3700  220.5010 C   0  0  0  0  0  0  0  0  0  0  0  0
  141.5660   80.0880  219.2010 C   0  0  0  0  0  0  0  0  0  0  0  0
  141.9790   78.7490  218.7480 C   0  0  0  0  0  0  0  0  0  0  0  0
  142.2230   78.5110  217.3880 C   0  0  0  0  0  0  0  0  0  0  0  0
  142.6500   77.2510  216.9600 C   0  0  0  0  0  0  0  0  0  0  0  0
  142.8320   76.2220  217.8870 C   0  0  0  0  0  0  0  0  0  0  0  0
  142.5870   76.4490  219.2430 C   0  0  0  0  0  0  0  0  0  0  0  0
  142.1630   77.7130  219.6850 C   0  0  0  0  0  0  0  0  0  0  0  0
  141.8490   77.9380  221.1470 C   0  0  2  0  0  0  0  0  0  0  0  0
  140.5220   77.3140  221.4880 C   0  0  0  0  0  0  0  0  0  0  0  0
  140.2970   76.2710  222.3830 C   0  0  0  0  0  0  0  0  0  0  0  0
  138.9740   76.0070  222.4790 N   0  0  0  0  0  0  0  0  0  0  0  0
  138.3600   76.8790  221.6620 C   0  0  0  0  0  0  0  0  0  0  0  0
  136.9900   77.0020  221.4380 C   0  0  0  0  0  0  0  0  0  0  0  0
  136.5570   78.0010  220.5470 C   0  0  0  0  0  0  0  0  0  0  0  0
  137.4930   78.8470  219.9100 C   0  0  0  0  0  0  0  0  0  0  0  0
  138.8690   78.7010  220.1570 C   0  0  0  0  0  0  0  0  0  0  0  0
  139.2710   77.6980  221.0420 C   0  0  0  0  0  0  0  0  0  0  0  0
  141.3950   81.4336  224.6556 H   0  0  0  0  0  0  0  0  0  0  0  0
  141.6048   82.1565  223.0206 H   0  0  0  0  0  0  0  0  0  0  0  0
  139.6754   79.3351  224.6657 H   0  0  0  0  0  0  0  0  0  0  0  0
  137.2329   79.0030  224.2839 H   0  0  0  0  0  0  0  0  0  0  0  0
  136.0092   80.4621  222.6695 H   0  0  0  0  0  0  0  0  0  0  0  0
  137.2279   82.2575  221.4362 H   0  0  0  0  0  0  0  0  0  0  0  0
  139.6679   82.6086  221.8247 H   0  0  0  0  0  0  0  0  0  0  0  0
  141.2094   81.3781  220.8263 H   0  0  0  0  0  0  0  0  0  0  0  0
  141.3056   80.8595  218.4614 H   0  0  0  0  0  0  0  0  0  0  0  0
  142.0779   79.3187  216.6555 H   0  0  0  0  0  0  0  0  0  0  0  0
  142.8429   77.0694  215.8924 H   0  0  0  0  0  0  0  0  0  0  0  0
  143.1689   75.2311  217.5483 H   0  0  0  0  0  0  0  0  0  0  0  0
  142.7268   75.6340  219.9684 H   0  0  0  0  0  0  0  0  0  0  0  0
  142.6466   77.4641  221.7380 H   0  0  0  0  0  0  0  0  0  0  0  0
  141.0848   75.7368  222.9345 H   0  0  0  0  0  0  0  0  0  0  0  0
  138.5240   75.2790  223.0780 H   0  0  0  0  0  0  0  0  0  0  0  0
  136.2706   76.3395  221.9415 H   0  0  0  0  0  0  0  0  0  0  0  0
  135.4828   78.1245  220.3448 H   0  0  0  0  0  0  0  0  0  0  0  0
  137.1422   79.6251  219.2161 H   0  0  0  0  0  0  0  0  0  0  0  0
  139.6058   79.3558  219.6688 H   0  0  0  0  0  0  0  0  0  0  0  0
  1  2  2  0
  2  3  2  0
  2  4  1  0
  4  5  1  0
  5  6  2  0
  6  7  1  0
  7  8  2  0
  8  9  1  0
  9 10  2  0
  2 11  1  0
 11 12  1  0
 12 13  2  0
 13 14  1  0
 14 15  2  0
 15 16  1  0
 16 17  2  0
 17 18  1  0
 18 19  2  0
 19 20  1  0
 20 21  1  0
 21 22  2  0
 22 23  1  0
 23 24  1  0
 24 25  2  0
 25 26  1  0
 26 27  2  0
 27 28  1  0
 28 29  2  0
 10  5  1  0
 20 11  1  0
 29 21  1  0
 19 14  1  0
 29 24  1  0
  4 30  1  0
  4 31  1  0
  6 32  1  0
  7 33  1  0
  8 34  1  0
  9 35  1  0
 10 36  1  0
 12 37  1  0
 13 38  1  0
 15 39  1  0
 16 40  1  0
 17 41  1  0
 18 42  1  0
 20 43  1  1
 22 44  1  0
 23 45  1  0
 25 46  1  0
 26 47  1  0
 27 48  1  0
 28 49  1  0
M  END
>  <UniqueID>  (72) 
12

>  <SMILES>  (72) 
O=S(=O)(Cc1ccccc1)N1C=Cc2ccccc2[C@@H]1c1c[nH]c2ccccc12

>  <Energy>  (72) 
80.99038826142095

>  <Genealogy>  (72) 
O=S(=O)(Cc1ccccc1)N1C=Cc2ccccc2[C@@H]1c1c[nH]c2ccccc12 (chirality)
O=S(=O)(Cc1ccccc1)N1C=Cc2ccccc2[C@@H]1c1c[nH]c2ccccc12 (3D coordinates assigned)
O=S(=O)(Cc1ccccc1)N1C=Cc2ccccc2[C@@H]1c1c[nH]c2ccccc12 (nonaromatic ring conformer: 80.99038826142095 kcal/mol)

>  <smiles>  (72) 
O=S(=O)(Cc1ccccc1)N1C=Cc2ccccc2C1c1c[nH]c2ccccc12

>  <score_type>  (72) 
oracle

>  <origin>  (72) 
autodockgpu

>  <m_score__min__energy>  (72) 
-8.5399999999999991

>  <m_primary>  (72) 
energy

>  <meeko>  (72) 
{"free_energy": -6.74, "intermolecular_energy": -7.93, "internal_energy": -2.98, "cluster_size": 6, "cluster_id": 4, "rank_in_cluster": 3}

>  <energy>  (72) 
-8.52

>  <cluster_rmsd>  (72) 
0.0

>  <rmsd>  (72) 
270.26

>  <cluster>  (72) 
2

$$$$
YCOHEPDJLXZVBZ-XMMPIXPANA-N
     RDKit          3D

 49 53  0  0  0  0  0  0  0  0999 V2000
  140.6570   74.9100  221.9250 O   0  0  0  0  0  0  0  0  0  0  0  0
  140.3870   75.8100  220.7520 S   0  0  0  0  0  0  0  0  0  0  0  0
  139.0000   75.5330  220.2410 O   0  0  0  0  0  0  0  0  0  0  0  0
  141.5790   75.4850  219.4630 C   0  0  0  0  0  0  0  0  0  0  0  0
  142.7190   74.6710  220.0110 C   0  0  0  0  0  0  0  0  0  0  0  0
  142.5300   73.3190  220.3440 C   0  0  0  0  0  0  0  0  0  0  0  0
  143.6110   72.5380  220.7570 C   0  0  0  0  0  0  0  0  0  0  0  0
  144.8880   73.0990  220.8430 C   0  0  0  0  0  0  0  0  0  0  0  0
  145.0850   74.4420  220.5140 C   0  0  0  0  0  0  0  0  0  0  0  0
  144.0060   75.2270  220.0940 C   0  0  0  0  0  0  0  0  0  0  0  0
  140.5080   77.4720  221.2390 N   0  0  0  0  0  0  0  0  0  0  0  0
  139.3280   78.1590  221.6910 C   0  0  0  0  0  0  0  0  0  0  0  0
  139.4240   79.2480  222.4510 C   0  0  0  0  0  0  0  0  0  0  0  0
  140.7440   79.7570  222.8580 C   0  0  0  0  0  0  0  0  0  0  0  0
  140.8380   80.7850  223.8070 C   0  0  0  0  0  0  0  0  0  0  0  0
  142.0910   81.2450  224.2220 C   0  0  0  0  0  0  0  0  0  0  0  0
  143.2540   80.6840  223.6910 C   0  0  0  0  0  0  0  0  0  0  0  0
  143.1700   79.6630  222.7410 C   0  0  0  0  0  0  0  0  0  0  0  0
  141.9160   79.1900  222.3200 C   0  0  0  0  0  0  0  0  0  0  0  0
  141.8290   78.1200  221.2540 C   0  0  2  0  0  0  0  0  0  0  0  0
  142.1160   78.7200  219.9040 C   0  0  0  0  0  0  0  0  0  0  0  0
  142.7100   78.0810  218.8170 C   0  0  0  0  0  0  0  0  0  0  0  0
  142.7580   78.9100  217.7500 N   0  0  0  0  0  0  0  0  0  0  0  0
  142.1920   80.0620  218.1470 C   0  0  0  0  0  0  0  0  0  0  0  0
  142.0000   81.2130  217.3850 C   0  0  0  0  0  0  0  0  0  0  0  0
  141.3660   82.3090  217.9980 C   0  0  0  0  0  0  0  0  0  0  0  0
  140.9410   82.2300  219.3430 C   0  0  0  0  0  0  0  0  0  0  0  0
  141.1460   81.0550  220.0870 C   0  0  0  0  0  0  0  0  0  0  0  0
  141.7820   79.9840  219.4540 C   0  0  0  0  0  0  0  0  0  0  0  0
  141.0923   74.9285  218.6485 H   0  0  0  0  0  0  0  0  0  0  0  0
  141.9679   76.4405  219.0811 H   0  0  0  0  0  0  0  0  0  0  0  0
  141.5261   72.8741  220.2790 H   0  0  0  0  0  0  0  0  0  0  0  0
  143.4573   71.4798  221.0150 H   0  0  0  0  0  0  0  0  0  0  0  0
  145.7384   72.4826  221.1699 H   0  0  0  0  0  0  0  0  0  0  0  0
  146.0902   74.8831  220.5853 H   0  0  0  0  0  0  0  0  0  0  0  0
  144.1660   76.2823  219.8281 H   0  0  0  0  0  0  0  0  0  0  0  0
  138.3353   77.7806  221.4057 H   0  0  0  0  0  0  0  0  0  0  0  0
  138.5122   79.7701  222.7765 H   0  0  0  0  0  0  0  0  0  0  0  0
  139.9236   81.2305  224.2258 H   0  0  0  0  0  0  0  0  0  0  0  0
  142.1609   82.0503  224.9681 H   0  0  0  0  0  0  0  0  0  0  0  0
  144.2386   81.0466  224.0213 H   0  0  0  0  0  0  0  0  0  0  0  0
  144.0890   79.2280  222.3212 H   0  0  0  0  0  0  0  0  0  0  0  0
  142.5797   77.3508  221.4882 H   0  0  0  0  0  0  0  0  0  0  0  0
  143.0868   77.0476  218.8260 H   0  0  0  0  0  0  0  0  0  0  0  0
  143.1470   78.6900  216.8060 H   0  0  0  0  0  0  0  0  0  0  0  0
  142.3335   81.2628  216.3379 H   0  0  0  0  0  0  0  0  0  0  0  0
  141.2000   83.2339  217.4262 H   0  0  0  0  0  0  0  0  0  0  0  0
  140.4463   83.0938  219.8112 H   0  0  0  0  0  0  0  0  0  0  0  0
  140.8163   80.9811  221.1338 H   0  0  0  0  0  0  0  0  0  0  0  0
  1  2  2  0
  2  3  2  0
  2  4  1  0
  4  5  1  0
  5  6  2  0
  6  7  1  0
  7  8  2  0
  8  9  1  0
  9 10  2  0
  2 11  1  0
 11 12  1  0
 12 13  2  0
 13 14  1  0
 14 15  2  0
 15 16  1  0
 16 17  2  0
 17 18  1  0
 18 19  2  0
 19 20  1  0
 20 21  1  0
 21 22  2  0
 22 23  1  0
 23 24  1  0
 24 25  2  0
 25 26  1  0
 26 27  2  0
 27 28  1  0
 28 29  2  0
 10  5  1  0
 20 11  1  0
 29 21  1  0
 19 14  1  0
 29 24  1  0
  4 30  1  0
  4 31  1  0
  6 32  1  0
  7 33  1  0
  8 34  1  0
  9 35  1  0
 10 36  1  0
 12 37  1  0
 13 38  1  0
 15 39  1  0
 16 40  1  0
 17 41  1  0
 18 42  1  0
 20 43  1  1
 22 44  1  0
 23 45  1  0
 25 46  1  0
 26 47  1  0
 27 48  1  0
 28 49  1  0
M  END
>  <UniqueID>  (73) 
12

>  <SMILES>  (73) 
O=S(=O)(Cc1ccccc1)N1C=Cc2ccccc2[C@@H]1c1c[nH]c2ccccc12

>  <Energy>  (73) 
80.99038826142095

>  <Genealogy>  (73) 
O=S(=O)(Cc1ccccc1)N1C=Cc2ccccc2[C@@H]1c1c[nH]c2ccccc12 (chirality)
O=S(=O)(Cc1ccccc1)N1C=Cc2ccccc2[C@@H]1c1c[nH]c2ccccc12 (3D coordinates assigned)
O=S(=O)(Cc1ccccc1)N1C=Cc2ccccc2[C@@H]1c1c[nH]c2ccccc12 (nonaromatic ring conformer: 80.99038826142095 kcal/mol)

>  <smiles>  (73) 
O=S(=O)(Cc1ccccc1)N1C=Cc2ccccc2C1c1c[nH]c2ccccc12

>  <score_type>  (73) 
oracle

>  <origin>  (73) 
autodockgpu

>  <m_score__min__energy>  (73) 
-8.5399999999999991

>  <m_primary>  (73) 
energy

>  <meeko>  (73) 
{"free_energy": -8.5, "intermolecular_energy": -9.7, "internal_energy": -1.62, "cluster_size": 11, "cluster_id": 1, "rank_in_cluster": 4}

>  <energy>  (73) 
-7.3

>  <cluster_rmsd>  (73) 
1.49

>  <rmsd>  (73) 
269.84

>  <cluster>  (73) 
2

$$$$
YCOHEPDJLXZVBZ-XMMPIXPANA-N
     RDKit          3D

 49 53  0  0  0  0  0  0  0  0999 V2000
  140.5660   74.9830  221.9560 O   0  0  0  0  0  0  0  0  0  0  0  0
  140.3080   75.8870  220.7830 S   0  0  0  0  0  0  0  0  0  0  0  0
  138.9100   75.6460  220.2880 O   0  0  0  0  0  0  0  0  0  0  0  0
  141.4780   75.5260  219.4830 C   0  0  0  0  0  0  0  0  0  0  0  0
  142.6320   74.7350  220.0340 C   0  0  0  0  0  0  0  0  0  0  0  0
  142.4580   73.3890  220.4010 C   0  0  0  0  0  0  0  0  0  0  0  0
  143.5510   72.6260  220.8180 C   0  0  0  0  0  0  0  0  0  0  0  0
  144.8250   73.2000  220.8740 C   0  0  0  0  0  0  0  0  0  0  0  0
  145.0060   74.5360  220.5120 C   0  0  0  0  0  0  0  0  0  0  0  0
  143.9150   75.3030  220.0880 C   0  0  0  0  0  0  0  0  0  0  0  0
  140.4790   77.5470  221.2650 N   0  0  0  0  0  0  0  0  0  0  0  0
  139.3240   78.2650  221.7280 C   0  0  0  0  0  0  0  0  0  0  0  0
  139.4570   79.3530  222.4840 C   0  0  0  0  0  0  0  0  0  0  0  0
  140.7950   79.8280  222.8750 C   0  0  0  0  0  0  0  0  0  0  0  0
  140.9280   80.8550  223.8200 C   0  0  0  0  0  0  0  0  0  0  0  0
  142.1980   81.2830  224.2190 C   0  0  0  0  0  0  0  0  0  0  0  0
  143.3390   80.6900  223.6750 C   0  0  0  0  0  0  0  0  0  0  0  0
  143.2160   79.6700  222.7290 C   0  0  0  0  0  0  0  0  0  0  0  0
  141.9450   79.2290  222.3250 C   0  0  0  0  0  0  0  0  0  0  0  0
  141.8170   78.1590  221.2620 C   0  0  2  0  0  0  0  0  0  0  0  0
  142.1040   78.7480  219.9070 C   0  0  0  0  0  0  0  0  0  0  0  0
  142.7240   78.1090  218.8350 C   0  0  0  0  0  0  0  0  0  0  0  0
  142.7640   78.9250  217.7570 N   0  0  0  0  0  0  0  0  0  0  0  0
  142.1660   80.0680  218.1340 C   0  0  0  0  0  0  0  0  0  0  0  0
  141.9550   81.2040  217.3540 C   0  0  0  0  0  0  0  0  0  0  0  0
  141.2890   82.2930  217.9460 C   0  0  0  0  0  0  0  0  0  0  0  0
  140.8520   82.2210  219.2880 C   0  0  0  0  0  0  0  0  0  0  0  0
  141.0770   81.0610  220.0500 C   0  0  0  0  0  0  0  0  0  0  0  0
  141.7450   79.9980  219.4380 C   0  0  0  0  0  0  0  0  0  0  0  0
  140.9789   74.9418  218.6958 H   0  0  0  0  0  0  0  0  0  0  0  0
  141.8552   76.4707  219.0645 H   0  0  0  0  0  0  0  0  0  0  0  0
  141.4569   72.9350  220.3596 H   0  0  0  0  0  0  0  0  0  0  0  0
  143.4096   71.5729  221.1025 H   0  0  0  0  0  0  0  0  0  0  0  0
  145.6850   72.5984  221.2035 H   0  0  0  0  0  0  0  0  0  0  0  0
  146.0082   74.9868  220.5601 H   0  0  0  0  0  0  0  0  0  0  0  0
  144.0628   76.3533  219.7964 H   0  0  0  0  0  0  0  0  0  0  0  0
  138.3186   77.9120  221.4549 H   0  0  0  0  0  0  0  0  0  0  0  0
  138.5629   79.8998  222.8182 H   0  0  0  0  0  0  0  0  0  0  0  0
  140.0308   81.3254  224.2488 H   0  0  0  0  0  0  0  0  0  0  0  0
  142.2982   82.0877  224.9622 H   0  0  0  0  0  0  0  0  0  0  0  0
  144.3369   81.0269  223.9922 H   0  0  0  0  0  0  0  0  0  0  0  0
  144.1179   79.2102  222.2986 H   0  0  0  0  0  0  0  0  0  0  0  0
  142.5498   77.3705  221.4885 H   0  0  0  0  0  0  0  0  0  0  0  0
  143.1246   77.0849  218.8617 H   0  0  0  0  0  0  0  0  0  0  0  0
  143.1680   78.7020  216.8200 H   0  0  0  0  0  0  0  0  0  0  0  0
  142.2980   81.2476  216.3098 H   0  0  0  0  0  0  0  0  0  0  0  0
  141.1073   83.2063  217.3604 H   0  0  0  0  0  0  0  0  0  0  0  0
  140.3321   83.0787  219.7397 H   0  0  0  0  0  0  0  0  0  0  0  0
  140.7379   80.9929  221.0942 H   0  0  0  0  0  0  0  0  0  0  0  0
  1  2  2  0
  2  3  2  0
  2  4  1  0
  4  5  1  0
  5  6  2  0
  6  7  1  0
  7  8  2  0
  8  9  1  0
  9 10  2  0
  2 11  1  0
 11 12  1  0
 12 13  2  0
 13 14  1  0
 14 15  2  0
 15 16  1  0
 16 17  2  0
 17 18  1  0
 18 19  2  0
 19 20  1  0
 20 21  1  0
 21 22  2  0
 22 23  1  0
 23 24  1  0
 24 25  2  0
 25 26  1  0
 26 27  2  0
 27 28  1  0
 28 29  2  0
 10  5  1  0
 20 11  1  0
 29 21  1  0
 19 14  1  0
 29 24  1  0
  4 30  1  0
  4 31  1  0
  6 32  1  0
  7 33  1  0
  8 34  1  0
  9 35  1  0
 10 36  1  0
 12 37  1  0
 13 38  1  0
 15 39  1  0
 16 40  1  0
 17 41  1  0
 18 42  1  0
 20 43  1  1
 22 44  1  0
 23 45  1  0
 25 46  1  0
 26 47  1  0
 27 48  1  0
 28 49  1  0
M  END
>  <UniqueID>  (74) 
12

>  <SMILES>  (74) 
O=S(=O)(Cc1ccccc1)N1C=Cc2ccccc2[C@@H]1c1c[nH]c2ccccc12

>  <Energy>  (74) 
80.99038826142095

>  <Genealogy>  (74) 
O=S(=O)(Cc1ccccc1)N1C=Cc2ccccc2[C@@H]1c1c[nH]c2ccccc12 (chirality)
O=S(=O)(Cc1ccccc1)N1C=Cc2ccccc2[C@@H]1c1c[nH]c2ccccc12 (3D coordinates assigned)
O=S(=O)(Cc1ccccc1)N1C=Cc2ccccc2[C@@H]1c1c[nH]c2ccccc12 (nonaromatic ring conformer: 80.99038826142095 kcal/mol)

>  <smiles>  (74) 
O=S(=O)(Cc1ccccc1)N1C=Cc2ccccc2C1c1c[nH]c2ccccc12

>  <score_type>  (74) 
oracle

>  <origin>  (74) 
autodockgpu

>  <m_score__min__energy>  (74) 
-8.5399999999999991

>  <m_primary>  (74) 
energy

>  <meeko>  (74) 
{"free_energy": -8.43, "intermolecular_energy": -9.63, "internal_energy": -1.71, "cluster_size": 11, "cluster_id": 1, "rank_in_cluster": 10}

>  <energy>  (74) 
-6.88

>  <cluster_rmsd>  (74) 
0.0

>  <rmsd>  (74) 
270.73

>  <cluster>  (74) 
3

$$$$
YCOHEPDJLXZVBZ-XMMPIXPANA-N
     RDKit          3D

 49 53  0  0  0  0  0  0  0  0999 V2000
  140.6050   74.9830  221.9700 O   0  0  0  0  0  0  0  0  0  0  0  0
  140.3330   75.8740  220.7900 S   0  0  0  0  0  0  0  0  0  0  0  0
  138.9320   75.6190  220.3070 O   0  0  0  0  0  0  0  0  0  0  0  0
  141.4950   75.5110  219.4850 C   0  0  0  0  0  0  0  0  0  0  0  0
  142.6500   74.7170  220.0310 C   0  0  0  0  0  0  0  0  0  0  0  0
  142.4780   73.3670  220.3850 C   0  0  0  0  0  0  0  0  0  0  0  0
  143.5720   72.6030  220.7970 C   0  0  0  0  0  0  0  0  0  0  0  0
  144.8440   73.1790  220.8620 C   0  0  0  0  0  0  0  0  0  0  0  0
  145.0230   74.5190  220.5120 C   0  0  0  0  0  0  0  0  0  0  0  0
  143.9320   75.2870  220.0930 C   0  0  0  0  0  0  0  0  0  0  0  0
  140.4950   77.5400  221.2560 N   0  0  0  0  0  0  0  0  0  0  0  0
  139.3290   78.2670  221.6790 C   0  0  0  0  0  0  0  0  0  0  0  0
  139.4450   79.3630  222.4250 C   0  0  0  0  0  0  0  0  0  0  0  0
  140.7740   79.8400  222.8460 C   0  0  0  0  0  0  0  0  0  0  0  0
  140.8830   80.8790  223.7820 C   0  0  0  0  0  0  0  0  0  0  0  0
  142.1430   81.3080  224.2100 C   0  0  0  0  0  0  0  0  0  0  0  0
  143.2970   80.7050  223.7050 C   0  0  0  0  0  0  0  0  0  0  0  0
  143.1970   79.6740  222.7680 C   0  0  0  0  0  0  0  0  0  0  0  0
  141.9360   79.2310  222.3350 C   0  0  0  0  0  0  0  0  0  0  0  0
  141.8350   78.1480  221.2830 C   0  0  2  0  0  0  0  0  0  0  0  0
  142.1600   78.7200  219.9280 C   0  0  0  0  0  0  0  0  0  0  0  0
  142.7870   78.0590  218.8740 C   0  0  0  0  0  0  0  0  0  0  0  0
  142.8650   78.8650  217.7910 N   0  0  0  0  0  0  0  0  0  0  0  0
  142.2840   80.0230  218.1460 C   0  0  0  0  0  0  0  0  0  0  0  0
  142.1120   81.1570  217.3540 C   0  0  0  0  0  0  0  0  0  0  0  0
  141.4570   82.2640  217.9230 C   0  0  0  0  0  0  0  0  0  0  0  0
  140.9930   82.2130  219.2570 C   0  0  0  0  0  0  0  0  0  0  0  0
  141.1790   81.0550  220.0320 C   0  0  0  0  0  0  0  0  0  0  0  0
  141.8360   79.9730  219.4420 C   0  0  0  0  0  0  0  0  0  0  0  0
  140.9909   74.9281  218.7001 H   0  0  0  0  0  0  0  0  0  0  0  0
  141.8723   76.4548  219.0645 H   0  0  0  0  0  0  0  0  0  0  0  0
  141.4781   72.9111  220.3372 H   0  0  0  0  0  0  0  0  0  0  0  0
  143.4326   71.5467  221.0707 H   0  0  0  0  0  0  0  0  0  0  0  0
  145.7043   72.5765  221.1890 H   0  0  0  0  0  0  0  0  0  0  0  0
  146.0242   74.9713  220.5660 H   0  0  0  0  0  0  0  0  0  0  0  0
  144.0784   76.3402  219.8113 H   0  0  0  0  0  0  0  0  0  0  0  0
  138.3303   77.9136  221.3829 H   0  0  0  0  0  0  0  0  0  0  0  0
  138.5439   79.9158  222.7289 H   0  0  0  0  0  0  0  0  0  0  0  0
  139.9757   81.3570  224.1799 H   0  0  0  0  0  0  0  0  0  0  0  0
  142.2255   82.1217  224.9456 H   0  0  0  0  0  0  0  0  0  0  0  0
  144.2868   81.0427  224.0459 H   0  0  0  0  0  0  0  0  0  0  0  0
  144.1090   79.2071  222.3676 H   0  0  0  0  0  0  0  0  0  0  0  0
  142.5593   77.3610  221.5399 H   0  0  0  0  0  0  0  0  0  0  0  0
  143.1653   77.0270  218.9167 H   0  0  0  0  0  0  0  0  0  0  0  0
  143.2820   78.6260  216.8640 H   0  0  0  0  0  0  0  0  0  0  0  0
  142.4770   81.1853  216.3167 H   0  0  0  0  0  0  0  0  0  0  0  0
  141.3049   83.1753  217.3259 H   0  0  0  0  0  0  0  0  0  0  0  0
  140.4829   83.0852  219.6917 H   0  0  0  0  0  0  0  0  0  0  0  0
  140.8186   81.0028  221.0700 H   0  0  0  0  0  0  0  0  0  0  0  0
  1  2  2  0
  2  3  2  0
  2  4  1  0
  4  5  1  0
  5  6  2  0
  6  7  1  0
  7  8  2  0
  8  9  1  0
  9 10  2  0
  2 11  1  0
 11 12  1  0
 12 13  2  0
 13 14  1  0
 14 15  2  0
 15 16  1  0
 16 17  2  0
 17 18  1  0
 18 19  2  0
 19 20  1  0
 20 21  1  0
 21 22  2  0
 22 23  1  0
 23 24  1  0
 24 25  2  0
 25 26  1  0
 26 27  2  0
 27 28  1  0
 28 29  2  0
 10  5  1  0
 20 11  1  0
 29 21  1  0
 19 14  1  0
 29 24  1  0
  4 30  1  0
  4 31  1  0
  6 32  1  0
  7 33  1  0
  8 34  1  0
  9 35  1  0
 10 36  1  0
 12 37  1  0
 13 38  1  0
 15 39  1  0
 16 40  1  0
 17 41  1  0
 18 42  1  0
 20 43  1  1
 22 44  1  0
 23 45  1  0
 25 46  1  0
 26 47  1  0
 27 48  1  0
 28 49  1  0
M  END
>  <UniqueID>  (75) 
12

>  <SMILES>  (75) 
O=S(=O)(Cc1ccccc1)N1C=Cc2ccccc2[C@@H]1c1c[nH]c2ccccc12

>  <Energy>  (75) 
80.99038826142095

>  <Genealogy>  (75) 
O=S(=O)(Cc1ccccc1)N1C=Cc2ccccc2[C@@H]1c1c[nH]c2ccccc12 (chirality)
O=S(=O)(Cc1ccccc1)N1C=Cc2ccccc2[C@@H]1c1c[nH]c2ccccc12 (3D coordinates assigned)
O=S(=O)(Cc1ccccc1)N1C=Cc2ccccc2[C@@H]1c1c[nH]c2ccccc12 (nonaromatic ring conformer: 80.99038826142095 kcal/mol)

>  <smiles>  (75) 
O=S(=O)(Cc1ccccc1)N1C=Cc2ccccc2C1c1c[nH]c2ccccc12

>  <score_type>  (75) 
oracle

>  <origin>  (75) 
autodockgpu

>  <m_score__min__energy>  (75) 
-8.5399999999999991

>  <m_primary>  (75) 
energy

>  <meeko>  (75) 
{"free_energy": -8.47, "intermolecular_energy": -9.66, "internal_energy": -1.67, "cluster_size": 11, "cluster_id": 1, "rank_in_cluster": 7}

>  <energy>  (75) 
-6.75

>  <cluster_rmsd>  (75) 
0.0

>  <rmsd>  (75) 
270.78

>  <cluster>  (75) 
4

$$$$
YCOHEPDJLXZVBZ-XMMPIXPANA-N
     RDKit          3D

 49 53  0  0  0  0  0  0  0  0999 V2000
  142.1550   78.7480  224.0000 O   0  0  0  0  0  0  0  0  0  0  0  0
  142.2880   79.9290  223.0790 S   0  0  0  0  0  0  0  0  0  0  0  0
  143.7210   80.3810  223.0790 O   0  0  0  0  0  0  0  0  0  0  0  0
  141.2390   81.2550  223.6530 C   0  0  0  0  0  0  0  0  0  0  0  0
  139.8010   80.9470  223.3350 C   0  0  0  0  0  0  0  0  0  0  0  0
  139.0790   81.7660  222.4500 C   0  0  0  0  0  0  0  0  0  0  0  0
  137.7770   81.4240  222.0770 C   0  0  0  0  0  0  0  0  0  0  0  0
  137.1860   80.2640  222.5850 C   0  0  0  0  0  0  0  0  0  0  0  0
  137.8960   79.4440  223.4650 C   0  0  0  0  0  0  0  0  0  0  0  0
  139.2020   79.7800  223.8370 C   0  0  0  0  0  0  0  0  0  0  0  0
  141.8160   79.4810  221.4690 N   0  0  0  0  0  0  0  0  0  0  0  0
  141.4140   80.5070  220.5450 C   0  0  0  0  0  0  0  0  0  0  0  0
  141.4540   80.2920  219.2320 C   0  0  0  0  0  0  0  0  0  0  0  0
  141.9300   79.0030  218.7020 C   0  0  0  0  0  0  0  0  0  0  0  0
  142.1490   78.8460  217.3260 C   0  0  0  0  0  0  0  0  0  0  0  0
  142.6360   77.6350  216.8250 C   0  0  0  0  0  0  0  0  0  0  0  0
  142.9030   76.5760  217.6950 C   0  0  0  0  0  0  0  0  0  0  0  0
  142.6830   76.7210  219.0660 C   0  0  0  0  0  0  0  0  0  0  0  0
  142.1990   77.9350  219.5810 C   0  0  0  0  0  0  0  0  0  0  0  0
  141.9140   78.0710  221.0600 C   0  0  2  0  0  0  0  0  0  0  0  0
  140.6340   77.3540  221.4020 C   0  0  0  0  0  0  0  0  0  0  0  0
  140.4720   76.3480  222.3520 C   0  0  0  0  0  0  0  0  0  0  0  0
  139.1740   75.9760  222.4290 N   0  0  0  0  0  0  0  0  0  0  0  0
  138.5140   76.7430  221.5450 C   0  0  0  0  0  0  0  0  0  0  0  0
  137.1460   76.7330  221.2770 C   0  0  0  0  0  0  0  0  0  0  0  0
  136.6570   77.6370  220.3170 C   0  0  0  0  0  0  0  0  0  0  0  0
  137.5370   78.5230  219.6550 C   0  0  0  0  0  0  0  0  0  0  0  0
  138.9120   78.5130  219.9470 C   0  0  0  0  0  0  0  0  0  0  0  0
  139.3700   77.6010  220.9010 C   0  0  0  0  0  0  0  0  0  0  0  0
  141.3557   81.3670  224.7410 H   0  0  0  0  0  0  0  0  0  0  0  0
  141.5286   82.1889  223.1490 H   0  0  0  0  0  0  0  0  0  0  0  0
  139.5412   82.6802  222.0493 H   0  0  0  0  0  0  0  0  0  0  0  0
  137.2167   82.0680  221.3832 H   0  0  0  0  0  0  0  0  0  0  0  0
  136.1602   79.9963  222.2914 H   0  0  0  0  0  0  0  0  0  0  0  0
  137.4277   78.5330  223.8660 H   0  0  0  0  0  0  0  0  0  0  0  0
  139.7613   79.1285  224.5245 H   0  0  0  0  0  0  0  0  0  0  0  0
  141.0699   81.4794  220.9272 H   0  0  0  0  0  0  0  0  0  0  0  0
  141.1295   81.0819  218.5386 H   0  0  0  0  0  0  0  0  0  0  0  0
  141.9370   79.6782  216.6386 H   0  0  0  0  0  0  0  0  0  0  0  0
  142.8089   77.5165  215.7452 H   0  0  0  0  0  0  0  0  0  0  0  0
  143.2878   75.6246  217.2990 H   0  0  0  0  0  0  0  0  0  0  0  0
  142.8895   75.8812  219.7457 H   0  0  0  0  0  0  0  0  0  0  0  0
  142.7545   77.6179  221.6062 H   0  0  0  0  0  0  0  0  0  0  0  0
  141.2851   75.9170  222.9545 H   0  0  0  0  0  0  0  0  0  0  0  0
  138.7690   75.2480  223.0580 H   0  0  0  0  0  0  0  0  0  0  0  0
  136.4704   76.0400  221.7998 H   0  0  0  0  0  0  0  0  0  0  0  0
  135.5830   77.6546  220.0799 H   0  0  0  0  0  0  0  0  0  0  0  0
  137.1430   79.2255  218.9058 H   0  0  0  0  0  0  0  0  0  0  0  0
  139.6050   79.2011  219.4407 H   0  0  0  0  0  0  0  0  0  0  0  0
  1  2  2  0
  2  3  2  0
  2  4  1  0
  4  5  1  0
  5  6  2  0
  6  7  1  0
  7  8  2  0
  8  9  1  0
  9 10  2  0
  2 11  1  0
 11 12  1  0
 12 13  2  0
 13 14  1  0
 14 15  2  0
 15 16  1  0
 16 17  2  0
 17 18  1  0
 18 19  2  0
 19 20  1  0
 20 21  1  0
 21 22  2  0
 22 23  1  0
 23 24  1  0
 24 25  2  0
 25 26  1  0
 26 27  2  0
 27 28  1  0
 28 29  2  0
 10  5  1  0
 20 11  1  0
 29 21  1  0
 19 14  1  0
 29 24  1  0
  4 30  1  0
  4 31  1  0
  6 32  1  0
  7 33  1  0
  8 34  1  0
  9 35  1  0
 10 36  1  0
 12 37  1  0
 13 38  1  0
 15 39  1  0
 16 40  1  0
 17 41  1  0
 18 42  1  0
 20 43  1  1
 22 44  1  0
 23 45  1  0
 25 46  1  0
 26 47  1  0
 27 48  1  0
 28 49  1  0
M  END
>  <UniqueID>  (76) 
12

>  <SMILES>  (76) 
O=S(=O)(Cc1ccccc1)N1C=Cc2ccccc2[C@@H]1c1c[nH]c2ccccc12

>  <Energy>  (76) 
80.99038826142095

>  <Genealogy>  (76) 
O=S(=O)(Cc1ccccc1)N1C=Cc2ccccc2[C@@H]1c1c[nH]c2ccccc12 (chirality)
O=S(=O)(Cc1ccccc1)N1C=Cc2ccccc2[C@@H]1c1c[nH]c2ccccc12 (3D coordinates assigned)
O=S(=O)(Cc1ccccc1)N1C=Cc2ccccc2[C@@H]1c1c[nH]c2ccccc12 (nonaromatic ring conformer: 80.99038826142095 kcal/mol)

>  <smiles>  (76) 
O=S(=O)(Cc1ccccc1)N1C=Cc2ccccc2C1c1c[nH]c2ccccc12

>  <score_type>  (76) 
oracle

>  <origin>  (76) 
autodockgpu

>  <m_score__min__energy>  (76) 
-8.5399999999999991

>  <m_primary>  (76) 
energy

>  <meeko>  (76) 
{"free_energy": -6.71, "intermolecular_energy": -7.91, "internal_energy": -3.01, "cluster_size": 6, "cluster_id": 4, "rank_in_cluster": 4}

>  <energy>  (76) 
-6.75

>  <cluster_rmsd>  (76) 
0.06

>  <rmsd>  (76) 
270.79

>  <cluster>  (76) 
4

$$$$
YCOHEPDJLXZVBZ-XMMPIXPANA-N
     RDKit          3D

 49 53  0  0  0  0  0  0  0  0999 V2000
  142.0220   78.7320  224.0690 O   0  0  0  0  0  0  0  0  0  0  0  0
  142.2620   79.8450  223.0880 S   0  0  0  0  0  0  0  0  0  0  0  0
  143.7190   80.2120  223.1220 O   0  0  0  0  0  0  0  0  0  0  0  0
  141.2740   81.2630  223.5390 C   0  0  0  0  0  0  0  0  0  0  0  0
  139.8240   80.9950  223.2390 C   0  0  0  0  0  0  0  0  0  0  0  0
  139.1340   79.9800  223.9240 C   0  0  0  0  0  0  0  0  0  0  0  0
  137.7640   79.7980  223.7180 C   0  0  0  0  0  0  0  0  0  0  0  0
  137.0740   80.6240  222.8270 C   0  0  0  0  0  0  0  0  0  0  0  0
  137.7530   81.6350  222.1430 C   0  0  0  0  0  0  0  0  0  0  0  0
  139.1230   81.8250  222.3490 C   0  0  0  0  0  0  0  0  0  0  0  0
  141.8270   79.3290  221.4870 N   0  0  0  0  0  0  0  0  0  0  0  0
  141.5290   80.3190  220.4880 C   0  0  0  0  0  0  0  0  0  0  0  0
  141.6080   80.0210  219.1930 C   0  0  0  0  0  0  0  0  0  0  0  0
  142.0200   78.6750  218.7610 C   0  0  0  0  0  0  0  0  0  0  0  0
  142.2840   78.4200  217.4080 C   0  0  0  0  0  0  0  0  0  0  0  0
  142.7100   77.1530  217.0020 C   0  0  0  0  0  0  0  0  0  0  0  0
  142.8730   76.1340  217.9430 C   0  0  0  0  0  0  0  0  0  0  0  0
  142.6080   76.3770  219.2920 C   0  0  0  0  0  0  0  0  0  0  0  0
  142.1840   77.6490  219.7120 C   0  0  0  0  0  0  0  0  0  0  0  0
  141.8490   77.8930  221.1680 C   0  0  2  0  0  0  0  0  0  0  0  0
  140.5130   77.2800  221.4940 C   0  0  0  0  0  0  0  0  0  0  0  0
  140.2730   76.2280  222.3760 C   0  0  0  0  0  0  0  0  0  0  0  0
  138.9470   75.9780  222.4640 N   0  0  0  0  0  0  0  0  0  0  0  0
  138.3470   76.8670  221.6550 C   0  0  0  0  0  0  0  0  0  0  0  0
  136.9790   77.0080  221.4260 C   0  0  0  0  0  0  0  0  0  0  0  0
  136.5600   78.0230  220.5460 C   0  0  0  0  0  0  0  0  0  0  0  0
  137.5090   78.8660  219.9230 C   0  0  0  0  0  0  0  0  0  0  0  0
  138.8820   78.7010  220.1740 C   0  0  0  0  0  0  0  0  0  0  0  0
  139.2690   77.6830  221.0490 C   0  0  0  0  0  0  0  0  0  0  0  0
  141.3928   81.4630  224.6141 H   0  0  0  0  0  0  0  0  0  0  0  0
  141.6080   82.1357  222.9586 H   0  0  0  0  0  0  0  0  0  0  0  0
  139.6744   79.3266  224.6247 H   0  0  0  0  0  0  0  0  0  0  0  0
  137.2281   79.0035  224.2579 H   0  0  0  0  0  0  0  0  0  0  0  0
  135.9960   80.4781  222.6642 H   0  0  0  0  0  0  0  0  0  0  0  0
  137.2087   82.2833  221.4406 H   0  0  0  0  0  0  0  0  0  0  0  0
  139.6527   82.6262  221.8128 H   0  0  0  0  0  0  0  0  0  0  0  0
  141.2329   81.3324  220.7967 H   0  0  0  0  0  0  0  0  0  0  0  0
  141.3639   80.7854  218.4406 H   0  0  0  0  0  0  0  0  0  0  0  0
  142.1553   79.2199  216.6639 H   0  0  0  0  0  0  0  0  0  0  0  0
  142.9174   76.9577  215.9395 H   0  0  0  0  0  0  0  0  0  0  0  0
  143.2108   75.1380  217.6207 H   0  0  0  0  0  0  0  0  0  0  0  0
  142.7316   75.5696  220.0288 H   0  0  0  0  0  0  0  0  0  0  0  0
  142.6346   77.4226  221.7776 H   0  0  0  0  0  0  0  0  0  0  0  0
  141.0527   75.6783  222.9236 H   0  0  0  0  0  0  0  0  0  0  0  0
  138.4870   75.2480  223.0520 H   0  0  0  0  0  0  0  0  0  0  0  0
  136.2503   76.3468  221.9176 H   0  0  0  0  0  0  0  0  0  0  0  0
  135.4881   78.1614  220.3416 H   0  0  0  0  0  0  0  0  0  0  0  0
  137.1703   79.6565  219.2371 H   0  0  0  0  0  0  0  0  0  0  0  0
  139.6284   79.3529  219.6965 H   0  0  0  0  0  0  0  0  0  0  0  0
  1  2  2  0
  2  3  2  0
  2  4  1  0
  4  5  1  0
  5  6  2  0
  6  7  1  0
  7  8  2  0
  8  9  1  0
  9 10  2  0
  2 11  1  0
 11 12  1  0
 12 13  2  0
 13 14  1  0
 14 15  2  0
 15 16  1  0
 16 17  2  0
 17 18  1  0
 18 19  2  0
 19 20  1  0
 20 21  1  0
 21 22  2  0
 22 23  1  0
 23 24  1  0
 24 25  2  0
 25 26  1  0
 26 27  2  0
 27 28  1  0
 28 29  2  0
 10  5  1  0
 20 11  1  0
 29 21  1  0
 19 14  1  0
 29 24  1  0
  4 30  1  0
  4 31  1  0
  6 32  1  0
  7 33  1  0
  8 34  1  0
  9 35  1  0
 10 36  1  0
 12 37  1  0
 13 38  1  0
 15 39  1  0
 16 40  1  0
 17 41  1  0
 18 42  1  0
 20 43  1  1
 22 44  1  0
 23 45  1  0
 25 46  1  0
 26 47  1  0
 27 48  1  0
 28 49  1  0
M  END
>  <UniqueID>  (77) 
12

>  <SMILES>  (77) 
O=S(=O)(Cc1ccccc1)N1C=Cc2ccccc2[C@@H]1c1c[nH]c2ccccc12

>  <Energy>  (77) 
80.99038826142095

>  <Genealogy>  (77) 
O=S(=O)(Cc1ccccc1)N1C=Cc2ccccc2[C@@H]1c1c[nH]c2ccccc12 (chirality)
O=S(=O)(Cc1ccccc1)N1C=Cc2ccccc2[C@@H]1c1c[nH]c2ccccc12 (3D coordinates assigned)
O=S(=O)(Cc1ccccc1)N1C=Cc2ccccc2[C@@H]1c1c[nH]c2ccccc12 (nonaromatic ring conformer: 80.99038826142095 kcal/mol)

>  <smiles>  (77) 
O=S(=O)(Cc1ccccc1)N1C=Cc2ccccc2C1c1c[nH]c2ccccc12

>  <score_type>  (77) 
oracle

>  <origin>  (77) 
autodockgpu

>  <m_score__min__energy>  (77) 
-8.5399999999999991

>  <m_primary>  (77) 
energy

>  <meeko>  (77) 
{"free_energy": -6.75, "intermolecular_energy": -7.95, "internal_energy": -2.97, "cluster_size": 6, "cluster_id": 4, "rank_in_cluster": 1}

>  <energy>  (77) 
-6.74

>  <cluster_rmsd>  (77) 
0.06

>  <rmsd>  (77) 
270.79

>  <cluster>  (77) 
4

$$$$
YCOHEPDJLXZVBZ-XMMPIXPANA-N
     RDKit          3D

 49 53  0  0  0  0  0  0  0  0999 V2000
  140.6300   74.9900  221.9660 O   0  0  0  0  0  0  0  0  0  0  0  0
  140.3750   75.8890  220.7890 S   0  0  0  0  0  0  0  0  0  0  0  0
  138.9920   75.6180  220.2670 O   0  0  0  0  0  0  0  0  0  0  0  0
  141.5770   75.5560  219.5110 C   0  0  0  0  0  0  0  0  0  0  0  0
  142.6970   74.7200  220.0650 C   0  0  0  0  0  0  0  0  0  0  0  0
  142.4730   73.3780  220.4190 C   0  0  0  0  0  0  0  0  0  0  0  0
  143.5350   72.5740  220.8380 C   0  0  0  0  0  0  0  0  0  0  0  0
  144.8270   73.1010  220.9090 C   0  0  0  0  0  0  0  0  0  0  0  0
  145.0590   74.4330  220.5590 C   0  0  0  0  0  0  0  0  0  0  0  0
  144.0000   75.2410  220.1340 C   0  0  0  0  0  0  0  0  0  0  0  0
  140.5000   77.5520  221.2750 N   0  0  0  0  0  0  0  0  0  0  0  0
  139.3260   78.2350  221.7450 C   0  0  0  0  0  0  0  0  0  0  0  0
  139.4310   79.3240  222.5040 C   0  0  0  0  0  0  0  0  0  0  0  0
  140.7560   79.8370  222.8910 C   0  0  0  0  0  0  0  0  0  0  0  0
  140.8630   80.8650  223.8390 C   0  0  0  0  0  0  0  0  0  0  0  0
  142.1210   81.3280  224.2340 C   0  0  0  0  0  0  0  0  0  0  0  0
  143.2770   80.7690  223.6840 C   0  0  0  0  0  0  0  0  0  0  0  0
  143.1800   79.7490  222.7360 C   0  0  0  0  0  0  0  0  0  0  0  0
  141.9210   79.2720  222.3350 C   0  0  0  0  0  0  0  0  0  0  0  0
  141.8200   78.2030  221.2700 C   0  0  2  0  0  0  0  0  0  0  0  0
  142.0840   78.8040  219.9150 C   0  0  0  0  0  0  0  0  0  0  0  0
  142.6210   78.1540  218.8060 C   0  0  0  0  0  0  0  0  0  0  0  0
  142.6630   78.9900  217.7430 N   0  0  0  0  0  0  0  0  0  0  0  0
  142.1490   80.1570  218.1670 C   0  0  0  0  0  0  0  0  0  0  0  0
  141.9720   81.3200  217.4190 C   0  0  0  0  0  0  0  0  0  0  0  0
  141.3960   82.4320  218.0600 C   0  0  0  0  0  0  0  0  0  0  0  0
  141.0120   82.3560  219.4170 C   0  0  0  0  0  0  0  0  0  0  0  0
  141.2000   81.1680  220.1460 C   0  0  0  0  0  0  0  0  0  0  0  0
  141.7790   80.0820  219.4860 C   0  0  0  0  0  0  0  0  0  0  0  0
  141.0913   75.0140  218.6862 H   0  0  0  0  0  0  0  0  0  0  0  0
  141.9853   76.5084  219.1418 H   0  0  0  0  0  0  0  0  0  0  0  0
  141.4571   72.9597  220.3657 H   0  0  0  0  0  0  0  0  0  0  0  0
  143.3541   71.5243  221.1125 H   0  0  0  0  0  0  0  0  0  0  0  0
  145.6620   72.4664  221.2408 H   0  0  0  0  0  0  0  0  0  0  0  0
  146.0764   74.8471  220.6178 H   0  0  0  0  0  0  0  0  0  0  0  0
  144.1876   76.2878  219.8528 H   0  0  0  0  0  0  0  0  0  0  0  0
  138.3301   77.8540  221.4748 H   0  0  0  0  0  0  0  0  0  0  0  0
  138.5228   79.8434  222.8439 H   0  0  0  0  0  0  0  0  0  0  0  0
  139.9544   81.3080  224.2728 H   0  0  0  0  0  0  0  0  0  0  0  0
  142.2010   82.1335  224.9788 H   0  0  0  0  0  0  0  0  0  0  0  0
  144.2660   81.1334  223.9987 H   0  0  0  0  0  0  0  0  0  0  0  0
  144.0933   79.3169  222.3011 H   0  0  0  0  0  0  0  0  0  0  0  0
  142.5766   77.4361  221.4923 H   0  0  0  0  0  0  0  0  0  0  0  0
  142.9627   77.1085  218.7960 H   0  0  0  0  0  0  0  0  0  0  0  0
  143.0140   78.7650  216.7850 H   0  0  0  0  0  0  0  0  0  0  0  0
  142.2729   81.3667  216.3620 H   0  0  0  0  0  0  0  0  0  0  0  0
  141.2437   83.3668  217.5006 H   0  0  0  0  0  0  0  0  0  0  0  0
  140.5627   83.2322  219.9073 H   0  0  0  0  0  0  0  0  0  0  0  0
  140.9006   81.0966  221.2021 H   0  0  0  0  0  0  0  0  0  0  0  0
  1  2  2  0
  2  3  2  0
  2  4  1  0
  4  5  1  0
  5  6  2  0
  6  7  1  0
  7  8  2  0
  8  9  1  0
  9 10  2  0
  2 11  1  0
 11 12  1  0
 12 13  2  0
 13 14  1  0
 14 15  2  0
 15 16  1  0
 16 17  2  0
 17 18  1  0
 18 19  2  0
 19 20  1  0
 20 21  1  0
 21 22  2  0
 22 23  1  0
 23 24  1  0
 24 25  2  0
 25 26  1  0
 26 27  2  0
 27 28  1  0
 28 29  2  0
 10  5  1  0
 20 11  1  0
 29 21  1  0
 19 14  1  0
 29 24  1  0
  4 30  1  0
  4 31  1  0
  6 32  1  0
  7 33  1  0
  8 34  1  0
  9 35  1  0
 10 36  1  0
 12 37  1  0
 13 38  1  0
 15 39  1  0
 16 40  1  0
 17 41  1  0
 18 42  1  0
 20 43  1  1
 22 44  1  0
 23 45  1  0
 25 46  1  0
 26 47  1  0
 27 48  1  0
 28 49  1  0
M  END
>  <UniqueID>  (78) 
12

>  <SMILES>  (78) 
O=S(=O)(Cc1ccccc1)N1C=Cc2ccccc2[C@@H]1c1c[nH]c2ccccc12

>  <Energy>  (78) 
80.99038826142095

>  <Genealogy>  (78) 
O=S(=O)(Cc1ccccc1)N1C=Cc2ccccc2[C@@H]1c1c[nH]c2ccccc12 (chirality)
O=S(=O)(Cc1ccccc1)N1C=Cc2ccccc2[C@@H]1c1c[nH]c2ccccc12 (3D coordinates assigned)
O=S(=O)(Cc1ccccc1)N1C=Cc2ccccc2[C@@H]1c1c[nH]c2ccccc12 (nonaromatic ring conformer: 80.99038826142095 kcal/mol)

>  <smiles>  (78) 
O=S(=O)(Cc1ccccc1)N1C=Cc2ccccc2C1c1c[nH]c2ccccc12

>  <score_type>  (78) 
oracle

>  <origin>  (78) 
autodockgpu

>  <m_score__min__energy>  (78) 
-8.5399999999999991

>  <m_primary>  (78) 
energy

>  <meeko>  (78) 
{"free_energy": -8.54, "intermolecular_energy": -9.74, "internal_energy": -1.57, "cluster_size": 11, "cluster_id": 1, "rank_in_cluster": 1}

>  <energy>  (78) 
-6.71

>  <cluster_rmsd>  (78) 
0.31

>  <rmsd>  (78) 
270.74

>  <cluster>  (78) 
4

$$$$
YCOHEPDJLXZVBZ-XMMPIXPANA-N
     RDKit          3D

 49 53  0  0  0  0  0  0  0  0999 V2000
  142.1290   78.7500  224.0000 O   0  0  0  0  0  0  0  0  0  0  0  0
  142.2870   79.9200  223.0700 S   0  0  0  0  0  0  0  0  0  0  0  0
  143.7270   80.3520  223.0800 O   0  0  0  0  0  0  0  0  0  0  0  0
  141.2510   81.2660  223.6200 C   0  0  0  0  0  0  0  0  0  0  0  0
  139.8100   80.9650  223.3080 C   0  0  0  0  0  0  0  0  0  0  0  0
  139.0950   81.7730  222.4080 C   0  0  0  0  0  0  0  0  0  0  0  0
  137.7900   81.4350  222.0420 C   0  0  0  0  0  0  0  0  0  0  0  0
  137.1880   80.2910  222.5720 C   0  0  0  0  0  0  0  0  0  0  0  0
  137.8920   79.4820  223.4680 C   0  0  0  0  0  0  0  0  0  0  0  0
  139.2000   79.8130  223.8330 C   0  0  0  0  0  0  0  0  0  0  0  0
  141.8270   79.4620  221.4590 N   0  0  0  0  0  0  0  0  0  0  0  0
  141.4450   80.4840  220.5220 C   0  0  0  0  0  0  0  0  0  0  0  0
  141.4950   80.2570  219.2110 C   0  0  0  0  0  0  0  0  0  0  0  0
  141.9620   78.9580  218.6980 C   0  0  0  0  0  0  0  0  0  0  0  0
  142.1930   78.7860  217.3250 C   0  0  0  0  0  0  0  0  0  0  0  0
  142.6710   77.5650  216.8410 C   0  0  0  0  0  0  0  0  0  0  0  0
  142.9190   76.5110  217.7220 C   0  0  0  0  0  0  0  0  0  0  0  0
  142.6870   76.6710  219.0900 C   0  0  0  0  0  0  0  0  0  0  0  0
  142.2110   77.8950  219.5890 C   0  0  0  0  0  0  0  0  0  0  0  0
  141.9130   78.0480  221.0640 C   0  0  2  0  0  0  0  0  0  0  0  0
  140.6230   77.3470  221.3990 C   0  0  0  0  0  0  0  0  0  0  0  0
  140.4430   76.3420  222.3470 C   0  0  0  0  0  0  0  0  0  0  0  0
  139.1400   75.9880  222.4180 N   0  0  0  0  0  0  0  0  0  0  0  0
  138.4940   76.7660  221.5330 C   0  0  0  0  0  0  0  0  0  0  0  0
  137.1270   76.7750  221.2600 C   0  0  0  0  0  0  0  0  0  0  0  0
  136.6540   77.6870  220.3000 C   0  0  0  0  0  0  0  0  0  0  0  0
  137.5480   78.5620  219.6440 C   0  0  0  0  0  0  0  0  0  0  0  0
  138.9220   78.5320  219.9400 C   0  0  0  0  0  0  0  0  0  0  0  0
  139.3640   77.6130  220.8950 C   0  0  0  0  0  0  0  0  0  0  0  0
  141.3693   81.3969  224.7058 H   0  0  0  0  0  0  0  0  0  0  0  0
  141.5489   82.1879  223.0992 H   0  0  0  0  0  0  0  0  0  0  0  0
  139.5648   82.6755  221.9899 H   0  0  0  0  0  0  0  0  0  0  0  0
  137.2356   82.0703  221.3356 H   0  0  0  0  0  0  0  0  0  0  0  0
  136.1597   80.0271  222.2840 H   0  0  0  0  0  0  0  0  0  0  0  0
  137.4159   78.5831  223.8868 H   0  0  0  0  0  0  0  0  0  0  0  0
  139.7534   79.1700  224.5331 H   0  0  0  0  0  0  0  0  0  0  0  0
  141.1080   81.4634  220.8923 H   0  0  0  0  0  0  0  0  0  0  0  0
  141.1858   81.0439  218.5073 H   0  0  0  0  0  0  0  0  0  0  0  0
  141.9975   79.6140  216.6277 H   0  0  0  0  0  0  0  0  0  0  0  0
  142.8521   77.4344  215.7639 H   0  0  0  0  0  0  0  0  0  0  0  0
  143.2980   75.5524  217.3380 H   0  0  0  0  0  0  0  0  0  0  0  0
  142.8777   75.8353  219.7794 H   0  0  0  0  0  0  0  0  0  0  0  0
  142.7429   77.5917  221.6235 H   0  0  0  0  0  0  0  0  0  0  0  0
  141.2475   75.8990  222.9524 H   0  0  0  0  0  0  0  0  0  0  0  0
  138.7230   75.2640  223.0450 H   0  0  0  0  0  0  0  0  0  0  0  0
  136.4401   76.0904  221.7791 H   0  0  0  0  0  0  0  0  0  0  0  0
  135.5814   77.7193  220.0584 H   0  0  0  0  0  0  0  0  0  0  0  0
  137.1662   79.2723  218.8958 H   0  0  0  0  0  0  0  0  0  0  0  0
  139.6263   79.2102  219.4360 H   0  0  0  0  0  0  0  0  0  0  0  0
  1  2  2  0
  2  3  2  0
  2  4  1  0
  4  5  1  0
  5  6  2  0
  6  7  1  0
  7  8  2  0
  8  9  1  0
  9 10  2  0
  2 11  1  0
 11 12  1  0
 12 13  2  0
 13 14  1  0
 14 15  2  0
 15 16  1  0
 16 17  2  0
 17 18  1  0
 18 19  2  0
 19 20  1  0
 20 21  1  0
 21 22  2  0
 22 23  1  0
 23 24  1  0
 24 25  2  0
 25 26  1  0
 26 27  2  0
 27 28  1  0
 28 29  2  0
 10  5  1  0
 20 11  1  0
 29 21  1  0
 19 14  1  0
 29 24  1  0
  4 30  1  0
  4 31  1  0
  6 32  1  0
  7 33  1  0
  8 34  1  0
  9 35  1  0
 10 36  1  0
 12 37  1  0
 13 38  1  0
 15 39  1  0
 16 40  1  0
 17 41  1  0
 18 42  1  0
 20 43  1  1
 22 44  1  0
 23 45  1  0
 25 46  1  0
 26 47  1  0
 27 48  1  0
 28 49  1  0
M  END
>  <UniqueID>  (79) 
12

>  <SMILES>  (79) 
O=S(=O)(Cc1ccccc1)N1C=Cc2ccccc2[C@@H]1c1c[nH]c2ccccc12

>  <Energy>  (79) 
80.99038826142095

>  <Genealogy>  (79) 
O=S(=O)(Cc1ccccc1)N1C=Cc2ccccc2[C@@H]1c1c[nH]c2ccccc12 (chirality)
O=S(=O)(Cc1ccccc1)N1C=Cc2ccccc2[C@@H]1c1c[nH]c2ccccc12 (3D coordinates assigned)
O=S(=O)(Cc1ccccc1)N1C=Cc2ccccc2[C@@H]1c1c[nH]c2ccccc12 (nonaromatic ring conformer: 80.99038826142095 kcal/mol)

>  <smiles>  (79) 
O=S(=O)(Cc1ccccc1)N1C=Cc2ccccc2C1c1c[nH]c2ccccc12

>  <score_type>  (79) 
oracle

>  <origin>  (79) 
autodockgpu

>  <m_score__min__energy>  (79) 
-8.5399999999999991

>  <m_primary>  (79) 
energy

>  <meeko>  (79) 
{"free_energy": -6.71, "intermolecular_energy": -7.9, "internal_energy": -3.02, "cluster_size": 6, "cluster_id": 4, "rank_in_cluster": 5}

>  <energy>  (79) 
-6.71

>  <cluster_rmsd>  (79) 
0.28

>  <rmsd>  (79) 
270.74

>  <cluster>  (79) 
4

$$$$
YCOHEPDJLXZVBZ-XMMPIXPANA-N
     RDKit          3D

 49 53  0  0  0  0  0  0  0  0999 V2000
  140.5570   74.9400  221.9700 O   0  0  0  0  0  0  0  0  0  0  0  0
  140.2890   75.8300  220.7890 S   0  0  0  0  0  0  0  0  0  0  0  0
  138.8830   75.5890  220.3140 O   0  0  0  0  0  0  0  0  0  0  0  0
  141.4410   75.4500  219.4800 C   0  0  0  0  0  0  0  0  0  0  0  0
  142.6020   74.6660  220.0280 C   0  0  0  0  0  0  0  0  0  0  0  0
  142.4400   73.3170  220.3880 C   0  0  0  0  0  0  0  0  0  0  0  0
  143.5390   72.5620  220.8030 C   0  0  0  0  0  0  0  0  0  0  0  0
  144.8080   73.1460  220.8630 C   0  0  0  0  0  0  0  0  0  0  0  0
  144.9770   74.4860  220.5060 C   0  0  0  0  0  0  0  0  0  0  0  0
  143.8800   75.2450  220.0860 C   0  0  0  0  0  0  0  0  0  0  0  0
  140.4720   77.4950  221.2490 N   0  0  0  0  0  0  0  0  0  0  0  0
  139.3150   78.2380  221.6690 C   0  0  0  0  0  0  0  0  0  0  0  0
  139.4440   79.3360  222.4110 C   0  0  0  0  0  0  0  0  0  0  0  0
  140.7780   79.7980  222.8300 C   0  0  0  0  0  0  0  0  0  0  0  0
  140.9000   80.8390  223.7620 C   0  0  0  0  0  0  0  0  0  0  0  0
  142.1650   81.2540  224.1890 C   0  0  0  0  0  0  0  0  0  0  0  0
  143.3120   80.6350  223.6860 C   0  0  0  0  0  0  0  0  0  0  0  0
  143.1990   79.6020  222.7530 C   0  0  0  0  0  0  0  0  0  0  0  0
  141.9330   79.1730  222.3210 C   0  0  0  0  0  0  0  0  0  0  0  0
  141.8180   78.0880  221.2730 C   0  0  2  0  0  0  0  0  0  0  0  0
  142.1500   78.6500  219.9170 C   0  0  0  0  0  0  0  0  0  0  0  0
  142.7760   77.9800  218.8680 C   0  0  0  0  0  0  0  0  0  0  0  0
  142.8620   78.7800  217.7810 N   0  0  0  0  0  0  0  0  0  0  0  0
  142.2870   79.9440  218.1280 C   0  0  0  0  0  0  0  0  0  0  0  0
  142.1240   81.0740  217.3300 C   0  0  0  0  0  0  0  0  0  0  0  0
  141.4750   82.1890  217.8920 C   0  0  0  0  0  0  0  0  0  0  0  0
  141.0070   82.1470  219.2240 C   0  0  0  0  0  0  0  0  0  0  0  0
  141.1830   80.9920  220.0060 C   0  0  0  0  0  0  0  0  0  0  0  0
  141.8350   79.9020  219.4230 C   0  0  0  0  0  0  0  0  0  0  0  0
  140.9316   74.8548  218.7078 H   0  0  0  0  0  0  0  0  0  0  0  0
  141.8131   76.3883  219.0428 H   0  0  0  0  0  0  0  0  0  0  0  0
  141.4432   72.8540  220.3426 H   0  0  0  0  0  0  0  0  0  0  0  0
  143.4062   71.5066  221.0830 H   0  0  0  0  0  0  0  0  0  0  0  0
  145.6728   72.5507  221.1912 H   0  0  0  0  0  0  0  0  0  0  0  0
  145.9753   74.9452  220.5554 H   0  0  0  0  0  0  0  0  0  0  0  0
  144.0186   76.2982  219.8004 H   0  0  0  0  0  0  0  0  0  0  0  0
  138.3121   77.8955  221.3741 H   0  0  0  0  0  0  0  0  0  0  0  0
  138.5496   79.9009  222.7125 H   0  0  0  0  0  0  0  0  0  0  0  0
  139.9987   81.3299  224.1578 H   0  0  0  0  0  0  0  0  0  0  0  0
  142.2573   82.0690  224.9220 H   0  0  0  0  0  0  0  0  0  0  0  0
  144.3059   80.9619  224.0255 H   0  0  0  0  0  0  0  0  0  0  0  0
  144.1052   79.1222  222.3547 H   0  0  0  0  0  0  0  0  0  0  0  0
  142.5328   77.2933  221.5327 H   0  0  0  0  0  0  0  0  0  0  0  0
  143.1479   76.9459  218.9170 H   0  0  0  0  0  0  0  0  0  0  0  0
  143.2800   78.5340  216.8560 H   0  0  0  0  0  0  0  0  0  0  0  0
  142.4910   81.0941  216.2932 H   0  0  0  0  0  0  0  0  0  0  0  0
  141.3313   83.0986  217.2904 H   0  0  0  0  0  0  0  0  0  0  0  0
  140.5010   83.0246  219.6527 H   0  0  0  0  0  0  0  0  0  0  0  0
  140.8193   80.9477  221.0432 H   0  0  0  0  0  0  0  0  0  0  0  0
  1  2  2  0
  2  3  2  0
  2  4  1  0
  4  5  1  0
  5  6  2  0
  6  7  1  0
  7  8  2  0
  8  9  1  0
  9 10  2  0
  2 11  1  0
 11 12  1  0
 12 13  2  0
 13 14  1  0
 14 15  2  0
 15 16  1  0
 16 17  2  0
 17 18  1  0
 18 19  2  0
 19 20  1  0
 20 21  1  0
 21 22  2  0
 22 23  1  0
 23 24  1  0
 24 25  2  0
 25 26  1  0
 26 27  2  0
 27 28  1  0
 28 29  2  0
 10  5  1  0
 20 11  1  0
 29 21  1  0
 19 14  1  0
 29 24  1  0
  4 30  1  0
  4 31  1  0
  6 32  1  0
  7 33  1  0
  8 34  1  0
  9 35  1  0
 10 36  1  0
 12 37  1  0
 13 38  1  0
 15 39  1  0
 16 40  1  0
 17 41  1  0
 18 42  1  0
 20 43  1  1
 22 44  1  0
 23 45  1  0
 25 46  1  0
 26 47  1  0
 27 48  1  0
 28 49  1  0
M  END
>  <UniqueID>  (80) 
12

>  <SMILES>  (80) 
O=S(=O)(Cc1ccccc1)N1C=Cc2ccccc2[C@@H]1c1c[nH]c2ccccc12

>  <Energy>  (80) 
80.99038826142095

>  <Genealogy>  (80) 
O=S(=O)(Cc1ccccc1)N1C=Cc2ccccc2[C@@H]1c1c[nH]c2ccccc12 (chirality)
O=S(=O)(Cc1ccccc1)N1C=Cc2ccccc2[C@@H]1c1c[nH]c2ccccc12 (3D coordinates assigned)
O=S(=O)(Cc1ccccc1)N1C=Cc2ccccc2[C@@H]1c1c[nH]c2ccccc12 (nonaromatic ring conformer: 80.99038826142095 kcal/mol)

>  <smiles>  (80) 
O=S(=O)(Cc1ccccc1)N1C=Cc2ccccc2C1c1c[nH]c2ccccc12

>  <score_type>  (80) 
oracle

>  <origin>  (80) 
autodockgpu

>  <m_score__min__energy>  (80) 
-8.5399999999999991

>  <m_primary>  (80) 
energy

>  <meeko>  (80) 
{"free_energy": -8.45, "intermolecular_energy": -9.64, "internal_energy": -1.69, "cluster_size": 11, "cluster_id": 1, "rank_in_cluster": 9}

>  <energy>  (80) 
-6.71

>  <cluster_rmsd>  (80) 
0.28

>  <rmsd>  (80) 
270.75

>  <cluster>  (80) 
4

$$$$
