XUFANRSCLZKORJ-OUKQBFOZNA-N
     RDKit          3D

 49 52  0  0  0  0  0  0  0  0999 V2000
  135.7750   69.0687  222.0955 H   0  0  0  0  0  0  0  0  0  0  0  0
  136.2200   69.0150  223.1000 C   0  0  0  0  0  0  0  0  0  0  0  0
  137.4820   68.5740  223.2100 C   0  0  0  0  0  0  0  0  0  0  0  0
  137.8490   67.8057  222.5136 H   0  0  0  0  0  0  0  0  0  0  0  0
  138.3910   69.1050  224.2550 C   0  0  0  0  0  0  0  0  0  0  0  0
  138.6750   68.2880  225.3050 N   0  0  0  0  0  0  0  0  0  0  0  0
  139.5200   68.6530  226.2940 C   0  0  0  0  0  0  0  0  0  0  0  0
  139.7790   67.7740  227.3530 C   0  0  0  0  0  0  0  0  0  0  0  0
  139.2847   66.7919  227.3862 H   0  0  0  0  0  0  0  0  0  0  0  0
  140.6660   68.1450  228.3680 C   0  0  0  0  0  0  0  0  0  0  0  0
  140.8682   67.4553  229.2007 H   0  0  0  0  0  0  0  0  0  0  0  0
  141.2960   69.3920  228.3250 C   0  0  0  0  0  0  0  0  0  0  0  0
  141.9930   69.6820  229.1251 H   0  0  0  0  0  0  0  0  0  0  0  0
  141.0430   70.2720  227.2680 C   0  0  0  0  0  0  0  0  0  0  0  0
  141.5429   71.2514  227.2371 H   0  0  0  0  0  0  0  0  0  0  0  0
  140.1490   69.9060  226.2430 C   0  0  0  0  0  0  0  0  0  0  0  0
  139.8570   70.7510  225.1600 C   0  0  0  0  0  0  0  0  0  0  0  0
  140.4330   71.8730  225.0860 O   0  0  0  0  0  0  0  0  0  0  0  0
  138.9570   70.3660  224.1890 N   0  0  0  0  0  0  0  0  0  0  0  0
  138.6070   71.3270  223.1100 C   0  0  0  0  0  0  0  0  0  0  0  0
  137.9480   70.8167  222.3921 H   0  0  0  0  0  0  0  0  0  0  0  0
  138.1197   72.1864  223.5937 H   0  0  0  0  0  0  0  0  0  0  0  0
  139.8350   71.8810  222.3380 C   0  0  0  0  0  0  0  0  0  0  0  0
  140.6390   71.8908  223.0886 H   0  0  0  0  0  0  0  0  0  0  0  0
  139.6380   73.3230  221.8390 C   0  0  0  0  0  0  0  0  0  0  0  0
  138.8821   73.3222  221.0399 H   0  0  0  0  0  0  0  0  0  0  0  0
  139.3139   73.9367  222.6925 H   0  0  0  0  0  0  0  0  0  0  0  0
  140.9480   73.9280  221.2860 C   0  0  0  0  0  0  0  0  0  0  0  0
  140.7024   74.5423  220.4072 H   0  0  0  0  0  0  0  0  0  0  0  0
  141.3972   74.5171  222.0991 H   0  0  0  0  0  0  0  0  0  0  0  0
  141.9910   72.8740  220.8660 C   0  0  0  0  0  0  0  0  0  0  0  0
  142.6772   73.3231  220.1329 H   0  0  0  0  0  0  0  0  0  0  0  0
  142.5347   72.5502  221.7658 H   0  0  0  0  0  0  0  0  0  0  0  0
  141.3280   71.6440  220.2380 C   0  0  0  0  0  0  0  0  0  0  0  0
  140.8138   71.9545  219.3165 H   0  0  0  0  0  0  0  0  0  0  0  0
  142.1208   70.9085  220.0365 H   0  0  0  0  0  0  0  0  0  0  0  0
  140.2980   70.9710  221.1750 C   0  0  0  0  0  0  0  0  0  0  0  0
  139.4164   70.6911  220.5796 H   0  0  0  0  0  0  0  0  0  0  0  0
  140.7921   70.0971  221.6247 H   0  0  0  0  0  0  0  0  0  0  0  0
  135.3910   69.4340  224.2550 C   0  0  0  0  0  0  0  0  0  0  0  0
  134.6800   68.5180  225.0560 C   0  0  0  0  0  0  0  0  0  0  0  0
  134.7177   67.4432  224.8248 H   0  0  0  0  0  0  0  0  0  0  0  0
  133.9480   68.9580  226.1130 N   0  0  0  0  0  0  0  0  0  0  0  0
  133.8760   70.2750  226.4370 C   0  0  0  0  0  0  0  0  0  0  0  0
  133.2675   70.5978  227.2946 H   0  0  0  0  0  0  0  0  0  0  0  0
  134.5740   71.2190  225.6820 C   0  0  0  0  0  0  0  0  0  0  0  0
  134.5223   72.2866  225.9421 H   0  0  0  0  0  0  0  0  0  0  0  0
  135.3380   70.7950  224.5940 C   0  0  0  0  0  0  0  0  0  0  0  0
  135.9007   71.5301  223.9998 H   0  0  0  0  0  0  0  0  0  0  0  0
  1  2  1  0
  2  3  2  0
  3  4  1  0
  3  5  1  0
  5  6  2  0
  6  7  1  0
  7  8  2  0
  8  9  1  0
  8 10  1  0
 10 11  1  0
 10 12  2  0
 12 13  1  0
 12 14  1  0
 14 15  1  0
 14 16  2  0
 16 17  1  0
 17 18  2  0
 17 19  1  0
 19 20  1  0
 20 21  1  0
 20 22  1  0
 20 23  1  0
 23 24  1  0
 23 25  1  0
 25 26  1  0
 25 27  1  0
 25 28  1  0
 28 29  1  0
 28 30  1  0
 28 31  1  0
 31 32  1  0
 31 33  1  0
 31 34  1  0
 34 35  1  0
 34 36  1  0
 34 37  1  0
 37 38  1  0
 37 39  1  0
  2 40  1  0
 40 41  2  0
 41 42  1  0
 41 43  1  0
 43 44  2  0
 44 45  1  0
 44 46  1  0
 46 47  1  0
 46 48  2  0
 48 49  1  0
 19  5  1  0
 37 23  1  0
 48 40  1  0
 16  7  1  0
M  END
>  <UniqueID>  (1) 
23

>  <SMILES>  (1) 
O=c1c2ccccc2nc(/C=C/c2cccnc2)n1CC1CCCCC1

>  <Energy>  (1) 
68.21045762368858

>  <Genealogy>  (1) 
O=c1c2ccccc2nc(/C=C/c2cccnc2)n1CC1CCCCC1 (cis-trans isomerization)
O=c1c2ccccc2nc(/C=C/c2cccnc2)n1CC1CCCCC1 (3D coordinates assigned)
O=c1c2ccccc2nc(/C=C/c2cccnc2)n1CC1CCCCC1 (nonaromatic ring conformer: 68.21045762368858 kcal/mol)

>  <smiles>  (1) 
O=c1c2ccccc2nc(/C=C/c2cccnc2)n1CC1CCCCC1

>  <score_type>  (1) 
oracle

>  <origin>  (1) 
autodockgpu

>  <m_score__min__energy>  (1) 
-7.2300000000000004

>  <m_primary>  (1) 
energy

>  <meeko>  (1) 
{"free_energy": -7.09, "intermolecular_energy": -8.59, "internal_energy": -1.38, "cluster_size": 8, "cluster_id": 2, "rank_in_cluster": 3}

>  <energy>  (1) 
-7.23

>  <cluster_rmsd>  (1) 
0.0

>  <rmsd>  (1) 
268.78

>  <cluster>  (1) 
1

$$$$
XUFANRSCLZKORJ-OUKQBFOZNA-N
     RDKit          3D

 49 52  0  0  0  0  0  0  0  0999 V2000
  136.0101   71.7596  222.3223 H   0  0  0  0  0  0  0  0  0  0  0  0
  136.4890   70.9880  222.9430 C   0  0  0  0  0  0  0  0  0  0  0  0
  137.8250   70.8770  222.8950 C   0  0  0  0  0  0  0  0  0  0  0  0
  138.3684   71.2627  222.0198 H   0  0  0  0  0  0  0  0  0  0  0  0
  138.5820   70.2430  224.0020 C   0  0  0  0  0  0  0  0  0  0  0  0
  139.1440   71.0710  224.9240 N   0  0  0  0  0  0  0  0  0  0  0  0
  139.8220   70.6030  225.9940 C   0  0  0  0  0  0  0  0  0  0  0  0
  140.3810   71.4970  226.9150 C   0  0  0  0  0  0  0  0  0  0  0  0
  140.2788   72.5813  226.7604 H   0  0  0  0  0  0  0  0  0  0  0  0
  141.0690   71.0120  228.0310 C   0  0  0  0  0  0  0  0  0  0  0  0
  141.5093   71.7151  228.7533 H   0  0  0  0  0  0  0  0  0  0  0  0
  141.1980   69.6350  228.2300 C   0  0  0  0  0  0  0  0  0  0  0  0
  141.7403   69.2560  229.1088 H   0  0  0  0  0  0  0  0  0  0  0  0
  140.6390   68.7370  227.3140 C   0  0  0  0  0  0  0  0  0  0  0  0
  140.7409   67.6536  227.4751 H   0  0  0  0  0  0  0  0  0  0  0  0
  139.9460   69.2180  226.1860 C   0  0  0  0  0  0  0  0  0  0  0  0
  139.3680   68.3620  225.2350 C   0  0  0  0  0  0  0  0  0  0  0  0
  139.4490   67.1120  225.4060 O   0  0  0  0  0  0  0  0  0  0  0  0
  138.7190   68.8720  224.1310 N   0  0  0  0  0  0  0  0  0  0  0  0
  138.2010   67.9320  223.1020 C   0  0  0  0  0  0  0  0  0  0  0  0
  137.9659   66.9762  223.5930 H   0  0  0  0  0  0  0  0  0  0  0  0
  137.3150   68.4055  222.6538 H   0  0  0  0  0  0  0  0  0  0  0  0
  139.1980   67.6550  221.9450 C   0  0  0  0  0  0  0  0  0  0  0  0
  140.1749   67.9423  222.3610 H   0  0  0  0  0  0  0  0  0  0  0  0
  138.9410   68.5240  220.7010 C   0  0  0  0  0  0  0  0  0  0  0  0
  137.9973   68.2053  220.2342 H   0  0  0  0  0  0  0  0  0  0  0  0
  138.8905   69.5740  221.0251 H   0  0  0  0  0  0  0  0  0  0  0  0
  140.0780   68.4000  219.6620 C   0  0  0  0  0  0  0  0  0  0  0  0
  139.6320   68.4088  218.6565 H   0  0  0  0  0  0  0  0  0  0  0  0
  140.7581   69.2487  219.8272 H   0  0  0  0  0  0  0  0  0  0  0  0
  140.9170   67.1150  219.8110 C   0  0  0  0  0  0  0  0  0  0  0  0
  141.3994   66.8899  218.8484 H   0  0  0  0  0  0  0  0  0  0  0  0
  141.6683   67.2835  220.5966 H   0  0  0  0  0  0  0  0  0  0  0  0
  140.0510   65.9220  220.2240 C   0  0  0  0  0  0  0  0  0  0  0  0
  139.3201   65.7261  219.4257 H   0  0  0  0  0  0  0  0  0  0  0  0
  140.7233   65.0661  220.3833 H   0  0  0  0  0  0  0  0  0  0  0  0
  139.2850   66.1620  221.5460 C   0  0  0  0  0  0  0  0  0  0  0  0
  138.2629   65.7715  221.4324 H   0  0  0  0  0  0  0  0  0  0  0  0
  139.8419   65.6456  222.3418 H   0  0  0  0  0  0  0  0  0  0  0  0
  135.6210   70.1300  223.7850 C   0  0  0  0  0  0  0  0  0  0  0  0
  135.1860   68.8540  223.3770 C   0  0  0  0  0  0  0  0  0  0  0  0
  135.4802   68.4635  222.3916 H   0  0  0  0  0  0  0  0  0  0  0  0
  134.4030   68.1030  224.1980 N   0  0  0  0  0  0  0  0  0  0  0  0
  134.0200   68.5450  225.4240 C   0  0  0  0  0  0  0  0  0  0  0  0
  133.3801   67.9158  226.0600 H   0  0  0  0  0  0  0  0  0  0  0  0
  134.4380   69.7970  225.8770 C   0  0  0  0  0  0  0  0  0  0  0  0
  134.1337   70.1584  226.8704 H   0  0  0  0  0  0  0  0  0  0  0  0
  135.2460   70.5860  225.0570 C   0  0  0  0  0  0  0  0  0  0  0  0
  135.5900   71.5694  225.4099 H   0  0  0  0  0  0  0  0  0  0  0  0
  1  2  1  0
  2  3  2  0
  3  4  1  0
  3  5  1  0
  5  6  2  0
  6  7  1  0
  7  8  2  0
  8  9  1  0
  8 10  1  0
 10 11  1  0
 10 12  2  0
 12 13  1  0
 12 14  1  0
 14 15  1  0
 14 16  2  0
 16 17  1  0
 17 18  2  0
 17 19  1  0
 19 20  1  0
 20 21  1  0
 20 22  1  0
 20 23  1  0
 23 24  1  0
 23 25  1  0
 25 26  1  0
 25 27  1  0
 25 28  1  0
 28 29  1  0
 28 30  1  0
 28 31  1  0
 31 32  1  0
 31 33  1  0
 31 34  1  0
 34 35  1  0
 34 36  1  0
 34 37  1  0
 37 38  1  0
 37 39  1  0
  2 40  1  0
 40 41  2  0
 41 42  1  0
 41 43  1  0
 43 44  2  0
 44 45  1  0
 44 46  1  0
 46 47  1  0
 46 48  2  0
 48 49  1  0
 19  5  1  0
 37 23  1  0
 48 40  1  0
 16  7  1  0
M  END
>  <UniqueID>  (2) 
23

>  <SMILES>  (2) 
O=c1c2ccccc2nc(/C=C/c2cccnc2)n1CC1CCCCC1

>  <Energy>  (2) 
68.21045762368858

>  <Genealogy>  (2) 
O=c1c2ccccc2nc(/C=C/c2cccnc2)n1CC1CCCCC1 (cis-trans isomerization)
O=c1c2ccccc2nc(/C=C/c2cccnc2)n1CC1CCCCC1 (3D coordinates assigned)
O=c1c2ccccc2nc(/C=C/c2cccnc2)n1CC1CCCCC1 (nonaromatic ring conformer: 68.21045762368858 kcal/mol)

>  <smiles>  (2) 
O=c1c2ccccc2nc(/C=C/c2cccnc2)n1CC1CCCCC1

>  <score_type>  (2) 
oracle

>  <origin>  (2) 
autodockgpu

>  <m_score__min__energy>  (2) 
-7.2300000000000004

>  <m_primary>  (2) 
energy

>  <meeko>  (2) 
{"free_energy": -6.82, "intermolecular_energy": -8.31, "internal_energy": -1.58, "cluster_size": 1, "cluster_id": 7, "rank_in_cluster": 1}

>  <energy>  (2) 
-7.22

>  <cluster_rmsd>  (2) 
0.07

>  <rmsd>  (2) 
268.74

>  <cluster>  (2) 
1

$$$$
XUFANRSCLZKORJ-OUKQBFOZNA-N
     RDKit          3D

 49 52  0  0  0  0  0  0  0  0999 V2000
  135.4727   68.7296  222.2495 H   0  0  0  0  0  0  0  0  0  0  0  0
  136.0470   68.8890  223.1740 C   0  0  0  0  0  0  0  0  0  0  0  0
  137.3610   68.6190  223.1570 C   0  0  0  0  0  0  0  0  0  0  0  0
  137.7758   68.0012  222.3469 H   0  0  0  0  0  0  0  0  0  0  0  0
  138.2640   69.1400  224.2130 C   0  0  0  0  0  0  0  0  0  0  0  0
  138.5260   68.3200  225.2660 N   0  0  0  0  0  0  0  0  0  0  0  0
  139.3640   68.6740  226.2650 C   0  0  0  0  0  0  0  0  0  0  0  0
  139.6010   67.7930  227.3260 C   0  0  0  0  0  0  0  0  0  0  0  0
  139.0952   66.8166  227.3532 H   0  0  0  0  0  0  0  0  0  0  0  0
  140.4800   68.1530  228.3510 C   0  0  0  0  0  0  0  0  0  0  0  0
  140.6651   67.4605  229.1854 H   0  0  0  0  0  0  0  0  0  0  0  0
  141.1240   69.3930  228.3160 C   0  0  0  0  0  0  0  0  0  0  0  0
  141.8155   69.6746  229.1238 H   0  0  0  0  0  0  0  0  0  0  0  0
  140.8920   70.2770  227.2570 C   0  0  0  0  0  0  0  0  0  0  0  0
  141.4022   71.2512  227.2327 H   0  0  0  0  0  0  0  0  0  0  0  0
  140.0060   69.9210  226.2220 C   0  0  0  0  0  0  0  0  0  0  0  0
  139.7360   70.7700  225.1370 C   0  0  0  0  0  0  0  0  0  0  0  0
  140.3250   71.8860  225.0700 O   0  0  0  0  0  0  0  0  0  0  0  0
  138.8430   70.3950  224.1550 N   0  0  0  0  0  0  0  0  0  0  0  0
  138.5160   71.3610  223.0730 C   0  0  0  0  0  0  0  0  0  0  0  0
  137.8860   70.8493  222.3306 H   0  0  0  0  0  0  0  0  0  0  0  0
  138.0037   72.2108  223.5477 H   0  0  0  0  0  0  0  0  0  0  0  0
  139.7610   71.9350  222.3450 C   0  0  0  0  0  0  0  0  0  0  0  0
  140.5337   71.9697  223.1271 H   0  0  0  0  0  0  0  0  0  0  0  0
  139.5520   73.3680  221.8230 C   0  0  0  0  0  0  0  0  0  0  0  0
  138.8294   73.3421  220.9941 H   0  0  0  0  0  0  0  0  0  0  0  0
  139.1800   73.9821  222.6564 H   0  0  0  0  0  0  0  0  0  0  0  0
  140.8690   73.9980  221.3170 C   0  0  0  0  0  0  0  0  0  0  0  0
  140.6452   74.5990  220.4233 H   0  0  0  0  0  0  0  0  0  0  0  0
  141.2720   74.6044  222.1415 H   0  0  0  0  0  0  0  0  0  0  0  0
  141.9510   72.9640  220.9490 C   0  0  0  0  0  0  0  0  0  0  0  0
  142.6555   73.4217  220.2390 H   0  0  0  0  0  0  0  0  0  0  0  0
  142.4657   72.6609  221.8727 H   0  0  0  0  0  0  0  0  0  0  0  0
  141.3410   71.7140  220.3080 C   0  0  0  0  0  0  0  0  0  0  0  0
  140.8566   72.0047  219.3642 H   0  0  0  0  0  0  0  0  0  0  0  0
  142.1576   70.9952  220.1454 H   0  0  0  0  0  0  0  0  0  0  0  0
  140.2900   71.0250  221.2100 C   0  0  0  0  0  0  0  0  0  0  0  0
  139.4393   70.7196  220.5831 H   0  0  0  0  0  0  0  0  0  0  0  0
  140.7851   70.1663  221.6870 H   0  0  0  0  0  0  0  0  0  0  0  0
  135.3250   69.3900  224.3680 C   0  0  0  0  0  0  0  0  0  0  0  0
  134.6940   68.5330  225.2920 C   0  0  0  0  0  0  0  0  0  0  0  0
  134.7151   67.4447  225.1337 H   0  0  0  0  0  0  0  0  0  0  0  0
  134.0590   69.0480  226.3790 N   0  0  0  0  0  0  0  0  0  0  0  0
  134.0110   70.3840  226.6150 C   0  0  0  0  0  0  0  0  0  0  0  0
  133.4819   70.7675  227.4998 H   0  0  0  0  0  0  0  0  0  0  0  0
  134.6330   71.2710  225.7350 C   0  0  0  0  0  0  0  0  0  0  0  0
  134.6003   72.3543  225.9230 H   0  0  0  0  0  0  0  0  0  0  0  0
  135.2970   70.7700  224.6140 C   0  0  0  0  0  0  0  0  0  0  0  0
  135.8001   71.4604  223.9211 H   0  0  0  0  0  0  0  0  0  0  0  0
  1  2  1  0
  2  3  2  0
  3  4  1  0
  3  5  1  0
  5  6  2  0
  6  7  1  0
  7  8  2  0
  8  9  1  0
  8 10  1  0
 10 11  1  0
 10 12  2  0
 12 13  1  0
 12 14  1  0
 14 15  1  0
 14 16  2  0
 16 17  1  0
 17 18  2  0
 17 19  1  0
 19 20  1  0
 20 21  1  0
 20 22  1  0
 20 23  1  0
 23 24  1  0
 23 25  1  0
 25 26  1  0
 25 27  1  0
 25 28  1  0
 28 29  1  0
 28 30  1  0
 28 31  1  0
 31 32  1  0
 31 33  1  0
 31 34  1  0
 34 35  1  0
 34 36  1  0
 34 37  1  0
 37 38  1  0
 37 39  1  0
  2 40  1  0
 40 41  2  0
 41 42  1  0
 41 43  1  0
 43 44  2  0
 44 45  1  0
 44 46  1  0
 46 47  1  0
 46 48  2  0
 48 49  1  0
 19  5  1  0
 37 23  1  0
 48 40  1  0
 16  7  1  0
M  END
>  <UniqueID>  (3) 
23

>  <SMILES>  (3) 
O=c1c2ccccc2nc(/C=C/c2cccnc2)n1CC1CCCCC1

>  <Energy>  (3) 
68.21045762368858

>  <Genealogy>  (3) 
O=c1c2ccccc2nc(/C=C/c2cccnc2)n1CC1CCCCC1 (cis-trans isomerization)
O=c1c2ccccc2nc(/C=C/c2cccnc2)n1CC1CCCCC1 (3D coordinates assigned)
O=c1c2ccccc2nc(/C=C/c2cccnc2)n1CC1CCCCC1 (nonaromatic ring conformer: 68.21045762368858 kcal/mol)

>  <smiles>  (3) 
O=c1c2ccccc2nc(/C=C/c2cccnc2)n1CC1CCCCC1

>  <score_type>  (3) 
oracle

>  <origin>  (3) 
autodockgpu

>  <m_score__min__energy>  (3) 
-7.2300000000000004

>  <m_primary>  (3) 
energy

>  <meeko>  (3) 
{"free_energy": -7.02, "intermolecular_energy": -8.52, "internal_energy": -1.43, "cluster_size": 8, "cluster_id": 2, "rank_in_cluster": 5}

>  <energy>  (3) 
-7.13

>  <cluster_rmsd>  (3) 
0.38

>  <rmsd>  (3) 
268.82

>  <cluster>  (3) 
1

$$$$
XUFANRSCLZKORJ-OUKQBFOZNA-N
     RDKit          3D

 49 52  0  0  0  0  0  0  0  0999 V2000
  135.4873   68.7096  222.2543 H   0  0  0  0  0  0  0  0  0  0  0  0
  136.0820   68.9420  223.1500 C   0  0  0  0  0  0  0  0  0  0  0  0
  137.4050   68.7230  223.1050 C   0  0  0  0  0  0  0  0  0  0  0  0
  137.8327   68.1658  222.2585 H   0  0  0  0  0  0  0  0  0  0  0  0
  138.3000   69.2200  224.1780 C   0  0  0  0  0  0  0  0  0  0  0  0
  138.5330   68.3870  225.2290 N   0  0  0  0  0  0  0  0  0  0  0  0
  139.3610   68.7200  226.2420 C   0  0  0  0  0  0  0  0  0  0  0  0
  139.5680   67.8260  227.3000 C   0  0  0  0  0  0  0  0  0  0  0  0
  139.0460   66.8578  227.3120 H   0  0  0  0  0  0  0  0  0  0  0  0
  140.4380   68.1640  228.3410 C   0  0  0  0  0  0  0  0  0  0  0  0
  140.5992   67.4620  229.1724 H   0  0  0  0  0  0  0  0  0  0  0  0
  141.1030   69.3930  228.3260 C   0  0  0  0  0  0  0  0  0  0  0  0
  141.7871   69.6565  229.1461 H   0  0  0  0  0  0  0  0  0  0  0  0
  140.9010   70.2900  227.2700 C   0  0  0  0  0  0  0  0  0  0  0  0
  141.4268   71.2561  227.2613 H   0  0  0  0  0  0  0  0  0  0  0  0
  140.0250   69.9560  226.2190 C   0  0  0  0  0  0  0  0  0  0  0  0
  139.7850   70.8180  225.1370 C   0  0  0  0  0  0  0  0  0  0  0  0
  140.3930   71.9250  225.0880 O   0  0  0  0  0  0  0  0  0  0  0  0
  138.9010   70.4660  224.1390 N   0  0  0  0  0  0  0  0  0  0  0  0
  138.6060   71.4450  223.0600 C   0  0  0  0  0  0  0  0  0  0  0  0
  137.9397   70.9641  222.3287 H   0  0  0  0  0  0  0  0  0  0  0  0
  138.1443   72.3202  223.5405 H   0  0  0  0  0  0  0  0  0  0  0  0
  139.8670   71.9550  222.3110 C   0  0  0  0  0  0  0  0  0  0  0  0
  140.6502   71.9633  223.0834 H   0  0  0  0  0  0  0  0  0  0  0  0
  139.7170   73.3900  221.7770 C   0  0  0  0  0  0  0  0  0  0  0  0
  138.9831   73.3889  220.9576 H   0  0  0  0  0  0  0  0  0  0  0  0
  139.3845   74.0286  222.6086 H   0  0  0  0  0  0  0  0  0  0  0  0
  141.0540   73.9540  221.2480 C   0  0  0  0  0  0  0  0  0  0  0  0
  140.8461   74.5538  220.3496 H   0  0  0  0  0  0  0  0  0  0  0  0
  141.4936   74.5511  222.0606 H   0  0  0  0  0  0  0  0  0  0  0  0
  142.0850   72.8690  220.8800 C   0  0  0  0  0  0  0  0  0  0  0  0
  142.8014   73.2871  220.1575 H   0  0  0  0  0  0  0  0  0  0  0  0
  142.5968   72.5529  221.8010 H   0  0  0  0  0  0  0  0  0  0  0  0
  141.4110   71.6410  220.2590 C   0  0  0  0  0  0  0  0  0  0  0  0
  140.9287   71.9438  219.3179 H   0  0  0  0  0  0  0  0  0  0  0  0
  142.1920   70.8842  220.0941 H   0  0  0  0  0  0  0  0  0  0  0  0
  140.3410   71.0100  221.1810 C   0  0  0  0  0  0  0  0  0  0  0  0
  139.4700   70.7362  220.5675 H   0  0  0  0  0  0  0  0  0  0  0  0
  140.8029   70.1353  221.6623 H   0  0  0  0  0  0  0  0  0  0  0  0
  135.3760   69.4790  224.3370 C   0  0  0  0  0  0  0  0  0  0  0  0
  134.8240   68.6510  225.3350 C   0  0  0  0  0  0  0  0  0  0  0  0
  134.8978   67.5574  225.2425 H   0  0  0  0  0  0  0  0  0  0  0  0
  134.2010   69.1990  226.4110 N   0  0  0  0  0  0  0  0  0  0  0  0
  134.0890   70.5430  226.5670 C   0  0  0  0  0  0  0  0  0  0  0  0
  133.5703   70.9531  227.4461 H   0  0  0  0  0  0  0  0  0  0  0  0
  134.6320   71.4050  225.6120 C   0  0  0  0  0  0  0  0  0  0  0  0
  134.5482   72.4949  225.7351 H   0  0  0  0  0  0  0  0  0  0  0  0
  135.2820   70.8690  224.5000 C   0  0  0  0  0  0  0  0  0  0  0  0
  135.7228   71.5395  223.7476 H   0  0  0  0  0  0  0  0  0  0  0  0
  1  2  1  0
  2  3  2  0
  3  4  1  0
  3  5  1  0
  5  6  2  0
  6  7  1  0
  7  8  2  0
  8  9  1  0
  8 10  1  0
 10 11  1  0
 10 12  2  0
 12 13  1  0
 12 14  1  0
 14 15  1  0
 14 16  2  0
 16 17  1  0
 17 18  2  0
 17 19  1  0
 19 20  1  0
 20 21  1  0
 20 22  1  0
 20 23  1  0
 23 24  1  0
 23 25  1  0
 25 26  1  0
 25 27  1  0
 25 28  1  0
 28 29  1  0
 28 30  1  0
 28 31  1  0
 31 32  1  0
 31 33  1  0
 31 34  1  0
 34 35  1  0
 34 36  1  0
 34 37  1  0
 37 38  1  0
 37 39  1  0
  2 40  1  0
 40 41  2  0
 41 42  1  0
 41 43  1  0
 43 44  2  0
 44 45  1  0
 44 46  1  0
 46 47  1  0
 46 48  2  0
 48 49  1  0
 19  5  1  0
 37 23  1  0
 48 40  1  0
 16  7  1  0
M  END
>  <UniqueID>  (4) 
23

>  <SMILES>  (4) 
O=c1c2ccccc2nc(/C=C/c2cccnc2)n1CC1CCCCC1

>  <Energy>  (4) 
68.21045762368858

>  <Genealogy>  (4) 
O=c1c2ccccc2nc(/C=C/c2cccnc2)n1CC1CCCCC1 (cis-trans isomerization)
O=c1c2ccccc2nc(/C=C/c2cccnc2)n1CC1CCCCC1 (3D coordinates assigned)
O=c1c2ccccc2nc(/C=C/c2cccnc2)n1CC1CCCCC1 (nonaromatic ring conformer: 68.21045762368858 kcal/mol)

>  <smiles>  (4) 
O=c1c2ccccc2nc(/C=C/c2cccnc2)n1CC1CCCCC1

>  <score_type>  (4) 
oracle

>  <origin>  (4) 
autodockgpu

>  <m_score__min__energy>  (4) 
-7.2300000000000004

>  <m_primary>  (4) 
energy

>  <meeko>  (4) 
{"free_energy": -6.94, "intermolecular_energy": -8.43, "internal_energy": -1.46, "cluster_size": 8, "cluster_id": 2, "rank_in_cluster": 6}

>  <energy>  (4) 
-6.99

>  <cluster_rmsd>  (4) 
0.8

>  <rmsd>  (4) 
268.72

>  <cluster>  (4) 
1

$$$$
XUFANRSCLZKORJ-OUKQBFOZNA-N
     RDKit          3D

 49 52  0  0  0  0  0  0  0  0999 V2000
  140.7265   70.7734  220.7878 H   0  0  0  0  0  0  0  0  0  0  0  0
  140.1420   71.4400  221.4390 C   0  0  0  0  0  0  0  0  0  0  0  0
  139.1790   70.8970  222.1980 C   0  0  0  0  0  0  0  0  0  0  0  0
  138.1470   70.8619  221.8189 H   0  0  0  0  0  0  0  0  0  0  0  0
  139.4820   70.3430  223.5400 C   0  0  0  0  0  0  0  0  0  0  0  0
  139.9960   71.1990  224.4640 N   0  0  0  0  0  0  0  0  0  0  0  0
  140.2740   70.8130  225.7280 C   0  0  0  0  0  0  0  0  0  0  0  0
  140.8010   71.7340  226.6410 C   0  0  0  0  0  0  0  0  0  0  0  0
  141.0003   72.7687  226.3253 H   0  0  0  0  0  0  0  0  0  0  0  0
  141.0740   71.3390  227.9540 C   0  0  0  0  0  0  0  0  0  0  0  0
  141.4905   72.0624  228.6704 H   0  0  0  0  0  0  0  0  0  0  0  0
  140.8180   70.0250  228.3570 C   0  0  0  0  0  0  0  0  0  0  0  0
  141.0323   69.7168  229.3910 H   0  0  0  0  0  0  0  0  0  0  0  0
  140.2900   69.1010  227.4490 C   0  0  0  0  0  0  0  0  0  0  0  0
  140.0901   68.0680  227.7700 H   0  0  0  0  0  0  0  0  0  0  0  0
  140.0140   69.4920  226.1240 C   0  0  0  0  0  0  0  0  0  0  0  0
  139.4850   68.6060  225.1720 C   0  0  0  0  0  0  0  0  0  0  0  0
  139.2220   67.4190  225.5180 O   0  0  0  0  0  0  0  0  0  0  0  0
  139.2520   69.0200  223.8770 N   0  0  0  0  0  0  0  0  0  0  0  0
  138.7780   68.0270  222.8780 C   0  0  0  0  0  0  0  0  0  0  0  0
  139.4149   68.1036  221.9844 H   0  0  0  0  0  0  0  0  0  0  0  0
  138.8390   67.0385  223.3567 H   0  0  0  0  0  0  0  0  0  0  0  0
  137.3010   68.2270  222.4440 C   0  0  0  0  0  0  0  0  0  0  0  0
  137.3664   68.9013  221.5773 H   0  0  0  0  0  0  0  0  0  0  0  0
  136.4420   68.9190  223.5180 C   0  0  0  0  0  0  0  0  0  0  0  0
  136.3120   68.2310  224.3664 H   0  0  0  0  0  0  0  0  0  0  0  0
  136.9606   69.8385  223.8271 H   0  0  0  0  0  0  0  0  0  0  0  0
  135.0490   69.3150  222.9790 C   0  0  0  0  0  0  0  0  0  0  0  0
  134.3081   69.1459  223.7743 H   0  0  0  0  0  0  0  0  0  0  0  0
  135.1093   70.3715  222.6788 H   0  0  0  0  0  0  0  0  0  0  0  0
  134.6160   68.5170  221.7330 C   0  0  0  0  0  0  0  0  0  0  0  0
  133.5187   68.5382  221.6591 H   0  0  0  0  0  0  0  0  0  0  0  0
  135.0783   68.9812  220.8494 H   0  0  0  0  0  0  0  0  0  0  0  0
  135.0810   67.0600  221.8070 C   0  0  0  0  0  0  0  0  0  0  0  0
  134.5939   66.5794  222.6682 H   0  0  0  0  0  0  0  0  0  0  0  0
  134.8047   66.5766  220.8583 H   0  0  0  0  0  0  0  0  0  0  0  0
  136.6140   66.9250  221.9680 C   0  0  0  0  0  0  0  0  0  0  0  0
  136.8185   66.1340  222.7045 H   0  0  0  0  0  0  0  0  0  0  0  0
  137.0241   66.6867  220.9755 H   0  0  0  0  0  0  0  0  0  0  0  0
  140.4640   72.8860  221.4270 C   0  0  0  0  0  0  0  0  0  0  0  0
  139.6160   73.8600  221.9920 C   0  0  0  0  0  0  0  0  0  0  0  0
  138.6653   73.5573  222.4552 H   0  0  0  0  0  0  0  0  0  0  0  0
  139.9700   75.1730  221.9660 N   0  0  0  0  0  0  0  0  0  0  0  0
  141.1360   75.5900  221.4090 C   0  0  0  0  0  0  0  0  0  0  0  0
  141.3884   76.6606  221.3994 H   0  0  0  0  0  0  0  0  0  0  0  0
  142.0140   74.6620  220.8490 C   0  0  0  0  0  0  0  0  0  0  0  0
  142.9608   74.9946  220.3985 H   0  0  0  0  0  0  0  0  0  0  0  0
  141.6790   73.3070  220.8660 C   0  0  0  0  0  0  0  0  0  0  0  0
  142.3704   72.5664  220.4378 H   0  0  0  0  0  0  0  0  0  0  0  0
  1  2  1  0
  2  3  2  0
  3  4  1  0
  3  5  1  0
  5  6  2  0
  6  7  1  0
  7  8  2  0
  8  9  1  0
  8 10  1  0
 10 11  1  0
 10 12  2  0
 12 13  1  0
 12 14  1  0
 14 15  1  0
 14 16  2  0
 16 17  1  0
 17 18  2  0
 17 19  1  0
 19 20  1  0
 20 21  1  0
 20 22  1  0
 20 23  1  0
 23 24  1  0
 23 25  1  0
 25 26  1  0
 25 27  1  0
 25 28  1  0
 28 29  1  0
 28 30  1  0
 28 31  1  0
 31 32  1  0
 31 33  1  0
 31 34  1  0
 34 35  1  0
 34 36  1  0
 34 37  1  0
 37 38  1  0
 37 39  1  0
  2 40  1  0
 40 41  2  0
 41 42  1  0
 41 43  1  0
 43 44  2  0
 44 45  1  0
 44 46  1  0
 46 47  1  0
 46 48  2  0
 48 49  1  0
 19  5  1  0
 37 23  1  0
 48 40  1  0
 16  7  1  0
M  END
>  <UniqueID>  (5) 
23

>  <SMILES>  (5) 
O=c1c2ccccc2nc(/C=C/c2cccnc2)n1CC1CCCCC1

>  <Energy>  (5) 
68.21045762368858

>  <Genealogy>  (5) 
O=c1c2ccccc2nc(/C=C/c2cccnc2)n1CC1CCCCC1 (cis-trans isomerization)
O=c1c2ccccc2nc(/C=C/c2cccnc2)n1CC1CCCCC1 (3D coordinates assigned)
O=c1c2ccccc2nc(/C=C/c2cccnc2)n1CC1CCCCC1 (nonaromatic ring conformer: 68.21045762368858 kcal/mol)

>  <smiles>  (5) 
O=c1c2ccccc2nc(/C=C/c2cccnc2)n1CC1CCCCC1

>  <score_type>  (5) 
oracle

>  <origin>  (5) 
autodockgpu

>  <m_score__min__energy>  (5) 
-7.2300000000000004

>  <m_primary>  (5) 
energy

>  <meeko>  (5) 
{"free_energy": -7.23, "intermolecular_energy": -8.72, "internal_energy": -1.22, "cluster_size": 5, "cluster_id": 1, "rank_in_cluster": 1}

>  <energy>  (5) 
-6.94

>  <cluster_rmsd>  (5) 
0.75

>  <rmsd>  (5) 
268.74

>  <cluster>  (5) 
1

$$$$
XUFANRSCLZKORJ-OUKQBFOZNA-N
     RDKit          3D

 49 52  0  0  0  0  0  0  0  0999 V2000
  141.7169   80.4292  219.0762 H   0  0  0  0  0  0  0  0  0  0  0  0
  141.3340   79.9080  219.9660 C   0  0  0  0  0  0  0  0  0  0  0  0
  140.4980   78.8760  219.7830 C   0  0  0  0  0  0  0  0  0  0  0  0
  139.5034   79.0561  219.3491 H   0  0  0  0  0  0  0  0  0  0  0  0
  140.8920   77.4950  220.1560 C   0  0  0  0  0  0  0  0  0  0  0  0
  142.1390   77.0860  219.7970 N   0  0  0  0  0  0  0  0  0  0  0  0
  142.6170   75.8640  220.1180 C   0  0  0  0  0  0  0  0  0  0  0  0
  143.9080   75.4930  219.7260 C   0  0  0  0  0  0  0  0  0  0  0  0
  144.5288   76.1915  219.1457 H   0  0  0  0  0  0  0  0  0  0  0  0
  144.4090   74.2340  220.0720 C   0  0  0  0  0  0  0  0  0  0  0  0
  145.4233   73.9417  219.7626 H   0  0  0  0  0  0  0  0  0  0  0  0
  143.6210   73.3470  220.8110 C   0  0  0  0  0  0  0  0  0  0  0  0
  144.0164   72.3567  221.0812 H   0  0  0  0  0  0  0  0  0  0  0  0
  142.3310   73.7150  221.2080 C   0  0  0  0  0  0  0  0  0  0  0  0
  141.7156   73.0150  221.7922 H   0  0  0  0  0  0  0  0  0  0  0  0
  141.8190   74.9800  220.8610 C   0  0  0  0  0  0  0  0  0  0  0  0
  140.5310   75.3990  221.2310 C   0  0  0  0  0  0  0  0  0  0  0  0
  139.8090   74.6250  221.9210 O   0  0  0  0  0  0  0  0  0  0  0  0
  140.0570   76.6380  220.8510 N   0  0  0  0  0  0  0  0  0  0  0  0
  138.6560   77.0050  221.1850 C   0  0  0  0  0  0  0  0  0  0  0  0
  138.1613   77.3547  220.2669 H   0  0  0  0  0  0  0  0  0  0  0  0
  138.1813   76.1054  221.6039 H   0  0  0  0  0  0  0  0  0  0  0  0
  138.5370   78.1200  222.2600 C   0  0  0  0  0  0  0  0  0  0  0  0
  137.7568   77.7513  222.9421 H   0  0  0  0  0  0  0  0  0  0  0  0
  138.0630   79.4670  221.6870 C   0  0  0  0  0  0  0  0  0  0  0  0
  138.8594   79.8832  221.0525 H   0  0  0  0  0  0  0  0  0  0  0  0
  137.1462   79.2860  221.1067 H   0  0  0  0  0  0  0  0  0  0  0  0
  137.7300   80.4840  222.8010 C   0  0  0  0  0  0  0  0  0  0  0  0
  138.0628   81.4796  222.4724 H   0  0  0  0  0  0  0  0  0  0  0  0
  136.6432   80.4358  222.9642 H   0  0  0  0  0  0  0  0  0  0  0  0
  138.4010   80.1690  224.1520 C   0  0  0  0  0  0  0  0  0  0  0  0
  138.4692   81.0952  224.7415 H   0  0  0  0  0  0  0  0  0  0  0  0
  137.7905   79.4166  224.6728 H   0  0  0  0  0  0  0  0  0  0  0  0
  139.8090   79.5960  223.9610 C   0  0  0  0  0  0  0  0  0  0  0  0
  140.4350   80.3584  223.4742 H   0  0  0  0  0  0  0  0  0  0  0  0
  140.1925   79.3250  224.9557 H   0  0  0  0  0  0  0  0  0  0  0  0
  139.8260   78.3160  223.0930 C   0  0  0  0  0  0  0  0  0  0  0  0
  140.6811   78.3739  222.4035 H   0  0  0  0  0  0  0  0  0  0  0  0
  139.9019   77.4598  223.7794 H   0  0  0  0  0  0  0  0  0  0  0  0
  141.7720   80.3870  221.2990 C   0  0  0  0  0  0  0  0  0  0  0  0
  141.3800   81.6330  221.8280 C   0  0  0  0  0  0  0  0  0  0  0  0
  140.7332   82.2999  221.2391 H   0  0  0  0  0  0  0  0  0  0  0  0
  141.7990   82.0130  223.0640 N   0  0  0  0  0  0  0  0  0  0  0  0
  142.5960   81.2210  223.8270 C   0  0  0  0  0  0  0  0  0  0  0  0
  142.9236   81.5633  224.8197 H   0  0  0  0  0  0  0  0  0  0  0  0
  142.9990   79.9730  223.3510 C   0  0  0  0  0  0  0  0  0  0  0  0
  143.6420   79.3258  223.9656 H   0  0  0  0  0  0  0  0  0  0  0  0
  142.5790   79.5530  222.0880 C   0  0  0  0  0  0  0  0  0  0  0  0
  142.8814   78.5653  221.7099 H   0  0  0  0  0  0  0  0  0  0  0  0
  1  2  1  0
  2  3  2  0
  3  4  1  0
  3  5  1  0
  5  6  2  0
  6  7  1  0
  7  8  2  0
  8  9  1  0
  8 10  1  0
 10 11  1  0
 10 12  2  0
 12 13  1  0
 12 14  1  0
 14 15  1  0
 14 16  2  0
 16 17  1  0
 17 18  2  0
 17 19  1  0
 19 20  1  0
 20 21  1  0
 20 22  1  0
 20 23  1  0
 23 24  1  0
 23 25  1  0
 25 26  1  0
 25 27  1  0
 25 28  1  0
 28 29  1  0
 28 30  1  0
 28 31  1  0
 31 32  1  0
 31 33  1  0
 31 34  1  0
 34 35  1  0
 34 36  1  0
 34 37  1  0
 37 38  1  0
 37 39  1  0
  2 40  1  0
 40 41  2  0
 41 42  1  0
 41 43  1  0
 43 44  2  0
 44 45  1  0
 44 46  1  0
 46 47  1  0
 46 48  2  0
 48 49  1  0
 19  5  1  0
 37 23  1  0
 48 40  1  0
 16  7  1  0
M  END
>  <UniqueID>  (6) 
23

>  <SMILES>  (6) 
O=c1c2ccccc2nc(/C=C/c2cccnc2)n1CC1CCCCC1

>  <Energy>  (6) 
68.21045762368858

>  <Genealogy>  (6) 
O=c1c2ccccc2nc(/C=C/c2cccnc2)n1CC1CCCCC1 (cis-trans isomerization)
O=c1c2ccccc2nc(/C=C/c2cccnc2)n1CC1CCCCC1 (3D coordinates assigned)
O=c1c2ccccc2nc(/C=C/c2cccnc2)n1CC1CCCCC1 (nonaromatic ring conformer: 68.21045762368858 kcal/mol)

>  <smiles>  (6) 
O=c1c2ccccc2nc(/C=C/c2cccnc2)n1CC1CCCCC1

>  <score_type>  (6) 
oracle

>  <origin>  (6) 
autodockgpu

>  <m_score__min__energy>  (6) 
-7.2300000000000004

>  <m_primary>  (6) 
energy

>  <meeko>  (6) 
{"free_energy": -6.35, "intermolecular_energy": -7.84, "internal_energy": -1.97, "cluster_size": 1, "cluster_id": 8, "rank_in_cluster": 1}

>  <energy>  (6) 
-7.15

>  <cluster_rmsd>  (6) 
0.0

>  <rmsd>  (6) 
269.25

>  <cluster>  (6) 
2

$$$$
XUFANRSCLZKORJ-OUKQBFOZNA-N
     RDKit          3D

 49 52  0  0  0  0  0  0  0  0999 V2000
  143.6778   75.9299  218.0132 H   0  0  0  0  0  0  0  0  0  0  0  0
  143.5940   75.5390  219.0380 C   0  0  0  0  0  0  0  0  0  0  0  0
  142.7260   76.1320  219.8720 C   0  0  0  0  0  0  0  0  0  0  0  0
  142.8375   77.2029  220.0971 H   0  0  0  0  0  0  0  0  0  0  0  0
  141.6190   75.3670  220.4950 C   0  0  0  0  0  0  0  0  0  0  0  0
  141.7690   74.0180  220.5860 N   0  0  0  0  0  0  0  0  0  0  0  0
  140.8420   73.2270  221.1690 C   0  0  0  0  0  0  0  0  0  0  0  0
  141.0460   71.8440  221.2380 C   0  0  0  0  0  0  0  0  0  0  0  0
  141.9550   71.3998  220.8062 H   0  0  0  0  0  0  0  0  0  0  0  0
  140.0940   71.0270  221.8560 C   0  0  0  0  0  0  0  0  0  0  0  0
  140.2537   69.9400  221.9091 H   0  0  0  0  0  0  0  0  0  0  0  0
  138.9400   71.5910  222.4060 C   0  0  0  0  0  0  0  0  0  0  0  0
  138.1926   70.9464  222.8917 H   0  0  0  0  0  0  0  0  0  0  0  0
  138.7320   72.9730  222.3410 C   0  0  0  0  0  0  0  0  0  0  0  0
  137.8224   73.4127  222.7761 H   0  0  0  0  0  0  0  0  0  0  0  0
  139.6860   73.8020  221.7190 C   0  0  0  0  0  0  0  0  0  0  0  0
  139.5280   75.1940  221.6250 C   0  0  0  0  0  0  0  0  0  0  0  0
  138.5050   75.7300  222.1370 O   0  0  0  0  0  0  0  0  0  0  0  0
  140.4730   75.9680  220.9860 N   0  0  0  0  0  0  0  0  0  0  0  0
  140.2220   77.4250  220.8280 C   0  0  0  0  0  0  0  0  0  0  0  0
  140.3338   77.6824  219.7644 H   0  0  0  0  0  0  0  0  0  0  0  0
  139.2063   77.6168  221.2043 H   0  0  0  0  0  0  0  0  0  0  0  0
  141.1850   78.3220  221.6520 C   0  0  0  0  0  0  0  0  0  0  0  0
  142.1288   77.7572  221.6655 H   0  0  0  0  0  0  0  0  0  0  0  0
  140.7310   78.5200  223.1100 C   0  0  0  0  0  0  0  0  0  0  0  0
  139.8225   79.1402  223.1181 H   0  0  0  0  0  0  0  0  0  0  0  0
  140.5387   77.5277  223.5441 H   0  0  0  0  0  0  0  0  0  0  0  0
  141.8160   79.2130  223.9640 C   0  0  0  0  0  0  0  0  0  0  0  0
  141.3200   79.9073  224.6582 H   0  0  0  0  0  0  0  0  0  0  0  0
  142.3685   78.4182  224.4866 H   0  0  0  0  0  0  0  0  0  0  0  0
  142.8470   80.0070  223.1360 C   0  0  0  0  0  0  0  0  0  0  0  0
  143.3035   80.7760  223.7765 H   0  0  0  0  0  0  0  0  0  0  0  0
  143.6069   79.3032  222.7656 H   0  0  0  0  0  0  0  0  0  0  0  0
  142.1950   80.6880  221.9290 C   0  0  0  0  0  0  0  0  0  0  0  0
  141.4602   81.4207  222.2940 H   0  0  0  0  0  0  0  0  0  0  0  0
  142.9966   81.1668  221.3474 H   0  0  0  0  0  0  0  0  0  0  0  0
  141.4740   79.6910  220.9920 C   0  0  0  0  0  0  0  0  0  0  0  0
  140.5176   80.1359  220.6800 H   0  0  0  0  0  0  0  0  0  0  0  0
  142.1449   79.5043  220.1405 H   0  0  0  0  0  0  0  0  0  0  0  0
  144.4460   74.3880  219.4180 C   0  0  0  0  0  0  0  0  0  0  0  0
  144.8270   73.3870  218.5010 C   0  0  0  0  0  0  0  0  0  0  0  0
  144.4783   73.4365  217.4589 H   0  0  0  0  0  0  0  0  0  0  0  0
  145.6240   72.3610  218.9010 N   0  0  0  0  0  0  0  0  0  0  0  0
  146.0790   72.2620  220.1770 C   0  0  0  0  0  0  0  0  0  0  0  0
  146.7156   71.4140  220.4695 H   0  0  0  0  0  0  0  0  0  0  0  0
  145.7390   73.2360  221.1170 C   0  0  0  0  0  0  0  0  0  0  0  0
  146.1076   73.1625  222.1508 H   0  0  0  0  0  0  0  0  0  0  0  0
  144.9270   74.3040  220.7330 C   0  0  0  0  0  0  0  0  0  0  0  0
  144.6633   75.0826  221.4639 H   0  0  0  0  0  0  0  0  0  0  0  0
  1  2  1  0
  2  3  2  0
  3  4  1  0
  3  5  1  0
  5  6  2  0
  6  7  1  0
  7  8  2  0
  8  9  1  0
  8 10  1  0
 10 11  1  0
 10 12  2  0
 12 13  1  0
 12 14  1  0
 14 15  1  0
 14 16  2  0
 16 17  1  0
 17 18  2  0
 17 19  1  0
 19 20  1  0
 20 21  1  0
 20 22  1  0
 20 23  1  0
 23 24  1  0
 23 25  1  0
 25 26  1  0
 25 27  1  0
 25 28  1  0
 28 29  1  0
 28 30  1  0
 28 31  1  0
 31 32  1  0
 31 33  1  0
 31 34  1  0
 34 35  1  0
 34 36  1  0
 34 37  1  0
 37 38  1  0
 37 39  1  0
  2 40  1  0
 40 41  2  0
 41 42  1  0
 41 43  1  0
 43 44  2  0
 44 45  1  0
 44 46  1  0
 46 47  1  0
 46 48  2  0
 48 49  1  0
 19  5  1  0
 37 23  1  0
 48 40  1  0
 16  7  1  0
M  END
>  <UniqueID>  (7) 
23

>  <SMILES>  (7) 
O=c1c2ccccc2nc(/C=C/c2cccnc2)n1CC1CCCCC1

>  <Energy>  (7) 
68.21045762368858

>  <Genealogy>  (7) 
O=c1c2ccccc2nc(/C=C/c2cccnc2)n1CC1CCCCC1 (cis-trans isomerization)
O=c1c2ccccc2nc(/C=C/c2cccnc2)n1CC1CCCCC1 (3D coordinates assigned)
O=c1c2ccccc2nc(/C=C/c2cccnc2)n1CC1CCCCC1 (nonaromatic ring conformer: 68.21045762368858 kcal/mol)

>  <smiles>  (7) 
O=c1c2ccccc2nc(/C=C/c2cccnc2)n1CC1CCCCC1

>  <score_type>  (7) 
oracle

>  <origin>  (7) 
autodockgpu

>  <m_score__min__energy>  (7) 
-7.2300000000000004

>  <m_primary>  (7) 
energy

>  <meeko>  (7) 
{"free_energy": -7.08, "intermolecular_energy": -8.58, "internal_energy": -1.31, "cluster_size": 2, "cluster_id": 3, "rank_in_cluster": 1}

>  <energy>  (7) 
-7.11

>  <cluster_rmsd>  (7) 
0.14

>  <rmsd>  (7) 
269.21

>  <cluster>  (7) 
2

$$$$
XUFANRSCLZKORJ-OUKQBFOZNA-N
     RDKit          3D

 49 52  0  0  0  0  0  0  0  0999 V2000
  135.4981   69.2527  222.2830 H   0  0  0  0  0  0  0  0  0  0  0  0
  135.9880   69.1770  223.2650 C   0  0  0  0  0  0  0  0  0  0  0  0
  137.2510   68.7290  223.3080 C   0  0  0  0  0  0  0  0  0  0  0  0
  137.5876   67.9880  222.5679 H   0  0  0  0  0  0  0  0  0  0  0  0
  138.2020   69.2160  224.3370 C   0  0  0  0  0  0  0  0  0  0  0  0
  138.4740   68.3820  225.3770 N   0  0  0  0  0  0  0  0  0  0  0  0
  139.3520   68.7050  226.3510 C   0  0  0  0  0  0  0  0  0  0  0  0
  139.5980   67.8100  227.3980 C   0  0  0  0  0  0  0  0  0  0  0  0
  139.0663   66.8477  227.4350 H   0  0  0  0  0  0  0  0  0  0  0  0
  140.5190   68.1380  228.3970 C   0  0  0  0  0  0  0  0  0  0  0  0
  140.7101   67.4349  229.2211 H   0  0  0  0  0  0  0  0  0  0  0  0
  141.1970   69.3590  228.3490 C   0  0  0  0  0  0  0  0  0  0  0  0
  141.9210   69.6154  229.1365 H   0  0  0  0  0  0  0  0  0  0  0  0
  140.9580   70.2560  227.3030 C   0  0  0  0  0  0  0  0  0  0  0  0
  141.4959   71.2149  227.2679 H   0  0  0  0  0  0  0  0  0  0  0  0
  140.0290   69.9330  226.2940 C   0  0  0  0  0  0  0  0  0  0  0  0
  139.7490   70.7970  225.2230 C   0  0  0  0  0  0  0  0  0  0  0  0
  140.3680   71.8960  225.1440 O   0  0  0  0  0  0  0  0  0  0  0  0
  138.8150   70.4550  224.2680 N   0  0  0  0  0  0  0  0  0  0  0  0
  138.4820   71.4360  223.2030 C   0  0  0  0  0  0  0  0  0  0  0  0
  137.8228   70.9439  222.4727 H   0  0  0  0  0  0  0  0  0  0  0  0
  137.9999   72.2924  223.6971 H   0  0  0  0  0  0  0  0  0  0  0  0
  139.7210   71.9900  222.4480 C   0  0  0  0  0  0  0  0  0  0  0  0
  140.5029   72.0390  223.2202 H   0  0  0  0  0  0  0  0  0  0  0  0
  139.5110   73.4120  221.8980 C   0  0  0  0  0  0  0  0  0  0  0  0
  138.7784   73.3711  221.0784 H   0  0  0  0  0  0  0  0  0  0  0  0
  139.1513   74.0452  222.7224 H   0  0  0  0  0  0  0  0  0  0  0  0
  140.8240   74.0260  221.3630 C   0  0  0  0  0  0  0  0  0  0  0  0
  140.5920   74.6075  220.4586 H   0  0  0  0  0  0  0  0  0  0  0  0
  141.2384   74.6497  222.1688 H   0  0  0  0  0  0  0  0  0  0  0  0
  141.8990   72.9790  221.0060 C   0  0  0  0  0  0  0  0  0  0  0  0
  142.5977   73.4180  220.2786 H   0  0  0  0  0  0  0  0  0  0  0  0
  142.4231   72.6940  221.9302 H   0  0  0  0  0  0  0  0  0  0  0  0
  141.2760   71.7180  220.3990 C   0  0  0  0  0  0  0  0  0  0  0  0
  140.7813   71.9906  219.4551 H   0  0  0  0  0  0  0  0  0  0  0  0
  142.0875   70.9922  220.2416 H   0  0  0  0  0  0  0  0  0  0  0  0
  140.2340   71.0540  221.3280 C   0  0  0  0  0  0  0  0  0  0  0  0
  139.3751   70.7376  220.7179 H   0  0  0  0  0  0  0  0  0  0  0  0
  140.7323   70.2049  221.8187 H   0  0  0  0  0  0  0  0  0  0  0  0
  135.2140   69.5760  224.4640 C   0  0  0  0  0  0  0  0  0  0  0  0
  134.6560   68.6390  225.3570 C   0  0  0  0  0  0  0  0  0  0  0  0
  134.7773   67.5621  225.1686 H   0  0  0  0  0  0  0  0  0  0  0  0
  133.9680   69.0630  226.4510 N   0  0  0  0  0  0  0  0  0  0  0  0
  133.7970   70.3820  226.7240 C   0  0  0  0  0  0  0  0  0  0  0  0
  133.2286   70.6900  227.6140 H   0  0  0  0  0  0  0  0  0  0  0  0
  134.3420   71.3470  225.8760 C   0  0  0  0  0  0  0  0  0  0  0  0
  134.2086   72.4170  226.0937 H   0  0  0  0  0  0  0  0  0  0  0  0
  135.0580   70.9410  224.7490 C   0  0  0  0  0  0  0  0  0  0  0  0
  135.5019   71.6942  224.0814 H   0  0  0  0  0  0  0  0  0  0  0  0
  1  2  1  0
  2  3  2  0
  3  4  1  0
  3  5  1  0
  5  6  2  0
  6  7  1  0
  7  8  2  0
  8  9  1  0
  8 10  1  0
 10 11  1  0
 10 12  2  0
 12 13  1  0
 12 14  1  0
 14 15  1  0
 14 16  2  0
 16 17  1  0
 17 18  2  0
 17 19  1  0
 19 20  1  0
 20 21  1  0
 20 22  1  0
 20 23  1  0
 23 24  1  0
 23 25  1  0
 25 26  1  0
 25 27  1  0
 25 28  1  0
 28 29  1  0
 28 30  1  0
 28 31  1  0
 31 32  1  0
 31 33  1  0
 31 34  1  0
 34 35  1  0
 34 36  1  0
 34 37  1  0
 37 38  1  0
 37 39  1  0
  2 40  1  0
 40 41  2  0
 41 42  1  0
 41 43  1  0
 43 44  2  0
 44 45  1  0
 44 46  1  0
 46 47  1  0
 46 48  2  0
 48 49  1  0
 19  5  1  0
 37 23  1  0
 48 40  1  0
 16  7  1  0
M  END
>  <UniqueID>  (8) 
23

>  <SMILES>  (8) 
O=c1c2ccccc2nc(/C=C/c2cccnc2)n1CC1CCCCC1

>  <Energy>  (8) 
68.21045762368858

>  <Genealogy>  (8) 
O=c1c2ccccc2nc(/C=C/c2cccnc2)n1CC1CCCCC1 (cis-trans isomerization)
O=c1c2ccccc2nc(/C=C/c2cccnc2)n1CC1CCCCC1 (3D coordinates assigned)
O=c1c2ccccc2nc(/C=C/c2cccnc2)n1CC1CCCCC1 (nonaromatic ring conformer: 68.21045762368858 kcal/mol)

>  <smiles>  (8) 
O=c1c2ccccc2nc(/C=C/c2cccnc2)n1CC1CCCCC1

>  <score_type>  (8) 
oracle

>  <origin>  (8) 
autodockgpu

>  <m_score__min__energy>  (8) 
-7.2300000000000004

>  <m_primary>  (8) 
energy

>  <meeko>  (8) 
{"free_energy": -7.11, "intermolecular_energy": -8.6, "internal_energy": -1.36, "cluster_size": 8, "cluster_id": 2, "rank_in_cluster": 2}

>  <energy>  (8) 
-7.09

>  <cluster_rmsd>  (8) 
0.25

>  <rmsd>  (8) 
269.16

>  <cluster>  (8) 
2

$$$$
XUFANRSCLZKORJ-OUKQBFOZNA-N
     RDKit          3D

 49 52  0  0  0  0  0  0  0  0999 V2000
  143.7880   76.5923  218.6566 H   0  0  0  0  0  0  0  0  0  0  0  0
  143.3160   75.7150  219.1230 C   0  0  0  0  0  0  0  0  0  0  0  0
  141.9980   75.7620  219.3700 C   0  0  0  0  0  0  0  0  0  0  0  0
  141.3099   75.1677  218.7508 H   0  0  0  0  0  0  0  0  0  0  0  0
  141.4540   76.6020  220.4640 C   0  0  0  0  0  0  0  0  0  0  0  0
  142.1940   77.6770  220.8500 N   0  0  0  0  0  0  0  0  0  0  0  0
  141.7780   78.5310  221.8090 C   0  0  0  0  0  0  0  0  0  0  0  0
  142.5770   79.6240  222.1690 C   0  0  0  0  0  0  0  0  0  0  0  0
  143.5498   79.7792  221.6795 H   0  0  0  0  0  0  0  0  0  0  0  0
  142.1380   80.5170  223.1500 C   0  0  0  0  0  0  0  0  0  0  0  0
  142.7666   81.3742  223.4330 H   0  0  0  0  0  0  0  0  0  0  0  0
  140.9020   80.3230  223.7720 C   0  0  0  0  0  0  0  0  0  0  0  0
  140.5594   81.0278  224.5440 H   0  0  0  0  0  0  0  0  0  0  0  0
  140.0990   79.2340  223.4150 C   0  0  0  0  0  0  0  0  0  0  0  0
  139.1260   79.0847  223.9059 H   0  0  0  0  0  0  0  0  0  0  0  0
  140.5350   78.3290  222.4280 C   0  0  0  0  0  0  0  0  0  0  0  0
  139.7700   77.2190  222.0340 C   0  0  0  0  0  0  0  0  0  0  0  0
  138.6370   77.0360  222.5630 O   0  0  0  0  0  0  0  0  0  0  0  0
  140.2430   76.3410  221.0800 N   0  0  0  0  0  0  0  0  0  0  0  0
  139.4430   75.1310  220.7580 C   0  0  0  0  0  0  0  0  0  0  0  0
  138.3807   75.3643  220.9227 H   0  0  0  0  0  0  0  0  0  0  0  0
  139.6616   74.8732  219.7112 H   0  0  0  0  0  0  0  0  0  0  0  0
  139.8090   73.8880  221.6140 C   0  0  0  0  0  0  0  0  0  0  0  0
  140.2081   74.3144  222.5461 H   0  0  0  0  0  0  0  0  0  0  0  0
  140.9120   73.0200  220.9830 C   0  0  0  0  0  0  0  0  0  0  0  0
  140.5090   72.5321  220.0833 H   0  0  0  0  0  0  0  0  0  0  0  0
  141.7597   73.6753  220.7340 H   0  0  0  0  0  0  0  0  0  0  0  0
  141.4190   71.9320  221.9560 C   0  0  0  0  0  0  0  0  0  0  0  0
  141.6125   71.0149  221.3803 H   0  0  0  0  0  0  0  0  0  0  0  0
  142.3267   72.3282  222.4346 H   0  0  0  0  0  0  0  0  0  0  0  0
  140.4260   71.5960  223.0860 C   0  0  0  0  0  0  0  0  0  0  0  0
  140.6426   70.5856  223.4630 H   0  0  0  0  0  0  0  0  0  0  0  0
  140.5439   72.3457  223.8823 H   0  0  0  0  0  0  0  0  0  0  0  0
  138.9760   71.6430  222.5940 C   0  0  0  0  0  0  0  0  0  0  0  0
  138.8416   70.8695  221.8235 H   0  0  0  0  0  0  0  0  0  0  0  0
  138.3263   71.4708  223.4648 H   0  0  0  0  0  0  0  0  0  0  0  0
  138.5890   73.0140  221.9900 C   0  0  0  0  0  0  0  0  0  0  0  0
  137.9928   72.8390  221.0823 H   0  0  0  0  0  0  0  0  0  0  0  0
  138.0245   73.5598  222.7604 H   0  0  0  0  0  0  0  0  0  0  0  0
  144.1720   74.5480  219.4430 C   0  0  0  0  0  0  0  0  0  0  0  0
  144.7850   73.7580  218.4500 C   0  0  0  0  0  0  0  0  0  0  0  0
  144.6248   73.9914  217.3871 H   0  0  0  0  0  0  0  0  0  0  0  0
  145.5740   72.7080  218.8020 N   0  0  0  0  0  0  0  0  0  0  0  0
  145.8030   72.3870  220.1020 C   0  0  0  0  0  0  0  0  0  0  0  0
  146.4409   71.5264  220.3520 H   0  0  0  0  0  0  0  0  0  0  0  0
  145.2290   73.1490  221.1200 C   0  0  0  0  0  0  0  0  0  0  0  0
  145.4137   72.8958  222.1744 H   0  0  0  0  0  0  0  0  0  0  0  0
  144.4180   74.2360  220.7880 C   0  0  0  0  0  0  0  0  0  0  0  0
  143.9706   74.8496  221.5839 H   0  0  0  0  0  0  0  0  0  0  0  0
  1  2  1  0
  2  3  2  0
  3  4  1  0
  3  5  1  0
  5  6  2  0
  6  7  1  0
  7  8  2  0
  8  9  1  0
  8 10  1  0
 10 11  1  0
 10 12  2  0
 12 13  1  0
 12 14  1  0
 14 15  1  0
 14 16  2  0
 16 17  1  0
 17 18  2  0
 17 19  1  0
 19 20  1  0
 20 21  1  0
 20 22  1  0
 20 23  1  0
 23 24  1  0
 23 25  1  0
 25 26  1  0
 25 27  1  0
 25 28  1  0
 28 29  1  0
 28 30  1  0
 28 31  1  0
 31 32  1  0
 31 33  1  0
 31 34  1  0
 34 35  1  0
 34 36  1  0
 34 37  1  0
 37 38  1  0
 37 39  1  0
  2 40  1  0
 40 41  2  0
 41 42  1  0
 41 43  1  0
 43 44  2  0
 44 45  1  0
 44 46  1  0
 46 47  1  0
 46 48  2  0
 48 49  1  0
 19  5  1  0
 37 23  1  0
 48 40  1  0
 16  7  1  0
M  END
>  <UniqueID>  (9) 
23

>  <SMILES>  (9) 
O=c1c2ccccc2nc(/C=C/c2cccnc2)n1CC1CCCCC1

>  <Energy>  (9) 
68.21045762368858

>  <Genealogy>  (9) 
O=c1c2ccccc2nc(/C=C/c2cccnc2)n1CC1CCCCC1 (cis-trans isomerization)
O=c1c2ccccc2nc(/C=C/c2cccnc2)n1CC1CCCCC1 (3D coordinates assigned)
O=c1c2ccccc2nc(/C=C/c2cccnc2)n1CC1CCCCC1 (nonaromatic ring conformer: 68.21045762368858 kcal/mol)

>  <smiles>  (9) 
O=c1c2ccccc2nc(/C=C/c2cccnc2)n1CC1CCCCC1

>  <score_type>  (9) 
oracle

>  <origin>  (9) 
autodockgpu

>  <m_score__min__energy>  (9) 
-7.2300000000000004

>  <m_primary>  (9) 
energy

>  <meeko>  (9) 
{"free_energy": -6.85, "intermolecular_energy": -8.35, "internal_energy": -1.48, "cluster_size": 1, "cluster_id": 6, "rank_in_cluster": 1}

>  <energy>  (9) 
-7.03

>  <cluster_rmsd>  (9) 
0.22

>  <rmsd>  (9) 
269.17

>  <cluster>  (9) 
2

$$$$
XUFANRSCLZKORJ-OUKQBFOZNA-N
     RDKit          3D

 49 52  0  0  0  0  0  0  0  0999 V2000
  135.4884   68.8088  222.2584 H   0  0  0  0  0  0  0  0  0  0  0  0
  136.0480   68.9270  223.1980 C   0  0  0  0  0  0  0  0  0  0  0  0
  137.3540   68.6240  223.1980 C   0  0  0  0  0  0  0  0  0  0  0  0
  137.7598   67.9799  222.4040 H   0  0  0  0  0  0  0  0  0  0  0  0
  138.2610   69.1430  224.2510 C   0  0  0  0  0  0  0  0  0  0  0  0
  138.5280   68.3210  225.3020 N   0  0  0  0  0  0  0  0  0  0  0  0
  139.3680   68.6730  226.2980 C   0  0  0  0  0  0  0  0  0  0  0  0
  139.6100   67.7890  227.3560 C   0  0  0  0  0  0  0  0  0  0  0  0
  139.1055   66.8119  227.3826 H   0  0  0  0  0  0  0  0  0  0  0  0
  140.4930   68.1480  228.3790 C   0  0  0  0  0  0  0  0  0  0  0  0
  140.6816   67.4537  229.2111 H   0  0  0  0  0  0  0  0  0  0  0  0
  141.1360   69.3880  228.3450 C   0  0  0  0  0  0  0  0  0  0  0  0
  141.8299   69.6682  229.1512 H   0  0  0  0  0  0  0  0  0  0  0  0
  140.9000   70.2740  227.2890 C   0  0  0  0  0  0  0  0  0  0  0  0
  141.4099   71.2484  227.2650 H   0  0  0  0  0  0  0  0  0  0  0  0
  140.0100   69.9200  226.2560 C   0  0  0  0  0  0  0  0  0  0  0  0
  139.7350   70.7720  225.1740 C   0  0  0  0  0  0  0  0  0  0  0  0
  140.3240   71.8880  225.1070 O   0  0  0  0  0  0  0  0  0  0  0  0
  138.8390   70.3990  224.1940 N   0  0  0  0  0  0  0  0  0  0  0  0
  138.5080   71.3660  223.1150 C   0  0  0  0  0  0  0  0  0  0  0  0
  137.8721   70.8561  222.3763 H   0  0  0  0  0  0  0  0  0  0  0  0
  138.0009   72.2168  223.5936 H   0  0  0  0  0  0  0  0  0  0  0  0
  139.7500   71.9380  222.3790 C   0  0  0  0  0  0  0  0  0  0  0  0
  140.5325   71.9563  223.1519 H   0  0  0  0  0  0  0  0  0  0  0  0
  139.5490   73.3790  221.8780 C   0  0  0  0  0  0  0  0  0  0  0  0
  138.8155   73.3708  221.0583 H   0  0  0  0  0  0  0  0  0  0  0  0
  139.1942   73.9861  222.7239 H   0  0  0  0  0  0  0  0  0  0  0  0
  140.8650   74.0020  221.3630 C   0  0  0  0  0  0  0  0  0  0  0  0
  140.6359   74.6151  220.4789 H   0  0  0  0  0  0  0  0  0  0  0  0
  141.2838   74.5952  222.1893 H   0  0  0  0  0  0  0  0  0  0  0  0
  141.9330   72.9620  220.9700 C   0  0  0  0  0  0  0  0  0  0  0  0
  142.6338   73.4213  220.2573 H   0  0  0  0  0  0  0  0  0  0  0  0
  142.4560   72.6427  221.8835 H   0  0  0  0  0  0  0  0  0  0  0  0
  141.3020   71.7260  220.3210 C   0  0  0  0  0  0  0  0  0  0  0  0
  140.8089   72.0334  219.3870 H   0  0  0  0  0  0  0  0  0  0  0  0
  142.1091   71.0010  220.1392 H   0  0  0  0  0  0  0  0  0  0  0  0
  140.2560   71.0370  221.2270 C   0  0  0  0  0  0  0  0  0  0  0  0
  139.3947   70.7476  220.6070 H   0  0  0  0  0  0  0  0  0  0  0  0
  140.7484   70.1679  221.6876 H   0  0  0  0  0  0  0  0  0  0  0  0
  135.3150   69.4120  224.3910 C   0  0  0  0  0  0  0  0  0  0  0  0
  134.6920   68.5420  225.3090 C   0  0  0  0  0  0  0  0  0  0  0  0
  134.7287   67.4549  225.1453 H   0  0  0  0  0  0  0  0  0  0  0  0
  134.0460   69.0420  226.3960 N   0  0  0  0  0  0  0  0  0  0  0  0
  133.9800   70.3770  226.6390 C   0  0  0  0  0  0  0  0  0  0  0  0
  133.4432   70.7488  227.5242 H   0  0  0  0  0  0  0  0  0  0  0  0
  134.5930   71.2770  225.7660 C   0  0  0  0  0  0  0  0  0  0  0  0
  134.5447   72.3588  225.9595 H   0  0  0  0  0  0  0  0  0  0  0  0
  135.2680   70.7910  224.6450 C   0  0  0  0  0  0  0  0  0  0  0  0
  135.7650   71.4919  223.9581 H   0  0  0  0  0  0  0  0  0  0  0  0
  1  2  1  0
  2  3  2  0
  3  4  1  0
  3  5  1  0
  5  6  2  0
  6  7  1  0
  7  8  2  0
  8  9  1  0
  8 10  1  0
 10 11  1  0
 10 12  2  0
 12 13  1  0
 12 14  1  0
 14 15  1  0
 14 16  2  0
 16 17  1  0
 17 18  2  0
 17 19  1  0
 19 20  1  0
 20 21  1  0
 20 22  1  0
 20 23  1  0
 23 24  1  0
 23 25  1  0
 25 26  1  0
 25 27  1  0
 25 28  1  0
 28 29  1  0
 28 30  1  0
 28 31  1  0
 31 32  1  0
 31 33  1  0
 31 34  1  0
 34 35  1  0
 34 36  1  0
 34 37  1  0
 37 38  1  0
 37 39  1  0
  2 40  1  0
 40 41  2  0
 41 42  1  0
 41 43  1  0
 43 44  2  0
 44 45  1  0
 44 46  1  0
 46 47  1  0
 46 48  2  0
 48 49  1  0
 19  5  1  0
 37 23  1  0
 48 40  1  0
 16  7  1  0
M  END
>  <UniqueID>  (10) 
23

>  <SMILES>  (10) 
O=c1c2ccccc2nc(/C=C/c2cccnc2)n1CC1CCCCC1

>  <Energy>  (10) 
68.21045762368858

>  <Genealogy>  (10) 
O=c1c2ccccc2nc(/C=C/c2cccnc2)n1CC1CCCCC1 (cis-trans isomerization)
O=c1c2ccccc2nc(/C=C/c2cccnc2)n1CC1CCCCC1 (3D coordinates assigned)
O=c1c2ccccc2nc(/C=C/c2cccnc2)n1CC1CCCCC1 (nonaromatic ring conformer: 68.21045762368858 kcal/mol)

>  <smiles>  (10) 
O=c1c2ccccc2nc(/C=C/c2cccnc2)n1CC1CCCCC1

>  <score_type>  (10) 
oracle

>  <origin>  (10) 
autodockgpu

>  <m_score__min__energy>  (10) 
-7.2300000000000004

>  <m_primary>  (10) 
energy

>  <meeko>  (10) 
{"free_energy": -7.03, "intermolecular_energy": -8.52, "internal_energy": -1.42, "cluster_size": 8, "cluster_id": 2, "rank_in_cluster": 4}

>  <energy>  (10) 
-7.02

>  <cluster_rmsd>  (10) 
0.23

>  <rmsd>  (10) 
269.15

>  <cluster>  (10) 
2

$$$$
XUFANRSCLZKORJ-OUKQBFOZNA-N
     RDKit          3D

 49 52  0  0  0  0  0  0  0  0999 V2000
  135.3266   68.4689  222.3402 H   0  0  0  0  0  0  0  0  0  0  0  0
  135.9480   68.7850  223.1910 C   0  0  0  0  0  0  0  0  0  0  0  0
  137.2770   68.6410  223.0910 C   0  0  0  0  0  0  0  0  0  0  0  0
  137.7010   68.1329  222.2123 H   0  0  0  0  0  0  0  0  0  0  0  0
  138.1860   69.1550  224.1450 C   0  0  0  0  0  0  0  0  0  0  0  0
  138.4640   68.3240  225.1850 N   0  0  0  0  0  0  0  0  0  0  0  0
  139.3080   68.6720  226.1810 C   0  0  0  0  0  0  0  0  0  0  0  0
  139.5620   67.7790  227.2280 C   0  0  0  0  0  0  0  0  0  0  0  0
  139.0644   66.7982  227.2470 H   0  0  0  0  0  0  0  0  0  0  0  0
  140.4480   68.1330  228.2500 C   0  0  0  0  0  0  0  0  0  0  0  0
  140.6469   67.4309  229.0731 H   0  0  0  0  0  0  0  0  0  0  0  0
  141.0810   69.3790  228.2260 C   0  0  0  0  0  0  0  0  0  0  0  0
  141.7767   69.6565  229.0316 H   0  0  0  0  0  0  0  0  0  0  0  0
  140.8320   70.2740  227.1800 C   0  0  0  0  0  0  0  0  0  0  0  0
  141.3338   71.2527  227.1636 H   0  0  0  0  0  0  0  0  0  0  0  0
  139.9400   69.9240  226.1480 C   0  0  0  0  0  0  0  0  0  0  0  0
  139.6530   70.7850  225.0770 C   0  0  0  0  0  0  0  0  0  0  0  0
  140.2320   71.9070  225.0190 O   0  0  0  0  0  0  0  0  0  0  0  0
  138.7540   70.4160  224.0980 N   0  0  0  0  0  0  0  0  0  0  0  0
  138.4090   71.3930  223.0320 C   0  0  0  0  0  0  0  0  0  0  0  0
  137.4363   71.1093  222.6037 H   0  0  0  0  0  0  0  0  0  0  0  0
  138.3889   72.3866  223.5036 H   0  0  0  0  0  0  0  0  0  0  0  0
  139.4490   71.4610  221.8810 C   0  0  0  0  0  0  0  0  0  0  0  0
  138.8955   71.9218  221.0495 H   0  0  0  0  0  0  0  0  0  0  0  0
  139.9320   70.0750  221.4160 C   0  0  0  0  0  0  0  0  0  0  0  0
  140.5430   69.6261  222.2130 H   0  0  0  0  0  0  0  0  0  0  0  0
  139.0451   69.4611  221.2006 H   0  0  0  0  0  0  0  0  0  0  0  0
  140.7780   70.1590  220.1270 C   0  0  0  0  0  0  0  0  0  0  0  0
  141.5974   69.4289  220.2017 H   0  0  0  0  0  0  0  0  0  0  0  0
  140.1017   69.9481  219.2855 H   0  0  0  0  0  0  0  0  0  0  0  0
  141.3890   71.5510  219.8740 C   0  0  0  0  0  0  0  0  0  0  0  0
  142.2680   71.4421  219.2216 H   0  0  0  0  0  0  0  0  0  0  0  0
  140.6236   72.1821  219.3987 H   0  0  0  0  0  0  0  0  0  0  0  0
  141.8200   72.2220  221.1810 C   0  0  0  0  0  0  0  0  0  0  0  0
  142.6120   71.6141  221.6428 H   0  0  0  0  0  0  0  0  0  0  0  0
  142.1726   73.2336  220.9315 H   0  0  0  0  0  0  0  0  0  0  0  0
  140.6600   72.3720  222.1930 C   0  0  0  0  0  0  0  0  0  0  0  0
  141.0370   72.1195  223.1951 H   0  0  0  0  0  0  0  0  0  0  0  0
  140.3078   73.4122  222.1305 H   0  0  0  0  0  0  0  0  0  0  0  0
  135.2680   69.3460  224.3830 C   0  0  0  0  0  0  0  0  0  0  0  0
  134.6340   68.5390  225.3490 C   0  0  0  0  0  0  0  0  0  0  0  0
  134.6205   67.4458  225.2272 H   0  0  0  0  0  0  0  0  0  0  0  0
  134.0390   69.1080  226.4310 N   0  0  0  0  0  0  0  0  0  0  0  0
  134.0350   70.4520  226.6240 C   0  0  0  0  0  0  0  0  0  0  0  0
  133.5379   70.8796  227.5072 H   0  0  0  0  0  0  0  0  0  0  0  0
  134.6620   71.2910  225.7010 C   0  0  0  0  0  0  0  0  0  0  0  0
  134.6650   72.3804  225.8533 H   0  0  0  0  0  0  0  0  0  0  0  0
  135.2850   70.7340  224.5830 C   0  0  0  0  0  0  0  0  0  0  0  0
  135.7912   71.3862  223.8561 H   0  0  0  0  0  0  0  0  0  0  0  0
  1  2  1  0
  2  3  2  0
  3  4  1  0
  3  5  1  0
  5  6  2  0
  6  7  1  0
  7  8  2  0
  8  9  1  0
  8 10  1  0
 10 11  1  0
 10 12  2  0
 12 13  1  0
 12 14  1  0
 14 15  1  0
 14 16  2  0
 16 17  1  0
 17 18  2  0
 17 19  1  0
 19 20  1  0
 20 21  1  0
 20 22  1  0
 20 23  1  0
 23 24  1  0
 23 25  1  0
 25 26  1  0
 25 27  1  0
 25 28  1  0
 28 29  1  0
 28 30  1  0
 28 31  1  0
 31 32  1  0
 31 33  1  0
 31 34  1  0
 34 35  1  0
 34 36  1  0
 34 37  1  0
 37 38  1  0
 37 39  1  0
  2 40  1  0
 40 41  2  0
 41 42  1  0
 41 43  1  0
 43 44  2  0
 44 45  1  0
 44 46  1  0
 46 47  1  0
 46 48  2  0
 48 49  1  0
 19  5  1  0
 37 23  1  0
 48 40  1  0
 16  7  1  0
M  END
>  <UniqueID>  (11) 
23

>  <SMILES>  (11) 
O=c1c2ccccc2nc(/C=C/c2cccnc2)n1CC1CCCCC1

>  <Energy>  (11) 
68.21045762368858

>  <Genealogy>  (11) 
O=c1c2ccccc2nc(/C=C/c2cccnc2)n1CC1CCCCC1 (cis-trans isomerization)
O=c1c2ccccc2nc(/C=C/c2cccnc2)n1CC1CCCCC1 (3D coordinates assigned)
O=c1c2ccccc2nc(/C=C/c2cccnc2)n1CC1CCCCC1 (nonaromatic ring conformer: 68.21045762368858 kcal/mol)

>  <smiles>  (11) 
O=c1c2ccccc2nc(/C=C/c2cccnc2)n1CC1CCCCC1

>  <score_type>  (11) 
oracle

>  <origin>  (11) 
autodockgpu

>  <m_score__min__energy>  (11) 
-7.2300000000000004

>  <m_primary>  (11) 
energy

>  <meeko>  (11) 
{"free_energy": -6.68, "intermolecular_energy": -8.17, "internal_energy": -1.61, "cluster_size": 8, "cluster_id": 2, "rank_in_cluster": 8}

>  <energy>  (11) 
-6.94

>  <cluster_rmsd>  (11) 
0.22

>  <rmsd>  (11) 
269.16

>  <cluster>  (11) 
2

$$$$
XUFANRSCLZKORJ-OUKQBFOZNA-N
     RDKit          3D

 49 52  0  0  0  0  0  0  0  0999 V2000
  140.7959   70.7278  220.7624 H   0  0  0  0  0  0  0  0  0  0  0  0
  140.1830   71.3780  221.4040 C   0  0  0  0  0  0  0  0  0  0  0  0
  139.2140   70.8100  222.1380 C   0  0  0  0  0  0  0  0  0  0  0  0
  138.1966   70.7353  221.7265 H   0  0  0  0  0  0  0  0  0  0  0  0
  139.4930   70.2810  223.4960 C   0  0  0  0  0  0  0  0  0  0  0  0
  140.0100   71.1490  224.4070 N   0  0  0  0  0  0  0  0  0  0  0  0
  140.2670   70.7870  225.6820 C   0  0  0  0  0  0  0  0  0  0  0  0
  140.7980   71.7200  226.5810 C   0  0  0  0  0  0  0  0  0  0  0  0
  141.0185   72.7439  226.2449 H   0  0  0  0  0  0  0  0  0  0  0  0
  141.0480   71.3500  227.9060 C   0  0  0  0  0  0  0  0  0  0  0  0
  141.4668   72.0825  228.6117 H   0  0  0  0  0  0  0  0  0  0  0  0
  140.7660   70.0500  228.3340 C   0  0  0  0  0  0  0  0  0  0  0  0
  140.9635   69.7613  229.3769 H   0  0  0  0  0  0  0  0  0  0  0  0
  140.2330   69.1140  227.4400 C   0  0  0  0  0  0  0  0  0  0  0  0
  140.0117   68.0920  227.7813 H   0  0  0  0  0  0  0  0  0  0  0  0
  139.9800   69.4800  226.1040 C   0  0  0  0  0  0  0  0  0  0  0  0
  139.4480   68.5820  225.1650 C   0  0  0  0  0  0  0  0  0  0  0  0
  139.1610   67.4080  225.5340 O   0  0  0  0  0  0  0  0  0  0  0  0
  139.2370   68.9710  223.8590 N   0  0  0  0  0  0  0  0  0  0  0  0
  138.7590   67.9630  222.8760 C   0  0  0  0  0  0  0  0  0  0  0  0
  139.4128   68.0036  221.9924 H   0  0  0  0  0  0  0  0  0  0  0  0
  138.7904   66.9856  223.3796 H   0  0  0  0  0  0  0  0  0  0  0  0
  137.2940   68.1840  222.4110 C   0  0  0  0  0  0  0  0  0  0  0  0
  137.3878   68.8558  221.5450 H   0  0  0  0  0  0  0  0  0  0  0  0
  136.4230   68.8910  223.4650 C   0  0  0  0  0  0  0  0  0  0  0  0
  136.2651   68.2070  224.3119 H   0  0  0  0  0  0  0  0  0  0  0  0
  136.9484   69.8036  223.7830 H   0  0  0  0  0  0  0  0  0  0  0  0
  135.0480   69.3060  222.8960 C   0  0  0  0  0  0  0  0  0  0  0  0
  134.2882   69.1489  223.6757 H   0  0  0  0  0  0  0  0  0  0  0  0
  135.1306   70.3609  222.5954 H   0  0  0  0  0  0  0  0  0  0  0  0
  134.6290   68.5130  221.6420 C   0  0  0  0  0  0  0  0  0  0  0  0
  133.5339   68.5502  221.5453 H   0  0  0  0  0  0  0  0  0  0  0  0
  135.1158   68.9691  220.7674 H   0  0  0  0  0  0  0  0  0  0  0  0
  135.0710   67.0500  221.7280 C   0  0  0  0  0  0  0  0  0  0  0  0
  134.5585   66.5781  222.5793 H   0  0  0  0  0  0  0  0  0  0  0  0
  134.8083   66.5695  220.7740 H   0  0  0  0  0  0  0  0  0  0  0  0
  136.5980   66.8920  221.9220 C   0  0  0  0  0  0  0  0  0  0  0  0
  136.7747   66.0991  222.6636 H   0  0  0  0  0  0  0  0  0  0  0  0
  137.0257   66.6459  220.9389 H   0  0  0  0  0  0  0  0  0  0  0  0
  140.4750   72.8310  221.4080 C   0  0  0  0  0  0  0  0  0  0  0  0
  139.6110   73.7800  221.9920 C   0  0  0  0  0  0  0  0  0  0  0  0
  138.6700   73.4518  222.4577 H   0  0  0  0  0  0  0  0  0  0  0  0
  139.9380   75.1000  221.9810 N   0  0  0  0  0  0  0  0  0  0  0  0
  141.0910   75.5480  221.4210 C   0  0  0  0  0  0  0  0  0  0  0  0
  141.3213   76.6236  221.4230 H   0  0  0  0  0  0  0  0  0  0  0  0
  141.9840   74.6450  220.8430 C   0  0  0  0  0  0  0  0  0  0  0  0
  142.9209   75.0027  220.3910 H   0  0  0  0  0  0  0  0  0  0  0  0
  141.6770   73.2840  220.8440 C   0  0  0  0  0  0  0  0  0  0  0  0
  142.3801   72.5634  220.4009 H   0  0  0  0  0  0  0  0  0  0  0  0
  1  2  1  0
  2  3  2  0
  3  4  1  0
  3  5  1  0
  5  6  2  0
  6  7  1  0
  7  8  2  0
  8  9  1  0
  8 10  1  0
 10 11  1  0
 10 12  2  0
 12 13  1  0
 12 14  1  0
 14 15  1  0
 14 16  2  0
 16 17  1  0
 17 18  2  0
 17 19  1  0
 19 20  1  0
 20 21  1  0
 20 22  1  0
 20 23  1  0
 23 24  1  0
 23 25  1  0
 25 26  1  0
 25 27  1  0
 25 28  1  0
 28 29  1  0
 28 30  1  0
 28 31  1  0
 31 32  1  0
 31 33  1  0
 31 34  1  0
 34 35  1  0
 34 36  1  0
 34 37  1  0
 37 38  1  0
 37 39  1  0
  2 40  1  0
 40 41  2  0
 41 42  1  0
 41 43  1  0
 43 44  2  0
 44 45  1  0
 44 46  1  0
 46 47  1  0
 46 48  2  0
 48 49  1  0
 19  5  1  0
 37 23  1  0
 48 40  1  0
 16  7  1  0
M  END
>  <UniqueID>  (12) 
23

>  <SMILES>  (12) 
O=c1c2ccccc2nc(/C=C/c2cccnc2)n1CC1CCCCC1

>  <Energy>  (12) 
68.21045762368858

>  <Genealogy>  (12) 
O=c1c2ccccc2nc(/C=C/c2cccnc2)n1CC1CCCCC1 (cis-trans isomerization)
O=c1c2ccccc2nc(/C=C/c2cccnc2)n1CC1CCCCC1 (3D coordinates assigned)
O=c1c2ccccc2nc(/C=C/c2cccnc2)n1CC1CCCCC1 (nonaromatic ring conformer: 68.21045762368858 kcal/mol)

>  <smiles>  (12) 
O=c1c2ccccc2nc(/C=C/c2cccnc2)n1CC1CCCCC1

>  <score_type>  (12) 
oracle

>  <origin>  (12) 
autodockgpu

>  <m_score__min__energy>  (12) 
-7.2300000000000004

>  <m_primary>  (12) 
energy

>  <meeko>  (12) 
{"free_energy": -7.22, "intermolecular_energy": -8.71, "internal_energy": -1.23, "cluster_size": 5, "cluster_id": 1, "rank_in_cluster": 2}

>  <energy>  (12) 
-6.75

>  <cluster_rmsd>  (12) 
0.48

>  <rmsd>  (12) 
269.02

>  <cluster>  (12) 
2

$$$$
XUFANRSCLZKORJ-OUKQBFOZNA-N
     RDKit          3D

 49 52  0  0  0  0  0  0  0  0999 V2000
  135.3774   68.9644  222.2467 H   0  0  0  0  0  0  0  0  0  0  0  0
  135.9370   69.0210  223.1920 C   0  0  0  0  0  0  0  0  0  0  0  0
  137.2330   68.6750  223.1810 C   0  0  0  0  0  0  0  0  0  0  0  0
  137.6077   68.0064  222.3920 H   0  0  0  0  0  0  0  0  0  0  0  0
  138.1690   69.1790  224.2150 C   0  0  0  0  0  0  0  0  0  0  0  0
  138.4570   68.3470  225.2520 N   0  0  0  0  0  0  0  0  0  0  0  0
  139.3250   68.6870  226.2290 C   0  0  0  0  0  0  0  0  0  0  0  0
  139.5880   67.7930  227.2740 C   0  0  0  0  0  0  0  0  0  0  0  0
  139.0778   66.8190  227.3059 H   0  0  0  0  0  0  0  0  0  0  0  0
  140.4990   68.1380  228.2770 C   0  0  0  0  0  0  0  0  0  0  0  0
  140.7040   67.4360  229.0987 H   0  0  0  0  0  0  0  0  0  0  0  0
  141.1490   69.3740  228.2360 C   0  0  0  0  0  0  0  0  0  0  0  0
  141.8648   69.6437  229.0265 H   0  0  0  0  0  0  0  0  0  0  0  0
  140.8920   70.2700  227.1920 C   0  0  0  0  0  0  0  0  0  0  0  0
  141.4078   71.2411  227.1621 H   0  0  0  0  0  0  0  0  0  0  0  0
  139.9740   69.9300  226.1800 C   0  0  0  0  0  0  0  0  0  0  0  0
  139.6780   70.7920  225.1110 C   0  0  0  0  0  0  0  0  0  0  0  0
  140.2710   71.9050  225.0380 O   0  0  0  0  0  0  0  0  0  0  0  0
  138.7540   70.4320  224.1520 N   0  0  0  0  0  0  0  0  0  0  0  0
  138.4020   71.4100  223.0900 C   0  0  0  0  0  0  0  0  0  0  0  0
  137.4237   71.1303  222.6720 H   0  0  0  0  0  0  0  0  0  0  0  0
  138.3911   72.4036  223.5618 H   0  0  0  0  0  0  0  0  0  0  0  0
  139.4300   71.4740  221.9280 C   0  0  0  0  0  0  0  0  0  0  0  0
  138.8640   71.9180  221.0959 H   0  0  0  0  0  0  0  0  0  0  0  0
  139.9230   70.0870  221.4770 C   0  0  0  0  0  0  0  0  0  0  0  0
  140.5464   69.6553  222.2739 H   0  0  0  0  0  0  0  0  0  0  0  0
  139.0407   69.4607  221.2787 H   0  0  0  0  0  0  0  0  0  0  0  0
  140.7560   70.1630  220.1780 C   0  0  0  0  0  0  0  0  0  0  0  0
  141.5838   69.4426  220.2540 H   0  0  0  0  0  0  0  0  0  0  0  0
  140.0740   69.9339  219.3459 H   0  0  0  0  0  0  0  0  0  0  0  0
  141.3500   71.5590  219.9010 C   0  0  0  0  0  0  0  0  0  0  0  0
  142.2240   71.4509  219.2418 H   0  0  0  0  0  0  0  0  0  0  0  0
  140.5733   72.1755  219.4249 H   0  0  0  0  0  0  0  0  0  0  0  0
  141.7860   72.2520  221.1950 C   0  0  0  0  0  0  0  0  0  0  0  0
  142.5893   71.6592  221.6570 H   0  0  0  0  0  0  0  0  0  0  0  0
  142.1247   73.2642  220.9290 H   0  0  0  0  0  0  0  0  0  0  0  0
  140.6340   72.4020  222.2160 C   0  0  0  0  0  0  0  0  0  0  0  0
  141.0234   72.1666  223.2175 H   0  0  0  0  0  0  0  0  0  0  0  0
  140.2695   73.4373  222.1431 H   0  0  0  0  0  0  0  0  0  0  0  0
  135.2160   69.4750  224.4040 C   0  0  0  0  0  0  0  0  0  0  0  0
  134.6580   68.5800  225.3390 C   0  0  0  0  0  0  0  0  0  0  0  0
  134.7388   67.4953  225.1752 H   0  0  0  0  0  0  0  0  0  0  0  0
  134.0200   69.0530  226.4430 N   0  0  0  0  0  0  0  0  0  0  0  0
  133.9020   70.3830  226.6870 C   0  0  0  0  0  0  0  0  0  0  0  0
  133.3741   70.7321  227.5867 H   0  0  0  0  0  0  0  0  0  0  0  0
  134.4500   71.3080  225.7970 C   0  0  0  0  0  0  0  0  0  0  0  0
  134.3584   72.3869  225.9910 H   0  0  0  0  0  0  0  0  0  0  0  0
  135.1150   70.8510  224.6590 C   0  0  0  0  0  0  0  0  0  0  0  0
  135.5619   71.5722  223.9589 H   0  0  0  0  0  0  0  0  0  0  0  0
  1  2  1  0
  2  3  2  0
  3  4  1  0
  3  5  1  0
  5  6  2  0
  6  7  1  0
  7  8  2  0
  8  9  1  0
  8 10  1  0
 10 11  1  0
 10 12  2  0
 12 13  1  0
 12 14  1  0
 14 15  1  0
 14 16  2  0
 16 17  1  0
 17 18  2  0
 17 19  1  0
 19 20  1  0
 20 21  1  0
 20 22  1  0
 20 23  1  0
 23 24  1  0
 23 25  1  0
 25 26  1  0
 25 27  1  0
 25 28  1  0
 28 29  1  0
 28 30  1  0
 28 31  1  0
 31 32  1  0
 31 33  1  0
 31 34  1  0
 34 35  1  0
 34 36  1  0
 34 37  1  0
 37 38  1  0
 37 39  1  0
  2 40  1  0
 40 41  2  0
 41 42  1  0
 41 43  1  0
 43 44  2  0
 44 45  1  0
 44 46  1  0
 46 47  1  0
 46 48  2  0
 48 49  1  0
 19  5  1  0
 37 23  1  0
 48 40  1  0
 16  7  1  0
M  END
>  <UniqueID>  (13) 
23

>  <SMILES>  (13) 
O=c1c2ccccc2nc(/C=C/c2cccnc2)n1CC1CCCCC1

>  <Energy>  (13) 
68.21045762368858

>  <Genealogy>  (13) 
O=c1c2ccccc2nc(/C=C/c2cccnc2)n1CC1CCCCC1 (cis-trans isomerization)
O=c1c2ccccc2nc(/C=C/c2cccnc2)n1CC1CCCCC1 (3D coordinates assigned)
O=c1c2ccccc2nc(/C=C/c2cccnc2)n1CC1CCCCC1 (nonaromatic ring conformer: 68.21045762368858 kcal/mol)

>  <smiles>  (13) 
O=c1c2ccccc2nc(/C=C/c2cccnc2)n1CC1CCCCC1

>  <score_type>  (13) 
oracle

>  <origin>  (13) 
autodockgpu

>  <m_score__min__energy>  (13) 
-7.2300000000000004

>  <m_primary>  (13) 
energy

>  <meeko>  (13) 
{"free_energy": -6.75, "intermolecular_energy": -8.24, "internal_energy": -1.58, "cluster_size": 8, "cluster_id": 2, "rank_in_cluster": 7}

>  <energy>  (13) 
-6.68

>  <cluster_rmsd>  (13) 
0.53

>  <rmsd>  (13) 
268.99

>  <cluster>  (13) 
2

$$$$
XUFANRSCLZKORJ-OUKQBFOZNA-N
     RDKit          3D

 49 52  0  0  0  0  0  0  0  0999 V2000
  135.5744   69.4951  222.3117 H   0  0  0  0  0  0  0  0  0  0  0  0
  136.0310   69.3380  223.3000 C   0  0  0  0  0  0  0  0  0  0  0  0
  137.2700   68.8270  223.3500 C   0  0  0  0  0  0  0  0  0  0  0  0
  137.5648   68.0518  222.6274 H   0  0  0  0  0  0  0  0  0  0  0  0
  138.2500   69.2900  224.3640 C   0  0  0  0  0  0  0  0  0  0  0  0
  138.4990   68.4590  225.4120 N   0  0  0  0  0  0  0  0  0  0  0  0
  139.3990   68.7600  226.3730 C   0  0  0  0  0  0  0  0  0  0  0  0
  139.6190   67.8690  227.4300 C   0  0  0  0  0  0  0  0  0  0  0  0
  139.0495   66.9295  227.4855 H   0  0  0  0  0  0  0  0  0  0  0  0
  140.5630   68.1740  228.4150 C   0  0  0  0  0  0  0  0  0  0  0  0
  140.7360   67.4742  229.2459 H   0  0  0  0  0  0  0  0  0  0  0  0
  141.2870   69.3670  228.3450 C   0  0  0  0  0  0  0  0  0  0  0  0
  142.0282   69.6051  229.1221 H   0  0  0  0  0  0  0  0  0  0  0  0
  141.0720   70.2590  227.2900 C   0  0  0  0  0  0  0  0  0  0  0  0
  141.6455   71.1962  227.2381 H   0  0  0  0  0  0  0  0  0  0  0  0
  140.1230   69.9600  226.2940 C   0  0  0  0  0  0  0  0  0  0  0  0
  139.8660   70.8200  225.2150 C   0  0  0  0  0  0  0  0  0  0  0  0
  140.5260   71.8930  225.1150 O   0  0  0  0  0  0  0  0  0  0  0  0
  138.9100   70.5030  224.2730 N   0  0  0  0  0  0  0  0  0  0  0  0
  138.6050   71.4830  223.1980 C   0  0  0  0  0  0  0  0  0  0  0  0
  137.8957   71.0187  222.4970 H   0  0  0  0  0  0  0  0  0  0  0  0
  138.1904   72.3762  223.6882 H   0  0  0  0  0  0  0  0  0  0  0  0
  139.8520   71.9460  222.3970 C   0  0  0  0  0  0  0  0  0  0  0  0
  140.6585   71.9611  223.1449 H   0  0  0  0  0  0  0  0  0  0  0  0
  139.7110   73.3680  221.8240 C   0  0  0  0  0  0  0  0  0  0  0  0
  138.9530   73.3563  221.0270 H   0  0  0  0  0  0  0  0  0  0  0  0
  139.4145   74.0376  222.6448 H   0  0  0  0  0  0  0  0  0  0  0  0
  141.0420   73.8900  221.2390 C   0  0  0  0  0  0  0  0  0  0  0  0
  140.8185   74.4681  220.3302 H   0  0  0  0  0  0  0  0  0  0  0  0
  141.5177   74.5012  222.0202 H   0  0  0  0  0  0  0  0  0  0  0  0
  142.0400   72.7740  220.8720 C   0  0  0  0  0  0  0  0  0  0  0  0
  142.7413   73.1567  220.1159 H   0  0  0  0  0  0  0  0  0  0  0  0
  142.5730   72.4748  221.7865 H   0  0  0  0  0  0  0  0  0  0  0  0
  141.3260   71.5420  220.3090 C   0  0  0  0  0  0  0  0  0  0  0  0
  140.8214   71.8257  219.3737 H   0  0  0  0  0  0  0  0  0  0  0  0
  142.0877   70.7657  220.1441 H   0  0  0  0  0  0  0  0  0  0  0  0
  140.2730   70.9600  221.2810 C   0  0  0  0  0  0  0  0  0  0  0  0
  139.3784   70.6865  220.7023 H   0  0  0  0  0  0  0  0  0  0  0  0
  140.7328   70.0906  221.7737 H   0  0  0  0  0  0  0  0  0  0  0  0
  135.2420   69.7030  224.5000 C   0  0  0  0  0  0  0  0  0  0  0  0
  134.6940   68.7420  225.3730 C   0  0  0  0  0  0  0  0  0  0  0  0
  134.8346   67.6706  225.1671 H   0  0  0  0  0  0  0  0  0  0  0  0
  133.9920   69.1350  226.4690 N   0  0  0  0  0  0  0  0  0  0  0  0
  133.7960   70.4460  226.7630 C   0  0  0  0  0  0  0  0  0  0  0  0
  133.2163   70.7292  227.6539 H   0  0  0  0  0  0  0  0  0  0  0  0
  134.3300   71.4340  225.9350 C   0  0  0  0  0  0  0  0  0  0  0  0
  134.1764   72.4976  226.1696 H   0  0  0  0  0  0  0  0  0  0  0  0
  135.0610   71.0600  224.8060 C   0  0  0  0  0  0  0  0  0  0  0  0
  135.4964   71.8318  224.1543 H   0  0  0  0  0  0  0  0  0  0  0  0
  1  2  1  0
  2  3  2  0
  3  4  1  0
  3  5  1  0
  5  6  2  0
  6  7  1  0
  7  8  2  0
  8  9  1  0
  8 10  1  0
 10 11  1  0
 10 12  2  0
 12 13  1  0
 12 14  1  0
 14 15  1  0
 14 16  2  0
 16 17  1  0
 17 18  2  0
 17 19  1  0
 19 20  1  0
 20 21  1  0
 20 22  1  0
 20 23  1  0
 23 24  1  0
 23 25  1  0
 25 26  1  0
 25 27  1  0
 25 28  1  0
 28 29  1  0
 28 30  1  0
 28 31  1  0
 31 32  1  0
 31 33  1  0
 31 34  1  0
 34 35  1  0
 34 36  1  0
 34 37  1  0
 37 38  1  0
 37 39  1  0
  2 40  1  0
 40 41  2  0
 41 42  1  0
 41 43  1  0
 43 44  2  0
 44 45  1  0
 44 46  1  0
 46 47  1  0
 46 48  2  0
 48 49  1  0
 19  5  1  0
 37 23  1  0
 48 40  1  0
 16  7  1  0
M  END
>  <UniqueID>  (14) 
23

>  <SMILES>  (14) 
O=c1c2ccccc2nc(/C=C/c2cccnc2)n1CC1CCCCC1

>  <Energy>  (14) 
68.21045762368858

>  <Genealogy>  (14) 
O=c1c2ccccc2nc(/C=C/c2cccnc2)n1CC1CCCCC1 (cis-trans isomerization)
O=c1c2ccccc2nc(/C=C/c2cccnc2)n1CC1CCCCC1 (3D coordinates assigned)
O=c1c2ccccc2nc(/C=C/c2cccnc2)n1CC1CCCCC1 (nonaromatic ring conformer: 68.21045762368858 kcal/mol)

>  <smiles>  (14) 
O=c1c2ccccc2nc(/C=C/c2cccnc2)n1CC1CCCCC1

>  <score_type>  (14) 
oracle

>  <origin>  (14) 
autodockgpu

>  <m_score__min__energy>  (14) 
-7.2300000000000004

>  <m_primary>  (14) 
energy

>  <meeko>  (14) 
{"free_energy": -7.15, "intermolecular_energy": -8.64, "internal_energy": -1.35, "cluster_size": 8, "cluster_id": 2, "rank_in_cluster": 1}

>  <energy>  (14) 
-7.08

>  <cluster_rmsd>  (14) 
0.0

>  <rmsd>  (14) 
269.38

>  <cluster>  (14) 
3

$$$$
XUFANRSCLZKORJ-OUKQBFOZNA-N
     RDKit          3D

 49 52  0  0  0  0  0  0  0  0999 V2000
  137.6386   71.5392  221.3489 H   0  0  0  0  0  0  0  0  0  0  0  0
  138.6470   71.7630  221.7270 C   0  0  0  0  0  0  0  0  0  0  0  0
  139.4460   70.7340  222.0440 C   0  0  0  0  0  0  0  0  0  0  0  0
  139.9709   70.1906  221.2445 H   0  0  0  0  0  0  0  0  0  0  0  0
  139.6340   70.3160  223.4550 C   0  0  0  0  0  0  0  0  0  0  0  0
  140.2380   71.2040  224.2910 N   0  0  0  0  0  0  0  0  0  0  0  0
  140.4270   70.9460  225.6030 C   0  0  0  0  0  0  0  0  0  0  0  0
  141.0530   71.8940  226.4200 C   0  0  0  0  0  0  0  0  0  0  0  0
  141.4036   72.8441  225.9906 H   0  0  0  0  0  0  0  0  0  0  0  0
  141.2330   71.6340  227.7820 C   0  0  0  0  0  0  0  0  0  0  0  0
  141.7265   72.3788  228.4236 H   0  0  0  0  0  0  0  0  0  0  0  0
  140.7860   70.4280  228.3280 C   0  0  0  0  0  0  0  0  0  0  0  0
  140.9284   70.2251  229.3997 H   0  0  0  0  0  0  0  0  0  0  0  0
  140.1580   69.4780  227.5160 C   0  0  0  0  0  0  0  0  0  0  0  0
  139.8074   68.5301  227.9503 H   0  0  0  0  0  0  0  0  0  0  0  0
  139.9740   69.7330  226.1440 C   0  0  0  0  0  0  0  0  0  0  0  0
  139.3520   68.8140  225.2830 C   0  0  0  0  0  0  0  0  0  0  0  0
  138.9160   67.7270  225.7590 O   0  0  0  0  0  0  0  0  0  0  0  0
  139.2130   69.0900  223.9390 N   0  0  0  0  0  0  0  0  0  0  0  0
  138.6310   68.0530  223.0480 C   0  0  0  0  0  0  0  0  0  0  0  0
  139.2956   67.9292  222.1803 H   0  0  0  0  0  0  0  0  0  0  0  0
  138.5402   67.1335  223.6449 H   0  0  0  0  0  0  0  0  0  0  0  0
  137.2080   68.3960  222.5290 C   0  0  0  0  0  0  0  0  0  0  0  0
  137.3883   69.0938  221.6980 H   0  0  0  0  0  0  0  0  0  0  0  0
  136.3390   69.1210  223.5730 C   0  0  0  0  0  0  0  0  0  0  0  0
  136.0938   68.4169  224.3818 H   0  0  0  0  0  0  0  0  0  0  0  0
  136.9107   69.9803  223.9536 H   0  0  0  0  0  0  0  0  0  0  0  0
  135.0250   69.6550  222.9610 C   0  0  0  0  0  0  0  0  0  0  0  0
  134.2198   69.5224  223.6986 H   0  0  0  0  0  0  0  0  0  0  0  0
  135.1953   70.7121  222.7091 H   0  0  0  0  0  0  0  0  0  0  0  0
  134.6120   68.9440  221.6580 C   0  0  0  0  0  0  0  0  0  0  0  0
  133.5279   69.0629  221.5145 H   0  0  0  0  0  0  0  0  0  0  0  0
  135.1702   69.3982  220.8261 H   0  0  0  0  0  0  0  0  0  0  0  0
  134.9470   67.4500  221.7010 C   0  0  0  0  0  0  0  0  0  0  0  0
  134.3641   66.9828  222.5085 H   0  0  0  0  0  0  0  0  0  0  0  0
  134.6959   67.0273  220.7170 H   0  0  0  0  0  0  0  0  0  0  0  0
  136.4480   67.1760  221.9540 C   0  0  0  0  0  0  0  0  0  0  0  0
  136.5349   66.3433  222.6675 H   0  0  0  0  0  0  0  0  0  0  0  0
  136.9031   66.9394  220.9809 H   0  0  0  0  0  0  0  0  0  0  0  0
  139.0450   73.1850  221.8570 C   0  0  0  0  0  0  0  0  0  0  0  0
  140.3920   73.6010  221.8690 C   0  0  0  0  0  0  0  0  0  0  0  0
  141.1970   72.8553  221.7924 H   0  0  0  0  0  0  0  0  0  0  0  0
  140.6990   74.9220  221.9750 N   0  0  0  0  0  0  0  0  0  0  0  0
  139.7370   75.8760  222.0680 C   0  0  0  0  0  0  0  0  0  0  0  0
  140.0202   76.9349  222.1599 H   0  0  0  0  0  0  0  0  0  0  0  0
  138.3900   75.5140  222.0470 C   0  0  0  0  0  0  0  0  0  0  0  0
  137.6071   76.2833  222.1196 H   0  0  0  0  0  0  0  0  0  0  0  0
  138.0450   74.1660  221.9330 C   0  0  0  0  0  0  0  0  0  0  0  0
  136.9854   73.8721  221.9027 H   0  0  0  0  0  0  0  0  0  0  0  0
  1  2  1  0
  2  3  2  0
  3  4  1  0
  3  5  1  0
  5  6  2  0
  6  7  1  0
  7  8  2  0
  8  9  1  0
  8 10  1  0
 10 11  1  0
 10 12  2  0
 12 13  1  0
 12 14  1  0
 14 15  1  0
 14 16  2  0
 16 17  1  0
 17 18  2  0
 17 19  1  0
 19 20  1  0
 20 21  1  0
 20 22  1  0
 20 23  1  0
 23 24  1  0
 23 25  1  0
 25 26  1  0
 25 27  1  0
 25 28  1  0
 28 29  1  0
 28 30  1  0
 28 31  1  0
 31 32  1  0
 31 33  1  0
 31 34  1  0
 34 35  1  0
 34 36  1  0
 34 37  1  0
 37 38  1  0
 37 39  1  0
  2 40  1  0
 40 41  2  0
 41 42  1  0
 41 43  1  0
 43 44  2  0
 44 45  1  0
 44 46  1  0
 46 47  1  0
 46 48  2  0
 48 49  1  0
 19  5  1  0
 37 23  1  0
 48 40  1  0
 16  7  1  0
M  END
>  <UniqueID>  (15) 
23

>  <SMILES>  (15) 
O=c1c2ccccc2nc(/C=C/c2cccnc2)n1CC1CCCCC1

>  <Energy>  (15) 
68.21045762368858

>  <Genealogy>  (15) 
O=c1c2ccccc2nc(/C=C/c2cccnc2)n1CC1CCCCC1 (cis-trans isomerization)
O=c1c2ccccc2nc(/C=C/c2cccnc2)n1CC1CCCCC1 (3D coordinates assigned)
O=c1c2ccccc2nc(/C=C/c2cccnc2)n1CC1CCCCC1 (nonaromatic ring conformer: 68.21045762368858 kcal/mol)

>  <smiles>  (15) 
O=c1c2ccccc2nc(/C=C/c2cccnc2)n1CC1CCCCC1

>  <score_type>  (15) 
oracle

>  <origin>  (15) 
autodockgpu

>  <m_score__min__energy>  (15) 
-7.2300000000000004

>  <m_primary>  (15) 
energy

>  <meeko>  (15) 
{"free_energy": -6.94, "intermolecular_energy": -8.43, "internal_energy": -1.42, "cluster_size": 5, "cluster_id": 1, "rank_in_cluster": 5}

>  <energy>  (15) 
-6.94

>  <cluster_rmsd>  (15) 
0.38

>  <rmsd>  (15) 
269.4

>  <cluster>  (15) 
3

$$$$
XUFANRSCLZKORJ-OUKQBFOZNA-N
     RDKit          3D

 49 52  0  0  0  0  0  0  0  0999 V2000
  142.2202   71.6351  219.3034 H   0  0  0  0  0  0  0  0  0  0  0  0
  142.6510   72.0260  220.2370 C   0  0  0  0  0  0  0  0  0  0  0  0
  141.9120   71.9510  221.3540 C   0  0  0  0  0  0  0  0  0  0  0  0
  142.0949   71.1360  222.0698 H   0  0  0  0  0  0  0  0  0  0  0  0
  140.8520   72.9490  221.6400 C   0  0  0  0  0  0  0  0  0  0  0  0
  141.2050   74.2620  221.5940 N   0  0  0  0  0  0  0  0  0  0  0  0
  140.3140   75.2550  221.7990 C   0  0  0  0  0  0  0  0  0  0  0  0
  140.7280   76.5910  221.7390 C   0  0  0  0  0  0  0  0  0  0  0  0
  141.7824   76.8313  221.5375 H   0  0  0  0  0  0  0  0  0  0  0  0
  139.8020   77.6200  221.9350 C   0  0  0  0  0  0  0  0  0  0  0  0
  140.1284   78.6694  221.8885 H   0  0  0  0  0  0  0  0  0  0  0  0
  138.4620   77.3160  222.1900 C   0  0  0  0  0  0  0  0  0  0  0  0
  137.7354   78.1272  222.3448 H   0  0  0  0  0  0  0  0  0  0  0  0
  138.0420   75.9820  222.2490 C   0  0  0  0  0  0  0  0  0  0  0  0
  136.9862   75.7466  222.4486 H   0  0  0  0  0  0  0  0  0  0  0  0
  138.9700   74.9410  222.0530 C   0  0  0  0  0  0  0  0  0  0  0  0
  138.6030   73.5860  222.1030 C   0  0  0  0  0  0  0  0  0  0  0  0
  137.3930   73.2860  222.3070 O   0  0  0  0  0  0  0  0  0  0  0  0
  139.5460   72.5950  221.9310 N   0  0  0  0  0  0  0  0  0  0  0  0
  139.1340   71.1750  222.0830 C   0  0  0  0  0  0  0  0  0  0  0  0
  138.0374   71.1234  222.0135 H   0  0  0  0  0  0  0  0  0  0  0  0
  139.6355   70.6102  221.2833 H   0  0  0  0  0  0  0  0  0  0  0  0
  139.5690   70.5330  223.4280 C   0  0  0  0  0  0  0  0  0  0  0  0
  140.2976   69.7637  223.1325 H   0  0  0  0  0  0  0  0  0  0  0  0
  138.4160   69.8310  224.1670 C   0  0  0  0  0  0  0  0  0  0  0  0
  137.7090   70.5929  224.5271 H   0  0  0  0  0  0  0  0  0  0  0  0
  137.9313   69.1400  223.4616 H   0  0  0  0  0  0  0  0  0  0  0  0
  138.9180   69.0070  225.3730 C   0  0  0  0  0  0  0  0  0  0  0  0
  138.1889   69.1090  226.1903 H   0  0  0  0  0  0  0  0  0  0  0  0
  139.0226   67.9673  225.0294 H   0  0  0  0  0  0  0  0  0  0  0  0
  140.2990   69.4480  225.8960 C   0  0  0  0  0  0  0  0  0  0  0  0
  140.4005   69.1342  226.9454 H   0  0  0  0  0  0  0  0  0  0  0  0
  141.0712   68.9774  225.2697 H   0  0  0  0  0  0  0  0  0  0  0  0
  140.4730   70.9680  225.8120 C   0  0  0  0  0  0  0  0  0  0  0  0
  139.7272   71.4432  226.4663 H   0  0  0  0  0  0  0  0  0  0  0  0
  141.5013   71.2000  226.1265 H   0  0  0  0  0  0  0  0  0  0  0  0
  140.2920   71.5170  224.3780 C   0  0  0  0  0  0  0  0  0  0  0  0
  139.7037   72.4449  224.4319 H   0  0  0  0  0  0  0  0  0  0  0  0
  141.2981   71.6848  223.9660 H   0  0  0  0  0  0  0  0  0  0  0  0
  144.0140   72.6050  220.1880 C   0  0  0  0  0  0  0  0  0  0  0  0
  145.0770   71.9940  219.4910 C   0  0  0  0  0  0  0  0  0  0  0  0
  144.9125   71.0419  218.9652 H   0  0  0  0  0  0  0  0  0  0  0  0
  146.3040   72.5780  219.4670 N   0  0  0  0  0  0  0  0  0  0  0  0
  146.5510   73.7550  220.0980 C   0  0  0  0  0  0  0  0  0  0  0  0
  147.5578   74.1968  220.0638 H   0  0  0  0  0  0  0  0  0  0  0  0
  145.5270   74.4040  220.7900 C   0  0  0  0  0  0  0  0  0  0  0  0
  145.7205   75.3586  221.3012 H   0  0  0  0  0  0  0  0  0  0  0  0
  144.2550   73.8300  220.8270 C   0  0  0  0  0  0  0  0  0  0  0  0
  143.4388   74.3403  221.3593 H   0  0  0  0  0  0  0  0  0  0  0  0
  1  2  1  0
  2  3  2  0
  3  4  1  0
  3  5  1  0
  5  6  2  0
  6  7  1  0
  7  8  2  0
  8  9  1  0
  8 10  1  0
 10 11  1  0
 10 12  2  0
 12 13  1  0
 12 14  1  0
 14 15  1  0
 14 16  2  0
 16 17  1  0
 17 18  2  0
 17 19  1  0
 19 20  1  0
 20 21  1  0
 20 22  1  0
 20 23  1  0
 23 24  1  0
 23 25  1  0
 25 26  1  0
 25 27  1  0
 25 28  1  0
 28 29  1  0
 28 30  1  0
 28 31  1  0
 31 32  1  0
 31 33  1  0
 31 34  1  0
 34 35  1  0
 34 36  1  0
 34 37  1  0
 37 38  1  0
 37 39  1  0
  2 40  1  0
 40 41  2  0
 41 42  1  0
 41 43  1  0
 43 44  2  0
 44 45  1  0
 44 46  1  0
 46 47  1  0
 46 48  2  0
 48 49  1  0
 19  5  1  0
 37 23  1  0
 48 40  1  0
 16  7  1  0
M  END
>  <UniqueID>  (16) 
23

>  <SMILES>  (16) 
O=c1c2ccccc2nc(/C=C/c2cccnc2)n1CC1CCCCC1

>  <Energy>  (16) 
68.21045762368858

>  <Genealogy>  (16) 
O=c1c2ccccc2nc(/C=C/c2cccnc2)n1CC1CCCCC1 (cis-trans isomerization)
O=c1c2ccccc2nc(/C=C/c2cccnc2)n1CC1CCCCC1 (3D coordinates assigned)
O=c1c2ccccc2nc(/C=C/c2cccnc2)n1CC1CCCCC1 (nonaromatic ring conformer: 68.21045762368858 kcal/mol)

>  <smiles>  (16) 
O=c1c2ccccc2nc(/C=C/c2cccnc2)n1CC1CCCCC1

>  <score_type>  (16) 
oracle

>  <origin>  (16) 
autodockgpu

>  <m_score__min__energy>  (16) 
-7.2300000000000004

>  <m_primary>  (16) 
energy

>  <meeko>  (16) 
{"free_energy": -7.03, "intermolecular_energy": -8.53, "internal_energy": -1.24, "cluster_size": 1, "cluster_id": 4, "rank_in_cluster": 1}

>  <energy>  (16) 
-7.03

>  <cluster_rmsd>  (16) 
0.0

>  <rmsd>  (16) 
269.15

>  <cluster>  (16) 
4

$$$$
XUFANRSCLZKORJ-OUKQBFOZNA-N
     RDKit          3D

 49 52  0  0  0  0  0  0  0  0999 V2000
  140.7036   70.7425  220.7182 H   0  0  0  0  0  0  0  0  0  0  0  0
  140.1430   71.4010  221.3980 C   0  0  0  0  0  0  0  0  0  0  0  0
  139.1940   70.8520  222.1710 C   0  0  0  0  0  0  0  0  0  0  0  0
  138.1655   70.7714  221.7894 H   0  0  0  0  0  0  0  0  0  0  0  0
  139.5080   70.3520  223.5310 C   0  0  0  0  0  0  0  0  0  0  0  0
  140.0490   71.2390  224.4100 N   0  0  0  0  0  0  0  0  0  0  0  0
  140.3390   70.9040  225.6850 C   0  0  0  0  0  0  0  0  0  0  0  0
  140.8940   71.8550  226.5500 C   0  0  0  0  0  0  0  0  0  0  0  0
  141.1058   72.8715  226.1867 H   0  0  0  0  0  0  0  0  0  0  0  0
  141.1790   71.5130  227.8750 C   0  0  0  0  0  0  0  0  0  0  0  0
  141.6162   72.2602  228.5536 H   0  0  0  0  0  0  0  0  0  0  0  0
  140.9090   70.2230  228.3380 C   0  0  0  0  0  0  0  0  0  0  0  0
  141.1349   69.9563  229.3810 H   0  0  0  0  0  0  0  0  0  0  0  0
  140.3520   69.2690  227.4790 C   0  0  0  0  0  0  0  0  0  0  0  0
  140.1389   68.2550  227.8482 H   0  0  0  0  0  0  0  0  0  0  0  0
  140.0640   69.6060  226.1420 C   0  0  0  0  0  0  0  0  0  0  0  0
  139.5070   68.6880  225.2380 C   0  0  0  0  0  0  0  0  0  0  0  0
  139.2300   67.5230  225.6390 O   0  0  0  0  0  0  0  0  0  0  0  0
  139.2620   69.0500  223.9290 N   0  0  0  0  0  0  0  0  0  0  0  0
  138.7580   68.0220  222.9810 C   0  0  0  0  0  0  0  0  0  0  0  0
  139.2900   68.1414  222.0256 H   0  0  0  0  0  0  0  0  0  0  0  0
  138.9402   67.0420  223.4461 H   0  0  0  0  0  0  0  0  0  0  0  0
  137.2320   68.1140  222.7060 C   0  0  0  0  0  0  0  0  0  0  0  0
  136.8582   67.1050  222.9347 H   0  0  0  0  0  0  0  0  0  0  0  0
  136.8990   68.4200  221.2340 C   0  0  0  0  0  0  0  0  0  0  0  0
  137.2076   69.4511  221.0068 H   0  0  0  0  0  0  0  0  0  0  0  0
  137.4385   67.6961  220.6056 H   0  0  0  0  0  0  0  0  0  0  0  0
  135.3890   68.2750  220.9410 C   0  0  0  0  0  0  0  0  0  0  0  0
  135.0939   69.0694  220.2397 H   0  0  0  0  0  0  0  0  0  0  0  0
  135.2387   67.2683  220.5240 H   0  0  0  0  0  0  0  0  0  0  0  0
  134.4990   68.3790  222.1960 C   0  0  0  0  0  0  0  0  0  0  0  0
  133.4855   68.6789  221.8913 H   0  0  0  0  0  0  0  0  0  0  0  0
  134.4852   67.3968  222.6910 H   0  0  0  0  0  0  0  0  0  0  0  0
  135.0450   69.4090  223.1890 C   0  0  0  0  0  0  0  0  0  0  0  0
  135.0269   70.4001  222.7121 H   0  0  0  0  0  0  0  0  0  0  0  0
  134.4075   69.3738  224.0848 H   0  0  0  0  0  0  0  0  0  0  0  0
  136.4930   69.1040  223.6380 C   0  0  0  0  0  0  0  0  0  0  0  0
  137.0569   70.0482  223.6605 H   0  0  0  0  0  0  0  0  0  0  0  0
  136.4319   68.6313  224.6294 H   0  0  0  0  0  0  0  0  0  0  0  0
  140.4790   72.8450  221.4080 C   0  0  0  0  0  0  0  0  0  0  0  0
  139.6430   73.8180  221.9920 C   0  0  0  0  0  0  0  0  0  0  0  0
  138.6908   73.5177  222.4536 H   0  0  0  0  0  0  0  0  0  0  0  0
  140.0110   75.1270  221.9860 N   0  0  0  0  0  0  0  0  0  0  0  0
  141.1780   75.5420  221.4310 C   0  0  0  0  0  0  0  0  0  0  0  0
  141.4408   76.6101  221.4373 H   0  0  0  0  0  0  0  0  0  0  0  0
  142.0450   74.6130  220.8520 C   0  0  0  0  0  0  0  0  0  0  0  0
  142.9934   74.9429  220.4029 H   0  0  0  0  0  0  0  0  0  0  0  0
  141.6960   73.2620  220.8490 C   0  0  0  0  0  0  0  0  0  0  0  0
  142.3780   72.5210  220.4065 H   0  0  0  0  0  0  0  0  0  0  0  0
  1  2  1  0
  2  3  2  0
  3  4  1  0
  3  5  1  0
  5  6  2  0
  6  7  1  0
  7  8  2  0
  8  9  1  0
  8 10  1  0
 10 11  1  0
 10 12  2  0
 12 13  1  0
 12 14  1  0
 14 15  1  0
 14 16  2  0
 16 17  1  0
 17 18  2  0
 17 19  1  0
 19 20  1  0
 20 21  1  0
 20 22  1  0
 20 23  1  0
 23 24  1  0
 23 25  1  0
 25 26  1  0
 25 27  1  0
 25 28  1  0
 28 29  1  0
 28 30  1  0
 28 31  1  0
 31 32  1  0
 31 33  1  0
 31 34  1  0
 34 35  1  0
 34 36  1  0
 34 37  1  0
 37 38  1  0
 37 39  1  0
  2 40  1  0
 40 41  2  0
 41 42  1  0
 41 43  1  0
 43 44  2  0
 44 45  1  0
 44 46  1  0
 46 47  1  0
 46 48  2  0
 48 49  1  0
 19  5  1  0
 37 23  1  0
 48 40  1  0
 16  7  1  0
M  END
>  <UniqueID>  (17) 
23

>  <SMILES>  (17) 
O=c1c2ccccc2nc(/C=C/c2cccnc2)n1CC1CCCCC1

>  <Energy>  (17) 
68.21045762368858

>  <Genealogy>  (17) 
O=c1c2ccccc2nc(/C=C/c2cccnc2)n1CC1CCCCC1 (cis-trans isomerization)
O=c1c2ccccc2nc(/C=C/c2cccnc2)n1CC1CCCCC1 (3D coordinates assigned)
O=c1c2ccccc2nc(/C=C/c2cccnc2)n1CC1CCCCC1 (nonaromatic ring conformer: 68.21045762368858 kcal/mol)

>  <smiles>  (17) 
O=c1c2ccccc2nc(/C=C/c2cccnc2)n1CC1CCCCC1

>  <score_type>  (17) 
oracle

>  <origin>  (17) 
autodockgpu

>  <m_score__min__energy>  (17) 
-7.2300000000000004

>  <m_primary>  (17) 
energy

>  <meeko>  (17) 
{"free_energy": -7.13, "intermolecular_energy": -8.63, "internal_energy": -1.31, "cluster_size": 5, "cluster_id": 1, "rank_in_cluster": 3}

>  <energy>  (17) 
-7.02

>  <cluster_rmsd>  (17) 
0.0

>  <rmsd>  (17) 
269.12

>  <cluster>  (17) 
5

$$$$
XUFANRSCLZKORJ-OUKQBFOZNA-N
     RDKit          3D

 49 52  0  0  0  0  0  0  0  0999 V2000
  134.8786   70.1322  223.4033 H   0  0  0  0  0  0  0  0  0  0  0  0
  135.4440   70.6410  224.1980 C   0  0  0  0  0  0  0  0  0  0  0  0
  136.7830   70.5690  224.1670 C   0  0  0  0  0  0  0  0  0  0  0  0
  137.2946   69.7677  224.7203 H   0  0  0  0  0  0  0  0  0  0  0  0
  137.5850   71.5520  223.3990 C   0  0  0  0  0  0  0  0  0  0  0  0
  136.9040   72.5070  222.7100 N   0  0  0  0  0  0  0  0  0  0  0  0
  137.5310   73.4760  222.0080 C   0  0  0  0  0  0  0  0  0  0  0  0
  136.7830   74.4360  221.3170 C   0  0  0  0  0  0  0  0  0  0  0  0
  135.6839   74.3944  221.3348 H   0  0  0  0  0  0  0  0  0  0  0  0
  137.4330   75.4480  220.6040 C   0  0  0  0  0  0  0  0  0  0  0  0
  136.8448   76.2016  220.0599 H   0  0  0  0  0  0  0  0  0  0  0  0
  138.8290   75.5030  220.5820 C   0  0  0  0  0  0  0  0  0  0  0  0
  139.3376   76.3001  220.0199 H   0  0  0  0  0  0  0  0  0  0  0  0
  139.5820   74.5470  221.2730 C   0  0  0  0  0  0  0  0  0  0  0  0
  140.6808   74.5943  221.2547 H   0  0  0  0  0  0  0  0  0  0  0  0
  138.9330   73.5240  221.9920 C   0  0  0  0  0  0  0  0  0  0  0  0
  139.6390   72.5380  222.7010 C   0  0  0  0  0  0  0  0  0  0  0  0
  140.9020   72.5810  222.7180 O   0  0  0  0  0  0  0  0  0  0  0  0
  138.9680   71.5380  223.3730 N   0  0  0  0  0  0  0  0  0  0  0  0
  139.7540   70.4630  224.0340 C   0  0  0  0  0  0  0  0  0  0  0  0
  139.2587   69.5008  223.8369 H   0  0  0  0  0  0  0  0  0  0  0  0
  140.7707   70.5082  223.6165 H   0  0  0  0  0  0  0  0  0  0  0  0
  139.8900   70.6370  225.5710 C   0  0  0  0  0  0  0  0  0  0  0  0
  138.9666   71.1589  225.8624 H   0  0  0  0  0  0  0  0  0  0  0  0
  141.0820   71.5220  225.9780 C   0  0  0  0  0  0  0  0  0  0  0  0
  142.0156   70.9854  225.7534 H   0  0  0  0  0  0  0  0  0  0  0  0
  141.0166   72.4619  225.4103 H   0  0  0  0  0  0  0  0  0  0  0  0
  141.0570   71.8710  227.4830 C   0  0  0  0  0  0  0  0  0  0  0  0
  142.0905   71.8578  227.8595 H   0  0  0  0  0  0  0  0  0  0  0  0
  140.5888   72.8621  227.5748 H   0  0  0  0  0  0  0  0  0  0  0  0
  140.2170   70.8960  228.3330 C   0  0  0  0  0  0  0  0  0  0  0  0
  140.5647   70.9403  229.3756 H   0  0  0  0  0  0  0  0  0  0  0  0
  139.1612   71.1956  228.2587 H   0  0  0  0  0  0  0  0  0  0  0  0
  140.3440   69.4560  227.8270 C   0  0  0  0  0  0  0  0  0  0  0  0
  141.3916   69.1380  227.9334 H   0  0  0  0  0  0  0  0  0  0  0  0
  139.6636   68.8346  228.4278 H   0  0  0  0  0  0  0  0  0  0  0  0
  139.9290   69.2980  226.3460 C   0  0  0  0  0  0  0  0  0  0  0  0
  140.6497   68.6301  225.8515 H   0  0  0  0  0  0  0  0  0  0  0  0
  138.9080   68.8886  226.3374 H   0  0  0  0  0  0  0  0  0  0  0  0
  134.6830   71.3670  225.2420 C   0  0  0  0  0  0  0  0  0  0  0  0
  134.6400   72.7740  225.3140 C   0  0  0  0  0  0  0  0  0  0  0  0
  135.1981   73.3775  224.5830 H   0  0  0  0  0  0  0  0  0  0  0  0
  133.9110   73.3880  226.2840 N   0  0  0  0  0  0  0  0  0  0  0  0
  133.2060   72.6830  227.2050 C   0  0  0  0  0  0  0  0  0  0  0  0
  132.6345   73.2114  227.9823 H   0  0  0  0  0  0  0  0  0  0  0  0
  133.2060   71.2870  227.1660 C   0  0  0  0  0  0  0  0  0  0  0  0
  132.6324   70.7105  227.9067 H   0  0  0  0  0  0  0  0  0  0  0  0
  133.9410   70.6310  226.1780 C   0  0  0  0  0  0  0  0  0  0  0  0
  133.9387   69.5319  226.1327 H   0  0  0  0  0  0  0  0  0  0  0  0
  1  2  1  0
  2  3  2  0
  3  4  1  0
  3  5  1  0
  5  6  2  0
  6  7  1  0
  7  8  2  0
  8  9  1  0
  8 10  1  0
 10 11  1  0
 10 12  2  0
 12 13  1  0
 12 14  1  0
 14 15  1  0
 14 16  2  0
 16 17  1  0
 17 18  2  0
 17 19  1  0
 19 20  1  0
 20 21  1  0
 20 22  1  0
 20 23  1  0
 23 24  1  0
 23 25  1  0
 25 26  1  0
 25 27  1  0
 25 28  1  0
 28 29  1  0
 28 30  1  0
 28 31  1  0
 31 32  1  0
 31 33  1  0
 31 34  1  0
 34 35  1  0
 34 36  1  0
 34 37  1  0
 37 38  1  0
 37 39  1  0
  2 40  1  0
 40 41  2  0
 41 42  1  0
 41 43  1  0
 43 44  2  0
 44 45  1  0
 44 46  1  0
 46 47  1  0
 46 48  2  0
 48 49  1  0
 19  5  1  0
 37 23  1  0
 48 40  1  0
 16  7  1  0
M  END
>  <UniqueID>  (18) 
23

>  <SMILES>  (18) 
O=c1c2ccccc2nc(/C=C/c2cccnc2)n1CC1CCCCC1

>  <Energy>  (18) 
68.21045762368858

>  <Genealogy>  (18) 
O=c1c2ccccc2nc(/C=C/c2cccnc2)n1CC1CCCCC1 (cis-trans isomerization)
O=c1c2ccccc2nc(/C=C/c2cccnc2)n1CC1CCCCC1 (3D coordinates assigned)
O=c1c2ccccc2nc(/C=C/c2cccnc2)n1CC1CCCCC1 (nonaromatic ring conformer: 68.21045762368858 kcal/mol)

>  <smiles>  (18) 
O=c1c2ccccc2nc(/C=C/c2cccnc2)n1CC1CCCCC1

>  <score_type>  (18) 
oracle

>  <origin>  (18) 
autodockgpu

>  <m_score__min__energy>  (18) 
-7.2300000000000004

>  <m_primary>  (18) 
energy

>  <meeko>  (18) 
{"free_energy": -7.02, "intermolecular_energy": -8.52, "internal_energy": -1.23, "cluster_size": 1, "cluster_id": 5, "rank_in_cluster": 1}

>  <energy>  (18) 
-6.85

>  <cluster_rmsd>  (18) 
0.0

>  <rmsd>  (18) 
269.49

>  <cluster>  (18) 
6

$$$$
XUFANRSCLZKORJ-OUKQBFOZNA-N
     RDKit          3D

 49 52  0  0  0  0  0  0  0  0999 V2000
  137.3480   71.6070  221.7296 H   0  0  0  0  0  0  0  0  0  0  0  0
  138.4180   71.7610  221.9330 C   0  0  0  0  0  0  0  0  0  0  0  0
  139.1830   70.6800  222.1440 C   0  0  0  0  0  0  0  0  0  0  0  0
  139.5933   70.1313  221.2834 H   0  0  0  0  0  0  0  0  0  0  0  0
  139.4850   70.2120  223.5190 C   0  0  0  0  0  0  0  0  0  0  0  0
  140.0100   71.1210  224.3840 N   0  0  0  0  0  0  0  0  0  0  0  0
  140.2880   70.8160  225.6700 C   0  0  0  0  0  0  0  0  0  0  0  0
  140.8260   71.7890  226.5200 C   0  0  0  0  0  0  0  0  0  0  0  0
  141.0347   72.7990  226.1375 H   0  0  0  0  0  0  0  0  0  0  0  0
  141.0980   71.4770  227.8550 C   0  0  0  0  0  0  0  0  0  0  0  0
  141.5227   72.2414  228.5223 H   0  0  0  0  0  0  0  0  0  0  0  0
  140.8310   70.1950  228.3430 C   0  0  0  0  0  0  0  0  0  0  0  0
  141.0460   69.9522  229.3941 H   0  0  0  0  0  0  0  0  0  0  0  0
  140.2910   69.2200  227.4980 C   0  0  0  0  0  0  0  0  0  0  0  0
  140.0816   68.2122  227.8860 H   0  0  0  0  0  0  0  0  0  0  0  0
  140.0150   69.5260  226.1520 C   0  0  0  0  0  0  0  0  0  0  0  0
  139.4750   68.5850  225.2600 C   0  0  0  0  0  0  0  0  0  0  0  0
  139.2010   67.4270  225.6840 O   0  0  0  0  0  0  0  0  0  0  0  0
  139.2430   68.9170  223.9420 N   0  0  0  0  0  0  0  0  0  0  0  0
  138.7560   67.8650  223.0100 C   0  0  0  0  0  0  0  0  0  0  0  0
  139.3421   67.9267  222.0812 H   0  0  0  0  0  0  0  0  0  0  0  0
  138.8800   66.9005  223.5241 H   0  0  0  0  0  0  0  0  0  0  0  0
  137.2510   67.9930  222.6480 C   0  0  0  0  0  0  0  0  0  0  0  0
  136.8508   66.9809  222.8075 H   0  0  0  0  0  0  0  0  0  0  0  0
  137.0120   68.3690  221.1740 C   0  0  0  0  0  0  0  0  0  0  0  0
  137.3466   69.4044  221.0127 H   0  0  0  0  0  0  0  0  0  0  0  0
  137.5797   67.6655  220.5472 H   0  0  0  0  0  0  0  0  0  0  0  0
  135.5210   68.2600  220.7840 C   0  0  0  0  0  0  0  0  0  0  0  0
  135.2791   69.0890  220.1026 H   0  0  0  0  0  0  0  0  0  0  0  0
  135.3838   67.2751  220.3137 H   0  0  0  0  0  0  0  0  0  0  0  0
  134.5580   68.3220  221.9860 C   0  0  0  0  0  0  0  0  0  0  0  0
  133.5687   68.6503  221.6345 H   0  0  0  0  0  0  0  0  0  0  0  0
  134.5022   67.3192  222.4346 H   0  0  0  0  0  0  0  0  0  0  0  0
  135.0550   69.2990  223.0560 C   0  0  0  0  0  0  0  0  0  0  0  0
  135.0785   70.3104  222.6240 H   0  0  0  0  0  0  0  0  0  0  0  0
  134.3634   69.2341  223.9090 H   0  0  0  0  0  0  0  0  0  0  0  0
  136.4700   68.9520  223.5780 C   0  0  0  0  0  0  0  0  0  0  0  0
  137.0435   69.8854  223.6770 H   0  0  0  0  0  0  0  0  0  0  0  0
  136.3430   68.4373  224.5418 H   0  0  0  0  0  0  0  0  0  0  0  0
  138.9310   73.1510  221.9580 C   0  0  0  0  0  0  0  0  0  0  0  0
  140.3070   73.4550  221.9600 C   0  0  0  0  0  0  0  0  0  0  0  0
  141.0483   72.6423  221.9559 H   0  0  0  0  0  0  0  0  0  0  0  0
  140.7210   74.7510  221.9670 N   0  0  0  0  0  0  0  0  0  0  0  0
  139.8420   75.7850  221.9680 C   0  0  0  0  0  0  0  0  0  0  0  0
  140.2116   76.8210  221.9814 H   0  0  0  0  0  0  0  0  0  0  0  0
  138.4690   75.5340  221.9520 C   0  0  0  0  0  0  0  0  0  0  0  0
  137.7518   76.3681  221.9496 H   0  0  0  0  0  0  0  0  0  0  0  0
  138.0150   74.2140  221.9390 C   0  0  0  0  0  0  0  0  0  0  0  0
  136.9351   74.0063  221.9138 H   0  0  0  0  0  0  0  0  0  0  0  0
  1  2  1  0
  2  3  2  0
  3  4  1  0
  3  5  1  0
  5  6  2  0
  6  7  1  0
  7  8  2  0
  8  9  1  0
  8 10  1  0
 10 11  1  0
 10 12  2  0
 12 13  1  0
 12 14  1  0
 14 15  1  0
 14 16  2  0
 16 17  1  0
 17 18  2  0
 17 19  1  0
 19 20  1  0
 20 21  1  0
 20 22  1  0
 20 23  1  0
 23 24  1  0
 23 25  1  0
 25 26  1  0
 25 27  1  0
 25 28  1  0
 28 29  1  0
 28 30  1  0
 28 31  1  0
 31 32  1  0
 31 33  1  0
 31 34  1  0
 34 35  1  0
 34 36  1  0
 34 37  1  0
 37 38  1  0
 37 39  1  0
  2 40  1  0
 40 41  2  0
 41 42  1  0
 41 43  1  0
 43 44  2  0
 44 45  1  0
 44 46  1  0
 46 47  1  0
 46 48  2  0
 48 49  1  0
 19  5  1  0
 37 23  1  0
 48 40  1  0
 16  7  1  0
M  END
>  <UniqueID>  (19) 
23

>  <SMILES>  (19) 
O=c1c2ccccc2nc(/C=C/c2cccnc2)n1CC1CCCCC1

>  <Energy>  (19) 
68.21045762368858

>  <Genealogy>  (19) 
O=c1c2ccccc2nc(/C=C/c2cccnc2)n1CC1CCCCC1 (cis-trans isomerization)
O=c1c2ccccc2nc(/C=C/c2cccnc2)n1CC1CCCCC1 (3D coordinates assigned)
O=c1c2ccccc2nc(/C=C/c2cccnc2)n1CC1CCCCC1 (nonaromatic ring conformer: 68.21045762368858 kcal/mol)

>  <smiles>  (19) 
O=c1c2ccccc2nc(/C=C/c2cccnc2)n1CC1CCCCC1

>  <score_type>  (19) 
oracle

>  <origin>  (19) 
autodockgpu

>  <m_score__min__energy>  (19) 
-7.2300000000000004

>  <m_primary>  (19) 
energy

>  <meeko>  (19) 
{"free_energy": -6.99, "intermolecular_energy": -8.49, "internal_energy": -1.44, "cluster_size": 5, "cluster_id": 1, "rank_in_cluster": 4}

>  <energy>  (19) 
-6.82

>  <cluster_rmsd>  (19) 
0.0

>  <rmsd>  (19) 
268.43

>  <cluster>  (19) 
7

$$$$
XUFANRSCLZKORJ-OUKQBFOZNA-N
     RDKit          3D

 49 52  0  0  0  0  0  0  0  0999 V2000
  143.6813   76.1007  218.1977 H   0  0  0  0  0  0  0  0  0  0  0  0
  143.5950   75.6580  219.2010 C   0  0  0  0  0  0  0  0  0  0  0  0
  142.7240   76.2060  220.0610 C   0  0  0  0  0  0  0  0  0  0  0  0
  142.8443   77.2592  220.3547 H   0  0  0  0  0  0  0  0  0  0  0  0
  141.6010   75.4160  220.6230 C   0  0  0  0  0  0  0  0  0  0  0  0
  141.8270   74.0950  220.8570 N   0  0  0  0  0  0  0  0  0  0  0  0
  140.8910   73.2880  221.4010 C   0  0  0  0  0  0  0  0  0  0  0  0
  141.1740   71.9350  221.6230 C   0  0  0  0  0  0  0  0  0  0  0  0
  142.1554   71.5254  221.3417 H   0  0  0  0  0  0  0  0  0  0  0  0
  140.2100   71.1040  222.2020 C   0  0  0  0  0  0  0  0  0  0  0  0
  140.4327   70.0407  222.3748 H   0  0  0  0  0  0  0  0  0  0  0  0
  138.9640   71.6240  222.5610 C   0  0  0  0  0  0  0  0  0  0  0  0
  138.2068   70.9684  223.0158 H   0  0  0  0  0  0  0  0  0  0  0  0
  138.6760   72.9760  222.3440 C   0  0  0  0  0  0  0  0  0  0  0  0
  137.6942   73.3815  222.6298 H   0  0  0  0  0  0  0  0  0  0  0  0
  139.6420   73.8180  221.7600 C   0  0  0  0  0  0  0  0  0  0  0  0
  139.4050   75.1810  221.5180 C   0  0  0  0  0  0  0  0  0  0  0  0
  138.2950   75.6800  221.8570 O   0  0  0  0  0  0  0  0  0  0  0  0
  140.3680   75.9680  220.9210 N   0  0  0  0  0  0  0  0  0  0  0  0
  140.0430   77.3820  220.6000 C   0  0  0  0  0  0  0  0  0  0  0  0
  140.4516   77.6141  219.6054 H   0  0  0  0  0  0  0  0  0  0  0  0
  138.9476   77.4746  220.6386 H   0  0  0  0  0  0  0  0  0  0  0  0
  140.6180   78.4060  221.6160 C   0  0  0  0  0  0  0  0  0  0  0  0
  139.7734   79.0804  221.8205 H   0  0  0  0  0  0  0  0  0  0  0  0
  141.7690   79.2510  221.0410 C   0  0  0  0  0  0  0  0  0  0  0  0
  142.6450   78.6028  220.8912 H   0  0  0  0  0  0  0  0  0  0  0  0
  141.4287   79.6862  220.0898 H   0  0  0  0  0  0  0  0  0  0  0  0
  142.1620   80.4110  221.9830 C   0  0  0  0  0  0  0  0  0  0  0  0
  143.2555   80.5266  221.9533 H   0  0  0  0  0  0  0  0  0  0  0  0
  141.6340   81.3072  221.6252 H   0  0  0  0  0  0  0  0  0  0  0  0
  141.7360   80.1940  223.4480 C   0  0  0  0  0  0  0  0  0  0  0  0
  142.3761   80.8060  224.1005 H   0  0  0  0  0  0  0  0  0  0  0  0
  140.6805   80.4874  223.5469 H   0  0  0  0  0  0  0  0  0  0  0  0
  141.8660   78.7250  223.8600 C   0  0  0  0  0  0  0  0  0  0  0  0
  142.9256   78.4359  223.7990 H   0  0  0  0  0  0  0  0  0  0  0  0
  141.4748   78.6338  224.8840 H   0  0  0  0  0  0  0  0  0  0  0  0
  141.0420   77.7720  222.9620 C   0  0  0  0  0  0  0  0  0  0  0  0
  141.6501   76.8800  222.7506 H   0  0  0  0  0  0  0  0  0  0  0  0
  140.1198   77.5277  223.5096 H   0  0  0  0  0  0  0  0  0  0  0  0
  144.4480   74.4900  219.5250 C   0  0  0  0  0  0  0  0  0  0  0  0
  144.8170   73.5270  218.5650 C   0  0  0  0  0  0  0  0  0  0  0  0
  144.4577   73.6192  217.5294 H   0  0  0  0  0  0  0  0  0  0  0  0
  145.6160   72.4840  218.9150 N   0  0  0  0  0  0  0  0  0  0  0  0
  146.0840   72.3330  220.1800 C   0  0  0  0  0  0  0  0  0  0  0  0
  146.7218   71.4726  220.4307 H   0  0  0  0  0  0  0  0  0  0  0  0
  145.7570   73.2680  221.1630 C   0  0  0  0  0  0  0  0  0  0  0  0
  146.1365   73.1521  222.1889 H   0  0  0  0  0  0  0  0  0  0  0  0
  144.9430   74.3520  220.8300 C   0  0  0  0  0  0  0  0  0  0  0  0
  144.6887   75.1011  221.5943 H   0  0  0  0  0  0  0  0  0  0  0  0
  1  2  1  0
  2  3  2  0
  3  4  1  0
  3  5  1  0
  5  6  2  0
  6  7  1  0
  7  8  2  0
  8  9  1  0
  8 10  1  0
 10 11  1  0
 10 12  2  0
 12 13  1  0
 12 14  1  0
 14 15  1  0
 14 16  2  0
 16 17  1  0
 17 18  2  0
 17 19  1  0
 19 20  1  0
 20 21  1  0
 20 22  1  0
 20 23  1  0
 23 24  1  0
 23 25  1  0
 25 26  1  0
 25 27  1  0
 25 28  1  0
 28 29  1  0
 28 30  1  0
 28 31  1  0
 31 32  1  0
 31 33  1  0
 31 34  1  0
 34 35  1  0
 34 36  1  0
 34 37  1  0
 37 38  1  0
 37 39  1  0
  2 40  1  0
 40 41  2  0
 41 42  1  0
 41 43  1  0
 43 44  2  0
 44 45  1  0
 44 46  1  0
 46 47  1  0
 46 48  2  0
 48 49  1  0
 19  5  1  0
 37 23  1  0
 48 40  1  0
 16  7  1  0
M  END
>  <UniqueID>  (20) 
23

>  <SMILES>  (20) 
O=c1c2ccccc2nc(/C=C/c2cccnc2)n1CC1CCCCC1

>  <Energy>  (20) 
68.21045762368858

>  <Genealogy>  (20) 
O=c1c2ccccc2nc(/C=C/c2cccnc2)n1CC1CCCCC1 (cis-trans isomerization)
O=c1c2ccccc2nc(/C=C/c2cccnc2)n1CC1CCCCC1 (3D coordinates assigned)
O=c1c2ccccc2nc(/C=C/c2cccnc2)n1CC1CCCCC1 (nonaromatic ring conformer: 68.21045762368858 kcal/mol)

>  <smiles>  (20) 
O=c1c2ccccc2nc(/C=C/c2cccnc2)n1CC1CCCCC1

>  <score_type>  (20) 
oracle

>  <origin>  (20) 
autodockgpu

>  <m_score__min__energy>  (20) 
-7.2300000000000004

>  <m_primary>  (20) 
energy

>  <meeko>  (20) 
{"free_energy": -6.94, "intermolecular_energy": -8.43, "internal_energy": -1.45, "cluster_size": 2, "cluster_id": 3, "rank_in_cluster": 2}

>  <energy>  (20) 
-6.35

>  <cluster_rmsd>  (20) 
0.0

>  <rmsd>  (20) 
270.03

>  <cluster>  (20) 
8

$$$$
XUFANRSCLZKORJ-OUKQBFOZNA-N
     RDKit          3D

 49 52  0  0  0  0  0  0  0  0999 V2000
  135.7750   69.0687  222.0955 H   0  0  0  0  0  0  0  0  0  0  0  0
  136.2200   69.0150  223.1000 C   0  0  0  0  0  0  0  0  0  0  0  0
  137.4820   68.5740  223.2100 C   0  0  0  0  0  0  0  0  0  0  0  0
  137.8490   67.8057  222.5136 H   0  0  0  0  0  0  0  0  0  0  0  0
  138.3910   69.1050  224.2550 C   0  0  0  0  0  0  0  0  0  0  0  0
  138.6750   68.2880  225.3050 N   0  0  0  0  0  0  0  0  0  0  0  0
  139.5200   68.6530  226.2940 C   0  0  0  0  0  0  0  0  0  0  0  0
  139.7790   67.7740  227.3530 C   0  0  0  0  0  0  0  0  0  0  0  0
  139.2847   66.7919  227.3862 H   0  0  0  0  0  0  0  0  0  0  0  0
  140.6660   68.1450  228.3680 C   0  0  0  0  0  0  0  0  0  0  0  0
  140.8682   67.4553  229.2007 H   0  0  0  0  0  0  0  0  0  0  0  0
  141.2960   69.3920  228.3250 C   0  0  0  0  0  0  0  0  0  0  0  0
  141.9930   69.6820  229.1251 H   0  0  0  0  0  0  0  0  0  0  0  0
  141.0430   70.2720  227.2680 C   0  0  0  0  0  0  0  0  0  0  0  0
  141.5429   71.2514  227.2371 H   0  0  0  0  0  0  0  0  0  0  0  0
  140.1490   69.9060  226.2430 C   0  0  0  0  0  0  0  0  0  0  0  0
  139.8570   70.7510  225.1600 C   0  0  0  0  0  0  0  0  0  0  0  0
  140.4330   71.8730  225.0860 O   0  0  0  0  0  0  0  0  0  0  0  0
  138.9570   70.3660  224.1890 N   0  0  0  0  0  0  0  0  0  0  0  0
  138.6070   71.3270  223.1100 C   0  0  0  0  0  0  0  0  0  0  0  0
  137.9480   70.8167  222.3921 H   0  0  0  0  0  0  0  0  0  0  0  0
  138.1197   72.1864  223.5937 H   0  0  0  0  0  0  0  0  0  0  0  0
  139.8350   71.8810  222.3380 C   0  0  0  0  0  0  0  0  0  0  0  0
  140.6390   71.8908  223.0886 H   0  0  0  0  0  0  0  0  0  0  0  0
  139.6380   73.3230  221.8390 C   0  0  0  0  0  0  0  0  0  0  0  0
  138.8821   73.3222  221.0399 H   0  0  0  0  0  0  0  0  0  0  0  0
  139.3139   73.9367  222.6925 H   0  0  0  0  0  0  0  0  0  0  0  0
  140.9480   73.9280  221.2860 C   0  0  0  0  0  0  0  0  0  0  0  0
  140.7024   74.5423  220.4072 H   0  0  0  0  0  0  0  0  0  0  0  0
  141.3972   74.5171  222.0991 H   0  0  0  0  0  0  0  0  0  0  0  0
  141.9910   72.8740  220.8660 C   0  0  0  0  0  0  0  0  0  0  0  0
  142.6772   73.3231  220.1329 H   0  0  0  0  0  0  0  0  0  0  0  0
  142.5347   72.5502  221.7658 H   0  0  0  0  0  0  0  0  0  0  0  0
  141.3280   71.6440  220.2380 C   0  0  0  0  0  0  0  0  0  0  0  0
  140.8138   71.9545  219.3165 H   0  0  0  0  0  0  0  0  0  0  0  0
  142.1208   70.9085  220.0365 H   0  0  0  0  0  0  0  0  0  0  0  0
  140.2980   70.9710  221.1750 C   0  0  0  0  0  0  0  0  0  0  0  0
  139.4164   70.6911  220.5796 H   0  0  0  0  0  0  0  0  0  0  0  0
  140.7921   70.0971  221.6247 H   0  0  0  0  0  0  0  0  0  0  0  0
  135.3910   69.4340  224.2550 C   0  0  0  0  0  0  0  0  0  0  0  0
  134.6800   68.5180  225.0560 C   0  0  0  0  0  0  0  0  0  0  0  0
  134.7177   67.4432  224.8248 H   0  0  0  0  0  0  0  0  0  0  0  0
  133.9480   68.9580  226.1130 N   0  0  0  0  0  0  0  0  0  0  0  0
  133.8760   70.2750  226.4370 C   0  0  0  0  0  0  0  0  0  0  0  0
  133.2675   70.5978  227.2946 H   0  0  0  0  0  0  0  0  0  0  0  0
  134.5740   71.2190  225.6820 C   0  0  0  0  0  0  0  0  0  0  0  0
  134.5223   72.2866  225.9421 H   0  0  0  0  0  0  0  0  0  0  0  0
  135.3380   70.7950  224.5940 C   0  0  0  0  0  0  0  0  0  0  0  0
  135.9007   71.5301  223.9998 H   0  0  0  0  0  0  0  0  0  0  0  0
  1  2  1  0
  2  3  2  0
  3  4  1  0
  3  5  1  0
  5  6  2  0
  6  7  1  0
  7  8  2  0
  8  9  1  0
  8 10  1  0
 10 11  1  0
 10 12  2  0
 12 13  1  0
 12 14  1  0
 14 15  1  0
 14 16  2  0
 16 17  1  0
 17 18  2  0
 17 19  1  0
 19 20  1  0
 20 21  1  0
 20 22  1  0
 20 23  1  0
 23 24  1  0
 23 25  1  0
 25 26  1  0
 25 27  1  0
 25 28  1  0
 28 29  1  0
 28 30  1  0
 28 31  1  0
 31 32  1  0
 31 33  1  0
 31 34  1  0
 34 35  1  0
 34 36  1  0
 34 37  1  0
 37 38  1  0
 37 39  1  0
  2 40  1  0
 40 41  2  0
 41 42  1  0
 41 43  1  0
 43 44  2  0
 44 45  1  0
 44 46  1  0
 46 47  1  0
 46 48  2  0
 48 49  1  0
 19  5  1  0
 37 23  1  0
 48 40  1  0
 16  7  1  0
M  END
>  <UniqueID>  (21) 
24

>  <SMILES>  (21) 
O=c1c2ccccc2nc(/C=C/c2cccnc2)n1CC1CCCCC1

>  <Energy>  (21) 
68.23381780461015

>  <Genealogy>  (21) 
O=c1c2ccccc2nc(/C=C/c2cccnc2)n1CC1CCCCC1 (cis-trans isomerization)
O=c1c2ccccc2nc(/C=C/c2cccnc2)n1CC1CCCCC1 (3D coordinates assigned)
O=c1c2ccccc2nc(/C=C/c2cccnc2)n1CC1CCCCC1 (nonaromatic ring conformer: 68.23381780461015 kcal/mol)

>  <smiles>  (21) 
O=c1c2ccccc2nc(/C=C/c2cccnc2)n1CC1CCCCC1

>  <score_type>  (21) 
oracle

>  <origin>  (21) 
autodockgpu

>  <m_score__min__energy>  (21) 
-7.2300000000000004

>  <m_primary>  (21) 
energy

>  <meeko>  (21) 
{"free_energy": -7.09, "intermolecular_energy": -8.59, "internal_energy": -1.38, "cluster_size": 8, "cluster_id": 2, "rank_in_cluster": 3}

>  <energy>  (21) 
-7.23

>  <cluster_rmsd>  (21) 
0.0

>  <rmsd>  (21) 
268.78

>  <cluster>  (21) 
1

$$$$
XUFANRSCLZKORJ-OUKQBFOZNA-N
     RDKit          3D

 49 52  0  0  0  0  0  0  0  0999 V2000
  136.0101   71.7596  222.3223 H   0  0  0  0  0  0  0  0  0  0  0  0
  136.4890   70.9880  222.9430 C   0  0  0  0  0  0  0  0  0  0  0  0
  137.8250   70.8770  222.8950 C   0  0  0  0  0  0  0  0  0  0  0  0
  138.3684   71.2627  222.0198 H   0  0  0  0  0  0  0  0  0  0  0  0
  138.5820   70.2430  224.0020 C   0  0  0  0  0  0  0  0  0  0  0  0
  139.1440   71.0710  224.9240 N   0  0  0  0  0  0  0  0  0  0  0  0
  139.8220   70.6030  225.9940 C   0  0  0  0  0  0  0  0  0  0  0  0
  140.3810   71.4970  226.9150 C   0  0  0  0  0  0  0  0  0  0  0  0
  140.2788   72.5813  226.7604 H   0  0  0  0  0  0  0  0  0  0  0  0
  141.0690   71.0120  228.0310 C   0  0  0  0  0  0  0  0  0  0  0  0
  141.5093   71.7151  228.7533 H   0  0  0  0  0  0  0  0  0  0  0  0
  141.1980   69.6350  228.2300 C   0  0  0  0  0  0  0  0  0  0  0  0
  141.7403   69.2560  229.1088 H   0  0  0  0  0  0  0  0  0  0  0  0
  140.6390   68.7370  227.3140 C   0  0  0  0  0  0  0  0  0  0  0  0
  140.7409   67.6536  227.4751 H   0  0  0  0  0  0  0  0  0  0  0  0
  139.9460   69.2180  226.1860 C   0  0  0  0  0  0  0  0  0  0  0  0
  139.3680   68.3620  225.2350 C   0  0  0  0  0  0  0  0  0  0  0  0
  139.4490   67.1120  225.4060 O   0  0  0  0  0  0  0  0  0  0  0  0
  138.7190   68.8720  224.1310 N   0  0  0  0  0  0  0  0  0  0  0  0
  138.2010   67.9320  223.1020 C   0  0  0  0  0  0  0  0  0  0  0  0
  137.9659   66.9762  223.5930 H   0  0  0  0  0  0  0  0  0  0  0  0
  137.3150   68.4055  222.6538 H   0  0  0  0  0  0  0  0  0  0  0  0
  139.1980   67.6550  221.9450 C   0  0  0  0  0  0  0  0  0  0  0  0
  140.1749   67.9423  222.3610 H   0  0  0  0  0  0  0  0  0  0  0  0
  138.9410   68.5240  220.7010 C   0  0  0  0  0  0  0  0  0  0  0  0
  137.9973   68.2053  220.2342 H   0  0  0  0  0  0  0  0  0  0  0  0
  138.8905   69.5740  221.0251 H   0  0  0  0  0  0  0  0  0  0  0  0
  140.0780   68.4000  219.6620 C   0  0  0  0  0  0  0  0  0  0  0  0
  139.6320   68.4088  218.6565 H   0  0  0  0  0  0  0  0  0  0  0  0
  140.7581   69.2487  219.8272 H   0  0  0  0  0  0  0  0  0  0  0  0
  140.9170   67.1150  219.8110 C   0  0  0  0  0  0  0  0  0  0  0  0
  141.3994   66.8899  218.8484 H   0  0  0  0  0  0  0  0  0  0  0  0
  141.6683   67.2835  220.5966 H   0  0  0  0  0  0  0  0  0  0  0  0
  140.0510   65.9220  220.2240 C   0  0  0  0  0  0  0  0  0  0  0  0
  139.3201   65.7261  219.4257 H   0  0  0  0  0  0  0  0  0  0  0  0
  140.7233   65.0661  220.3833 H   0  0  0  0  0  0  0  0  0  0  0  0
  139.2850   66.1620  221.5460 C   0  0  0  0  0  0  0  0  0  0  0  0
  138.2629   65.7715  221.4324 H   0  0  0  0  0  0  0  0  0  0  0  0
  139.8419   65.6456  222.3418 H   0  0  0  0  0  0  0  0  0  0  0  0
  135.6210   70.1300  223.7850 C   0  0  0  0  0  0  0  0  0  0  0  0
  135.1860   68.8540  223.3770 C   0  0  0  0  0  0  0  0  0  0  0  0
  135.4802   68.4635  222.3916 H   0  0  0  0  0  0  0  0  0  0  0  0
  134.4030   68.1030  224.1980 N   0  0  0  0  0  0  0  0  0  0  0  0
  134.0200   68.5450  225.4240 C   0  0  0  0  0  0  0  0  0  0  0  0
  133.3801   67.9158  226.0600 H   0  0  0  0  0  0  0  0  0  0  0  0
  134.4380   69.7970  225.8770 C   0  0  0  0  0  0  0  0  0  0  0  0
  134.1337   70.1584  226.8704 H   0  0  0  0  0  0  0  0  0  0  0  0
  135.2460   70.5860  225.0570 C   0  0  0  0  0  0  0  0  0  0  0  0
  135.5900   71.5694  225.4099 H   0  0  0  0  0  0  0  0  0  0  0  0
  1  2  1  0
  2  3  2  0
  3  4  1  0
  3  5  1  0
  5  6  2  0
  6  7  1  0
  7  8  2  0
  8  9  1  0
  8 10  1  0
 10 11  1  0
 10 12  2  0
 12 13  1  0
 12 14  1  0
 14 15  1  0
 14 16  2  0
 16 17  1  0
 17 18  2  0
 17 19  1  0
 19 20  1  0
 20 21  1  0
 20 22  1  0
 20 23  1  0
 23 24  1  0
 23 25  1  0
 25 26  1  0
 25 27  1  0
 25 28  1  0
 28 29  1  0
 28 30  1  0
 28 31  1  0
 31 32  1  0
 31 33  1  0
 31 34  1  0
 34 35  1  0
 34 36  1  0
 34 37  1  0
 37 38  1  0
 37 39  1  0
  2 40  1  0
 40 41  2  0
 41 42  1  0
 41 43  1  0
 43 44  2  0
 44 45  1  0
 44 46  1  0
 46 47  1  0
 46 48  2  0
 48 49  1  0
 19  5  1  0
 37 23  1  0
 48 40  1  0
 16  7  1  0
M  END
>  <UniqueID>  (22) 
24

>  <SMILES>  (22) 
O=c1c2ccccc2nc(/C=C/c2cccnc2)n1CC1CCCCC1

>  <Energy>  (22) 
68.23381780461015

>  <Genealogy>  (22) 
O=c1c2ccccc2nc(/C=C/c2cccnc2)n1CC1CCCCC1 (cis-trans isomerization)
O=c1c2ccccc2nc(/C=C/c2cccnc2)n1CC1CCCCC1 (3D coordinates assigned)
O=c1c2ccccc2nc(/C=C/c2cccnc2)n1CC1CCCCC1 (nonaromatic ring conformer: 68.23381780461015 kcal/mol)

>  <smiles>  (22) 
O=c1c2ccccc2nc(/C=C/c2cccnc2)n1CC1CCCCC1

>  <score_type>  (22) 
oracle

>  <origin>  (22) 
autodockgpu

>  <m_score__min__energy>  (22) 
-7.2300000000000004

>  <m_primary>  (22) 
energy

>  <meeko>  (22) 
{"free_energy": -6.82, "intermolecular_energy": -8.31, "internal_energy": -1.58, "cluster_size": 1, "cluster_id": 7, "rank_in_cluster": 1}

>  <energy>  (22) 
-7.22

>  <cluster_rmsd>  (22) 
0.07

>  <rmsd>  (22) 
268.74

>  <cluster>  (22) 
1

$$$$
XUFANRSCLZKORJ-OUKQBFOZNA-N
     RDKit          3D

 49 52  0  0  0  0  0  0  0  0999 V2000
  135.4727   68.7296  222.2495 H   0  0  0  0  0  0  0  0  0  0  0  0
  136.0470   68.8890  223.1740 C   0  0  0  0  0  0  0  0  0  0  0  0
  137.3610   68.6190  223.1570 C   0  0  0  0  0  0  0  0  0  0  0  0
  137.7758   68.0012  222.3469 H   0  0  0  0  0  0  0  0  0  0  0  0
  138.2640   69.1400  224.2130 C   0  0  0  0  0  0  0  0  0  0  0  0
  138.5260   68.3200  225.2660 N   0  0  0  0  0  0  0  0  0  0  0  0
  139.3640   68.6740  226.2650 C   0  0  0  0  0  0  0  0  0  0  0  0
  139.6010   67.7930  227.3260 C   0  0  0  0  0  0  0  0  0  0  0  0
  139.0952   66.8166  227.3532 H   0  0  0  0  0  0  0  0  0  0  0  0
  140.4800   68.1530  228.3510 C   0  0  0  0  0  0  0  0  0  0  0  0
  140.6651   67.4605  229.1854 H   0  0  0  0  0  0  0  0  0  0  0  0
  141.1240   69.3930  228.3160 C   0  0  0  0  0  0  0  0  0  0  0  0
  141.8155   69.6746  229.1238 H   0  0  0  0  0  0  0  0  0  0  0  0
  140.8920   70.2770  227.2570 C   0  0  0  0  0  0  0  0  0  0  0  0
  141.4022   71.2512  227.2327 H   0  0  0  0  0  0  0  0  0  0  0  0
  140.0060   69.9210  226.2220 C   0  0  0  0  0  0  0  0  0  0  0  0
  139.7360   70.7700  225.1370 C   0  0  0  0  0  0  0  0  0  0  0  0
  140.3250   71.8860  225.0700 O   0  0  0  0  0  0  0  0  0  0  0  0
  138.8430   70.3950  224.1550 N   0  0  0  0  0  0  0  0  0  0  0  0
  138.5160   71.3610  223.0730 C   0  0  0  0  0  0  0  0  0  0  0  0
  137.8860   70.8493  222.3306 H   0  0  0  0  0  0  0  0  0  0  0  0
  138.0037   72.2108  223.5477 H   0  0  0  0  0  0  0  0  0  0  0  0
  139.7610   71.9350  222.3450 C   0  0  0  0  0  0  0  0  0  0  0  0
  140.5337   71.9697  223.1271 H   0  0  0  0  0  0  0  0  0  0  0  0
  139.5520   73.3680  221.8230 C   0  0  0  0  0  0  0  0  0  0  0  0
  138.8294   73.3421  220.9941 H   0  0  0  0  0  0  0  0  0  0  0  0
  139.1800   73.9821  222.6564 H   0  0  0  0  0  0  0  0  0  0  0  0
  140.8690   73.9980  221.3170 C   0  0  0  0  0  0  0  0  0  0  0  0
  140.6452   74.5990  220.4233 H   0  0  0  0  0  0  0  0  0  0  0  0
  141.2720   74.6044  222.1415 H   0  0  0  0  0  0  0  0  0  0  0  0
  141.9510   72.9640  220.9490 C   0  0  0  0  0  0  0  0  0  0  0  0
  142.6555   73.4217  220.2390 H   0  0  0  0  0  0  0  0  0  0  0  0
  142.4657   72.6609  221.8727 H   0  0  0  0  0  0  0  0  0  0  0  0
  141.3410   71.7140  220.3080 C   0  0  0  0  0  0  0  0  0  0  0  0
  140.8566   72.0047  219.3642 H   0  0  0  0  0  0  0  0  0  0  0  0
  142.1576   70.9952  220.1454 H   0  0  0  0  0  0  0  0  0  0  0  0
  140.2900   71.0250  221.2100 C   0  0  0  0  0  0  0  0  0  0  0  0
  139.4393   70.7196  220.5831 H   0  0  0  0  0  0  0  0  0  0  0  0
  140.7851   70.1663  221.6870 H   0  0  0  0  0  0  0  0  0  0  0  0
  135.3250   69.3900  224.3680 C   0  0  0  0  0  0  0  0  0  0  0  0
  134.6940   68.5330  225.2920 C   0  0  0  0  0  0  0  0  0  0  0  0
  134.7151   67.4447  225.1337 H   0  0  0  0  0  0  0  0  0  0  0  0
  134.0590   69.0480  226.3790 N   0  0  0  0  0  0  0  0  0  0  0  0
  134.0110   70.3840  226.6150 C   0  0  0  0  0  0  0  0  0  0  0  0
  133.4819   70.7675  227.4998 H   0  0  0  0  0  0  0  0  0  0  0  0
  134.6330   71.2710  225.7350 C   0  0  0  0  0  0  0  0  0  0  0  0
  134.6003   72.3543  225.9230 H   0  0  0  0  0  0  0  0  0  0  0  0
  135.2970   70.7700  224.6140 C   0  0  0  0  0  0  0  0  0  0  0  0
  135.8001   71.4604  223.9211 H   0  0  0  0  0  0  0  0  0  0  0  0
  1  2  1  0
  2  3  2  0
  3  4  1  0
  3  5  1  0
  5  6  2  0
  6  7  1  0
  7  8  2  0
  8  9  1  0
  8 10  1  0
 10 11  1  0
 10 12  2  0
 12 13  1  0
 12 14  1  0
 14 15  1  0
 14 16  2  0
 16 17  1  0
 17 18  2  0
 17 19  1  0
 19 20  1  0
 20 21  1  0
 20 22  1  0
 20 23  1  0
 23 24  1  0
 23 25  1  0
 25 26  1  0
 25 27  1  0
 25 28  1  0
 28 29  1  0
 28 30  1  0
 28 31  1  0
 31 32  1  0
 31 33  1  0
 31 34  1  0
 34 35  1  0
 34 36  1  0
 34 37  1  0
 37 38  1  0
 37 39  1  0
  2 40  1  0
 40 41  2  0
 41 42  1  0
 41 43  1  0
 43 44  2  0
 44 45  1  0
 44 46  1  0
 46 47  1  0
 46 48  2  0
 48 49  1  0
 19  5  1  0
 37 23  1  0
 48 40  1  0
 16  7  1  0
M  END
>  <UniqueID>  (23) 
24

>  <SMILES>  (23) 
O=c1c2ccccc2nc(/C=C/c2cccnc2)n1CC1CCCCC1

>  <Energy>  (23) 
68.23381780461015

>  <Genealogy>  (23) 
O=c1c2ccccc2nc(/C=C/c2cccnc2)n1CC1CCCCC1 (cis-trans isomerization)
O=c1c2ccccc2nc(/C=C/c2cccnc2)n1CC1CCCCC1 (3D coordinates assigned)
O=c1c2ccccc2nc(/C=C/c2cccnc2)n1CC1CCCCC1 (nonaromatic ring conformer: 68.23381780461015 kcal/mol)

>  <smiles>  (23) 
O=c1c2ccccc2nc(/C=C/c2cccnc2)n1CC1CCCCC1

>  <score_type>  (23) 
oracle

>  <origin>  (23) 
autodockgpu

>  <m_score__min__energy>  (23) 
-7.2300000000000004

>  <m_primary>  (23) 
energy

>  <meeko>  (23) 
{"free_energy": -7.02, "intermolecular_energy": -8.52, "internal_energy": -1.43, "cluster_size": 8, "cluster_id": 2, "rank_in_cluster": 5}

>  <energy>  (23) 
-7.13

>  <cluster_rmsd>  (23) 
0.38

>  <rmsd>  (23) 
268.82

>  <cluster>  (23) 
1

$$$$
XUFANRSCLZKORJ-OUKQBFOZNA-N
     RDKit          3D

 49 52  0  0  0  0  0  0  0  0999 V2000
  135.4873   68.7096  222.2543 H   0  0  0  0  0  0  0  0  0  0  0  0
  136.0820   68.9420  223.1500 C   0  0  0  0  0  0  0  0  0  0  0  0
  137.4050   68.7230  223.1050 C   0  0  0  0  0  0  0  0  0  0  0  0
  137.8327   68.1658  222.2585 H   0  0  0  0  0  0  0  0  0  0  0  0
  138.3000   69.2200  224.1780 C   0  0  0  0  0  0  0  0  0  0  0  0
  138.5330   68.3870  225.2290 N   0  0  0  0  0  0  0  0  0  0  0  0
  139.3610   68.7200  226.2420 C   0  0  0  0  0  0  0  0  0  0  0  0
  139.5680   67.8260  227.3000 C   0  0  0  0  0  0  0  0  0  0  0  0
  139.0460   66.8578  227.3120 H   0  0  0  0  0  0  0  0  0  0  0  0
  140.4380   68.1640  228.3410 C   0  0  0  0  0  0  0  0  0  0  0  0
  140.5992   67.4620  229.1724 H   0  0  0  0  0  0  0  0  0  0  0  0
  141.1030   69.3930  228.3260 C   0  0  0  0  0  0  0  0  0  0  0  0
  141.7871   69.6565  229.1461 H   0  0  0  0  0  0  0  0  0  0  0  0
  140.9010   70.2900  227.2700 C   0  0  0  0  0  0  0  0  0  0  0  0
  141.4268   71.2561  227.2613 H   0  0  0  0  0  0  0  0  0  0  0  0
  140.0250   69.9560  226.2190 C   0  0  0  0  0  0  0  0  0  0  0  0
  139.7850   70.8180  225.1370 C   0  0  0  0  0  0  0  0  0  0  0  0
  140.3930   71.9250  225.0880 O   0  0  0  0  0  0  0  0  0  0  0  0
  138.9010   70.4660  224.1390 N   0  0  0  0  0  0  0  0  0  0  0  0
  138.6060   71.4450  223.0600 C   0  0  0  0  0  0  0  0  0  0  0  0
  137.9397   70.9641  222.3287 H   0  0  0  0  0  0  0  0  0  0  0  0
  138.1443   72.3202  223.5405 H   0  0  0  0  0  0  0  0  0  0  0  0
  139.8670   71.9550  222.3110 C   0  0  0  0  0  0  0  0  0  0  0  0
  140.6502   71.9633  223.0834 H   0  0  0  0  0  0  0  0  0  0  0  0
  139.7170   73.3900  221.7770 C   0  0  0  0  0  0  0  0  0  0  0  0
  138.9831   73.3889  220.9576 H   0  0  0  0  0  0  0  0  0  0  0  0
  139.3845   74.0286  222.6086 H   0  0  0  0  0  0  0  0  0  0  0  0
  141.0540   73.9540  221.2480 C   0  0  0  0  0  0  0  0  0  0  0  0
  140.8461   74.5538  220.3496 H   0  0  0  0  0  0  0  0  0  0  0  0
  141.4936   74.5511  222.0606 H   0  0  0  0  0  0  0  0  0  0  0  0
  142.0850   72.8690  220.8800 C   0  0  0  0  0  0  0  0  0  0  0  0
  142.8014   73.2871  220.1575 H   0  0  0  0  0  0  0  0  0  0  0  0
  142.5968   72.5529  221.8010 H   0  0  0  0  0  0  0  0  0  0  0  0
  141.4110   71.6410  220.2590 C   0  0  0  0  0  0  0  0  0  0  0  0
  140.9287   71.9438  219.3179 H   0  0  0  0  0  0  0  0  0  0  0  0
  142.1920   70.8842  220.0941 H   0  0  0  0  0  0  0  0  0  0  0  0
  140.3410   71.0100  221.1810 C   0  0  0  0  0  0  0  0  0  0  0  0
  139.4700   70.7362  220.5675 H   0  0  0  0  0  0  0  0  0  0  0  0
  140.8029   70.1353  221.6623 H   0  0  0  0  0  0  0  0  0  0  0  0
  135.3760   69.4790  224.3370 C   0  0  0  0  0  0  0  0  0  0  0  0
  134.8240   68.6510  225.3350 C   0  0  0  0  0  0  0  0  0  0  0  0
  134.8978   67.5574  225.2425 H   0  0  0  0  0  0  0  0  0  0  0  0
  134.2010   69.1990  226.4110 N   0  0  0  0  0  0  0  0  0  0  0  0
  134.0890   70.5430  226.5670 C   0  0  0  0  0  0  0  0  0  0  0  0
  133.5703   70.9531  227.4461 H   0  0  0  0  0  0  0  0  0  0  0  0
  134.6320   71.4050  225.6120 C   0  0  0  0  0  0  0  0  0  0  0  0
  134.5482   72.4949  225.7351 H   0  0  0  0  0  0  0  0  0  0  0  0
  135.2820   70.8690  224.5000 C   0  0  0  0  0  0  0  0  0  0  0  0
  135.7228   71.5395  223.7476 H   0  0  0  0  0  0  0  0  0  0  0  0
  1  2  1  0
  2  3  2  0
  3  4  1  0
  3  5  1  0
  5  6  2  0
  6  7  1  0
  7  8  2  0
  8  9  1  0
  8 10  1  0
 10 11  1  0
 10 12  2  0
 12 13  1  0
 12 14  1  0
 14 15  1  0
 14 16  2  0
 16 17  1  0
 17 18  2  0
 17 19  1  0
 19 20  1  0
 20 21  1  0
 20 22  1  0
 20 23  1  0
 23 24  1  0
 23 25  1  0
 25 26  1  0
 25 27  1  0
 25 28  1  0
 28 29  1  0
 28 30  1  0
 28 31  1  0
 31 32  1  0
 31 33  1  0
 31 34  1  0
 34 35  1  0
 34 36  1  0
 34 37  1  0
 37 38  1  0
 37 39  1  0
  2 40  1  0
 40 41  2  0
 41 42  1  0
 41 43  1  0
 43 44  2  0
 44 45  1  0
 44 46  1  0
 46 47  1  0
 46 48  2  0
 48 49  1  0
 19  5  1  0
 37 23  1  0
 48 40  1  0
 16  7  1  0
M  END
>  <UniqueID>  (24) 
24

>  <SMILES>  (24) 
O=c1c2ccccc2nc(/C=C/c2cccnc2)n1CC1CCCCC1

>  <Energy>  (24) 
68.23381780461015

>  <Genealogy>  (24) 
O=c1c2ccccc2nc(/C=C/c2cccnc2)n1CC1CCCCC1 (cis-trans isomerization)
O=c1c2ccccc2nc(/C=C/c2cccnc2)n1CC1CCCCC1 (3D coordinates assigned)
O=c1c2ccccc2nc(/C=C/c2cccnc2)n1CC1CCCCC1 (nonaromatic ring conformer: 68.23381780461015 kcal/mol)

>  <smiles>  (24) 
O=c1c2ccccc2nc(/C=C/c2cccnc2)n1CC1CCCCC1

>  <score_type>  (24) 
oracle

>  <origin>  (24) 
autodockgpu

>  <m_score__min__energy>  (24) 
-7.2300000000000004

>  <m_primary>  (24) 
energy

>  <meeko>  (24) 
{"free_energy": -6.94, "intermolecular_energy": -8.43, "internal_energy": -1.46, "cluster_size": 8, "cluster_id": 2, "rank_in_cluster": 6}

>  <energy>  (24) 
-6.99

>  <cluster_rmsd>  (24) 
0.8

>  <rmsd>  (24) 
268.72

>  <cluster>  (24) 
1

$$$$
XUFANRSCLZKORJ-OUKQBFOZNA-N
     RDKit          3D

 49 52  0  0  0  0  0  0  0  0999 V2000
  140.7265   70.7734  220.7878 H   0  0  0  0  0  0  0  0  0  0  0  0
  140.1420   71.4400  221.4390 C   0  0  0  0  0  0  0  0  0  0  0  0
  139.1790   70.8970  222.1980 C   0  0  0  0  0  0  0  0  0  0  0  0
  138.1470   70.8619  221.8189 H   0  0  0  0  0  0  0  0  0  0  0  0
  139.4820   70.3430  223.5400 C   0  0  0  0  0  0  0  0  0  0  0  0
  139.9960   71.1990  224.4640 N   0  0  0  0  0  0  0  0  0  0  0  0
  140.2740   70.8130  225.7280 C   0  0  0  0  0  0  0  0  0  0  0  0
  140.8010   71.7340  226.6410 C   0  0  0  0  0  0  0  0  0  0  0  0
  141.0003   72.7687  226.3253 H   0  0  0  0  0  0  0  0  0  0  0  0
  141.0740   71.3390  227.9540 C   0  0  0  0  0  0  0  0  0  0  0  0
  141.4905   72.0624  228.6704 H   0  0  0  0  0  0  0  0  0  0  0  0
  140.8180   70.0250  228.3570 C   0  0  0  0  0  0  0  0  0  0  0  0
  141.0323   69.7168  229.3910 H   0  0  0  0  0  0  0  0  0  0  0  0
  140.2900   69.1010  227.4490 C   0  0  0  0  0  0  0  0  0  0  0  0
  140.0901   68.0680  227.7700 H   0  0  0  0  0  0  0  0  0  0  0  0
  140.0140   69.4920  226.1240 C   0  0  0  0  0  0  0  0  0  0  0  0
  139.4850   68.6060  225.1720 C   0  0  0  0  0  0  0  0  0  0  0  0
  139.2220   67.4190  225.5180 O   0  0  0  0  0  0  0  0  0  0  0  0
  139.2520   69.0200  223.8770 N   0  0  0  0  0  0  0  0  0  0  0  0
  138.7780   68.0270  222.8780 C   0  0  0  0  0  0  0  0  0  0  0  0
  139.4149   68.1036  221.9844 H   0  0  0  0  0  0  0  0  0  0  0  0
  138.8390   67.0385  223.3567 H   0  0  0  0  0  0  0  0  0  0  0  0
  137.3010   68.2270  222.4440 C   0  0  0  0  0  0  0  0  0  0  0  0
  137.3664   68.9013  221.5773 H   0  0  0  0  0  0  0  0  0  0  0  0
  136.4420   68.9190  223.5180 C   0  0  0  0  0  0  0  0  0  0  0  0
  136.3120   68.2310  224.3664 H   0  0  0  0  0  0  0  0  0  0  0  0
  136.9606   69.8385  223.8271 H   0  0  0  0  0  0  0  0  0  0  0  0
  135.0490   69.3150  222.9790 C   0  0  0  0  0  0  0  0  0  0  0  0
  134.3081   69.1459  223.7743 H   0  0  0  0  0  0  0  0  0  0  0  0
  135.1093   70.3715  222.6788 H   0  0  0  0  0  0  0  0  0  0  0  0
  134.6160   68.5170  221.7330 C   0  0  0  0  0  0  0  0  0  0  0  0
  133.5187   68.5382  221.6591 H   0  0  0  0  0  0  0  0  0  0  0  0
  135.0783   68.9812  220.8494 H   0  0  0  0  0  0  0  0  0  0  0  0
  135.0810   67.0600  221.8070 C   0  0  0  0  0  0  0  0  0  0  0  0
  134.5939   66.5794  222.6682 H   0  0  0  0  0  0  0  0  0  0  0  0
  134.8047   66.5766  220.8583 H   0  0  0  0  0  0  0  0  0  0  0  0
  136.6140   66.9250  221.9680 C   0  0  0  0  0  0  0  0  0  0  0  0
  136.8185   66.1340  222.7045 H   0  0  0  0  0  0  0  0  0  0  0  0
  137.0241   66.6867  220.9755 H   0  0  0  0  0  0  0  0  0  0  0  0
  140.4640   72.8860  221.4270 C   0  0  0  0  0  0  0  0  0  0  0  0
  139.6160   73.8600  221.9920 C   0  0  0  0  0  0  0  0  0  0  0  0
  138.6653   73.5573  222.4552 H   0  0  0  0  0  0  0  0  0  0  0  0
  139.9700   75.1730  221.9660 N   0  0  0  0  0  0  0  0  0  0  0  0
  141.1360   75.5900  221.4090 C   0  0  0  0  0  0  0  0  0  0  0  0
  141.3884   76.6606  221.3994 H   0  0  0  0  0  0  0  0  0  0  0  0
  142.0140   74.6620  220.8490 C   0  0  0  0  0  0  0  0  0  0  0  0
  142.9608   74.9946  220.3985 H   0  0  0  0  0  0  0  0  0  0  0  0
  141.6790   73.3070  220.8660 C   0  0  0  0  0  0  0  0  0  0  0  0
  142.3704   72.5664  220.4378 H   0  0  0  0  0  0  0  0  0  0  0  0
  1  2  1  0
  2  3  2  0
  3  4  1  0
  3  5  1  0
  5  6  2  0
  6  7  1  0
  7  8  2  0
  8  9  1  0
  8 10  1  0
 10 11  1  0
 10 12  2  0
 12 13  1  0
 12 14  1  0
 14 15  1  0
 14 16  2  0
 16 17  1  0
 17 18  2  0
 17 19  1  0
 19 20  1  0
 20 21  1  0
 20 22  1  0
 20 23  1  0
 23 24  1  0
 23 25  1  0
 25 26  1  0
 25 27  1  0
 25 28  1  0
 28 29  1  0
 28 30  1  0
 28 31  1  0
 31 32  1  0
 31 33  1  0
 31 34  1  0
 34 35  1  0
 34 36  1  0
 34 37  1  0
 37 38  1  0
 37 39  1  0
  2 40  1  0
 40 41  2  0
 41 42  1  0
 41 43  1  0
 43 44  2  0
 44 45  1  0
 44 46  1  0
 46 47  1  0
 46 48  2  0
 48 49  1  0
 19  5  1  0
 37 23  1  0
 48 40  1  0
 16  7  1  0
M  END
>  <UniqueID>  (25) 
24

>  <SMILES>  (25) 
O=c1c2ccccc2nc(/C=C/c2cccnc2)n1CC1CCCCC1

>  <Energy>  (25) 
68.23381780461015

>  <Genealogy>  (25) 
O=c1c2ccccc2nc(/C=C/c2cccnc2)n1CC1CCCCC1 (cis-trans isomerization)
O=c1c2ccccc2nc(/C=C/c2cccnc2)n1CC1CCCCC1 (3D coordinates assigned)
O=c1c2ccccc2nc(/C=C/c2cccnc2)n1CC1CCCCC1 (nonaromatic ring conformer: 68.23381780461015 kcal/mol)

>  <smiles>  (25) 
O=c1c2ccccc2nc(/C=C/c2cccnc2)n1CC1CCCCC1

>  <score_type>  (25) 
oracle

>  <origin>  (25) 
autodockgpu

>  <m_score__min__energy>  (25) 
-7.2300000000000004

>  <m_primary>  (25) 
energy

>  <meeko>  (25) 
{"free_energy": -7.23, "intermolecular_energy": -8.72, "internal_energy": -1.22, "cluster_size": 5, "cluster_id": 1, "rank_in_cluster": 1}

>  <energy>  (25) 
-6.94

>  <cluster_rmsd>  (25) 
0.75

>  <rmsd>  (25) 
268.74

>  <cluster>  (25) 
1

$$$$
XUFANRSCLZKORJ-OUKQBFOZNA-N
     RDKit          3D

 49 52  0  0  0  0  0  0  0  0999 V2000
  141.7169   80.4292  219.0762 H   0  0  0  0  0  0  0  0  0  0  0  0
  141.3340   79.9080  219.9660 C   0  0  0  0  0  0  0  0  0  0  0  0
  140.4980   78.8760  219.7830 C   0  0  0  0  0  0  0  0  0  0  0  0
  139.5034   79.0561  219.3491 H   0  0  0  0  0  0  0  0  0  0  0  0
  140.8920   77.4950  220.1560 C   0  0  0  0  0  0  0  0  0  0  0  0
  142.1390   77.0860  219.7970 N   0  0  0  0  0  0  0  0  0  0  0  0
  142.6170   75.8640  220.1180 C   0  0  0  0  0  0  0  0  0  0  0  0
  143.9080   75.4930  219.7260 C   0  0  0  0  0  0  0  0  0  0  0  0
  144.5288   76.1915  219.1457 H   0  0  0  0  0  0  0  0  0  0  0  0
  144.4090   74.2340  220.0720 C   0  0  0  0  0  0  0  0  0  0  0  0
  145.4233   73.9417  219.7626 H   0  0  0  0  0  0  0  0  0  0  0  0
  143.6210   73.3470  220.8110 C   0  0  0  0  0  0  0  0  0  0  0  0
  144.0164   72.3567  221.0812 H   0  0  0  0  0  0  0  0  0  0  0  0
  142.3310   73.7150  221.2080 C   0  0  0  0  0  0  0  0  0  0  0  0
  141.7156   73.0150  221.7922 H   0  0  0  0  0  0  0  0  0  0  0  0
  141.8190   74.9800  220.8610 C   0  0  0  0  0  0  0  0  0  0  0  0
  140.5310   75.3990  221.2310 C   0  0  0  0  0  0  0  0  0  0  0  0
  139.8090   74.6250  221.9210 O   0  0  0  0  0  0  0  0  0  0  0  0
  140.0570   76.6380  220.8510 N   0  0  0  0  0  0  0  0  0  0  0  0
  138.6560   77.0050  221.1850 C   0  0  0  0  0  0  0  0  0  0  0  0
  138.1613   77.3547  220.2669 H   0  0  0  0  0  0  0  0  0  0  0  0
  138.1813   76.1054  221.6039 H   0  0  0  0  0  0  0  0  0  0  0  0
  138.5370   78.1200  222.2600 C   0  0  0  0  0  0  0  0  0  0  0  0
  137.7568   77.7513  222.9421 H   0  0  0  0  0  0  0  0  0  0  0  0
  138.0630   79.4670  221.6870 C   0  0  0  0  0  0  0  0  0  0  0  0
  138.8594   79.8832  221.0525 H   0  0  0  0  0  0  0  0  0  0  0  0
  137.1462   79.2860  221.1067 H   0  0  0  0  0  0  0  0  0  0  0  0
  137.7300   80.4840  222.8010 C   0  0  0  0  0  0  0  0  0  0  0  0
  138.0628   81.4796  222.4724 H   0  0  0  0  0  0  0  0  0  0  0  0
  136.6432   80.4358  222.9642 H   0  0  0  0  0  0  0  0  0  0  0  0
  138.4010   80.1690  224.1520 C   0  0  0  0  0  0  0  0  0  0  0  0
  138.4692   81.0952  224.7415 H   0  0  0  0  0  0  0  0  0  0  0  0
  137.7905   79.4166  224.6728 H   0  0  0  0  0  0  0  0  0  0  0  0
  139.8090   79.5960  223.9610 C   0  0  0  0  0  0  0  0  0  0  0  0
  140.4350   80.3584  223.4742 H   0  0  0  0  0  0  0  0  0  0  0  0
  140.1925   79.3250  224.9557 H   0  0  0  0  0  0  0  0  0  0  0  0
  139.8260   78.3160  223.0930 C   0  0  0  0  0  0  0  0  0  0  0  0
  140.6811   78.3739  222.4035 H   0  0  0  0  0  0  0  0  0  0  0  0
  139.9019   77.4598  223.7794 H   0  0  0  0  0  0  0  0  0  0  0  0
  141.7720   80.3870  221.2990 C   0  0  0  0  0  0  0  0  0  0  0  0
  141.3800   81.6330  221.8280 C   0  0  0  0  0  0  0  0  0  0  0  0
  140.7332   82.2999  221.2391 H   0  0  0  0  0  0  0  0  0  0  0  0
  141.7990   82.0130  223.0640 N   0  0  0  0  0  0  0  0  0  0  0  0
  142.5960   81.2210  223.8270 C   0  0  0  0  0  0  0  0  0  0  0  0
  142.9236   81.5633  224.8197 H   0  0  0  0  0  0  0  0  0  0  0  0
  142.9990   79.9730  223.3510 C   0  0  0  0  0  0  0  0  0  0  0  0
  143.6420   79.3258  223.9656 H   0  0  0  0  0  0  0  0  0  0  0  0
  142.5790   79.5530  222.0880 C   0  0  0  0  0  0  0  0  0  0  0  0
  142.8814   78.5653  221.7099 H   0  0  0  0  0  0  0  0  0  0  0  0
  1  2  1  0
  2  3  2  0
  3  4  1  0
  3  5  1  0
  5  6  2  0
  6  7  1  0
  7  8  2  0
  8  9  1  0
  8 10  1  0
 10 11  1  0
 10 12  2  0
 12 13  1  0
 12 14  1  0
 14 15  1  0
 14 16  2  0
 16 17  1  0
 17 18  2  0
 17 19  1  0
 19 20  1  0
 20 21  1  0
 20 22  1  0
 20 23  1  0
 23 24  1  0
 23 25  1  0
 25 26  1  0
 25 27  1  0
 25 28  1  0
 28 29  1  0
 28 30  1  0
 28 31  1  0
 31 32  1  0
 31 33  1  0
 31 34  1  0
 34 35  1  0
 34 36  1  0
 34 37  1  0
 37 38  1  0
 37 39  1  0
  2 40  1  0
 40 41  2  0
 41 42  1  0
 41 43  1  0
 43 44  2  0
 44 45  1  0
 44 46  1  0
 46 47  1  0
 46 48  2  0
 48 49  1  0
 19  5  1  0
 37 23  1  0
 48 40  1  0
 16  7  1  0
M  END
>  <UniqueID>  (26) 
24

>  <SMILES>  (26) 
O=c1c2ccccc2nc(/C=C/c2cccnc2)n1CC1CCCCC1

>  <Energy>  (26) 
68.23381780461015

>  <Genealogy>  (26) 
O=c1c2ccccc2nc(/C=C/c2cccnc2)n1CC1CCCCC1 (cis-trans isomerization)
O=c1c2ccccc2nc(/C=C/c2cccnc2)n1CC1CCCCC1 (3D coordinates assigned)
O=c1c2ccccc2nc(/C=C/c2cccnc2)n1CC1CCCCC1 (nonaromatic ring conformer: 68.23381780461015 kcal/mol)

>  <smiles>  (26) 
O=c1c2ccccc2nc(/C=C/c2cccnc2)n1CC1CCCCC1

>  <score_type>  (26) 
oracle

>  <origin>  (26) 
autodockgpu

>  <m_score__min__energy>  (26) 
-7.2300000000000004

>  <m_primary>  (26) 
energy

>  <meeko>  (26) 
{"free_energy": -6.35, "intermolecular_energy": -7.84, "internal_energy": -1.97, "cluster_size": 1, "cluster_id": 8, "rank_in_cluster": 1}

>  <energy>  (26) 
-7.15

>  <cluster_rmsd>  (26) 
0.0

>  <rmsd>  (26) 
269.25

>  <cluster>  (26) 
2

$$$$
XUFANRSCLZKORJ-OUKQBFOZNA-N
     RDKit          3D

 49 52  0  0  0  0  0  0  0  0999 V2000
  143.6778   75.9299  218.0132 H   0  0  0  0  0  0  0  0  0  0  0  0
  143.5940   75.5390  219.0380 C   0  0  0  0  0  0  0  0  0  0  0  0
  142.7260   76.1320  219.8720 C   0  0  0  0  0  0  0  0  0  0  0  0
  142.8375   77.2029  220.0971 H   0  0  0  0  0  0  0  0  0  0  0  0
  141.6190   75.3670  220.4950 C   0  0  0  0  0  0  0  0  0  0  0  0
  141.7690   74.0180  220.5860 N   0  0  0  0  0  0  0  0  0  0  0  0
  140.8420   73.2270  221.1690 C   0  0  0  0  0  0  0  0  0  0  0  0
  141.0460   71.8440  221.2380 C   0  0  0  0  0  0  0  0  0  0  0  0
  141.9550   71.3998  220.8062 H   0  0  0  0  0  0  0  0  0  0  0  0
  140.0940   71.0270  221.8560 C   0  0  0  0  0  0  0  0  0  0  0  0
  140.2537   69.9400  221.9091 H   0  0  0  0  0  0  0  0  0  0  0  0
  138.9400   71.5910  222.4060 C   0  0  0  0  0  0  0  0  0  0  0  0
  138.1926   70.9464  222.8917 H   0  0  0  0  0  0  0  0  0  0  0  0
  138.7320   72.9730  222.3410 C   0  0  0  0  0  0  0  0  0  0  0  0
  137.8224   73.4127  222.7761 H   0  0  0  0  0  0  0  0  0  0  0  0
  139.6860   73.8020  221.7190 C   0  0  0  0  0  0  0  0  0  0  0  0
  139.5280   75.1940  221.6250 C   0  0  0  0  0  0  0  0  0  0  0  0
  138.5050   75.7300  222.1370 O   0  0  0  0  0  0  0  0  0  0  0  0
  140.4730   75.9680  220.9860 N   0  0  0  0  0  0  0  0  0  0  0  0
  140.2220   77.4250  220.8280 C   0  0  0  0  0  0  0  0  0  0  0  0
  140.3338   77.6824  219.7644 H   0  0  0  0  0  0  0  0  0  0  0  0
  139.2063   77.6168  221.2043 H   0  0  0  0  0  0  0  0  0  0  0  0
  141.1850   78.3220  221.6520 C   0  0  0  0  0  0  0  0  0  0  0  0
  142.1288   77.7572  221.6655 H   0  0  0  0  0  0  0  0  0  0  0  0
  140.7310   78.5200  223.1100 C   0  0  0  0  0  0  0  0  0  0  0  0
  139.8225   79.1402  223.1181 H   0  0  0  0  0  0  0  0  0  0  0  0
  140.5387   77.5277  223.5441 H   0  0  0  0  0  0  0  0  0  0  0  0
  141.8160   79.2130  223.9640 C   0  0  0  0  0  0  0  0  0  0  0  0
  141.3200   79.9073  224.6582 H   0  0  0  0  0  0  0  0  0  0  0  0
  142.3685   78.4182  224.4866 H   0  0  0  0  0  0  0  0  0  0  0  0
  142.8470   80.0070  223.1360 C   0  0  0  0  0  0  0  0  0  0  0  0
  143.3035   80.7760  223.7765 H   0  0  0  0  0  0  0  0  0  0  0  0
  143.6069   79.3032  222.7656 H   0  0  0  0  0  0  0  0  0  0  0  0
  142.1950   80.6880  221.9290 C   0  0  0  0  0  0  0  0  0  0  0  0
  141.4602   81.4207  222.2940 H   0  0  0  0  0  0  0  0  0  0  0  0
  142.9966   81.1668  221.3474 H   0  0  0  0  0  0  0  0  0  0  0  0
  141.4740   79.6910  220.9920 C   0  0  0  0  0  0  0  0  0  0  0  0
  140.5176   80.1359  220.6800 H   0  0  0  0  0  0  0  0  0  0  0  0
  142.1449   79.5043  220.1405 H   0  0  0  0  0  0  0  0  0  0  0  0
  144.4460   74.3880  219.4180 C   0  0  0  0  0  0  0  0  0  0  0  0
  144.8270   73.3870  218.5010 C   0  0  0  0  0  0  0  0  0  0  0  0
  144.4783   73.4365  217.4589 H   0  0  0  0  0  0  0  0  0  0  0  0
  145.6240   72.3610  218.9010 N   0  0  0  0  0  0  0  0  0  0  0  0
  146.0790   72.2620  220.1770 C   0  0  0  0  0  0  0  0  0  0  0  0
  146.7156   71.4140  220.4695 H   0  0  0  0  0  0  0  0  0  0  0  0
  145.7390   73.2360  221.1170 C   0  0  0  0  0  0  0  0  0  0  0  0
  146.1076   73.1625  222.1508 H   0  0  0  0  0  0  0  0  0  0  0  0
  144.9270   74.3040  220.7330 C   0  0  0  0  0  0  0  0  0  0  0  0
  144.6633   75.0826  221.4639 H   0  0  0  0  0  0  0  0  0  0  0  0
  1  2  1  0
  2  3  2  0
  3  4  1  0
  3  5  1  0
  5  6  2  0
  6  7  1  0
  7  8  2  0
  8  9  1  0
  8 10  1  0
 10 11  1  0
 10 12  2  0
 12 13  1  0
 12 14  1  0
 14 15  1  0
 14 16  2  0
 16 17  1  0
 17 18  2  0
 17 19  1  0
 19 20  1  0
 20 21  1  0
 20 22  1  0
 20 23  1  0
 23 24  1  0
 23 25  1  0
 25 26  1  0
 25 27  1  0
 25 28  1  0
 28 29  1  0
 28 30  1  0
 28 31  1  0
 31 32  1  0
 31 33  1  0
 31 34  1  0
 34 35  1  0
 34 36  1  0
 34 37  1  0
 37 38  1  0
 37 39  1  0
  2 40  1  0
 40 41  2  0
 41 42  1  0
 41 43  1  0
 43 44  2  0
 44 45  1  0
 44 46  1  0
 46 47  1  0
 46 48  2  0
 48 49  1  0
 19  5  1  0
 37 23  1  0
 48 40  1  0
 16  7  1  0
M  END
>  <UniqueID>  (27) 
24

>  <SMILES>  (27) 
O=c1c2ccccc2nc(/C=C/c2cccnc2)n1CC1CCCCC1

>  <Energy>  (27) 
68.23381780461015

>  <Genealogy>  (27) 
O=c1c2ccccc2nc(/C=C/c2cccnc2)n1CC1CCCCC1 (cis-trans isomerization)
O=c1c2ccccc2nc(/C=C/c2cccnc2)n1CC1CCCCC1 (3D coordinates assigned)
O=c1c2ccccc2nc(/C=C/c2cccnc2)n1CC1CCCCC1 (nonaromatic ring conformer: 68.23381780461015 kcal/mol)

>  <smiles>  (27) 
O=c1c2ccccc2nc(/C=C/c2cccnc2)n1CC1CCCCC1

>  <score_type>  (27) 
oracle

>  <origin>  (27) 
autodockgpu

>  <m_score__min__energy>  (27) 
-7.2300000000000004

>  <m_primary>  (27) 
energy

>  <meeko>  (27) 
{"free_energy": -7.08, "intermolecular_energy": -8.58, "internal_energy": -1.31, "cluster_size": 2, "cluster_id": 3, "rank_in_cluster": 1}

>  <energy>  (27) 
-7.11

>  <cluster_rmsd>  (27) 
0.14

>  <rmsd>  (27) 
269.21

>  <cluster>  (27) 
2

$$$$
XUFANRSCLZKORJ-OUKQBFOZNA-N
     RDKit          3D

 49 52  0  0  0  0  0  0  0  0999 V2000
  135.4981   69.2527  222.2830 H   0  0  0  0  0  0  0  0  0  0  0  0
  135.9880   69.1770  223.2650 C   0  0  0  0  0  0  0  0  0  0  0  0
  137.2510   68.7290  223.3080 C   0  0  0  0  0  0  0  0  0  0  0  0
  137.5876   67.9880  222.5679 H   0  0  0  0  0  0  0  0  0  0  0  0
  138.2020   69.2160  224.3370 C   0  0  0  0  0  0  0  0  0  0  0  0
  138.4740   68.3820  225.3770 N   0  0  0  0  0  0  0  0  0  0  0  0
  139.3520   68.7050  226.3510 C   0  0  0  0  0  0  0  0  0  0  0  0
  139.5980   67.8100  227.3980 C   0  0  0  0  0  0  0  0  0  0  0  0
  139.0663   66.8477  227.4350 H   0  0  0  0  0  0  0  0  0  0  0  0
  140.5190   68.1380  228.3970 C   0  0  0  0  0  0  0  0  0  0  0  0
  140.7101   67.4349  229.2211 H   0  0  0  0  0  0  0  0  0  0  0  0
  141.1970   69.3590  228.3490 C   0  0  0  0  0  0  0  0  0  0  0  0
  141.9210   69.6154  229.1365 H   0  0  0  0  0  0  0  0  0  0  0  0
  140.9580   70.2560  227.3030 C   0  0  0  0  0  0  0  0  0  0  0  0
  141.4959   71.2149  227.2679 H   0  0  0  0  0  0  0  0  0  0  0  0
  140.0290   69.9330  226.2940 C   0  0  0  0  0  0  0  0  0  0  0  0
  139.7490   70.7970  225.2230 C   0  0  0  0  0  0  0  0  0  0  0  0
  140.3680   71.8960  225.1440 O   0  0  0  0  0  0  0  0  0  0  0  0
  138.8150   70.4550  224.2680 N   0  0  0  0  0  0  0  0  0  0  0  0
  138.4820   71.4360  223.2030 C   0  0  0  0  0  0  0  0  0  0  0  0
  137.8228   70.9439  222.4727 H   0  0  0  0  0  0  0  0  0  0  0  0
  137.9999   72.2924  223.6971 H   0  0  0  0  0  0  0  0  0  0  0  0
  139.7210   71.9900  222.4480 C   0  0  0  0  0  0  0  0  0  0  0  0
  140.5029   72.0390  223.2202 H   0  0  0  0  0  0  0  0  0  0  0  0
  139.5110   73.4120  221.8980 C   0  0  0  0  0  0  0  0  0  0  0  0
  138.7784   73.3711  221.0784 H   0  0  0  0  0  0  0  0  0  0  0  0
  139.1513   74.0452  222.7224 H   0  0  0  0  0  0  0  0  0  0  0  0
  140.8240   74.0260  221.3630 C   0  0  0  0  0  0  0  0  0  0  0  0
  140.5920   74.6075  220.4586 H   0  0  0  0  0  0  0  0  0  0  0  0
  141.2384   74.6497  222.1688 H   0  0  0  0  0  0  0  0  0  0  0  0
  141.8990   72.9790  221.0060 C   0  0  0  0  0  0  0  0  0  0  0  0
  142.5977   73.4180  220.2786 H   0  0  0  0  0  0  0  0  0  0  0  0
  142.4231   72.6940  221.9302 H   0  0  0  0  0  0  0  0  0  0  0  0
  141.2760   71.7180  220.3990 C   0  0  0  0  0  0  0  0  0  0  0  0
  140.7813   71.9906  219.4551 H   0  0  0  0  0  0  0  0  0  0  0  0
  142.0875   70.9922  220.2416 H   0  0  0  0  0  0  0  0  0  0  0  0
  140.2340   71.0540  221.3280 C   0  0  0  0  0  0  0  0  0  0  0  0
  139.3751   70.7376  220.7179 H   0  0  0  0  0  0  0  0  0  0  0  0
  140.7323   70.2049  221.8187 H   0  0  0  0  0  0  0  0  0  0  0  0
  135.2140   69.5760  224.4640 C   0  0  0  0  0  0  0  0  0  0  0  0
  134.6560   68.6390  225.3570 C   0  0  0  0  0  0  0  0  0  0  0  0
  134.7773   67.5621  225.1686 H   0  0  0  0  0  0  0  0  0  0  0  0
  133.9680   69.0630  226.4510 N   0  0  0  0  0  0  0  0  0  0  0  0
  133.7970   70.3820  226.7240 C   0  0  0  0  0  0  0  0  0  0  0  0
  133.2286   70.6900  227.6140 H   0  0  0  0  0  0  0  0  0  0  0  0
  134.3420   71.3470  225.8760 C   0  0  0  0  0  0  0  0  0  0  0  0
  134.2086   72.4170  226.0937 H   0  0  0  0  0  0  0  0  0  0  0  0
  135.0580   70.9410  224.7490 C   0  0  0  0  0  0  0  0  0  0  0  0
  135.5019   71.6942  224.0814 H   0  0  0  0  0  0  0  0  0  0  0  0
  1  2  1  0
  2  3  2  0
  3  4  1  0
  3  5  1  0
  5  6  2  0
  6  7  1  0
  7  8  2  0
  8  9  1  0
  8 10  1  0
 10 11  1  0
 10 12  2  0
 12 13  1  0
 12 14  1  0
 14 15  1  0
 14 16  2  0
 16 17  1  0
 17 18  2  0
 17 19  1  0
 19 20  1  0
 20 21  1  0
 20 22  1  0
 20 23  1  0
 23 24  1  0
 23 25  1  0
 25 26  1  0
 25 27  1  0
 25 28  1  0
 28 29  1  0
 28 30  1  0
 28 31  1  0
 31 32  1  0
 31 33  1  0
 31 34  1  0
 34 35  1  0
 34 36  1  0
 34 37  1  0
 37 38  1  0
 37 39  1  0
  2 40  1  0
 40 41  2  0
 41 42  1  0
 41 43  1  0
 43 44  2  0
 44 45  1  0
 44 46  1  0
 46 47  1  0
 46 48  2  0
 48 49  1  0
 19  5  1  0
 37 23  1  0
 48 40  1  0
 16  7  1  0
M  END
>  <UniqueID>  (28) 
24

>  <SMILES>  (28) 
O=c1c2ccccc2nc(/C=C/c2cccnc2)n1CC1CCCCC1

>  <Energy>  (28) 
68.23381780461015

>  <Genealogy>  (28) 
O=c1c2ccccc2nc(/C=C/c2cccnc2)n1CC1CCCCC1 (cis-trans isomerization)
O=c1c2ccccc2nc(/C=C/c2cccnc2)n1CC1CCCCC1 (3D coordinates assigned)
O=c1c2ccccc2nc(/C=C/c2cccnc2)n1CC1CCCCC1 (nonaromatic ring conformer: 68.23381780461015 kcal/mol)

>  <smiles>  (28) 
O=c1c2ccccc2nc(/C=C/c2cccnc2)n1CC1CCCCC1

>  <score_type>  (28) 
oracle

>  <origin>  (28) 
autodockgpu

>  <m_score__min__energy>  (28) 
-7.2300000000000004

>  <m_primary>  (28) 
energy

>  <meeko>  (28) 
{"free_energy": -7.11, "intermolecular_energy": -8.6, "internal_energy": -1.36, "cluster_size": 8, "cluster_id": 2, "rank_in_cluster": 2}

>  <energy>  (28) 
-7.09

>  <cluster_rmsd>  (28) 
0.25

>  <rmsd>  (28) 
269.16

>  <cluster>  (28) 
2

$$$$
XUFANRSCLZKORJ-OUKQBFOZNA-N
     RDKit          3D

 49 52  0  0  0  0  0  0  0  0999 V2000
  143.7880   76.5923  218.6566 H   0  0  0  0  0  0  0  0  0  0  0  0
  143.3160   75.7150  219.1230 C   0  0  0  0  0  0  0  0  0  0  0  0
  141.9980   75.7620  219.3700 C   0  0  0  0  0  0  0  0  0  0  0  0
  141.3099   75.1677  218.7508 H   0  0  0  0  0  0  0  0  0  0  0  0
  141.4540   76.6020  220.4640 C   0  0  0  0  0  0  0  0  0  0  0  0
  142.1940   77.6770  220.8500 N   0  0  0  0  0  0  0  0  0  0  0  0
  141.7780   78.5310  221.8090 C   0  0  0  0  0  0  0  0  0  0  0  0
  142.5770   79.6240  222.1690 C   0  0  0  0  0  0  0  0  0  0  0  0
  143.5498   79.7792  221.6795 H   0  0  0  0  0  0  0  0  0  0  0  0
  142.1380   80.5170  223.1500 C   0  0  0  0  0  0  0  0  0  0  0  0
  142.7666   81.3742  223.4330 H   0  0  0  0  0  0  0  0  0  0  0  0
  140.9020   80.3230  223.7720 C   0  0  0  0  0  0  0  0  0  0  0  0
  140.5594   81.0278  224.5440 H   0  0  0  0  0  0  0  0  0  0  0  0
  140.0990   79.2340  223.4150 C   0  0  0  0  0  0  0  0  0  0  0  0
  139.1260   79.0847  223.9059 H   0  0  0  0  0  0  0  0  0  0  0  0
  140.5350   78.3290  222.4280 C   0  0  0  0  0  0  0  0  0  0  0  0
  139.7700   77.2190  222.0340 C   0  0  0  0  0  0  0  0  0  0  0  0
  138.6370   77.0360  222.5630 O   0  0  0  0  0  0  0  0  0  0  0  0
  140.2430   76.3410  221.0800 N   0  0  0  0  0  0  0  0  0  0  0  0
  139.4430   75.1310  220.7580 C   0  0  0  0  0  0  0  0  0  0  0  0
  138.3807   75.3643  220.9227 H   0  0  0  0  0  0  0  0  0  0  0  0
  139.6616   74.8732  219.7112 H   0  0  0  0  0  0  0  0  0  0  0  0
  139.8090   73.8880  221.6140 C   0  0  0  0  0  0  0  0  0  0  0  0
  140.2081   74.3144  222.5461 H   0  0  0  0  0  0  0  0  0  0  0  0
  140.9120   73.0200  220.9830 C   0  0  0  0  0  0  0  0  0  0  0  0
  140.5090   72.5321  220.0833 H   0  0  0  0  0  0  0  0  0  0  0  0
  141.7597   73.6753  220.7340 H   0  0  0  0  0  0  0  0  0  0  0  0
  141.4190   71.9320  221.9560 C   0  0  0  0  0  0  0  0  0  0  0  0
  141.6125   71.0149  221.3803 H   0  0  0  0  0  0  0  0  0  0  0  0
  142.3267   72.3282  222.4346 H   0  0  0  0  0  0  0  0  0  0  0  0
  140.4260   71.5960  223.0860 C   0  0  0  0  0  0  0  0  0  0  0  0
  140.6426   70.5856  223.4630 H   0  0  0  0  0  0  0  0  0  0  0  0
  140.5439   72.3457  223.8823 H   0  0  0  0  0  0  0  0  0  0  0  0
  138.9760   71.6430  222.5940 C   0  0  0  0  0  0  0  0  0  0  0  0
  138.8416   70.8695  221.8235 H   0  0  0  0  0  0  0  0  0  0  0  0
  138.3263   71.4708  223.4648 H   0  0  0  0  0  0  0  0  0  0  0  0
  138.5890   73.0140  221.9900 C   0  0  0  0  0  0  0  0  0  0  0  0
  137.9928   72.8390  221.0823 H   0  0  0  0  0  0  0  0  0  0  0  0
  138.0245   73.5598  222.7604 H   0  0  0  0  0  0  0  0  0  0  0  0
  144.1720   74.5480  219.4430 C   0  0  0  0  0  0  0  0  0  0  0  0
  144.7850   73.7580  218.4500 C   0  0  0  0  0  0  0  0  0  0  0  0
  144.6248   73.9914  217.3871 H   0  0  0  0  0  0  0  0  0  0  0  0
  145.5740   72.7080  218.8020 N   0  0  0  0  0  0  0  0  0  0  0  0
  145.8030   72.3870  220.1020 C   0  0  0  0  0  0  0  0  0  0  0  0
  146.4409   71.5264  220.3520 H   0  0  0  0  0  0  0  0  0  0  0  0
  145.2290   73.1490  221.1200 C   0  0  0  0  0  0  0  0  0  0  0  0
  145.4137   72.8958  222.1744 H   0  0  0  0  0  0  0  0  0  0  0  0
  144.4180   74.2360  220.7880 C   0  0  0  0  0  0  0  0  0  0  0  0
  143.9706   74.8496  221.5839 H   0  0  0  0  0  0  0  0  0  0  0  0
  1  2  1  0
  2  3  2  0
  3  4  1  0
  3  5  1  0
  5  6  2  0
  6  7  1  0
  7  8  2  0
  8  9  1  0
  8 10  1  0
 10 11  1  0
 10 12  2  0
 12 13  1  0
 12 14  1  0
 14 15  1  0
 14 16  2  0
 16 17  1  0
 17 18  2  0
 17 19  1  0
 19 20  1  0
 20 21  1  0
 20 22  1  0
 20 23  1  0
 23 24  1  0
 23 25  1  0
 25 26  1  0
 25 27  1  0
 25 28  1  0
 28 29  1  0
 28 30  1  0
 28 31  1  0
 31 32  1  0
 31 33  1  0
 31 34  1  0
 34 35  1  0
 34 36  1  0
 34 37  1  0
 37 38  1  0
 37 39  1  0
  2 40  1  0
 40 41  2  0
 41 42  1  0
 41 43  1  0
 43 44  2  0
 44 45  1  0
 44 46  1  0
 46 47  1  0
 46 48  2  0
 48 49  1  0
 19  5  1  0
 37 23  1  0
 48 40  1  0
 16  7  1  0
M  END
>  <UniqueID>  (29) 
24

>  <SMILES>  (29) 
O=c1c2ccccc2nc(/C=C/c2cccnc2)n1CC1CCCCC1

>  <Energy>  (29) 
68.23381780461015

>  <Genealogy>  (29) 
O=c1c2ccccc2nc(/C=C/c2cccnc2)n1CC1CCCCC1 (cis-trans isomerization)
O=c1c2ccccc2nc(/C=C/c2cccnc2)n1CC1CCCCC1 (3D coordinates assigned)
O=c1c2ccccc2nc(/C=C/c2cccnc2)n1CC1CCCCC1 (nonaromatic ring conformer: 68.23381780461015 kcal/mol)

>  <smiles>  (29) 
O=c1c2ccccc2nc(/C=C/c2cccnc2)n1CC1CCCCC1

>  <score_type>  (29) 
oracle

>  <origin>  (29) 
autodockgpu

>  <m_score__min__energy>  (29) 
-7.2300000000000004

>  <m_primary>  (29) 
energy

>  <meeko>  (29) 
{"free_energy": -6.85, "intermolecular_energy": -8.35, "internal_energy": -1.48, "cluster_size": 1, "cluster_id": 6, "rank_in_cluster": 1}

>  <energy>  (29) 
-7.03

>  <cluster_rmsd>  (29) 
0.22

>  <rmsd>  (29) 
269.17

>  <cluster>  (29) 
2

$$$$
XUFANRSCLZKORJ-OUKQBFOZNA-N
     RDKit          3D

 49 52  0  0  0  0  0  0  0  0999 V2000
  135.4884   68.8088  222.2584 H   0  0  0  0  0  0  0  0  0  0  0  0
  136.0480   68.9270  223.1980 C   0  0  0  0  0  0  0  0  0  0  0  0
  137.3540   68.6240  223.1980 C   0  0  0  0  0  0  0  0  0  0  0  0
  137.7598   67.9799  222.4040 H   0  0  0  0  0  0  0  0  0  0  0  0
  138.2610   69.1430  224.2510 C   0  0  0  0  0  0  0  0  0  0  0  0
  138.5280   68.3210  225.3020 N   0  0  0  0  0  0  0  0  0  0  0  0
  139.3680   68.6730  226.2980 C   0  0  0  0  0  0  0  0  0  0  0  0
  139.6100   67.7890  227.3560 C   0  0  0  0  0  0  0  0  0  0  0  0
  139.1055   66.8119  227.3826 H   0  0  0  0  0  0  0  0  0  0  0  0
  140.4930   68.1480  228.3790 C   0  0  0  0  0  0  0  0  0  0  0  0
  140.6816   67.4537  229.2111 H   0  0  0  0  0  0  0  0  0  0  0  0
  141.1360   69.3880  228.3450 C   0  0  0  0  0  0  0  0  0  0  0  0
  141.8299   69.6682  229.1512 H   0  0  0  0  0  0  0  0  0  0  0  0
  140.9000   70.2740  227.2890 C   0  0  0  0  0  0  0  0  0  0  0  0
  141.4099   71.2484  227.2650 H   0  0  0  0  0  0  0  0  0  0  0  0
  140.0100   69.9200  226.2560 C   0  0  0  0  0  0  0  0  0  0  0  0
  139.7350   70.7720  225.1740 C   0  0  0  0  0  0  0  0  0  0  0  0
  140.3240   71.8880  225.1070 O   0  0  0  0  0  0  0  0  0  0  0  0
  138.8390   70.3990  224.1940 N   0  0  0  0  0  0  0  0  0  0  0  0
  138.5080   71.3660  223.1150 C   0  0  0  0  0  0  0  0  0  0  0  0
  137.8721   70.8561  222.3763 H   0  0  0  0  0  0  0  0  0  0  0  0
  138.0009   72.2168  223.5936 H   0  0  0  0  0  0  0  0  0  0  0  0
  139.7500   71.9380  222.3790 C   0  0  0  0  0  0  0  0  0  0  0  0
  140.5325   71.9563  223.1519 H   0  0  0  0  0  0  0  0  0  0  0  0
  139.5490   73.3790  221.8780 C   0  0  0  0  0  0  0  0  0  0  0  0
  138.8155   73.3708  221.0583 H   0  0  0  0  0  0  0  0  0  0  0  0
  139.1942   73.9861  222.7239 H   0  0  0  0  0  0  0  0  0  0  0  0
  140.8650   74.0020  221.3630 C   0  0  0  0  0  0  0  0  0  0  0  0
  140.6359   74.6151  220.4789 H   0  0  0  0  0  0  0  0  0  0  0  0
  141.2838   74.5952  222.1893 H   0  0  0  0  0  0  0  0  0  0  0  0
  141.9330   72.9620  220.9700 C   0  0  0  0  0  0  0  0  0  0  0  0
  142.6338   73.4213  220.2573 H   0  0  0  0  0  0  0  0  0  0  0  0
  142.4560   72.6427  221.8835 H   0  0  0  0  0  0  0  0  0  0  0  0
  141.3020   71.7260  220.3210 C   0  0  0  0  0  0  0  0  0  0  0  0
  140.8089   72.0334  219.3870 H   0  0  0  0  0  0  0  0  0  0  0  0
  142.1091   71.0010  220.1392 H   0  0  0  0  0  0  0  0  0  0  0  0
  140.2560   71.0370  221.2270 C   0  0  0  0  0  0  0  0  0  0  0  0
  139.3947   70.7476  220.6070 H   0  0  0  0  0  0  0  0  0  0  0  0
  140.7484   70.1679  221.6876 H   0  0  0  0  0  0  0  0  0  0  0  0
  135.3150   69.4120  224.3910 C   0  0  0  0  0  0  0  0  0  0  0  0
  134.6920   68.5420  225.3090 C   0  0  0  0  0  0  0  0  0  0  0  0
  134.7287   67.4549  225.1453 H   0  0  0  0  0  0  0  0  0  0  0  0
  134.0460   69.0420  226.3960 N   0  0  0  0  0  0  0  0  0  0  0  0
  133.9800   70.3770  226.6390 C   0  0  0  0  0  0  0  0  0  0  0  0
  133.4432   70.7488  227.5242 H   0  0  0  0  0  0  0  0  0  0  0  0
  134.5930   71.2770  225.7660 C   0  0  0  0  0  0  0  0  0  0  0  0
  134.5447   72.3588  225.9595 H   0  0  0  0  0  0  0  0  0  0  0  0
  135.2680   70.7910  224.6450 C   0  0  0  0  0  0  0  0  0  0  0  0
  135.7650   71.4919  223.9581 H   0  0  0  0  0  0  0  0  0  0  0  0
  1  2  1  0
  2  3  2  0
  3  4  1  0
  3  5  1  0
  5  6  2  0
  6  7  1  0
  7  8  2  0
  8  9  1  0
  8 10  1  0
 10 11  1  0
 10 12  2  0
 12 13  1  0
 12 14  1  0
 14 15  1  0
 14 16  2  0
 16 17  1  0
 17 18  2  0
 17 19  1  0
 19 20  1  0
 20 21  1  0
 20 22  1  0
 20 23  1  0
 23 24  1  0
 23 25  1  0
 25 26  1  0
 25 27  1  0
 25 28  1  0
 28 29  1  0
 28 30  1  0
 28 31  1  0
 31 32  1  0
 31 33  1  0
 31 34  1  0
 34 35  1  0
 34 36  1  0
 34 37  1  0
 37 38  1  0
 37 39  1  0
  2 40  1  0
 40 41  2  0
 41 42  1  0
 41 43  1  0
 43 44  2  0
 44 45  1  0
 44 46  1  0
 46 47  1  0
 46 48  2  0
 48 49  1  0
 19  5  1  0
 37 23  1  0
 48 40  1  0
 16  7  1  0
M  END
>  <UniqueID>  (30) 
24

>  <SMILES>  (30) 
O=c1c2ccccc2nc(/C=C/c2cccnc2)n1CC1CCCCC1

>  <Energy>  (30) 
68.23381780461015

>  <Genealogy>  (30) 
O=c1c2ccccc2nc(/C=C/c2cccnc2)n1CC1CCCCC1 (cis-trans isomerization)
O=c1c2ccccc2nc(/C=C/c2cccnc2)n1CC1CCCCC1 (3D coordinates assigned)
O=c1c2ccccc2nc(/C=C/c2cccnc2)n1CC1CCCCC1 (nonaromatic ring conformer: 68.23381780461015 kcal/mol)

>  <smiles>  (30) 
O=c1c2ccccc2nc(/C=C/c2cccnc2)n1CC1CCCCC1

>  <score_type>  (30) 
oracle

>  <origin>  (30) 
autodockgpu

>  <m_score__min__energy>  (30) 
-7.2300000000000004

>  <m_primary>  (30) 
energy

>  <meeko>  (30) 
{"free_energy": -7.03, "intermolecular_energy": -8.52, "internal_energy": -1.42, "cluster_size": 8, "cluster_id": 2, "rank_in_cluster": 4}

>  <energy>  (30) 
-7.02

>  <cluster_rmsd>  (30) 
0.23

>  <rmsd>  (30) 
269.15

>  <cluster>  (30) 
2

$$$$
XUFANRSCLZKORJ-OUKQBFOZNA-N
     RDKit          3D

 49 52  0  0  0  0  0  0  0  0999 V2000
  135.3266   68.4689  222.3402 H   0  0  0  0  0  0  0  0  0  0  0  0
  135.9480   68.7850  223.1910 C   0  0  0  0  0  0  0  0  0  0  0  0
  137.2770   68.6410  223.0910 C   0  0  0  0  0  0  0  0  0  0  0  0
  137.7010   68.1329  222.2123 H   0  0  0  0  0  0  0  0  0  0  0  0
  138.1860   69.1550  224.1450 C   0  0  0  0  0  0  0  0  0  0  0  0
  138.4640   68.3240  225.1850 N   0  0  0  0  0  0  0  0  0  0  0  0
  139.3080   68.6720  226.1810 C   0  0  0  0  0  0  0  0  0  0  0  0
  139.5620   67.7790  227.2280 C   0  0  0  0  0  0  0  0  0  0  0  0
  139.0644   66.7982  227.2470 H   0  0  0  0  0  0  0  0  0  0  0  0
  140.4480   68.1330  228.2500 C   0  0  0  0  0  0  0  0  0  0  0  0
  140.6469   67.4309  229.0731 H   0  0  0  0  0  0  0  0  0  0  0  0
  141.0810   69.3790  228.2260 C   0  0  0  0  0  0  0  0  0  0  0  0
  141.7767   69.6565  229.0316 H   0  0  0  0  0  0  0  0  0  0  0  0
  140.8320   70.2740  227.1800 C   0  0  0  0  0  0  0  0  0  0  0  0
  141.3338   71.2527  227.1636 H   0  0  0  0  0  0  0  0  0  0  0  0
  139.9400   69.9240  226.1480 C   0  0  0  0  0  0  0  0  0  0  0  0
  139.6530   70.7850  225.0770 C   0  0  0  0  0  0  0  0  0  0  0  0
  140.2320   71.9070  225.0190 O   0  0  0  0  0  0  0  0  0  0  0  0
  138.7540   70.4160  224.0980 N   0  0  0  0  0  0  0  0  0  0  0  0
  138.4090   71.3930  223.0320 C   0  0  0  0  0  0  0  0  0  0  0  0
  137.4363   71.1093  222.6037 H   0  0  0  0  0  0  0  0  0  0  0  0
  138.3889   72.3866  223.5036 H   0  0  0  0  0  0  0  0  0  0  0  0
  139.4490   71.4610  221.8810 C   0  0  0  0  0  0  0  0  0  0  0  0
  138.8955   71.9218  221.0495 H   0  0  0  0  0  0  0  0  0  0  0  0
  139.9320   70.0750  221.4160 C   0  0  0  0  0  0  0  0  0  0  0  0
  140.5430   69.6261  222.2130 H   0  0  0  0  0  0  0  0  0  0  0  0
  139.0451   69.4611  221.2006 H   0  0  0  0  0  0  0  0  0  0  0  0
  140.7780   70.1590  220.1270 C   0  0  0  0  0  0  0  0  0  0  0  0
  141.5974   69.4289  220.2017 H   0  0  0  0  0  0  0  0  0  0  0  0
  140.1017   69.9481  219.2855 H   0  0  0  0  0  0  0  0  0  0  0  0
  141.3890   71.5510  219.8740 C   0  0  0  0  0  0  0  0  0  0  0  0
  142.2680   71.4421  219.2216 H   0  0  0  0  0  0  0  0  0  0  0  0
  140.6236   72.1821  219.3987 H   0  0  0  0  0  0  0  0  0  0  0  0
  141.8200   72.2220  221.1810 C   0  0  0  0  0  0  0  0  0  0  0  0
  142.6120   71.6141  221.6428 H   0  0  0  0  0  0  0  0  0  0  0  0
  142.1726   73.2336  220.9315 H   0  0  0  0  0  0  0  0  0  0  0  0
  140.6600   72.3720  222.1930 C   0  0  0  0  0  0  0  0  0  0  0  0
  141.0370   72.1195  223.1951 H   0  0  0  0  0  0  0  0  0  0  0  0
  140.3078   73.4122  222.1305 H   0  0  0  0  0  0  0  0  0  0  0  0
  135.2680   69.3460  224.3830 C   0  0  0  0  0  0  0  0  0  0  0  0
  134.6340   68.5390  225.3490 C   0  0  0  0  0  0  0  0  0  0  0  0
  134.6205   67.4458  225.2272 H   0  0  0  0  0  0  0  0  0  0  0  0
  134.0390   69.1080  226.4310 N   0  0  0  0  0  0  0  0  0  0  0  0
  134.0350   70.4520  226.6240 C   0  0  0  0  0  0  0  0  0  0  0  0
  133.5379   70.8796  227.5072 H   0  0  0  0  0  0  0  0  0  0  0  0
  134.6620   71.2910  225.7010 C   0  0  0  0  0  0  0  0  0  0  0  0
  134.6650   72.3804  225.8533 H   0  0  0  0  0  0  0  0  0  0  0  0
  135.2850   70.7340  224.5830 C   0  0  0  0  0  0  0  0  0  0  0  0
  135.7912   71.3862  223.8561 H   0  0  0  0  0  0  0  0  0  0  0  0
  1  2  1  0
  2  3  2  0
  3  4  1  0
  3  5  1  0
  5  6  2  0
  6  7  1  0
  7  8  2  0
  8  9  1  0
  8 10  1  0
 10 11  1  0
 10 12  2  0
 12 13  1  0
 12 14  1  0
 14 15  1  0
 14 16  2  0
 16 17  1  0
 17 18  2  0
 17 19  1  0
 19 20  1  0
 20 21  1  0
 20 22  1  0
 20 23  1  0
 23 24  1  0
 23 25  1  0
 25 26  1  0
 25 27  1  0
 25 28  1  0
 28 29  1  0
 28 30  1  0
 28 31  1  0
 31 32  1  0
 31 33  1  0
 31 34  1  0
 34 35  1  0
 34 36  1  0
 34 37  1  0
 37 38  1  0
 37 39  1  0
  2 40  1  0
 40 41  2  0
 41 42  1  0
 41 43  1  0
 43 44  2  0
 44 45  1  0
 44 46  1  0
 46 47  1  0
 46 48  2  0
 48 49  1  0
 19  5  1  0
 37 23  1  0
 48 40  1  0
 16  7  1  0
M  END
>  <UniqueID>  (31) 
24

>  <SMILES>  (31) 
O=c1c2ccccc2nc(/C=C/c2cccnc2)n1CC1CCCCC1

>  <Energy>  (31) 
68.23381780461015

>  <Genealogy>  (31) 
O=c1c2ccccc2nc(/C=C/c2cccnc2)n1CC1CCCCC1 (cis-trans isomerization)
O=c1c2ccccc2nc(/C=C/c2cccnc2)n1CC1CCCCC1 (3D coordinates assigned)
O=c1c2ccccc2nc(/C=C/c2cccnc2)n1CC1CCCCC1 (nonaromatic ring conformer: 68.23381780461015 kcal/mol)

>  <smiles>  (31) 
O=c1c2ccccc2nc(/C=C/c2cccnc2)n1CC1CCCCC1

>  <score_type>  (31) 
oracle

>  <origin>  (31) 
autodockgpu

>  <m_score__min__energy>  (31) 
-7.2300000000000004

>  <m_primary>  (31) 
energy

>  <meeko>  (31) 
{"free_energy": -6.68, "intermolecular_energy": -8.17, "internal_energy": -1.61, "cluster_size": 8, "cluster_id": 2, "rank_in_cluster": 8}

>  <energy>  (31) 
-6.94

>  <cluster_rmsd>  (31) 
0.22

>  <rmsd>  (31) 
269.16

>  <cluster>  (31) 
2

$$$$
XUFANRSCLZKORJ-OUKQBFOZNA-N
     RDKit          3D

 49 52  0  0  0  0  0  0  0  0999 V2000
  140.7959   70.7278  220.7624 H   0  0  0  0  0  0  0  0  0  0  0  0
  140.1830   71.3780  221.4040 C   0  0  0  0  0  0  0  0  0  0  0  0
  139.2140   70.8100  222.1380 C   0  0  0  0  0  0  0  0  0  0  0  0
  138.1966   70.7353  221.7265 H   0  0  0  0  0  0  0  0  0  0  0  0
  139.4930   70.2810  223.4960 C   0  0  0  0  0  0  0  0  0  0  0  0
  140.0100   71.1490  224.4070 N   0  0  0  0  0  0  0  0  0  0  0  0
  140.2670   70.7870  225.6820 C   0  0  0  0  0  0  0  0  0  0  0  0
  140.7980   71.7200  226.5810 C   0  0  0  0  0  0  0  0  0  0  0  0
  141.0185   72.7439  226.2449 H   0  0  0  0  0  0  0  0  0  0  0  0
  141.0480   71.3500  227.9060 C   0  0  0  0  0  0  0  0  0  0  0  0
  141.4668   72.0825  228.6117 H   0  0  0  0  0  0  0  0  0  0  0  0
  140.7660   70.0500  228.3340 C   0  0  0  0  0  0  0  0  0  0  0  0
  140.9635   69.7613  229.3769 H   0  0  0  0  0  0  0  0  0  0  0  0
  140.2330   69.1140  227.4400 C   0  0  0  0  0  0  0  0  0  0  0  0
  140.0117   68.0920  227.7813 H   0  0  0  0  0  0  0  0  0  0  0  0
  139.9800   69.4800  226.1040 C   0  0  0  0  0  0  0  0  0  0  0  0
  139.4480   68.5820  225.1650 C   0  0  0  0  0  0  0  0  0  0  0  0
  139.1610   67.4080  225.5340 O   0  0  0  0  0  0  0  0  0  0  0  0
  139.2370   68.9710  223.8590 N   0  0  0  0  0  0  0  0  0  0  0  0
  138.7590   67.9630  222.8760 C   0  0  0  0  0  0  0  0  0  0  0  0
  139.4128   68.0036  221.9924 H   0  0  0  0  0  0  0  0  0  0  0  0
  138.7904   66.9856  223.3796 H   0  0  0  0  0  0  0  0  0  0  0  0
  137.2940   68.1840  222.4110 C   0  0  0  0  0  0  0  0  0  0  0  0
  137.3878   68.8558  221.5450 H   0  0  0  0  0  0  0  0  0  0  0  0
  136.4230   68.8910  223.4650 C   0  0  0  0  0  0  0  0  0  0  0  0
  136.2651   68.2070  224.3119 H   0  0  0  0  0  0  0  0  0  0  0  0
  136.9484   69.8036  223.7830 H   0  0  0  0  0  0  0  0  0  0  0  0
  135.0480   69.3060  222.8960 C   0  0  0  0  0  0  0  0  0  0  0  0
  134.2882   69.1489  223.6757 H   0  0  0  0  0  0  0  0  0  0  0  0
  135.1306   70.3609  222.5954 H   0  0  0  0  0  0  0  0  0  0  0  0
  134.6290   68.5130  221.6420 C   0  0  0  0  0  0  0  0  0  0  0  0
  133.5339   68.5502  221.5453 H   0  0  0  0  0  0  0  0  0  0  0  0
  135.1158   68.9691  220.7674 H   0  0  0  0  0  0  0  0  0  0  0  0
  135.0710   67.0500  221.7280 C   0  0  0  0  0  0  0  0  0  0  0  0
  134.5585   66.5781  222.5793 H   0  0  0  0  0  0  0  0  0  0  0  0
  134.8083   66.5695  220.7740 H   0  0  0  0  0  0  0  0  0  0  0  0
  136.5980   66.8920  221.9220 C   0  0  0  0  0  0  0  0  0  0  0  0
  136.7747   66.0991  222.6636 H   0  0  0  0  0  0  0  0  0  0  0  0
  137.0257   66.6459  220.9389 H   0  0  0  0  0  0  0  0  0  0  0  0
  140.4750   72.8310  221.4080 C   0  0  0  0  0  0  0  0  0  0  0  0
  139.6110   73.7800  221.9920 C   0  0  0  0  0  0  0  0  0  0  0  0
  138.6700   73.4518  222.4577 H   0  0  0  0  0  0  0  0  0  0  0  0
  139.9380   75.1000  221.9810 N   0  0  0  0  0  0  0  0  0  0  0  0
  141.0910   75.5480  221.4210 C   0  0  0  0  0  0  0  0  0  0  0  0
  141.3213   76.6236  221.4230 H   0  0  0  0  0  0  0  0  0  0  0  0
  141.9840   74.6450  220.8430 C   0  0  0  0  0  0  0  0  0  0  0  0
  142.9209   75.0027  220.3910 H   0  0  0  0  0  0  0  0  0  0  0  0
  141.6770   73.2840  220.8440 C   0  0  0  0  0  0  0  0  0  0  0  0
  142.3801   72.5634  220.4009 H   0  0  0  0  0  0  0  0  0  0  0  0
  1  2  1  0
  2  3  2  0
  3  4  1  0
  3  5  1  0
  5  6  2  0
  6  7  1  0
  7  8  2  0
  8  9  1  0
  8 10  1  0
 10 11  1  0
 10 12  2  0
 12 13  1  0
 12 14  1  0
 14 15  1  0
 14 16  2  0
 16 17  1  0
 17 18  2  0
 17 19  1  0
 19 20  1  0
 20 21  1  0
 20 22  1  0
 20 23  1  0
 23 24  1  0
 23 25  1  0
 25 26  1  0
 25 27  1  0
 25 28  1  0
 28 29  1  0
 28 30  1  0
 28 31  1  0
 31 32  1  0
 31 33  1  0
 31 34  1  0
 34 35  1  0
 34 36  1  0
 34 37  1  0
 37 38  1  0
 37 39  1  0
  2 40  1  0
 40 41  2  0
 41 42  1  0
 41 43  1  0
 43 44  2  0
 44 45  1  0
 44 46  1  0
 46 47  1  0
 46 48  2  0
 48 49  1  0
 19  5  1  0
 37 23  1  0
 48 40  1  0
 16  7  1  0
M  END
>  <UniqueID>  (32) 
24

>  <SMILES>  (32) 
O=c1c2ccccc2nc(/C=C/c2cccnc2)n1CC1CCCCC1

>  <Energy>  (32) 
68.23381780461015

>  <Genealogy>  (32) 
O=c1c2ccccc2nc(/C=C/c2cccnc2)n1CC1CCCCC1 (cis-trans isomerization)
O=c1c2ccccc2nc(/C=C/c2cccnc2)n1CC1CCCCC1 (3D coordinates assigned)
O=c1c2ccccc2nc(/C=C/c2cccnc2)n1CC1CCCCC1 (nonaromatic ring conformer: 68.23381780461015 kcal/mol)

>  <smiles>  (32) 
O=c1c2ccccc2nc(/C=C/c2cccnc2)n1CC1CCCCC1

>  <score_type>  (32) 
oracle

>  <origin>  (32) 
autodockgpu

>  <m_score__min__energy>  (32) 
-7.2300000000000004

>  <m_primary>  (32) 
energy

>  <meeko>  (32) 
{"free_energy": -7.22, "intermolecular_energy": -8.71, "internal_energy": -1.23, "cluster_size": 5, "cluster_id": 1, "rank_in_cluster": 2}

>  <energy>  (32) 
-6.75

>  <cluster_rmsd>  (32) 
0.48

>  <rmsd>  (32) 
269.02

>  <cluster>  (32) 
2

$$$$
XUFANRSCLZKORJ-OUKQBFOZNA-N
     RDKit          3D

 49 52  0  0  0  0  0  0  0  0999 V2000
  135.3774   68.9644  222.2467 H   0  0  0  0  0  0  0  0  0  0  0  0
  135.9370   69.0210  223.1920 C   0  0  0  0  0  0  0  0  0  0  0  0
  137.2330   68.6750  223.1810 C   0  0  0  0  0  0  0  0  0  0  0  0
  137.6077   68.0064  222.3920 H   0  0  0  0  0  0  0  0  0  0  0  0
  138.1690   69.1790  224.2150 C   0  0  0  0  0  0  0  0  0  0  0  0
  138.4570   68.3470  225.2520 N   0  0  0  0  0  0  0  0  0  0  0  0
  139.3250   68.6870  226.2290 C   0  0  0  0  0  0  0  0  0  0  0  0
  139.5880   67.7930  227.2740 C   0  0  0  0  0  0  0  0  0  0  0  0
  139.0778   66.8190  227.3059 H   0  0  0  0  0  0  0  0  0  0  0  0
  140.4990   68.1380  228.2770 C   0  0  0  0  0  0  0  0  0  0  0  0
  140.7040   67.4360  229.0987 H   0  0  0  0  0  0  0  0  0  0  0  0
  141.1490   69.3740  228.2360 C   0  0  0  0  0  0  0  0  0  0  0  0
  141.8648   69.6437  229.0265 H   0  0  0  0  0  0  0  0  0  0  0  0
  140.8920   70.2700  227.1920 C   0  0  0  0  0  0  0  0  0  0  0  0
  141.4078   71.2411  227.1621 H   0  0  0  0  0  0  0  0  0  0  0  0
  139.9740   69.9300  226.1800 C   0  0  0  0  0  0  0  0  0  0  0  0
  139.6780   70.7920  225.1110 C   0  0  0  0  0  0  0  0  0  0  0  0
  140.2710   71.9050  225.0380 O   0  0  0  0  0  0  0  0  0  0  0  0
  138.7540   70.4320  224.1520 N   0  0  0  0  0  0  0  0  0  0  0  0
  138.4020   71.4100  223.0900 C   0  0  0  0  0  0  0  0  0  0  0  0
  137.4237   71.1303  222.6720 H   0  0  0  0  0  0  0  0  0  0  0  0
  138.3911   72.4036  223.5618 H   0  0  0  0  0  0  0  0  0  0  0  0
  139.4300   71.4740  221.9280 C   0  0  0  0  0  0  0  0  0  0  0  0
  138.8640   71.9180  221.0959 H   0  0  0  0  0  0  0  0  0  0  0  0
  139.9230   70.0870  221.4770 C   0  0  0  0  0  0  0  0  0  0  0  0
  140.5464   69.6553  222.2739 H   0  0  0  0  0  0  0  0  0  0  0  0
  139.0407   69.4607  221.2787 H   0  0  0  0  0  0  0  0  0  0  0  0
  140.7560   70.1630  220.1780 C   0  0  0  0  0  0  0  0  0  0  0  0
  141.5838   69.4426  220.2540 H   0  0  0  0  0  0  0  0  0  0  0  0
  140.0740   69.9339  219.3459 H   0  0  0  0  0  0  0  0  0  0  0  0
  141.3500   71.5590  219.9010 C   0  0  0  0  0  0  0  0  0  0  0  0
  142.2240   71.4509  219.2418 H   0  0  0  0  0  0  0  0  0  0  0  0
  140.5733   72.1755  219.4249 H   0  0  0  0  0  0  0  0  0  0  0  0
  141.7860   72.2520  221.1950 C   0  0  0  0  0  0  0  0  0  0  0  0
  142.5893   71.6592  221.6570 H   0  0  0  0  0  0  0  0  0  0  0  0
  142.1247   73.2642  220.9290 H   0  0  0  0  0  0  0  0  0  0  0  0
  140.6340   72.4020  222.2160 C   0  0  0  0  0  0  0  0  0  0  0  0
  141.0234   72.1666  223.2175 H   0  0  0  0  0  0  0  0  0  0  0  0
  140.2695   73.4373  222.1431 H   0  0  0  0  0  0  0  0  0  0  0  0
  135.2160   69.4750  224.4040 C   0  0  0  0  0  0  0  0  0  0  0  0
  134.6580   68.5800  225.3390 C   0  0  0  0  0  0  0  0  0  0  0  0
  134.7388   67.4953  225.1752 H   0  0  0  0  0  0  0  0  0  0  0  0
  134.0200   69.0530  226.4430 N   0  0  0  0  0  0  0  0  0  0  0  0
  133.9020   70.3830  226.6870 C   0  0  0  0  0  0  0  0  0  0  0  0
  133.3741   70.7321  227.5867 H   0  0  0  0  0  0  0  0  0  0  0  0
  134.4500   71.3080  225.7970 C   0  0  0  0  0  0  0  0  0  0  0  0
  134.3584   72.3869  225.9910 H   0  0  0  0  0  0  0  0  0  0  0  0
  135.1150   70.8510  224.6590 C   0  0  0  0  0  0  0  0  0  0  0  0
  135.5619   71.5722  223.9589 H   0  0  0  0  0  0  0  0  0  0  0  0
  1  2  1  0
  2  3  2  0
  3  4  1  0
  3  5  1  0
  5  6  2  0
  6  7  1  0
  7  8  2  0
  8  9  1  0
  8 10  1  0
 10 11  1  0
 10 12  2  0
 12 13  1  0
 12 14  1  0
 14 15  1  0
 14 16  2  0
 16 17  1  0
 17 18  2  0
 17 19  1  0
 19 20  1  0
 20 21  1  0
 20 22  1  0
 20 23  1  0
 23 24  1  0
 23 25  1  0
 25 26  1  0
 25 27  1  0
 25 28  1  0
 28 29  1  0
 28 30  1  0
 28 31  1  0
 31 32  1  0
 31 33  1  0
 31 34  1  0
 34 35  1  0
 34 36  1  0
 34 37  1  0
 37 38  1  0
 37 39  1  0
  2 40  1  0
 40 41  2  0
 41 42  1  0
 41 43  1  0
 43 44  2  0
 44 45  1  0
 44 46  1  0
 46 47  1  0
 46 48  2  0
 48 49  1  0
 19  5  1  0
 37 23  1  0
 48 40  1  0
 16  7  1  0
M  END
>  <UniqueID>  (33) 
24

>  <SMILES>  (33) 
O=c1c2ccccc2nc(/C=C/c2cccnc2)n1CC1CCCCC1

>  <Energy>  (33) 
68.23381780461015

>  <Genealogy>  (33) 
O=c1c2ccccc2nc(/C=C/c2cccnc2)n1CC1CCCCC1 (cis-trans isomerization)
O=c1c2ccccc2nc(/C=C/c2cccnc2)n1CC1CCCCC1 (3D coordinates assigned)
O=c1c2ccccc2nc(/C=C/c2cccnc2)n1CC1CCCCC1 (nonaromatic ring conformer: 68.23381780461015 kcal/mol)

>  <smiles>  (33) 
O=c1c2ccccc2nc(/C=C/c2cccnc2)n1CC1CCCCC1

>  <score_type>  (33) 
oracle

>  <origin>  (33) 
autodockgpu

>  <m_score__min__energy>  (33) 
-7.2300000000000004

>  <m_primary>  (33) 
energy

>  <meeko>  (33) 
{"free_energy": -6.75, "intermolecular_energy": -8.24, "internal_energy": -1.58, "cluster_size": 8, "cluster_id": 2, "rank_in_cluster": 7}

>  <energy>  (33) 
-6.68

>  <cluster_rmsd>  (33) 
0.53

>  <rmsd>  (33) 
268.99

>  <cluster>  (33) 
2

$$$$
XUFANRSCLZKORJ-OUKQBFOZNA-N
     RDKit          3D

 49 52  0  0  0  0  0  0  0  0999 V2000
  135.5744   69.4951  222.3117 H   0  0  0  0  0  0  0  0  0  0  0  0
  136.0310   69.3380  223.3000 C   0  0  0  0  0  0  0  0  0  0  0  0
  137.2700   68.8270  223.3500 C   0  0  0  0  0  0  0  0  0  0  0  0
  137.5648   68.0518  222.6274 H   0  0  0  0  0  0  0  0  0  0  0  0
  138.2500   69.2900  224.3640 C   0  0  0  0  0  0  0  0  0  0  0  0
  138.4990   68.4590  225.4120 N   0  0  0  0  0  0  0  0  0  0  0  0
  139.3990   68.7600  226.3730 C   0  0  0  0  0  0  0  0  0  0  0  0
  139.6190   67.8690  227.4300 C   0  0  0  0  0  0  0  0  0  0  0  0
  139.0495   66.9295  227.4855 H   0  0  0  0  0  0  0  0  0  0  0  0
  140.5630   68.1740  228.4150 C   0  0  0  0  0  0  0  0  0  0  0  0
  140.7360   67.4742  229.2459 H   0  0  0  0  0  0  0  0  0  0  0  0
  141.2870   69.3670  228.3450 C   0  0  0  0  0  0  0  0  0  0  0  0
  142.0282   69.6051  229.1221 H   0  0  0  0  0  0  0  0  0  0  0  0
  141.0720   70.2590  227.2900 C   0  0  0  0  0  0  0  0  0  0  0  0
  141.6455   71.1962  227.2381 H   0  0  0  0  0  0  0  0  0  0  0  0
  140.1230   69.9600  226.2940 C   0  0  0  0  0  0  0  0  0  0  0  0
  139.8660   70.8200  225.2150 C   0  0  0  0  0  0  0  0  0  0  0  0
  140.5260   71.8930  225.1150 O   0  0  0  0  0  0  0  0  0  0  0  0
  138.9100   70.5030  224.2730 N   0  0  0  0  0  0  0  0  0  0  0  0
  138.6050   71.4830  223.1980 C   0  0  0  0  0  0  0  0  0  0  0  0
  137.8957   71.0187  222.4970 H   0  0  0  0  0  0  0  0  0  0  0  0
  138.1904   72.3762  223.6882 H   0  0  0  0  0  0  0  0  0  0  0  0
  139.8520   71.9460  222.3970 C   0  0  0  0  0  0  0  0  0  0  0  0
  140.6585   71.9611  223.1449 H   0  0  0  0  0  0  0  0  0  0  0  0
  139.7110   73.3680  221.8240 C   0  0  0  0  0  0  0  0  0  0  0  0
  138.9530   73.3563  221.0270 H   0  0  0  0  0  0  0  0  0  0  0  0
  139.4145   74.0376  222.6448 H   0  0  0  0  0  0  0  0  0  0  0  0
  141.0420   73.8900  221.2390 C   0  0  0  0  0  0  0  0  0  0  0  0
  140.8185   74.4681  220.3302 H   0  0  0  0  0  0  0  0  0  0  0  0
  141.5177   74.5012  222.0202 H   0  0  0  0  0  0  0  0  0  0  0  0
  142.0400   72.7740  220.8720 C   0  0  0  0  0  0  0  0  0  0  0  0
  142.7413   73.1567  220.1159 H   0  0  0  0  0  0  0  0  0  0  0  0
  142.5730   72.4748  221.7865 H   0  0  0  0  0  0  0  0  0  0  0  0
  141.3260   71.5420  220.3090 C   0  0  0  0  0  0  0  0  0  0  0  0
  140.8214   71.8257  219.3737 H   0  0  0  0  0  0  0  0  0  0  0  0
  142.0877   70.7657  220.1441 H   0  0  0  0  0  0  0  0  0  0  0  0
  140.2730   70.9600  221.2810 C   0  0  0  0  0  0  0  0  0  0  0  0
  139.3784   70.6865  220.7023 H   0  0  0  0  0  0  0  0  0  0  0  0
  140.7328   70.0906  221.7737 H   0  0  0  0  0  0  0  0  0  0  0  0
  135.2420   69.7030  224.5000 C   0  0  0  0  0  0  0  0  0  0  0  0
  134.6940   68.7420  225.3730 C   0  0  0  0  0  0  0  0  0  0  0  0
  134.8346   67.6706  225.1671 H   0  0  0  0  0  0  0  0  0  0  0  0
  133.9920   69.1350  226.4690 N   0  0  0  0  0  0  0  0  0  0  0  0
  133.7960   70.4460  226.7630 C   0  0  0  0  0  0  0  0  0  0  0  0
  133.2163   70.7292  227.6539 H   0  0  0  0  0  0  0  0  0  0  0  0
  134.3300   71.4340  225.9350 C   0  0  0  0  0  0  0  0  0  0  0  0
  134.1764   72.4976  226.1696 H   0  0  0  0  0  0  0  0  0  0  0  0
  135.0610   71.0600  224.8060 C   0  0  0  0  0  0  0  0  0  0  0  0
  135.4964   71.8318  224.1543 H   0  0  0  0  0  0  0  0  0  0  0  0
  1  2  1  0
  2  3  2  0
  3  4  1  0
  3  5  1  0
  5  6  2  0
  6  7  1  0
  7  8  2  0
  8  9  1  0
  8 10  1  0
 10 11  1  0
 10 12  2  0
 12 13  1  0
 12 14  1  0
 14 15  1  0
 14 16  2  0
 16 17  1  0
 17 18  2  0
 17 19  1  0
 19 20  1  0
 20 21  1  0
 20 22  1  0
 20 23  1  0
 23 24  1  0
 23 25  1  0
 25 26  1  0
 25 27  1  0
 25 28  1  0
 28 29  1  0
 28 30  1  0
 28 31  1  0
 31 32  1  0
 31 33  1  0
 31 34  1  0
 34 35  1  0
 34 36  1  0
 34 37  1  0
 37 38  1  0
 37 39  1  0
  2 40  1  0
 40 41  2  0
 41 42  1  0
 41 43  1  0
 43 44  2  0
 44 45  1  0
 44 46  1  0
 46 47  1  0
 46 48  2  0
 48 49  1  0
 19  5  1  0
 37 23  1  0
 48 40  1  0
 16  7  1  0
M  END
>  <UniqueID>  (34) 
24

>  <SMILES>  (34) 
O=c1c2ccccc2nc(/C=C/c2cccnc2)n1CC1CCCCC1

>  <Energy>  (34) 
68.23381780461015

>  <Genealogy>  (34) 
O=c1c2ccccc2nc(/C=C/c2cccnc2)n1CC1CCCCC1 (cis-trans isomerization)
O=c1c2ccccc2nc(/C=C/c2cccnc2)n1CC1CCCCC1 (3D coordinates assigned)
O=c1c2ccccc2nc(/C=C/c2cccnc2)n1CC1CCCCC1 (nonaromatic ring conformer: 68.23381780461015 kcal/mol)

>  <smiles>  (34) 
O=c1c2ccccc2nc(/C=C/c2cccnc2)n1CC1CCCCC1

>  <score_type>  (34) 
oracle

>  <origin>  (34) 
autodockgpu

>  <m_score__min__energy>  (34) 
-7.2300000000000004

>  <m_primary>  (34) 
energy

>  <meeko>  (34) 
{"free_energy": -7.15, "intermolecular_energy": -8.64, "internal_energy": -1.35, "cluster_size": 8, "cluster_id": 2, "rank_in_cluster": 1}

>  <energy>  (34) 
-7.08

>  <cluster_rmsd>  (34) 
0.0

>  <rmsd>  (34) 
269.38

>  <cluster>  (34) 
3

$$$$
XUFANRSCLZKORJ-OUKQBFOZNA-N
     RDKit          3D

 49 52  0  0  0  0  0  0  0  0999 V2000
  137.6386   71.5392  221.3489 H   0  0  0  0  0  0  0  0  0  0  0  0
  138.6470   71.7630  221.7270 C   0  0  0  0  0  0  0  0  0  0  0  0
  139.4460   70.7340  222.0440 C   0  0  0  0  0  0  0  0  0  0  0  0
  139.9709   70.1906  221.2445 H   0  0  0  0  0  0  0  0  0  0  0  0
  139.6340   70.3160  223.4550 C   0  0  0  0  0  0  0  0  0  0  0  0
  140.2380   71.2040  224.2910 N   0  0  0  0  0  0  0  0  0  0  0  0
  140.4270   70.9460  225.6030 C   0  0  0  0  0  0  0  0  0  0  0  0
  141.0530   71.8940  226.4200 C   0  0  0  0  0  0  0  0  0  0  0  0
  141.4036   72.8441  225.9906 H   0  0  0  0  0  0  0  0  0  0  0  0
  141.2330   71.6340  227.7820 C   0  0  0  0  0  0  0  0  0  0  0  0
  141.7265   72.3788  228.4236 H   0  0  0  0  0  0  0  0  0  0  0  0
  140.7860   70.4280  228.3280 C   0  0  0  0  0  0  0  0  0  0  0  0
  140.9284   70.2251  229.3997 H   0  0  0  0  0  0  0  0  0  0  0  0
  140.1580   69.4780  227.5160 C   0  0  0  0  0  0  0  0  0  0  0  0
  139.8074   68.5301  227.9503 H   0  0  0  0  0  0  0  0  0  0  0  0
  139.9740   69.7330  226.1440 C   0  0  0  0  0  0  0  0  0  0  0  0
  139.3520   68.8140  225.2830 C   0  0  0  0  0  0  0  0  0  0  0  0
  138.9160   67.7270  225.7590 O   0  0  0  0  0  0  0  0  0  0  0  0
  139.2130   69.0900  223.9390 N   0  0  0  0  0  0  0  0  0  0  0  0
  138.6310   68.0530  223.0480 C   0  0  0  0  0  0  0  0  0  0  0  0
  139.2956   67.9292  222.1803 H   0  0  0  0  0  0  0  0  0  0  0  0
  138.5402   67.1335  223.6449 H   0  0  0  0  0  0  0  0  0  0  0  0
  137.2080   68.3960  222.5290 C   0  0  0  0  0  0  0  0  0  0  0  0
  137.3883   69.0938  221.6980 H   0  0  0  0  0  0  0  0  0  0  0  0
  136.3390   69.1210  223.5730 C   0  0  0  0  0  0  0  0  0  0  0  0
  136.0938   68.4169  224.3818 H   0  0  0  0  0  0  0  0  0  0  0  0
  136.9107   69.9803  223.9536 H   0  0  0  0  0  0  0  0  0  0  0  0
  135.0250   69.6550  222.9610 C   0  0  0  0  0  0  0  0  0  0  0  0
  134.2198   69.5224  223.6986 H   0  0  0  0  0  0  0  0  0  0  0  0
  135.1953   70.7121  222.7091 H   0  0  0  0  0  0  0  0  0  0  0  0
  134.6120   68.9440  221.6580 C   0  0  0  0  0  0  0  0  0  0  0  0
  133.5279   69.0629  221.5145 H   0  0  0  0  0  0  0  0  0  0  0  0
  135.1702   69.3982  220.8261 H   0  0  0  0  0  0  0  0  0  0  0  0
  134.9470   67.4500  221.7010 C   0  0  0  0  0  0  0  0  0  0  0  0
  134.3641   66.9828  222.5085 H   0  0  0  0  0  0  0  0  0  0  0  0
  134.6959   67.0273  220.7170 H   0  0  0  0  0  0  0  0  0  0  0  0
  136.4480   67.1760  221.9540 C   0  0  0  0  0  0  0  0  0  0  0  0
  136.5349   66.3433  222.6675 H   0  0  0  0  0  0  0  0  0  0  0  0
  136.9031   66.9394  220.9809 H   0  0  0  0  0  0  0  0  0  0  0  0
  139.0450   73.1850  221.8570 C   0  0  0  0  0  0  0  0  0  0  0  0
  140.3920   73.6010  221.8690 C   0  0  0  0  0  0  0  0  0  0  0  0
  141.1970   72.8553  221.7924 H   0  0  0  0  0  0  0  0  0  0  0  0
  140.6990   74.9220  221.9750 N   0  0  0  0  0  0  0  0  0  0  0  0
  139.7370   75.8760  222.0680 C   0  0  0  0  0  0  0  0  0  0  0  0
  140.0202   76.9349  222.1599 H   0  0  0  0  0  0  0  0  0  0  0  0
  138.3900   75.5140  222.0470 C   0  0  0  0  0  0  0  0  0  0  0  0
  137.6071   76.2833  222.1196 H   0  0  0  0  0  0  0  0  0  0  0  0
  138.0450   74.1660  221.9330 C   0  0  0  0  0  0  0  0  0  0  0  0
  136.9854   73.8721  221.9027 H   0  0  0  0  0  0  0  0  0  0  0  0
  1  2  1  0
  2  3  2  0
  3  4  1  0
  3  5  1  0
  5  6  2  0
  6  7  1  0
  7  8  2  0
  8  9  1  0
  8 10  1  0
 10 11  1  0
 10 12  2  0
 12 13  1  0
 12 14  1  0
 14 15  1  0
 14 16  2  0
 16 17  1  0
 17 18  2  0
 17 19  1  0
 19 20  1  0
 20 21  1  0
 20 22  1  0
 20 23  1  0
 23 24  1  0
 23 25  1  0
 25 26  1  0
 25 27  1  0
 25 28  1  0
 28 29  1  0
 28 30  1  0
 28 31  1  0
 31 32  1  0
 31 33  1  0
 31 34  1  0
 34 35  1  0
 34 36  1  0
 34 37  1  0
 37 38  1  0
 37 39  1  0
  2 40  1  0
 40 41  2  0
 41 42  1  0
 41 43  1  0
 43 44  2  0
 44 45  1  0
 44 46  1  0
 46 47  1  0
 46 48  2  0
 48 49  1  0
 19  5  1  0
 37 23  1  0
 48 40  1  0
 16  7  1  0
M  END
>  <UniqueID>  (35) 
24

>  <SMILES>  (35) 
O=c1c2ccccc2nc(/C=C/c2cccnc2)n1CC1CCCCC1

>  <Energy>  (35) 
68.23381780461015

>  <Genealogy>  (35) 
O=c1c2ccccc2nc(/C=C/c2cccnc2)n1CC1CCCCC1 (cis-trans isomerization)
O=c1c2ccccc2nc(/C=C/c2cccnc2)n1CC1CCCCC1 (3D coordinates assigned)
O=c1c2ccccc2nc(/C=C/c2cccnc2)n1CC1CCCCC1 (nonaromatic ring conformer: 68.23381780461015 kcal/mol)

>  <smiles>  (35) 
O=c1c2ccccc2nc(/C=C/c2cccnc2)n1CC1CCCCC1

>  <score_type>  (35) 
oracle

>  <origin>  (35) 
autodockgpu

>  <m_score__min__energy>  (35) 
-7.2300000000000004

>  <m_primary>  (35) 
energy

>  <meeko>  (35) 
{"free_energy": -6.94, "intermolecular_energy": -8.43, "internal_energy": -1.42, "cluster_size": 5, "cluster_id": 1, "rank_in_cluster": 5}

>  <energy>  (35) 
-6.94

>  <cluster_rmsd>  (35) 
0.38

>  <rmsd>  (35) 
269.4

>  <cluster>  (35) 
3

$$$$
XUFANRSCLZKORJ-OUKQBFOZNA-N
     RDKit          3D

 49 52  0  0  0  0  0  0  0  0999 V2000
  142.2202   71.6351  219.3034 H   0  0  0  0  0  0  0  0  0  0  0  0
  142.6510   72.0260  220.2370 C   0  0  0  0  0  0  0  0  0  0  0  0
  141.9120   71.9510  221.3540 C   0  0  0  0  0  0  0  0  0  0  0  0
  142.0949   71.1360  222.0698 H   0  0  0  0  0  0  0  0  0  0  0  0
  140.8520   72.9490  221.6400 C   0  0  0  0  0  0  0  0  0  0  0  0
  141.2050   74.2620  221.5940 N   0  0  0  0  0  0  0  0  0  0  0  0
  140.3140   75.2550  221.7990 C   0  0  0  0  0  0  0  0  0  0  0  0
  140.7280   76.5910  221.7390 C   0  0  0  0  0  0  0  0  0  0  0  0
  141.7824   76.8313  221.5375 H   0  0  0  0  0  0  0  0  0  0  0  0
  139.8020   77.6200  221.9350 C   0  0  0  0  0  0  0  0  0  0  0  0
  140.1284   78.6694  221.8885 H   0  0  0  0  0  0  0  0  0  0  0  0
  138.4620   77.3160  222.1900 C   0  0  0  0  0  0  0  0  0  0  0  0
  137.7354   78.1272  222.3448 H   0  0  0  0  0  0  0  0  0  0  0  0
  138.0420   75.9820  222.2490 C   0  0  0  0  0  0  0  0  0  0  0  0
  136.9862   75.7466  222.4486 H   0  0  0  0  0  0  0  0  0  0  0  0
  138.9700   74.9410  222.0530 C   0  0  0  0  0  0  0  0  0  0  0  0
  138.6030   73.5860  222.1030 C   0  0  0  0  0  0  0  0  0  0  0  0
  137.3930   73.2860  222.3070 O   0  0  0  0  0  0  0  0  0  0  0  0
  139.5460   72.5950  221.9310 N   0  0  0  0  0  0  0  0  0  0  0  0
  139.1340   71.1750  222.0830 C   0  0  0  0  0  0  0  0  0  0  0  0
  138.0374   71.1234  222.0135 H   0  0  0  0  0  0  0  0  0  0  0  0
  139.6355   70.6102  221.2833 H   0  0  0  0  0  0  0  0  0  0  0  0
  139.5690   70.5330  223.4280 C   0  0  0  0  0  0  0  0  0  0  0  0
  140.2976   69.7637  223.1325 H   0  0  0  0  0  0  0  0  0  0  0  0
  138.4160   69.8310  224.1670 C   0  0  0  0  0  0  0  0  0  0  0  0
  137.7090   70.5929  224.5271 H   0  0  0  0  0  0  0  0  0  0  0  0
  137.9313   69.1400  223.4616 H   0  0  0  0  0  0  0  0  0  0  0  0
  138.9180   69.0070  225.3730 C   0  0  0  0  0  0  0  0  0  0  0  0
  138.1889   69.1090  226.1903 H   0  0  0  0  0  0  0  0  0  0  0  0
  139.0226   67.9673  225.0294 H   0  0  0  0  0  0  0  0  0  0  0  0
  140.2990   69.4480  225.8960 C   0  0  0  0  0  0  0  0  0  0  0  0
  140.4005   69.1342  226.9454 H   0  0  0  0  0  0  0  0  0  0  0  0
  141.0712   68.9774  225.2697 H   0  0  0  0  0  0  0  0  0  0  0  0
  140.4730   70.9680  225.8120 C   0  0  0  0  0  0  0  0  0  0  0  0
  139.7272   71.4432  226.4663 H   0  0  0  0  0  0  0  0  0  0  0  0
  141.5013   71.2000  226.1265 H   0  0  0  0  0  0  0  0  0  0  0  0
  140.2920   71.5170  224.3780 C   0  0  0  0  0  0  0  0  0  0  0  0
  139.7037   72.4449  224.4319 H   0  0  0  0  0  0  0  0  0  0  0  0
  141.2981   71.6848  223.9660 H   0  0  0  0  0  0  0  0  0  0  0  0
  144.0140   72.6050  220.1880 C   0  0  0  0  0  0  0  0  0  0  0  0
  145.0770   71.9940  219.4910 C   0  0  0  0  0  0  0  0  0  0  0  0
  144.9125   71.0419  218.9652 H   0  0  0  0  0  0  0  0  0  0  0  0
  146.3040   72.5780  219.4670 N   0  0  0  0  0  0  0  0  0  0  0  0
  146.5510   73.7550  220.0980 C   0  0  0  0  0  0  0  0  0  0  0  0
  147.5578   74.1968  220.0638 H   0  0  0  0  0  0  0  0  0  0  0  0
  145.5270   74.4040  220.7900 C   0  0  0  0  0  0  0  0  0  0  0  0
  145.7205   75.3586  221.3012 H   0  0  0  0  0  0  0  0  0  0  0  0
  144.2550   73.8300  220.8270 C   0  0  0  0  0  0  0  0  0  0  0  0
  143.4388   74.3403  221.3593 H   0  0  0  0  0  0  0  0  0  0  0  0
  1  2  1  0
  2  3  2  0
  3  4  1  0
  3  5  1  0
  5  6  2  0
  6  7  1  0
  7  8  2  0
  8  9  1  0
  8 10  1  0
 10 11  1  0
 10 12  2  0
 12 13  1  0
 12 14  1  0
 14 15  1  0
 14 16  2  0
 16 17  1  0
 17 18  2  0
 17 19  1  0
 19 20  1  0
 20 21  1  0
 20 22  1  0
 20 23  1  0
 23 24  1  0
 23 25  1  0
 25 26  1  0
 25 27  1  0
 25 28  1  0
 28 29  1  0
 28 30  1  0
 28 31  1  0
 31 32  1  0
 31 33  1  0
 31 34  1  0
 34 35  1  0
 34 36  1  0
 34 37  1  0
 37 38  1  0
 37 39  1  0
  2 40  1  0
 40 41  2  0
 41 42  1  0
 41 43  1  0
 43 44  2  0
 44 45  1  0
 44 46  1  0
 46 47  1  0
 46 48  2  0
 48 49  1  0
 19  5  1  0
 37 23  1  0
 48 40  1  0
 16  7  1  0
M  END
>  <UniqueID>  (36) 
24

>  <SMILES>  (36) 
O=c1c2ccccc2nc(/C=C/c2cccnc2)n1CC1CCCCC1

>  <Energy>  (36) 
68.23381780461015

>  <Genealogy>  (36) 
O=c1c2ccccc2nc(/C=C/c2cccnc2)n1CC1CCCCC1 (cis-trans isomerization)
O=c1c2ccccc2nc(/C=C/c2cccnc2)n1CC1CCCCC1 (3D coordinates assigned)
O=c1c2ccccc2nc(/C=C/c2cccnc2)n1CC1CCCCC1 (nonaromatic ring conformer: 68.23381780461015 kcal/mol)

>  <smiles>  (36) 
O=c1c2ccccc2nc(/C=C/c2cccnc2)n1CC1CCCCC1

>  <score_type>  (36) 
oracle

>  <origin>  (36) 
autodockgpu

>  <m_score__min__energy>  (36) 
-7.2300000000000004

>  <m_primary>  (36) 
energy

>  <meeko>  (36) 
{"free_energy": -7.03, "intermolecular_energy": -8.53, "internal_energy": -1.24, "cluster_size": 1, "cluster_id": 4, "rank_in_cluster": 1}

>  <energy>  (36) 
-7.03

>  <cluster_rmsd>  (36) 
0.0

>  <rmsd>  (36) 
269.15

>  <cluster>  (36) 
4

$$$$
XUFANRSCLZKORJ-OUKQBFOZNA-N
     RDKit          3D

 49 52  0  0  0  0  0  0  0  0999 V2000
  140.7036   70.7425  220.7182 H   0  0  0  0  0  0  0  0  0  0  0  0
  140.1430   71.4010  221.3980 C   0  0  0  0  0  0  0  0  0  0  0  0
  139.1940   70.8520  222.1710 C   0  0  0  0  0  0  0  0  0  0  0  0
  138.1655   70.7714  221.7894 H   0  0  0  0  0  0  0  0  0  0  0  0
  139.5080   70.3520  223.5310 C   0  0  0  0  0  0  0  0  0  0  0  0
  140.0490   71.2390  224.4100 N   0  0  0  0  0  0  0  0  0  0  0  0
  140.3390   70.9040  225.6850 C   0  0  0  0  0  0  0  0  0  0  0  0
  140.8940   71.8550  226.5500 C   0  0  0  0  0  0  0  0  0  0  0  0
  141.1058   72.8715  226.1867 H   0  0  0  0  0  0  0  0  0  0  0  0
  141.1790   71.5130  227.8750 C   0  0  0  0  0  0  0  0  0  0  0  0
  141.6162   72.2602  228.5536 H   0  0  0  0  0  0  0  0  0  0  0  0
  140.9090   70.2230  228.3380 C   0  0  0  0  0  0  0  0  0  0  0  0
  141.1349   69.9563  229.3810 H   0  0  0  0  0  0  0  0  0  0  0  0
  140.3520   69.2690  227.4790 C   0  0  0  0  0  0  0  0  0  0  0  0
  140.1389   68.2550  227.8482 H   0  0  0  0  0  0  0  0  0  0  0  0
  140.0640   69.6060  226.1420 C   0  0  0  0  0  0  0  0  0  0  0  0
  139.5070   68.6880  225.2380 C   0  0  0  0  0  0  0  0  0  0  0  0
  139.2300   67.5230  225.6390 O   0  0  0  0  0  0  0  0  0  0  0  0
  139.2620   69.0500  223.9290 N   0  0  0  0  0  0  0  0  0  0  0  0
  138.7580   68.0220  222.9810 C   0  0  0  0  0  0  0  0  0  0  0  0
  139.2900   68.1414  222.0256 H   0  0  0  0  0  0  0  0  0  0  0  0
  138.9402   67.0420  223.4461 H   0  0  0  0  0  0  0  0  0  0  0  0
  137.2320   68.1140  222.7060 C   0  0  0  0  0  0  0  0  0  0  0  0
  136.8582   67.1050  222.9347 H   0  0  0  0  0  0  0  0  0  0  0  0
  136.8990   68.4200  221.2340 C   0  0  0  0  0  0  0  0  0  0  0  0
  137.2076   69.4511  221.0068 H   0  0  0  0  0  0  0  0  0  0  0  0
  137.4385   67.6961  220.6056 H   0  0  0  0  0  0  0  0  0  0  0  0
  135.3890   68.2750  220.9410 C   0  0  0  0  0  0  0  0  0  0  0  0
  135.0939   69.0694  220.2397 H   0  0  0  0  0  0  0  0  0  0  0  0
  135.2387   67.2683  220.5240 H   0  0  0  0  0  0  0  0  0  0  0  0
  134.4990   68.3790  222.1960 C   0  0  0  0  0  0  0  0  0  0  0  0
  133.4855   68.6789  221.8913 H   0  0  0  0  0  0  0  0  0  0  0  0
  134.4852   67.3968  222.6910 H   0  0  0  0  0  0  0  0  0  0  0  0
  135.0450   69.4090  223.1890 C   0  0  0  0  0  0  0  0  0  0  0  0
  135.0269   70.4001  222.7121 H   0  0  0  0  0  0  0  0  0  0  0  0
  134.4075   69.3738  224.0848 H   0  0  0  0  0  0  0  0  0  0  0  0
  136.4930   69.1040  223.6380 C   0  0  0  0  0  0  0  0  0  0  0  0
  137.0569   70.0482  223.6605 H   0  0  0  0  0  0  0  0  0  0  0  0
  136.4319   68.6313  224.6294 H   0  0  0  0  0  0  0  0  0  0  0  0
  140.4790   72.8450  221.4080 C   0  0  0  0  0  0  0  0  0  0  0  0
  139.6430   73.8180  221.9920 C   0  0  0  0  0  0  0  0  0  0  0  0
  138.6908   73.5177  222.4536 H   0  0  0  0  0  0  0  0  0  0  0  0
  140.0110   75.1270  221.9860 N   0  0  0  0  0  0  0  0  0  0  0  0
  141.1780   75.5420  221.4310 C   0  0  0  0  0  0  0  0  0  0  0  0
  141.4408   76.6101  221.4373 H   0  0  0  0  0  0  0  0  0  0  0  0
  142.0450   74.6130  220.8520 C   0  0  0  0  0  0  0  0  0  0  0  0
  142.9934   74.9429  220.4029 H   0  0  0  0  0  0  0  0  0  0  0  0
  141.6960   73.2620  220.8490 C   0  0  0  0  0  0  0  0  0  0  0  0
  142.3780   72.5210  220.4065 H   0  0  0  0  0  0  0  0  0  0  0  0
  1  2  1  0
  2  3  2  0
  3  4  1  0
  3  5  1  0
  5  6  2  0
  6  7  1  0
  7  8  2  0
  8  9  1  0
  8 10  1  0
 10 11  1  0
 10 12  2  0
 12 13  1  0
 12 14  1  0
 14 15  1  0
 14 16  2  0
 16 17  1  0
 17 18  2  0
 17 19  1  0
 19 20  1  0
 20 21  1  0
 20 22  1  0
 20 23  1  0
 23 24  1  0
 23 25  1  0
 25 26  1  0
 25 27  1  0
 25 28  1  0
 28 29  1  0
 28 30  1  0
 28 31  1  0
 31 32  1  0
 31 33  1  0
 31 34  1  0
 34 35  1  0
 34 36  1  0
 34 37  1  0
 37 38  1  0
 37 39  1  0
  2 40  1  0
 40 41  2  0
 41 42  1  0
 41 43  1  0
 43 44  2  0
 44 45  1  0
 44 46  1  0
 46 47  1  0
 46 48  2  0
 48 49  1  0
 19  5  1  0
 37 23  1  0
 48 40  1  0
 16  7  1  0
M  END
>  <UniqueID>  (37) 
24

>  <SMILES>  (37) 
O=c1c2ccccc2nc(/C=C/c2cccnc2)n1CC1CCCCC1

>  <Energy>  (37) 
68.23381780461015

>  <Genealogy>  (37) 
O=c1c2ccccc2nc(/C=C/c2cccnc2)n1CC1CCCCC1 (cis-trans isomerization)
O=c1c2ccccc2nc(/C=C/c2cccnc2)n1CC1CCCCC1 (3D coordinates assigned)
O=c1c2ccccc2nc(/C=C/c2cccnc2)n1CC1CCCCC1 (nonaromatic ring conformer: 68.23381780461015 kcal/mol)

>  <smiles>  (37) 
O=c1c2ccccc2nc(/C=C/c2cccnc2)n1CC1CCCCC1

>  <score_type>  (37) 
oracle

>  <origin>  (37) 
autodockgpu

>  <m_score__min__energy>  (37) 
-7.2300000000000004

>  <m_primary>  (37) 
energy

>  <meeko>  (37) 
{"free_energy": -7.13, "intermolecular_energy": -8.63, "internal_energy": -1.31, "cluster_size": 5, "cluster_id": 1, "rank_in_cluster": 3}

>  <energy>  (37) 
-7.02

>  <cluster_rmsd>  (37) 
0.0

>  <rmsd>  (37) 
269.12

>  <cluster>  (37) 
5

$$$$
XUFANRSCLZKORJ-OUKQBFOZNA-N
     RDKit          3D

 49 52  0  0  0  0  0  0  0  0999 V2000
  134.8786   70.1322  223.4033 H   0  0  0  0  0  0  0  0  0  0  0  0
  135.4440   70.6410  224.1980 C   0  0  0  0  0  0  0  0  0  0  0  0
  136.7830   70.5690  224.1670 C   0  0  0  0  0  0  0  0  0  0  0  0
  137.2946   69.7677  224.7203 H   0  0  0  0  0  0  0  0  0  0  0  0
  137.5850   71.5520  223.3990 C   0  0  0  0  0  0  0  0  0  0  0  0
  136.9040   72.5070  222.7100 N   0  0  0  0  0  0  0  0  0  0  0  0
  137.5310   73.4760  222.0080 C   0  0  0  0  0  0  0  0  0  0  0  0
  136.7830   74.4360  221.3170 C   0  0  0  0  0  0  0  0  0  0  0  0
  135.6839   74.3944  221.3348 H   0  0  0  0  0  0  0  0  0  0  0  0
  137.4330   75.4480  220.6040 C   0  0  0  0  0  0  0  0  0  0  0  0
  136.8448   76.2016  220.0599 H   0  0  0  0  0  0  0  0  0  0  0  0
  138.8290   75.5030  220.5820 C   0  0  0  0  0  0  0  0  0  0  0  0
  139.3376   76.3001  220.0199 H   0  0  0  0  0  0  0  0  0  0  0  0
  139.5820   74.5470  221.2730 C   0  0  0  0  0  0  0  0  0  0  0  0
  140.6808   74.5943  221.2547 H   0  0  0  0  0  0  0  0  0  0  0  0
  138.9330   73.5240  221.9920 C   0  0  0  0  0  0  0  0  0  0  0  0
  139.6390   72.5380  222.7010 C   0  0  0  0  0  0  0  0  0  0  0  0
  140.9020   72.5810  222.7180 O   0  0  0  0  0  0  0  0  0  0  0  0
  138.9680   71.5380  223.3730 N   0  0  0  0  0  0  0  0  0  0  0  0
  139.7540   70.4630  224.0340 C   0  0  0  0  0  0  0  0  0  0  0  0
  139.2587   69.5008  223.8369 H   0  0  0  0  0  0  0  0  0  0  0  0
  140.7707   70.5082  223.6165 H   0  0  0  0  0  0  0  0  0  0  0  0
  139.8900   70.6370  225.5710 C   0  0  0  0  0  0  0  0  0  0  0  0
  138.9666   71.1589  225.8624 H   0  0  0  0  0  0  0  0  0  0  0  0
  141.0820   71.5220  225.9780 C   0  0  0  0  0  0  0  0  0  0  0  0
  142.0156   70.9854  225.7534 H   0  0  0  0  0  0  0  0  0  0  0  0
  141.0166   72.4619  225.4103 H   0  0  0  0  0  0  0  0  0  0  0  0
  141.0570   71.8710  227.4830 C   0  0  0  0  0  0  0  0  0  0  0  0
  142.0905   71.8578  227.8595 H   0  0  0  0  0  0  0  0  0  0  0  0
  140.5888   72.8621  227.5748 H   0  0  0  0  0  0  0  0  0  0  0  0
  140.2170   70.8960  228.3330 C   0  0  0  0  0  0  0  0  0  0  0  0
  140.5647   70.9403  229.3756 H   0  0  0  0  0  0  0  0  0  0  0  0
  139.1612   71.1956  228.2587 H   0  0  0  0  0  0  0  0  0  0  0  0
  140.3440   69.4560  227.8270 C   0  0  0  0  0  0  0  0  0  0  0  0
  141.3916   69.1380  227.9334 H   0  0  0  0  0  0  0  0  0  0  0  0
  139.6636   68.8346  228.4278 H   0  0  0  0  0  0  0  0  0  0  0  0
  139.9290   69.2980  226.3460 C   0  0  0  0  0  0  0  0  0  0  0  0
  140.6497   68.6301  225.8515 H   0  0  0  0  0  0  0  0  0  0  0  0
  138.9080   68.8886  226.3374 H   0  0  0  0  0  0  0  0  0  0  0  0
  134.6830   71.3670  225.2420 C   0  0  0  0  0  0  0  0  0  0  0  0
  134.6400   72.7740  225.3140 C   0  0  0  0  0  0  0  0  0  0  0  0
  135.1981   73.3775  224.5830 H   0  0  0  0  0  0  0  0  0  0  0  0
  133.9110   73.3880  226.2840 N   0  0  0  0  0  0  0  0  0  0  0  0
  133.2060   72.6830  227.2050 C   0  0  0  0  0  0  0  0  0  0  0  0
  132.6345   73.2114  227.9823 H   0  0  0  0  0  0  0  0  0  0  0  0
  133.2060   71.2870  227.1660 C   0  0  0  0  0  0  0  0  0  0  0  0
  132.6324   70.7105  227.9067 H   0  0  0  0  0  0  0  0  0  0  0  0
  133.9410   70.6310  226.1780 C   0  0  0  0  0  0  0  0  0  0  0  0
  133.9387   69.5319  226.1327 H   0  0  0  0  0  0  0  0  0  0  0  0
  1  2  1  0
  2  3  2  0
  3  4  1  0
  3  5  1  0
  5  6  2  0
  6  7  1  0
  7  8  2  0
  8  9  1  0
  8 10  1  0
 10 11  1  0
 10 12  2  0
 12 13  1  0
 12 14  1  0
 14 15  1  0
 14 16  2  0
 16 17  1  0
 17 18  2  0
 17 19  1  0
 19 20  1  0
 20 21  1  0
 20 22  1  0
 20 23  1  0
 23 24  1  0
 23 25  1  0
 25 26  1  0
 25 27  1  0
 25 28  1  0
 28 29  1  0
 28 30  1  0
 28 31  1  0
 31 32  1  0
 31 33  1  0
 31 34  1  0
 34 35  1  0
 34 36  1  0
 34 37  1  0
 37 38  1  0
 37 39  1  0
  2 40  1  0
 40 41  2  0
 41 42  1  0
 41 43  1  0
 43 44  2  0
 44 45  1  0
 44 46  1  0
 46 47  1  0
 46 48  2  0
 48 49  1  0
 19  5  1  0
 37 23  1  0
 48 40  1  0
 16  7  1  0
M  END
>  <UniqueID>  (38) 
24

>  <SMILES>  (38) 
O=c1c2ccccc2nc(/C=C/c2cccnc2)n1CC1CCCCC1

>  <Energy>  (38) 
68.23381780461015

>  <Genealogy>  (38) 
O=c1c2ccccc2nc(/C=C/c2cccnc2)n1CC1CCCCC1 (cis-trans isomerization)
O=c1c2ccccc2nc(/C=C/c2cccnc2)n1CC1CCCCC1 (3D coordinates assigned)
O=c1c2ccccc2nc(/C=C/c2cccnc2)n1CC1CCCCC1 (nonaromatic ring conformer: 68.23381780461015 kcal/mol)

>  <smiles>  (38) 
O=c1c2ccccc2nc(/C=C/c2cccnc2)n1CC1CCCCC1

>  <score_type>  (38) 
oracle

>  <origin>  (38) 
autodockgpu

>  <m_score__min__energy>  (38) 
-7.2300000000000004

>  <m_primary>  (38) 
energy

>  <meeko>  (38) 
{"free_energy": -7.02, "intermolecular_energy": -8.52, "internal_energy": -1.23, "cluster_size": 1, "cluster_id": 5, "rank_in_cluster": 1}

>  <energy>  (38) 
-6.85

>  <cluster_rmsd>  (38) 
0.0

>  <rmsd>  (38) 
269.49

>  <cluster>  (38) 
6

$$$$
XUFANRSCLZKORJ-OUKQBFOZNA-N
     RDKit          3D

 49 52  0  0  0  0  0  0  0  0999 V2000
  137.3480   71.6070  221.7296 H   0  0  0  0  0  0  0  0  0  0  0  0
  138.4180   71.7610  221.9330 C   0  0  0  0  0  0  0  0  0  0  0  0
  139.1830   70.6800  222.1440 C   0  0  0  0  0  0  0  0  0  0  0  0
  139.5933   70.1313  221.2834 H   0  0  0  0  0  0  0  0  0  0  0  0
  139.4850   70.2120  223.5190 C   0  0  0  0  0  0  0  0  0  0  0  0
  140.0100   71.1210  224.3840 N   0  0  0  0  0  0  0  0  0  0  0  0
  140.2880   70.8160  225.6700 C   0  0  0  0  0  0  0  0  0  0  0  0
  140.8260   71.7890  226.5200 C   0  0  0  0  0  0  0  0  0  0  0  0
  141.0347   72.7990  226.1375 H   0  0  0  0  0  0  0  0  0  0  0  0
  141.0980   71.4770  227.8550 C   0  0  0  0  0  0  0  0  0  0  0  0
  141.5227   72.2414  228.5223 H   0  0  0  0  0  0  0  0  0  0  0  0
  140.8310   70.1950  228.3430 C   0  0  0  0  0  0  0  0  0  0  0  0
  141.0460   69.9522  229.3941 H   0  0  0  0  0  0  0  0  0  0  0  0
  140.2910   69.2200  227.4980 C   0  0  0  0  0  0  0  0  0  0  0  0
  140.0816   68.2122  227.8860 H   0  0  0  0  0  0  0  0  0  0  0  0
  140.0150   69.5260  226.1520 C   0  0  0  0  0  0  0  0  0  0  0  0
  139.4750   68.5850  225.2600 C   0  0  0  0  0  0  0  0  0  0  0  0
  139.2010   67.4270  225.6840 O   0  0  0  0  0  0  0  0  0  0  0  0
  139.2430   68.9170  223.9420 N   0  0  0  0  0  0  0  0  0  0  0  0
  138.7560   67.8650  223.0100 C   0  0  0  0  0  0  0  0  0  0  0  0
  139.3421   67.9267  222.0812 H   0  0  0  0  0  0  0  0  0  0  0  0
  138.8800   66.9005  223.5241 H   0  0  0  0  0  0  0  0  0  0  0  0
  137.2510   67.9930  222.6480 C   0  0  0  0  0  0  0  0  0  0  0  0
  136.8508   66.9809  222.8075 H   0  0  0  0  0  0  0  0  0  0  0  0
  137.0120   68.3690  221.1740 C   0  0  0  0  0  0  0  0  0  0  0  0
  137.3466   69.4044  221.0127 H   0  0  0  0  0  0  0  0  0  0  0  0
  137.5797   67.6655  220.5472 H   0  0  0  0  0  0  0  0  0  0  0  0
  135.5210   68.2600  220.7840 C   0  0  0  0  0  0  0  0  0  0  0  0
  135.2791   69.0890  220.1026 H   0  0  0  0  0  0  0  0  0  0  0  0
  135.3838   67.2751  220.3137 H   0  0  0  0  0  0  0  0  0  0  0  0
  134.5580   68.3220  221.9860 C   0  0  0  0  0  0  0  0  0  0  0  0
  133.5687   68.6503  221.6345 H   0  0  0  0  0  0  0  0  0  0  0  0
  134.5022   67.3192  222.4346 H   0  0  0  0  0  0  0  0  0  0  0  0
  135.0550   69.2990  223.0560 C   0  0  0  0  0  0  0  0  0  0  0  0
  135.0785   70.3104  222.6240 H   0  0  0  0  0  0  0  0  0  0  0  0
  134.3634   69.2341  223.9090 H   0  0  0  0  0  0  0  0  0  0  0  0
  136.4700   68.9520  223.5780 C   0  0  0  0  0  0  0  0  0  0  0  0
  137.0435   69.8854  223.6770 H   0  0  0  0  0  0  0  0  0  0  0  0
  136.3430   68.4373  224.5418 H   0  0  0  0  0  0  0  0  0  0  0  0
  138.9310   73.1510  221.9580 C   0  0  0  0  0  0  0  0  0  0  0  0
  140.3070   73.4550  221.9600 C   0  0  0  0  0  0  0  0  0  0  0  0
  141.0483   72.6423  221.9559 H   0  0  0  0  0  0  0  0  0  0  0  0
  140.7210   74.7510  221.9670 N   0  0  0  0  0  0  0  0  0  0  0  0
  139.8420   75.7850  221.9680 C   0  0  0  0  0  0  0  0  0  0  0  0
  140.2116   76.8210  221.9814 H   0  0  0  0  0  0  0  0  0  0  0  0
  138.4690   75.5340  221.9520 C   0  0  0  0  0  0  0  0  0  0  0  0
  137.7518   76.3681  221.9496 H   0  0  0  0  0  0  0  0  0  0  0  0
  138.0150   74.2140  221.9390 C   0  0  0  0  0  0  0  0  0  0  0  0
  136.9351   74.0063  221.9138 H   0  0  0  0  0  0  0  0  0  0  0  0
  1  2  1  0
  2  3  2  0
  3  4  1  0
  3  5  1  0
  5  6  2  0
  6  7  1  0
  7  8  2  0
  8  9  1  0
  8 10  1  0
 10 11  1  0
 10 12  2  0
 12 13  1  0
 12 14  1  0
 14 15  1  0
 14 16  2  0
 16 17  1  0
 17 18  2  0
 17 19  1  0
 19 20  1  0
 20 21  1  0
 20 22  1  0
 20 23  1  0
 23 24  1  0
 23 25  1  0
 25 26  1  0
 25 27  1  0
 25 28  1  0
 28 29  1  0
 28 30  1  0
 28 31  1  0
 31 32  1  0
 31 33  1  0
 31 34  1  0
 34 35  1  0
 34 36  1  0
 34 37  1  0
 37 38  1  0
 37 39  1  0
  2 40  1  0
 40 41  2  0
 41 42  1  0
 41 43  1  0
 43 44  2  0
 44 45  1  0
 44 46  1  0
 46 47  1  0
 46 48  2  0
 48 49  1  0
 19  5  1  0
 37 23  1  0
 48 40  1  0
 16  7  1  0
M  END
>  <UniqueID>  (39) 
24

>  <SMILES>  (39) 
O=c1c2ccccc2nc(/C=C/c2cccnc2)n1CC1CCCCC1

>  <Energy>  (39) 
68.23381780461015

>  <Genealogy>  (39) 
O=c1c2ccccc2nc(/C=C/c2cccnc2)n1CC1CCCCC1 (cis-trans isomerization)
O=c1c2ccccc2nc(/C=C/c2cccnc2)n1CC1CCCCC1 (3D coordinates assigned)
O=c1c2ccccc2nc(/C=C/c2cccnc2)n1CC1CCCCC1 (nonaromatic ring conformer: 68.23381780461015 kcal/mol)

>  <smiles>  (39) 
O=c1c2ccccc2nc(/C=C/c2cccnc2)n1CC1CCCCC1

>  <score_type>  (39) 
oracle

>  <origin>  (39) 
autodockgpu

>  <m_score__min__energy>  (39) 
-7.2300000000000004

>  <m_primary>  (39) 
energy

>  <meeko>  (39) 
{"free_energy": -6.99, "intermolecular_energy": -8.49, "internal_energy": -1.44, "cluster_size": 5, "cluster_id": 1, "rank_in_cluster": 4}

>  <energy>  (39) 
-6.82

>  <cluster_rmsd>  (39) 
0.0

>  <rmsd>  (39) 
268.43

>  <cluster>  (39) 
7

$$$$
XUFANRSCLZKORJ-OUKQBFOZNA-N
     RDKit          3D

 49 52  0  0  0  0  0  0  0  0999 V2000
  143.6813   76.1007  218.1977 H   0  0  0  0  0  0  0  0  0  0  0  0
  143.5950   75.6580  219.2010 C   0  0  0  0  0  0  0  0  0  0  0  0
  142.7240   76.2060  220.0610 C   0  0  0  0  0  0  0  0  0  0  0  0
  142.8443   77.2592  220.3547 H   0  0  0  0  0  0  0  0  0  0  0  0
  141.6010   75.4160  220.6230 C   0  0  0  0  0  0  0  0  0  0  0  0
  141.8270   74.0950  220.8570 N   0  0  0  0  0  0  0  0  0  0  0  0
  140.8910   73.2880  221.4010 C   0  0  0  0  0  0  0  0  0  0  0  0
  141.1740   71.9350  221.6230 C   0  0  0  0  0  0  0  0  0  0  0  0
  142.1554   71.5254  221.3417 H   0  0  0  0  0  0  0  0  0  0  0  0
  140.2100   71.1040  222.2020 C   0  0  0  0  0  0  0  0  0  0  0  0
  140.4327   70.0407  222.3748 H   0  0  0  0  0  0  0  0  0  0  0  0
  138.9640   71.6240  222.5610 C   0  0  0  0  0  0  0  0  0  0  0  0
  138.2068   70.9684  223.0158 H   0  0  0  0  0  0  0  0  0  0  0  0
  138.6760   72.9760  222.3440 C   0  0  0  0  0  0  0  0  0  0  0  0
  137.6942   73.3815  222.6298 H   0  0  0  0  0  0  0  0  0  0  0  0
  139.6420   73.8180  221.7600 C   0  0  0  0  0  0  0  0  0  0  0  0
  139.4050   75.1810  221.5180 C   0  0  0  0  0  0  0  0  0  0  0  0
  138.2950   75.6800  221.8570 O   0  0  0  0  0  0  0  0  0  0  0  0
  140.3680   75.9680  220.9210 N   0  0  0  0  0  0  0  0  0  0  0  0
  140.0430   77.3820  220.6000 C   0  0  0  0  0  0  0  0  0  0  0  0
  140.4516   77.6141  219.6054 H   0  0  0  0  0  0  0  0  0  0  0  0
  138.9476   77.4746  220.6386 H   0  0  0  0  0  0  0  0  0  0  0  0
  140.6180   78.4060  221.6160 C   0  0  0  0  0  0  0  0  0  0  0  0
  139.7734   79.0804  221.8205 H   0  0  0  0  0  0  0  0  0  0  0  0
  141.7690   79.2510  221.0410 C   0  0  0  0  0  0  0  0  0  0  0  0
  142.6450   78.6028  220.8912 H   0  0  0  0  0  0  0  0  0  0  0  0
  141.4287   79.6862  220.0898 H   0  0  0  0  0  0  0  0  0  0  0  0
  142.1620   80.4110  221.9830 C   0  0  0  0  0  0  0  0  0  0  0  0
  143.2555   80.5266  221.9533 H   0  0  0  0  0  0  0  0  0  0  0  0
  141.6340   81.3072  221.6252 H   0  0  0  0  0  0  0  0  0  0  0  0
  141.7360   80.1940  223.4480 C   0  0  0  0  0  0  0  0  0  0  0  0
  142.3761   80.8060  224.1005 H   0  0  0  0  0  0  0  0  0  0  0  0
  140.6805   80.4874  223.5469 H   0  0  0  0  0  0  0  0  0  0  0  0
  141.8660   78.7250  223.8600 C   0  0  0  0  0  0  0  0  0  0  0  0
  142.9256   78.4359  223.7990 H   0  0  0  0  0  0  0  0  0  0  0  0
  141.4748   78.6338  224.8840 H   0  0  0  0  0  0  0  0  0  0  0  0
  141.0420   77.7720  222.9620 C   0  0  0  0  0  0  0  0  0  0  0  0
  141.6501   76.8800  222.7506 H   0  0  0  0  0  0  0  0  0  0  0  0
  140.1198   77.5277  223.5096 H   0  0  0  0  0  0  0  0  0  0  0  0
  144.4480   74.4900  219.5250 C   0  0  0  0  0  0  0  0  0  0  0  0
  144.8170   73.5270  218.5650 C   0  0  0  0  0  0  0  0  0  0  0  0
  144.4577   73.6192  217.5294 H   0  0  0  0  0  0  0  0  0  0  0  0
  145.6160   72.4840  218.9150 N   0  0  0  0  0  0  0  0  0  0  0  0
  146.0840   72.3330  220.1800 C   0  0  0  0  0  0  0  0  0  0  0  0
  146.7218   71.4726  220.4307 H   0  0  0  0  0  0  0  0  0  0  0  0
  145.7570   73.2680  221.1630 C   0  0  0  0  0  0  0  0  0  0  0  0
  146.1365   73.1521  222.1889 H   0  0  0  0  0  0  0  0  0  0  0  0
  144.9430   74.3520  220.8300 C   0  0  0  0  0  0  0  0  0  0  0  0
  144.6887   75.1011  221.5943 H   0  0  0  0  0  0  0  0  0  0  0  0
  1  2  1  0
  2  3  2  0
  3  4  1  0
  3  5  1  0
  5  6  2  0
  6  7  1  0
  7  8  2  0
  8  9  1  0
  8 10  1  0
 10 11  1  0
 10 12  2  0
 12 13  1  0
 12 14  1  0
 14 15  1  0
 14 16  2  0
 16 17  1  0
 17 18  2  0
 17 19  1  0
 19 20  1  0
 20 21  1  0
 20 22  1  0
 20 23  1  0
 23 24  1  0
 23 25  1  0
 25 26  1  0
 25 27  1  0
 25 28  1  0
 28 29  1  0
 28 30  1  0
 28 31  1  0
 31 32  1  0
 31 33  1  0
 31 34  1  0
 34 35  1  0
 34 36  1  0
 34 37  1  0
 37 38  1  0
 37 39  1  0
  2 40  1  0
 40 41  2  0
 41 42  1  0
 41 43  1  0
 43 44  2  0
 44 45  1  0
 44 46  1  0
 46 47  1  0
 46 48  2  0
 48 49  1  0
 19  5  1  0
 37 23  1  0
 48 40  1  0
 16  7  1  0
M  END
>  <UniqueID>  (40) 
24

>  <SMILES>  (40) 
O=c1c2ccccc2nc(/C=C/c2cccnc2)n1CC1CCCCC1

>  <Energy>  (40) 
68.23381780461015

>  <Genealogy>  (40) 
O=c1c2ccccc2nc(/C=C/c2cccnc2)n1CC1CCCCC1 (cis-trans isomerization)
O=c1c2ccccc2nc(/C=C/c2cccnc2)n1CC1CCCCC1 (3D coordinates assigned)
O=c1c2ccccc2nc(/C=C/c2cccnc2)n1CC1CCCCC1 (nonaromatic ring conformer: 68.23381780461015 kcal/mol)

>  <smiles>  (40) 
O=c1c2ccccc2nc(/C=C/c2cccnc2)n1CC1CCCCC1

>  <score_type>  (40) 
oracle

>  <origin>  (40) 
autodockgpu

>  <m_score__min__energy>  (40) 
-7.2300000000000004

>  <m_primary>  (40) 
energy

>  <meeko>  (40) 
{"free_energy": -6.94, "intermolecular_energy": -8.43, "internal_energy": -1.45, "cluster_size": 2, "cluster_id": 3, "rank_in_cluster": 2}

>  <energy>  (40) 
-6.35

>  <cluster_rmsd>  (40) 
0.0

>  <rmsd>  (40) 
270.03

>  <cluster>  (40) 
8

$$$$
XUFANRSCLZKORJ-OUKQBFOZNA-N
     RDKit          3D

 49 52  0  0  0  0  0  0  0  0999 V2000
  135.7750   69.0687  222.0955 H   0  0  0  0  0  0  0  0  0  0  0  0
  136.2200   69.0150  223.1000 C   0  0  0  0  0  0  0  0  0  0  0  0
  137.4820   68.5740  223.2100 C   0  0  0  0  0  0  0  0  0  0  0  0
  137.8490   67.8057  222.5136 H   0  0  0  0  0  0  0  0  0  0  0  0
  138.3910   69.1050  224.2550 C   0  0  0  0  0  0  0  0  0  0  0  0
  138.6750   68.2880  225.3050 N   0  0  0  0  0  0  0  0  0  0  0  0
  139.5200   68.6530  226.2940 C   0  0  0  0  0  0  0  0  0  0  0  0
  139.7790   67.7740  227.3530 C   0  0  0  0  0  0  0  0  0  0  0  0
  139.2847   66.7919  227.3862 H   0  0  0  0  0  0  0  0  0  0  0  0
  140.6660   68.1450  228.3680 C   0  0  0  0  0  0  0  0  0  0  0  0
  140.8682   67.4553  229.2007 H   0  0  0  0  0  0  0  0  0  0  0  0
  141.2960   69.3920  228.3250 C   0  0  0  0  0  0  0  0  0  0  0  0
  141.9930   69.6820  229.1251 H   0  0  0  0  0  0  0  0  0  0  0  0
  141.0430   70.2720  227.2680 C   0  0  0  0  0  0  0  0  0  0  0  0
  141.5429   71.2514  227.2371 H   0  0  0  0  0  0  0  0  0  0  0  0
  140.1490   69.9060  226.2430 C   0  0  0  0  0  0  0  0  0  0  0  0
  139.8570   70.7510  225.1600 C   0  0  0  0  0  0  0  0  0  0  0  0
  140.4330   71.8730  225.0860 O   0  0  0  0  0  0  0  0  0  0  0  0
  138.9570   70.3660  224.1890 N   0  0  0  0  0  0  0  0  0  0  0  0
  138.6070   71.3270  223.1100 C   0  0  0  0  0  0  0  0  0  0  0  0
  137.9480   70.8167  222.3921 H   0  0  0  0  0  0  0  0  0  0  0  0
  138.1197   72.1864  223.5937 H   0  0  0  0  0  0  0  0  0  0  0  0
  139.8350   71.8810  222.3380 C   0  0  0  0  0  0  0  0  0  0  0  0
  140.6390   71.8908  223.0886 H   0  0  0  0  0  0  0  0  0  0  0  0
  139.6380   73.3230  221.8390 C   0  0  0  0  0  0  0  0  0  0  0  0
  138.8821   73.3222  221.0399 H   0  0  0  0  0  0  0  0  0  0  0  0
  139.3139   73.9367  222.6925 H   0  0  0  0  0  0  0  0  0  0  0  0
  140.9480   73.9280  221.2860 C   0  0  0  0  0  0  0  0  0  0  0  0
  140.7024   74.5423  220.4072 H   0  0  0  0  0  0  0  0  0  0  0  0
  141.3972   74.5171  222.0991 H   0  0  0  0  0  0  0  0  0  0  0  0
  141.9910   72.8740  220.8660 C   0  0  0  0  0  0  0  0  0  0  0  0
  142.6772   73.3231  220.1329 H   0  0  0  0  0  0  0  0  0  0  0  0
  142.5347   72.5502  221.7658 H   0  0  0  0  0  0  0  0  0  0  0  0
  141.3280   71.6440  220.2380 C   0  0  0  0  0  0  0  0  0  0  0  0
  140.8138   71.9545  219.3165 H   0  0  0  0  0  0  0  0  0  0  0  0
  142.1208   70.9085  220.0365 H   0  0  0  0  0  0  0  0  0  0  0  0
  140.2980   70.9710  221.1750 C   0  0  0  0  0  0  0  0  0  0  0  0
  139.4164   70.6911  220.5796 H   0  0  0  0  0  0  0  0  0  0  0  0
  140.7921   70.0971  221.6247 H   0  0  0  0  0  0  0  0  0  0  0  0
  135.3910   69.4340  224.2550 C   0  0  0  0  0  0  0  0  0  0  0  0
  134.6800   68.5180  225.0560 C   0  0  0  0  0  0  0  0  0  0  0  0
  134.7177   67.4432  224.8248 H   0  0  0  0  0  0  0  0  0  0  0  0
  133.9480   68.9580  226.1130 N   0  0  0  0  0  0  0  0  0  0  0  0
  133.8760   70.2750  226.4370 C   0  0  0  0  0  0  0  0  0  0  0  0
  133.2675   70.5978  227.2946 H   0  0  0  0  0  0  0  0  0  0  0  0
  134.5740   71.2190  225.6820 C   0  0  0  0  0  0  0  0  0  0  0  0
  134.5223   72.2866  225.9421 H   0  0  0  0  0  0  0  0  0  0  0  0
  135.3380   70.7950  224.5940 C   0  0  0  0  0  0  0  0  0  0  0  0
  135.9007   71.5301  223.9998 H   0  0  0  0  0  0  0  0  0  0  0  0
  1  2  1  0
  2  3  2  0
  3  4  1  0
  3  5  1  0
  5  6  2  0
  6  7  1  0
  7  8  2  0
  8  9  1  0
  8 10  1  0
 10 11  1  0
 10 12  2  0
 12 13  1  0
 12 14  1  0
 14 15  1  0
 14 16  2  0
 16 17  1  0
 17 18  2  0
 17 19  1  0
 19 20  1  0
 20 21  1  0
 20 22  1  0
 20 23  1  0
 23 24  1  0
 23 25  1  0
 25 26  1  0
 25 27  1  0
 25 28  1  0
 28 29  1  0
 28 30  1  0
 28 31  1  0
 31 32  1  0
 31 33  1  0
 31 34  1  0
 34 35  1  0
 34 36  1  0
 34 37  1  0
 37 38  1  0
 37 39  1  0
  2 40  1  0
 40 41  2  0
 41 42  1  0
 41 43  1  0
 43 44  2  0
 44 45  1  0
 44 46  1  0
 46 47  1  0
 46 48  2  0
 48 49  1  0
 19  5  1  0
 37 23  1  0
 48 40  1  0
 16  7  1  0
M  END
>  <UniqueID>  (41) 
25

>  <SMILES>  (41) 
O=c1c2ccccc2nc(/C=C/c2cccnc2)n1CC1CCCCC1

>  <Energy>  (41) 
68.50416612528228

>  <Genealogy>  (41) 
O=c1c2ccccc2nc(/C=C/c2cccnc2)n1CC1CCCCC1 (cis-trans isomerization)
O=c1c2ccccc2nc(/C=C/c2cccnc2)n1CC1CCCCC1 (3D coordinates assigned)
O=c1c2ccccc2nc(/C=C/c2cccnc2)n1CC1CCCCC1 (nonaromatic ring conformer: 68.50416612528228 kcal/mol)

>  <smiles>  (41) 
O=c1c2ccccc2nc(/C=C/c2cccnc2)n1CC1CCCCC1

>  <score_type>  (41) 
oracle

>  <origin>  (41) 
autodockgpu

>  <m_score__min__energy>  (41) 
-7.2300000000000004

>  <m_primary>  (41) 
energy

>  <meeko>  (41) 
{"free_energy": -7.09, "intermolecular_energy": -8.59, "internal_energy": -1.38, "cluster_size": 8, "cluster_id": 2, "rank_in_cluster": 3}

>  <energy>  (41) 
-7.23

>  <cluster_rmsd>  (41) 
0.0

>  <rmsd>  (41) 
268.78

>  <cluster>  (41) 
1

$$$$
XUFANRSCLZKORJ-OUKQBFOZNA-N
     RDKit          3D

 49 52  0  0  0  0  0  0  0  0999 V2000
  136.0101   71.7596  222.3223 H   0  0  0  0  0  0  0  0  0  0  0  0
  136.4890   70.9880  222.9430 C   0  0  0  0  0  0  0  0  0  0  0  0
  137.8250   70.8770  222.8950 C   0  0  0  0  0  0  0  0  0  0  0  0
  138.3684   71.2627  222.0198 H   0  0  0  0  0  0  0  0  0  0  0  0
  138.5820   70.2430  224.0020 C   0  0  0  0  0  0  0  0  0  0  0  0
  139.1440   71.0710  224.9240 N   0  0  0  0  0  0  0  0  0  0  0  0
  139.8220   70.6030  225.9940 C   0  0  0  0  0  0  0  0  0  0  0  0
  140.3810   71.4970  226.9150 C   0  0  0  0  0  0  0  0  0  0  0  0
  140.2788   72.5813  226.7604 H   0  0  0  0  0  0  0  0  0  0  0  0
  141.0690   71.0120  228.0310 C   0  0  0  0  0  0  0  0  0  0  0  0
  141.5093   71.7151  228.7533 H   0  0  0  0  0  0  0  0  0  0  0  0
  141.1980   69.6350  228.2300 C   0  0  0  0  0  0  0  0  0  0  0  0
  141.7403   69.2560  229.1088 H   0  0  0  0  0  0  0  0  0  0  0  0
  140.6390   68.7370  227.3140 C   0  0  0  0  0  0  0  0  0  0  0  0
  140.7409   67.6536  227.4751 H   0  0  0  0  0  0  0  0  0  0  0  0
  139.9460   69.2180  226.1860 C   0  0  0  0  0  0  0  0  0  0  0  0
  139.3680   68.3620  225.2350 C   0  0  0  0  0  0  0  0  0  0  0  0
  139.4490   67.1120  225.4060 O   0  0  0  0  0  0  0  0  0  0  0  0
  138.7190   68.8720  224.1310 N   0  0  0  0  0  0  0  0  0  0  0  0
  138.2010   67.9320  223.1020 C   0  0  0  0  0  0  0  0  0  0  0  0
  137.9659   66.9762  223.5930 H   0  0  0  0  0  0  0  0  0  0  0  0
  137.3150   68.4055  222.6538 H   0  0  0  0  0  0  0  0  0  0  0  0
  139.1980   67.6550  221.9450 C   0  0  0  0  0  0  0  0  0  0  0  0
  140.1749   67.9423  222.3610 H   0  0  0  0  0  0  0  0  0  0  0  0
  138.9410   68.5240  220.7010 C   0  0  0  0  0  0  0  0  0  0  0  0
  137.9973   68.2053  220.2342 H   0  0  0  0  0  0  0  0  0  0  0  0
  138.8905   69.5740  221.0251 H   0  0  0  0  0  0  0  0  0  0  0  0
  140.0780   68.4000  219.6620 C   0  0  0  0  0  0  0  0  0  0  0  0
  139.6320   68.4088  218.6565 H   0  0  0  0  0  0  0  0  0  0  0  0
  140.7581   69.2487  219.8272 H   0  0  0  0  0  0  0  0  0  0  0  0
  140.9170   67.1150  219.8110 C   0  0  0  0  0  0  0  0  0  0  0  0
  141.3994   66.8899  218.8484 H   0  0  0  0  0  0  0  0  0  0  0  0
  141.6683   67.2835  220.5966 H   0  0  0  0  0  0  0  0  0  0  0  0
  140.0510   65.9220  220.2240 C   0  0  0  0  0  0  0  0  0  0  0  0
  139.3201   65.7261  219.4257 H   0  0  0  0  0  0  0  0  0  0  0  0
  140.7233   65.0661  220.3833 H   0  0  0  0  0  0  0  0  0  0  0  0
  139.2850   66.1620  221.5460 C   0  0  0  0  0  0  0  0  0  0  0  0
  138.2629   65.7715  221.4324 H   0  0  0  0  0  0  0  0  0  0  0  0
  139.8419   65.6456  222.3418 H   0  0  0  0  0  0  0  0  0  0  0  0
  135.6210   70.1300  223.7850 C   0  0  0  0  0  0  0  0  0  0  0  0
  135.1860   68.8540  223.3770 C   0  0  0  0  0  0  0  0  0  0  0  0
  135.4802   68.4635  222.3916 H   0  0  0  0  0  0  0  0  0  0  0  0
  134.4030   68.1030  224.1980 N   0  0  0  0  0  0  0  0  0  0  0  0
  134.0200   68.5450  225.4240 C   0  0  0  0  0  0  0  0  0  0  0  0
  133.3801   67.9158  226.0600 H   0  0  0  0  0  0  0  0  0  0  0  0
  134.4380   69.7970  225.8770 C   0  0  0  0  0  0  0  0  0  0  0  0
  134.1337   70.1584  226.8704 H   0  0  0  0  0  0  0  0  0  0  0  0
  135.2460   70.5860  225.0570 C   0  0  0  0  0  0  0  0  0  0  0  0
  135.5900   71.5694  225.4099 H   0  0  0  0  0  0  0  0  0  0  0  0
  1  2  1  0
  2  3  2  0
  3  4  1  0
  3  5  1  0
  5  6  2  0
  6  7  1  0
  7  8  2  0
  8  9  1  0
  8 10  1  0
 10 11  1  0
 10 12  2  0
 12 13  1  0
 12 14  1  0
 14 15  1  0
 14 16  2  0
 16 17  1  0
 17 18  2  0
 17 19  1  0
 19 20  1  0
 20 21  1  0
 20 22  1  0
 20 23  1  0
 23 24  1  0
 23 25  1  0
 25 26  1  0
 25 27  1  0
 25 28  1  0
 28 29  1  0
 28 30  1  0
 28 31  1  0
 31 32  1  0
 31 33  1  0
 31 34  1  0
 34 35  1  0
 34 36  1  0
 34 37  1  0
 37 38  1  0
 37 39  1  0
  2 40  1  0
 40 41  2  0
 41 42  1  0
 41 43  1  0
 43 44  2  0
 44 45  1  0
 44 46  1  0
 46 47  1  0
 46 48  2  0
 48 49  1  0
 19  5  1  0
 37 23  1  0
 48 40  1  0
 16  7  1  0
M  END
>  <UniqueID>  (42) 
25

>  <SMILES>  (42) 
O=c1c2ccccc2nc(/C=C/c2cccnc2)n1CC1CCCCC1

>  <Energy>  (42) 
68.50416612528228

>  <Genealogy>  (42) 
O=c1c2ccccc2nc(/C=C/c2cccnc2)n1CC1CCCCC1 (cis-trans isomerization)
O=c1c2ccccc2nc(/C=C/c2cccnc2)n1CC1CCCCC1 (3D coordinates assigned)
O=c1c2ccccc2nc(/C=C/c2cccnc2)n1CC1CCCCC1 (nonaromatic ring conformer: 68.50416612528228 kcal/mol)

>  <smiles>  (42) 
O=c1c2ccccc2nc(/C=C/c2cccnc2)n1CC1CCCCC1

>  <score_type>  (42) 
oracle

>  <origin>  (42) 
autodockgpu

>  <m_score__min__energy>  (42) 
-7.2300000000000004

>  <m_primary>  (42) 
energy

>  <meeko>  (42) 
{"free_energy": -6.82, "intermolecular_energy": -8.31, "internal_energy": -1.58, "cluster_size": 1, "cluster_id": 7, "rank_in_cluster": 1}

>  <energy>  (42) 
-7.22

>  <cluster_rmsd>  (42) 
0.07

>  <rmsd>  (42) 
268.74

>  <cluster>  (42) 
1

$$$$
XUFANRSCLZKORJ-OUKQBFOZNA-N
     RDKit          3D

 49 52  0  0  0  0  0  0  0  0999 V2000
  135.4727   68.7296  222.2495 H   0  0  0  0  0  0  0  0  0  0  0  0
  136.0470   68.8890  223.1740 C   0  0  0  0  0  0  0  0  0  0  0  0
  137.3610   68.6190  223.1570 C   0  0  0  0  0  0  0  0  0  0  0  0
  137.7758   68.0012  222.3469 H   0  0  0  0  0  0  0  0  0  0  0  0
  138.2640   69.1400  224.2130 C   0  0  0  0  0  0  0  0  0  0  0  0
  138.5260   68.3200  225.2660 N   0  0  0  0  0  0  0  0  0  0  0  0
  139.3640   68.6740  226.2650 C   0  0  0  0  0  0  0  0  0  0  0  0
  139.6010   67.7930  227.3260 C   0  0  0  0  0  0  0  0  0  0  0  0
  139.0952   66.8166  227.3532 H   0  0  0  0  0  0  0  0  0  0  0  0
  140.4800   68.1530  228.3510 C   0  0  0  0  0  0  0  0  0  0  0  0
  140.6651   67.4605  229.1854 H   0  0  0  0  0  0  0  0  0  0  0  0
  141.1240   69.3930  228.3160 C   0  0  0  0  0  0  0  0  0  0  0  0
  141.8155   69.6746  229.1238 H   0  0  0  0  0  0  0  0  0  0  0  0
  140.8920   70.2770  227.2570 C   0  0  0  0  0  0  0  0  0  0  0  0
  141.4022   71.2512  227.2327 H   0  0  0  0  0  0  0  0  0  0  0  0
  140.0060   69.9210  226.2220 C   0  0  0  0  0  0  0  0  0  0  0  0
  139.7360   70.7700  225.1370 C   0  0  0  0  0  0  0  0  0  0  0  0
  140.3250   71.8860  225.0700 O   0  0  0  0  0  0  0  0  0  0  0  0
  138.8430   70.3950  224.1550 N   0  0  0  0  0  0  0  0  0  0  0  0
  138.5160   71.3610  223.0730 C   0  0  0  0  0  0  0  0  0  0  0  0
  137.8860   70.8493  222.3306 H   0  0  0  0  0  0  0  0  0  0  0  0
  138.0037   72.2108  223.5477 H   0  0  0  0  0  0  0  0  0  0  0  0
  139.7610   71.9350  222.3450 C   0  0  0  0  0  0  0  0  0  0  0  0
  140.5337   71.9697  223.1271 H   0  0  0  0  0  0  0  0  0  0  0  0
  139.5520   73.3680  221.8230 C   0  0  0  0  0  0  0  0  0  0  0  0
  138.8294   73.3421  220.9941 H   0  0  0  0  0  0  0  0  0  0  0  0
  139.1800   73.9821  222.6564 H   0  0  0  0  0  0  0  0  0  0  0  0
  140.8690   73.9980  221.3170 C   0  0  0  0  0  0  0  0  0  0  0  0
  140.6452   74.5990  220.4233 H   0  0  0  0  0  0  0  0  0  0  0  0
  141.2720   74.6044  222.1415 H   0  0  0  0  0  0  0  0  0  0  0  0
  141.9510   72.9640  220.9490 C   0  0  0  0  0  0  0  0  0  0  0  0
  142.6555   73.4217  220.2390 H   0  0  0  0  0  0  0  0  0  0  0  0
  142.4657   72.6609  221.8727 H   0  0  0  0  0  0  0  0  0  0  0  0
  141.3410   71.7140  220.3080 C   0  0  0  0  0  0  0  0  0  0  0  0
  140.8566   72.0047  219.3642 H   0  0  0  0  0  0  0  0  0  0  0  0
  142.1576   70.9952  220.1454 H   0  0  0  0  0  0  0  0  0  0  0  0
  140.2900   71.0250  221.2100 C   0  0  0  0  0  0  0  0  0  0  0  0
  139.4393   70.7196  220.5831 H   0  0  0  0  0  0  0  0  0  0  0  0
  140.7851   70.1663  221.6870 H   0  0  0  0  0  0  0  0  0  0  0  0
  135.3250   69.3900  224.3680 C   0  0  0  0  0  0  0  0  0  0  0  0
  134.6940   68.5330  225.2920 C   0  0  0  0  0  0  0  0  0  0  0  0
  134.7151   67.4447  225.1337 H   0  0  0  0  0  0  0  0  0  0  0  0
  134.0590   69.0480  226.3790 N   0  0  0  0  0  0  0  0  0  0  0  0
  134.0110   70.3840  226.6150 C   0  0  0  0  0  0  0  0  0  0  0  0
  133.4819   70.7675  227.4998 H   0  0  0  0  0  0  0  0  0  0  0  0
  134.6330   71.2710  225.7350 C   0  0  0  0  0  0  0  0  0  0  0  0
  134.6003   72.3543  225.9230 H   0  0  0  0  0  0  0  0  0  0  0  0
  135.2970   70.7700  224.6140 C   0  0  0  0  0  0  0  0  0  0  0  0
  135.8001   71.4604  223.9211 H   0  0  0  0  0  0  0  0  0  0  0  0
  1  2  1  0
  2  3  2  0
  3  4  1  0
  3  5  1  0
  5  6  2  0
  6  7  1  0
  7  8  2  0
  8  9  1  0
  8 10  1  0
 10 11  1  0
 10 12  2  0
 12 13  1  0
 12 14  1  0
 14 15  1  0
 14 16  2  0
 16 17  1  0
 17 18  2  0
 17 19  1  0
 19 20  1  0
 20 21  1  0
 20 22  1  0
 20 23  1  0
 23 24  1  0
 23 25  1  0
 25 26  1  0
 25 27  1  0
 25 28  1  0
 28 29  1  0
 28 30  1  0
 28 31  1  0
 31 32  1  0
 31 33  1  0
 31 34  1  0
 34 35  1  0
 34 36  1  0
 34 37  1  0
 37 38  1  0
 37 39  1  0
  2 40  1  0
 40 41  2  0
 41 42  1  0
 41 43  1  0
 43 44  2  0
 44 45  1  0
 44 46  1  0
 46 47  1  0
 46 48  2  0
 48 49  1  0
 19  5  1  0
 37 23  1  0
 48 40  1  0
 16  7  1  0
M  END
>  <UniqueID>  (43) 
25

>  <SMILES>  (43) 
O=c1c2ccccc2nc(/C=C/c2cccnc2)n1CC1CCCCC1

>  <Energy>  (43) 
68.50416612528228

>  <Genealogy>  (43) 
O=c1c2ccccc2nc(/C=C/c2cccnc2)n1CC1CCCCC1 (cis-trans isomerization)
O=c1c2ccccc2nc(/C=C/c2cccnc2)n1CC1CCCCC1 (3D coordinates assigned)
O=c1c2ccccc2nc(/C=C/c2cccnc2)n1CC1CCCCC1 (nonaromatic ring conformer: 68.50416612528228 kcal/mol)

>  <smiles>  (43) 
O=c1c2ccccc2nc(/C=C/c2cccnc2)n1CC1CCCCC1

>  <score_type>  (43) 
oracle

>  <origin>  (43) 
autodockgpu

>  <m_score__min__energy>  (43) 
-7.2300000000000004

>  <m_primary>  (43) 
energy

>  <meeko>  (43) 
{"free_energy": -7.02, "intermolecular_energy": -8.52, "internal_energy": -1.43, "cluster_size": 8, "cluster_id": 2, "rank_in_cluster": 5}

>  <energy>  (43) 
-7.13

>  <cluster_rmsd>  (43) 
0.38

>  <rmsd>  (43) 
268.82

>  <cluster>  (43) 
1

$$$$
XUFANRSCLZKORJ-OUKQBFOZNA-N
     RDKit          3D

 49 52  0  0  0  0  0  0  0  0999 V2000
  135.4873   68.7096  222.2543 H   0  0  0  0  0  0  0  0  0  0  0  0
  136.0820   68.9420  223.1500 C   0  0  0  0  0  0  0  0  0  0  0  0
  137.4050   68.7230  223.1050 C   0  0  0  0  0  0  0  0  0  0  0  0
  137.8327   68.1658  222.2585 H   0  0  0  0  0  0  0  0  0  0  0  0
  138.3000   69.2200  224.1780 C   0  0  0  0  0  0  0  0  0  0  0  0
  138.5330   68.3870  225.2290 N   0  0  0  0  0  0  0  0  0  0  0  0
  139.3610   68.7200  226.2420 C   0  0  0  0  0  0  0  0  0  0  0  0
  139.5680   67.8260  227.3000 C   0  0  0  0  0  0  0  0  0  0  0  0
  139.0460   66.8578  227.3120 H   0  0  0  0  0  0  0  0  0  0  0  0
  140.4380   68.1640  228.3410 C   0  0  0  0  0  0  0  0  0  0  0  0
  140.5992   67.4620  229.1724 H   0  0  0  0  0  0  0  0  0  0  0  0
  141.1030   69.3930  228.3260 C   0  0  0  0  0  0  0  0  0  0  0  0
  141.7871   69.6565  229.1461 H   0  0  0  0  0  0  0  0  0  0  0  0
  140.9010   70.2900  227.2700 C   0  0  0  0  0  0  0  0  0  0  0  0
  141.4268   71.2561  227.2613 H   0  0  0  0  0  0  0  0  0  0  0  0
  140.0250   69.9560  226.2190 C   0  0  0  0  0  0  0  0  0  0  0  0
  139.7850   70.8180  225.1370 C   0  0  0  0  0  0  0  0  0  0  0  0
  140.3930   71.9250  225.0880 O   0  0  0  0  0  0  0  0  0  0  0  0
  138.9010   70.4660  224.1390 N   0  0  0  0  0  0  0  0  0  0  0  0
  138.6060   71.4450  223.0600 C   0  0  0  0  0  0  0  0  0  0  0  0
  137.9397   70.9641  222.3287 H   0  0  0  0  0  0  0  0  0  0  0  0
  138.1443   72.3202  223.5405 H   0  0  0  0  0  0  0  0  0  0  0  0
  139.8670   71.9550  222.3110 C   0  0  0  0  0  0  0  0  0  0  0  0
  140.6502   71.9633  223.0834 H   0  0  0  0  0  0  0  0  0  0  0  0
  139.7170   73.3900  221.7770 C   0  0  0  0  0  0  0  0  0  0  0  0
  138.9831   73.3889  220.9576 H   0  0  0  0  0  0  0  0  0  0  0  0
  139.3845   74.0286  222.6086 H   0  0  0  0  0  0  0  0  0  0  0  0
  141.0540   73.9540  221.2480 C   0  0  0  0  0  0  0  0  0  0  0  0
  140.8461   74.5538  220.3496 H   0  0  0  0  0  0  0  0  0  0  0  0
  141.4936   74.5511  222.0606 H   0  0  0  0  0  0  0  0  0  0  0  0
  142.0850   72.8690  220.8800 C   0  0  0  0  0  0  0  0  0  0  0  0
  142.8014   73.2871  220.1575 H   0  0  0  0  0  0  0  0  0  0  0  0
  142.5968   72.5529  221.8010 H   0  0  0  0  0  0  0  0  0  0  0  0
  141.4110   71.6410  220.2590 C   0  0  0  0  0  0  0  0  0  0  0  0
  140.9287   71.9438  219.3179 H   0  0  0  0  0  0  0  0  0  0  0  0
  142.1920   70.8842  220.0941 H   0  0  0  0  0  0  0  0  0  0  0  0
  140.3410   71.0100  221.1810 C   0  0  0  0  0  0  0  0  0  0  0  0
  139.4700   70.7362  220.5675 H   0  0  0  0  0  0  0  0  0  0  0  0
  140.8029   70.1353  221.6623 H   0  0  0  0  0  0  0  0  0  0  0  0
  135.3760   69.4790  224.3370 C   0  0  0  0  0  0  0  0  0  0  0  0
  134.8240   68.6510  225.3350 C   0  0  0  0  0  0  0  0  0  0  0  0
  134.8978   67.5574  225.2425 H   0  0  0  0  0  0  0  0  0  0  0  0
  134.2010   69.1990  226.4110 N   0  0  0  0  0  0  0  0  0  0  0  0
  134.0890   70.5430  226.5670 C   0  0  0  0  0  0  0  0  0  0  0  0
  133.5703   70.9531  227.4461 H   0  0  0  0  0  0  0  0  0  0  0  0
  134.6320   71.4050  225.6120 C   0  0  0  0  0  0  0  0  0  0  0  0
  134.5482   72.4949  225.7351 H   0  0  0  0  0  0  0  0  0  0  0  0
  135.2820   70.8690  224.5000 C   0  0  0  0  0  0  0  0  0  0  0  0
  135.7228   71.5395  223.7476 H   0  0  0  0  0  0  0  0  0  0  0  0
  1  2  1  0
  2  3  2  0
  3  4  1  0
  3  5  1  0
  5  6  2  0
  6  7  1  0
  7  8  2  0
  8  9  1  0
  8 10  1  0
 10 11  1  0
 10 12  2  0
 12 13  1  0
 12 14  1  0
 14 15  1  0
 14 16  2  0
 16 17  1  0
 17 18  2  0
 17 19  1  0
 19 20  1  0
 20 21  1  0
 20 22  1  0
 20 23  1  0
 23 24  1  0
 23 25  1  0
 25 26  1  0
 25 27  1  0
 25 28  1  0
 28 29  1  0
 28 30  1  0
 28 31  1  0
 31 32  1  0
 31 33  1  0
 31 34  1  0
 34 35  1  0
 34 36  1  0
 34 37  1  0
 37 38  1  0
 37 39  1  0
  2 40  1  0
 40 41  2  0
 41 42  1  0
 41 43  1  0
 43 44  2  0
 44 45  1  0
 44 46  1  0
 46 47  1  0
 46 48  2  0
 48 49  1  0
 19  5  1  0
 37 23  1  0
 48 40  1  0
 16  7  1  0
M  END
>  <UniqueID>  (44) 
25

>  <SMILES>  (44) 
O=c1c2ccccc2nc(/C=C/c2cccnc2)n1CC1CCCCC1

>  <Energy>  (44) 
68.50416612528228

>  <Genealogy>  (44) 
O=c1c2ccccc2nc(/C=C/c2cccnc2)n1CC1CCCCC1 (cis-trans isomerization)
O=c1c2ccccc2nc(/C=C/c2cccnc2)n1CC1CCCCC1 (3D coordinates assigned)
O=c1c2ccccc2nc(/C=C/c2cccnc2)n1CC1CCCCC1 (nonaromatic ring conformer: 68.50416612528228 kcal/mol)

>  <smiles>  (44) 
O=c1c2ccccc2nc(/C=C/c2cccnc2)n1CC1CCCCC1

>  <score_type>  (44) 
oracle

>  <origin>  (44) 
autodockgpu

>  <m_score__min__energy>  (44) 
-7.2300000000000004

>  <m_primary>  (44) 
energy

>  <meeko>  (44) 
{"free_energy": -6.94, "intermolecular_energy": -8.43, "internal_energy": -1.46, "cluster_size": 8, "cluster_id": 2, "rank_in_cluster": 6}

>  <energy>  (44) 
-6.99

>  <cluster_rmsd>  (44) 
0.8

>  <rmsd>  (44) 
268.72

>  <cluster>  (44) 
1

$$$$
XUFANRSCLZKORJ-OUKQBFOZNA-N
     RDKit          3D

 49 52  0  0  0  0  0  0  0  0999 V2000
  140.7265   70.7734  220.7878 H   0  0  0  0  0  0  0  0  0  0  0  0
  140.1420   71.4400  221.4390 C   0  0  0  0  0  0  0  0  0  0  0  0
  139.1790   70.8970  222.1980 C   0  0  0  0  0  0  0  0  0  0  0  0
  138.1470   70.8619  221.8189 H   0  0  0  0  0  0  0  0  0  0  0  0
  139.4820   70.3430  223.5400 C   0  0  0  0  0  0  0  0  0  0  0  0
  139.9960   71.1990  224.4640 N   0  0  0  0  0  0  0  0  0  0  0  0
  140.2740   70.8130  225.7280 C   0  0  0  0  0  0  0  0  0  0  0  0
  140.8010   71.7340  226.6410 C   0  0  0  0  0  0  0  0  0  0  0  0
  141.0003   72.7687  226.3253 H   0  0  0  0  0  0  0  0  0  0  0  0
  141.0740   71.3390  227.9540 C   0  0  0  0  0  0  0  0  0  0  0  0
  141.4905   72.0624  228.6704 H   0  0  0  0  0  0  0  0  0  0  0  0
  140.8180   70.0250  228.3570 C   0  0  0  0  0  0  0  0  0  0  0  0
  141.0323   69.7168  229.3910 H   0  0  0  0  0  0  0  0  0  0  0  0
  140.2900   69.1010  227.4490 C   0  0  0  0  0  0  0  0  0  0  0  0
  140.0901   68.0680  227.7700 H   0  0  0  0  0  0  0  0  0  0  0  0
  140.0140   69.4920  226.1240 C   0  0  0  0  0  0  0  0  0  0  0  0
  139.4850   68.6060  225.1720 C   0  0  0  0  0  0  0  0  0  0  0  0
  139.2220   67.4190  225.5180 O   0  0  0  0  0  0  0  0  0  0  0  0
  139.2520   69.0200  223.8770 N   0  0  0  0  0  0  0  0  0  0  0  0
  138.7780   68.0270  222.8780 C   0  0  0  0  0  0  0  0  0  0  0  0
  139.4149   68.1036  221.9844 H   0  0  0  0  0  0  0  0  0  0  0  0
  138.8390   67.0385  223.3567 H   0  0  0  0  0  0  0  0  0  0  0  0
  137.3010   68.2270  222.4440 C   0  0  0  0  0  0  0  0  0  0  0  0
  137.3664   68.9013  221.5773 H   0  0  0  0  0  0  0  0  0  0  0  0
  136.4420   68.9190  223.5180 C   0  0  0  0  0  0  0  0  0  0  0  0
  136.3120   68.2310  224.3664 H   0  0  0  0  0  0  0  0  0  0  0  0
  136.9606   69.8385  223.8271 H   0  0  0  0  0  0  0  0  0  0  0  0
  135.0490   69.3150  222.9790 C   0  0  0  0  0  0  0  0  0  0  0  0
  134.3081   69.1459  223.7743 H   0  0  0  0  0  0  0  0  0  0  0  0
  135.1093   70.3715  222.6788 H   0  0  0  0  0  0  0  0  0  0  0  0
  134.6160   68.5170  221.7330 C   0  0  0  0  0  0  0  0  0  0  0  0
  133.5187   68.5382  221.6591 H   0  0  0  0  0  0  0  0  0  0  0  0
  135.0783   68.9812  220.8494 H   0  0  0  0  0  0  0  0  0  0  0  0
  135.0810   67.0600  221.8070 C   0  0  0  0  0  0  0  0  0  0  0  0
  134.5939   66.5794  222.6682 H   0  0  0  0  0  0  0  0  0  0  0  0
  134.8047   66.5766  220.8583 H   0  0  0  0  0  0  0  0  0  0  0  0
  136.6140   66.9250  221.9680 C   0  0  0  0  0  0  0  0  0  0  0  0
  136.8185   66.1340  222.7045 H   0  0  0  0  0  0  0  0  0  0  0  0
  137.0241   66.6867  220.9755 H   0  0  0  0  0  0  0  0  0  0  0  0
  140.4640   72.8860  221.4270 C   0  0  0  0  0  0  0  0  0  0  0  0
  139.6160   73.8600  221.9920 C   0  0  0  0  0  0  0  0  0  0  0  0
  138.6653   73.5573  222.4552 H   0  0  0  0  0  0  0  0  0  0  0  0
  139.9700   75.1730  221.9660 N   0  0  0  0  0  0  0  0  0  0  0  0
  141.1360   75.5900  221.4090 C   0  0  0  0  0  0  0  0  0  0  0  0
  141.3884   76.6606  221.3994 H   0  0  0  0  0  0  0  0  0  0  0  0
  142.0140   74.6620  220.8490 C   0  0  0  0  0  0  0  0  0  0  0  0
  142.9608   74.9946  220.3985 H   0  0  0  0  0  0  0  0  0  0  0  0
  141.6790   73.3070  220.8660 C   0  0  0  0  0  0  0  0  0  0  0  0
  142.3704   72.5664  220.4378 H   0  0  0  0  0  0  0  0  0  0  0  0
  1  2  1  0
  2  3  2  0
  3  4  1  0
  3  5  1  0
  5  6  2  0
  6  7  1  0
  7  8  2  0
  8  9  1  0
  8 10  1  0
 10 11  1  0
 10 12  2  0
 12 13  1  0
 12 14  1  0
 14 15  1  0
 14 16  2  0
 16 17  1  0
 17 18  2  0
 17 19  1  0
 19 20  1  0
 20 21  1  0
 20 22  1  0
 20 23  1  0
 23 24  1  0
 23 25  1  0
 25 26  1  0
 25 27  1  0
 25 28  1  0
 28 29  1  0
 28 30  1  0
 28 31  1  0
 31 32  1  0
 31 33  1  0
 31 34  1  0
 34 35  1  0
 34 36  1  0
 34 37  1  0
 37 38  1  0
 37 39  1  0
  2 40  1  0
 40 41  2  0
 41 42  1  0
 41 43  1  0
 43 44  2  0
 44 45  1  0
 44 46  1  0
 46 47  1  0
 46 48  2  0
 48 49  1  0
 19  5  1  0
 37 23  1  0
 48 40  1  0
 16  7  1  0
M  END
>  <UniqueID>  (45) 
25

>  <SMILES>  (45) 
O=c1c2ccccc2nc(/C=C/c2cccnc2)n1CC1CCCCC1

>  <Energy>  (45) 
68.50416612528228

>  <Genealogy>  (45) 
O=c1c2ccccc2nc(/C=C/c2cccnc2)n1CC1CCCCC1 (cis-trans isomerization)
O=c1c2ccccc2nc(/C=C/c2cccnc2)n1CC1CCCCC1 (3D coordinates assigned)
O=c1c2ccccc2nc(/C=C/c2cccnc2)n1CC1CCCCC1 (nonaromatic ring conformer: 68.50416612528228 kcal/mol)

>  <smiles>  (45) 
O=c1c2ccccc2nc(/C=C/c2cccnc2)n1CC1CCCCC1

>  <score_type>  (45) 
oracle

>  <origin>  (45) 
autodockgpu

>  <m_score__min__energy>  (45) 
-7.2300000000000004

>  <m_primary>  (45) 
energy

>  <meeko>  (45) 
{"free_energy": -7.23, "intermolecular_energy": -8.72, "internal_energy": -1.22, "cluster_size": 5, "cluster_id": 1, "rank_in_cluster": 1}

>  <energy>  (45) 
-6.94

>  <cluster_rmsd>  (45) 
0.75

>  <rmsd>  (45) 
268.74

>  <cluster>  (45) 
1

$$$$
XUFANRSCLZKORJ-OUKQBFOZNA-N
     RDKit          3D

 49 52  0  0  0  0  0  0  0  0999 V2000
  141.7169   80.4292  219.0762 H   0  0  0  0  0  0  0  0  0  0  0  0
  141.3340   79.9080  219.9660 C   0  0  0  0  0  0  0  0  0  0  0  0
  140.4980   78.8760  219.7830 C   0  0  0  0  0  0  0  0  0  0  0  0
  139.5034   79.0561  219.3491 H   0  0  0  0  0  0  0  0  0  0  0  0
  140.8920   77.4950  220.1560 C   0  0  0  0  0  0  0  0  0  0  0  0
  142.1390   77.0860  219.7970 N   0  0  0  0  0  0  0  0  0  0  0  0
  142.6170   75.8640  220.1180 C   0  0  0  0  0  0  0  0  0  0  0  0
  143.9080   75.4930  219.7260 C   0  0  0  0  0  0  0  0  0  0  0  0
  144.5288   76.1915  219.1457 H   0  0  0  0  0  0  0  0  0  0  0  0
  144.4090   74.2340  220.0720 C   0  0  0  0  0  0  0  0  0  0  0  0
  145.4233   73.9417  219.7626 H   0  0  0  0  0  0  0  0  0  0  0  0
  143.6210   73.3470  220.8110 C   0  0  0  0  0  0  0  0  0  0  0  0
  144.0164   72.3567  221.0812 H   0  0  0  0  0  0  0  0  0  0  0  0
  142.3310   73.7150  221.2080 C   0  0  0  0  0  0  0  0  0  0  0  0
  141.7156   73.0150  221.7922 H   0  0  0  0  0  0  0  0  0  0  0  0
  141.8190   74.9800  220.8610 C   0  0  0  0  0  0  0  0  0  0  0  0
  140.5310   75.3990  221.2310 C   0  0  0  0  0  0  0  0  0  0  0  0
  139.8090   74.6250  221.9210 O   0  0  0  0  0  0  0  0  0  0  0  0
  140.0570   76.6380  220.8510 N   0  0  0  0  0  0  0  0  0  0  0  0
  138.6560   77.0050  221.1850 C   0  0  0  0  0  0  0  0  0  0  0  0
  138.1613   77.3547  220.2669 H   0  0  0  0  0  0  0  0  0  0  0  0
  138.1813   76.1054  221.6039 H   0  0  0  0  0  0  0  0  0  0  0  0
  138.5370   78.1200  222.2600 C   0  0  0  0  0  0  0  0  0  0  0  0
  137.7568   77.7513  222.9421 H   0  0  0  0  0  0  0  0  0  0  0  0
  138.0630   79.4670  221.6870 C   0  0  0  0  0  0  0  0  0  0  0  0
  138.8594   79.8832  221.0525 H   0  0  0  0  0  0  0  0  0  0  0  0
  137.1462   79.2860  221.1067 H   0  0  0  0  0  0  0  0  0  0  0  0
  137.7300   80.4840  222.8010 C   0  0  0  0  0  0  0  0  0  0  0  0
  138.0628   81.4796  222.4724 H   0  0  0  0  0  0  0  0  0  0  0  0
  136.6432   80.4358  222.9642 H   0  0  0  0  0  0  0  0  0  0  0  0
  138.4010   80.1690  224.1520 C   0  0  0  0  0  0  0  0  0  0  0  0
  138.4692   81.0952  224.7415 H   0  0  0  0  0  0  0  0  0  0  0  0
  137.7905   79.4166  224.6728 H   0  0  0  0  0  0  0  0  0  0  0  0
  139.8090   79.5960  223.9610 C   0  0  0  0  0  0  0  0  0  0  0  0
  140.4350   80.3584  223.4742 H   0  0  0  0  0  0  0  0  0  0  0  0
  140.1925   79.3250  224.9557 H   0  0  0  0  0  0  0  0  0  0  0  0
  139.8260   78.3160  223.0930 C   0  0  0  0  0  0  0  0  0  0  0  0
  140.6811   78.3739  222.4035 H   0  0  0  0  0  0  0  0  0  0  0  0
  139.9019   77.4598  223.7794 H   0  0  0  0  0  0  0  0  0  0  0  0
  141.7720   80.3870  221.2990 C   0  0  0  0  0  0  0  0  0  0  0  0
  141.3800   81.6330  221.8280 C   0  0  0  0  0  0  0  0  0  0  0  0
  140.7332   82.2999  221.2391 H   0  0  0  0  0  0  0  0  0  0  0  0
  141.7990   82.0130  223.0640 N   0  0  0  0  0  0  0  0  0  0  0  0
  142.5960   81.2210  223.8270 C   0  0  0  0  0  0  0  0  0  0  0  0
  142.9236   81.5633  224.8197 H   0  0  0  0  0  0  0  0  0  0  0  0
  142.9990   79.9730  223.3510 C   0  0  0  0  0  0  0  0  0  0  0  0
  143.6420   79.3258  223.9656 H   0  0  0  0  0  0  0  0  0  0  0  0
  142.5790   79.5530  222.0880 C   0  0  0  0  0  0  0  0  0  0  0  0
  142.8814   78.5653  221.7099 H   0  0  0  0  0  0  0  0  0  0  0  0
  1  2  1  0
  2  3  2  0
  3  4  1  0
  3  5  1  0
  5  6  2  0
  6  7  1  0
  7  8  2  0
  8  9  1  0
  8 10  1  0
 10 11  1  0
 10 12  2  0
 12 13  1  0
 12 14  1  0
 14 15  1  0
 14 16  2  0
 16 17  1  0
 17 18  2  0
 17 19  1  0
 19 20  1  0
 20 21  1  0
 20 22  1  0
 20 23  1  0
 23 24  1  0
 23 25  1  0
 25 26  1  0
 25 27  1  0
 25 28  1  0
 28 29  1  0
 28 30  1  0
 28 31  1  0
 31 32  1  0
 31 33  1  0
 31 34  1  0
 34 35  1  0
 34 36  1  0
 34 37  1  0
 37 38  1  0
 37 39  1  0
  2 40  1  0
 40 41  2  0
 41 42  1  0
 41 43  1  0
 43 44  2  0
 44 45  1  0
 44 46  1  0
 46 47  1  0
 46 48  2  0
 48 49  1  0
 19  5  1  0
 37 23  1  0
 48 40  1  0
 16  7  1  0
M  END
>  <UniqueID>  (46) 
25

>  <SMILES>  (46) 
O=c1c2ccccc2nc(/C=C/c2cccnc2)n1CC1CCCCC1

>  <Energy>  (46) 
68.50416612528228

>  <Genealogy>  (46) 
O=c1c2ccccc2nc(/C=C/c2cccnc2)n1CC1CCCCC1 (cis-trans isomerization)
O=c1c2ccccc2nc(/C=C/c2cccnc2)n1CC1CCCCC1 (3D coordinates assigned)
O=c1c2ccccc2nc(/C=C/c2cccnc2)n1CC1CCCCC1 (nonaromatic ring conformer: 68.50416612528228 kcal/mol)

>  <smiles>  (46) 
O=c1c2ccccc2nc(/C=C/c2cccnc2)n1CC1CCCCC1

>  <score_type>  (46) 
oracle

>  <origin>  (46) 
autodockgpu

>  <m_score__min__energy>  (46) 
-7.2300000000000004

>  <m_primary>  (46) 
energy

>  <meeko>  (46) 
{"free_energy": -6.35, "intermolecular_energy": -7.84, "internal_energy": -1.97, "cluster_size": 1, "cluster_id": 8, "rank_in_cluster": 1}

>  <energy>  (46) 
-7.15

>  <cluster_rmsd>  (46) 
0.0

>  <rmsd>  (46) 
269.25

>  <cluster>  (46) 
2

$$$$
XUFANRSCLZKORJ-OUKQBFOZNA-N
     RDKit          3D

 49 52  0  0  0  0  0  0  0  0999 V2000
  143.6778   75.9299  218.0132 H   0  0  0  0  0  0  0  0  0  0  0  0
  143.5940   75.5390  219.0380 C   0  0  0  0  0  0  0  0  0  0  0  0
  142.7260   76.1320  219.8720 C   0  0  0  0  0  0  0  0  0  0  0  0
  142.8375   77.2029  220.0971 H   0  0  0  0  0  0  0  0  0  0  0  0
  141.6190   75.3670  220.4950 C   0  0  0  0  0  0  0  0  0  0  0  0
  141.7690   74.0180  220.5860 N   0  0  0  0  0  0  0  0  0  0  0  0
  140.8420   73.2270  221.1690 C   0  0  0  0  0  0  0  0  0  0  0  0
  141.0460   71.8440  221.2380 C   0  0  0  0  0  0  0  0  0  0  0  0
  141.9550   71.3998  220.8062 H   0  0  0  0  0  0  0  0  0  0  0  0
  140.0940   71.0270  221.8560 C   0  0  0  0  0  0  0  0  0  0  0  0
  140.2537   69.9400  221.9091 H   0  0  0  0  0  0  0  0  0  0  0  0
  138.9400   71.5910  222.4060 C   0  0  0  0  0  0  0  0  0  0  0  0
  138.1926   70.9464  222.8917 H   0  0  0  0  0  0  0  0  0  0  0  0
  138.7320   72.9730  222.3410 C   0  0  0  0  0  0  0  0  0  0  0  0
  137.8224   73.4127  222.7761 H   0  0  0  0  0  0  0  0  0  0  0  0
  139.6860   73.8020  221.7190 C   0  0  0  0  0  0  0  0  0  0  0  0
  139.5280   75.1940  221.6250 C   0  0  0  0  0  0  0  0  0  0  0  0
  138.5050   75.7300  222.1370 O   0  0  0  0  0  0  0  0  0  0  0  0
  140.4730   75.9680  220.9860 N   0  0  0  0  0  0  0  0  0  0  0  0
  140.2220   77.4250  220.8280 C   0  0  0  0  0  0  0  0  0  0  0  0
  140.3338   77.6824  219.7644 H   0  0  0  0  0  0  0  0  0  0  0  0
  139.2063   77.6168  221.2043 H   0  0  0  0  0  0  0  0  0  0  0  0
  141.1850   78.3220  221.6520 C   0  0  0  0  0  0  0  0  0  0  0  0
  142.1288   77.7572  221.6655 H   0  0  0  0  0  0  0  0  0  0  0  0
  140.7310   78.5200  223.1100 C   0  0  0  0  0  0  0  0  0  0  0  0
  139.8225   79.1402  223.1181 H   0  0  0  0  0  0  0  0  0  0  0  0
  140.5387   77.5277  223.5441 H   0  0  0  0  0  0  0  0  0  0  0  0
  141.8160   79.2130  223.9640 C   0  0  0  0  0  0  0  0  0  0  0  0
  141.3200   79.9073  224.6582 H   0  0  0  0  0  0  0  0  0  0  0  0
  142.3685   78.4182  224.4866 H   0  0  0  0  0  0  0  0  0  0  0  0
  142.8470   80.0070  223.1360 C   0  0  0  0  0  0  0  0  0  0  0  0
  143.3035   80.7760  223.7765 H   0  0  0  0  0  0  0  0  0  0  0  0
  143.6069   79.3032  222.7656 H   0  0  0  0  0  0  0  0  0  0  0  0
  142.1950   80.6880  221.9290 C   0  0  0  0  0  0  0  0  0  0  0  0
  141.4602   81.4207  222.2940 H   0  0  0  0  0  0  0  0  0  0  0  0
  142.9966   81.1668  221.3474 H   0  0  0  0  0  0  0  0  0  0  0  0
  141.4740   79.6910  220.9920 C   0  0  0  0  0  0  0  0  0  0  0  0
  140.5176   80.1359  220.6800 H   0  0  0  0  0  0  0  0  0  0  0  0
  142.1449   79.5043  220.1405 H   0  0  0  0  0  0  0  0  0  0  0  0
  144.4460   74.3880  219.4180 C   0  0  0  0  0  0  0  0  0  0  0  0
  144.8270   73.3870  218.5010 C   0  0  0  0  0  0  0  0  0  0  0  0
  144.4783   73.4365  217.4589 H   0  0  0  0  0  0  0  0  0  0  0  0
  145.6240   72.3610  218.9010 N   0  0  0  0  0  0  0  0  0  0  0  0
  146.0790   72.2620  220.1770 C   0  0  0  0  0  0  0  0  0  0  0  0
  146.7156   71.4140  220.4695 H   0  0  0  0  0  0  0  0  0  0  0  0
  145.7390   73.2360  221.1170 C   0  0  0  0  0  0  0  0  0  0  0  0
  146.1076   73.1625  222.1508 H   0  0  0  0  0  0  0  0  0  0  0  0
  144.9270   74.3040  220.7330 C   0  0  0  0  0  0  0  0  0  0  0  0
  144.6633   75.0826  221.4639 H   0  0  0  0  0  0  0  0  0  0  0  0
  1  2  1  0
  2  3  2  0
  3  4  1  0
  3  5  1  0
  5  6  2  0
  6  7  1  0
  7  8  2  0
  8  9  1  0
  8 10  1  0
 10 11  1  0
 10 12  2  0
 12 13  1  0
 12 14  1  0
 14 15  1  0
 14 16  2  0
 16 17  1  0
 17 18  2  0
 17 19  1  0
 19 20  1  0
 20 21  1  0
 20 22  1  0
 20 23  1  0
 23 24  1  0
 23 25  1  0
 25 26  1  0
 25 27  1  0
 25 28  1  0
 28 29  1  0
 28 30  1  0
 28 31  1  0
 31 32  1  0
 31 33  1  0
 31 34  1  0
 34 35  1  0
 34 36  1  0
 34 37  1  0
 37 38  1  0
 37 39  1  0
  2 40  1  0
 40 41  2  0
 41 42  1  0
 41 43  1  0
 43 44  2  0
 44 45  1  0
 44 46  1  0
 46 47  1  0
 46 48  2  0
 48 49  1  0
 19  5  1  0
 37 23  1  0
 48 40  1  0
 16  7  1  0
M  END
>  <UniqueID>  (47) 
25

>  <SMILES>  (47) 
O=c1c2ccccc2nc(/C=C/c2cccnc2)n1CC1CCCCC1

>  <Energy>  (47) 
68.50416612528228

>  <Genealogy>  (47) 
O=c1c2ccccc2nc(/C=C/c2cccnc2)n1CC1CCCCC1 (cis-trans isomerization)
O=c1c2ccccc2nc(/C=C/c2cccnc2)n1CC1CCCCC1 (3D coordinates assigned)
O=c1c2ccccc2nc(/C=C/c2cccnc2)n1CC1CCCCC1 (nonaromatic ring conformer: 68.50416612528228 kcal/mol)

>  <smiles>  (47) 
O=c1c2ccccc2nc(/C=C/c2cccnc2)n1CC1CCCCC1

>  <score_type>  (47) 
oracle

>  <origin>  (47) 
autodockgpu

>  <m_score__min__energy>  (47) 
-7.2300000000000004

>  <m_primary>  (47) 
energy

>  <meeko>  (47) 
{"free_energy": -7.08, "intermolecular_energy": -8.58, "internal_energy": -1.31, "cluster_size": 2, "cluster_id": 3, "rank_in_cluster": 1}

>  <energy>  (47) 
-7.11

>  <cluster_rmsd>  (47) 
0.14

>  <rmsd>  (47) 
269.21

>  <cluster>  (47) 
2

$$$$
XUFANRSCLZKORJ-OUKQBFOZNA-N
     RDKit          3D

 49 52  0  0  0  0  0  0  0  0999 V2000
  135.4981   69.2527  222.2830 H   0  0  0  0  0  0  0  0  0  0  0  0
  135.9880   69.1770  223.2650 C   0  0  0  0  0  0  0  0  0  0  0  0
  137.2510   68.7290  223.3080 C   0  0  0  0  0  0  0  0  0  0  0  0
  137.5876   67.9880  222.5679 H   0  0  0  0  0  0  0  0  0  0  0  0
  138.2020   69.2160  224.3370 C   0  0  0  0  0  0  0  0  0  0  0  0
  138.4740   68.3820  225.3770 N   0  0  0  0  0  0  0  0  0  0  0  0
  139.3520   68.7050  226.3510 C   0  0  0  0  0  0  0  0  0  0  0  0
  139.5980   67.8100  227.3980 C   0  0  0  0  0  0  0  0  0  0  0  0
  139.0663   66.8477  227.4350 H   0  0  0  0  0  0  0  0  0  0  0  0
  140.5190   68.1380  228.3970 C   0  0  0  0  0  0  0  0  0  0  0  0
  140.7101   67.4349  229.2211 H   0  0  0  0  0  0  0  0  0  0  0  0
  141.1970   69.3590  228.3490 C   0  0  0  0  0  0  0  0  0  0  0  0
  141.9210   69.6154  229.1365 H   0  0  0  0  0  0  0  0  0  0  0  0
  140.9580   70.2560  227.3030 C   0  0  0  0  0  0  0  0  0  0  0  0
  141.4959   71.2149  227.2679 H   0  0  0  0  0  0  0  0  0  0  0  0
  140.0290   69.9330  226.2940 C   0  0  0  0  0  0  0  0  0  0  0  0
  139.7490   70.7970  225.2230 C   0  0  0  0  0  0  0  0  0  0  0  0
  140.3680   71.8960  225.1440 O   0  0  0  0  0  0  0  0  0  0  0  0
  138.8150   70.4550  224.2680 N   0  0  0  0  0  0  0  0  0  0  0  0
  138.4820   71.4360  223.2030 C   0  0  0  0  0  0  0  0  0  0  0  0
  137.8228   70.9439  222.4727 H   0  0  0  0  0  0  0  0  0  0  0  0
  137.9999   72.2924  223.6971 H   0  0  0  0  0  0  0  0  0  0  0  0
  139.7210   71.9900  222.4480 C   0  0  0  0  0  0  0  0  0  0  0  0
  140.5029   72.0390  223.2202 H   0  0  0  0  0  0  0  0  0  0  0  0
  139.5110   73.4120  221.8980 C   0  0  0  0  0  0  0  0  0  0  0  0
  138.7784   73.3711  221.0784 H   0  0  0  0  0  0  0  0  0  0  0  0
  139.1513   74.0452  222.7224 H   0  0  0  0  0  0  0  0  0  0  0  0
  140.8240   74.0260  221.3630 C   0  0  0  0  0  0  0  0  0  0  0  0
  140.5920   74.6075  220.4586 H   0  0  0  0  0  0  0  0  0  0  0  0
  141.2384   74.6497  222.1688 H   0  0  0  0  0  0  0  0  0  0  0  0
  141.8990   72.9790  221.0060 C   0  0  0  0  0  0  0  0  0  0  0  0
  142.5977   73.4180  220.2786 H   0  0  0  0  0  0  0  0  0  0  0  0
  142.4231   72.6940  221.9302 H   0  0  0  0  0  0  0  0  0  0  0  0
  141.2760   71.7180  220.3990 C   0  0  0  0  0  0  0  0  0  0  0  0
  140.7813   71.9906  219.4551 H   0  0  0  0  0  0  0  0  0  0  0  0
  142.0875   70.9922  220.2416 H   0  0  0  0  0  0  0  0  0  0  0  0
  140.2340   71.0540  221.3280 C   0  0  0  0  0  0  0  0  0  0  0  0
  139.3751   70.7376  220.7179 H   0  0  0  0  0  0  0  0  0  0  0  0
  140.7323   70.2049  221.8187 H   0  0  0  0  0  0  0  0  0  0  0  0
  135.2140   69.5760  224.4640 C   0  0  0  0  0  0  0  0  0  0  0  0
  134.6560   68.6390  225.3570 C   0  0  0  0  0  0  0  0  0  0  0  0
  134.7773   67.5621  225.1686 H   0  0  0  0  0  0  0  0  0  0  0  0
  133.9680   69.0630  226.4510 N   0  0  0  0  0  0  0  0  0  0  0  0
  133.7970   70.3820  226.7240 C   0  0  0  0  0  0  0  0  0  0  0  0
  133.2286   70.6900  227.6140 H   0  0  0  0  0  0  0  0  0  0  0  0
  134.3420   71.3470  225.8760 C   0  0  0  0  0  0  0  0  0  0  0  0
  134.2086   72.4170  226.0937 H   0  0  0  0  0  0  0  0  0  0  0  0
  135.0580   70.9410  224.7490 C   0  0  0  0  0  0  0  0  0  0  0  0
  135.5019   71.6942  224.0814 H   0  0  0  0  0  0  0  0  0  0  0  0
  1  2  1  0
  2  3  2  0
  3  4  1  0
  3  5  1  0
  5  6  2  0
  6  7  1  0
  7  8  2  0
  8  9  1  0
  8 10  1  0
 10 11  1  0
 10 12  2  0
 12 13  1  0
 12 14  1  0
 14 15  1  0
 14 16  2  0
 16 17  1  0
 17 18  2  0
 17 19  1  0
 19 20  1  0
 20 21  1  0
 20 22  1  0
 20 23  1  0
 23 24  1  0
 23 25  1  0
 25 26  1  0
 25 27  1  0
 25 28  1  0
 28 29  1  0
 28 30  1  0
 28 31  1  0
 31 32  1  0
 31 33  1  0
 31 34  1  0
 34 35  1  0
 34 36  1  0
 34 37  1  0
 37 38  1  0
 37 39  1  0
  2 40  1  0
 40 41  2  0
 41 42  1  0
 41 43  1  0
 43 44  2  0
 44 45  1  0
 44 46  1  0
 46 47  1  0
 46 48  2  0
 48 49  1  0
 19  5  1  0
 37 23  1  0
 48 40  1  0
 16  7  1  0
M  END
>  <UniqueID>  (48) 
25

>  <SMILES>  (48) 
O=c1c2ccccc2nc(/C=C/c2cccnc2)n1CC1CCCCC1

>  <Energy>  (48) 
68.50416612528228

>  <Genealogy>  (48) 
O=c1c2ccccc2nc(/C=C/c2cccnc2)n1CC1CCCCC1 (cis-trans isomerization)
O=c1c2ccccc2nc(/C=C/c2cccnc2)n1CC1CCCCC1 (3D coordinates assigned)
O=c1c2ccccc2nc(/C=C/c2cccnc2)n1CC1CCCCC1 (nonaromatic ring conformer: 68.50416612528228 kcal/mol)

>  <smiles>  (48) 
O=c1c2ccccc2nc(/C=C/c2cccnc2)n1CC1CCCCC1

>  <score_type>  (48) 
oracle

>  <origin>  (48) 
autodockgpu

>  <m_score__min__energy>  (48) 
-7.2300000000000004

>  <m_primary>  (48) 
energy

>  <meeko>  (48) 
{"free_energy": -7.11, "intermolecular_energy": -8.6, "internal_energy": -1.36, "cluster_size": 8, "cluster_id": 2, "rank_in_cluster": 2}

>  <energy>  (48) 
-7.09

>  <cluster_rmsd>  (48) 
0.25

>  <rmsd>  (48) 
269.16

>  <cluster>  (48) 
2

$$$$
XUFANRSCLZKORJ-OUKQBFOZNA-N
     RDKit          3D

 49 52  0  0  0  0  0  0  0  0999 V2000
  143.7880   76.5923  218.6566 H   0  0  0  0  0  0  0  0  0  0  0  0
  143.3160   75.7150  219.1230 C   0  0  0  0  0  0  0  0  0  0  0  0
  141.9980   75.7620  219.3700 C   0  0  0  0  0  0  0  0  0  0  0  0
  141.3099   75.1677  218.7508 H   0  0  0  0  0  0  0  0  0  0  0  0
  141.4540   76.6020  220.4640 C   0  0  0  0  0  0  0  0  0  0  0  0
  142.1940   77.6770  220.8500 N   0  0  0  0  0  0  0  0  0  0  0  0
  141.7780   78.5310  221.8090 C   0  0  0  0  0  0  0  0  0  0  0  0
  142.5770   79.6240  222.1690 C   0  0  0  0  0  0  0  0  0  0  0  0
  143.5498   79.7792  221.6795 H   0  0  0  0  0  0  0  0  0  0  0  0
  142.1380   80.5170  223.1500 C   0  0  0  0  0  0  0  0  0  0  0  0
  142.7666   81.3742  223.4330 H   0  0  0  0  0  0  0  0  0  0  0  0
  140.9020   80.3230  223.7720 C   0  0  0  0  0  0  0  0  0  0  0  0
  140.5594   81.0278  224.5440 H   0  0  0  0  0  0  0  0  0  0  0  0
  140.0990   79.2340  223.4150 C   0  0  0  0  0  0  0  0  0  0  0  0
  139.1260   79.0847  223.9059 H   0  0  0  0  0  0  0  0  0  0  0  0
  140.5350   78.3290  222.4280 C   0  0  0  0  0  0  0  0  0  0  0  0
  139.7700   77.2190  222.0340 C   0  0  0  0  0  0  0  0  0  0  0  0
  138.6370   77.0360  222.5630 O   0  0  0  0  0  0  0  0  0  0  0  0
  140.2430   76.3410  221.0800 N   0  0  0  0  0  0  0  0  0  0  0  0
  139.4430   75.1310  220.7580 C   0  0  0  0  0  0  0  0  0  0  0  0
  138.3807   75.3643  220.9227 H   0  0  0  0  0  0  0  0  0  0  0  0
  139.6616   74.8732  219.7112 H   0  0  0  0  0  0  0  0  0  0  0  0
  139.8090   73.8880  221.6140 C   0  0  0  0  0  0  0  0  0  0  0  0
  140.2081   74.3144  222.5461 H   0  0  0  0  0  0  0  0  0  0  0  0
  140.9120   73.0200  220.9830 C   0  0  0  0  0  0  0  0  0  0  0  0
  140.5090   72.5321  220.0833 H   0  0  0  0  0  0  0  0  0  0  0  0
  141.7597   73.6753  220.7340 H   0  0  0  0  0  0  0  0  0  0  0  0
  141.4190   71.9320  221.9560 C   0  0  0  0  0  0  0  0  0  0  0  0
  141.6125   71.0149  221.3803 H   0  0  0  0  0  0  0  0  0  0  0  0
  142.3267   72.3282  222.4346 H   0  0  0  0  0  0  0  0  0  0  0  0
  140.4260   71.5960  223.0860 C   0  0  0  0  0  0  0  0  0  0  0  0
  140.6426   70.5856  223.4630 H   0  0  0  0  0  0  0  0  0  0  0  0
  140.5439   72.3457  223.8823 H   0  0  0  0  0  0  0  0  0  0  0  0
  138.9760   71.6430  222.5940 C   0  0  0  0  0  0  0  0  0  0  0  0
  138.8416   70.8695  221.8235 H   0  0  0  0  0  0  0  0  0  0  0  0
  138.3263   71.4708  223.4648 H   0  0  0  0  0  0  0  0  0  0  0  0
  138.5890   73.0140  221.9900 C   0  0  0  0  0  0  0  0  0  0  0  0
  137.9928   72.8390  221.0823 H   0  0  0  0  0  0  0  0  0  0  0  0
  138.0245   73.5598  222.7604 H   0  0  0  0  0  0  0  0  0  0  0  0
  144.1720   74.5480  219.4430 C   0  0  0  0  0  0  0  0  0  0  0  0
  144.7850   73.7580  218.4500 C   0  0  0  0  0  0  0  0  0  0  0  0
  144.6248   73.9914  217.3871 H   0  0  0  0  0  0  0  0  0  0  0  0
  145.5740   72.7080  218.8020 N   0  0  0  0  0  0  0  0  0  0  0  0
  145.8030   72.3870  220.1020 C   0  0  0  0  0  0  0  0  0  0  0  0
  146.4409   71.5264  220.3520 H   0  0  0  0  0  0  0  0  0  0  0  0
  145.2290   73.1490  221.1200 C   0  0  0  0  0  0  0  0  0  0  0  0
  145.4137   72.8958  222.1744 H   0  0  0  0  0  0  0  0  0  0  0  0
  144.4180   74.2360  220.7880 C   0  0  0  0  0  0  0  0  0  0  0  0
  143.9706   74.8496  221.5839 H   0  0  0  0  0  0  0  0  0  0  0  0
  1  2  1  0
  2  3  2  0
  3  4  1  0
  3  5  1  0
  5  6  2  0
  6  7  1  0
  7  8  2  0
  8  9  1  0
  8 10  1  0
 10 11  1  0
 10 12  2  0
 12 13  1  0
 12 14  1  0
 14 15  1  0
 14 16  2  0
 16 17  1  0
 17 18  2  0
 17 19  1  0
 19 20  1  0
 20 21  1  0
 20 22  1  0
 20 23  1  0
 23 24  1  0
 23 25  1  0
 25 26  1  0
 25 27  1  0
 25 28  1  0
 28 29  1  0
 28 30  1  0
 28 31  1  0
 31 32  1  0
 31 33  1  0
 31 34  1  0
 34 35  1  0
 34 36  1  0
 34 37  1  0
 37 38  1  0
 37 39  1  0
  2 40  1  0
 40 41  2  0
 41 42  1  0
 41 43  1  0
 43 44  2  0
 44 45  1  0
 44 46  1  0
 46 47  1  0
 46 48  2  0
 48 49  1  0
 19  5  1  0
 37 23  1  0
 48 40  1  0
 16  7  1  0
M  END
>  <UniqueID>  (49) 
25

>  <SMILES>  (49) 
O=c1c2ccccc2nc(/C=C/c2cccnc2)n1CC1CCCCC1

>  <Energy>  (49) 
68.50416612528228

>  <Genealogy>  (49) 
O=c1c2ccccc2nc(/C=C/c2cccnc2)n1CC1CCCCC1 (cis-trans isomerization)
O=c1c2ccccc2nc(/C=C/c2cccnc2)n1CC1CCCCC1 (3D coordinates assigned)
O=c1c2ccccc2nc(/C=C/c2cccnc2)n1CC1CCCCC1 (nonaromatic ring conformer: 68.50416612528228 kcal/mol)

>  <smiles>  (49) 
O=c1c2ccccc2nc(/C=C/c2cccnc2)n1CC1CCCCC1

>  <score_type>  (49) 
oracle

>  <origin>  (49) 
autodockgpu

>  <m_score__min__energy>  (49) 
-7.2300000000000004

>  <m_primary>  (49) 
energy

>  <meeko>  (49) 
{"free_energy": -6.85, "intermolecular_energy": -8.35, "internal_energy": -1.48, "cluster_size": 1, "cluster_id": 6, "rank_in_cluster": 1}

>  <energy>  (49) 
-7.03

>  <cluster_rmsd>  (49) 
0.22

>  <rmsd>  (49) 
269.17

>  <cluster>  (49) 
2

$$$$
XUFANRSCLZKORJ-OUKQBFOZNA-N
     RDKit          3D

 49 52  0  0  0  0  0  0  0  0999 V2000
  135.4884   68.8088  222.2584 H   0  0  0  0  0  0  0  0  0  0  0  0
  136.0480   68.9270  223.1980 C   0  0  0  0  0  0  0  0  0  0  0  0
  137.3540   68.6240  223.1980 C   0  0  0  0  0  0  0  0  0  0  0  0
  137.7598   67.9799  222.4040 H   0  0  0  0  0  0  0  0  0  0  0  0
  138.2610   69.1430  224.2510 C   0  0  0  0  0  0  0  0  0  0  0  0
  138.5280   68.3210  225.3020 N   0  0  0  0  0  0  0  0  0  0  0  0
  139.3680   68.6730  226.2980 C   0  0  0  0  0  0  0  0  0  0  0  0
  139.6100   67.7890  227.3560 C   0  0  0  0  0  0  0  0  0  0  0  0
  139.1055   66.8119  227.3826 H   0  0  0  0  0  0  0  0  0  0  0  0
  140.4930   68.1480  228.3790 C   0  0  0  0  0  0  0  0  0  0  0  0
  140.6816   67.4537  229.2111 H   0  0  0  0  0  0  0  0  0  0  0  0
  141.1360   69.3880  228.3450 C   0  0  0  0  0  0  0  0  0  0  0  0
  141.8299   69.6682  229.1512 H   0  0  0  0  0  0  0  0  0  0  0  0
  140.9000   70.2740  227.2890 C   0  0  0  0  0  0  0  0  0  0  0  0
  141.4099   71.2484  227.2650 H   0  0  0  0  0  0  0  0  0  0  0  0
  140.0100   69.9200  226.2560 C   0  0  0  0  0  0  0  0  0  0  0  0
  139.7350   70.7720  225.1740 C   0  0  0  0  0  0  0  0  0  0  0  0
  140.3240   71.8880  225.1070 O   0  0  0  0  0  0  0  0  0  0  0  0
  138.8390   70.3990  224.1940 N   0  0  0  0  0  0  0  0  0  0  0  0
  138.5080   71.3660  223.1150 C   0  0  0  0  0  0  0  0  0  0  0  0
  137.8721   70.8561  222.3763 H   0  0  0  0  0  0  0  0  0  0  0  0
  138.0009   72.2168  223.5936 H   0  0  0  0  0  0  0  0  0  0  0  0
  139.7500   71.9380  222.3790 C   0  0  0  0  0  0  0  0  0  0  0  0
  140.5325   71.9563  223.1519 H   0  0  0  0  0  0  0  0  0  0  0  0
  139.5490   73.3790  221.8780 C   0  0  0  0  0  0  0  0  0  0  0  0
  138.8155   73.3708  221.0583 H   0  0  0  0  0  0  0  0  0  0  0  0
  139.1942   73.9861  222.7239 H   0  0  0  0  0  0  0  0  0  0  0  0
  140.8650   74.0020  221.3630 C   0  0  0  0  0  0  0  0  0  0  0  0
  140.6359   74.6151  220.4789 H   0  0  0  0  0  0  0  0  0  0  0  0
  141.2838   74.5952  222.1893 H   0  0  0  0  0  0  0  0  0  0  0  0
  141.9330   72.9620  220.9700 C   0  0  0  0  0  0  0  0  0  0  0  0
  142.6338   73.4213  220.2573 H   0  0  0  0  0  0  0  0  0  0  0  0
  142.4560   72.6427  221.8835 H   0  0  0  0  0  0  0  0  0  0  0  0
  141.3020   71.7260  220.3210 C   0  0  0  0  0  0  0  0  0  0  0  0
  140.8089   72.0334  219.3870 H   0  0  0  0  0  0  0  0  0  0  0  0
  142.1091   71.0010  220.1392 H   0  0  0  0  0  0  0  0  0  0  0  0
  140.2560   71.0370  221.2270 C   0  0  0  0  0  0  0  0  0  0  0  0
  139.3947   70.7476  220.6070 H   0  0  0  0  0  0  0  0  0  0  0  0
  140.7484   70.1679  221.6876 H   0  0  0  0  0  0  0  0  0  0  0  0
  135.3150   69.4120  224.3910 C   0  0  0  0  0  0  0  0  0  0  0  0
  134.6920   68.5420  225.3090 C   0  0  0  0  0  0  0  0  0  0  0  0
  134.7287   67.4549  225.1453 H   0  0  0  0  0  0  0  0  0  0  0  0
  134.0460   69.0420  226.3960 N   0  0  0  0  0  0  0  0  0  0  0  0
  133.9800   70.3770  226.6390 C   0  0  0  0  0  0  0  0  0  0  0  0
  133.4432   70.7488  227.5242 H   0  0  0  0  0  0  0  0  0  0  0  0
  134.5930   71.2770  225.7660 C   0  0  0  0  0  0  0  0  0  0  0  0
  134.5447   72.3588  225.9595 H   0  0  0  0  0  0  0  0  0  0  0  0
  135.2680   70.7910  224.6450 C   0  0  0  0  0  0  0  0  0  0  0  0
  135.7650   71.4919  223.9581 H   0  0  0  0  0  0  0  0  0  0  0  0
  1  2  1  0
  2  3  2  0
  3  4  1  0
  3  5  1  0
  5  6  2  0
  6  7  1  0
  7  8  2  0
  8  9  1  0
  8 10  1  0
 10 11  1  0
 10 12  2  0
 12 13  1  0
 12 14  1  0
 14 15  1  0
 14 16  2  0
 16 17  1  0
 17 18  2  0
 17 19  1  0
 19 20  1  0
 20 21  1  0
 20 22  1  0
 20 23  1  0
 23 24  1  0
 23 25  1  0
 25 26  1  0
 25 27  1  0
 25 28  1  0
 28 29  1  0
 28 30  1  0
 28 31  1  0
 31 32  1  0
 31 33  1  0
 31 34  1  0
 34 35  1  0
 34 36  1  0
 34 37  1  0
 37 38  1  0
 37 39  1  0
  2 40  1  0
 40 41  2  0
 41 42  1  0
 41 43  1  0
 43 44  2  0
 44 45  1  0
 44 46  1  0
 46 47  1  0
 46 48  2  0
 48 49  1  0
 19  5  1  0
 37 23  1  0
 48 40  1  0
 16  7  1  0
M  END
>  <UniqueID>  (50) 
25

>  <SMILES>  (50) 
O=c1c2ccccc2nc(/C=C/c2cccnc2)n1CC1CCCCC1

>  <Energy>  (50) 
68.50416612528228

>  <Genealogy>  (50) 
O=c1c2ccccc2nc(/C=C/c2cccnc2)n1CC1CCCCC1 (cis-trans isomerization)
O=c1c2ccccc2nc(/C=C/c2cccnc2)n1CC1CCCCC1 (3D coordinates assigned)
O=c1c2ccccc2nc(/C=C/c2cccnc2)n1CC1CCCCC1 (nonaromatic ring conformer: 68.50416612528228 kcal/mol)

>  <smiles>  (50) 
O=c1c2ccccc2nc(/C=C/c2cccnc2)n1CC1CCCCC1

>  <score_type>  (50) 
oracle

>  <origin>  (50) 
autodockgpu

>  <m_score__min__energy>  (50) 
-7.2300000000000004

>  <m_primary>  (50) 
energy

>  <meeko>  (50) 
{"free_energy": -7.03, "intermolecular_energy": -8.52, "internal_energy": -1.42, "cluster_size": 8, "cluster_id": 2, "rank_in_cluster": 4}

>  <energy>  (50) 
-7.02

>  <cluster_rmsd>  (50) 
0.23

>  <rmsd>  (50) 
269.15

>  <cluster>  (50) 
2

$$$$
XUFANRSCLZKORJ-OUKQBFOZNA-N
     RDKit          3D

 49 52  0  0  0  0  0  0  0  0999 V2000
  135.3266   68.4689  222.3402 H   0  0  0  0  0  0  0  0  0  0  0  0
  135.9480   68.7850  223.1910 C   0  0  0  0  0  0  0  0  0  0  0  0
  137.2770   68.6410  223.0910 C   0  0  0  0  0  0  0  0  0  0  0  0
  137.7010   68.1329  222.2123 H   0  0  0  0  0  0  0  0  0  0  0  0
  138.1860   69.1550  224.1450 C   0  0  0  0  0  0  0  0  0  0  0  0
  138.4640   68.3240  225.1850 N   0  0  0  0  0  0  0  0  0  0  0  0
  139.3080   68.6720  226.1810 C   0  0  0  0  0  0  0  0  0  0  0  0
  139.5620   67.7790  227.2280 C   0  0  0  0  0  0  0  0  0  0  0  0
  139.0644   66.7982  227.2470 H   0  0  0  0  0  0  0  0  0  0  0  0
  140.4480   68.1330  228.2500 C   0  0  0  0  0  0  0  0  0  0  0  0
  140.6469   67.4309  229.0731 H   0  0  0  0  0  0  0  0  0  0  0  0
  141.0810   69.3790  228.2260 C   0  0  0  0  0  0  0  0  0  0  0  0
  141.7767   69.6565  229.0316 H   0  0  0  0  0  0  0  0  0  0  0  0
  140.8320   70.2740  227.1800 C   0  0  0  0  0  0  0  0  0  0  0  0
  141.3338   71.2527  227.1636 H   0  0  0  0  0  0  0  0  0  0  0  0
  139.9400   69.9240  226.1480 C   0  0  0  0  0  0  0  0  0  0  0  0
  139.6530   70.7850  225.0770 C   0  0  0  0  0  0  0  0  0  0  0  0
  140.2320   71.9070  225.0190 O   0  0  0  0  0  0  0  0  0  0  0  0
  138.7540   70.4160  224.0980 N   0  0  0  0  0  0  0  0  0  0  0  0
  138.4090   71.3930  223.0320 C   0  0  0  0  0  0  0  0  0  0  0  0
  137.4363   71.1093  222.6037 H   0  0  0  0  0  0  0  0  0  0  0  0
  138.3889   72.3866  223.5036 H   0  0  0  0  0  0  0  0  0  0  0  0
  139.4490   71.4610  221.8810 C   0  0  0  0  0  0  0  0  0  0  0  0
  138.8955   71.9218  221.0495 H   0  0  0  0  0  0  0  0  0  0  0  0
  139.9320   70.0750  221.4160 C   0  0  0  0  0  0  0  0  0  0  0  0
  140.5430   69.6261  222.2130 H   0  0  0  0  0  0  0  0  0  0  0  0
  139.0451   69.4611  221.2006 H   0  0  0  0  0  0  0  0  0  0  0  0
  140.7780   70.1590  220.1270 C   0  0  0  0  0  0  0  0  0  0  0  0
  141.5974   69.4289  220.2017 H   0  0  0  0  0  0  0  0  0  0  0  0
  140.1017   69.9481  219.2855 H   0  0  0  0  0  0  0  0  0  0  0  0
  141.3890   71.5510  219.8740 C   0  0  0  0  0  0  0  0  0  0  0  0
  142.2680   71.4421  219.2216 H   0  0  0  0  0  0  0  0  0  0  0  0
  140.6236   72.1821  219.3987 H   0  0  0  0  0  0  0  0  0  0  0  0
  141.8200   72.2220  221.1810 C   0  0  0  0  0  0  0  0  0  0  0  0
  142.6120   71.6141  221.6428 H   0  0  0  0  0  0  0  0  0  0  0  0
  142.1726   73.2336  220.9315 H   0  0  0  0  0  0  0  0  0  0  0  0
  140.6600   72.3720  222.1930 C   0  0  0  0  0  0  0  0  0  0  0  0
  141.0370   72.1195  223.1951 H   0  0  0  0  0  0  0  0  0  0  0  0
  140.3078   73.4122  222.1305 H   0  0  0  0  0  0  0  0  0  0  0  0
  135.2680   69.3460  224.3830 C   0  0  0  0  0  0  0  0  0  0  0  0
  134.6340   68.5390  225.3490 C   0  0  0  0  0  0  0  0  0  0  0  0
  134.6205   67.4458  225.2272 H   0  0  0  0  0  0  0  0  0  0  0  0
  134.0390   69.1080  226.4310 N   0  0  0  0  0  0  0  0  0  0  0  0
  134.0350   70.4520  226.6240 C   0  0  0  0  0  0  0  0  0  0  0  0
  133.5379   70.8796  227.5072 H   0  0  0  0  0  0  0  0  0  0  0  0
  134.6620   71.2910  225.7010 C   0  0  0  0  0  0  0  0  0  0  0  0
  134.6650   72.3804  225.8533 H   0  0  0  0  0  0  0  0  0  0  0  0
  135.2850   70.7340  224.5830 C   0  0  0  0  0  0  0  0  0  0  0  0
  135.7912   71.3862  223.8561 H   0  0  0  0  0  0  0  0  0  0  0  0
  1  2  1  0
  2  3  2  0
  3  4  1  0
  3  5  1  0
  5  6  2  0
  6  7  1  0
  7  8  2  0
  8  9  1  0
  8 10  1  0
 10 11  1  0
 10 12  2  0
 12 13  1  0
 12 14  1  0
 14 15  1  0
 14 16  2  0
 16 17  1  0
 17 18  2  0
 17 19  1  0
 19 20  1  0
 20 21  1  0
 20 22  1  0
 20 23  1  0
 23 24  1  0
 23 25  1  0
 25 26  1  0
 25 27  1  0
 25 28  1  0
 28 29  1  0
 28 30  1  0
 28 31  1  0
 31 32  1  0
 31 33  1  0
 31 34  1  0
 34 35  1  0
 34 36  1  0
 34 37  1  0
 37 38  1  0
 37 39  1  0
  2 40  1  0
 40 41  2  0
 41 42  1  0
 41 43  1  0
 43 44  2  0
 44 45  1  0
 44 46  1  0
 46 47  1  0
 46 48  2  0
 48 49  1  0
 19  5  1  0
 37 23  1  0
 48 40  1  0
 16  7  1  0
M  END
>  <UniqueID>  (51) 
25

>  <SMILES>  (51) 
O=c1c2ccccc2nc(/C=C/c2cccnc2)n1CC1CCCCC1

>  <Energy>  (51) 
68.50416612528228

>  <Genealogy>  (51) 
O=c1c2ccccc2nc(/C=C/c2cccnc2)n1CC1CCCCC1 (cis-trans isomerization)
O=c1c2ccccc2nc(/C=C/c2cccnc2)n1CC1CCCCC1 (3D coordinates assigned)
O=c1c2ccccc2nc(/C=C/c2cccnc2)n1CC1CCCCC1 (nonaromatic ring conformer: 68.50416612528228 kcal/mol)

>  <smiles>  (51) 
O=c1c2ccccc2nc(/C=C/c2cccnc2)n1CC1CCCCC1

>  <score_type>  (51) 
oracle

>  <origin>  (51) 
autodockgpu

>  <m_score__min__energy>  (51) 
-7.2300000000000004

>  <m_primary>  (51) 
energy

>  <meeko>  (51) 
{"free_energy": -6.68, "intermolecular_energy": -8.17, "internal_energy": -1.61, "cluster_size": 8, "cluster_id": 2, "rank_in_cluster": 8}

>  <energy>  (51) 
-6.94

>  <cluster_rmsd>  (51) 
0.22

>  <rmsd>  (51) 
269.16

>  <cluster>  (51) 
2

$$$$
XUFANRSCLZKORJ-OUKQBFOZNA-N
     RDKit          3D

 49 52  0  0  0  0  0  0  0  0999 V2000
  140.7959   70.7278  220.7624 H   0  0  0  0  0  0  0  0  0  0  0  0
  140.1830   71.3780  221.4040 C   0  0  0  0  0  0  0  0  0  0  0  0
  139.2140   70.8100  222.1380 C   0  0  0  0  0  0  0  0  0  0  0  0
  138.1966   70.7353  221.7265 H   0  0  0  0  0  0  0  0  0  0  0  0
  139.4930   70.2810  223.4960 C   0  0  0  0  0  0  0  0  0  0  0  0
  140.0100   71.1490  224.4070 N   0  0  0  0  0  0  0  0  0  0  0  0
  140.2670   70.7870  225.6820 C   0  0  0  0  0  0  0  0  0  0  0  0
  140.7980   71.7200  226.5810 C   0  0  0  0  0  0  0  0  0  0  0  0
  141.0185   72.7439  226.2449 H   0  0  0  0  0  0  0  0  0  0  0  0
  141.0480   71.3500  227.9060 C   0  0  0  0  0  0  0  0  0  0  0  0
  141.4668   72.0825  228.6117 H   0  0  0  0  0  0  0  0  0  0  0  0
  140.7660   70.0500  228.3340 C   0  0  0  0  0  0  0  0  0  0  0  0
  140.9635   69.7613  229.3769 H   0  0  0  0  0  0  0  0  0  0  0  0
  140.2330   69.1140  227.4400 C   0  0  0  0  0  0  0  0  0  0  0  0
  140.0117   68.0920  227.7813 H   0  0  0  0  0  0  0  0  0  0  0  0
  139.9800   69.4800  226.1040 C   0  0  0  0  0  0  0  0  0  0  0  0
  139.4480   68.5820  225.1650 C   0  0  0  0  0  0  0  0  0  0  0  0
  139.1610   67.4080  225.5340 O   0  0  0  0  0  0  0  0  0  0  0  0
  139.2370   68.9710  223.8590 N   0  0  0  0  0  0  0  0  0  0  0  0
  138.7590   67.9630  222.8760 C   0  0  0  0  0  0  0  0  0  0  0  0
  139.4128   68.0036  221.9924 H   0  0  0  0  0  0  0  0  0  0  0  0
  138.7904   66.9856  223.3796 H   0  0  0  0  0  0  0  0  0  0  0  0
  137.2940   68.1840  222.4110 C   0  0  0  0  0  0  0  0  0  0  0  0
  137.3878   68.8558  221.5450 H   0  0  0  0  0  0  0  0  0  0  0  0
  136.4230   68.8910  223.4650 C   0  0  0  0  0  0  0  0  0  0  0  0
  136.2651   68.2070  224.3119 H   0  0  0  0  0  0  0  0  0  0  0  0
  136.9484   69.8036  223.7830 H   0  0  0  0  0  0  0  0  0  0  0  0
  135.0480   69.3060  222.8960 C   0  0  0  0  0  0  0  0  0  0  0  0
  134.2882   69.1489  223.6757 H   0  0  0  0  0  0  0  0  0  0  0  0
  135.1306   70.3609  222.5954 H   0  0  0  0  0  0  0  0  0  0  0  0
  134.6290   68.5130  221.6420 C   0  0  0  0  0  0  0  0  0  0  0  0
  133.5339   68.5502  221.5453 H   0  0  0  0  0  0  0  0  0  0  0  0
  135.1158   68.9691  220.7674 H   0  0  0  0  0  0  0  0  0  0  0  0
  135.0710   67.0500  221.7280 C   0  0  0  0  0  0  0  0  0  0  0  0
  134.5585   66.5781  222.5793 H   0  0  0  0  0  0  0  0  0  0  0  0
  134.8083   66.5695  220.7740 H   0  0  0  0  0  0  0  0  0  0  0  0
  136.5980   66.8920  221.9220 C   0  0  0  0  0  0  0  0  0  0  0  0
  136.7747   66.0991  222.6636 H   0  0  0  0  0  0  0  0  0  0  0  0
  137.0257   66.6459  220.9389 H   0  0  0  0  0  0  0  0  0  0  0  0
  140.4750   72.8310  221.4080 C   0  0  0  0  0  0  0  0  0  0  0  0
  139.6110   73.7800  221.9920 C   0  0  0  0  0  0  0  0  0  0  0  0
  138.6700   73.4518  222.4577 H   0  0  0  0  0  0  0  0  0  0  0  0
  139.9380   75.1000  221.9810 N   0  0  0  0  0  0  0  0  0  0  0  0
  141.0910   75.5480  221.4210 C   0  0  0  0  0  0  0  0  0  0  0  0
  141.3213   76.6236  221.4230 H   0  0  0  0  0  0  0  0  0  0  0  0
  141.9840   74.6450  220.8430 C   0  0  0  0  0  0  0  0  0  0  0  0
  142.9209   75.0027  220.3910 H   0  0  0  0  0  0  0  0  0  0  0  0
  141.6770   73.2840  220.8440 C   0  0  0  0  0  0  0  0  0  0  0  0
  142.3801   72.5634  220.4009 H   0  0  0  0  0  0  0  0  0  0  0  0
  1  2  1  0
  2  3  2  0
  3  4  1  0
  3  5  1  0
  5  6  2  0
  6  7  1  0
  7  8  2  0
  8  9  1  0
  8 10  1  0
 10 11  1  0
 10 12  2  0
 12 13  1  0
 12 14  1  0
 14 15  1  0
 14 16  2  0
 16 17  1  0
 17 18  2  0
 17 19  1  0
 19 20  1  0
 20 21  1  0
 20 22  1  0
 20 23  1  0
 23 24  1  0
 23 25  1  0
 25 26  1  0
 25 27  1  0
 25 28  1  0
 28 29  1  0
 28 30  1  0
 28 31  1  0
 31 32  1  0
 31 33  1  0
 31 34  1  0
 34 35  1  0
 34 36  1  0
 34 37  1  0
 37 38  1  0
 37 39  1  0
  2 40  1  0
 40 41  2  0
 41 42  1  0
 41 43  1  0
 43 44  2  0
 44 45  1  0
 44 46  1  0
 46 47  1  0
 46 48  2  0
 48 49  1  0
 19  5  1  0
 37 23  1  0
 48 40  1  0
 16  7  1  0
M  END
>  <UniqueID>  (52) 
25

>  <SMILES>  (52) 
O=c1c2ccccc2nc(/C=C/c2cccnc2)n1CC1CCCCC1

>  <Energy>  (52) 
68.50416612528228

>  <Genealogy>  (52) 
O=c1c2ccccc2nc(/C=C/c2cccnc2)n1CC1CCCCC1 (cis-trans isomerization)
O=c1c2ccccc2nc(/C=C/c2cccnc2)n1CC1CCCCC1 (3D coordinates assigned)
O=c1c2ccccc2nc(/C=C/c2cccnc2)n1CC1CCCCC1 (nonaromatic ring conformer: 68.50416612528228 kcal/mol)

>  <smiles>  (52) 
O=c1c2ccccc2nc(/C=C/c2cccnc2)n1CC1CCCCC1

>  <score_type>  (52) 
oracle

>  <origin>  (52) 
autodockgpu

>  <m_score__min__energy>  (52) 
-7.2300000000000004

>  <m_primary>  (52) 
energy

>  <meeko>  (52) 
{"free_energy": -7.22, "intermolecular_energy": -8.71, "internal_energy": -1.23, "cluster_size": 5, "cluster_id": 1, "rank_in_cluster": 2}

>  <energy>  (52) 
-6.75

>  <cluster_rmsd>  (52) 
0.48

>  <rmsd>  (52) 
269.02

>  <cluster>  (52) 
2

$$$$
XUFANRSCLZKORJ-OUKQBFOZNA-N
     RDKit          3D

 49 52  0  0  0  0  0  0  0  0999 V2000
  135.3774   68.9644  222.2467 H   0  0  0  0  0  0  0  0  0  0  0  0
  135.9370   69.0210  223.1920 C   0  0  0  0  0  0  0  0  0  0  0  0
  137.2330   68.6750  223.1810 C   0  0  0  0  0  0  0  0  0  0  0  0
  137.6077   68.0064  222.3920 H   0  0  0  0  0  0  0  0  0  0  0  0
  138.1690   69.1790  224.2150 C   0  0  0  0  0  0  0  0  0  0  0  0
  138.4570   68.3470  225.2520 N   0  0  0  0  0  0  0  0  0  0  0  0
  139.3250   68.6870  226.2290 C   0  0  0  0  0  0  0  0  0  0  0  0
  139.5880   67.7930  227.2740 C   0  0  0  0  0  0  0  0  0  0  0  0
  139.0778   66.8190  227.3059 H   0  0  0  0  0  0  0  0  0  0  0  0
  140.4990   68.1380  228.2770 C   0  0  0  0  0  0  0  0  0  0  0  0
  140.7040   67.4360  229.0987 H   0  0  0  0  0  0  0  0  0  0  0  0
  141.1490   69.3740  228.2360 C   0  0  0  0  0  0  0  0  0  0  0  0
  141.8648   69.6437  229.0265 H   0  0  0  0  0  0  0  0  0  0  0  0
  140.8920   70.2700  227.1920 C   0  0  0  0  0  0  0  0  0  0  0  0
  141.4078   71.2411  227.1621 H   0  0  0  0  0  0  0  0  0  0  0  0
  139.9740   69.9300  226.1800 C   0  0  0  0  0  0  0  0  0  0  0  0
  139.6780   70.7920  225.1110 C   0  0  0  0  0  0  0  0  0  0  0  0
  140.2710   71.9050  225.0380 O   0  0  0  0  0  0  0  0  0  0  0  0
  138.7540   70.4320  224.1520 N   0  0  0  0  0  0  0  0  0  0  0  0
  138.4020   71.4100  223.0900 C   0  0  0  0  0  0  0  0  0  0  0  0
  137.4237   71.1303  222.6720 H   0  0  0  0  0  0  0  0  0  0  0  0
  138.3911   72.4036  223.5618 H   0  0  0  0  0  0  0  0  0  0  0  0
  139.4300   71.4740  221.9280 C   0  0  0  0  0  0  0  0  0  0  0  0
  138.8640   71.9180  221.0959 H   0  0  0  0  0  0  0  0  0  0  0  0
  139.9230   70.0870  221.4770 C   0  0  0  0  0  0  0  0  0  0  0  0
  140.5464   69.6553  222.2739 H   0  0  0  0  0  0  0  0  0  0  0  0
  139.0407   69.4607  221.2787 H   0  0  0  0  0  0  0  0  0  0  0  0
  140.7560   70.1630  220.1780 C   0  0  0  0  0  0  0  0  0  0  0  0
  141.5838   69.4426  220.2540 H   0  0  0  0  0  0  0  0  0  0  0  0
  140.0740   69.9339  219.3459 H   0  0  0  0  0  0  0  0  0  0  0  0
  141.3500   71.5590  219.9010 C   0  0  0  0  0  0  0  0  0  0  0  0
  142.2240   71.4509  219.2418 H   0  0  0  0  0  0  0  0  0  0  0  0
  140.5733   72.1755  219.4249 H   0  0  0  0  0  0  0  0  0  0  0  0
  141.7860   72.2520  221.1950 C   0  0  0  0  0  0  0  0  0  0  0  0
  142.5893   71.6592  221.6570 H   0  0  0  0  0  0  0  0  0  0  0  0
  142.1247   73.2642  220.9290 H   0  0  0  0  0  0  0  0  0  0  0  0
  140.6340   72.4020  222.2160 C   0  0  0  0  0  0  0  0  0  0  0  0
  141.0234   72.1666  223.2175 H   0  0  0  0  0  0  0  0  0  0  0  0
  140.2695   73.4373  222.1431 H   0  0  0  0  0  0  0  0  0  0  0  0
  135.2160   69.4750  224.4040 C   0  0  0  0  0  0  0  0  0  0  0  0
  134.6580   68.5800  225.3390 C   0  0  0  0  0  0  0  0  0  0  0  0
  134.7388   67.4953  225.1752 H   0  0  0  0  0  0  0  0  0  0  0  0
  134.0200   69.0530  226.4430 N   0  0  0  0  0  0  0  0  0  0  0  0
  133.9020   70.3830  226.6870 C   0  0  0  0  0  0  0  0  0  0  0  0
  133.3741   70.7321  227.5867 H   0  0  0  0  0  0  0  0  0  0  0  0
  134.4500   71.3080  225.7970 C   0  0  0  0  0  0  0  0  0  0  0  0
  134.3584   72.3869  225.9910 H   0  0  0  0  0  0  0  0  0  0  0  0
  135.1150   70.8510  224.6590 C   0  0  0  0  0  0  0  0  0  0  0  0
  135.5619   71.5722  223.9589 H   0  0  0  0  0  0  0  0  0  0  0  0
  1  2  1  0
  2  3  2  0
  3  4  1  0
  3  5  1  0
  5  6  2  0
  6  7  1  0
  7  8  2  0
  8  9  1  0
  8 10  1  0
 10 11  1  0
 10 12  2  0
 12 13  1  0
 12 14  1  0
 14 15  1  0
 14 16  2  0
 16 17  1  0
 17 18  2  0
 17 19  1  0
 19 20  1  0
 20 21  1  0
 20 22  1  0
 20 23  1  0
 23 24  1  0
 23 25  1  0
 25 26  1  0
 25 27  1  0
 25 28  1  0
 28 29  1  0
 28 30  1  0
 28 31  1  0
 31 32  1  0
 31 33  1  0
 31 34  1  0
 34 35  1  0
 34 36  1  0
 34 37  1  0
 37 38  1  0
 37 39  1  0
  2 40  1  0
 40 41  2  0
 41 42  1  0
 41 43  1  0
 43 44  2  0
 44 45  1  0
 44 46  1  0
 46 47  1  0
 46 48  2  0
 48 49  1  0
 19  5  1  0
 37 23  1  0
 48 40  1  0
 16  7  1  0
M  END
>  <UniqueID>  (53) 
25

>  <SMILES>  (53) 
O=c1c2ccccc2nc(/C=C/c2cccnc2)n1CC1CCCCC1

>  <Energy>  (53) 
68.50416612528228

>  <Genealogy>  (53) 
O=c1c2ccccc2nc(/C=C/c2cccnc2)n1CC1CCCCC1 (cis-trans isomerization)
O=c1c2ccccc2nc(/C=C/c2cccnc2)n1CC1CCCCC1 (3D coordinates assigned)
O=c1c2ccccc2nc(/C=C/c2cccnc2)n1CC1CCCCC1 (nonaromatic ring conformer: 68.50416612528228 kcal/mol)

>  <smiles>  (53) 
O=c1c2ccccc2nc(/C=C/c2cccnc2)n1CC1CCCCC1

>  <score_type>  (53) 
oracle

>  <origin>  (53) 
autodockgpu

>  <m_score__min__energy>  (53) 
-7.2300000000000004

>  <m_primary>  (53) 
energy

>  <meeko>  (53) 
{"free_energy": -6.75, "intermolecular_energy": -8.24, "internal_energy": -1.58, "cluster_size": 8, "cluster_id": 2, "rank_in_cluster": 7}

>  <energy>  (53) 
-6.68

>  <cluster_rmsd>  (53) 
0.53

>  <rmsd>  (53) 
268.99

>  <cluster>  (53) 
2

$$$$
XUFANRSCLZKORJ-OUKQBFOZNA-N
     RDKit          3D

 49 52  0  0  0  0  0  0  0  0999 V2000
  135.5744   69.4951  222.3117 H   0  0  0  0  0  0  0  0  0  0  0  0
  136.0310   69.3380  223.3000 C   0  0  0  0  0  0  0  0  0  0  0  0
  137.2700   68.8270  223.3500 C   0  0  0  0  0  0  0  0  0  0  0  0
  137.5648   68.0518  222.6274 H   0  0  0  0  0  0  0  0  0  0  0  0
  138.2500   69.2900  224.3640 C   0  0  0  0  0  0  0  0  0  0  0  0
  138.4990   68.4590  225.4120 N   0  0  0  0  0  0  0  0  0  0  0  0
  139.3990   68.7600  226.3730 C   0  0  0  0  0  0  0  0  0  0  0  0
  139.6190   67.8690  227.4300 C   0  0  0  0  0  0  0  0  0  0  0  0
  139.0495   66.9295  227.4855 H   0  0  0  0  0  0  0  0  0  0  0  0
  140.5630   68.1740  228.4150 C   0  0  0  0  0  0  0  0  0  0  0  0
  140.7360   67.4742  229.2459 H   0  0  0  0  0  0  0  0  0  0  0  0
  141.2870   69.3670  228.3450 C   0  0  0  0  0  0  0  0  0  0  0  0
  142.0282   69.6051  229.1221 H   0  0  0  0  0  0  0  0  0  0  0  0
  141.0720   70.2590  227.2900 C   0  0  0  0  0  0  0  0  0  0  0  0
  141.6455   71.1962  227.2381 H   0  0  0  0  0  0  0  0  0  0  0  0
  140.1230   69.9600  226.2940 C   0  0  0  0  0  0  0  0  0  0  0  0
  139.8660   70.8200  225.2150 C   0  0  0  0  0  0  0  0  0  0  0  0
  140.5260   71.8930  225.1150 O   0  0  0  0  0  0  0  0  0  0  0  0
  138.9100   70.5030  224.2730 N   0  0  0  0  0  0  0  0  0  0  0  0
  138.6050   71.4830  223.1980 C   0  0  0  0  0  0  0  0  0  0  0  0
  137.8957   71.0187  222.4970 H   0  0  0  0  0  0  0  0  0  0  0  0
  138.1904   72.3762  223.6882 H   0  0  0  0  0  0  0  0  0  0  0  0
  139.8520   71.9460  222.3970 C   0  0  0  0  0  0  0  0  0  0  0  0
  140.6585   71.9611  223.1449 H   0  0  0  0  0  0  0  0  0  0  0  0
  139.7110   73.3680  221.8240 C   0  0  0  0  0  0  0  0  0  0  0  0
  138.9530   73.3563  221.0270 H   0  0  0  0  0  0  0  0  0  0  0  0
  139.4145   74.0376  222.6448 H   0  0  0  0  0  0  0  0  0  0  0  0
  141.0420   73.8900  221.2390 C   0  0  0  0  0  0  0  0  0  0  0  0
  140.8185   74.4681  220.3302 H   0  0  0  0  0  0  0  0  0  0  0  0
  141.5177   74.5012  222.0202 H   0  0  0  0  0  0  0  0  0  0  0  0
  142.0400   72.7740  220.8720 C   0  0  0  0  0  0  0  0  0  0  0  0
  142.7413   73.1567  220.1159 H   0  0  0  0  0  0  0  0  0  0  0  0
  142.5730   72.4748  221.7865 H   0  0  0  0  0  0  0  0  0  0  0  0
  141.3260   71.5420  220.3090 C   0  0  0  0  0  0  0  0  0  0  0  0
  140.8214   71.8257  219.3737 H   0  0  0  0  0  0  0  0  0  0  0  0
  142.0877   70.7657  220.1441 H   0  0  0  0  0  0  0  0  0  0  0  0
  140.2730   70.9600  221.2810 C   0  0  0  0  0  0  0  0  0  0  0  0
  139.3784   70.6865  220.7023 H   0  0  0  0  0  0  0  0  0  0  0  0
  140.7328   70.0906  221.7737 H   0  0  0  0  0  0  0  0  0  0  0  0
  135.2420   69.7030  224.5000 C   0  0  0  0  0  0  0  0  0  0  0  0
  134.6940   68.7420  225.3730 C   0  0  0  0  0  0  0  0  0  0  0  0
  134.8346   67.6706  225.1671 H   0  0  0  0  0  0  0  0  0  0  0  0
  133.9920   69.1350  226.4690 N   0  0  0  0  0  0  0  0  0  0  0  0
  133.7960   70.4460  226.7630 C   0  0  0  0  0  0  0  0  0  0  0  0
  133.2163   70.7292  227.6539 H   0  0  0  0  0  0  0  0  0  0  0  0
  134.3300   71.4340  225.9350 C   0  0  0  0  0  0  0  0  0  0  0  0
  134.1764   72.4976  226.1696 H   0  0  0  0  0  0  0  0  0  0  0  0
  135.0610   71.0600  224.8060 C   0  0  0  0  0  0  0  0  0  0  0  0
  135.4964   71.8318  224.1543 H   0  0  0  0  0  0  0  0  0  0  0  0
  1  2  1  0
  2  3  2  0
  3  4  1  0
  3  5  1  0
  5  6  2  0
  6  7  1  0
  7  8  2  0
  8  9  1  0
  8 10  1  0
 10 11  1  0
 10 12  2  0
 12 13  1  0
 12 14  1  0
 14 15  1  0
 14 16  2  0
 16 17  1  0
 17 18  2  0
 17 19  1  0
 19 20  1  0
 20 21  1  0
 20 22  1  0
 20 23  1  0
 23 24  1  0
 23 25  1  0
 25 26  1  0
 25 27  1  0
 25 28  1  0
 28 29  1  0
 28 30  1  0
 28 31  1  0
 31 32  1  0
 31 33  1  0
 31 34  1  0
 34 35  1  0
 34 36  1  0
 34 37  1  0
 37 38  1  0
 37 39  1  0
  2 40  1  0
 40 41  2  0
 41 42  1  0
 41 43  1  0
 43 44  2  0
 44 45  1  0
 44 46  1  0
 46 47  1  0
 46 48  2  0
 48 49  1  0
 19  5  1  0
 37 23  1  0
 48 40  1  0
 16  7  1  0
M  END
>  <UniqueID>  (54) 
25

>  <SMILES>  (54) 
O=c1c2ccccc2nc(/C=C/c2cccnc2)n1CC1CCCCC1

>  <Energy>  (54) 
68.50416612528228

>  <Genealogy>  (54) 
O=c1c2ccccc2nc(/C=C/c2cccnc2)n1CC1CCCCC1 (cis-trans isomerization)
O=c1c2ccccc2nc(/C=C/c2cccnc2)n1CC1CCCCC1 (3D coordinates assigned)
O=c1c2ccccc2nc(/C=C/c2cccnc2)n1CC1CCCCC1 (nonaromatic ring conformer: 68.50416612528228 kcal/mol)

>  <smiles>  (54) 
O=c1c2ccccc2nc(/C=C/c2cccnc2)n1CC1CCCCC1

>  <score_type>  (54) 
oracle

>  <origin>  (54) 
autodockgpu

>  <m_score__min__energy>  (54) 
-7.2300000000000004

>  <m_primary>  (54) 
energy

>  <meeko>  (54) 
{"free_energy": -7.15, "intermolecular_energy": -8.64, "internal_energy": -1.35, "cluster_size": 8, "cluster_id": 2, "rank_in_cluster": 1}

>  <energy>  (54) 
-7.08

>  <cluster_rmsd>  (54) 
0.0

>  <rmsd>  (54) 
269.38

>  <cluster>  (54) 
3

$$$$
XUFANRSCLZKORJ-OUKQBFOZNA-N
     RDKit          3D

 49 52  0  0  0  0  0  0  0  0999 V2000
  137.6386   71.5392  221.3489 H   0  0  0  0  0  0  0  0  0  0  0  0
  138.6470   71.7630  221.7270 C   0  0  0  0  0  0  0  0  0  0  0  0
  139.4460   70.7340  222.0440 C   0  0  0  0  0  0  0  0  0  0  0  0
  139.9709   70.1906  221.2445 H   0  0  0  0  0  0  0  0  0  0  0  0
  139.6340   70.3160  223.4550 C   0  0  0  0  0  0  0  0  0  0  0  0
  140.2380   71.2040  224.2910 N   0  0  0  0  0  0  0  0  0  0  0  0
  140.4270   70.9460  225.6030 C   0  0  0  0  0  0  0  0  0  0  0  0
  141.0530   71.8940  226.4200 C   0  0  0  0  0  0  0  0  0  0  0  0
  141.4036   72.8441  225.9906 H   0  0  0  0  0  0  0  0  0  0  0  0
  141.2330   71.6340  227.7820 C   0  0  0  0  0  0  0  0  0  0  0  0
  141.7265   72.3788  228.4236 H   0  0  0  0  0  0  0  0  0  0  0  0
  140.7860   70.4280  228.3280 C   0  0  0  0  0  0  0  0  0  0  0  0
  140.9284   70.2251  229.3997 H   0  0  0  0  0  0  0  0  0  0  0  0
  140.1580   69.4780  227.5160 C   0  0  0  0  0  0  0  0  0  0  0  0
  139.8074   68.5301  227.9503 H   0  0  0  0  0  0  0  0  0  0  0  0
  139.9740   69.7330  226.1440 C   0  0  0  0  0  0  0  0  0  0  0  0
  139.3520   68.8140  225.2830 C   0  0  0  0  0  0  0  0  0  0  0  0
  138.9160   67.7270  225.7590 O   0  0  0  0  0  0  0  0  0  0  0  0
  139.2130   69.0900  223.9390 N   0  0  0  0  0  0  0  0  0  0  0  0
  138.6310   68.0530  223.0480 C   0  0  0  0  0  0  0  0  0  0  0  0
  139.2956   67.9292  222.1803 H   0  0  0  0  0  0  0  0  0  0  0  0
  138.5402   67.1335  223.6449 H   0  0  0  0  0  0  0  0  0  0  0  0
  137.2080   68.3960  222.5290 C   0  0  0  0  0  0  0  0  0  0  0  0
  137.3883   69.0938  221.6980 H   0  0  0  0  0  0  0  0  0  0  0  0
  136.3390   69.1210  223.5730 C   0  0  0  0  0  0  0  0  0  0  0  0
  136.0938   68.4169  224.3818 H   0  0  0  0  0  0  0  0  0  0  0  0
  136.9107   69.9803  223.9536 H   0  0  0  0  0  0  0  0  0  0  0  0
  135.0250   69.6550  222.9610 C   0  0  0  0  0  0  0  0  0  0  0  0
  134.2198   69.5224  223.6986 H   0  0  0  0  0  0  0  0  0  0  0  0
  135.1953   70.7121  222.7091 H   0  0  0  0  0  0  0  0  0  0  0  0
  134.6120   68.9440  221.6580 C   0  0  0  0  0  0  0  0  0  0  0  0
  133.5279   69.0629  221.5145 H   0  0  0  0  0  0  0  0  0  0  0  0
  135.1702   69.3982  220.8261 H   0  0  0  0  0  0  0  0  0  0  0  0
  134.9470   67.4500  221.7010 C   0  0  0  0  0  0  0  0  0  0  0  0
  134.3641   66.9828  222.5085 H   0  0  0  0  0  0  0  0  0  0  0  0
  134.6959   67.0273  220.7170 H   0  0  0  0  0  0  0  0  0  0  0  0
  136.4480   67.1760  221.9540 C   0  0  0  0  0  0  0  0  0  0  0  0
  136.5349   66.3433  222.6675 H   0  0  0  0  0  0  0  0  0  0  0  0
  136.9031   66.9394  220.9809 H   0  0  0  0  0  0  0  0  0  0  0  0
  139.0450   73.1850  221.8570 C   0  0  0  0  0  0  0  0  0  0  0  0
  140.3920   73.6010  221.8690 C   0  0  0  0  0  0  0  0  0  0  0  0
  141.1970   72.8553  221.7924 H   0  0  0  0  0  0  0  0  0  0  0  0
  140.6990   74.9220  221.9750 N   0  0  0  0  0  0  0  0  0  0  0  0
  139.7370   75.8760  222.0680 C   0  0  0  0  0  0  0  0  0  0  0  0
  140.0202   76.9349  222.1599 H   0  0  0  0  0  0  0  0  0  0  0  0
  138.3900   75.5140  222.0470 C   0  0  0  0  0  0  0  0  0  0  0  0
  137.6071   76.2833  222.1196 H   0  0  0  0  0  0  0  0  0  0  0  0
  138.0450   74.1660  221.9330 C   0  0  0  0  0  0  0  0  0  0  0  0
  136.9854   73.8721  221.9027 H   0  0  0  0  0  0  0  0  0  0  0  0
  1  2  1  0
  2  3  2  0
  3  4  1  0
  3  5  1  0
  5  6  2  0
  6  7  1  0
  7  8  2  0
  8  9  1  0
  8 10  1  0
 10 11  1  0
 10 12  2  0
 12 13  1  0
 12 14  1  0
 14 15  1  0
 14 16  2  0
 16 17  1  0
 17 18  2  0
 17 19  1  0
 19 20  1  0
 20 21  1  0
 20 22  1  0
 20 23  1  0
 23 24  1  0
 23 25  1  0
 25 26  1  0
 25 27  1  0
 25 28  1  0
 28 29  1  0
 28 30  1  0
 28 31  1  0
 31 32  1  0
 31 33  1  0
 31 34  1  0
 34 35  1  0
 34 36  1  0
 34 37  1  0
 37 38  1  0
 37 39  1  0
  2 40  1  0
 40 41  2  0
 41 42  1  0
 41 43  1  0
 43 44  2  0
 44 45  1  0
 44 46  1  0
 46 47  1  0
 46 48  2  0
 48 49  1  0
 19  5  1  0
 37 23  1  0
 48 40  1  0
 16  7  1  0
M  END
>  <UniqueID>  (55) 
25

>  <SMILES>  (55) 
O=c1c2ccccc2nc(/C=C/c2cccnc2)n1CC1CCCCC1

>  <Energy>  (55) 
68.50416612528228

>  <Genealogy>  (55) 
O=c1c2ccccc2nc(/C=C/c2cccnc2)n1CC1CCCCC1 (cis-trans isomerization)
O=c1c2ccccc2nc(/C=C/c2cccnc2)n1CC1CCCCC1 (3D coordinates assigned)
O=c1c2ccccc2nc(/C=C/c2cccnc2)n1CC1CCCCC1 (nonaromatic ring conformer: 68.50416612528228 kcal/mol)

>  <smiles>  (55) 
O=c1c2ccccc2nc(/C=C/c2cccnc2)n1CC1CCCCC1

>  <score_type>  (55) 
oracle

>  <origin>  (55) 
autodockgpu

>  <m_score__min__energy>  (55) 
-7.2300000000000004

>  <m_primary>  (55) 
energy

>  <meeko>  (55) 
{"free_energy": -6.94, "intermolecular_energy": -8.43, "internal_energy": -1.42, "cluster_size": 5, "cluster_id": 1, "rank_in_cluster": 5}

>  <energy>  (55) 
-6.94

>  <cluster_rmsd>  (55) 
0.38

>  <rmsd>  (55) 
269.4

>  <cluster>  (55) 
3

$$$$
XUFANRSCLZKORJ-OUKQBFOZNA-N
     RDKit          3D

 49 52  0  0  0  0  0  0  0  0999 V2000
  142.2202   71.6351  219.3034 H   0  0  0  0  0  0  0  0  0  0  0  0
  142.6510   72.0260  220.2370 C   0  0  0  0  0  0  0  0  0  0  0  0
  141.9120   71.9510  221.3540 C   0  0  0  0  0  0  0  0  0  0  0  0
  142.0949   71.1360  222.0698 H   0  0  0  0  0  0  0  0  0  0  0  0
  140.8520   72.9490  221.6400 C   0  0  0  0  0  0  0  0  0  0  0  0
  141.2050   74.2620  221.5940 N   0  0  0  0  0  0  0  0  0  0  0  0
  140.3140   75.2550  221.7990 C   0  0  0  0  0  0  0  0  0  0  0  0
  140.7280   76.5910  221.7390 C   0  0  0  0  0  0  0  0  0  0  0  0
  141.7824   76.8313  221.5375 H   0  0  0  0  0  0  0  0  0  0  0  0
  139.8020   77.6200  221.9350 C   0  0  0  0  0  0  0  0  0  0  0  0
  140.1284   78.6694  221.8885 H   0  0  0  0  0  0  0  0  0  0  0  0
  138.4620   77.3160  222.1900 C   0  0  0  0  0  0  0  0  0  0  0  0
  137.7354   78.1272  222.3448 H   0  0  0  0  0  0  0  0  0  0  0  0
  138.0420   75.9820  222.2490 C   0  0  0  0  0  0  0  0  0  0  0  0
  136.9862   75.7466  222.4486 H   0  0  0  0  0  0  0  0  0  0  0  0
  138.9700   74.9410  222.0530 C   0  0  0  0  0  0  0  0  0  0  0  0
  138.6030   73.5860  222.1030 C   0  0  0  0  0  0  0  0  0  0  0  0
  137.3930   73.2860  222.3070 O   0  0  0  0  0  0  0  0  0  0  0  0
  139.5460   72.5950  221.9310 N   0  0  0  0  0  0  0  0  0  0  0  0
  139.1340   71.1750  222.0830 C   0  0  0  0  0  0  0  0  0  0  0  0
  138.0374   71.1234  222.0135 H   0  0  0  0  0  0  0  0  0  0  0  0
  139.6355   70.6102  221.2833 H   0  0  0  0  0  0  0  0  0  0  0  0
  139.5690   70.5330  223.4280 C   0  0  0  0  0  0  0  0  0  0  0  0
  140.2976   69.7637  223.1325 H   0  0  0  0  0  0  0  0  0  0  0  0
  138.4160   69.8310  224.1670 C   0  0  0  0  0  0  0  0  0  0  0  0
  137.7090   70.5929  224.5271 H   0  0  0  0  0  0  0  0  0  0  0  0
  137.9313   69.1400  223.4616 H   0  0  0  0  0  0  0  0  0  0  0  0
  138.9180   69.0070  225.3730 C   0  0  0  0  0  0  0  0  0  0  0  0
  138.1889   69.1090  226.1903 H   0  0  0  0  0  0  0  0  0  0  0  0
  139.0226   67.9673  225.0294 H   0  0  0  0  0  0  0  0  0  0  0  0
  140.2990   69.4480  225.8960 C   0  0  0  0  0  0  0  0  0  0  0  0
  140.4005   69.1342  226.9454 H   0  0  0  0  0  0  0  0  0  0  0  0
  141.0712   68.9774  225.2697 H   0  0  0  0  0  0  0  0  0  0  0  0
  140.4730   70.9680  225.8120 C   0  0  0  0  0  0  0  0  0  0  0  0
  139.7272   71.4432  226.4663 H   0  0  0  0  0  0  0  0  0  0  0  0
  141.5013   71.2000  226.1265 H   0  0  0  0  0  0  0  0  0  0  0  0
  140.2920   71.5170  224.3780 C   0  0  0  0  0  0  0  0  0  0  0  0
  139.7037   72.4449  224.4319 H   0  0  0  0  0  0  0  0  0  0  0  0
  141.2981   71.6848  223.9660 H   0  0  0  0  0  0  0  0  0  0  0  0
  144.0140   72.6050  220.1880 C   0  0  0  0  0  0  0  0  0  0  0  0
  145.0770   71.9940  219.4910 C   0  0  0  0  0  0  0  0  0  0  0  0
  144.9125   71.0419  218.9652 H   0  0  0  0  0  0  0  0  0  0  0  0
  146.3040   72.5780  219.4670 N   0  0  0  0  0  0  0  0  0  0  0  0
  146.5510   73.7550  220.0980 C   0  0  0  0  0  0  0  0  0  0  0  0
  147.5578   74.1968  220.0638 H   0  0  0  0  0  0  0  0  0  0  0  0
  145.5270   74.4040  220.7900 C   0  0  0  0  0  0  0  0  0  0  0  0
  145.7205   75.3586  221.3012 H   0  0  0  0  0  0  0  0  0  0  0  0
  144.2550   73.8300  220.8270 C   0  0  0  0  0  0  0  0  0  0  0  0
  143.4388   74.3403  221.3593 H   0  0  0  0  0  0  0  0  0  0  0  0
  1  2  1  0
  2  3  2  0
  3  4  1  0
  3  5  1  0
  5  6  2  0
  6  7  1  0
  7  8  2  0
  8  9  1  0
  8 10  1  0
 10 11  1  0
 10 12  2  0
 12 13  1  0
 12 14  1  0
 14 15  1  0
 14 16  2  0
 16 17  1  0
 17 18  2  0
 17 19  1  0
 19 20  1  0
 20 21  1  0
 20 22  1  0
 20 23  1  0
 23 24  1  0
 23 25  1  0
 25 26  1  0
 25 27  1  0
 25 28  1  0
 28 29  1  0
 28 30  1  0
 28 31  1  0
 31 32  1  0
 31 33  1  0
 31 34  1  0
 34 35  1  0
 34 36  1  0
 34 37  1  0
 37 38  1  0
 37 39  1  0
  2 40  1  0
 40 41  2  0
 41 42  1  0
 41 43  1  0
 43 44  2  0
 44 45  1  0
 44 46  1  0
 46 47  1  0
 46 48  2  0
 48 49  1  0
 19  5  1  0
 37 23  1  0
 48 40  1  0
 16  7  1  0
M  END
>  <UniqueID>  (56) 
25

>  <SMILES>  (56) 
O=c1c2ccccc2nc(/C=C/c2cccnc2)n1CC1CCCCC1

>  <Energy>  (56) 
68.50416612528228

>  <Genealogy>  (56) 
O=c1c2ccccc2nc(/C=C/c2cccnc2)n1CC1CCCCC1 (cis-trans isomerization)
O=c1c2ccccc2nc(/C=C/c2cccnc2)n1CC1CCCCC1 (3D coordinates assigned)
O=c1c2ccccc2nc(/C=C/c2cccnc2)n1CC1CCCCC1 (nonaromatic ring conformer: 68.50416612528228 kcal/mol)

>  <smiles>  (56) 
O=c1c2ccccc2nc(/C=C/c2cccnc2)n1CC1CCCCC1

>  <score_type>  (56) 
oracle

>  <origin>  (56) 
autodockgpu

>  <m_score__min__energy>  (56) 
-7.2300000000000004

>  <m_primary>  (56) 
energy

>  <meeko>  (56) 
{"free_energy": -7.03, "intermolecular_energy": -8.53, "internal_energy": -1.24, "cluster_size": 1, "cluster_id": 4, "rank_in_cluster": 1}

>  <energy>  (56) 
-7.03

>  <cluster_rmsd>  (56) 
0.0

>  <rmsd>  (56) 
269.15

>  <cluster>  (56) 
4

$$$$
XUFANRSCLZKORJ-OUKQBFOZNA-N
     RDKit          3D

 49 52  0  0  0  0  0  0  0  0999 V2000
  140.7036   70.7425  220.7182 H   0  0  0  0  0  0  0  0  0  0  0  0
  140.1430   71.4010  221.3980 C   0  0  0  0  0  0  0  0  0  0  0  0
  139.1940   70.8520  222.1710 C   0  0  0  0  0  0  0  0  0  0  0  0
  138.1655   70.7714  221.7894 H   0  0  0  0  0  0  0  0  0  0  0  0
  139.5080   70.3520  223.5310 C   0  0  0  0  0  0  0  0  0  0  0  0
  140.0490   71.2390  224.4100 N   0  0  0  0  0  0  0  0  0  0  0  0
  140.3390   70.9040  225.6850 C   0  0  0  0  0  0  0  0  0  0  0  0
  140.8940   71.8550  226.5500 C   0  0  0  0  0  0  0  0  0  0  0  0
  141.1058   72.8715  226.1867 H   0  0  0  0  0  0  0  0  0  0  0  0
  141.1790   71.5130  227.8750 C   0  0  0  0  0  0  0  0  0  0  0  0
  141.6162   72.2602  228.5536 H   0  0  0  0  0  0  0  0  0  0  0  0
  140.9090   70.2230  228.3380 C   0  0  0  0  0  0  0  0  0  0  0  0
  141.1349   69.9563  229.3810 H   0  0  0  0  0  0  0  0  0  0  0  0
  140.3520   69.2690  227.4790 C   0  0  0  0  0  0  0  0  0  0  0  0
  140.1389   68.2550  227.8482 H   0  0  0  0  0  0  0  0  0  0  0  0
  140.0640   69.6060  226.1420 C   0  0  0  0  0  0  0  0  0  0  0  0
  139.5070   68.6880  225.2380 C   0  0  0  0  0  0  0  0  0  0  0  0
  139.2300   67.5230  225.6390 O   0  0  0  0  0  0  0  0  0  0  0  0
  139.2620   69.0500  223.9290 N   0  0  0  0  0  0  0  0  0  0  0  0
  138.7580   68.0220  222.9810 C   0  0  0  0  0  0  0  0  0  0  0  0
  139.2900   68.1414  222.0256 H   0  0  0  0  0  0  0  0  0  0  0  0
  138.9402   67.0420  223.4461 H   0  0  0  0  0  0  0  0  0  0  0  0
  137.2320   68.1140  222.7060 C   0  0  0  0  0  0  0  0  0  0  0  0
  136.8582   67.1050  222.9347 H   0  0  0  0  0  0  0  0  0  0  0  0
  136.8990   68.4200  221.2340 C   0  0  0  0  0  0  0  0  0  0  0  0
  137.2076   69.4511  221.0068 H   0  0  0  0  0  0  0  0  0  0  0  0
  137.4385   67.6961  220.6056 H   0  0  0  0  0  0  0  0  0  0  0  0
  135.3890   68.2750  220.9410 C   0  0  0  0  0  0  0  0  0  0  0  0
  135.0939   69.0694  220.2397 H   0  0  0  0  0  0  0  0  0  0  0  0
  135.2387   67.2683  220.5240 H   0  0  0  0  0  0  0  0  0  0  0  0
  134.4990   68.3790  222.1960 C   0  0  0  0  0  0  0  0  0  0  0  0
  133.4855   68.6789  221.8913 H   0  0  0  0  0  0  0  0  0  0  0  0
  134.4852   67.3968  222.6910 H   0  0  0  0  0  0  0  0  0  0  0  0
  135.0450   69.4090  223.1890 C   0  0  0  0  0  0  0  0  0  0  0  0
  135.0269   70.4001  222.7121 H   0  0  0  0  0  0  0  0  0  0  0  0
  134.4075   69.3738  224.0848 H   0  0  0  0  0  0  0  0  0  0  0  0
  136.4930   69.1040  223.6380 C   0  0  0  0  0  0  0  0  0  0  0  0
  137.0569   70.0482  223.6605 H   0  0  0  0  0  0  0  0  0  0  0  0
  136.4319   68.6313  224.6294 H   0  0  0  0  0  0  0  0  0  0  0  0
  140.4790   72.8450  221.4080 C   0  0  0  0  0  0  0  0  0  0  0  0
  139.6430   73.8180  221.9920 C   0  0  0  0  0  0  0  0  0  0  0  0
  138.6908   73.5177  222.4536 H   0  0  0  0  0  0  0  0  0  0  0  0
  140.0110   75.1270  221.9860 N   0  0  0  0  0  0  0  0  0  0  0  0
  141.1780   75.5420  221.4310 C   0  0  0  0  0  0  0  0  0  0  0  0
  141.4408   76.6101  221.4373 H   0  0  0  0  0  0  0  0  0  0  0  0
  142.0450   74.6130  220.8520 C   0  0  0  0  0  0  0  0  0  0  0  0
  142.9934   74.9429  220.4029 H   0  0  0  0  0  0  0  0  0  0  0  0
  141.6960   73.2620  220.8490 C   0  0  0  0  0  0  0  0  0  0  0  0
  142.3780   72.5210  220.4065 H   0  0  0  0  0  0  0  0  0  0  0  0
  1  2  1  0
  2  3  2  0
  3  4  1  0
  3  5  1  0
  5  6  2  0
  6  7  1  0
  7  8  2  0
  8  9  1  0
  8 10  1  0
 10 11  1  0
 10 12  2  0
 12 13  1  0
 12 14  1  0
 14 15  1  0
 14 16  2  0
 16 17  1  0
 17 18  2  0
 17 19  1  0
 19 20  1  0
 20 21  1  0
 20 22  1  0
 20 23  1  0
 23 24  1  0
 23 25  1  0
 25 26  1  0
 25 27  1  0
 25 28  1  0
 28 29  1  0
 28 30  1  0
 28 31  1  0
 31 32  1  0
 31 33  1  0
 31 34  1  0
 34 35  1  0
 34 36  1  0
 34 37  1  0
 37 38  1  0
 37 39  1  0
  2 40  1  0
 40 41  2  0
 41 42  1  0
 41 43  1  0
 43 44  2  0
 44 45  1  0
 44 46  1  0
 46 47  1  0
 46 48  2  0
 48 49  1  0
 19  5  1  0
 37 23  1  0
 48 40  1  0
 16  7  1  0
M  END
>  <UniqueID>  (57) 
25

>  <SMILES>  (57) 
O=c1c2ccccc2nc(/C=C/c2cccnc2)n1CC1CCCCC1

>  <Energy>  (57) 
68.50416612528228

>  <Genealogy>  (57) 
O=c1c2ccccc2nc(/C=C/c2cccnc2)n1CC1CCCCC1 (cis-trans isomerization)
O=c1c2ccccc2nc(/C=C/c2cccnc2)n1CC1CCCCC1 (3D coordinates assigned)
O=c1c2ccccc2nc(/C=C/c2cccnc2)n1CC1CCCCC1 (nonaromatic ring conformer: 68.50416612528228 kcal/mol)

>  <smiles>  (57) 
O=c1c2ccccc2nc(/C=C/c2cccnc2)n1CC1CCCCC1

>  <score_type>  (57) 
oracle

>  <origin>  (57) 
autodockgpu

>  <m_score__min__energy>  (57) 
-7.2300000000000004

>  <m_primary>  (57) 
energy

>  <meeko>  (57) 
{"free_energy": -7.13, "intermolecular_energy": -8.63, "internal_energy": -1.31, "cluster_size": 5, "cluster_id": 1, "rank_in_cluster": 3}

>  <energy>  (57) 
-7.02

>  <cluster_rmsd>  (57) 
0.0

>  <rmsd>  (57) 
269.12

>  <cluster>  (57) 
5

$$$$
XUFANRSCLZKORJ-OUKQBFOZNA-N
     RDKit          3D

 49 52  0  0  0  0  0  0  0  0999 V2000
  134.8786   70.1322  223.4033 H   0  0  0  0  0  0  0  0  0  0  0  0
  135.4440   70.6410  224.1980 C   0  0  0  0  0  0  0  0  0  0  0  0
  136.7830   70.5690  224.1670 C   0  0  0  0  0  0  0  0  0  0  0  0
  137.2946   69.7677  224.7203 H   0  0  0  0  0  0  0  0  0  0  0  0
  137.5850   71.5520  223.3990 C   0  0  0  0  0  0  0  0  0  0  0  0
  136.9040   72.5070  222.7100 N   0  0  0  0  0  0  0  0  0  0  0  0
  137.5310   73.4760  222.0080 C   0  0  0  0  0  0  0  0  0  0  0  0
  136.7830   74.4360  221.3170 C   0  0  0  0  0  0  0  0  0  0  0  0
  135.6839   74.3944  221.3348 H   0  0  0  0  0  0  0  0  0  0  0  0
  137.4330   75.4480  220.6040 C   0  0  0  0  0  0  0  0  0  0  0  0
  136.8448   76.2016  220.0599 H   0  0  0  0  0  0  0  0  0  0  0  0
  138.8290   75.5030  220.5820 C   0  0  0  0  0  0  0  0  0  0  0  0
  139.3376   76.3001  220.0199 H   0  0  0  0  0  0  0  0  0  0  0  0
  139.5820   74.5470  221.2730 C   0  0  0  0  0  0  0  0  0  0  0  0
  140.6808   74.5943  221.2547 H   0  0  0  0  0  0  0  0  0  0  0  0
  138.9330   73.5240  221.9920 C   0  0  0  0  0  0  0  0  0  0  0  0
  139.6390   72.5380  222.7010 C   0  0  0  0  0  0  0  0  0  0  0  0
  140.9020   72.5810  222.7180 O   0  0  0  0  0  0  0  0  0  0  0  0
  138.9680   71.5380  223.3730 N   0  0  0  0  0  0  0  0  0  0  0  0
  139.7540   70.4630  224.0340 C   0  0  0  0  0  0  0  0  0  0  0  0
  139.2587   69.5008  223.8369 H   0  0  0  0  0  0  0  0  0  0  0  0
  140.7707   70.5082  223.6165 H   0  0  0  0  0  0  0  0  0  0  0  0
  139.8900   70.6370  225.5710 C   0  0  0  0  0  0  0  0  0  0  0  0
  138.9666   71.1589  225.8624 H   0  0  0  0  0  0  0  0  0  0  0  0
  141.0820   71.5220  225.9780 C   0  0  0  0  0  0  0  0  0  0  0  0
  142.0156   70.9854  225.7534 H   0  0  0  0  0  0  0  0  0  0  0  0
  141.0166   72.4619  225.4103 H   0  0  0  0  0  0  0  0  0  0  0  0
  141.0570   71.8710  227.4830 C   0  0  0  0  0  0  0  0  0  0  0  0
  142.0905   71.8578  227.8595 H   0  0  0  0  0  0  0  0  0  0  0  0
  140.5888   72.8621  227.5748 H   0  0  0  0  0  0  0  0  0  0  0  0
  140.2170   70.8960  228.3330 C   0  0  0  0  0  0  0  0  0  0  0  0
  140.5647   70.9403  229.3756 H   0  0  0  0  0  0  0  0  0  0  0  0
  139.1612   71.1956  228.2587 H   0  0  0  0  0  0  0  0  0  0  0  0
  140.3440   69.4560  227.8270 C   0  0  0  0  0  0  0  0  0  0  0  0
  141.3916   69.1380  227.9334 H   0  0  0  0  0  0  0  0  0  0  0  0
  139.6636   68.8346  228.4278 H   0  0  0  0  0  0  0  0  0  0  0  0
  139.9290   69.2980  226.3460 C   0  0  0  0  0  0  0  0  0  0  0  0
  140.6497   68.6301  225.8515 H   0  0  0  0  0  0  0  0  0  0  0  0
  138.9080   68.8886  226.3374 H   0  0  0  0  0  0  0  0  0  0  0  0
  134.6830   71.3670  225.2420 C   0  0  0  0  0  0  0  0  0  0  0  0
  134.6400   72.7740  225.3140 C   0  0  0  0  0  0  0  0  0  0  0  0
  135.1981   73.3775  224.5830 H   0  0  0  0  0  0  0  0  0  0  0  0
  133.9110   73.3880  226.2840 N   0  0  0  0  0  0  0  0  0  0  0  0
  133.2060   72.6830  227.2050 C   0  0  0  0  0  0  0  0  0  0  0  0
  132.6345   73.2114  227.9823 H   0  0  0  0  0  0  0  0  0  0  0  0
  133.2060   71.2870  227.1660 C   0  0  0  0  0  0  0  0  0  0  0  0
  132.6324   70.7105  227.9067 H   0  0  0  0  0  0  0  0  0  0  0  0
  133.9410   70.6310  226.1780 C   0  0  0  0  0  0  0  0  0  0  0  0
  133.9387   69.5319  226.1327 H   0  0  0  0  0  0  0  0  0  0  0  0
  1  2  1  0
  2  3  2  0
  3  4  1  0
  3  5  1  0
  5  6  2  0
  6  7  1  0
  7  8  2  0
  8  9  1  0
  8 10  1  0
 10 11  1  0
 10 12  2  0
 12 13  1  0
 12 14  1  0
 14 15  1  0
 14 16  2  0
 16 17  1  0
 17 18  2  0
 17 19  1  0
 19 20  1  0
 20 21  1  0
 20 22  1  0
 20 23  1  0
 23 24  1  0
 23 25  1  0
 25 26  1  0
 25 27  1  0
 25 28  1  0
 28 29  1  0
 28 30  1  0
 28 31  1  0
 31 32  1  0
 31 33  1  0
 31 34  1  0
 34 35  1  0
 34 36  1  0
 34 37  1  0
 37 38  1  0
 37 39  1  0
  2 40  1  0
 40 41  2  0
 41 42  1  0
 41 43  1  0
 43 44  2  0
 44 45  1  0
 44 46  1  0
 46 47  1  0
 46 48  2  0
 48 49  1  0
 19  5  1  0
 37 23  1  0
 48 40  1  0
 16  7  1  0
M  END
>  <UniqueID>  (58) 
25

>  <SMILES>  (58) 
O=c1c2ccccc2nc(/C=C/c2cccnc2)n1CC1CCCCC1

>  <Energy>  (58) 
68.50416612528228

>  <Genealogy>  (58) 
O=c1c2ccccc2nc(/C=C/c2cccnc2)n1CC1CCCCC1 (cis-trans isomerization)
O=c1c2ccccc2nc(/C=C/c2cccnc2)n1CC1CCCCC1 (3D coordinates assigned)
O=c1c2ccccc2nc(/C=C/c2cccnc2)n1CC1CCCCC1 (nonaromatic ring conformer: 68.50416612528228 kcal/mol)

>  <smiles>  (58) 
O=c1c2ccccc2nc(/C=C/c2cccnc2)n1CC1CCCCC1

>  <score_type>  (58) 
oracle

>  <origin>  (58) 
autodockgpu

>  <m_score__min__energy>  (58) 
-7.2300000000000004

>  <m_primary>  (58) 
energy

>  <meeko>  (58) 
{"free_energy": -7.02, "intermolecular_energy": -8.52, "internal_energy": -1.23, "cluster_size": 1, "cluster_id": 5, "rank_in_cluster": 1}

>  <energy>  (58) 
-6.85

>  <cluster_rmsd>  (58) 
0.0

>  <rmsd>  (58) 
269.49

>  <cluster>  (58) 
6

$$$$
XUFANRSCLZKORJ-OUKQBFOZNA-N
     RDKit          3D

 49 52  0  0  0  0  0  0  0  0999 V2000
  137.3480   71.6070  221.7296 H   0  0  0  0  0  0  0  0  0  0  0  0
  138.4180   71.7610  221.9330 C   0  0  0  0  0  0  0  0  0  0  0  0
  139.1830   70.6800  222.1440 C   0  0  0  0  0  0  0  0  0  0  0  0
  139.5933   70.1313  221.2834 H   0  0  0  0  0  0  0  0  0  0  0  0
  139.4850   70.2120  223.5190 C   0  0  0  0  0  0  0  0  0  0  0  0
  140.0100   71.1210  224.3840 N   0  0  0  0  0  0  0  0  0  0  0  0
  140.2880   70.8160  225.6700 C   0  0  0  0  0  0  0  0  0  0  0  0
  140.8260   71.7890  226.5200 C   0  0  0  0  0  0  0  0  0  0  0  0
  141.0347   72.7990  226.1375 H   0  0  0  0  0  0  0  0  0  0  0  0
  141.0980   71.4770  227.8550 C   0  0  0  0  0  0  0  0  0  0  0  0
  141.5227   72.2414  228.5223 H   0  0  0  0  0  0  0  0  0  0  0  0
  140.8310   70.1950  228.3430 C   0  0  0  0  0  0  0  0  0  0  0  0
  141.0460   69.9522  229.3941 H   0  0  0  0  0  0  0  0  0  0  0  0
  140.2910   69.2200  227.4980 C   0  0  0  0  0  0  0  0  0  0  0  0
  140.0816   68.2122  227.8860 H   0  0  0  0  0  0  0  0  0  0  0  0
  140.0150   69.5260  226.1520 C   0  0  0  0  0  0  0  0  0  0  0  0
  139.4750   68.5850  225.2600 C   0  0  0  0  0  0  0  0  0  0  0  0
  139.2010   67.4270  225.6840 O   0  0  0  0  0  0  0  0  0  0  0  0
  139.2430   68.9170  223.9420 N   0  0  0  0  0  0  0  0  0  0  0  0
  138.7560   67.8650  223.0100 C   0  0  0  0  0  0  0  0  0  0  0  0
  139.3421   67.9267  222.0812 H   0  0  0  0  0  0  0  0  0  0  0  0
  138.8800   66.9005  223.5241 H   0  0  0  0  0  0  0  0  0  0  0  0
  137.2510   67.9930  222.6480 C   0  0  0  0  0  0  0  0  0  0  0  0
  136.8508   66.9809  222.8075 H   0  0  0  0  0  0  0  0  0  0  0  0
  137.0120   68.3690  221.1740 C   0  0  0  0  0  0  0  0  0  0  0  0
  137.3466   69.4044  221.0127 H   0  0  0  0  0  0  0  0  0  0  0  0
  137.5797   67.6655  220.5472 H   0  0  0  0  0  0  0  0  0  0  0  0
  135.5210   68.2600  220.7840 C   0  0  0  0  0  0  0  0  0  0  0  0
  135.2791   69.0890  220.1026 H   0  0  0  0  0  0  0  0  0  0  0  0
  135.3838   67.2751  220.3137 H   0  0  0  0  0  0  0  0  0  0  0  0
  134.5580   68.3220  221.9860 C   0  0  0  0  0  0  0  0  0  0  0  0
  133.5687   68.6503  221.6345 H   0  0  0  0  0  0  0  0  0  0  0  0
  134.5022   67.3192  222.4346 H   0  0  0  0  0  0  0  0  0  0  0  0
  135.0550   69.2990  223.0560 C   0  0  0  0  0  0  0  0  0  0  0  0
  135.0785   70.3104  222.6240 H   0  0  0  0  0  0  0  0  0  0  0  0
  134.3634   69.2341  223.9090 H   0  0  0  0  0  0  0  0  0  0  0  0
  136.4700   68.9520  223.5780 C   0  0  0  0  0  0  0  0  0  0  0  0
  137.0435   69.8854  223.6770 H   0  0  0  0  0  0  0  0  0  0  0  0
  136.3430   68.4373  224.5418 H   0  0  0  0  0  0  0  0  0  0  0  0
  138.9310   73.1510  221.9580 C   0  0  0  0  0  0  0  0  0  0  0  0
  140.3070   73.4550  221.9600 C   0  0  0  0  0  0  0  0  0  0  0  0
  141.0483   72.6423  221.9559 H   0  0  0  0  0  0  0  0  0  0  0  0
  140.7210   74.7510  221.9670 N   0  0  0  0  0  0  0  0  0  0  0  0
  139.8420   75.7850  221.9680 C   0  0  0  0  0  0  0  0  0  0  0  0
  140.2116   76.8210  221.9814 H   0  0  0  0  0  0  0  0  0  0  0  0
  138.4690   75.5340  221.9520 C   0  0  0  0  0  0  0  0  0  0  0  0
  137.7518   76.3681  221.9496 H   0  0  0  0  0  0  0  0  0  0  0  0
  138.0150   74.2140  221.9390 C   0  0  0  0  0  0  0  0  0  0  0  0
  136.9351   74.0063  221.9138 H   0  0  0  0  0  0  0  0  0  0  0  0
  1  2  1  0
  2  3  2  0
  3  4  1  0
  3  5  1  0
  5  6  2  0
  6  7  1  0
  7  8  2  0
  8  9  1  0
  8 10  1  0
 10 11  1  0
 10 12  2  0
 12 13  1  0
 12 14  1  0
 14 15  1  0
 14 16  2  0
 16 17  1  0
 17 18  2  0
 17 19  1  0
 19 20  1  0
 20 21  1  0
 20 22  1  0
 20 23  1  0
 23 24  1  0
 23 25  1  0
 25 26  1  0
 25 27  1  0
 25 28  1  0
 28 29  1  0
 28 30  1  0
 28 31  1  0
 31 32  1  0
 31 33  1  0
 31 34  1  0
 34 35  1  0
 34 36  1  0
 34 37  1  0
 37 38  1  0
 37 39  1  0
  2 40  1  0
 40 41  2  0
 41 42  1  0
 41 43  1  0
 43 44  2  0
 44 45  1  0
 44 46  1  0
 46 47  1  0
 46 48  2  0
 48 49  1  0
 19  5  1  0
 37 23  1  0
 48 40  1  0
 16  7  1  0
M  END
>  <UniqueID>  (59) 
25

>  <SMILES>  (59) 
O=c1c2ccccc2nc(/C=C/c2cccnc2)n1CC1CCCCC1

>  <Energy>  (59) 
68.50416612528228

>  <Genealogy>  (59) 
O=c1c2ccccc2nc(/C=C/c2cccnc2)n1CC1CCCCC1 (cis-trans isomerization)
O=c1c2ccccc2nc(/C=C/c2cccnc2)n1CC1CCCCC1 (3D coordinates assigned)
O=c1c2ccccc2nc(/C=C/c2cccnc2)n1CC1CCCCC1 (nonaromatic ring conformer: 68.50416612528228 kcal/mol)

>  <smiles>  (59) 
O=c1c2ccccc2nc(/C=C/c2cccnc2)n1CC1CCCCC1

>  <score_type>  (59) 
oracle

>  <origin>  (59) 
autodockgpu

>  <m_score__min__energy>  (59) 
-7.2300000000000004

>  <m_primary>  (59) 
energy

>  <meeko>  (59) 
{"free_energy": -6.99, "intermolecular_energy": -8.49, "internal_energy": -1.44, "cluster_size": 5, "cluster_id": 1, "rank_in_cluster": 4}

>  <energy>  (59) 
-6.82

>  <cluster_rmsd>  (59) 
0.0

>  <rmsd>  (59) 
268.43

>  <cluster>  (59) 
7

$$$$
XUFANRSCLZKORJ-OUKQBFOZNA-N
     RDKit          3D

 49 52  0  0  0  0  0  0  0  0999 V2000
  143.6813   76.1007  218.1977 H   0  0  0  0  0  0  0  0  0  0  0  0
  143.5950   75.6580  219.2010 C   0  0  0  0  0  0  0  0  0  0  0  0
  142.7240   76.2060  220.0610 C   0  0  0  0  0  0  0  0  0  0  0  0
  142.8443   77.2592  220.3547 H   0  0  0  0  0  0  0  0  0  0  0  0
  141.6010   75.4160  220.6230 C   0  0  0  0  0  0  0  0  0  0  0  0
  141.8270   74.0950  220.8570 N   0  0  0  0  0  0  0  0  0  0  0  0
  140.8910   73.2880  221.4010 C   0  0  0  0  0  0  0  0  0  0  0  0
  141.1740   71.9350  221.6230 C   0  0  0  0  0  0  0  0  0  0  0  0
  142.1554   71.5254  221.3417 H   0  0  0  0  0  0  0  0  0  0  0  0
  140.2100   71.1040  222.2020 C   0  0  0  0  0  0  0  0  0  0  0  0
  140.4327   70.0407  222.3748 H   0  0  0  0  0  0  0  0  0  0  0  0
  138.9640   71.6240  222.5610 C   0  0  0  0  0  0  0  0  0  0  0  0
  138.2068   70.9684  223.0158 H   0  0  0  0  0  0  0  0  0  0  0  0
  138.6760   72.9760  222.3440 C   0  0  0  0  0  0  0  0  0  0  0  0
  137.6942   73.3815  222.6298 H   0  0  0  0  0  0  0  0  0  0  0  0
  139.6420   73.8180  221.7600 C   0  0  0  0  0  0  0  0  0  0  0  0
  139.4050   75.1810  221.5180 C   0  0  0  0  0  0  0  0  0  0  0  0
  138.2950   75.6800  221.8570 O   0  0  0  0  0  0  0  0  0  0  0  0
  140.3680   75.9680  220.9210 N   0  0  0  0  0  0  0  0  0  0  0  0
  140.0430   77.3820  220.6000 C   0  0  0  0  0  0  0  0  0  0  0  0
  140.4516   77.6141  219.6054 H   0  0  0  0  0  0  0  0  0  0  0  0
  138.9476   77.4746  220.6386 H   0  0  0  0  0  0  0  0  0  0  0  0
  140.6180   78.4060  221.6160 C   0  0  0  0  0  0  0  0  0  0  0  0
  139.7734   79.0804  221.8205 H   0  0  0  0  0  0  0  0  0  0  0  0
  141.7690   79.2510  221.0410 C   0  0  0  0  0  0  0  0  0  0  0  0
  142.6450   78.6028  220.8912 H   0  0  0  0  0  0  0  0  0  0  0  0
  141.4287   79.6862  220.0898 H   0  0  0  0  0  0  0  0  0  0  0  0
  142.1620   80.4110  221.9830 C   0  0  0  0  0  0  0  0  0  0  0  0
  143.2555   80.5266  221.9533 H   0  0  0  0  0  0  0  0  0  0  0  0
  141.6340   81.3072  221.6252 H   0  0  0  0  0  0  0  0  0  0  0  0
  141.7360   80.1940  223.4480 C   0  0  0  0  0  0  0  0  0  0  0  0
  142.3761   80.8060  224.1005 H   0  0  0  0  0  0  0  0  0  0  0  0
  140.6805   80.4874  223.5469 H   0  0  0  0  0  0  0  0  0  0  0  0
  141.8660   78.7250  223.8600 C   0  0  0  0  0  0  0  0  0  0  0  0
  142.9256   78.4359  223.7990 H   0  0  0  0  0  0  0  0  0  0  0  0
  141.4748   78.6338  224.8840 H   0  0  0  0  0  0  0  0  0  0  0  0
  141.0420   77.7720  222.9620 C   0  0  0  0  0  0  0  0  0  0  0  0
  141.6501   76.8800  222.7506 H   0  0  0  0  0  0  0  0  0  0  0  0
  140.1198   77.5277  223.5096 H   0  0  0  0  0  0  0  0  0  0  0  0
  144.4480   74.4900  219.5250 C   0  0  0  0  0  0  0  0  0  0  0  0
  144.8170   73.5270  218.5650 C   0  0  0  0  0  0  0  0  0  0  0  0
  144.4577   73.6192  217.5294 H   0  0  0  0  0  0  0  0  0  0  0  0
  145.6160   72.4840  218.9150 N   0  0  0  0  0  0  0  0  0  0  0  0
  146.0840   72.3330  220.1800 C   0  0  0  0  0  0  0  0  0  0  0  0
  146.7218   71.4726  220.4307 H   0  0  0  0  0  0  0  0  0  0  0  0
  145.7570   73.2680  221.1630 C   0  0  0  0  0  0  0  0  0  0  0  0
  146.1365   73.1521  222.1889 H   0  0  0  0  0  0  0  0  0  0  0  0
  144.9430   74.3520  220.8300 C   0  0  0  0  0  0  0  0  0  0  0  0
  144.6887   75.1011  221.5943 H   0  0  0  0  0  0  0  0  0  0  0  0
  1  2  1  0
  2  3  2  0
  3  4  1  0
  3  5  1  0
  5  6  2  0
  6  7  1  0
  7  8  2  0
  8  9  1  0
  8 10  1  0
 10 11  1  0
 10 12  2  0
 12 13  1  0
 12 14  1  0
 14 15  1  0
 14 16  2  0
 16 17  1  0
 17 18  2  0
 17 19  1  0
 19 20  1  0
 20 21  1  0
 20 22  1  0
 20 23  1  0
 23 24  1  0
 23 25  1  0
 25 26  1  0
 25 27  1  0
 25 28  1  0
 28 29  1  0
 28 30  1  0
 28 31  1  0
 31 32  1  0
 31 33  1  0
 31 34  1  0
 34 35  1  0
 34 36  1  0
 34 37  1  0
 37 38  1  0
 37 39  1  0
  2 40  1  0
 40 41  2  0
 41 42  1  0
 41 43  1  0
 43 44  2  0
 44 45  1  0
 44 46  1  0
 46 47  1  0
 46 48  2  0
 48 49  1  0
 19  5  1  0
 37 23  1  0
 48 40  1  0
 16  7  1  0
M  END
>  <UniqueID>  (60) 
25

>  <SMILES>  (60) 
O=c1c2ccccc2nc(/C=C/c2cccnc2)n1CC1CCCCC1

>  <Energy>  (60) 
68.50416612528228

>  <Genealogy>  (60) 
O=c1c2ccccc2nc(/C=C/c2cccnc2)n1CC1CCCCC1 (cis-trans isomerization)
O=c1c2ccccc2nc(/C=C/c2cccnc2)n1CC1CCCCC1 (3D coordinates assigned)
O=c1c2ccccc2nc(/C=C/c2cccnc2)n1CC1CCCCC1 (nonaromatic ring conformer: 68.50416612528228 kcal/mol)

>  <smiles>  (60) 
O=c1c2ccccc2nc(/C=C/c2cccnc2)n1CC1CCCCC1

>  <score_type>  (60) 
oracle

>  <origin>  (60) 
autodockgpu

>  <m_score__min__energy>  (60) 
-7.2300000000000004

>  <m_primary>  (60) 
energy

>  <meeko>  (60) 
{"free_energy": -6.94, "intermolecular_energy": -8.43, "internal_energy": -1.45, "cluster_size": 2, "cluster_id": 3, "rank_in_cluster": 2}

>  <energy>  (60) 
-6.35

>  <cluster_rmsd>  (60) 
0.0

>  <rmsd>  (60) 
270.03

>  <cluster>  (60) 
8

$$$$
XUFANRSCLZKORJ-OUKQBFOZNA-N
     RDKit          3D

 49 52  0  0  0  0  0  0  0  0999 V2000
  135.7750   69.0687  222.0955 H   0  0  0  0  0  0  0  0  0  0  0  0
  136.2200   69.0150  223.1000 C   0  0  0  0  0  0  0  0  0  0  0  0
  137.4820   68.5740  223.2100 C   0  0  0  0  0  0  0  0  0  0  0  0
  137.8490   67.8057  222.5136 H   0  0  0  0  0  0  0  0  0  0  0  0
  138.3910   69.1050  224.2550 C   0  0  0  0  0  0  0  0  0  0  0  0
  138.6750   68.2880  225.3050 N   0  0  0  0  0  0  0  0  0  0  0  0
  139.5200   68.6530  226.2940 C   0  0  0  0  0  0  0  0  0  0  0  0
  139.7790   67.7740  227.3530 C   0  0  0  0  0  0  0  0  0  0  0  0
  139.2847   66.7919  227.3862 H   0  0  0  0  0  0  0  0  0  0  0  0
  140.6660   68.1450  228.3680 C   0  0  0  0  0  0  0  0  0  0  0  0
  140.8682   67.4553  229.2007 H   0  0  0  0  0  0  0  0  0  0  0  0
  141.2960   69.3920  228.3250 C   0  0  0  0  0  0  0  0  0  0  0  0
  141.9930   69.6820  229.1251 H   0  0  0  0  0  0  0  0  0  0  0  0
  141.0430   70.2720  227.2680 C   0  0  0  0  0  0  0  0  0  0  0  0
  141.5429   71.2514  227.2371 H   0  0  0  0  0  0  0  0  0  0  0  0
  140.1490   69.9060  226.2430 C   0  0  0  0  0  0  0  0  0  0  0  0
  139.8570   70.7510  225.1600 C   0  0  0  0  0  0  0  0  0  0  0  0
  140.4330   71.8730  225.0860 O   0  0  0  0  0  0  0  0  0  0  0  0
  138.9570   70.3660  224.1890 N   0  0  0  0  0  0  0  0  0  0  0  0
  138.6070   71.3270  223.1100 C   0  0  0  0  0  0  0  0  0  0  0  0
  137.9480   70.8167  222.3921 H   0  0  0  0  0  0  0  0  0  0  0  0
  138.1197   72.1864  223.5937 H   0  0  0  0  0  0  0  0  0  0  0  0
  139.8350   71.8810  222.3380 C   0  0  0  0  0  0  0  0  0  0  0  0
  140.6390   71.8908  223.0886 H   0  0  0  0  0  0  0  0  0  0  0  0
  139.6380   73.3230  221.8390 C   0  0  0  0  0  0  0  0  0  0  0  0
  138.8821   73.3222  221.0399 H   0  0  0  0  0  0  0  0  0  0  0  0
  139.3139   73.9367  222.6925 H   0  0  0  0  0  0  0  0  0  0  0  0
  140.9480   73.9280  221.2860 C   0  0  0  0  0  0  0  0  0  0  0  0
  140.7024   74.5423  220.4072 H   0  0  0  0  0  0  0  0  0  0  0  0
  141.3972   74.5171  222.0991 H   0  0  0  0  0  0  0  0  0  0  0  0
  141.9910   72.8740  220.8660 C   0  0  0  0  0  0  0  0  0  0  0  0
  142.6772   73.3231  220.1329 H   0  0  0  0  0  0  0  0  0  0  0  0
  142.5347   72.5502  221.7658 H   0  0  0  0  0  0  0  0  0  0  0  0
  141.3280   71.6440  220.2380 C   0  0  0  0  0  0  0  0  0  0  0  0
  140.8138   71.9545  219.3165 H   0  0  0  0  0  0  0  0  0  0  0  0
  142.1208   70.9085  220.0365 H   0  0  0  0  0  0  0  0  0  0  0  0
  140.2980   70.9710  221.1750 C   0  0  0  0  0  0  0  0  0  0  0  0
  139.4164   70.6911  220.5796 H   0  0  0  0  0  0  0  0  0  0  0  0
  140.7921   70.0971  221.6247 H   0  0  0  0  0  0  0  0  0  0  0  0
  135.3910   69.4340  224.2550 C   0  0  0  0  0  0  0  0  0  0  0  0
  134.6800   68.5180  225.0560 C   0  0  0  0  0  0  0  0  0  0  0  0
  134.7177   67.4432  224.8248 H   0  0  0  0  0  0  0  0  0  0  0  0
  133.9480   68.9580  226.1130 N   0  0  0  0  0  0  0  0  0  0  0  0
  133.8760   70.2750  226.4370 C   0  0  0  0  0  0  0  0  0  0  0  0
  133.2675   70.5978  227.2946 H   0  0  0  0  0  0  0  0  0  0  0  0
  134.5740   71.2190  225.6820 C   0  0  0  0  0  0  0  0  0  0  0  0
  134.5223   72.2866  225.9421 H   0  0  0  0  0  0  0  0  0  0  0  0
  135.3380   70.7950  224.5940 C   0  0  0  0  0  0  0  0  0  0  0  0
  135.9007   71.5301  223.9998 H   0  0  0  0  0  0  0  0  0  0  0  0
  1  2  1  0
  2  3  2  0
  3  4  1  0
  3  5  1  0
  5  6  2  0
  6  7  1  0
  7  8  2  0
  8  9  1  0
  8 10  1  0
 10 11  1  0
 10 12  2  0
 12 13  1  0
 12 14  1  0
 14 15  1  0
 14 16  2  0
 16 17  1  0
 17 18  2  0
 17 19  1  0
 19 20  1  0
 20 21  1  0
 20 22  1  0
 20 23  1  0
 23 24  1  0
 23 25  1  0
 25 26  1  0
 25 27  1  0
 25 28  1  0
 28 29  1  0
 28 30  1  0
 28 31  1  0
 31 32  1  0
 31 33  1  0
 31 34  1  0
 34 35  1  0
 34 36  1  0
 34 37  1  0
 37 38  1  0
 37 39  1  0
  2 40  1  0
 40 41  2  0
 41 42  1  0
 41 43  1  0
 43 44  2  0
 44 45  1  0
 44 46  1  0
 46 47  1  0
 46 48  2  0
 48 49  1  0
 19  5  1  0
 37 23  1  0
 48 40  1  0
 16  7  1  0
M  END
>  <UniqueID>  (61) 
26

>  <SMILES>  (61) 
O=c1c2ccccc2nc(/C=C/c2cccnc2)n1CC1CCCCC1

>  <Energy>  (61) 
70.64879791517129

>  <Genealogy>  (61) 
O=c1c2ccccc2nc(/C=C/c2cccnc2)n1CC1CCCCC1 (cis-trans isomerization)
O=c1c2ccccc2nc(/C=C/c2cccnc2)n1CC1CCCCC1 (3D coordinates assigned)
O=c1c2ccccc2nc(/C=C/c2cccnc2)n1CC1CCCCC1 (nonaromatic ring conformer: 70.64879791517129 kcal/mol)

>  <smiles>  (61) 
O=c1c2ccccc2nc(/C=C/c2cccnc2)n1CC1CCCCC1

>  <score_type>  (61) 
oracle

>  <origin>  (61) 
autodockgpu

>  <m_score__min__energy>  (61) 
-7.2300000000000004

>  <m_primary>  (61) 
energy

>  <meeko>  (61) 
{"free_energy": -7.09, "intermolecular_energy": -8.59, "internal_energy": -1.38, "cluster_size": 8, "cluster_id": 2, "rank_in_cluster": 3}

>  <energy>  (61) 
-7.23

>  <cluster_rmsd>  (61) 
0.0

>  <rmsd>  (61) 
268.78

>  <cluster>  (61) 
1

$$$$
XUFANRSCLZKORJ-OUKQBFOZNA-N
     RDKit          3D

 49 52  0  0  0  0  0  0  0  0999 V2000
  136.0101   71.7596  222.3223 H   0  0  0  0  0  0  0  0  0  0  0  0
  136.4890   70.9880  222.9430 C   0  0  0  0  0  0  0  0  0  0  0  0
  137.8250   70.8770  222.8950 C   0  0  0  0  0  0  0  0  0  0  0  0
  138.3684   71.2627  222.0198 H   0  0  0  0  0  0  0  0  0  0  0  0
  138.5820   70.2430  224.0020 C   0  0  0  0  0  0  0  0  0  0  0  0
  139.1440   71.0710  224.9240 N   0  0  0  0  0  0  0  0  0  0  0  0
  139.8220   70.6030  225.9940 C   0  0  0  0  0  0  0  0  0  0  0  0
  140.3810   71.4970  226.9150 C   0  0  0  0  0  0  0  0  0  0  0  0
  140.2788   72.5813  226.7604 H   0  0  0  0  0  0  0  0  0  0  0  0
  141.0690   71.0120  228.0310 C   0  0  0  0  0  0  0  0  0  0  0  0
  141.5093   71.7151  228.7533 H   0  0  0  0  0  0  0  0  0  0  0  0
  141.1980   69.6350  228.2300 C   0  0  0  0  0  0  0  0  0  0  0  0
  141.7403   69.2560  229.1088 H   0  0  0  0  0  0  0  0  0  0  0  0
  140.6390   68.7370  227.3140 C   0  0  0  0  0  0  0  0  0  0  0  0
  140.7409   67.6536  227.4751 H   0  0  0  0  0  0  0  0  0  0  0  0
  139.9460   69.2180  226.1860 C   0  0  0  0  0  0  0  0  0  0  0  0
  139.3680   68.3620  225.2350 C   0  0  0  0  0  0  0  0  0  0  0  0
  139.4490   67.1120  225.4060 O   0  0  0  0  0  0  0  0  0  0  0  0
  138.7190   68.8720  224.1310 N   0  0  0  0  0  0  0  0  0  0  0  0
  138.2010   67.9320  223.1020 C   0  0  0  0  0  0  0  0  0  0  0  0
  137.9659   66.9762  223.5930 H   0  0  0  0  0  0  0  0  0  0  0  0
  137.3150   68.4055  222.6538 H   0  0  0  0  0  0  0  0  0  0  0  0
  139.1980   67.6550  221.9450 C   0  0  0  0  0  0  0  0  0  0  0  0
  140.1749   67.9423  222.3610 H   0  0  0  0  0  0  0  0  0  0  0  0
  138.9410   68.5240  220.7010 C   0  0  0  0  0  0  0  0  0  0  0  0
  137.9973   68.2053  220.2342 H   0  0  0  0  0  0  0  0  0  0  0  0
  138.8905   69.5740  221.0251 H   0  0  0  0  0  0  0  0  0  0  0  0
  140.0780   68.4000  219.6620 C   0  0  0  0  0  0  0  0  0  0  0  0
  139.6320   68.4088  218.6565 H   0  0  0  0  0  0  0  0  0  0  0  0
  140.7581   69.2487  219.8272 H   0  0  0  0  0  0  0  0  0  0  0  0
  140.9170   67.1150  219.8110 C   0  0  0  0  0  0  0  0  0  0  0  0
  141.3994   66.8899  218.8484 H   0  0  0  0  0  0  0  0  0  0  0  0
  141.6683   67.2835  220.5966 H   0  0  0  0  0  0  0  0  0  0  0  0
  140.0510   65.9220  220.2240 C   0  0  0  0  0  0  0  0  0  0  0  0
  139.3201   65.7261  219.4257 H   0  0  0  0  0  0  0  0  0  0  0  0
  140.7233   65.0661  220.3833 H   0  0  0  0  0  0  0  0  0  0  0  0
  139.2850   66.1620  221.5460 C   0  0  0  0  0  0  0  0  0  0  0  0
  138.2629   65.7715  221.4324 H   0  0  0  0  0  0  0  0  0  0  0  0
  139.8419   65.6456  222.3418 H   0  0  0  0  0  0  0  0  0  0  0  0
  135.6210   70.1300  223.7850 C   0  0  0  0  0  0  0  0  0  0  0  0
  135.1860   68.8540  223.3770 C   0  0  0  0  0  0  0  0  0  0  0  0
  135.4802   68.4635  222.3916 H   0  0  0  0  0  0  0  0  0  0  0  0
  134.4030   68.1030  224.1980 N   0  0  0  0  0  0  0  0  0  0  0  0
  134.0200   68.5450  225.4240 C   0  0  0  0  0  0  0  0  0  0  0  0
  133.3801   67.9158  226.0600 H   0  0  0  0  0  0  0  0  0  0  0  0
  134.4380   69.7970  225.8770 C   0  0  0  0  0  0  0  0  0  0  0  0
  134.1337   70.1584  226.8704 H   0  0  0  0  0  0  0  0  0  0  0  0
  135.2460   70.5860  225.0570 C   0  0  0  0  0  0  0  0  0  0  0  0
  135.5900   71.5694  225.4099 H   0  0  0  0  0  0  0  0  0  0  0  0
  1  2  1  0
  2  3  2  0
  3  4  1  0
  3  5  1  0
  5  6  2  0
  6  7  1  0
  7  8  2  0
  8  9  1  0
  8 10  1  0
 10 11  1  0
 10 12  2  0
 12 13  1  0
 12 14  1  0
 14 15  1  0
 14 16  2  0
 16 17  1  0
 17 18  2  0
 17 19  1  0
 19 20  1  0
 20 21  1  0
 20 22  1  0
 20 23  1  0
 23 24  1  0
 23 25  1  0
 25 26  1  0
 25 27  1  0
 25 28  1  0
 28 29  1  0
 28 30  1  0
 28 31  1  0
 31 32  1  0
 31 33  1  0
 31 34  1  0
 34 35  1  0
 34 36  1  0
 34 37  1  0
 37 38  1  0
 37 39  1  0
  2 40  1  0
 40 41  2  0
 41 42  1  0
 41 43  1  0
 43 44  2  0
 44 45  1  0
 44 46  1  0
 46 47  1  0
 46 48  2  0
 48 49  1  0
 19  5  1  0
 37 23  1  0
 48 40  1  0
 16  7  1  0
M  END
>  <UniqueID>  (62) 
26

>  <SMILES>  (62) 
O=c1c2ccccc2nc(/C=C/c2cccnc2)n1CC1CCCCC1

>  <Energy>  (62) 
70.64879791517129

>  <Genealogy>  (62) 
O=c1c2ccccc2nc(/C=C/c2cccnc2)n1CC1CCCCC1 (cis-trans isomerization)
O=c1c2ccccc2nc(/C=C/c2cccnc2)n1CC1CCCCC1 (3D coordinates assigned)
O=c1c2ccccc2nc(/C=C/c2cccnc2)n1CC1CCCCC1 (nonaromatic ring conformer: 70.64879791517129 kcal/mol)

>  <smiles>  (62) 
O=c1c2ccccc2nc(/C=C/c2cccnc2)n1CC1CCCCC1

>  <score_type>  (62) 
oracle

>  <origin>  (62) 
autodockgpu

>  <m_score__min__energy>  (62) 
-7.2300000000000004

>  <m_primary>  (62) 
energy

>  <meeko>  (62) 
{"free_energy": -6.82, "intermolecular_energy": -8.31, "internal_energy": -1.58, "cluster_size": 1, "cluster_id": 7, "rank_in_cluster": 1}

>  <energy>  (62) 
-7.22

>  <cluster_rmsd>  (62) 
0.07

>  <rmsd>  (62) 
268.74

>  <cluster>  (62) 
1

$$$$
XUFANRSCLZKORJ-OUKQBFOZNA-N
     RDKit          3D

 49 52  0  0  0  0  0  0  0  0999 V2000
  135.4727   68.7296  222.2495 H   0  0  0  0  0  0  0  0  0  0  0  0
  136.0470   68.8890  223.1740 C   0  0  0  0  0  0  0  0  0  0  0  0
  137.3610   68.6190  223.1570 C   0  0  0  0  0  0  0  0  0  0  0  0
  137.7758   68.0012  222.3469 H   0  0  0  0  0  0  0  0  0  0  0  0
  138.2640   69.1400  224.2130 C   0  0  0  0  0  0  0  0  0  0  0  0
  138.5260   68.3200  225.2660 N   0  0  0  0  0  0  0  0  0  0  0  0
  139.3640   68.6740  226.2650 C   0  0  0  0  0  0  0  0  0  0  0  0
  139.6010   67.7930  227.3260 C   0  0  0  0  0  0  0  0  0  0  0  0
  139.0952   66.8166  227.3532 H   0  0  0  0  0  0  0  0  0  0  0  0
  140.4800   68.1530  228.3510 C   0  0  0  0  0  0  0  0  0  0  0  0
  140.6651   67.4605  229.1854 H   0  0  0  0  0  0  0  0  0  0  0  0
  141.1240   69.3930  228.3160 C   0  0  0  0  0  0  0  0  0  0  0  0
  141.8155   69.6746  229.1238 H   0  0  0  0  0  0  0  0  0  0  0  0
  140.8920   70.2770  227.2570 C   0  0  0  0  0  0  0  0  0  0  0  0
  141.4022   71.2512  227.2327 H   0  0  0  0  0  0  0  0  0  0  0  0
  140.0060   69.9210  226.2220 C   0  0  0  0  0  0  0  0  0  0  0  0
  139.7360   70.7700  225.1370 C   0  0  0  0  0  0  0  0  0  0  0  0
  140.3250   71.8860  225.0700 O   0  0  0  0  0  0  0  0  0  0  0  0
  138.8430   70.3950  224.1550 N   0  0  0  0  0  0  0  0  0  0  0  0
  138.5160   71.3610  223.0730 C   0  0  0  0  0  0  0  0  0  0  0  0
  137.8860   70.8493  222.3306 H   0  0  0  0  0  0  0  0  0  0  0  0
  138.0037   72.2108  223.5477 H   0  0  0  0  0  0  0  0  0  0  0  0
  139.7610   71.9350  222.3450 C   0  0  0  0  0  0  0  0  0  0  0  0
  140.5337   71.9697  223.1271 H   0  0  0  0  0  0  0  0  0  0  0  0
  139.5520   73.3680  221.8230 C   0  0  0  0  0  0  0  0  0  0  0  0
  138.8294   73.3421  220.9941 H   0  0  0  0  0  0  0  0  0  0  0  0
  139.1800   73.9821  222.6564 H   0  0  0  0  0  0  0  0  0  0  0  0
  140.8690   73.9980  221.3170 C   0  0  0  0  0  0  0  0  0  0  0  0
  140.6452   74.5990  220.4233 H   0  0  0  0  0  0  0  0  0  0  0  0
  141.2720   74.6044  222.1415 H   0  0  0  0  0  0  0  0  0  0  0  0
  141.9510   72.9640  220.9490 C   0  0  0  0  0  0  0  0  0  0  0  0
  142.6555   73.4217  220.2390 H   0  0  0  0  0  0  0  0  0  0  0  0
  142.4657   72.6609  221.8727 H   0  0  0  0  0  0  0  0  0  0  0  0
  141.3410   71.7140  220.3080 C   0  0  0  0  0  0  0  0  0  0  0  0
  140.8566   72.0047  219.3642 H   0  0  0  0  0  0  0  0  0  0  0  0
  142.1576   70.9952  220.1454 H   0  0  0  0  0  0  0  0  0  0  0  0
  140.2900   71.0250  221.2100 C   0  0  0  0  0  0  0  0  0  0  0  0
  139.4393   70.7196  220.5831 H   0  0  0  0  0  0  0  0  0  0  0  0
  140.7851   70.1663  221.6870 H   0  0  0  0  0  0  0  0  0  0  0  0
  135.3250   69.3900  224.3680 C   0  0  0  0  0  0  0  0  0  0  0  0
  134.6940   68.5330  225.2920 C   0  0  0  0  0  0  0  0  0  0  0  0
  134.7151   67.4447  225.1337 H   0  0  0  0  0  0  0  0  0  0  0  0
  134.0590   69.0480  226.3790 N   0  0  0  0  0  0  0  0  0  0  0  0
  134.0110   70.3840  226.6150 C   0  0  0  0  0  0  0  0  0  0  0  0
  133.4819   70.7675  227.4998 H   0  0  0  0  0  0  0  0  0  0  0  0
  134.6330   71.2710  225.7350 C   0  0  0  0  0  0  0  0  0  0  0  0
  134.6003   72.3543  225.9230 H   0  0  0  0  0  0  0  0  0  0  0  0
  135.2970   70.7700  224.6140 C   0  0  0  0  0  0  0  0  0  0  0  0
  135.8001   71.4604  223.9211 H   0  0  0  0  0  0  0  0  0  0  0  0
  1  2  1  0
  2  3  2  0
  3  4  1  0
  3  5  1  0
  5  6  2  0
  6  7  1  0
  7  8  2  0
  8  9  1  0
  8 10  1  0
 10 11  1  0
 10 12  2  0
 12 13  1  0
 12 14  1  0
 14 15  1  0
 14 16  2  0
 16 17  1  0
 17 18  2  0
 17 19  1  0
 19 20  1  0
 20 21  1  0
 20 22  1  0
 20 23  1  0
 23 24  1  0
 23 25  1  0
 25 26  1  0
 25 27  1  0
 25 28  1  0
 28 29  1  0
 28 30  1  0
 28 31  1  0
 31 32  1  0
 31 33  1  0
 31 34  1  0
 34 35  1  0
 34 36  1  0
 34 37  1  0
 37 38  1  0
 37 39  1  0
  2 40  1  0
 40 41  2  0
 41 42  1  0
 41 43  1  0
 43 44  2  0
 44 45  1  0
 44 46  1  0
 46 47  1  0
 46 48  2  0
 48 49  1  0
 19  5  1  0
 37 23  1  0
 48 40  1  0
 16  7  1  0
M  END
>  <UniqueID>  (63) 
26

>  <SMILES>  (63) 
O=c1c2ccccc2nc(/C=C/c2cccnc2)n1CC1CCCCC1

>  <Energy>  (63) 
70.64879791517129

>  <Genealogy>  (63) 
O=c1c2ccccc2nc(/C=C/c2cccnc2)n1CC1CCCCC1 (cis-trans isomerization)
O=c1c2ccccc2nc(/C=C/c2cccnc2)n1CC1CCCCC1 (3D coordinates assigned)
O=c1c2ccccc2nc(/C=C/c2cccnc2)n1CC1CCCCC1 (nonaromatic ring conformer: 70.64879791517129 kcal/mol)

>  <smiles>  (63) 
O=c1c2ccccc2nc(/C=C/c2cccnc2)n1CC1CCCCC1

>  <score_type>  (63) 
oracle

>  <origin>  (63) 
autodockgpu

>  <m_score__min__energy>  (63) 
-7.2300000000000004

>  <m_primary>  (63) 
energy

>  <meeko>  (63) 
{"free_energy": -7.02, "intermolecular_energy": -8.52, "internal_energy": -1.43, "cluster_size": 8, "cluster_id": 2, "rank_in_cluster": 5}

>  <energy>  (63) 
-7.13

>  <cluster_rmsd>  (63) 
0.38

>  <rmsd>  (63) 
268.82

>  <cluster>  (63) 
1

$$$$
XUFANRSCLZKORJ-OUKQBFOZNA-N
     RDKit          3D

 49 52  0  0  0  0  0  0  0  0999 V2000
  135.4873   68.7096  222.2543 H   0  0  0  0  0  0  0  0  0  0  0  0
  136.0820   68.9420  223.1500 C   0  0  0  0  0  0  0  0  0  0  0  0
  137.4050   68.7230  223.1050 C   0  0  0  0  0  0  0  0  0  0  0  0
  137.8327   68.1658  222.2585 H   0  0  0  0  0  0  0  0  0  0  0  0
  138.3000   69.2200  224.1780 C   0  0  0  0  0  0  0  0  0  0  0  0
  138.5330   68.3870  225.2290 N   0  0  0  0  0  0  0  0  0  0  0  0
  139.3610   68.7200  226.2420 C   0  0  0  0  0  0  0  0  0  0  0  0
  139.5680   67.8260  227.3000 C   0  0  0  0  0  0  0  0  0  0  0  0
  139.0460   66.8578  227.3120 H   0  0  0  0  0  0  0  0  0  0  0  0
  140.4380   68.1640  228.3410 C   0  0  0  0  0  0  0  0  0  0  0  0
  140.5992   67.4620  229.1724 H   0  0  0  0  0  0  0  0  0  0  0  0
  141.1030   69.3930  228.3260 C   0  0  0  0  0  0  0  0  0  0  0  0
  141.7871   69.6565  229.1461 H   0  0  0  0  0  0  0  0  0  0  0  0
  140.9010   70.2900  227.2700 C   0  0  0  0  0  0  0  0  0  0  0  0
  141.4268   71.2561  227.2613 H   0  0  0  0  0  0  0  0  0  0  0  0
  140.0250   69.9560  226.2190 C   0  0  0  0  0  0  0  0  0  0  0  0
  139.7850   70.8180  225.1370 C   0  0  0  0  0  0  0  0  0  0  0  0
  140.3930   71.9250  225.0880 O   0  0  0  0  0  0  0  0  0  0  0  0
  138.9010   70.4660  224.1390 N   0  0  0  0  0  0  0  0  0  0  0  0
  138.6060   71.4450  223.0600 C   0  0  0  0  0  0  0  0  0  0  0  0
  137.9397   70.9641  222.3287 H   0  0  0  0  0  0  0  0  0  0  0  0
  138.1443   72.3202  223.5405 H   0  0  0  0  0  0  0  0  0  0  0  0
  139.8670   71.9550  222.3110 C   0  0  0  0  0  0  0  0  0  0  0  0
  140.6502   71.9633  223.0834 H   0  0  0  0  0  0  0  0  0  0  0  0
  139.7170   73.3900  221.7770 C   0  0  0  0  0  0  0  0  0  0  0  0
  138.9831   73.3889  220.9576 H   0  0  0  0  0  0  0  0  0  0  0  0
  139.3845   74.0286  222.6086 H   0  0  0  0  0  0  0  0  0  0  0  0
  141.0540   73.9540  221.2480 C   0  0  0  0  0  0  0  0  0  0  0  0
  140.8461   74.5538  220.3496 H   0  0  0  0  0  0  0  0  0  0  0  0
  141.4936   74.5511  222.0606 H   0  0  0  0  0  0  0  0  0  0  0  0
  142.0850   72.8690  220.8800 C   0  0  0  0  0  0  0  0  0  0  0  0
  142.8014   73.2871  220.1575 H   0  0  0  0  0  0  0  0  0  0  0  0
  142.5968   72.5529  221.8010 H   0  0  0  0  0  0  0  0  0  0  0  0
  141.4110   71.6410  220.2590 C   0  0  0  0  0  0  0  0  0  0  0  0
  140.9287   71.9438  219.3179 H   0  0  0  0  0  0  0  0  0  0  0  0
  142.1920   70.8842  220.0941 H   0  0  0  0  0  0  0  0  0  0  0  0
  140.3410   71.0100  221.1810 C   0  0  0  0  0  0  0  0  0  0  0  0
  139.4700   70.7362  220.5675 H   0  0  0  0  0  0  0  0  0  0  0  0
  140.8029   70.1353  221.6623 H   0  0  0  0  0  0  0  0  0  0  0  0
  135.3760   69.4790  224.3370 C   0  0  0  0  0  0  0  0  0  0  0  0
  134.8240   68.6510  225.3350 C   0  0  0  0  0  0  0  0  0  0  0  0
  134.8978   67.5574  225.2425 H   0  0  0  0  0  0  0  0  0  0  0  0
  134.2010   69.1990  226.4110 N   0  0  0  0  0  0  0  0  0  0  0  0
  134.0890   70.5430  226.5670 C   0  0  0  0  0  0  0  0  0  0  0  0
  133.5703   70.9531  227.4461 H   0  0  0  0  0  0  0  0  0  0  0  0
  134.6320   71.4050  225.6120 C   0  0  0  0  0  0  0  0  0  0  0  0
  134.5482   72.4949  225.7351 H   0  0  0  0  0  0  0  0  0  0  0  0
  135.2820   70.8690  224.5000 C   0  0  0  0  0  0  0  0  0  0  0  0
  135.7228   71.5395  223.7476 H   0  0  0  0  0  0  0  0  0  0  0  0
  1  2  1  0
  2  3  2  0
  3  4  1  0
  3  5  1  0
  5  6  2  0
  6  7  1  0
  7  8  2  0
  8  9  1  0
  8 10  1  0
 10 11  1  0
 10 12  2  0
 12 13  1  0
 12 14  1  0
 14 15  1  0
 14 16  2  0
 16 17  1  0
 17 18  2  0
 17 19  1  0
 19 20  1  0
 20 21  1  0
 20 22  1  0
 20 23  1  0
 23 24  1  0
 23 25  1  0
 25 26  1  0
 25 27  1  0
 25 28  1  0
 28 29  1  0
 28 30  1  0
 28 31  1  0
 31 32  1  0
 31 33  1  0
 31 34  1  0
 34 35  1  0
 34 36  1  0
 34 37  1  0
 37 38  1  0
 37 39  1  0
  2 40  1  0
 40 41  2  0
 41 42  1  0
 41 43  1  0
 43 44  2  0
 44 45  1  0
 44 46  1  0
 46 47  1  0
 46 48  2  0
 48 49  1  0
 19  5  1  0
 37 23  1  0
 48 40  1  0
 16  7  1  0
M  END
>  <UniqueID>  (64) 
26

>  <SMILES>  (64) 
O=c1c2ccccc2nc(/C=C/c2cccnc2)n1CC1CCCCC1

>  <Energy>  (64) 
70.64879791517129

>  <Genealogy>  (64) 
O=c1c2ccccc2nc(/C=C/c2cccnc2)n1CC1CCCCC1 (cis-trans isomerization)
O=c1c2ccccc2nc(/C=C/c2cccnc2)n1CC1CCCCC1 (3D coordinates assigned)
O=c1c2ccccc2nc(/C=C/c2cccnc2)n1CC1CCCCC1 (nonaromatic ring conformer: 70.64879791517129 kcal/mol)

>  <smiles>  (64) 
O=c1c2ccccc2nc(/C=C/c2cccnc2)n1CC1CCCCC1

>  <score_type>  (64) 
oracle

>  <origin>  (64) 
autodockgpu

>  <m_score__min__energy>  (64) 
-7.2300000000000004

>  <m_primary>  (64) 
energy

>  <meeko>  (64) 
{"free_energy": -6.94, "intermolecular_energy": -8.43, "internal_energy": -1.46, "cluster_size": 8, "cluster_id": 2, "rank_in_cluster": 6}

>  <energy>  (64) 
-6.99

>  <cluster_rmsd>  (64) 
0.8

>  <rmsd>  (64) 
268.72

>  <cluster>  (64) 
1

$$$$
XUFANRSCLZKORJ-OUKQBFOZNA-N
     RDKit          3D

 49 52  0  0  0  0  0  0  0  0999 V2000
  140.7265   70.7734  220.7878 H   0  0  0  0  0  0  0  0  0  0  0  0
  140.1420   71.4400  221.4390 C   0  0  0  0  0  0  0  0  0  0  0  0
  139.1790   70.8970  222.1980 C   0  0  0  0  0  0  0  0  0  0  0  0
  138.1470   70.8619  221.8189 H   0  0  0  0  0  0  0  0  0  0  0  0
  139.4820   70.3430  223.5400 C   0  0  0  0  0  0  0  0  0  0  0  0
  139.9960   71.1990  224.4640 N   0  0  0  0  0  0  0  0  0  0  0  0
  140.2740   70.8130  225.7280 C   0  0  0  0  0  0  0  0  0  0  0  0
  140.8010   71.7340  226.6410 C   0  0  0  0  0  0  0  0  0  0  0  0
  141.0003   72.7687  226.3253 H   0  0  0  0  0  0  0  0  0  0  0  0
  141.0740   71.3390  227.9540 C   0  0  0  0  0  0  0  0  0  0  0  0
  141.4905   72.0624  228.6704 H   0  0  0  0  0  0  0  0  0  0  0  0
  140.8180   70.0250  228.3570 C   0  0  0  0  0  0  0  0  0  0  0  0
  141.0323   69.7168  229.3910 H   0  0  0  0  0  0  0  0  0  0  0  0
  140.2900   69.1010  227.4490 C   0  0  0  0  0  0  0  0  0  0  0  0
  140.0901   68.0680  227.7700 H   0  0  0  0  0  0  0  0  0  0  0  0
  140.0140   69.4920  226.1240 C   0  0  0  0  0  0  0  0  0  0  0  0
  139.4850   68.6060  225.1720 C   0  0  0  0  0  0  0  0  0  0  0  0
  139.2220   67.4190  225.5180 O   0  0  0  0  0  0  0  0  0  0  0  0
  139.2520   69.0200  223.8770 N   0  0  0  0  0  0  0  0  0  0  0  0
  138.7780   68.0270  222.8780 C   0  0  0  0  0  0  0  0  0  0  0  0
  139.4149   68.1036  221.9844 H   0  0  0  0  0  0  0  0  0  0  0  0
  138.8390   67.0385  223.3567 H   0  0  0  0  0  0  0  0  0  0  0  0
  137.3010   68.2270  222.4440 C   0  0  0  0  0  0  0  0  0  0  0  0
  137.3664   68.9013  221.5773 H   0  0  0  0  0  0  0  0  0  0  0  0
  136.4420   68.9190  223.5180 C   0  0  0  0  0  0  0  0  0  0  0  0
  136.3120   68.2310  224.3664 H   0  0  0  0  0  0  0  0  0  0  0  0
  136.9606   69.8385  223.8271 H   0  0  0  0  0  0  0  0  0  0  0  0
  135.0490   69.3150  222.9790 C   0  0  0  0  0  0  0  0  0  0  0  0
  134.3081   69.1459  223.7743 H   0  0  0  0  0  0  0  0  0  0  0  0
  135.1093   70.3715  222.6788 H   0  0  0  0  0  0  0  0  0  0  0  0
  134.6160   68.5170  221.7330 C   0  0  0  0  0  0  0  0  0  0  0  0
  133.5187   68.5382  221.6591 H   0  0  0  0  0  0  0  0  0  0  0  0
  135.0783   68.9812  220.8494 H   0  0  0  0  0  0  0  0  0  0  0  0
  135.0810   67.0600  221.8070 C   0  0  0  0  0  0  0  0  0  0  0  0
  134.5939   66.5794  222.6682 H   0  0  0  0  0  0  0  0  0  0  0  0
  134.8047   66.5766  220.8583 H   0  0  0  0  0  0  0  0  0  0  0  0
  136.6140   66.9250  221.9680 C   0  0  0  0  0  0  0  0  0  0  0  0
  136.8185   66.1340  222.7045 H   0  0  0  0  0  0  0  0  0  0  0  0
  137.0241   66.6867  220.9755 H   0  0  0  0  0  0  0  0  0  0  0  0
  140.4640   72.8860  221.4270 C   0  0  0  0  0  0  0  0  0  0  0  0
  139.6160   73.8600  221.9920 C   0  0  0  0  0  0  0  0  0  0  0  0
  138.6653   73.5573  222.4552 H   0  0  0  0  0  0  0  0  0  0  0  0
  139.9700   75.1730  221.9660 N   0  0  0  0  0  0  0  0  0  0  0  0
  141.1360   75.5900  221.4090 C   0  0  0  0  0  0  0  0  0  0  0  0
  141.3884   76.6606  221.3994 H   0  0  0  0  0  0  0  0  0  0  0  0
  142.0140   74.6620  220.8490 C   0  0  0  0  0  0  0  0  0  0  0  0
  142.9608   74.9946  220.3985 H   0  0  0  0  0  0  0  0  0  0  0  0
  141.6790   73.3070  220.8660 C   0  0  0  0  0  0  0  0  0  0  0  0
  142.3704   72.5664  220.4378 H   0  0  0  0  0  0  0  0  0  0  0  0
  1  2  1  0
  2  3  2  0
  3  4  1  0
  3  5  1  0
  5  6  2  0
  6  7  1  0
  7  8  2  0
  8  9  1  0
  8 10  1  0
 10 11  1  0
 10 12  2  0
 12 13  1  0
 12 14  1  0
 14 15  1  0
 14 16  2  0
 16 17  1  0
 17 18  2  0
 17 19  1  0
 19 20  1  0
 20 21  1  0
 20 22  1  0
 20 23  1  0
 23 24  1  0
 23 25  1  0
 25 26  1  0
 25 27  1  0
 25 28  1  0
 28 29  1  0
 28 30  1  0
 28 31  1  0
 31 32  1  0
 31 33  1  0
 31 34  1  0
 34 35  1  0
 34 36  1  0
 34 37  1  0
 37 38  1  0
 37 39  1  0
  2 40  1  0
 40 41  2  0
 41 42  1  0
 41 43  1  0
 43 44  2  0
 44 45  1  0
 44 46  1  0
 46 47  1  0
 46 48  2  0
 48 49  1  0
 19  5  1  0
 37 23  1  0
 48 40  1  0
 16  7  1  0
M  END
>  <UniqueID>  (65) 
26

>  <SMILES>  (65) 
O=c1c2ccccc2nc(/C=C/c2cccnc2)n1CC1CCCCC1

>  <Energy>  (65) 
70.64879791517129

>  <Genealogy>  (65) 
O=c1c2ccccc2nc(/C=C/c2cccnc2)n1CC1CCCCC1 (cis-trans isomerization)
O=c1c2ccccc2nc(/C=C/c2cccnc2)n1CC1CCCCC1 (3D coordinates assigned)
O=c1c2ccccc2nc(/C=C/c2cccnc2)n1CC1CCCCC1 (nonaromatic ring conformer: 70.64879791517129 kcal/mol)

>  <smiles>  (65) 
O=c1c2ccccc2nc(/C=C/c2cccnc2)n1CC1CCCCC1

>  <score_type>  (65) 
oracle

>  <origin>  (65) 
autodockgpu

>  <m_score__min__energy>  (65) 
-7.2300000000000004

>  <m_primary>  (65) 
energy

>  <meeko>  (65) 
{"free_energy": -7.23, "intermolecular_energy": -8.72, "internal_energy": -1.22, "cluster_size": 5, "cluster_id": 1, "rank_in_cluster": 1}

>  <energy>  (65) 
-6.94

>  <cluster_rmsd>  (65) 
0.75

>  <rmsd>  (65) 
268.74

>  <cluster>  (65) 
1

$$$$
XUFANRSCLZKORJ-OUKQBFOZNA-N
     RDKit          3D

 49 52  0  0  0  0  0  0  0  0999 V2000
  141.7169   80.4292  219.0762 H   0  0  0  0  0  0  0  0  0  0  0  0
  141.3340   79.9080  219.9660 C   0  0  0  0  0  0  0  0  0  0  0  0
  140.4980   78.8760  219.7830 C   0  0  0  0  0  0  0  0  0  0  0  0
  139.5034   79.0561  219.3491 H   0  0  0  0  0  0  0  0  0  0  0  0
  140.8920   77.4950  220.1560 C   0  0  0  0  0  0  0  0  0  0  0  0
  142.1390   77.0860  219.7970 N   0  0  0  0  0  0  0  0  0  0  0  0
  142.6170   75.8640  220.1180 C   0  0  0  0  0  0  0  0  0  0  0  0
  143.9080   75.4930  219.7260 C   0  0  0  0  0  0  0  0  0  0  0  0
  144.5288   76.1915  219.1457 H   0  0  0  0  0  0  0  0  0  0  0  0
  144.4090   74.2340  220.0720 C   0  0  0  0  0  0  0  0  0  0  0  0
  145.4233   73.9417  219.7626 H   0  0  0  0  0  0  0  0  0  0  0  0
  143.6210   73.3470  220.8110 C   0  0  0  0  0  0  0  0  0  0  0  0
  144.0164   72.3567  221.0812 H   0  0  0  0  0  0  0  0  0  0  0  0
  142.3310   73.7150  221.2080 C   0  0  0  0  0  0  0  0  0  0  0  0
  141.7156   73.0150  221.7922 H   0  0  0  0  0  0  0  0  0  0  0  0
  141.8190   74.9800  220.8610 C   0  0  0  0  0  0  0  0  0  0  0  0
  140.5310   75.3990  221.2310 C   0  0  0  0  0  0  0  0  0  0  0  0
  139.8090   74.6250  221.9210 O   0  0  0  0  0  0  0  0  0  0  0  0
  140.0570   76.6380  220.8510 N   0  0  0  0  0  0  0  0  0  0  0  0
  138.6560   77.0050  221.1850 C   0  0  0  0  0  0  0  0  0  0  0  0
  138.1613   77.3547  220.2669 H   0  0  0  0  0  0  0  0  0  0  0  0
  138.1813   76.1054  221.6039 H   0  0  0  0  0  0  0  0  0  0  0  0
  138.5370   78.1200  222.2600 C   0  0  0  0  0  0  0  0  0  0  0  0
  137.7568   77.7513  222.9421 H   0  0  0  0  0  0  0  0  0  0  0  0
  138.0630   79.4670  221.6870 C   0  0  0  0  0  0  0  0  0  0  0  0
  138.8594   79.8832  221.0525 H   0  0  0  0  0  0  0  0  0  0  0  0
  137.1462   79.2860  221.1067 H   0  0  0  0  0  0  0  0  0  0  0  0
  137.7300   80.4840  222.8010 C   0  0  0  0  0  0  0  0  0  0  0  0
  138.0628   81.4796  222.4724 H   0  0  0  0  0  0  0  0  0  0  0  0
  136.6432   80.4358  222.9642 H   0  0  0  0  0  0  0  0  0  0  0  0
  138.4010   80.1690  224.1520 C   0  0  0  0  0  0  0  0  0  0  0  0
  138.4692   81.0952  224.7415 H   0  0  0  0  0  0  0  0  0  0  0  0
  137.7905   79.4166  224.6728 H   0  0  0  0  0  0  0  0  0  0  0  0
  139.8090   79.5960  223.9610 C   0  0  0  0  0  0  0  0  0  0  0  0
  140.4350   80.3584  223.4742 H   0  0  0  0  0  0  0  0  0  0  0  0
  140.1925   79.3250  224.9557 H   0  0  0  0  0  0  0  0  0  0  0  0
  139.8260   78.3160  223.0930 C   0  0  0  0  0  0  0  0  0  0  0  0
  140.6811   78.3739  222.4035 H   0  0  0  0  0  0  0  0  0  0  0  0
  139.9019   77.4598  223.7794 H   0  0  0  0  0  0  0  0  0  0  0  0
  141.7720   80.3870  221.2990 C   0  0  0  0  0  0  0  0  0  0  0  0
  141.3800   81.6330  221.8280 C   0  0  0  0  0  0  0  0  0  0  0  0
  140.7332   82.2999  221.2391 H   0  0  0  0  0  0  0  0  0  0  0  0
  141.7990   82.0130  223.0640 N   0  0  0  0  0  0  0  0  0  0  0  0
  142.5960   81.2210  223.8270 C   0  0  0  0  0  0  0  0  0  0  0  0
  142.9236   81.5633  224.8197 H   0  0  0  0  0  0  0  0  0  0  0  0
  142.9990   79.9730  223.3510 C   0  0  0  0  0  0  0  0  0  0  0  0
  143.6420   79.3258  223.9656 H   0  0  0  0  0  0  0  0  0  0  0  0
  142.5790   79.5530  222.0880 C   0  0  0  0  0  0  0  0  0  0  0  0
  142.8814   78.5653  221.7099 H   0  0  0  0  0  0  0  0  0  0  0  0
  1  2  1  0
  2  3  2  0
  3  4  1  0
  3  5  1  0
  5  6  2  0
  6  7  1  0
  7  8  2  0
  8  9  1  0
  8 10  1  0
 10 11  1  0
 10 12  2  0
 12 13  1  0
 12 14  1  0
 14 15  1  0
 14 16  2  0
 16 17  1  0
 17 18  2  0
 17 19  1  0
 19 20  1  0
 20 21  1  0
 20 22  1  0
 20 23  1  0
 23 24  1  0
 23 25  1  0
 25 26  1  0
 25 27  1  0
 25 28  1  0
 28 29  1  0
 28 30  1  0
 28 31  1  0
 31 32  1  0
 31 33  1  0
 31 34  1  0
 34 35  1  0
 34 36  1  0
 34 37  1  0
 37 38  1  0
 37 39  1  0
  2 40  1  0
 40 41  2  0
 41 42  1  0
 41 43  1  0
 43 44  2  0
 44 45  1  0
 44 46  1  0
 46 47  1  0
 46 48  2  0
 48 49  1  0
 19  5  1  0
 37 23  1  0
 48 40  1  0
 16  7  1  0
M  END
>  <UniqueID>  (66) 
26

>  <SMILES>  (66) 
O=c1c2ccccc2nc(/C=C/c2cccnc2)n1CC1CCCCC1

>  <Energy>  (66) 
70.64879791517129

>  <Genealogy>  (66) 
O=c1c2ccccc2nc(/C=C/c2cccnc2)n1CC1CCCCC1 (cis-trans isomerization)
O=c1c2ccccc2nc(/C=C/c2cccnc2)n1CC1CCCCC1 (3D coordinates assigned)
O=c1c2ccccc2nc(/C=C/c2cccnc2)n1CC1CCCCC1 (nonaromatic ring conformer: 70.64879791517129 kcal/mol)

>  <smiles>  (66) 
O=c1c2ccccc2nc(/C=C/c2cccnc2)n1CC1CCCCC1

>  <score_type>  (66) 
oracle

>  <origin>  (66) 
autodockgpu

>  <m_score__min__energy>  (66) 
-7.2300000000000004

>  <m_primary>  (66) 
energy

>  <meeko>  (66) 
{"free_energy": -6.35, "intermolecular_energy": -7.84, "internal_energy": -1.97, "cluster_size": 1, "cluster_id": 8, "rank_in_cluster": 1}

>  <energy>  (66) 
-7.15

>  <cluster_rmsd>  (66) 
0.0

>  <rmsd>  (66) 
269.25

>  <cluster>  (66) 
2

$$$$
XUFANRSCLZKORJ-OUKQBFOZNA-N
     RDKit          3D

 49 52  0  0  0  0  0  0  0  0999 V2000
  143.6778   75.9299  218.0132 H   0  0  0  0  0  0  0  0  0  0  0  0
  143.5940   75.5390  219.0380 C   0  0  0  0  0  0  0  0  0  0  0  0
  142.7260   76.1320  219.8720 C   0  0  0  0  0  0  0  0  0  0  0  0
  142.8375   77.2029  220.0971 H   0  0  0  0  0  0  0  0  0  0  0  0
  141.6190   75.3670  220.4950 C   0  0  0  0  0  0  0  0  0  0  0  0
  141.7690   74.0180  220.5860 N   0  0  0  0  0  0  0  0  0  0  0  0
  140.8420   73.2270  221.1690 C   0  0  0  0  0  0  0  0  0  0  0  0
  141.0460   71.8440  221.2380 C   0  0  0  0  0  0  0  0  0  0  0  0
  141.9550   71.3998  220.8062 H   0  0  0  0  0  0  0  0  0  0  0  0
  140.0940   71.0270  221.8560 C   0  0  0  0  0  0  0  0  0  0  0  0
  140.2537   69.9400  221.9091 H   0  0  0  0  0  0  0  0  0  0  0  0
  138.9400   71.5910  222.4060 C   0  0  0  0  0  0  0  0  0  0  0  0
  138.1926   70.9464  222.8917 H   0  0  0  0  0  0  0  0  0  0  0  0
  138.7320   72.9730  222.3410 C   0  0  0  0  0  0  0  0  0  0  0  0
  137.8224   73.4127  222.7761 H   0  0  0  0  0  0  0  0  0  0  0  0
  139.6860   73.8020  221.7190 C   0  0  0  0  0  0  0  0  0  0  0  0
  139.5280   75.1940  221.6250 C   0  0  0  0  0  0  0  0  0  0  0  0
  138.5050   75.7300  222.1370 O   0  0  0  0  0  0  0  0  0  0  0  0
  140.4730   75.9680  220.9860 N   0  0  0  0  0  0  0  0  0  0  0  0
  140.2220   77.4250  220.8280 C   0  0  0  0  0  0  0  0  0  0  0  0
  140.3338   77.6824  219.7644 H   0  0  0  0  0  0  0  0  0  0  0  0
  139.2063   77.6168  221.2043 H   0  0  0  0  0  0  0  0  0  0  0  0
  141.1850   78.3220  221.6520 C   0  0  0  0  0  0  0  0  0  0  0  0
  142.1288   77.7572  221.6655 H   0  0  0  0  0  0  0  0  0  0  0  0
  140.7310   78.5200  223.1100 C   0  0  0  0  0  0  0  0  0  0  0  0
  139.8225   79.1402  223.1181 H   0  0  0  0  0  0  0  0  0  0  0  0
  140.5387   77.5277  223.5441 H   0  0  0  0  0  0  0  0  0  0  0  0
  141.8160   79.2130  223.9640 C   0  0  0  0  0  0  0  0  0  0  0  0
  141.3200   79.9073  224.6582 H   0  0  0  0  0  0  0  0  0  0  0  0
  142.3685   78.4182  224.4866 H   0  0  0  0  0  0  0  0  0  0  0  0
  142.8470   80.0070  223.1360 C   0  0  0  0  0  0  0  0  0  0  0  0
  143.3035   80.7760  223.7765 H   0  0  0  0  0  0  0  0  0  0  0  0
  143.6069   79.3032  222.7656 H   0  0  0  0  0  0  0  0  0  0  0  0
  142.1950   80.6880  221.9290 C   0  0  0  0  0  0  0  0  0  0  0  0
  141.4602   81.4207  222.2940 H   0  0  0  0  0  0  0  0  0  0  0  0
  142.9966   81.1668  221.3474 H   0  0  0  0  0  0  0  0  0  0  0  0
  141.4740   79.6910  220.9920 C   0  0  0  0  0  0  0  0  0  0  0  0
  140.5176   80.1359  220.6800 H   0  0  0  0  0  0  0  0  0  0  0  0
  142.1449   79.5043  220.1405 H   0  0  0  0  0  0  0  0  0  0  0  0
  144.4460   74.3880  219.4180 C   0  0  0  0  0  0  0  0  0  0  0  0
  144.8270   73.3870  218.5010 C   0  0  0  0  0  0  0  0  0  0  0  0
  144.4783   73.4365  217.4589 H   0  0  0  0  0  0  0  0  0  0  0  0
  145.6240   72.3610  218.9010 N   0  0  0  0  0  0  0  0  0  0  0  0
  146.0790   72.2620  220.1770 C   0  0  0  0  0  0  0  0  0  0  0  0
  146.7156   71.4140  220.4695 H   0  0  0  0  0  0  0  0  0  0  0  0
  145.7390   73.2360  221.1170 C   0  0  0  0  0  0  0  0  0  0  0  0
  146.1076   73.1625  222.1508 H   0  0  0  0  0  0  0  0  0  0  0  0
  144.9270   74.3040  220.7330 C   0  0  0  0  0  0  0  0  0  0  0  0
  144.6633   75.0826  221.4639 H   0  0  0  0  0  0  0  0  0  0  0  0
  1  2  1  0
  2  3  2  0
  3  4  1  0
  3  5  1  0
  5  6  2  0
  6  7  1  0
  7  8  2  0
  8  9  1  0
  8 10  1  0
 10 11  1  0
 10 12  2  0
 12 13  1  0
 12 14  1  0
 14 15  1  0
 14 16  2  0
 16 17  1  0
 17 18  2  0
 17 19  1  0
 19 20  1  0
 20 21  1  0
 20 22  1  0
 20 23  1  0
 23 24  1  0
 23 25  1  0
 25 26  1  0
 25 27  1  0
 25 28  1  0
 28 29  1  0
 28 30  1  0
 28 31  1  0
 31 32  1  0
 31 33  1  0
 31 34  1  0
 34 35  1  0
 34 36  1  0
 34 37  1  0
 37 38  1  0
 37 39  1  0
  2 40  1  0
 40 41  2  0
 41 42  1  0
 41 43  1  0
 43 44  2  0
 44 45  1  0
 44 46  1  0
 46 47  1  0
 46 48  2  0
 48 49  1  0
 19  5  1  0
 37 23  1  0
 48 40  1  0
 16  7  1  0
M  END
>  <UniqueID>  (67) 
26

>  <SMILES>  (67) 
O=c1c2ccccc2nc(/C=C/c2cccnc2)n1CC1CCCCC1

>  <Energy>  (67) 
70.64879791517129

>  <Genealogy>  (67) 
O=c1c2ccccc2nc(/C=C/c2cccnc2)n1CC1CCCCC1 (cis-trans isomerization)
O=c1c2ccccc2nc(/C=C/c2cccnc2)n1CC1CCCCC1 (3D coordinates assigned)
O=c1c2ccccc2nc(/C=C/c2cccnc2)n1CC1CCCCC1 (nonaromatic ring conformer: 70.64879791517129 kcal/mol)

>  <smiles>  (67) 
O=c1c2ccccc2nc(/C=C/c2cccnc2)n1CC1CCCCC1

>  <score_type>  (67) 
oracle

>  <origin>  (67) 
autodockgpu

>  <m_score__min__energy>  (67) 
-7.2300000000000004

>  <m_primary>  (67) 
energy

>  <meeko>  (67) 
{"free_energy": -7.08, "intermolecular_energy": -8.58, "internal_energy": -1.31, "cluster_size": 2, "cluster_id": 3, "rank_in_cluster": 1}

>  <energy>  (67) 
-7.11

>  <cluster_rmsd>  (67) 
0.14

>  <rmsd>  (67) 
269.21

>  <cluster>  (67) 
2

$$$$
XUFANRSCLZKORJ-OUKQBFOZNA-N
     RDKit          3D

 49 52  0  0  0  0  0  0  0  0999 V2000
  135.4981   69.2527  222.2830 H   0  0  0  0  0  0  0  0  0  0  0  0
  135.9880   69.1770  223.2650 C   0  0  0  0  0  0  0  0  0  0  0  0
  137.2510   68.7290  223.3080 C   0  0  0  0  0  0  0  0  0  0  0  0
  137.5876   67.9880  222.5679 H   0  0  0  0  0  0  0  0  0  0  0  0
  138.2020   69.2160  224.3370 C   0  0  0  0  0  0  0  0  0  0  0  0
  138.4740   68.3820  225.3770 N   0  0  0  0  0  0  0  0  0  0  0  0
  139.3520   68.7050  226.3510 C   0  0  0  0  0  0  0  0  0  0  0  0
  139.5980   67.8100  227.3980 C   0  0  0  0  0  0  0  0  0  0  0  0
  139.0663   66.8477  227.4350 H   0  0  0  0  0  0  0  0  0  0  0  0
  140.5190   68.1380  228.3970 C   0  0  0  0  0  0  0  0  0  0  0  0
  140.7101   67.4349  229.2211 H   0  0  0  0  0  0  0  0  0  0  0  0
  141.1970   69.3590  228.3490 C   0  0  0  0  0  0  0  0  0  0  0  0
  141.9210   69.6154  229.1365 H   0  0  0  0  0  0  0  0  0  0  0  0
  140.9580   70.2560  227.3030 C   0  0  0  0  0  0  0  0  0  0  0  0
  141.4959   71.2149  227.2679 H   0  0  0  0  0  0  0  0  0  0  0  0
  140.0290   69.9330  226.2940 C   0  0  0  0  0  0  0  0  0  0  0  0
  139.7490   70.7970  225.2230 C   0  0  0  0  0  0  0  0  0  0  0  0
  140.3680   71.8960  225.1440 O   0  0  0  0  0  0  0  0  0  0  0  0
  138.8150   70.4550  224.2680 N   0  0  0  0  0  0  0  0  0  0  0  0
  138.4820   71.4360  223.2030 C   0  0  0  0  0  0  0  0  0  0  0  0
  137.8228   70.9439  222.4727 H   0  0  0  0  0  0  0  0  0  0  0  0
  137.9999   72.2924  223.6971 H   0  0  0  0  0  0  0  0  0  0  0  0
  139.7210   71.9900  222.4480 C   0  0  0  0  0  0  0  0  0  0  0  0
  140.5029   72.0390  223.2202 H   0  0  0  0  0  0  0  0  0  0  0  0
  139.5110   73.4120  221.8980 C   0  0  0  0  0  0  0  0  0  0  0  0
  138.7784   73.3711  221.0784 H   0  0  0  0  0  0  0  0  0  0  0  0
  139.1513   74.0452  222.7224 H   0  0  0  0  0  0  0  0  0  0  0  0
  140.8240   74.0260  221.3630 C   0  0  0  0  0  0  0  0  0  0  0  0
  140.5920   74.6075  220.4586 H   0  0  0  0  0  0  0  0  0  0  0  0
  141.2384   74.6497  222.1688 H   0  0  0  0  0  0  0  0  0  0  0  0
  141.8990   72.9790  221.0060 C   0  0  0  0  0  0  0  0  0  0  0  0
  142.5977   73.4180  220.2786 H   0  0  0  0  0  0  0  0  0  0  0  0
  142.4231   72.6940  221.9302 H   0  0  0  0  0  0  0  0  0  0  0  0
  141.2760   71.7180  220.3990 C   0  0  0  0  0  0  0  0  0  0  0  0
  140.7813   71.9906  219.4551 H   0  0  0  0  0  0  0  0  0  0  0  0
  142.0875   70.9922  220.2416 H   0  0  0  0  0  0  0  0  0  0  0  0
  140.2340   71.0540  221.3280 C   0  0  0  0  0  0  0  0  0  0  0  0
  139.3751   70.7376  220.7179 H   0  0  0  0  0  0  0  0  0  0  0  0
  140.7323   70.2049  221.8187 H   0  0  0  0  0  0  0  0  0  0  0  0
  135.2140   69.5760  224.4640 C   0  0  0  0  0  0  0  0  0  0  0  0
  134.6560   68.6390  225.3570 C   0  0  0  0  0  0  0  0  0  0  0  0
  134.7773   67.5621  225.1686 H   0  0  0  0  0  0  0  0  0  0  0  0
  133.9680   69.0630  226.4510 N   0  0  0  0  0  0  0  0  0  0  0  0
  133.7970   70.3820  226.7240 C   0  0  0  0  0  0  0  0  0  0  0  0
  133.2286   70.6900  227.6140 H   0  0  0  0  0  0  0  0  0  0  0  0
  134.3420   71.3470  225.8760 C   0  0  0  0  0  0  0  0  0  0  0  0
  134.2086   72.4170  226.0937 H   0  0  0  0  0  0  0  0  0  0  0  0
  135.0580   70.9410  224.7490 C   0  0  0  0  0  0  0  0  0  0  0  0
  135.5019   71.6942  224.0814 H   0  0  0  0  0  0  0  0  0  0  0  0
  1  2  1  0
  2  3  2  0
  3  4  1  0
  3  5  1  0
  5  6  2  0
  6  7  1  0
  7  8  2  0
  8  9  1  0
  8 10  1  0
 10 11  1  0
 10 12  2  0
 12 13  1  0
 12 14  1  0
 14 15  1  0
 14 16  2  0
 16 17  1  0
 17 18  2  0
 17 19  1  0
 19 20  1  0
 20 21  1  0
 20 22  1  0
 20 23  1  0
 23 24  1  0
 23 25  1  0
 25 26  1  0
 25 27  1  0
 25 28  1  0
 28 29  1  0
 28 30  1  0
 28 31  1  0
 31 32  1  0
 31 33  1  0
 31 34  1  0
 34 35  1  0
 34 36  1  0
 34 37  1  0
 37 38  1  0
 37 39  1  0
  2 40  1  0
 40 41  2  0
 41 42  1  0
 41 43  1  0
 43 44  2  0
 44 45  1  0
 44 46  1  0
 46 47  1  0
 46 48  2  0
 48 49  1  0
 19  5  1  0
 37 23  1  0
 48 40  1  0
 16  7  1  0
M  END
>  <UniqueID>  (68) 
26

>  <SMILES>  (68) 
O=c1c2ccccc2nc(/C=C/c2cccnc2)n1CC1CCCCC1

>  <Energy>  (68) 
70.64879791517129

>  <Genealogy>  (68) 
O=c1c2ccccc2nc(/C=C/c2cccnc2)n1CC1CCCCC1 (cis-trans isomerization)
O=c1c2ccccc2nc(/C=C/c2cccnc2)n1CC1CCCCC1 (3D coordinates assigned)
O=c1c2ccccc2nc(/C=C/c2cccnc2)n1CC1CCCCC1 (nonaromatic ring conformer: 70.64879791517129 kcal/mol)

>  <smiles>  (68) 
O=c1c2ccccc2nc(/C=C/c2cccnc2)n1CC1CCCCC1

>  <score_type>  (68) 
oracle

>  <origin>  (68) 
autodockgpu

>  <m_score__min__energy>  (68) 
-7.2300000000000004

>  <m_primary>  (68) 
energy

>  <meeko>  (68) 
{"free_energy": -7.11, "intermolecular_energy": -8.6, "internal_energy": -1.36, "cluster_size": 8, "cluster_id": 2, "rank_in_cluster": 2}

>  <energy>  (68) 
-7.09

>  <cluster_rmsd>  (68) 
0.25

>  <rmsd>  (68) 
269.16

>  <cluster>  (68) 
2

$$$$
XUFANRSCLZKORJ-OUKQBFOZNA-N
     RDKit          3D

 49 52  0  0  0  0  0  0  0  0999 V2000
  143.7880   76.5923  218.6566 H   0  0  0  0  0  0  0  0  0  0  0  0
  143.3160   75.7150  219.1230 C   0  0  0  0  0  0  0  0  0  0  0  0
  141.9980   75.7620  219.3700 C   0  0  0  0  0  0  0  0  0  0  0  0
  141.3099   75.1677  218.7508 H   0  0  0  0  0  0  0  0  0  0  0  0
  141.4540   76.6020  220.4640 C   0  0  0  0  0  0  0  0  0  0  0  0
  142.1940   77.6770  220.8500 N   0  0  0  0  0  0  0  0  0  0  0  0
  141.7780   78.5310  221.8090 C   0  0  0  0  0  0  0  0  0  0  0  0
  142.5770   79.6240  222.1690 C   0  0  0  0  0  0  0  0  0  0  0  0
  143.5498   79.7792  221.6795 H   0  0  0  0  0  0  0  0  0  0  0  0
  142.1380   80.5170  223.1500 C   0  0  0  0  0  0  0  0  0  0  0  0
  142.7666   81.3742  223.4330 H   0  0  0  0  0  0  0  0  0  0  0  0
  140.9020   80.3230  223.7720 C   0  0  0  0  0  0  0  0  0  0  0  0
  140.5594   81.0278  224.5440 H   0  0  0  0  0  0  0  0  0  0  0  0
  140.0990   79.2340  223.4150 C   0  0  0  0  0  0  0  0  0  0  0  0
  139.1260   79.0847  223.9059 H   0  0  0  0  0  0  0  0  0  0  0  0
  140.5350   78.3290  222.4280 C   0  0  0  0  0  0  0  0  0  0  0  0
  139.7700   77.2190  222.0340 C   0  0  0  0  0  0  0  0  0  0  0  0
  138.6370   77.0360  222.5630 O   0  0  0  0  0  0  0  0  0  0  0  0
  140.2430   76.3410  221.0800 N   0  0  0  0  0  0  0  0  0  0  0  0
  139.4430   75.1310  220.7580 C   0  0  0  0  0  0  0  0  0  0  0  0
  138.3807   75.3643  220.9227 H   0  0  0  0  0  0  0  0  0  0  0  0
  139.6616   74.8732  219.7112 H   0  0  0  0  0  0  0  0  0  0  0  0
  139.8090   73.8880  221.6140 C   0  0  0  0  0  0  0  0  0  0  0  0
  140.2081   74.3144  222.5461 H   0  0  0  0  0  0  0  0  0  0  0  0
  140.9120   73.0200  220.9830 C   0  0  0  0  0  0  0  0  0  0  0  0
  140.5090   72.5321  220.0833 H   0  0  0  0  0  0  0  0  0  0  0  0
  141.7597   73.6753  220.7340 H   0  0  0  0  0  0  0  0  0  0  0  0
  141.4190   71.9320  221.9560 C   0  0  0  0  0  0  0  0  0  0  0  0
  141.6125   71.0149  221.3803 H   0  0  0  0  0  0  0  0  0  0  0  0
  142.3267   72.3282  222.4346 H   0  0  0  0  0  0  0  0  0  0  0  0
  140.4260   71.5960  223.0860 C   0  0  0  0  0  0  0  0  0  0  0  0
  140.6426   70.5856  223.4630 H   0  0  0  0  0  0  0  0  0  0  0  0
  140.5439   72.3457  223.8823 H   0  0  0  0  0  0  0  0  0  0  0  0
  138.9760   71.6430  222.5940 C   0  0  0  0  0  0  0  0  0  0  0  0
  138.8416   70.8695  221.8235 H   0  0  0  0  0  0  0  0  0  0  0  0
  138.3263   71.4708  223.4648 H   0  0  0  0  0  0  0  0  0  0  0  0
  138.5890   73.0140  221.9900 C   0  0  0  0  0  0  0  0  0  0  0  0
  137.9928   72.8390  221.0823 H   0  0  0  0  0  0  0  0  0  0  0  0
  138.0245   73.5598  222.7604 H   0  0  0  0  0  0  0  0  0  0  0  0
  144.1720   74.5480  219.4430 C   0  0  0  0  0  0  0  0  0  0  0  0
  144.7850   73.7580  218.4500 C   0  0  0  0  0  0  0  0  0  0  0  0
  144.6248   73.9914  217.3871 H   0  0  0  0  0  0  0  0  0  0  0  0
  145.5740   72.7080  218.8020 N   0  0  0  0  0  0  0  0  0  0  0  0
  145.8030   72.3870  220.1020 C   0  0  0  0  0  0  0  0  0  0  0  0
  146.4409   71.5264  220.3520 H   0  0  0  0  0  0  0  0  0  0  0  0
  145.2290   73.1490  221.1200 C   0  0  0  0  0  0  0  0  0  0  0  0
  145.4137   72.8958  222.1744 H   0  0  0  0  0  0  0  0  0  0  0  0
  144.4180   74.2360  220.7880 C   0  0  0  0  0  0  0  0  0  0  0  0
  143.9706   74.8496  221.5839 H   0  0  0  0  0  0  0  0  0  0  0  0
  1  2  1  0
  2  3  2  0
  3  4  1  0
  3  5  1  0
  5  6  2  0
  6  7  1  0
  7  8  2  0
  8  9  1  0
  8 10  1  0
 10 11  1  0
 10 12  2  0
 12 13  1  0
 12 14  1  0
 14 15  1  0
 14 16  2  0
 16 17  1  0
 17 18  2  0
 17 19  1  0
 19 20  1  0
 20 21  1  0
 20 22  1  0
 20 23  1  0
 23 24  1  0
 23 25  1  0
 25 26  1  0
 25 27  1  0
 25 28  1  0
 28 29  1  0
 28 30  1  0
 28 31  1  0
 31 32  1  0
 31 33  1  0
 31 34  1  0
 34 35  1  0
 34 36  1  0
 34 37  1  0
 37 38  1  0
 37 39  1  0
  2 40  1  0
 40 41  2  0
 41 42  1  0
 41 43  1  0
 43 44  2  0
 44 45  1  0
 44 46  1  0
 46 47  1  0
 46 48  2  0
 48 49  1  0
 19  5  1  0
 37 23  1  0
 48 40  1  0
 16  7  1  0
M  END
>  <UniqueID>  (69) 
26

>  <SMILES>  (69) 
O=c1c2ccccc2nc(/C=C/c2cccnc2)n1CC1CCCCC1

>  <Energy>  (69) 
70.64879791517129

>  <Genealogy>  (69) 
O=c1c2ccccc2nc(/C=C/c2cccnc2)n1CC1CCCCC1 (cis-trans isomerization)
O=c1c2ccccc2nc(/C=C/c2cccnc2)n1CC1CCCCC1 (3D coordinates assigned)
O=c1c2ccccc2nc(/C=C/c2cccnc2)n1CC1CCCCC1 (nonaromatic ring conformer: 70.64879791517129 kcal/mol)

>  <smiles>  (69) 
O=c1c2ccccc2nc(/C=C/c2cccnc2)n1CC1CCCCC1

>  <score_type>  (69) 
oracle

>  <origin>  (69) 
autodockgpu

>  <m_score__min__energy>  (69) 
-7.2300000000000004

>  <m_primary>  (69) 
energy

>  <meeko>  (69) 
{"free_energy": -6.85, "intermolecular_energy": -8.35, "internal_energy": -1.48, "cluster_size": 1, "cluster_id": 6, "rank_in_cluster": 1}

>  <energy>  (69) 
-7.03

>  <cluster_rmsd>  (69) 
0.22

>  <rmsd>  (69) 
269.17

>  <cluster>  (69) 
2

$$$$
XUFANRSCLZKORJ-OUKQBFOZNA-N
     RDKit          3D

 49 52  0  0  0  0  0  0  0  0999 V2000
  135.4884   68.8088  222.2584 H   0  0  0  0  0  0  0  0  0  0  0  0
  136.0480   68.9270  223.1980 C   0  0  0  0  0  0  0  0  0  0  0  0
  137.3540   68.6240  223.1980 C   0  0  0  0  0  0  0  0  0  0  0  0
  137.7598   67.9799  222.4040 H   0  0  0  0  0  0  0  0  0  0  0  0
  138.2610   69.1430  224.2510 C   0  0  0  0  0  0  0  0  0  0  0  0
  138.5280   68.3210  225.3020 N   0  0  0  0  0  0  0  0  0  0  0  0
  139.3680   68.6730  226.2980 C   0  0  0  0  0  0  0  0  0  0  0  0
  139.6100   67.7890  227.3560 C   0  0  0  0  0  0  0  0  0  0  0  0
  139.1055   66.8119  227.3826 H   0  0  0  0  0  0  0  0  0  0  0  0
  140.4930   68.1480  228.3790 C   0  0  0  0  0  0  0  0  0  0  0  0
  140.6816   67.4537  229.2111 H   0  0  0  0  0  0  0  0  0  0  0  0
  141.1360   69.3880  228.3450 C   0  0  0  0  0  0  0  0  0  0  0  0
  141.8299   69.6682  229.1512 H   0  0  0  0  0  0  0  0  0  0  0  0
  140.9000   70.2740  227.2890 C   0  0  0  0  0  0  0  0  0  0  0  0
  141.4099   71.2484  227.2650 H   0  0  0  0  0  0  0  0  0  0  0  0
  140.0100   69.9200  226.2560 C   0  0  0  0  0  0  0  0  0  0  0  0
  139.7350   70.7720  225.1740 C   0  0  0  0  0  0  0  0  0  0  0  0
  140.3240   71.8880  225.1070 O   0  0  0  0  0  0  0  0  0  0  0  0
  138.8390   70.3990  224.1940 N   0  0  0  0  0  0  0  0  0  0  0  0
  138.5080   71.3660  223.1150 C   0  0  0  0  0  0  0  0  0  0  0  0
  137.8721   70.8561  222.3763 H   0  0  0  0  0  0  0  0  0  0  0  0
  138.0009   72.2168  223.5936 H   0  0  0  0  0  0  0  0  0  0  0  0
  139.7500   71.9380  222.3790 C   0  0  0  0  0  0  0  0  0  0  0  0
  140.5325   71.9563  223.1519 H   0  0  0  0  0  0  0  0  0  0  0  0
  139.5490   73.3790  221.8780 C   0  0  0  0  0  0  0  0  0  0  0  0
  138.8155   73.3708  221.0583 H   0  0  0  0  0  0  0  0  0  0  0  0
  139.1942   73.9861  222.7239 H   0  0  0  0  0  0  0  0  0  0  0  0
  140.8650   74.0020  221.3630 C   0  0  0  0  0  0  0  0  0  0  0  0
  140.6359   74.6151  220.4789 H   0  0  0  0  0  0  0  0  0  0  0  0
  141.2838   74.5952  222.1893 H   0  0  0  0  0  0  0  0  0  0  0  0
  141.9330   72.9620  220.9700 C   0  0  0  0  0  0  0  0  0  0  0  0
  142.6338   73.4213  220.2573 H   0  0  0  0  0  0  0  0  0  0  0  0
  142.4560   72.6427  221.8835 H   0  0  0  0  0  0  0  0  0  0  0  0
  141.3020   71.7260  220.3210 C   0  0  0  0  0  0  0  0  0  0  0  0
  140.8089   72.0334  219.3870 H   0  0  0  0  0  0  0  0  0  0  0  0
  142.1091   71.0010  220.1392 H   0  0  0  0  0  0  0  0  0  0  0  0
  140.2560   71.0370  221.2270 C   0  0  0  0  0  0  0  0  0  0  0  0
  139.3947   70.7476  220.6070 H   0  0  0  0  0  0  0  0  0  0  0  0
  140.7484   70.1679  221.6876 H   0  0  0  0  0  0  0  0  0  0  0  0
  135.3150   69.4120  224.3910 C   0  0  0  0  0  0  0  0  0  0  0  0
  134.6920   68.5420  225.3090 C   0  0  0  0  0  0  0  0  0  0  0  0
  134.7287   67.4549  225.1453 H   0  0  0  0  0  0  0  0  0  0  0  0
  134.0460   69.0420  226.3960 N   0  0  0  0  0  0  0  0  0  0  0  0
  133.9800   70.3770  226.6390 C   0  0  0  0  0  0  0  0  0  0  0  0
  133.4432   70.7488  227.5242 H   0  0  0  0  0  0  0  0  0  0  0  0
  134.5930   71.2770  225.7660 C   0  0  0  0  0  0  0  0  0  0  0  0
  134.5447   72.3588  225.9595 H   0  0  0  0  0  0  0  0  0  0  0  0
  135.2680   70.7910  224.6450 C   0  0  0  0  0  0  0  0  0  0  0  0
  135.7650   71.4919  223.9581 H   0  0  0  0  0  0  0  0  0  0  0  0
  1  2  1  0
  2  3  2  0
  3  4  1  0
  3  5  1  0
  5  6  2  0
  6  7  1  0
  7  8  2  0
  8  9  1  0
  8 10  1  0
 10 11  1  0
 10 12  2  0
 12 13  1  0
 12 14  1  0
 14 15  1  0
 14 16  2  0
 16 17  1  0
 17 18  2  0
 17 19  1  0
 19 20  1  0
 20 21  1  0
 20 22  1  0
 20 23  1  0
 23 24  1  0
 23 25  1  0
 25 26  1  0
 25 27  1  0
 25 28  1  0
 28 29  1  0
 28 30  1  0
 28 31  1  0
 31 32  1  0
 31 33  1  0
 31 34  1  0
 34 35  1  0
 34 36  1  0
 34 37  1  0
 37 38  1  0
 37 39  1  0
  2 40  1  0
 40 41  2  0
 41 42  1  0
 41 43  1  0
 43 44  2  0
 44 45  1  0
 44 46  1  0
 46 47  1  0
 46 48  2  0
 48 49  1  0
 19  5  1  0
 37 23  1  0
 48 40  1  0
 16  7  1  0
M  END
>  <UniqueID>  (70) 
26

>  <SMILES>  (70) 
O=c1c2ccccc2nc(/C=C/c2cccnc2)n1CC1CCCCC1

>  <Energy>  (70) 
70.64879791517129

>  <Genealogy>  (70) 
O=c1c2ccccc2nc(/C=C/c2cccnc2)n1CC1CCCCC1 (cis-trans isomerization)
O=c1c2ccccc2nc(/C=C/c2cccnc2)n1CC1CCCCC1 (3D coordinates assigned)
O=c1c2ccccc2nc(/C=C/c2cccnc2)n1CC1CCCCC1 (nonaromatic ring conformer: 70.64879791517129 kcal/mol)

>  <smiles>  (70) 
O=c1c2ccccc2nc(/C=C/c2cccnc2)n1CC1CCCCC1

>  <score_type>  (70) 
oracle

>  <origin>  (70) 
autodockgpu

>  <m_score__min__energy>  (70) 
-7.2300000000000004

>  <m_primary>  (70) 
energy

>  <meeko>  (70) 
{"free_energy": -7.03, "intermolecular_energy": -8.52, "internal_energy": -1.42, "cluster_size": 8, "cluster_id": 2, "rank_in_cluster": 4}

>  <energy>  (70) 
-7.02

>  <cluster_rmsd>  (70) 
0.23

>  <rmsd>  (70) 
269.15

>  <cluster>  (70) 
2

$$$$
XUFANRSCLZKORJ-OUKQBFOZNA-N
     RDKit          3D

 49 52  0  0  0  0  0  0  0  0999 V2000
  135.3266   68.4689  222.3402 H   0  0  0  0  0  0  0  0  0  0  0  0
  135.9480   68.7850  223.1910 C   0  0  0  0  0  0  0  0  0  0  0  0
  137.2770   68.6410  223.0910 C   0  0  0  0  0  0  0  0  0  0  0  0
  137.7010   68.1329  222.2123 H   0  0  0  0  0  0  0  0  0  0  0  0
  138.1860   69.1550  224.1450 C   0  0  0  0  0  0  0  0  0  0  0  0
  138.4640   68.3240  225.1850 N   0  0  0  0  0  0  0  0  0  0  0  0
  139.3080   68.6720  226.1810 C   0  0  0  0  0  0  0  0  0  0  0  0
  139.5620   67.7790  227.2280 C   0  0  0  0  0  0  0  0  0  0  0  0
  139.0644   66.7982  227.2470 H   0  0  0  0  0  0  0  0  0  0  0  0
  140.4480   68.1330  228.2500 C   0  0  0  0  0  0  0  0  0  0  0  0
  140.6469   67.4309  229.0731 H   0  0  0  0  0  0  0  0  0  0  0  0
  141.0810   69.3790  228.2260 C   0  0  0  0  0  0  0  0  0  0  0  0
  141.7767   69.6565  229.0316 H   0  0  0  0  0  0  0  0  0  0  0  0
  140.8320   70.2740  227.1800 C   0  0  0  0  0  0  0  0  0  0  0  0
  141.3338   71.2527  227.1636 H   0  0  0  0  0  0  0  0  0  0  0  0
  139.9400   69.9240  226.1480 C   0  0  0  0  0  0  0  0  0  0  0  0
  139.6530   70.7850  225.0770 C   0  0  0  0  0  0  0  0  0  0  0  0
  140.2320   71.9070  225.0190 O   0  0  0  0  0  0  0  0  0  0  0  0
  138.7540   70.4160  224.0980 N   0  0  0  0  0  0  0  0  0  0  0  0
  138.4090   71.3930  223.0320 C   0  0  0  0  0  0  0  0  0  0  0  0
  137.4363   71.1093  222.6037 H   0  0  0  0  0  0  0  0  0  0  0  0
  138.3889   72.3866  223.5036 H   0  0  0  0  0  0  0  0  0  0  0  0
  139.4490   71.4610  221.8810 C   0  0  0  0  0  0  0  0  0  0  0  0
  138.8955   71.9218  221.0495 H   0  0  0  0  0  0  0  0  0  0  0  0
  139.9320   70.0750  221.4160 C   0  0  0  0  0  0  0  0  0  0  0  0
  140.5430   69.6261  222.2130 H   0  0  0  0  0  0  0  0  0  0  0  0
  139.0451   69.4611  221.2006 H   0  0  0  0  0  0  0  0  0  0  0  0
  140.7780   70.1590  220.1270 C   0  0  0  0  0  0  0  0  0  0  0  0
  141.5974   69.4289  220.2017 H   0  0  0  0  0  0  0  0  0  0  0  0
  140.1017   69.9481  219.2855 H   0  0  0  0  0  0  0  0  0  0  0  0
  141.3890   71.5510  219.8740 C   0  0  0  0  0  0  0  0  0  0  0  0
  142.2680   71.4421  219.2216 H   0  0  0  0  0  0  0  0  0  0  0  0
  140.6236   72.1821  219.3987 H   0  0  0  0  0  0  0  0  0  0  0  0
  141.8200   72.2220  221.1810 C   0  0  0  0  0  0  0  0  0  0  0  0
  142.6120   71.6141  221.6428 H   0  0  0  0  0  0  0  0  0  0  0  0
  142.1726   73.2336  220.9315 H   0  0  0  0  0  0  0  0  0  0  0  0
  140.6600   72.3720  222.1930 C   0  0  0  0  0  0  0  0  0  0  0  0
  141.0370   72.1195  223.1951 H   0  0  0  0  0  0  0  0  0  0  0  0
  140.3078   73.4122  222.1305 H   0  0  0  0  0  0  0  0  0  0  0  0
  135.2680   69.3460  224.3830 C   0  0  0  0  0  0  0  0  0  0  0  0
  134.6340   68.5390  225.3490 C   0  0  0  0  0  0  0  0  0  0  0  0
  134.6205   67.4458  225.2272 H   0  0  0  0  0  0  0  0  0  0  0  0
  134.0390   69.1080  226.4310 N   0  0  0  0  0  0  0  0  0  0  0  0
  134.0350   70.4520  226.6240 C   0  0  0  0  0  0  0  0  0  0  0  0
  133.5379   70.8796  227.5072 H   0  0  0  0  0  0  0  0  0  0  0  0
  134.6620   71.2910  225.7010 C   0  0  0  0  0  0  0  0  0  0  0  0
  134.6650   72.3804  225.8533 H   0  0  0  0  0  0  0  0  0  0  0  0
  135.2850   70.7340  224.5830 C   0  0  0  0  0  0  0  0  0  0  0  0
  135.7912   71.3862  223.8561 H   0  0  0  0  0  0  0  0  0  0  0  0
  1  2  1  0
  2  3  2  0
  3  4  1  0
  3  5  1  0
  5  6  2  0
  6  7  1  0
  7  8  2  0
  8  9  1  0
  8 10  1  0
 10 11  1  0
 10 12  2  0
 12 13  1  0
 12 14  1  0
 14 15  1  0
 14 16  2  0
 16 17  1  0
 17 18  2  0
 17 19  1  0
 19 20  1  0
 20 21  1  0
 20 22  1  0
 20 23  1  0
 23 24  1  0
 23 25  1  0
 25 26  1  0
 25 27  1  0
 25 28  1  0
 28 29  1  0
 28 30  1  0
 28 31  1  0
 31 32  1  0
 31 33  1  0
 31 34  1  0
 34 35  1  0
 34 36  1  0
 34 37  1  0
 37 38  1  0
 37 39  1  0
  2 40  1  0
 40 41  2  0
 41 42  1  0
 41 43  1  0
 43 44  2  0
 44 45  1  0
 44 46  1  0
 46 47  1  0
 46 48  2  0
 48 49  1  0
 19  5  1  0
 37 23  1  0
 48 40  1  0
 16  7  1  0
M  END
>  <UniqueID>  (71) 
26

>  <SMILES>  (71) 
O=c1c2ccccc2nc(/C=C/c2cccnc2)n1CC1CCCCC1

>  <Energy>  (71) 
70.64879791517129

>  <Genealogy>  (71) 
O=c1c2ccccc2nc(/C=C/c2cccnc2)n1CC1CCCCC1 (cis-trans isomerization)
O=c1c2ccccc2nc(/C=C/c2cccnc2)n1CC1CCCCC1 (3D coordinates assigned)
O=c1c2ccccc2nc(/C=C/c2cccnc2)n1CC1CCCCC1 (nonaromatic ring conformer: 70.64879791517129 kcal/mol)

>  <smiles>  (71) 
O=c1c2ccccc2nc(/C=C/c2cccnc2)n1CC1CCCCC1

>  <score_type>  (71) 
oracle

>  <origin>  (71) 
autodockgpu

>  <m_score__min__energy>  (71) 
-7.2300000000000004

>  <m_primary>  (71) 
energy

>  <meeko>  (71) 
{"free_energy": -6.68, "intermolecular_energy": -8.17, "internal_energy": -1.61, "cluster_size": 8, "cluster_id": 2, "rank_in_cluster": 8}

>  <energy>  (71) 
-6.94

>  <cluster_rmsd>  (71) 
0.22

>  <rmsd>  (71) 
269.16

>  <cluster>  (71) 
2

$$$$
XUFANRSCLZKORJ-OUKQBFOZNA-N
     RDKit          3D

 49 52  0  0  0  0  0  0  0  0999 V2000
  140.7959   70.7278  220.7624 H   0  0  0  0  0  0  0  0  0  0  0  0
  140.1830   71.3780  221.4040 C   0  0  0  0  0  0  0  0  0  0  0  0
  139.2140   70.8100  222.1380 C   0  0  0  0  0  0  0  0  0  0  0  0
  138.1966   70.7353  221.7265 H   0  0  0  0  0  0  0  0  0  0  0  0
  139.4930   70.2810  223.4960 C   0  0  0  0  0  0  0  0  0  0  0  0
  140.0100   71.1490  224.4070 N   0  0  0  0  0  0  0  0  0  0  0  0
  140.2670   70.7870  225.6820 C   0  0  0  0  0  0  0  0  0  0  0  0
  140.7980   71.7200  226.5810 C   0  0  0  0  0  0  0  0  0  0  0  0
  141.0185   72.7439  226.2449 H   0  0  0  0  0  0  0  0  0  0  0  0
  141.0480   71.3500  227.9060 C   0  0  0  0  0  0  0  0  0  0  0  0
  141.4668   72.0825  228.6117 H   0  0  0  0  0  0  0  0  0  0  0  0
  140.7660   70.0500  228.3340 C   0  0  0  0  0  0  0  0  0  0  0  0
  140.9635   69.7613  229.3769 H   0  0  0  0  0  0  0  0  0  0  0  0
  140.2330   69.1140  227.4400 C   0  0  0  0  0  0  0  0  0  0  0  0
  140.0117   68.0920  227.7813 H   0  0  0  0  0  0  0  0  0  0  0  0
  139.9800   69.4800  226.1040 C   0  0  0  0  0  0  0  0  0  0  0  0
  139.4480   68.5820  225.1650 C   0  0  0  0  0  0  0  0  0  0  0  0
  139.1610   67.4080  225.5340 O   0  0  0  0  0  0  0  0  0  0  0  0
  139.2370   68.9710  223.8590 N   0  0  0  0  0  0  0  0  0  0  0  0
  138.7590   67.9630  222.8760 C   0  0  0  0  0  0  0  0  0  0  0  0
  139.4128   68.0036  221.9924 H   0  0  0  0  0  0  0  0  0  0  0  0
  138.7904   66.9856  223.3796 H   0  0  0  0  0  0  0  0  0  0  0  0
  137.2940   68.1840  222.4110 C   0  0  0  0  0  0  0  0  0  0  0  0
  137.3878   68.8558  221.5450 H   0  0  0  0  0  0  0  0  0  0  0  0
  136.4230   68.8910  223.4650 C   0  0  0  0  0  0  0  0  0  0  0  0
  136.2651   68.2070  224.3119 H   0  0  0  0  0  0  0  0  0  0  0  0
  136.9484   69.8036  223.7830 H   0  0  0  0  0  0  0  0  0  0  0  0
  135.0480   69.3060  222.8960 C   0  0  0  0  0  0  0  0  0  0  0  0
  134.2882   69.1489  223.6757 H   0  0  0  0  0  0  0  0  0  0  0  0
  135.1306   70.3609  222.5954 H   0  0  0  0  0  0  0  0  0  0  0  0
  134.6290   68.5130  221.6420 C   0  0  0  0  0  0  0  0  0  0  0  0
  133.5339   68.5502  221.5453 H   0  0  0  0  0  0  0  0  0  0  0  0
  135.1158   68.9691  220.7674 H   0  0  0  0  0  0  0  0  0  0  0  0
  135.0710   67.0500  221.7280 C   0  0  0  0  0  0  0  0  0  0  0  0
  134.5585   66.5781  222.5793 H   0  0  0  0  0  0  0  0  0  0  0  0
  134.8083   66.5695  220.7740 H   0  0  0  0  0  0  0  0  0  0  0  0
  136.5980   66.8920  221.9220 C   0  0  0  0  0  0  0  0  0  0  0  0
  136.7747   66.0991  222.6636 H   0  0  0  0  0  0  0  0  0  0  0  0
  137.0257   66.6459  220.9389 H   0  0  0  0  0  0  0  0  0  0  0  0
  140.4750   72.8310  221.4080 C   0  0  0  0  0  0  0  0  0  0  0  0
  139.6110   73.7800  221.9920 C   0  0  0  0  0  0  0  0  0  0  0  0
  138.6700   73.4518  222.4577 H   0  0  0  0  0  0  0  0  0  0  0  0
  139.9380   75.1000  221.9810 N   0  0  0  0  0  0  0  0  0  0  0  0
  141.0910   75.5480  221.4210 C   0  0  0  0  0  0  0  0  0  0  0  0
  141.3213   76.6236  221.4230 H   0  0  0  0  0  0  0  0  0  0  0  0
  141.9840   74.6450  220.8430 C   0  0  0  0  0  0  0  0  0  0  0  0
  142.9209   75.0027  220.3910 H   0  0  0  0  0  0  0  0  0  0  0  0
  141.6770   73.2840  220.8440 C   0  0  0  0  0  0  0  0  0  0  0  0
  142.3801   72.5634  220.4009 H   0  0  0  0  0  0  0  0  0  0  0  0
  1  2  1  0
  2  3  2  0
  3  4  1  0
  3  5  1  0
  5  6  2  0
  6  7  1  0
  7  8  2  0
  8  9  1  0
  8 10  1  0
 10 11  1  0
 10 12  2  0
 12 13  1  0
 12 14  1  0
 14 15  1  0
 14 16  2  0
 16 17  1  0
 17 18  2  0
 17 19  1  0
 19 20  1  0
 20 21  1  0
 20 22  1  0
 20 23  1  0
 23 24  1  0
 23 25  1  0
 25 26  1  0
 25 27  1  0
 25 28  1  0
 28 29  1  0
 28 30  1  0
 28 31  1  0
 31 32  1  0
 31 33  1  0
 31 34  1  0
 34 35  1  0
 34 36  1  0
 34 37  1  0
 37 38  1  0
 37 39  1  0
  2 40  1  0
 40 41  2  0
 41 42  1  0
 41 43  1  0
 43 44  2  0
 44 45  1  0
 44 46  1  0
 46 47  1  0
 46 48  2  0
 48 49  1  0
 19  5  1  0
 37 23  1  0
 48 40  1  0
 16  7  1  0
M  END
>  <UniqueID>  (72) 
26

>  <SMILES>  (72) 
O=c1c2ccccc2nc(/C=C/c2cccnc2)n1CC1CCCCC1

>  <Energy>  (72) 
70.64879791517129

>  <Genealogy>  (72) 
O=c1c2ccccc2nc(/C=C/c2cccnc2)n1CC1CCCCC1 (cis-trans isomerization)
O=c1c2ccccc2nc(/C=C/c2cccnc2)n1CC1CCCCC1 (3D coordinates assigned)
O=c1c2ccccc2nc(/C=C/c2cccnc2)n1CC1CCCCC1 (nonaromatic ring conformer: 70.64879791517129 kcal/mol)

>  <smiles>  (72) 
O=c1c2ccccc2nc(/C=C/c2cccnc2)n1CC1CCCCC1

>  <score_type>  (72) 
oracle

>  <origin>  (72) 
autodockgpu

>  <m_score__min__energy>  (72) 
-7.2300000000000004

>  <m_primary>  (72) 
energy

>  <meeko>  (72) 
{"free_energy": -7.22, "intermolecular_energy": -8.71, "internal_energy": -1.23, "cluster_size": 5, "cluster_id": 1, "rank_in_cluster": 2}

>  <energy>  (72) 
-6.75

>  <cluster_rmsd>  (72) 
0.48

>  <rmsd>  (72) 
269.02

>  <cluster>  (72) 
2

$$$$
XUFANRSCLZKORJ-OUKQBFOZNA-N
     RDKit          3D

 49 52  0  0  0  0  0  0  0  0999 V2000
  135.3774   68.9644  222.2467 H   0  0  0  0  0  0  0  0  0  0  0  0
  135.9370   69.0210  223.1920 C   0  0  0  0  0  0  0  0  0  0  0  0
  137.2330   68.6750  223.1810 C   0  0  0  0  0  0  0  0  0  0  0  0
  137.6077   68.0064  222.3920 H   0  0  0  0  0  0  0  0  0  0  0  0
  138.1690   69.1790  224.2150 C   0  0  0  0  0  0  0  0  0  0  0  0
  138.4570   68.3470  225.2520 N   0  0  0  0  0  0  0  0  0  0  0  0
  139.3250   68.6870  226.2290 C   0  0  0  0  0  0  0  0  0  0  0  0
  139.5880   67.7930  227.2740 C   0  0  0  0  0  0  0  0  0  0  0  0
  139.0778   66.8190  227.3059 H   0  0  0  0  0  0  0  0  0  0  0  0
  140.4990   68.1380  228.2770 C   0  0  0  0  0  0  0  0  0  0  0  0
  140.7040   67.4360  229.0987 H   0  0  0  0  0  0  0  0  0  0  0  0
  141.1490   69.3740  228.2360 C   0  0  0  0  0  0  0  0  0  0  0  0
  141.8648   69.6437  229.0265 H   0  0  0  0  0  0  0  0  0  0  0  0
  140.8920   70.2700  227.1920 C   0  0  0  0  0  0  0  0  0  0  0  0
  141.4078   71.2411  227.1621 H   0  0  0  0  0  0  0  0  0  0  0  0
  139.9740   69.9300  226.1800 C   0  0  0  0  0  0  0  0  0  0  0  0
  139.6780   70.7920  225.1110 C   0  0  0  0  0  0  0  0  0  0  0  0
  140.2710   71.9050  225.0380 O   0  0  0  0  0  0  0  0  0  0  0  0
  138.7540   70.4320  224.1520 N   0  0  0  0  0  0  0  0  0  0  0  0
  138.4020   71.4100  223.0900 C   0  0  0  0  0  0  0  0  0  0  0  0
  137.4237   71.1303  222.6720 H   0  0  0  0  0  0  0  0  0  0  0  0
  138.3911   72.4036  223.5618 H   0  0  0  0  0  0  0  0  0  0  0  0
  139.4300   71.4740  221.9280 C   0  0  0  0  0  0  0  0  0  0  0  0
  138.8640   71.9180  221.0959 H   0  0  0  0  0  0  0  0  0  0  0  0
  139.9230   70.0870  221.4770 C   0  0  0  0  0  0  0  0  0  0  0  0
  140.5464   69.6553  222.2739 H   0  0  0  0  0  0  0  0  0  0  0  0
  139.0407   69.4607  221.2787 H   0  0  0  0  0  0  0  0  0  0  0  0
  140.7560   70.1630  220.1780 C   0  0  0  0  0  0  0  0  0  0  0  0
  141.5838   69.4426  220.2540 H   0  0  0  0  0  0  0  0  0  0  0  0
  140.0740   69.9339  219.3459 H   0  0  0  0  0  0  0  0  0  0  0  0
  141.3500   71.5590  219.9010 C   0  0  0  0  0  0  0  0  0  0  0  0
  142.2240   71.4509  219.2418 H   0  0  0  0  0  0  0  0  0  0  0  0
  140.5733   72.1755  219.4249 H   0  0  0  0  0  0  0  0  0  0  0  0
  141.7860   72.2520  221.1950 C   0  0  0  0  0  0  0  0  0  0  0  0
  142.5893   71.6592  221.6570 H   0  0  0  0  0  0  0  0  0  0  0  0
  142.1247   73.2642  220.9290 H   0  0  0  0  0  0  0  0  0  0  0  0
  140.6340   72.4020  222.2160 C   0  0  0  0  0  0  0  0  0  0  0  0
  141.0234   72.1666  223.2175 H   0  0  0  0  0  0  0  0  0  0  0  0
  140.2695   73.4373  222.1431 H   0  0  0  0  0  0  0  0  0  0  0  0
  135.2160   69.4750  224.4040 C   0  0  0  0  0  0  0  0  0  0  0  0
  134.6580   68.5800  225.3390 C   0  0  0  0  0  0  0  0  0  0  0  0
  134.7388   67.4953  225.1752 H   0  0  0  0  0  0  0  0  0  0  0  0
  134.0200   69.0530  226.4430 N   0  0  0  0  0  0  0  0  0  0  0  0
  133.9020   70.3830  226.6870 C   0  0  0  0  0  0  0  0  0  0  0  0
  133.3741   70.7321  227.5867 H   0  0  0  0  0  0  0  0  0  0  0  0
  134.4500   71.3080  225.7970 C   0  0  0  0  0  0  0  0  0  0  0  0
  134.3584   72.3869  225.9910 H   0  0  0  0  0  0  0  0  0  0  0  0
  135.1150   70.8510  224.6590 C   0  0  0  0  0  0  0  0  0  0  0  0
  135.5619   71.5722  223.9589 H   0  0  0  0  0  0  0  0  0  0  0  0
  1  2  1  0
  2  3  2  0
  3  4  1  0
  3  5  1  0
  5  6  2  0
  6  7  1  0
  7  8  2  0
  8  9  1  0
  8 10  1  0
 10 11  1  0
 10 12  2  0
 12 13  1  0
 12 14  1  0
 14 15  1  0
 14 16  2  0
 16 17  1  0
 17 18  2  0
 17 19  1  0
 19 20  1  0
 20 21  1  0
 20 22  1  0
 20 23  1  0
 23 24  1  0
 23 25  1  0
 25 26  1  0
 25 27  1  0
 25 28  1  0
 28 29  1  0
 28 30  1  0
 28 31  1  0
 31 32  1  0
 31 33  1  0
 31 34  1  0
 34 35  1  0
 34 36  1  0
 34 37  1  0
 37 38  1  0
 37 39  1  0
  2 40  1  0
 40 41  2  0
 41 42  1  0
 41 43  1  0
 43 44  2  0
 44 45  1  0
 44 46  1  0
 46 47  1  0
 46 48  2  0
 48 49  1  0
 19  5  1  0
 37 23  1  0
 48 40  1  0
 16  7  1  0
M  END
>  <UniqueID>  (73) 
26

>  <SMILES>  (73) 
O=c1c2ccccc2nc(/C=C/c2cccnc2)n1CC1CCCCC1

>  <Energy>  (73) 
70.64879791517129

>  <Genealogy>  (73) 
O=c1c2ccccc2nc(/C=C/c2cccnc2)n1CC1CCCCC1 (cis-trans isomerization)
O=c1c2ccccc2nc(/C=C/c2cccnc2)n1CC1CCCCC1 (3D coordinates assigned)
O=c1c2ccccc2nc(/C=C/c2cccnc2)n1CC1CCCCC1 (nonaromatic ring conformer: 70.64879791517129 kcal/mol)

>  <smiles>  (73) 
O=c1c2ccccc2nc(/C=C/c2cccnc2)n1CC1CCCCC1

>  <score_type>  (73) 
oracle

>  <origin>  (73) 
autodockgpu

>  <m_score__min__energy>  (73) 
-7.2300000000000004

>  <m_primary>  (73) 
energy

>  <meeko>  (73) 
{"free_energy": -6.75, "intermolecular_energy": -8.24, "internal_energy": -1.58, "cluster_size": 8, "cluster_id": 2, "rank_in_cluster": 7}

>  <energy>  (73) 
-6.68

>  <cluster_rmsd>  (73) 
0.53

>  <rmsd>  (73) 
268.99

>  <cluster>  (73) 
2

$$$$
XUFANRSCLZKORJ-OUKQBFOZNA-N
     RDKit          3D

 49 52  0  0  0  0  0  0  0  0999 V2000
  135.5744   69.4951  222.3117 H   0  0  0  0  0  0  0  0  0  0  0  0
  136.0310   69.3380  223.3000 C   0  0  0  0  0  0  0  0  0  0  0  0
  137.2700   68.8270  223.3500 C   0  0  0  0  0  0  0  0  0  0  0  0
  137.5648   68.0518  222.6274 H   0  0  0  0  0  0  0  0  0  0  0  0
  138.2500   69.2900  224.3640 C   0  0  0  0  0  0  0  0  0  0  0  0
  138.4990   68.4590  225.4120 N   0  0  0  0  0  0  0  0  0  0  0  0
  139.3990   68.7600  226.3730 C   0  0  0  0  0  0  0  0  0  0  0  0
  139.6190   67.8690  227.4300 C   0  0  0  0  0  0  0  0  0  0  0  0
  139.0495   66.9295  227.4855 H   0  0  0  0  0  0  0  0  0  0  0  0
  140.5630   68.1740  228.4150 C   0  0  0  0  0  0  0  0  0  0  0  0
  140.7360   67.4742  229.2459 H   0  0  0  0  0  0  0  0  0  0  0  0
  141.2870   69.3670  228.3450 C   0  0  0  0  0  0  0  0  0  0  0  0
  142.0282   69.6051  229.1221 H   0  0  0  0  0  0  0  0  0  0  0  0
  141.0720   70.2590  227.2900 C   0  0  0  0  0  0  0  0  0  0  0  0
  141.6455   71.1962  227.2381 H   0  0  0  0  0  0  0  0  0  0  0  0
  140.1230   69.9600  226.2940 C   0  0  0  0  0  0  0  0  0  0  0  0
  139.8660   70.8200  225.2150 C   0  0  0  0  0  0  0  0  0  0  0  0
  140.5260   71.8930  225.1150 O   0  0  0  0  0  0  0  0  0  0  0  0
  138.9100   70.5030  224.2730 N   0  0  0  0  0  0  0  0  0  0  0  0
  138.6050   71.4830  223.1980 C   0  0  0  0  0  0  0  0  0  0  0  0
  137.8957   71.0187  222.4970 H   0  0  0  0  0  0  0  0  0  0  0  0
  138.1904   72.3762  223.6882 H   0  0  0  0  0  0  0  0  0  0  0  0
  139.8520   71.9460  222.3970 C   0  0  0  0  0  0  0  0  0  0  0  0
  140.6585   71.9611  223.1449 H   0  0  0  0  0  0  0  0  0  0  0  0
  139.7110   73.3680  221.8240 C   0  0  0  0  0  0  0  0  0  0  0  0
  138.9530   73.3563  221.0270 H   0  0  0  0  0  0  0  0  0  0  0  0
  139.4145   74.0376  222.6448 H   0  0  0  0  0  0  0  0  0  0  0  0
  141.0420   73.8900  221.2390 C   0  0  0  0  0  0  0  0  0  0  0  0
  140.8185   74.4681  220.3302 H   0  0  0  0  0  0  0  0  0  0  0  0
  141.5177   74.5012  222.0202 H   0  0  0  0  0  0  0  0  0  0  0  0
  142.0400   72.7740  220.8720 C   0  0  0  0  0  0  0  0  0  0  0  0
  142.7413   73.1567  220.1159 H   0  0  0  0  0  0  0  0  0  0  0  0
  142.5730   72.4748  221.7865 H   0  0  0  0  0  0  0  0  0  0  0  0
  141.3260   71.5420  220.3090 C   0  0  0  0  0  0  0  0  0  0  0  0
  140.8214   71.8257  219.3737 H   0  0  0  0  0  0  0  0  0  0  0  0
  142.0877   70.7657  220.1441 H   0  0  0  0  0  0  0  0  0  0  0  0
  140.2730   70.9600  221.2810 C   0  0  0  0  0  0  0  0  0  0  0  0
  139.3784   70.6865  220.7023 H   0  0  0  0  0  0  0  0  0  0  0  0
  140.7328   70.0906  221.7737 H   0  0  0  0  0  0  0  0  0  0  0  0
  135.2420   69.7030  224.5000 C   0  0  0  0  0  0  0  0  0  0  0  0
  134.6940   68.7420  225.3730 C   0  0  0  0  0  0  0  0  0  0  0  0
  134.8346   67.6706  225.1671 H   0  0  0  0  0  0  0  0  0  0  0  0
  133.9920   69.1350  226.4690 N   0  0  0  0  0  0  0  0  0  0  0  0
  133.7960   70.4460  226.7630 C   0  0  0  0  0  0  0  0  0  0  0  0
  133.2163   70.7292  227.6539 H   0  0  0  0  0  0  0  0  0  0  0  0
  134.3300   71.4340  225.9350 C   0  0  0  0  0  0  0  0  0  0  0  0
  134.1764   72.4976  226.1696 H   0  0  0  0  0  0  0  0  0  0  0  0
  135.0610   71.0600  224.8060 C   0  0  0  0  0  0  0  0  0  0  0  0
  135.4964   71.8318  224.1543 H   0  0  0  0  0  0  0  0  0  0  0  0
  1  2  1  0
  2  3  2  0
  3  4  1  0
  3  5  1  0
  5  6  2  0
  6  7  1  0
  7  8  2  0
  8  9  1  0
  8 10  1  0
 10 11  1  0
 10 12  2  0
 12 13  1  0
 12 14  1  0
 14 15  1  0
 14 16  2  0
 16 17  1  0
 17 18  2  0
 17 19  1  0
 19 20  1  0
 20 21  1  0
 20 22  1  0
 20 23  1  0
 23 24  1  0
 23 25  1  0
 25 26  1  0
 25 27  1  0
 25 28  1  0
 28 29  1  0
 28 30  1  0
 28 31  1  0
 31 32  1  0
 31 33  1  0
 31 34  1  0
 34 35  1  0
 34 36  1  0
 34 37  1  0
 37 38  1  0
 37 39  1  0
  2 40  1  0
 40 41  2  0
 41 42  1  0
 41 43  1  0
 43 44  2  0
 44 45  1  0
 44 46  1  0
 46 47  1  0
 46 48  2  0
 48 49  1  0
 19  5  1  0
 37 23  1  0
 48 40  1  0
 16  7  1  0
M  END
>  <UniqueID>  (74) 
26

>  <SMILES>  (74) 
O=c1c2ccccc2nc(/C=C/c2cccnc2)n1CC1CCCCC1

>  <Energy>  (74) 
70.64879791517129

>  <Genealogy>  (74) 
O=c1c2ccccc2nc(/C=C/c2cccnc2)n1CC1CCCCC1 (cis-trans isomerization)
O=c1c2ccccc2nc(/C=C/c2cccnc2)n1CC1CCCCC1 (3D coordinates assigned)
O=c1c2ccccc2nc(/C=C/c2cccnc2)n1CC1CCCCC1 (nonaromatic ring conformer: 70.64879791517129 kcal/mol)

>  <smiles>  (74) 
O=c1c2ccccc2nc(/C=C/c2cccnc2)n1CC1CCCCC1

>  <score_type>  (74) 
oracle

>  <origin>  (74) 
autodockgpu

>  <m_score__min__energy>  (74) 
-7.2300000000000004

>  <m_primary>  (74) 
energy

>  <meeko>  (74) 
{"free_energy": -7.15, "intermolecular_energy": -8.64, "internal_energy": -1.35, "cluster_size": 8, "cluster_id": 2, "rank_in_cluster": 1}

>  <energy>  (74) 
-7.08

>  <cluster_rmsd>  (74) 
0.0

>  <rmsd>  (74) 
269.38

>  <cluster>  (74) 
3

$$$$
XUFANRSCLZKORJ-OUKQBFOZNA-N
     RDKit          3D

 49 52  0  0  0  0  0  0  0  0999 V2000
  137.6386   71.5392  221.3489 H   0  0  0  0  0  0  0  0  0  0  0  0
  138.6470   71.7630  221.7270 C   0  0  0  0  0  0  0  0  0  0  0  0
  139.4460   70.7340  222.0440 C   0  0  0  0  0  0  0  0  0  0  0  0
  139.9709   70.1906  221.2445 H   0  0  0  0  0  0  0  0  0  0  0  0
  139.6340   70.3160  223.4550 C   0  0  0  0  0  0  0  0  0  0  0  0
  140.2380   71.2040  224.2910 N   0  0  0  0  0  0  0  0  0  0  0  0
  140.4270   70.9460  225.6030 C   0  0  0  0  0  0  0  0  0  0  0  0
  141.0530   71.8940  226.4200 C   0  0  0  0  0  0  0  0  0  0  0  0
  141.4036   72.8441  225.9906 H   0  0  0  0  0  0  0  0  0  0  0  0
  141.2330   71.6340  227.7820 C   0  0  0  0  0  0  0  0  0  0  0  0
  141.7265   72.3788  228.4236 H   0  0  0  0  0  0  0  0  0  0  0  0
  140.7860   70.4280  228.3280 C   0  0  0  0  0  0  0  0  0  0  0  0
  140.9284   70.2251  229.3997 H   0  0  0  0  0  0  0  0  0  0  0  0
  140.1580   69.4780  227.5160 C   0  0  0  0  0  0  0  0  0  0  0  0
  139.8074   68.5301  227.9503 H   0  0  0  0  0  0  0  0  0  0  0  0
  139.9740   69.7330  226.1440 C   0  0  0  0  0  0  0  0  0  0  0  0
  139.3520   68.8140  225.2830 C   0  0  0  0  0  0  0  0  0  0  0  0
  138.9160   67.7270  225.7590 O   0  0  0  0  0  0  0  0  0  0  0  0
  139.2130   69.0900  223.9390 N   0  0  0  0  0  0  0  0  0  0  0  0
  138.6310   68.0530  223.0480 C   0  0  0  0  0  0  0  0  0  0  0  0
  139.2956   67.9292  222.1803 H   0  0  0  0  0  0  0  0  0  0  0  0
  138.5402   67.1335  223.6449 H   0  0  0  0  0  0  0  0  0  0  0  0
  137.2080   68.3960  222.5290 C   0  0  0  0  0  0  0  0  0  0  0  0
  137.3883   69.0938  221.6980 H   0  0  0  0  0  0  0  0  0  0  0  0
  136.3390   69.1210  223.5730 C   0  0  0  0  0  0  0  0  0  0  0  0
  136.0938   68.4169  224.3818 H   0  0  0  0  0  0  0  0  0  0  0  0
  136.9107   69.9803  223.9536 H   0  0  0  0  0  0  0  0  0  0  0  0
  135.0250   69.6550  222.9610 C   0  0  0  0  0  0  0  0  0  0  0  0
  134.2198   69.5224  223.6986 H   0  0  0  0  0  0  0  0  0  0  0  0
  135.1953   70.7121  222.7091 H   0  0  0  0  0  0  0  0  0  0  0  0
  134.6120   68.9440  221.6580 C   0  0  0  0  0  0  0  0  0  0  0  0
  133.5279   69.0629  221.5145 H   0  0  0  0  0  0  0  0  0  0  0  0
  135.1702   69.3982  220.8261 H   0  0  0  0  0  0  0  0  0  0  0  0
  134.9470   67.4500  221.7010 C   0  0  0  0  0  0  0  0  0  0  0  0
  134.3641   66.9828  222.5085 H   0  0  0  0  0  0  0  0  0  0  0  0
  134.6959   67.0273  220.7170 H   0  0  0  0  0  0  0  0  0  0  0  0
  136.4480   67.1760  221.9540 C   0  0  0  0  0  0  0  0  0  0  0  0
  136.5349   66.3433  222.6675 H   0  0  0  0  0  0  0  0  0  0  0  0
  136.9031   66.9394  220.9809 H   0  0  0  0  0  0  0  0  0  0  0  0
  139.0450   73.1850  221.8570 C   0  0  0  0  0  0  0  0  0  0  0  0
  140.3920   73.6010  221.8690 C   0  0  0  0  0  0  0  0  0  0  0  0
  141.1970   72.8553  221.7924 H   0  0  0  0  0  0  0  0  0  0  0  0
  140.6990   74.9220  221.9750 N   0  0  0  0  0  0  0  0  0  0  0  0
  139.7370   75.8760  222.0680 C   0  0  0  0  0  0  0  0  0  0  0  0
  140.0202   76.9349  222.1599 H   0  0  0  0  0  0  0  0  0  0  0  0
  138.3900   75.5140  222.0470 C   0  0  0  0  0  0  0  0  0  0  0  0
  137.6071   76.2833  222.1196 H   0  0  0  0  0  0  0  0  0  0  0  0
  138.0450   74.1660  221.9330 C   0  0  0  0  0  0  0  0  0  0  0  0
  136.9854   73.8721  221.9027 H   0  0  0  0  0  0  0  0  0  0  0  0
  1  2  1  0
  2  3  2  0
  3  4  1  0
  3  5  1  0
  5  6  2  0
  6  7  1  0
  7  8  2  0
  8  9  1  0
  8 10  1  0
 10 11  1  0
 10 12  2  0
 12 13  1  0
 12 14  1  0
 14 15  1  0
 14 16  2  0
 16 17  1  0
 17 18  2  0
 17 19  1  0
 19 20  1  0
 20 21  1  0
 20 22  1  0
 20 23  1  0
 23 24  1  0
 23 25  1  0
 25 26  1  0
 25 27  1  0
 25 28  1  0
 28 29  1  0
 28 30  1  0
 28 31  1  0
 31 32  1  0
 31 33  1  0
 31 34  1  0
 34 35  1  0
 34 36  1  0
 34 37  1  0
 37 38  1  0
 37 39  1  0
  2 40  1  0
 40 41  2  0
 41 42  1  0
 41 43  1  0
 43 44  2  0
 44 45  1  0
 44 46  1  0
 46 47  1  0
 46 48  2  0
 48 49  1  0
 19  5  1  0
 37 23  1  0
 48 40  1  0
 16  7  1  0
M  END
>  <UniqueID>  (75) 
26

>  <SMILES>  (75) 
O=c1c2ccccc2nc(/C=C/c2cccnc2)n1CC1CCCCC1

>  <Energy>  (75) 
70.64879791517129

>  <Genealogy>  (75) 
O=c1c2ccccc2nc(/C=C/c2cccnc2)n1CC1CCCCC1 (cis-trans isomerization)
O=c1c2ccccc2nc(/C=C/c2cccnc2)n1CC1CCCCC1 (3D coordinates assigned)
O=c1c2ccccc2nc(/C=C/c2cccnc2)n1CC1CCCCC1 (nonaromatic ring conformer: 70.64879791517129 kcal/mol)

>  <smiles>  (75) 
O=c1c2ccccc2nc(/C=C/c2cccnc2)n1CC1CCCCC1

>  <score_type>  (75) 
oracle

>  <origin>  (75) 
autodockgpu

>  <m_score__min__energy>  (75) 
-7.2300000000000004

>  <m_primary>  (75) 
energy

>  <meeko>  (75) 
{"free_energy": -6.94, "intermolecular_energy": -8.43, "internal_energy": -1.42, "cluster_size": 5, "cluster_id": 1, "rank_in_cluster": 5}

>  <energy>  (75) 
-6.94

>  <cluster_rmsd>  (75) 
0.38

>  <rmsd>  (75) 
269.4

>  <cluster>  (75) 
3

$$$$
XUFANRSCLZKORJ-OUKQBFOZNA-N
     RDKit          3D

 49 52  0  0  0  0  0  0  0  0999 V2000
  142.2202   71.6351  219.3034 H   0  0  0  0  0  0  0  0  0  0  0  0
  142.6510   72.0260  220.2370 C   0  0  0  0  0  0  0  0  0  0  0  0
  141.9120   71.9510  221.3540 C   0  0  0  0  0  0  0  0  0  0  0  0
  142.0949   71.1360  222.0698 H   0  0  0  0  0  0  0  0  0  0  0  0
  140.8520   72.9490  221.6400 C   0  0  0  0  0  0  0  0  0  0  0  0
  141.2050   74.2620  221.5940 N   0  0  0  0  0  0  0  0  0  0  0  0
  140.3140   75.2550  221.7990 C   0  0  0  0  0  0  0  0  0  0  0  0
  140.7280   76.5910  221.7390 C   0  0  0  0  0  0  0  0  0  0  0  0
  141.7824   76.8313  221.5375 H   0  0  0  0  0  0  0  0  0  0  0  0
  139.8020   77.6200  221.9350 C   0  0  0  0  0  0  0  0  0  0  0  0
  140.1284   78.6694  221.8885 H   0  0  0  0  0  0  0  0  0  0  0  0
  138.4620   77.3160  222.1900 C   0  0  0  0  0  0  0  0  0  0  0  0
  137.7354   78.1272  222.3448 H   0  0  0  0  0  0  0  0  0  0  0  0
  138.0420   75.9820  222.2490 C   0  0  0  0  0  0  0  0  0  0  0  0
  136.9862   75.7466  222.4486 H   0  0  0  0  0  0  0  0  0  0  0  0
  138.9700   74.9410  222.0530 C   0  0  0  0  0  0  0  0  0  0  0  0
  138.6030   73.5860  222.1030 C   0  0  0  0  0  0  0  0  0  0  0  0
  137.3930   73.2860  222.3070 O   0  0  0  0  0  0  0  0  0  0  0  0
  139.5460   72.5950  221.9310 N   0  0  0  0  0  0  0  0  0  0  0  0
  139.1340   71.1750  222.0830 C   0  0  0  0  0  0  0  0  0  0  0  0
  138.0374   71.1234  222.0135 H   0  0  0  0  0  0  0  0  0  0  0  0
  139.6355   70.6102  221.2833 H   0  0  0  0  0  0  0  0  0  0  0  0
  139.5690   70.5330  223.4280 C   0  0  0  0  0  0  0  0  0  0  0  0
  140.2976   69.7637  223.1325 H   0  0  0  0  0  0  0  0  0  0  0  0
  138.4160   69.8310  224.1670 C   0  0  0  0  0  0  0  0  0  0  0  0
  137.7090   70.5929  224.5271 H   0  0  0  0  0  0  0  0  0  0  0  0
  137.9313   69.1400  223.4616 H   0  0  0  0  0  0  0  0  0  0  0  0
  138.9180   69.0070  225.3730 C   0  0  0  0  0  0  0  0  0  0  0  0
  138.1889   69.1090  226.1903 H   0  0  0  0  0  0  0  0  0  0  0  0
  139.0226   67.9673  225.0294 H   0  0  0  0  0  0  0  0  0  0  0  0
  140.2990   69.4480  225.8960 C   0  0  0  0  0  0  0  0  0  0  0  0
  140.4005   69.1342  226.9454 H   0  0  0  0  0  0  0  0  0  0  0  0
  141.0712   68.9774  225.2697 H   0  0  0  0  0  0  0  0  0  0  0  0
  140.4730   70.9680  225.8120 C   0  0  0  0  0  0  0  0  0  0  0  0
  139.7272   71.4432  226.4663 H   0  0  0  0  0  0  0  0  0  0  0  0
  141.5013   71.2000  226.1265 H   0  0  0  0  0  0  0  0  0  0  0  0
  140.2920   71.5170  224.3780 C   0  0  0  0  0  0  0  0  0  0  0  0
  139.7037   72.4449  224.4319 H   0  0  0  0  0  0  0  0  0  0  0  0
  141.2981   71.6848  223.9660 H   0  0  0  0  0  0  0  0  0  0  0  0
  144.0140   72.6050  220.1880 C   0  0  0  0  0  0  0  0  0  0  0  0
  145.0770   71.9940  219.4910 C   0  0  0  0  0  0  0  0  0  0  0  0
  144.9125   71.0419  218.9652 H   0  0  0  0  0  0  0  0  0  0  0  0
  146.3040   72.5780  219.4670 N   0  0  0  0  0  0  0  0  0  0  0  0
  146.5510   73.7550  220.0980 C   0  0  0  0  0  0  0  0  0  0  0  0
  147.5578   74.1968  220.0638 H   0  0  0  0  0  0  0  0  0  0  0  0
  145.5270   74.4040  220.7900 C   0  0  0  0  0  0  0  0  0  0  0  0
  145.7205   75.3586  221.3012 H   0  0  0  0  0  0  0  0  0  0  0  0
  144.2550   73.8300  220.8270 C   0  0  0  0  0  0  0  0  0  0  0  0
  143.4388   74.3403  221.3593 H   0  0  0  0  0  0  0  0  0  0  0  0
  1  2  1  0
  2  3  2  0
  3  4  1  0
  3  5  1  0
  5  6  2  0
  6  7  1  0
  7  8  2  0
  8  9  1  0
  8 10  1  0
 10 11  1  0
 10 12  2  0
 12 13  1  0
 12 14  1  0
 14 15  1  0
 14 16  2  0
 16 17  1  0
 17 18  2  0
 17 19  1  0
 19 20  1  0
 20 21  1  0
 20 22  1  0
 20 23  1  0
 23 24  1  0
 23 25  1  0
 25 26  1  0
 25 27  1  0
 25 28  1  0
 28 29  1  0
 28 30  1  0
 28 31  1  0
 31 32  1  0
 31 33  1  0
 31 34  1  0
 34 35  1  0
 34 36  1  0
 34 37  1  0
 37 38  1  0
 37 39  1  0
  2 40  1  0
 40 41  2  0
 41 42  1  0
 41 43  1  0
 43 44  2  0
 44 45  1  0
 44 46  1  0
 46 47  1  0
 46 48  2  0
 48 49  1  0
 19  5  1  0
 37 23  1  0
 48 40  1  0
 16  7  1  0
M  END
>  <UniqueID>  (76) 
26

>  <SMILES>  (76) 
O=c1c2ccccc2nc(/C=C/c2cccnc2)n1CC1CCCCC1

>  <Energy>  (76) 
70.64879791517129

>  <Genealogy>  (76) 
O=c1c2ccccc2nc(/C=C/c2cccnc2)n1CC1CCCCC1 (cis-trans isomerization)
O=c1c2ccccc2nc(/C=C/c2cccnc2)n1CC1CCCCC1 (3D coordinates assigned)
O=c1c2ccccc2nc(/C=C/c2cccnc2)n1CC1CCCCC1 (nonaromatic ring conformer: 70.64879791517129 kcal/mol)

>  <smiles>  (76) 
O=c1c2ccccc2nc(/C=C/c2cccnc2)n1CC1CCCCC1

>  <score_type>  (76) 
oracle

>  <origin>  (76) 
autodockgpu

>  <m_score__min__energy>  (76) 
-7.2300000000000004

>  <m_primary>  (76) 
energy

>  <meeko>  (76) 
{"free_energy": -7.03, "intermolecular_energy": -8.53, "internal_energy": -1.24, "cluster_size": 1, "cluster_id": 4, "rank_in_cluster": 1}

>  <energy>  (76) 
-7.03

>  <cluster_rmsd>  (76) 
0.0

>  <rmsd>  (76) 
269.15

>  <cluster>  (76) 
4

$$$$
XUFANRSCLZKORJ-OUKQBFOZNA-N
     RDKit          3D

 49 52  0  0  0  0  0  0  0  0999 V2000
  140.7036   70.7425  220.7182 H   0  0  0  0  0  0  0  0  0  0  0  0
  140.1430   71.4010  221.3980 C   0  0  0  0  0  0  0  0  0  0  0  0
  139.1940   70.8520  222.1710 C   0  0  0  0  0  0  0  0  0  0  0  0
  138.1655   70.7714  221.7894 H   0  0  0  0  0  0  0  0  0  0  0  0
  139.5080   70.3520  223.5310 C   0  0  0  0  0  0  0  0  0  0  0  0
  140.0490   71.2390  224.4100 N   0  0  0  0  0  0  0  0  0  0  0  0
  140.3390   70.9040  225.6850 C   0  0  0  0  0  0  0  0  0  0  0  0
  140.8940   71.8550  226.5500 C   0  0  0  0  0  0  0  0  0  0  0  0
  141.1058   72.8715  226.1867 H   0  0  0  0  0  0  0  0  0  0  0  0
  141.1790   71.5130  227.8750 C   0  0  0  0  0  0  0  0  0  0  0  0
  141.6162   72.2602  228.5536 H   0  0  0  0  0  0  0  0  0  0  0  0
  140.9090   70.2230  228.3380 C   0  0  0  0  0  0  0  0  0  0  0  0
  141.1349   69.9563  229.3810 H   0  0  0  0  0  0  0  0  0  0  0  0
  140.3520   69.2690  227.4790 C   0  0  0  0  0  0  0  0  0  0  0  0
  140.1389   68.2550  227.8482 H   0  0  0  0  0  0  0  0  0  0  0  0
  140.0640   69.6060  226.1420 C   0  0  0  0  0  0  0  0  0  0  0  0
  139.5070   68.6880  225.2380 C   0  0  0  0  0  0  0  0  0  0  0  0
  139.2300   67.5230  225.6390 O   0  0  0  0  0  0  0  0  0  0  0  0
  139.2620   69.0500  223.9290 N   0  0  0  0  0  0  0  0  0  0  0  0
  138.7580   68.0220  222.9810 C   0  0  0  0  0  0  0  0  0  0  0  0
  139.2900   68.1414  222.0256 H   0  0  0  0  0  0  0  0  0  0  0  0
  138.9402   67.0420  223.4461 H   0  0  0  0  0  0  0  0  0  0  0  0
  137.2320   68.1140  222.7060 C   0  0  0  0  0  0  0  0  0  0  0  0
  136.8582   67.1050  222.9347 H   0  0  0  0  0  0  0  0  0  0  0  0
  136.8990   68.4200  221.2340 C   0  0  0  0  0  0  0  0  0  0  0  0
  137.2076   69.4511  221.0068 H   0  0  0  0  0  0  0  0  0  0  0  0
  137.4385   67.6961  220.6056 H   0  0  0  0  0  0  0  0  0  0  0  0
  135.3890   68.2750  220.9410 C   0  0  0  0  0  0  0  0  0  0  0  0
  135.0939   69.0694  220.2397 H   0  0  0  0  0  0  0  0  0  0  0  0
  135.2387   67.2683  220.5240 H   0  0  0  0  0  0  0  0  0  0  0  0
  134.4990   68.3790  222.1960 C   0  0  0  0  0  0  0  0  0  0  0  0
  133.4855   68.6789  221.8913 H   0  0  0  0  0  0  0  0  0  0  0  0
  134.4852   67.3968  222.6910 H   0  0  0  0  0  0  0  0  0  0  0  0
  135.0450   69.4090  223.1890 C   0  0  0  0  0  0  0  0  0  0  0  0
  135.0269   70.4001  222.7121 H   0  0  0  0  0  0  0  0  0  0  0  0
  134.4075   69.3738  224.0848 H   0  0  0  0  0  0  0  0  0  0  0  0
  136.4930   69.1040  223.6380 C   0  0  0  0  0  0  0  0  0  0  0  0
  137.0569   70.0482  223.6605 H   0  0  0  0  0  0  0  0  0  0  0  0
  136.4319   68.6313  224.6294 H   0  0  0  0  0  0  0  0  0  0  0  0
  140.4790   72.8450  221.4080 C   0  0  0  0  0  0  0  0  0  0  0  0
  139.6430   73.8180  221.9920 C   0  0  0  0  0  0  0  0  0  0  0  0
  138.6908   73.5177  222.4536 H   0  0  0  0  0  0  0  0  0  0  0  0
  140.0110   75.1270  221.9860 N   0  0  0  0  0  0  0  0  0  0  0  0
  141.1780   75.5420  221.4310 C   0  0  0  0  0  0  0  0  0  0  0  0
  141.4408   76.6101  221.4373 H   0  0  0  0  0  0  0  0  0  0  0  0
  142.0450   74.6130  220.8520 C   0  0  0  0  0  0  0  0  0  0  0  0
  142.9934   74.9429  220.4029 H   0  0  0  0  0  0  0  0  0  0  0  0
  141.6960   73.2620  220.8490 C   0  0  0  0  0  0  0  0  0  0  0  0
  142.3780   72.5210  220.4065 H   0  0  0  0  0  0  0  0  0  0  0  0
  1  2  1  0
  2  3  2  0
  3  4  1  0
  3  5  1  0
  5  6  2  0
  6  7  1  0
  7  8  2  0
  8  9  1  0
  8 10  1  0
 10 11  1  0
 10 12  2  0
 12 13  1  0
 12 14  1  0
 14 15  1  0
 14 16  2  0
 16 17  1  0
 17 18  2  0
 17 19  1  0
 19 20  1  0
 20 21  1  0
 20 22  1  0
 20 23  1  0
 23 24  1  0
 23 25  1  0
 25 26  1  0
 25 27  1  0
 25 28  1  0
 28 29  1  0
 28 30  1  0
 28 31  1  0
 31 32  1  0
 31 33  1  0
 31 34  1  0
 34 35  1  0
 34 36  1  0
 34 37  1  0
 37 38  1  0
 37 39  1  0
  2 40  1  0
 40 41  2  0
 41 42  1  0
 41 43  1  0
 43 44  2  0
 44 45  1  0
 44 46  1  0
 46 47  1  0
 46 48  2  0
 48 49  1  0
 19  5  1  0
 37 23  1  0
 48 40  1  0
 16  7  1  0
M  END
>  <UniqueID>  (77) 
26

>  <SMILES>  (77) 
O=c1c2ccccc2nc(/C=C/c2cccnc2)n1CC1CCCCC1

>  <Energy>  (77) 
70.64879791517129

>  <Genealogy>  (77) 
O=c1c2ccccc2nc(/C=C/c2cccnc2)n1CC1CCCCC1 (cis-trans isomerization)
O=c1c2ccccc2nc(/C=C/c2cccnc2)n1CC1CCCCC1 (3D coordinates assigned)
O=c1c2ccccc2nc(/C=C/c2cccnc2)n1CC1CCCCC1 (nonaromatic ring conformer: 70.64879791517129 kcal/mol)

>  <smiles>  (77) 
O=c1c2ccccc2nc(/C=C/c2cccnc2)n1CC1CCCCC1

>  <score_type>  (77) 
oracle

>  <origin>  (77) 
autodockgpu

>  <m_score__min__energy>  (77) 
-7.2300000000000004

>  <m_primary>  (77) 
energy

>  <meeko>  (77) 
{"free_energy": -7.13, "intermolecular_energy": -8.63, "internal_energy": -1.31, "cluster_size": 5, "cluster_id": 1, "rank_in_cluster": 3}

>  <energy>  (77) 
-7.02

>  <cluster_rmsd>  (77) 
0.0

>  <rmsd>  (77) 
269.12

>  <cluster>  (77) 
5

$$$$
XUFANRSCLZKORJ-OUKQBFOZNA-N
     RDKit          3D

 49 52  0  0  0  0  0  0  0  0999 V2000
  134.8786   70.1322  223.4033 H   0  0  0  0  0  0  0  0  0  0  0  0
  135.4440   70.6410  224.1980 C   0  0  0  0  0  0  0  0  0  0  0  0
  136.7830   70.5690  224.1670 C   0  0  0  0  0  0  0  0  0  0  0  0
  137.2946   69.7677  224.7203 H   0  0  0  0  0  0  0  0  0  0  0  0
  137.5850   71.5520  223.3990 C   0  0  0  0  0  0  0  0  0  0  0  0
  136.9040   72.5070  222.7100 N   0  0  0  0  0  0  0  0  0  0  0  0
  137.5310   73.4760  222.0080 C   0  0  0  0  0  0  0  0  0  0  0  0
  136.7830   74.4360  221.3170 C   0  0  0  0  0  0  0  0  0  0  0  0
  135.6839   74.3944  221.3348 H   0  0  0  0  0  0  0  0  0  0  0  0
  137.4330   75.4480  220.6040 C   0  0  0  0  0  0  0  0  0  0  0  0
  136.8448   76.2016  220.0599 H   0  0  0  0  0  0  0  0  0  0  0  0
  138.8290   75.5030  220.5820 C   0  0  0  0  0  0  0  0  0  0  0  0
  139.3376   76.3001  220.0199 H   0  0  0  0  0  0  0  0  0  0  0  0
  139.5820   74.5470  221.2730 C   0  0  0  0  0  0  0  0  0  0  0  0
  140.6808   74.5943  221.2547 H   0  0  0  0  0  0  0  0  0  0  0  0
  138.9330   73.5240  221.9920 C   0  0  0  0  0  0  0  0  0  0  0  0
  139.6390   72.5380  222.7010 C   0  0  0  0  0  0  0  0  0  0  0  0
  140.9020   72.5810  222.7180 O   0  0  0  0  0  0  0  0  0  0  0  0
  138.9680   71.5380  223.3730 N   0  0  0  0  0  0  0  0  0  0  0  0
  139.7540   70.4630  224.0340 C   0  0  0  0  0  0  0  0  0  0  0  0
  139.2587   69.5008  223.8369 H   0  0  0  0  0  0  0  0  0  0  0  0
  140.7707   70.5082  223.6165 H   0  0  0  0  0  0  0  0  0  0  0  0
  139.8900   70.6370  225.5710 C   0  0  0  0  0  0  0  0  0  0  0  0
  138.9666   71.1589  225.8624 H   0  0  0  0  0  0  0  0  0  0  0  0
  141.0820   71.5220  225.9780 C   0  0  0  0  0  0  0  0  0  0  0  0
  142.0156   70.9854  225.7534 H   0  0  0  0  0  0  0  0  0  0  0  0
  141.0166   72.4619  225.4103 H   0  0  0  0  0  0  0  0  0  0  0  0
  141.0570   71.8710  227.4830 C   0  0  0  0  0  0  0  0  0  0  0  0
  142.0905   71.8578  227.8595 H   0  0  0  0  0  0  0  0  0  0  0  0
  140.5888   72.8621  227.5748 H   0  0  0  0  0  0  0  0  0  0  0  0
  140.2170   70.8960  228.3330 C   0  0  0  0  0  0  0  0  0  0  0  0
  140.5647   70.9403  229.3756 H   0  0  0  0  0  0  0  0  0  0  0  0
  139.1612   71.1956  228.2587 H   0  0  0  0  0  0  0  0  0  0  0  0
  140.3440   69.4560  227.8270 C   0  0  0  0  0  0  0  0  0  0  0  0
  141.3916   69.1380  227.9334 H   0  0  0  0  0  0  0  0  0  0  0  0
  139.6636   68.8346  228.4278 H   0  0  0  0  0  0  0  0  0  0  0  0
  139.9290   69.2980  226.3460 C   0  0  0  0  0  0  0  0  0  0  0  0
  140.6497   68.6301  225.8515 H   0  0  0  0  0  0  0  0  0  0  0  0
  138.9080   68.8886  226.3374 H   0  0  0  0  0  0  0  0  0  0  0  0
  134.6830   71.3670  225.2420 C   0  0  0  0  0  0  0  0  0  0  0  0
  134.6400   72.7740  225.3140 C   0  0  0  0  0  0  0  0  0  0  0  0
  135.1981   73.3775  224.5830 H   0  0  0  0  0  0  0  0  0  0  0  0
  133.9110   73.3880  226.2840 N   0  0  0  0  0  0  0  0  0  0  0  0
  133.2060   72.6830  227.2050 C   0  0  0  0  0  0  0  0  0  0  0  0
  132.6345   73.2114  227.9823 H   0  0  0  0  0  0  0  0  0  0  0  0
  133.2060   71.2870  227.1660 C   0  0  0  0  0  0  0  0  0  0  0  0
  132.6324   70.7105  227.9067 H   0  0  0  0  0  0  0  0  0  0  0  0
  133.9410   70.6310  226.1780 C   0  0  0  0  0  0  0  0  0  0  0  0
  133.9387   69.5319  226.1327 H   0  0  0  0  0  0  0  0  0  0  0  0
  1  2  1  0
  2  3  2  0
  3  4  1  0
  3  5  1  0
  5  6  2  0
  6  7  1  0
  7  8  2  0
  8  9  1  0
  8 10  1  0
 10 11  1  0
 10 12  2  0
 12 13  1  0
 12 14  1  0
 14 15  1  0
 14 16  2  0
 16 17  1  0
 17 18  2  0
 17 19  1  0
 19 20  1  0
 20 21  1  0
 20 22  1  0
 20 23  1  0
 23 24  1  0
 23 25  1  0
 25 26  1  0
 25 27  1  0
 25 28  1  0
 28 29  1  0
 28 30  1  0
 28 31  1  0
 31 32  1  0
 31 33  1  0
 31 34  1  0
 34 35  1  0
 34 36  1  0
 34 37  1  0
 37 38  1  0
 37 39  1  0
  2 40  1  0
 40 41  2  0
 41 42  1  0
 41 43  1  0
 43 44  2  0
 44 45  1  0
 44 46  1  0
 46 47  1  0
 46 48  2  0
 48 49  1  0
 19  5  1  0
 37 23  1  0
 48 40  1  0
 16  7  1  0
M  END
>  <UniqueID>  (78) 
26

>  <SMILES>  (78) 
O=c1c2ccccc2nc(/C=C/c2cccnc2)n1CC1CCCCC1

>  <Energy>  (78) 
70.64879791517129

>  <Genealogy>  (78) 
O=c1c2ccccc2nc(/C=C/c2cccnc2)n1CC1CCCCC1 (cis-trans isomerization)
O=c1c2ccccc2nc(/C=C/c2cccnc2)n1CC1CCCCC1 (3D coordinates assigned)
O=c1c2ccccc2nc(/C=C/c2cccnc2)n1CC1CCCCC1 (nonaromatic ring conformer: 70.64879791517129 kcal/mol)

>  <smiles>  (78) 
O=c1c2ccccc2nc(/C=C/c2cccnc2)n1CC1CCCCC1

>  <score_type>  (78) 
oracle

>  <origin>  (78) 
autodockgpu

>  <m_score__min__energy>  (78) 
-7.2300000000000004

>  <m_primary>  (78) 
energy

>  <meeko>  (78) 
{"free_energy": -7.02, "intermolecular_energy": -8.52, "internal_energy": -1.23, "cluster_size": 1, "cluster_id": 5, "rank_in_cluster": 1}

>  <energy>  (78) 
-6.85

>  <cluster_rmsd>  (78) 
0.0

>  <rmsd>  (78) 
269.49

>  <cluster>  (78) 
6

$$$$
XUFANRSCLZKORJ-OUKQBFOZNA-N
     RDKit          3D

 49 52  0  0  0  0  0  0  0  0999 V2000
  137.3480   71.6070  221.7296 H   0  0  0  0  0  0  0  0  0  0  0  0
  138.4180   71.7610  221.9330 C   0  0  0  0  0  0  0  0  0  0  0  0
  139.1830   70.6800  222.1440 C   0  0  0  0  0  0  0  0  0  0  0  0
  139.5933   70.1313  221.2834 H   0  0  0  0  0  0  0  0  0  0  0  0
  139.4850   70.2120  223.5190 C   0  0  0  0  0  0  0  0  0  0  0  0
  140.0100   71.1210  224.3840 N   0  0  0  0  0  0  0  0  0  0  0  0
  140.2880   70.8160  225.6700 C   0  0  0  0  0  0  0  0  0  0  0  0
  140.8260   71.7890  226.5200 C   0  0  0  0  0  0  0  0  0  0  0  0
  141.0347   72.7990  226.1375 H   0  0  0  0  0  0  0  0  0  0  0  0
  141.0980   71.4770  227.8550 C   0  0  0  0  0  0  0  0  0  0  0  0
  141.5227   72.2414  228.5223 H   0  0  0  0  0  0  0  0  0  0  0  0
  140.8310   70.1950  228.3430 C   0  0  0  0  0  0  0  0  0  0  0  0
  141.0460   69.9522  229.3941 H   0  0  0  0  0  0  0  0  0  0  0  0
  140.2910   69.2200  227.4980 C   0  0  0  0  0  0  0  0  0  0  0  0
  140.0816   68.2122  227.8860 H   0  0  0  0  0  0  0  0  0  0  0  0
  140.0150   69.5260  226.1520 C   0  0  0  0  0  0  0  0  0  0  0  0
  139.4750   68.5850  225.2600 C   0  0  0  0  0  0  0  0  0  0  0  0
  139.2010   67.4270  225.6840 O   0  0  0  0  0  0  0  0  0  0  0  0
  139.2430   68.9170  223.9420 N   0  0  0  0  0  0  0  0  0  0  0  0
  138.7560   67.8650  223.0100 C   0  0  0  0  0  0  0  0  0  0  0  0
  139.3421   67.9267  222.0812 H   0  0  0  0  0  0  0  0  0  0  0  0
  138.8800   66.9005  223.5241 H   0  0  0  0  0  0  0  0  0  0  0  0
  137.2510   67.9930  222.6480 C   0  0  0  0  0  0  0  0  0  0  0  0
  136.8508   66.9809  222.8075 H   0  0  0  0  0  0  0  0  0  0  0  0
  137.0120   68.3690  221.1740 C   0  0  0  0  0  0  0  0  0  0  0  0
  137.3466   69.4044  221.0127 H   0  0  0  0  0  0  0  0  0  0  0  0
  137.5797   67.6655  220.5472 H   0  0  0  0  0  0  0  0  0  0  0  0
  135.5210   68.2600  220.7840 C   0  0  0  0  0  0  0  0  0  0  0  0
  135.2791   69.0890  220.1026 H   0  0  0  0  0  0  0  0  0  0  0  0
  135.3838   67.2751  220.3137 H   0  0  0  0  0  0  0  0  0  0  0  0
  134.5580   68.3220  221.9860 C   0  0  0  0  0  0  0  0  0  0  0  0
  133.5687   68.6503  221.6345 H   0  0  0  0  0  0  0  0  0  0  0  0
  134.5022   67.3192  222.4346 H   0  0  0  0  0  0  0  0  0  0  0  0
  135.0550   69.2990  223.0560 C   0  0  0  0  0  0  0  0  0  0  0  0
  135.0785   70.3104  222.6240 H   0  0  0  0  0  0  0  0  0  0  0  0
  134.3634   69.2341  223.9090 H   0  0  0  0  0  0  0  0  0  0  0  0
  136.4700   68.9520  223.5780 C   0  0  0  0  0  0  0  0  0  0  0  0
  137.0435   69.8854  223.6770 H   0  0  0  0  0  0  0  0  0  0  0  0
  136.3430   68.4373  224.5418 H   0  0  0  0  0  0  0  0  0  0  0  0
  138.9310   73.1510  221.9580 C   0  0  0  0  0  0  0  0  0  0  0  0
  140.3070   73.4550  221.9600 C   0  0  0  0  0  0  0  0  0  0  0  0
  141.0483   72.6423  221.9559 H   0  0  0  0  0  0  0  0  0  0  0  0
  140.7210   74.7510  221.9670 N   0  0  0  0  0  0  0  0  0  0  0  0
  139.8420   75.7850  221.9680 C   0  0  0  0  0  0  0  0  0  0  0  0
  140.2116   76.8210  221.9814 H   0  0  0  0  0  0  0  0  0  0  0  0
  138.4690   75.5340  221.9520 C   0  0  0  0  0  0  0  0  0  0  0  0
  137.7518   76.3681  221.9496 H   0  0  0  0  0  0  0  0  0  0  0  0
  138.0150   74.2140  221.9390 C   0  0  0  0  0  0  0  0  0  0  0  0
  136.9351   74.0063  221.9138 H   0  0  0  0  0  0  0  0  0  0  0  0
  1  2  1  0
  2  3  2  0
  3  4  1  0
  3  5  1  0
  5  6  2  0
  6  7  1  0
  7  8  2  0
  8  9  1  0
  8 10  1  0
 10 11  1  0
 10 12  2  0
 12 13  1  0
 12 14  1  0
 14 15  1  0
 14 16  2  0
 16 17  1  0
 17 18  2  0
 17 19  1  0
 19 20  1  0
 20 21  1  0
 20 22  1  0
 20 23  1  0
 23 24  1  0
 23 25  1  0
 25 26  1  0
 25 27  1  0
 25 28  1  0
 28 29  1  0
 28 30  1  0
 28 31  1  0
 31 32  1  0
 31 33  1  0
 31 34  1  0
 34 35  1  0
 34 36  1  0
 34 37  1  0
 37 38  1  0
 37 39  1  0
  2 40  1  0
 40 41  2  0
 41 42  1  0
 41 43  1  0
 43 44  2  0
 44 45  1  0
 44 46  1  0
 46 47  1  0
 46 48  2  0
 48 49  1  0
 19  5  1  0
 37 23  1  0
 48 40  1  0
 16  7  1  0
M  END
>  <UniqueID>  (79) 
26

>  <SMILES>  (79) 
O=c1c2ccccc2nc(/C=C/c2cccnc2)n1CC1CCCCC1

>  <Energy>  (79) 
70.64879791517129

>  <Genealogy>  (79) 
O=c1c2ccccc2nc(/C=C/c2cccnc2)n1CC1CCCCC1 (cis-trans isomerization)
O=c1c2ccccc2nc(/C=C/c2cccnc2)n1CC1CCCCC1 (3D coordinates assigned)
O=c1c2ccccc2nc(/C=C/c2cccnc2)n1CC1CCCCC1 (nonaromatic ring conformer: 70.64879791517129 kcal/mol)

>  <smiles>  (79) 
O=c1c2ccccc2nc(/C=C/c2cccnc2)n1CC1CCCCC1

>  <score_type>  (79) 
oracle

>  <origin>  (79) 
autodockgpu

>  <m_score__min__energy>  (79) 
-7.2300000000000004

>  <m_primary>  (79) 
energy

>  <meeko>  (79) 
{"free_energy": -6.99, "intermolecular_energy": -8.49, "internal_energy": -1.44, "cluster_size": 5, "cluster_id": 1, "rank_in_cluster": 4}

>  <energy>  (79) 
-6.82

>  <cluster_rmsd>  (79) 
0.0

>  <rmsd>  (79) 
268.43

>  <cluster>  (79) 
7

$$$$
XUFANRSCLZKORJ-OUKQBFOZNA-N
     RDKit          3D

 49 52  0  0  0  0  0  0  0  0999 V2000
  143.6813   76.1007  218.1977 H   0  0  0  0  0  0  0  0  0  0  0  0
  143.5950   75.6580  219.2010 C   0  0  0  0  0  0  0  0  0  0  0  0
  142.7240   76.2060  220.0610 C   0  0  0  0  0  0  0  0  0  0  0  0
  142.8443   77.2592  220.3547 H   0  0  0  0  0  0  0  0  0  0  0  0
  141.6010   75.4160  220.6230 C   0  0  0  0  0  0  0  0  0  0  0  0
  141.8270   74.0950  220.8570 N   0  0  0  0  0  0  0  0  0  0  0  0
  140.8910   73.2880  221.4010 C   0  0  0  0  0  0  0  0  0  0  0  0
  141.1740   71.9350  221.6230 C   0  0  0  0  0  0  0  0  0  0  0  0
  142.1554   71.5254  221.3417 H   0  0  0  0  0  0  0  0  0  0  0  0
  140.2100   71.1040  222.2020 C   0  0  0  0  0  0  0  0  0  0  0  0
  140.4327   70.0407  222.3748 H   0  0  0  0  0  0  0  0  0  0  0  0
  138.9640   71.6240  222.5610 C   0  0  0  0  0  0  0  0  0  0  0  0
  138.2068   70.9684  223.0158 H   0  0  0  0  0  0  0  0  0  0  0  0
  138.6760   72.9760  222.3440 C   0  0  0  0  0  0  0  0  0  0  0  0
  137.6942   73.3815  222.6298 H   0  0  0  0  0  0  0  0  0  0  0  0
  139.6420   73.8180  221.7600 C   0  0  0  0  0  0  0  0  0  0  0  0
  139.4050   75.1810  221.5180 C   0  0  0  0  0  0  0  0  0  0  0  0
  138.2950   75.6800  221.8570 O   0  0  0  0  0  0  0  0  0  0  0  0
  140.3680   75.9680  220.9210 N   0  0  0  0  0  0  0  0  0  0  0  0
  140.0430   77.3820  220.6000 C   0  0  0  0  0  0  0  0  0  0  0  0
  140.4516   77.6141  219.6054 H   0  0  0  0  0  0  0  0  0  0  0  0
  138.9476   77.4746  220.6386 H   0  0  0  0  0  0  0  0  0  0  0  0
  140.6180   78.4060  221.6160 C   0  0  0  0  0  0  0  0  0  0  0  0
  139.7734   79.0804  221.8205 H   0  0  0  0  0  0  0  0  0  0  0  0
  141.7690   79.2510  221.0410 C   0  0  0  0  0  0  0  0  0  0  0  0
  142.6450   78.6028  220.8912 H   0  0  0  0  0  0  0  0  0  0  0  0
  141.4287   79.6862  220.0898 H   0  0  0  0  0  0  0  0  0  0  0  0
  142.1620   80.4110  221.9830 C   0  0  0  0  0  0  0  0  0  0  0  0
  143.2555   80.5266  221.9533 H   0  0  0  0  0  0  0  0  0  0  0  0
  141.6340   81.3072  221.6252 H   0  0  0  0  0  0  0  0  0  0  0  0
  141.7360   80.1940  223.4480 C   0  0  0  0  0  0  0  0  0  0  0  0
  142.3761   80.8060  224.1005 H   0  0  0  0  0  0  0  0  0  0  0  0
  140.6805   80.4874  223.5469 H   0  0  0  0  0  0  0  0  0  0  0  0
  141.8660   78.7250  223.8600 C   0  0  0  0  0  0  0  0  0  0  0  0
  142.9256   78.4359  223.7990 H   0  0  0  0  0  0  0  0  0  0  0  0
  141.4748   78.6338  224.8840 H   0  0  0  0  0  0  0  0  0  0  0  0
  141.0420   77.7720  222.9620 C   0  0  0  0  0  0  0  0  0  0  0  0
  141.6501   76.8800  222.7506 H   0  0  0  0  0  0  0  0  0  0  0  0
  140.1198   77.5277  223.5096 H   0  0  0  0  0  0  0  0  0  0  0  0
  144.4480   74.4900  219.5250 C   0  0  0  0  0  0  0  0  0  0  0  0
  144.8170   73.5270  218.5650 C   0  0  0  0  0  0  0  0  0  0  0  0
  144.4577   73.6192  217.5294 H   0  0  0  0  0  0  0  0  0  0  0  0
  145.6160   72.4840  218.9150 N   0  0  0  0  0  0  0  0  0  0  0  0
  146.0840   72.3330  220.1800 C   0  0  0  0  0  0  0  0  0  0  0  0
  146.7218   71.4726  220.4307 H   0  0  0  0  0  0  0  0  0  0  0  0
  145.7570   73.2680  221.1630 C   0  0  0  0  0  0  0  0  0  0  0  0
  146.1365   73.1521  222.1889 H   0  0  0  0  0  0  0  0  0  0  0  0
  144.9430   74.3520  220.8300 C   0  0  0  0  0  0  0  0  0  0  0  0
  144.6887   75.1011  221.5943 H   0  0  0  0  0  0  0  0  0  0  0  0
  1  2  1  0
  2  3  2  0
  3  4  1  0
  3  5  1  0
  5  6  2  0
  6  7  1  0
  7  8  2  0
  8  9  1  0
  8 10  1  0
 10 11  1  0
 10 12  2  0
 12 13  1  0
 12 14  1  0
 14 15  1  0
 14 16  2  0
 16 17  1  0
 17 18  2  0
 17 19  1  0
 19 20  1  0
 20 21  1  0
 20 22  1  0
 20 23  1  0
 23 24  1  0
 23 25  1  0
 25 26  1  0
 25 27  1  0
 25 28  1  0
 28 29  1  0
 28 30  1  0
 28 31  1  0
 31 32  1  0
 31 33  1  0
 31 34  1  0
 34 35  1  0
 34 36  1  0
 34 37  1  0
 37 38  1  0
 37 39  1  0
  2 40  1  0
 40 41  2  0
 41 42  1  0
 41 43  1  0
 43 44  2  0
 44 45  1  0
 44 46  1  0
 46 47  1  0
 46 48  2  0
 48 49  1  0
 19  5  1  0
 37 23  1  0
 48 40  1  0
 16  7  1  0
M  END
>  <UniqueID>  (80) 
26

>  <SMILES>  (80) 
O=c1c2ccccc2nc(/C=C/c2cccnc2)n1CC1CCCCC1

>  <Energy>  (80) 
70.64879791517129

>  <Genealogy>  (80) 
O=c1c2ccccc2nc(/C=C/c2cccnc2)n1CC1CCCCC1 (cis-trans isomerization)
O=c1c2ccccc2nc(/C=C/c2cccnc2)n1CC1CCCCC1 (3D coordinates assigned)
O=c1c2ccccc2nc(/C=C/c2cccnc2)n1CC1CCCCC1 (nonaromatic ring conformer: 70.64879791517129 kcal/mol)

>  <smiles>  (80) 
O=c1c2ccccc2nc(/C=C/c2cccnc2)n1CC1CCCCC1

>  <score_type>  (80) 
oracle

>  <origin>  (80) 
autodockgpu

>  <m_score__min__energy>  (80) 
-7.2300000000000004

>  <m_primary>  (80) 
energy

>  <meeko>  (80) 
{"free_energy": -6.94, "intermolecular_energy": -8.43, "internal_energy": -1.45, "cluster_size": 2, "cluster_id": 3, "rank_in_cluster": 2}

>  <energy>  (80) 
-6.35

>  <cluster_rmsd>  (80) 
0.0

>  <rmsd>  (80) 
270.03

>  <cluster>  (80) 
8

$$$$
