AQNDWTVLZSMOQU-FMIVXFBMNA-N
     RDKit          3D

 43 46  0  0  0  0  0  0  0  0999 V2000
  136.0339   71.9008  223.8209 H   0  0  0  0  0  0  0  0  0  0  0  0
  135.7960   72.9520  223.6010 C   0  0  0  0  0  0  0  0  0  0  0  0
  136.1590   73.4580  222.4190 C   0  0  0  0  0  0  0  0  0  0  0  0
  135.5417   73.2687  221.5284 H   0  0  0  0  0  0  0  0  0  0  0  0
  137.3840   74.2690  222.3050 C   0  0  0  0  0  0  0  0  0  0  0  0
  137.2830   75.6100  222.5060 N   0  0  0  0  0  0  0  0  0  0  0  0
  138.3650   76.4220  222.4550 C   0  0  0  0  0  0  0  0  0  0  0  0
  138.2160   77.8010  222.6480 C   0  0  0  0  0  0  0  0  0  0  0  0
  137.2183   78.2272  222.8292 H   0  0  0  0  0  0  0  0  0  0  0  0
  139.3370   78.6350  222.6100 C   0  0  0  0  0  0  0  0  0  0  0  0
  139.2195   79.7186  222.7583 H   0  0  0  0  0  0  0  0  0  0  0  0
  140.6080   78.0960  222.3840 C   0  0  0  0  0  0  0  0  0  0  0  0
  141.4882   78.7555  222.3665 H   0  0  0  0  0  0  0  0  0  0  0  0
  140.7630   76.7190  222.1800 C   0  0  0  0  0  0  0  0  0  0  0  0
  141.7631   76.2991  221.9972 H   0  0  0  0  0  0  0  0  0  0  0  0
  139.6380   75.8720  222.2090 C   0  0  0  0  0  0  0  0  0  0  0  0
  139.7370   74.4820  222.0060 C   0  0  0  0  0  0  0  0  0  0  0  0
  140.8730   73.9650  221.7960 O   0  0  0  0  0  0  0  0  0  0  0  0
  138.6110   73.6920  222.0440 N   0  0  0  0  0  0  0  0  0  0  0  0
  138.7230   72.2250  221.8490 C   0  0  0  0  0  0  0  0  0  0  0  0
  137.7523   71.8327  221.5117 H   0  0  0  0  0  0  0  0  0  0  0  0
  139.5019   72.0321  221.0966 H   0  0  0  0  0  0  0  0  0  0  0  0
  139.1160   71.5310  223.1340 C   0  0  0  0  0  0  0  0  0  0  0  0
  140.3290   71.8550  223.7700 C   0  0  0  0  0  0  0  0  0  0  0  0
  141.0186   72.5744  223.3043 H   0  0  0  0  0  0  0  0  0  0  0  0
  140.6590   71.2620  224.9960 C   0  0  0  0  0  0  0  0  0  0  0  0
  141.5984   71.5318  225.5008 H   0  0  0  0  0  0  0  0  0  0  0  0
  139.7960   70.3270  225.5800 C   0  0  0  0  0  0  0  0  0  0  0  0
  140.1920   69.6110  227.1380 Cl  0  0  0  0  0  0  0  0  0  0  0  0
  138.5960   69.9950  224.9470 C   0  0  0  0  0  0  0  0  0  0  0  0
  137.9134   69.2662  225.4085 H   0  0  0  0  0  0  0  0  0  0  0  0
  138.2620   70.5920  223.7220 C   0  0  0  0  0  0  0  0  0  0  0  0
  137.3217   70.3197  223.2203 H   0  0  0  0  0  0  0  0  0  0  0  0
  135.0860   73.7500  224.6270 C   0  0  0  0  0  0  0  0  0  0  0  0
  134.2220   73.1590  225.5770 C   0  0  0  0  0  0  0  0  0  0  0  0
  134.0640   72.0704  225.5719 H   0  0  0  0  0  0  0  0  0  0  0  0
  133.5870   73.9300  226.4950 N   0  0  0  0  0  0  0  0  0  0  0  0
  133.7640   75.2790  226.5370 C   0  0  0  0  0  0  0  0  0  0  0  0
  133.2422   75.8762  227.2993 H   0  0  0  0  0  0  0  0  0  0  0  0
  134.6020   75.9060  225.6200 C   0  0  0  0  0  0  0  0  0  0  0  0
  134.7461   76.9959  225.6562 H   0  0  0  0  0  0  0  0  0  0  0  0
  135.2590   75.1410  224.6530 C   0  0  0  0  0  0  0  0  0  0  0  0
  135.9108   75.6292  223.9135 H   0  0  0  0  0  0  0  0  0  0  0  0
  1  2  1  0
  2  3  2  0
  3  4  1  0
  3  5  1  0
  5  6  2  0
  6  7  1  0
  7  8  2  0
  8  9  1  0
  8 10  1  0
 10 11  1  0
 10 12  2  0
 12 13  1  0
 12 14  1  0
 14 15  1  0
 14 16  2  0
 16 17  1  0
 17 18  2  0
 17 19  1  0
 19 20  1  0
 20 21  1  0
 20 22  1  0
 20 23  1  0
 23 24  2  0
 24 25  1  0
 24 26  1  0
 26 27  1  0
 26 28  2  0
 28 29  1  0
 28 30  1  0
 30 31  1  0
 30 32  2  0
 32 33  1  0
  2 34  1  0
 34 35  2  0
 35 36  1  0
 35 37  1  0
 37 38  2  0
 38 39  1  0
 38 40  1  0
 40 41  1  0
 40 42  2  0
 42 43  1  0
 19  5  1  0
 32 23  1  0
 42 34  1  0
 16  7  1  0
M  END
>  <UniqueID>  (1) 
22

>  <SMILES>  (1) 
O=c1c2ccccc2nc(/C=C/c2cccnc2)n1Cc1ccc(Cl)cc1

>  <Energy>  (1) 
62.84178484156742

>  <Genealogy>  (1) 
O=c1c2ccccc2nc(/C=C/c2cccnc2)n1Cc1ccc(Cl)cc1 (cis-trans isomerization)
O=c1c2ccccc2nc(/C=C/c2cccnc2)n1Cc1ccc(Cl)cc1 (3D coordinates assigned)
O=c1c2ccccc2nc(/C=C/c2cccnc2)n1Cc1ccc(Cl)cc1 (optimized conformer: 62.84178484156742 kcal/mol)

>  <smiles>  (1) 
O=c1c2ccccc2nc(/C=C/c2cccnc2)n1Cc1ccc(Cl)cc1

>  <score_type>  (1) 
oracle

>  <origin>  (1) 
autodockgpu

>  <m_score__min__energy>  (1) 
-7.6399999999999997

>  <m_primary>  (1) 
energy

>  <meeko>  (1) 
{"free_energy": -7.38, "intermolecular_energy": -8.88, "internal_energy": -1.38, "cluster_size": 8, "cluster_id": 4, "rank_in_cluster": 7}

>  <energy>  (1) 
-7.64

>  <cluster_rmsd>  (1) 
0.0

>  <rmsd>  (1) 
271.2

>  <cluster>  (1) 
1

$$$$
AQNDWTVLZSMOQU-FMIVXFBMNA-N
     RDKit          3D

 43 46  0  0  0  0  0  0  0  0999 V2000
  135.9121   71.8773  223.7102 H   0  0  0  0  0  0  0  0  0  0  0  0
  135.7250   72.9430  223.5120 C   0  0  0  0  0  0  0  0  0  0  0  0
  136.1300   73.4600  222.3490 C   0  0  0  0  0  0  0  0  0  0  0  0
  135.5505   73.2709  221.4333 H   0  0  0  0  0  0  0  0  0  0  0  0
  137.3510   74.2830  222.2890 C   0  0  0  0  0  0  0  0  0  0  0  0
  137.2290   75.6210  222.4980 N   0  0  0  0  0  0  0  0  0  0  0  0
  138.3050   76.4440  222.4950 C   0  0  0  0  0  0  0  0  0  0  0  0
  138.1350   77.8190  222.6960 C   0  0  0  0  0  0  0  0  0  0  0  0
  137.1270   78.2336  222.8443 H   0  0  0  0  0  0  0  0  0  0  0  0
  139.2480   78.6640  222.7080 C   0  0  0  0  0  0  0  0  0  0  0  0
  139.1143   79.7450  222.8617 H   0  0  0  0  0  0  0  0  0  0  0  0
  140.5320   78.1390  222.5250 C   0  0  0  0  0  0  0  0  0  0  0  0
  141.4058   78.8068  222.5468 H   0  0  0  0  0  0  0  0  0  0  0  0
  140.7080   76.7650  222.3140 C   0  0  0  0  0  0  0  0  0  0  0  0
  141.7183   76.3564  222.1648 H   0  0  0  0  0  0  0  0  0  0  0  0
  139.5910   75.9070  222.2930 C   0  0  0  0  0  0  0  0  0  0  0  0
  139.7120   74.5210  222.0810 C   0  0  0  0  0  0  0  0  0  0  0  0
  140.8600   74.0170  221.9090 O   0  0  0  0  0  0  0  0  0  0  0  0
  138.5920   73.7200  222.0680 N   0  0  0  0  0  0  0  0  0  0  0  0
  138.7260   72.2560  221.8640 C   0  0  0  0  0  0  0  0  0  0  0  0
  137.7649   71.8533  221.5116 H   0  0  0  0  0  0  0  0  0  0  0  0
  139.5168   72.0788  221.1202 H   0  0  0  0  0  0  0  0  0  0  0  0
  139.1120   71.5580  223.1490 C   0  0  0  0  0  0  0  0  0  0  0  0
  140.3240   71.8750  223.7900 C   0  0  0  0  0  0  0  0  0  0  0  0
  141.0182   72.5923  223.3279 H   0  0  0  0  0  0  0  0  0  0  0  0
  140.6480   71.2790  225.0150 C   0  0  0  0  0  0  0  0  0  0  0  0
  141.5864   71.5451  225.5236 H   0  0  0  0  0  0  0  0  0  0  0  0
  139.7800   70.3450  225.5940 C   0  0  0  0  0  0  0  0  0  0  0  0
  140.1680   69.6250  227.1520 Cl  0  0  0  0  0  0  0  0  0  0  0  0
  138.5810   70.0190  224.9570 C   0  0  0  0  0  0  0  0  0  0  0  0
  137.8942   69.2919  225.4149 H   0  0  0  0  0  0  0  0  0  0  0  0
  138.2530   70.6200  223.7320 C   0  0  0  0  0  0  0  0  0  0  0  0
  137.3137   70.3517  223.2264 H   0  0  0  0  0  0  0  0  0  0  0  0
  135.0340   73.7480  224.5450 C   0  0  0  0  0  0  0  0  0  0  0  0
  134.2300   73.1590  225.5480 C   0  0  0  0  0  0  0  0  0  0  0  0
  134.1077   72.0663  225.5806 H   0  0  0  0  0  0  0  0  0  0  0  0
  133.6090   73.9360  226.4700 N   0  0  0  0  0  0  0  0  0  0  0  0
  133.7440   75.2900  226.4680 C   0  0  0  0  0  0  0  0  0  0  0  0
  133.2359   75.8924  227.2354 H   0  0  0  0  0  0  0  0  0  0  0  0
  134.5230   75.9160  225.4980 C   0  0  0  0  0  0  0  0  0  0  0  0
  134.6334   77.0104  225.4975 H   0  0  0  0  0  0  0  0  0  0  0  0
  135.1630   75.1440  224.5260 C   0  0  0  0  0  0  0  0  0  0  0  0
  135.7676   75.6306  223.7464 H   0  0  0  0  0  0  0  0  0  0  0  0
  1  2  1  0
  2  3  2  0
  3  4  1  0
  3  5  1  0
  5  6  2  0
  6  7  1  0
  7  8  2  0
  8  9  1  0
  8 10  1  0
 10 11  1  0
 10 12  2  0
 12 13  1  0
 12 14  1  0
 14 15  1  0
 14 16  2  0
 16 17  1  0
 17 18  2  0
 17 19  1  0
 19 20  1  0
 20 21  1  0
 20 22  1  0
 20 23  1  0
 23 24  2  0
 24 25  1  0
 24 26  1  0
 26 27  1  0
 26 28  2  0
 28 29  1  0
 28 30  1  0
 30 31  1  0
 30 32  2  0
 32 33  1  0
  2 34  1  0
 34 35  2  0
 35 36  1  0
 35 37  1  0
 37 38  2  0
 38 39  1  0
 38 40  1  0
 40 41  1  0
 40 42  2  0
 42 43  1  0
 19  5  1  0
 32 23  1  0
 42 34  1  0
 16  7  1  0
M  END
>  <UniqueID>  (2) 
22

>  <SMILES>  (2) 
O=c1c2ccccc2nc(/C=C/c2cccnc2)n1Cc1ccc(Cl)cc1

>  <Energy>  (2) 
62.84178484156742

>  <Genealogy>  (2) 
O=c1c2ccccc2nc(/C=C/c2cccnc2)n1Cc1ccc(Cl)cc1 (cis-trans isomerization)
O=c1c2ccccc2nc(/C=C/c2cccnc2)n1Cc1ccc(Cl)cc1 (3D coordinates assigned)
O=c1c2ccccc2nc(/C=C/c2cccnc2)n1Cc1ccc(Cl)cc1 (optimized conformer: 62.84178484156742 kcal/mol)

>  <smiles>  (2) 
O=c1c2ccccc2nc(/C=C/c2cccnc2)n1Cc1ccc(Cl)cc1

>  <score_type>  (2) 
oracle

>  <origin>  (2) 
autodockgpu

>  <m_score__min__energy>  (2) 
-7.6399999999999997

>  <m_primary>  (2) 
energy

>  <meeko>  (2) 
{"free_energy": -7.41, "intermolecular_energy": -8.9, "internal_energy": -1.36, "cluster_size": 8, "cluster_id": 4, "rank_in_cluster": 5}

>  <energy>  (2) 
-7.54

>  <cluster_rmsd>  (2) 
0.47

>  <rmsd>  (2) 
271.26

>  <cluster>  (2) 
1

$$$$
AQNDWTVLZSMOQU-FMIVXFBMNA-N
     RDKit          3D

 43 46  0  0  0  0  0  0  0  0999 V2000
  143.6446   69.8009  220.2326 H   0  0  0  0  0  0  0  0  0  0  0  0
  143.3950   70.8620  220.0850 C   0  0  0  0  0  0  0  0  0  0  0  0
  142.1130   71.2040  219.9290 C   0  0  0  0  0  0  0  0  0  0  0  0
  141.4200   70.5164  219.4221 H   0  0  0  0  0  0  0  0  0  0  0  0
  141.6240   72.5000  220.4340 C   0  0  0  0  0  0  0  0  0  0  0  0
  142.2870   73.6230  220.0510 N   0  0  0  0  0  0  0  0  0  0  0  0
  141.8830   74.8560  220.4410 C   0  0  0  0  0  0  0  0  0  0  0  0
  142.6030   75.9880  220.0410 C   0  0  0  0  0  0  0  0  0  0  0  0
  143.5044   75.8763  219.4206 H   0  0  0  0  0  0  0  0  0  0  0  0
  142.1750   77.2610  220.4310 C   0  0  0  0  0  0  0  0  0  0  0  0
  142.7433   78.1501  220.1204 H   0  0  0  0  0  0  0  0  0  0  0  0
  141.0260   77.4060  221.2150 C   0  0  0  0  0  0  0  0  0  0  0  0
  140.6866   78.4099  221.5098 H   0  0  0  0  0  0  0  0  0  0  0  0
  140.3060   76.2770  221.6260 C   0  0  0  0  0  0  0  0  0  0  0  0
  139.4057   76.3952  222.2468 H   0  0  0  0  0  0  0  0  0  0  0  0
  140.7340   74.9910  221.2450 C   0  0  0  0  0  0  0  0  0  0  0  0
  140.0500   73.8240  221.6330 C   0  0  0  0  0  0  0  0  0  0  0  0
  139.0080   73.9230  222.3460 O   0  0  0  0  0  0  0  0  0  0  0  0
  140.5040   72.5870  221.2360 N   0  0  0  0  0  0  0  0  0  0  0  0
  139.7680   71.3600  221.6330 C   0  0  0  0  0  0  0  0  0  0  0  0
  138.6959   71.5041  221.4332 H   0  0  0  0  0  0  0  0  0  0  0  0
  140.1607   70.5140  221.0498 H   0  0  0  0  0  0  0  0  0  0  0  0
  139.9600   71.0590  223.1030 C   0  0  0  0  0  0  0  0  0  0  0  0
  140.7470   71.9080  223.9020 C   0  0  0  0  0  0  0  0  0  0  0  0
  141.2696   72.7622  223.4467 H   0  0  0  0  0  0  0  0  0  0  0  0
  140.8660   71.6670  225.2770 C   0  0  0  0  0  0  0  0  0  0  0  0
  141.4655   72.3446  225.9027 H   0  0  0  0  0  0  0  0  0  0  0  0
  140.2240   70.5660  225.8570 C   0  0  0  0  0  0  0  0  0  0  0  0
  140.3410   70.2850  227.5890 Cl  0  0  0  0  0  0  0  0  0  0  0  0
  139.4490   69.7150  225.0650 C   0  0  0  0  0  0  0  0  0  0  0  0
  138.9366   68.8545  225.5199 H   0  0  0  0  0  0  0  0  0  0  0  0
  139.3250   69.9590  223.6890 C   0  0  0  0  0  0  0  0  0  0  0  0
  138.7239   69.2802  223.0663 H   0  0  0  0  0  0  0  0  0  0  0  0
  144.4930   71.8550  220.0670 C   0  0  0  0  0  0  0  0  0  0  0  0
  145.2650   72.1030  218.9090 C   0  0  0  0  0  0  0  0  0  0  0  0
  145.0529   71.5526  217.9805 H   0  0  0  0  0  0  0  0  0  0  0  0
  146.2670   73.0180  218.9390 N   0  0  0  0  0  0  0  0  0  0  0  0
  146.5530   73.7230  220.0670 C   0  0  0  0  0  0  0  0  0  0  0  0
  147.3651   74.4649  220.0575 H   0  0  0  0  0  0  0  0  0  0  0  0
  145.8230   73.5100  221.2330 C   0  0  0  0  0  0  0  0  0  0  0  0
  146.0545   74.0813  222.1441 H   0  0  0  0  0  0  0  0  0  0  0  0
  144.7940   72.5650  221.2370 C   0  0  0  0  0  0  0  0  0  0  0  0
  144.2210   72.3786  222.1572 H   0  0  0  0  0  0  0  0  0  0  0  0
  1  2  1  0
  2  3  2  0
  3  4  1  0
  3  5  1  0
  5  6  2  0
  6  7  1  0
  7  8  2  0
  8  9  1  0
  8 10  1  0
 10 11  1  0
 10 12  2  0
 12 13  1  0
 12 14  1  0
 14 15  1  0
 14 16  2  0
 16 17  1  0
 17 18  2  0
 17 19  1  0
 19 20  1  0
 20 21  1  0
 20 22  1  0
 20 23  1  0
 23 24  2  0
 24 25  1  0
 24 26  1  0
 26 27  1  0
 26 28  2  0
 28 29  1  0
 28 30  1  0
 30 31  1  0
 30 32  2  0
 32 33  1  0
  2 34  1  0
 34 35  2  0
 35 36  1  0
 35 37  1  0
 37 38  2  0
 38 39  1  0
 38 40  1  0
 40 41  1  0
 40 42  2  0
 42 43  1  0
 19  5  1  0
 32 23  1  0
 42 34  1  0
 16  7  1  0
M  END
>  <UniqueID>  (3) 
22

>  <SMILES>  (3) 
O=c1c2ccccc2nc(/C=C/c2cccnc2)n1Cc1ccc(Cl)cc1

>  <Energy>  (3) 
62.84178484156742

>  <Genealogy>  (3) 
O=c1c2ccccc2nc(/C=C/c2cccnc2)n1Cc1ccc(Cl)cc1 (cis-trans isomerization)
O=c1c2ccccc2nc(/C=C/c2cccnc2)n1Cc1ccc(Cl)cc1 (3D coordinates assigned)
O=c1c2ccccc2nc(/C=C/c2cccnc2)n1Cc1ccc(Cl)cc1 (optimized conformer: 62.84178484156742 kcal/mol)

>  <smiles>  (3) 
O=c1c2ccccc2nc(/C=C/c2cccnc2)n1Cc1ccc(Cl)cc1

>  <score_type>  (3) 
oracle

>  <origin>  (3) 
autodockgpu

>  <m_score__min__energy>  (3) 
-7.6399999999999997

>  <m_primary>  (3) 
energy

>  <meeko>  (3) 
{"free_energy": -7.53, "intermolecular_energy": -9.02, "internal_energy": -1.35, "cluster_size": 5, "cluster_id": 1, "rank_in_cluster": 3}

>  <energy>  (3) 
-7.53

>  <cluster_rmsd>  (3) 
1.06

>  <rmsd>  (3) 
271.19

>  <cluster>  (3) 
1

$$$$
AQNDWTVLZSMOQU-FMIVXFBMNA-N
     RDKit          3D

 43 46  0  0  0  0  0  0  0  0999 V2000
  135.9988   71.6974  223.9102 H   0  0  0  0  0  0  0  0  0  0  0  0
  135.7870   72.7440  223.6460 C   0  0  0  0  0  0  0  0  0  0  0  0
  136.1700   73.1930  222.4470 C   0  0  0  0  0  0  0  0  0  0  0  0
  135.5845   72.9357  221.5520 H   0  0  0  0  0  0  0  0  0  0  0  0
  137.3750   74.0320  222.3210 C   0  0  0  0  0  0  0  0  0  0  0  0
  137.2310   75.3780  222.4450 N   0  0  0  0  0  0  0  0  0  0  0  0
  138.2910   76.2180  222.3770 C   0  0  0  0  0  0  0  0  0  0  0  0
  138.0980   77.6000  222.4900 C   0  0  0  0  0  0  0  0  0  0  0  0
  137.0840   78.0056  222.6211 H   0  0  0  0  0  0  0  0  0  0  0  0
  139.1960   78.4640  222.4360 C   0  0  0  0  0  0  0  0  0  0  0  0
  139.0441   79.5501  222.5219 H   0  0  0  0  0  0  0  0  0  0  0  0
  140.4870   77.9510  222.2730 C   0  0  0  0  0  0  0  0  0  0  0  0
  141.3486   78.6341  222.2421 H   0  0  0  0  0  0  0  0  0  0  0  0
  140.6860   76.5700  222.1490 C   0  0  0  0  0  0  0  0  0  0  0  0
  141.7022   76.1705  222.0157 H   0  0  0  0  0  0  0  0  0  0  0  0
  139.5850   75.6930  222.1950 C   0  0  0  0  0  0  0  0  0  0  0  0
  139.7290   74.2980  222.0720 C   0  0  0  0  0  0  0  0  0  0  0  0
  140.8840   73.8040  221.9200 O   0  0  0  0  0  0  0  0  0  0  0  0
  138.6240   73.4780  222.1230 N   0  0  0  0  0  0  0  0  0  0  0  0
  138.7830   72.0060  222.0120 C   0  0  0  0  0  0  0  0  0  0  0  0
  137.8248   71.5639  221.7015 H   0  0  0  0  0  0  0  0  0  0  0  0
  139.5661   71.7951  221.2688 H   0  0  0  0  0  0  0  0  0  0  0  0
  139.2010   71.4000  223.3340 C   0  0  0  0  0  0  0  0  0  0  0  0
  140.3310   71.8920  224.0110 C   0  0  0  0  0  0  0  0  0  0  0  0
  140.9442   72.6825  223.5537 H   0  0  0  0  0  0  0  0  0  0  0  0
  140.6770   71.3770  225.2670 C   0  0  0  0  0  0  0  0  0  0  0  0
  141.5500   71.7778  225.8029 H   0  0  0  0  0  0  0  0  0  0  0  0
  139.9140   70.3530  225.8420 C   0  0  0  0  0  0  0  0  0  0  0  0
  140.3240   69.7330  227.4360 Cl  0  0  0  0  0  0  0  0  0  0  0  0
  138.7970   69.8540  225.1680 C   0  0  0  0  0  0  0  0  0  0  0  0
  138.1921   69.0548  225.6213 H   0  0  0  0  0  0  0  0  0  0  0  0
  138.4470   70.3730  223.9120 C   0  0  0  0  0  0  0  0  0  0  0  0
  137.5738   69.9696  223.3783 H   0  0  0  0  0  0  0  0  0  0  0  0
  135.0890   73.5990  224.6330 C   0  0  0  0  0  0  0  0  0  0  0  0
  134.2250   73.0650  225.6160 C   0  0  0  0  0  0  0  0  0  0  0  0
  134.0581   71.9790  225.6674 H   0  0  0  0  0  0  0  0  0  0  0  0
  133.6010   73.8870  226.4960 N   0  0  0  0  0  0  0  0  0  0  0  0
  133.7890   75.2350  226.4680 C   0  0  0  0  0  0  0  0  0  0  0  0
  133.2757   75.8749  227.2008 H   0  0  0  0  0  0  0  0  0  0  0  0
  134.6280   75.8070  225.5160 C   0  0  0  0  0  0  0  0  0  0  0  0
  134.7812   76.8961  225.4954 H   0  0  0  0  0  0  0  0  0  0  0  0
  135.2740   74.9880  224.5870 C   0  0  0  0  0  0  0  0  0  0  0  0
  135.9266   75.4320  223.8208 H   0  0  0  0  0  0  0  0  0  0  0  0
  1  2  1  0
  2  3  2  0
  3  4  1  0
  3  5  1  0
  5  6  2  0
  6  7  1  0
  7  8  2  0
  8  9  1  0
  8 10  1  0
 10 11  1  0
 10 12  2  0
 12 13  1  0
 12 14  1  0
 14 15  1  0
 14 16  2  0
 16 17  1  0
 17 18  2  0
 17 19  1  0
 19 20  1  0
 20 21  1  0
 20 22  1  0
 20 23  1  0
 23 24  2  0
 24 25  1  0
 24 26  1  0
 26 27  1  0
 26 28  2  0
 28 29  1  0
 28 30  1  0
 30 31  1  0
 30 32  2  0
 32 33  1  0
  2 34  1  0
 34 35  2  0
 35 36  1  0
 35 37  1  0
 37 38  2  0
 38 39  1  0
 38 40  1  0
 40 41  1  0
 40 42  2  0
 42 43  1  0
 19  5  1  0
 32 23  1  0
 42 34  1  0
 16  7  1  0
M  END
>  <UniqueID>  (4) 
22

>  <SMILES>  (4) 
O=c1c2ccccc2nc(/C=C/c2cccnc2)n1Cc1ccc(Cl)cc1

>  <Energy>  (4) 
62.84178484156742

>  <Genealogy>  (4) 
O=c1c2ccccc2nc(/C=C/c2cccnc2)n1Cc1ccc(Cl)cc1 (cis-trans isomerization)
O=c1c2ccccc2nc(/C=C/c2cccnc2)n1Cc1ccc(Cl)cc1 (3D coordinates assigned)
O=c1c2ccccc2nc(/C=C/c2cccnc2)n1Cc1ccc(Cl)cc1 (optimized conformer: 62.84178484156742 kcal/mol)

>  <smiles>  (4) 
O=c1c2ccccc2nc(/C=C/c2cccnc2)n1Cc1ccc(Cl)cc1

>  <score_type>  (4) 
oracle

>  <origin>  (4) 
autodockgpu

>  <m_score__min__energy>  (4) 
-7.6399999999999997

>  <m_primary>  (4) 
energy

>  <meeko>  (4) 
{"free_energy": -7.43, "intermolecular_energy": -8.93, "internal_energy": -1.34, "cluster_size": 8, "cluster_id": 4, "rank_in_cluster": 2}

>  <energy>  (4) 
-7.5

>  <cluster_rmsd>  (4) 
1.05

>  <rmsd>  (4) 
271.2

>  <cluster>  (4) 
1

$$$$
AQNDWTVLZSMOQU-FMIVXFBMNA-N
     RDKit          3D

 43 46  0  0  0  0  0  0  0  0999 V2000
  143.4859   69.8994  220.2404 H   0  0  0  0  0  0  0  0  0  0  0  0
  143.2630   70.9650  220.0830 C   0  0  0  0  0  0  0  0  0  0  0  0
  141.9910   71.3370  219.9210 C   0  0  0  0  0  0  0  0  0  0  0  0
  141.2855   70.6679  219.4066 H   0  0  0  0  0  0  0  0  0  0  0  0
  141.5290   72.6410  220.4290 C   0  0  0  0  0  0  0  0  0  0  0  0
  142.2250   73.7500  220.0640 N   0  0  0  0  0  0  0  0  0  0  0  0
  141.8470   74.9900  220.4580 C   0  0  0  0  0  0  0  0  0  0  0  0
  142.6020   76.1060  220.0770 C   0  0  0  0  0  0  0  0  0  0  0  0
  143.5089   75.9755  219.4683 H   0  0  0  0  0  0  0  0  0  0  0  0
  142.2020   77.3860  220.4710 C   0  0  0  0  0  0  0  0  0  0  0  0
  142.7976   78.2622  220.1749 H   0  0  0  0  0  0  0  0  0  0  0  0
  141.0460   77.5560  221.2410 C   0  0  0  0  0  0  0  0  0  0  0  0
  140.7288   78.5662  221.5390 H   0  0  0  0  0  0  0  0  0  0  0  0
  140.2920   76.4430  221.6330 C   0  0  0  0  0  0  0  0  0  0  0  0
  139.3867   76.5795  222.2428 H   0  0  0  0  0  0  0  0  0  0  0  0
  140.6920   75.1490  221.2470 C   0  0  0  0  0  0  0  0  0  0  0  0
  139.9730   73.9970  221.6180 C   0  0  0  0  0  0  0  0  0  0  0  0
  138.9240   74.1180  222.3170 O   0  0  0  0  0  0  0  0  0  0  0  0
  140.4010   72.7520  221.2170 N   0  0  0  0  0  0  0  0  0  0  0  0
  139.6280   71.5410  221.5940 C   0  0  0  0  0  0  0  0  0  0  0  0
  138.5664   71.7043  221.3567 H   0  0  0  0  0  0  0  0  0  0  0  0
  140.0237   70.6844  221.0286 H   0  0  0  0  0  0  0  0  0  0  0  0
  139.7640   71.2450  223.0720 C   0  0  0  0  0  0  0  0  0  0  0  0
  138.9410   70.2770  223.6770 C   0  0  0  0  0  0  0  0  0  0  0  0
  138.1604   69.7735  223.0878 H   0  0  0  0  0  0  0  0  0  0  0  0
  139.1150   69.9540  225.0290 C   0  0  0  0  0  0  0  0  0  0  0  0
  138.4841   69.1822  225.4942 H   0  0  0  0  0  0  0  0  0  0  0  0
  140.0900   70.6110  225.7900 C   0  0  0  0  0  0  0  0  0  0  0  0
  140.3350   70.1790  227.4770 Cl  0  0  0  0  0  0  0  0  0  0  0  0
  140.9020   71.5800  225.1950 C   0  0  0  0  0  0  0  0  0  0  0  0
  141.6739   72.0915  225.7888 H   0  0  0  0  0  0  0  0  0  0  0  0
  140.7320   71.9000  223.8400 C   0  0  0  0  0  0  0  0  0  0  0  0
  141.3648   72.6720  223.3779 H   0  0  0  0  0  0  0  0  0  0  0  0
  144.3860   71.9310  220.0590 C   0  0  0  0  0  0  0  0  0  0  0  0
  145.1410   72.1790  218.8900 C   0  0  0  0  0  0  0  0  0  0  0  0
  144.8968   71.6494  217.9573 H   0  0  0  0  0  0  0  0  0  0  0  0
  146.1660   73.0680  218.9140 N   0  0  0  0  0  0  0  0  0  0  0  0
  146.4920   73.7470  220.0480 C   0  0  0  0  0  0  0  0  0  0  0  0
  147.3224   74.4683  220.0345 H   0  0  0  0  0  0  0  0  0  0  0  0
  145.7800   73.5330  221.2240 C   0  0  0  0  0  0  0  0  0  0  0  0
  146.0431   74.0838  222.1391 H   0  0  0  0  0  0  0  0  0  0  0  0
  144.7280   72.6130  221.2340 C   0  0  0  0  0  0  0  0  0  0  0  0
  144.1695   72.4247  222.1628 H   0  0  0  0  0  0  0  0  0  0  0  0
  1  2  1  0
  2  3  2  0
  3  4  1  0
  3  5  1  0
  5  6  2  0
  6  7  1  0
  7  8  2  0
  8  9  1  0
  8 10  1  0
 10 11  1  0
 10 12  2  0
 12 13  1  0
 12 14  1  0
 14 15  1  0
 14 16  2  0
 16 17  1  0
 17 18  2  0
 17 19  1  0
 19 20  1  0
 20 21  1  0
 20 22  1  0
 20 23  1  0
 23 24  2  0
 24 25  1  0
 24 26  1  0
 26 27  1  0
 26 28  2  0
 28 29  1  0
 28 30  1  0
 30 31  1  0
 30 32  2  0
 32 33  1  0
  2 34  1  0
 34 35  2  0
 35 36  1  0
 35 37  1  0
 37 38  2  0
 38 39  1  0
 38 40  1  0
 40 41  1  0
 40 42  2  0
 42 43  1  0
 19  5  1  0
 32 23  1  0
 42 34  1  0
 16  7  1  0
M  END
>  <UniqueID>  (5) 
22

>  <SMILES>  (5) 
O=c1c2ccccc2nc(/C=C/c2cccnc2)n1Cc1ccc(Cl)cc1

>  <Energy>  (5) 
62.84178484156742

>  <Genealogy>  (5) 
O=c1c2ccccc2nc(/C=C/c2cccnc2)n1Cc1ccc(Cl)cc1 (cis-trans isomerization)
O=c1c2ccccc2nc(/C=C/c2cccnc2)n1Cc1ccc(Cl)cc1 (3D coordinates assigned)
O=c1c2ccccc2nc(/C=C/c2cccnc2)n1Cc1ccc(Cl)cc1 (optimized conformer: 62.84178484156742 kcal/mol)

>  <smiles>  (5) 
O=c1c2ccccc2nc(/C=C/c2cccnc2)n1Cc1ccc(Cl)cc1

>  <score_type>  (5) 
oracle

>  <origin>  (5) 
autodockgpu

>  <m_score__min__energy>  (5) 
-7.6399999999999997

>  <m_primary>  (5) 
energy

>  <meeko>  (5) 
{"free_energy": -7.5, "intermolecular_energy": -8.99, "internal_energy": -1.41, "cluster_size": 5, "cluster_id": 1, "rank_in_cluster": 5}

>  <energy>  (5) 
-7.5

>  <cluster_rmsd>  (5) 
1.04

>  <rmsd>  (5) 
271.16

>  <cluster>  (5) 
1

$$$$
AQNDWTVLZSMOQU-FMIVXFBMNA-N
     RDKit          3D

 43 46  0  0  0  0  0  0  0  0999 V2000
  142.5527   71.2675  219.0848 H   0  0  0  0  0  0  0  0  0  0  0  0
  142.8740   71.7810  220.0030 C   0  0  0  0  0  0  0  0  0  0  0  0
  142.0520   71.7870  221.0550 C   0  0  0  0  0  0  0  0  0  0  0  0
  142.0203   70.9199  221.7311 H   0  0  0  0  0  0  0  0  0  0  0  0
  141.1870   72.9520  221.3130 C   0  0  0  0  0  0  0  0  0  0  0  0
  141.6830   74.1880  221.0390 N   0  0  0  0  0  0  0  0  0  0  0  0
  140.9420   75.3080  221.2130 C   0  0  0  0  0  0  0  0  0  0  0  0
  141.4960   76.5640  220.9380 C   0  0  0  0  0  0  0  0  0  0  0  0
  142.5374   76.6429  220.5926 H   0  0  0  0  0  0  0  0  0  0  0  0
  140.7240   77.7180  221.1030 C   0  0  0  0  0  0  0  0  0  0  0  0
  141.1602   78.7049  220.8892 H   0  0  0  0  0  0  0  0  0  0  0  0
  139.3990   77.6210  221.5390 C   0  0  0  0  0  0  0  0  0  0  0  0
  138.7927   78.5312  221.6571 H   0  0  0  0  0  0  0  0  0  0  0  0
  138.8410   76.3680  221.8260 C   0  0  0  0  0  0  0  0  0  0  0  0
  137.7999   76.2958  222.1737 H   0  0  0  0  0  0  0  0  0  0  0  0
  139.6140   75.2010  221.6690 C   0  0  0  0  0  0  0  0  0  0  0  0
  139.1040   73.9190  221.9470 C   0  0  0  0  0  0  0  0  0  0  0  0
  137.9090   73.7980  222.3460 O   0  0  0  0  0  0  0  0  0  0  0  0
  139.8950   72.8050  221.7790 N   0  0  0  0  0  0  0  0  0  0  0  0
  139.3480   71.4530  222.0540 C   0  0  0  0  0  0  0  0  0  0  0  0
  138.2602   71.4661  221.8913 H   0  0  0  0  0  0  0  0  0  0  0  0
  139.8329   70.7361  221.3750 H   0  0  0  0  0  0  0  0  0  0  0  0
  139.6290   71.0290  223.4790 C   0  0  0  0  0  0  0  0  0  0  0  0
  140.5220   71.7710  224.2750 C   0  0  0  0  0  0  0  0  0  0  0  0
  141.0586   72.6293  223.8444 H   0  0  0  0  0  0  0  0  0  0  0  0
  140.7280   71.4180  225.6140 C   0  0  0  0  0  0  0  0  0  0  0  0
  141.4107   72.0125  226.2389 H   0  0  0  0  0  0  0  0  0  0  0  0
  140.0680   70.3110  226.1600 C   0  0  0  0  0  0  0  0  0  0  0  0
  140.2970   69.8900  227.8530 Cl  0  0  0  0  0  0  0  0  0  0  0  0
  139.1890   69.5650  225.3710 C   0  0  0  0  0  0  0  0  0  0  0  0
  138.6636   68.6992  225.8003 H   0  0  0  0  0  0  0  0  0  0  0  0
  138.9770   69.9210  224.0310 C   0  0  0  0  0  0  0  0  0  0  0  0
  138.2930   69.3246  223.4094 H   0  0  0  0  0  0  0  0  0  0  0  0
  144.2010   72.4380  220.0230 C   0  0  0  0  0  0  0  0  0  0  0  0
  145.0760   72.4040  218.9130 C   0  0  0  0  0  0  0  0  0  0  0  0
  144.7746   71.8811  217.9934 H   0  0  0  0  0  0  0  0  0  0  0  0
  146.2860   73.0140  218.9780 N   0  0  0  0  0  0  0  0  0  0  0  0
  146.6880   73.6790  220.0960 C   0  0  0  0  0  0  0  0  0  0  0  0
  147.6707   74.1728  220.1154 H   0  0  0  0  0  0  0  0  0  0  0  0
  145.8620   73.7370  221.2140 C   0  0  0  0  0  0  0  0  0  0  0  0
  146.1877   74.2759  222.1160 H   0  0  0  0  0  0  0  0  0  0  0  0
  144.6160   73.1060  221.1830 C   0  0  0  0  0  0  0  0  0  0  0  0
  143.9621   73.1334  222.0671 H   0  0  0  0  0  0  0  0  0  0  0  0
  1  2  1  0
  2  3  2  0
  3  4  1  0
  3  5  1  0
  5  6  2  0
  6  7  1  0
  7  8  2  0
  8  9  1  0
  8 10  1  0
 10 11  1  0
 10 12  2  0
 12 13  1  0
 12 14  1  0
 14 15  1  0
 14 16  2  0
 16 17  1  0
 17 18  2  0
 17 19  1  0
 19 20  1  0
 20 21  1  0
 20 22  1  0
 20 23  1  0
 23 24  2  0
 24 25  1  0
 24 26  1  0
 26 27  1  0
 26 28  2  0
 28 29  1  0
 28 30  1  0
 30 31  1  0
 30 32  2  0
 32 33  1  0
  2 34  1  0
 34 35  2  0
 35 36  1  0
 35 37  1  0
 37 38  2  0
 38 39  1  0
 38 40  1  0
 40 41  1  0
 40 42  2  0
 42 43  1  0
 19  5  1  0
 32 23  1  0
 42 34  1  0
 16  7  1  0
M  END
>  <UniqueID>  (6) 
22

>  <SMILES>  (6) 
O=c1c2ccccc2nc(/C=C/c2cccnc2)n1Cc1ccc(Cl)cc1

>  <Energy>  (6) 
62.84178484156742

>  <Genealogy>  (6) 
O=c1c2ccccc2nc(/C=C/c2cccnc2)n1Cc1ccc(Cl)cc1 (cis-trans isomerization)
O=c1c2ccccc2nc(/C=C/c2cccnc2)n1Cc1ccc(Cl)cc1 (3D coordinates assigned)
O=c1c2ccccc2nc(/C=C/c2cccnc2)n1Cc1ccc(Cl)cc1 (optimized conformer: 62.84178484156742 kcal/mol)

>  <smiles>  (6) 
O=c1c2ccccc2nc(/C=C/c2cccnc2)n1Cc1ccc(Cl)cc1

>  <score_type>  (6) 
oracle

>  <origin>  (6) 
autodockgpu

>  <m_score__min__energy>  (6) 
-7.6399999999999997

>  <m_primary>  (6) 
energy

>  <meeko>  (6) 
{"free_energy": -7.54, "intermolecular_energy": -9.03, "internal_energy": -1.26, "cluster_size": 5, "cluster_id": 1, "rank_in_cluster": 2}

>  <energy>  (6) 
-7.49

>  <cluster_rmsd>  (6) 
0.0

>  <rmsd>  (6) 
271.63

>  <cluster>  (6) 
2

$$$$
AQNDWTVLZSMOQU-FMIVXFBMNA-N
     RDKit          3D

 43 46  0  0  0  0  0  0  0  0999 V2000
  142.3778   71.5252  219.1865 H   0  0  0  0  0  0  0  0  0  0  0  0
  142.7980   71.9500  220.1100 C   0  0  0  0  0  0  0  0  0  0  0  0
  142.0670   71.9040  221.2280 C   0  0  0  0  0  0  0  0  0  0  0  0
  142.2028   71.0751  221.9382 H   0  0  0  0  0  0  0  0  0  0  0  0
  141.0800   72.9600  221.5120 C   0  0  0  0  0  0  0  0  0  0  0  0
  141.4780   74.2540  221.3900 N   0  0  0  0  0  0  0  0  0  0  0  0
  140.6250   75.2850  221.5980 C   0  0  0  0  0  0  0  0  0  0  0  0
  141.0780   76.6050  221.4810 C   0  0  0  0  0  0  0  0  0  0  0  0
  142.1304   76.8060  221.2320 H   0  0  0  0  0  0  0  0  0  0  0  0
  140.1910   77.6670  221.6810 C   0  0  0  0  0  0  0  0  0  0  0  0
  140.5478   78.7037  221.5920 H   0  0  0  0  0  0  0  0  0  0  0  0
  138.8510   77.4150  221.9940 C   0  0  0  0  0  0  0  0  0  0  0  0
  138.1545   78.2538  222.1400 H   0  0  0  0  0  0  0  0  0  0  0  0
  138.3940   76.0970  222.1220 C   0  0  0  0  0  0  0  0  0  0  0  0
  137.3408   75.9024  222.3727 H   0  0  0  0  0  0  0  0  0  0  0  0
  139.2820   75.0210  221.9300 C   0  0  0  0  0  0  0  0  0  0  0  0
  138.8740   73.6790  222.0510 C   0  0  0  0  0  0  0  0  0  0  0  0
  137.6690   73.4190  222.3350 O   0  0  0  0  0  0  0  0  0  0  0  0
  139.7770   72.6590  221.8530 N   0  0  0  0  0  0  0  0  0  0  0  0
  139.3380   71.2450  221.9630 C   0  0  0  0  0  0  0  0  0  0  0  0
  138.2682   71.1811  221.7152 H   0  0  0  0  0  0  0  0  0  0  0  0
  139.9346   70.6396  221.2647 H   0  0  0  0  0  0  0  0  0  0  0  0
  139.5530   70.7130  223.3630 C   0  0  0  0  0  0  0  0  0  0  0  0
  139.0290   69.4600  223.7320 C   0  0  0  0  0  0  0  0  0  0  0  0
  138.4153   68.8896  223.0192 H   0  0  0  0  0  0  0  0  0  0  0  0
  139.2880   68.9390  225.0050 C   0  0  0  0  0  0  0  0  0  0  0  0
  138.8940   67.9503  225.2831 H   0  0  0  0  0  0  0  0  0  0  0  0
  140.0470   69.6720  225.9260 C   0  0  0  0  0  0  0  0  0  0  0  0
  140.4040   69.0010  227.5120 Cl  0  0  0  0  0  0  0  0  0  0  0  0
  140.5600   70.9200  225.5670 C   0  0  0  0  0  0  0  0  0  0  0  0
  141.1626   71.4943  226.2861 H   0  0  0  0  0  0  0  0  0  0  0  0
  140.3070   71.4420  224.2890 C   0  0  0  0  0  0  0  0  0  0  0  0
  140.7039   72.4303  224.0137 H   0  0  0  0  0  0  0  0  0  0  0  0
  144.1510   72.5500  220.0650 C   0  0  0  0  0  0  0  0  0  0  0  0
  144.9800   72.4550  218.9240 C   0  0  0  0  0  0  0  0  0  0  0  0
  144.6214   71.9267  218.0283 H   0  0  0  0  0  0  0  0  0  0  0  0
  146.2160   73.0130  218.9300 N   0  0  0  0  0  0  0  0  0  0  0  0
  146.6900   73.6830  220.0160 C   0  0  0  0  0  0  0  0  0  0  0  0
  147.6929   74.1339  219.9865 H   0  0  0  0  0  0  0  0  0  0  0  0
  145.9110   73.8000  221.1640 C   0  0  0  0  0  0  0  0  0  0  0  0
  146.2938   74.3432  222.0406 H   0  0  0  0  0  0  0  0  0  0  0  0
  144.6390   73.2220  221.1940 C   0  0  0  0  0  0  0  0  0  0  0  0
  144.0221   73.2943  222.1018 H   0  0  0  0  0  0  0  0  0  0  0  0
  1  2  1  0
  2  3  2  0
  3  4  1  0
  3  5  1  0
  5  6  2  0
  6  7  1  0
  7  8  2  0
  8  9  1  0
  8 10  1  0
 10 11  1  0
 10 12  2  0
 12 13  1  0
 12 14  1  0
 14 15  1  0
 14 16  2  0
 16 17  1  0
 17 18  2  0
 17 19  1  0
 19 20  1  0
 20 21  1  0
 20 22  1  0
 20 23  1  0
 23 24  2  0
 24 25  1  0
 24 26  1  0
 26 27  1  0
 26 28  2  0
 28 29  1  0
 28 30  1  0
 30 31  1  0
 30 32  2  0
 32 33  1  0
  2 34  1  0
 34 35  2  0
 35 36  1  0
 35 37  1  0
 37 38  2  0
 38 39  1  0
 38 40  1  0
 40 41  1  0
 40 42  2  0
 42 43  1  0
 19  5  1  0
 32 23  1  0
 42 34  1  0
 16  7  1  0
M  END
>  <UniqueID>  (7) 
22

>  <SMILES>  (7) 
O=c1c2ccccc2nc(/C=C/c2cccnc2)n1Cc1ccc(Cl)cc1

>  <Energy>  (7) 
62.84178484156742

>  <Genealogy>  (7) 
O=c1c2ccccc2nc(/C=C/c2cccnc2)n1Cc1ccc(Cl)cc1 (cis-trans isomerization)
O=c1c2ccccc2nc(/C=C/c2cccnc2)n1Cc1ccc(Cl)cc1 (3D coordinates assigned)
O=c1c2ccccc2nc(/C=C/c2cccnc2)n1Cc1ccc(Cl)cc1 (optimized conformer: 62.84178484156742 kcal/mol)

>  <smiles>  (7) 
O=c1c2ccccc2nc(/C=C/c2cccnc2)n1Cc1ccc(Cl)cc1

>  <score_type>  (7) 
oracle

>  <origin>  (7) 
autodockgpu

>  <m_score__min__energy>  (7) 
-7.6399999999999997

>  <m_primary>  (7) 
energy

>  <meeko>  (7) 
{"free_energy": -7.64, "intermolecular_energy": -9.13, "internal_energy": -1.21, "cluster_size": 5, "cluster_id": 1, "rank_in_cluster": 1}

>  <energy>  (7) 
-7.47

>  <cluster_rmsd>  (7) 
0.0

>  <rmsd>  (7) 
271.33

>  <cluster>  (7) 
3

$$$$
AQNDWTVLZSMOQU-FMIVXFBMNA-N
     RDKit          3D

 43 46  0  0  0  0  0  0  0  0999 V2000
  135.8847   71.8767  223.7344 H   0  0  0  0  0  0  0  0  0  0  0  0
  135.6950   72.9400  223.5260 C   0  0  0  0  0  0  0  0  0  0  0  0
  136.0990   73.4470  222.3580 C   0  0  0  0  0  0  0  0  0  0  0  0
  135.5178   73.2511  221.4449 H   0  0  0  0  0  0  0  0  0  0  0  0
  137.3210   74.2680  222.2890 C   0  0  0  0  0  0  0  0  0  0  0  0
  137.2020   75.6070  222.4920 N   0  0  0  0  0  0  0  0  0  0  0  0
  138.2800   76.4280  222.4810 C   0  0  0  0  0  0  0  0  0  0  0  0
  138.1130   77.8040  222.6740 C   0  0  0  0  0  0  0  0  0  0  0  0
  137.1059   78.2211  222.8216 H   0  0  0  0  0  0  0  0  0  0  0  0
  139.2280   78.6480  222.6790 C   0  0  0  0  0  0  0  0  0  0  0  0
  139.0969   79.7299  222.8287 H   0  0  0  0  0  0  0  0  0  0  0  0
  140.5100   78.1190  222.4940 C   0  0  0  0  0  0  0  0  0  0  0  0
  141.3852   78.7852  222.5088 H   0  0  0  0  0  0  0  0  0  0  0  0
  140.6830   76.7440  222.2900 C   0  0  0  0  0  0  0  0  0  0  0  0
  141.6921   76.3327  222.1400 H   0  0  0  0  0  0  0  0  0  0  0  0
  139.5640   75.8880  222.2770 C   0  0  0  0  0  0  0  0  0  0  0  0
  139.6820   74.5010  222.0720 C   0  0  0  0  0  0  0  0  0  0  0  0
  140.8280   73.9930  221.8990 O   0  0  0  0  0  0  0  0  0  0  0  0
  138.5600   73.7020  222.0680 N   0  0  0  0  0  0  0  0  0  0  0  0
  138.6910   72.2360  221.8710 C   0  0  0  0  0  0  0  0  0  0  0  0
  137.7318   71.8351  221.5116 H   0  0  0  0  0  0  0  0  0  0  0  0
  139.4878   72.0532  221.1350 H   0  0  0  0  0  0  0  0  0  0  0  0
  139.0630   71.5420  223.1620 C   0  0  0  0  0  0  0  0  0  0  0  0
  140.2720   71.8550  223.8100 C   0  0  0  0  0  0  0  0  0  0  0  0
  140.9741   72.5656  223.3494 H   0  0  0  0  0  0  0  0  0  0  0  0
  140.5830   71.2630  225.0410 C   0  0  0  0  0  0  0  0  0  0  0  0
  141.5195   71.5255  225.5549 H   0  0  0  0  0  0  0  0  0  0  0  0
  139.7050   70.3380  225.6190 C   0  0  0  0  0  0  0  0  0  0  0  0
  140.0760   69.6230  227.1820 Cl  0  0  0  0  0  0  0  0  0  0  0  0
  138.5090   70.0160  224.9740 C   0  0  0  0  0  0  0  0  0  0  0  0
  137.8145   69.2950  225.4298 H   0  0  0  0  0  0  0  0  0  0  0  0
  138.1940   70.6130  223.7440 C   0  0  0  0  0  0  0  0  0  0  0  0
  137.2563   70.3485  223.2333 H   0  0  0  0  0  0  0  0  0  0  0  0
  135.0020   73.7530  224.5510 C   0  0  0  0  0  0  0  0  0  0  0  0
  134.2010   73.1700  225.5600 C   0  0  0  0  0  0  0  0  0  0  0  0
  134.0825   72.0772  225.6026 H   0  0  0  0  0  0  0  0  0  0  0  0
  133.5780   73.9540  226.4760 N   0  0  0  0  0  0  0  0  0  0  0  0
  133.7090   75.3090  226.4600 C   0  0  0  0  0  0  0  0  0  0  0  0
  133.1999   75.9173  227.2221 H   0  0  0  0  0  0  0  0  0  0  0  0
  134.4840   75.9280  225.4840 C   0  0  0  0  0  0  0  0  0  0  0  0
  134.5901   77.0228  225.4727 H   0  0  0  0  0  0  0  0  0  0  0  0
  135.1260   75.1490  224.5190 C   0  0  0  0  0  0  0  0  0  0  0  0
  135.7284   75.6303  223.7345 H   0  0  0  0  0  0  0  0  0  0  0  0
  1  2  1  0
  2  3  2  0
  3  4  1  0
  3  5  1  0
  5  6  2  0
  6  7  1  0
  7  8  2  0
  8  9  1  0
  8 10  1  0
 10 11  1  0
 10 12  2  0
 12 13  1  0
 12 14  1  0
 14 15  1  0
 14 16  2  0
 16 17  1  0
 17 18  2  0
 17 19  1  0
 19 20  1  0
 20 21  1  0
 20 22  1  0
 20 23  1  0
 23 24  2  0
 24 25  1  0
 24 26  1  0
 26 27  1  0
 26 28  2  0
 28 29  1  0
 28 30  1  0
 30 31  1  0
 30 32  2  0
 32 33  1  0
  2 34  1  0
 34 35  2  0
 35 36  1  0
 35 37  1  0
 37 38  2  0
 38 39  1  0
 38 40  1  0
 40 41  1  0
 40 42  2  0
 42 43  1  0
 19  5  1  0
 32 23  1  0
 42 34  1  0
 16  7  1  0
M  END
>  <UniqueID>  (8) 
22

>  <SMILES>  (8) 
O=c1c2ccccc2nc(/C=C/c2cccnc2)n1Cc1ccc(Cl)cc1

>  <Energy>  (8) 
62.84178484156742

>  <Genealogy>  (8) 
O=c1c2ccccc2nc(/C=C/c2cccnc2)n1Cc1ccc(Cl)cc1 (cis-trans isomerization)
O=c1c2ccccc2nc(/C=C/c2cccnc2)n1Cc1ccc(Cl)cc1 (3D coordinates assigned)
O=c1c2ccccc2nc(/C=C/c2cccnc2)n1Cc1ccc(Cl)cc1 (optimized conformer: 62.84178484156742 kcal/mol)

>  <smiles>  (8) 
O=c1c2ccccc2nc(/C=C/c2cccnc2)n1Cc1ccc(Cl)cc1

>  <score_type>  (8) 
oracle

>  <origin>  (8) 
autodockgpu

>  <m_score__min__energy>  (8) 
-7.6399999999999997

>  <m_primary>  (8) 
energy

>  <meeko>  (8) 
{"free_energy": -7.38, "intermolecular_energy": -8.88, "internal_energy": -1.37, "cluster_size": 8, "cluster_id": 4, "rank_in_cluster": 6}

>  <energy>  (8) 
-7.44

>  <cluster_rmsd>  (8) 
0.27

>  <rmsd>  (8) 
271.41

>  <cluster>  (8) 
3

$$$$
AQNDWTVLZSMOQU-FMIVXFBMNA-N
     RDKit          3D

 43 46  0  0  0  0  0  0  0  0999 V2000
  143.2863   75.5549  218.0834 H   0  0  0  0  0  0  0  0  0  0  0  0
  143.3810   75.2430  219.1340 C   0  0  0  0  0  0  0  0  0  0  0  0
  142.5740   75.7960  220.0420 C   0  0  0  0  0  0  0  0  0  0  0  0
  142.7511   76.8291  220.3757 H   0  0  0  0  0  0  0  0  0  0  0  0
  141.4470   75.0280  220.5990 C   0  0  0  0  0  0  0  0  0  0  0  0
  141.6680   73.7320  220.9470 N   0  0  0  0  0  0  0  0  0  0  0  0
  140.6970   72.9660  221.4980 C   0  0  0  0  0  0  0  0  0  0  0  0
  140.9590   71.6300  221.8250 C   0  0  0  0  0  0  0  0  0  0  0  0
  141.9503   71.1980  221.6231 H   0  0  0  0  0  0  0  0  0  0  0  0
  139.9600   70.8460  222.4080 C   0  0  0  0  0  0  0  0  0  0  0  0
  140.1653   69.7955  222.6616 H   0  0  0  0  0  0  0  0  0  0  0  0
  138.7000   71.3930  222.6700 C   0  0  0  0  0  0  0  0  0  0  0  0
  137.9206   70.7745  223.1391 H   0  0  0  0  0  0  0  0  0  0  0  0
  138.4270   72.7260  222.3370 C   0  0  0  0  0  0  0  0  0  0  0  0
  137.4330   73.1513  222.5399 H   0  0  0  0  0  0  0  0  0  0  0  0
  139.4260   73.5220  221.7420 C   0  0  0  0  0  0  0  0  0  0  0  0
  139.2040   74.8650  221.3840 C   0  0  0  0  0  0  0  0  0  0  0  0
  138.0730   75.3880  221.6060 O   0  0  0  0  0  0  0  0  0  0  0  0
  140.2100   75.6050  220.8050 N   0  0  0  0  0  0  0  0  0  0  0  0
  139.9770   77.0270  220.4470 C   0  0  0  0  0  0  0  0  0  0  0  0
  140.2852   77.1896  219.4037 H   0  0  0  0  0  0  0  0  0  0  0  0
  138.9068   77.2476  220.5739 H   0  0  0  0  0  0  0  0  0  0  0  0
  140.7670   77.9530  221.3450 C   0  0  0  0  0  0  0  0  0  0  0  0
  141.3920   79.0940  220.8090 C   0  0  0  0  0  0  0  0  0  0  0  0
  141.3522   79.2850  219.7264 H   0  0  0  0  0  0  0  0  0  0  0  0
  142.0650   79.9870  221.6530 C   0  0  0  0  0  0  0  0  0  0  0  0
  142.5361   80.8883  221.2337 H   0  0  0  0  0  0  0  0  0  0  0  0
  142.1400   79.7360  223.0290 C   0  0  0  0  0  0  0  0  0  0  0  0
  142.9500   80.8760  224.0940 Cl  0  0  0  0  0  0  0  0  0  0  0  0
  141.5290   78.5990  223.5630 C   0  0  0  0  0  0  0  0  0  0  0  0
  141.5799   78.4034  224.6443 H   0  0  0  0  0  0  0  0  0  0  0  0
  140.8500   77.7060  222.7190 C   0  0  0  0  0  0  0  0  0  0  0  0
  140.3799   76.8057  223.1414 H   0  0  0  0  0  0  0  0  0  0  0  0
  144.3990   74.2260  219.4850 C   0  0  0  0  0  0  0  0  0  0  0  0
  144.9530   73.3510  218.5230 C   0  0  0  0  0  0  0  0  0  0  0  0
  144.6324   73.4175  217.4729 H   0  0  0  0  0  0  0  0  0  0  0  0
  145.8790   72.4290  218.8900 N   0  0  0  0  0  0  0  0  0  0  0  0
  146.3050   72.3230  220.1780 C   0  0  0  0  0  0  0  0  0  0  0  0
  147.0639   71.5723  220.4436 H   0  0  0  0  0  0  0  0  0  0  0  0
  145.7850   73.1600  221.1610 C   0  0  0  0  0  0  0  0  0  0  0  0
  146.1311   73.0743  222.2016 H   0  0  0  0  0  0  0  0  0  0  0  0
  144.8200   74.1100  220.8160 C   0  0  0  0  0  0  0  0  0  0  0  0
  144.3917   74.7657  221.5884 H   0  0  0  0  0  0  0  0  0  0  0  0
  1  2  1  0
  2  3  2  0
  3  4  1  0
  3  5  1  0
  5  6  2  0
  6  7  1  0
  7  8  2  0
  8  9  1  0
  8 10  1  0
 10 11  1  0
 10 12  2  0
 12 13  1  0
 12 14  1  0
 14 15  1  0
 14 16  2  0
 16 17  1  0
 17 18  2  0
 17 19  1  0
 19 20  1  0
 20 21  1  0
 20 22  1  0
 20 23  1  0
 23 24  2  0
 24 25  1  0
 24 26  1  0
 26 27  1  0
 26 28  2  0
 28 29  1  0
 28 30  1  0
 30 31  1  0
 30 32  2  0
 32 33  1  0
  2 34  1  0
 34 35  2  0
 35 36  1  0
 35 37  1  0
 37 38  2  0
 38 39  1  0
 38 40  1  0
 40 41  1  0
 40 42  2  0
 42 43  1  0
 19  5  1  0
 32 23  1  0
 42 34  1  0
 16  7  1  0
M  END
>  <UniqueID>  (9) 
22

>  <SMILES>  (9) 
O=c1c2ccccc2nc(/C=C/c2cccnc2)n1Cc1ccc(Cl)cc1

>  <Energy>  (9) 
62.84178484156742

>  <Genealogy>  (9) 
O=c1c2ccccc2nc(/C=C/c2cccnc2)n1Cc1ccc(Cl)cc1 (cis-trans isomerization)
O=c1c2ccccc2nc(/C=C/c2cccnc2)n1Cc1ccc(Cl)cc1 (3D coordinates assigned)
O=c1c2ccccc2nc(/C=C/c2cccnc2)n1Cc1ccc(Cl)cc1 (optimized conformer: 62.84178484156742 kcal/mol)

>  <smiles>  (9) 
O=c1c2ccccc2nc(/C=C/c2cccnc2)n1Cc1ccc(Cl)cc1

>  <score_type>  (9) 
oracle

>  <origin>  (9) 
autodockgpu

>  <m_score__min__energy>  (9) 
-7.6399999999999997

>  <m_primary>  (9) 
energy

>  <meeko>  (9) 
{"free_energy": -7.47, "intermolecular_energy": -8.96, "internal_energy": -1.3, "cluster_size": 3, "cluster_id": 3, "rank_in_cluster": 1}

>  <energy>  (9) 
-7.44

>  <cluster_rmsd>  (9) 
0.15

>  <rmsd>  (9) 
271.38

>  <cluster>  (9) 
3

$$$$
AQNDWTVLZSMOQU-FMIVXFBMNA-N
     RDKit          3D

 43 46  0  0  0  0  0  0  0  0999 V2000
  136.0337   71.5855  223.9748 H   0  0  0  0  0  0  0  0  0  0  0  0
  135.8120   72.6230  223.6840 C   0  0  0  0  0  0  0  0  0  0  0  0
  136.1880   73.0440  222.4730 C   0  0  0  0  0  0  0  0  0  0  0  0
  135.6066   72.7521  221.5860 H   0  0  0  0  0  0  0  0  0  0  0  0
  137.3790   73.8980  222.3220 C   0  0  0  0  0  0  0  0  0  0  0  0
  137.2110   75.2450  222.3880 N   0  0  0  0  0  0  0  0  0  0  0  0
  138.2580   76.0990  222.2940 C   0  0  0  0  0  0  0  0  0  0  0  0
  138.0400   77.4820  222.3470 C   0  0  0  0  0  0  0  0  0  0  0  0
  137.0180   77.8753  222.4513 H   0  0  0  0  0  0  0  0  0  0  0  0
  139.1240   78.3610  222.2670 C   0  0  0  0  0  0  0  0  0  0  0  0
  138.9533   79.4470  222.3056 H   0  0  0  0  0  0  0  0  0  0  0  0
  140.4250   77.8640  222.1380 C   0  0  0  0  0  0  0  0  0  0  0  0
  141.2754   78.5599  222.0867 H   0  0  0  0  0  0  0  0  0  0  0  0
  140.6480   76.4830  222.0740 C   0  0  0  0  0  0  0  0  0  0  0  0
  141.6720   76.0958  221.9667 H   0  0  0  0  0  0  0  0  0  0  0  0
  139.5620   75.5900  222.1470 C   0  0  0  0  0  0  0  0  0  0  0  0
  139.7310   74.1940  222.0840 C   0  0  0  0  0  0  0  0  0  0  0  0
  140.8960   73.7130  221.9650 O   0  0  0  0  0  0  0  0  0  0  0  0
  138.6400   73.3580  222.1600 N   0  0  0  0  0  0  0  0  0  0  0  0
  138.8240   71.8850  222.1130 C   0  0  0  0  0  0  0  0  0  0  0  0
  137.8888   71.4172  221.7716 H   0  0  0  0  0  0  0  0  0  0  0  0
  139.6467   71.6586  221.4188 H   0  0  0  0  0  0  0  0  0  0  0  0
  139.1820   71.3350  223.4760 C   0  0  0  0  0  0  0  0  0  0  0  0
  138.3930   70.3290  224.0630 C   0  0  0  0  0  0  0  0  0  0  0  0
  137.4825   69.9787  223.5549 H   0  0  0  0  0  0  0  0  0  0  0  0
  138.7650   69.7730  225.2930 C   0  0  0  0  0  0  0  0  0  0  0  0
  138.1568   68.9726  225.7396 H   0  0  0  0  0  0  0  0  0  0  0  0
  139.9090   70.2330  225.9560 C   0  0  0  0  0  0  0  0  0  0  0  0
  140.3990   69.5070  227.4820 Cl  0  0  0  0  0  0  0  0  0  0  0  0
  140.6900   71.2380  225.3820 C   0  0  0  0  0  0  0  0  0  0  0  0
  141.5940   71.5945  225.8975 H   0  0  0  0  0  0  0  0  0  0  0  0
  140.3210   71.7930  224.1470 C   0  0  0  0  0  0  0  0  0  0  0  0
  140.9314   72.5935  223.7036 H   0  0  0  0  0  0  0  0  0  0  0  0
  135.1090   73.4970  224.6500 C   0  0  0  0  0  0  0  0  0  0  0  0
  134.2060   72.9860  225.6110 C   0  0  0  0  0  0  0  0  0  0  0  0
  134.0117   71.9044  225.6601 H   0  0  0  0  0  0  0  0  0  0  0  0
  133.5790   73.8250  226.4720 N   0  0  0  0  0  0  0  0  0  0  0  0
  133.8010   75.1680  226.4480 C   0  0  0  0  0  0  0  0  0  0  0  0
  133.2845   75.8217  227.1663 H   0  0  0  0  0  0  0  0  0  0  0  0
  134.6790   75.7170  225.5180 C   0  0  0  0  0  0  0  0  0  0  0  0
  134.8597   76.8019  225.4998 H   0  0  0  0  0  0  0  0  0  0  0  0
  135.3290   74.8800  224.6080 C   0  0  0  0  0  0  0  0  0  0  0  0
  136.0128   75.3063  223.8592 H   0  0  0  0  0  0  0  0  0  0  0  0
  1  2  1  0
  2  3  2  0
  3  4  1  0
  3  5  1  0
  5  6  2  0
  6  7  1  0
  7  8  2  0
  8  9  1  0
  8 10  1  0
 10 11  1  0
 10 12  2  0
 12 13  1  0
 12 14  1  0
 14 15  1  0
 14 16  2  0
 16 17  1  0
 17 18  2  0
 17 19  1  0
 19 20  1  0
 20 21  1  0
 20 22  1  0
 20 23  1  0
 23 24  2  0
 24 25  1  0
 24 26  1  0
 26 27  1  0
 26 28  2  0
 28 29  1  0
 28 30  1  0
 30 31  1  0
 30 32  2  0
 32 33  1  0
  2 34  1  0
 34 35  2  0
 35 36  1  0
 35 37  1  0
 37 38  2  0
 38 39  1  0
 38 40  1  0
 40 41  1  0
 40 42  2  0
 42 43  1  0
 19  5  1  0
 32 23  1  0
 42 34  1  0
 16  7  1  0
M  END
>  <UniqueID>  (10) 
22

>  <SMILES>  (10) 
O=c1c2ccccc2nc(/C=C/c2cccnc2)n1Cc1ccc(Cl)cc1

>  <Energy>  (10) 
62.84178484156742

>  <Genealogy>  (10) 
O=c1c2ccccc2nc(/C=C/c2cccnc2)n1Cc1ccc(Cl)cc1 (cis-trans isomerization)
O=c1c2ccccc2nc(/C=C/c2cccnc2)n1Cc1ccc(Cl)cc1 (3D coordinates assigned)
O=c1c2ccccc2nc(/C=C/c2cccnc2)n1Cc1ccc(Cl)cc1 (optimized conformer: 62.84178484156742 kcal/mol)

>  <smiles>  (10) 
O=c1c2ccccc2nc(/C=C/c2cccnc2)n1Cc1ccc(Cl)cc1

>  <score_type>  (10) 
oracle

>  <origin>  (10) 
autodockgpu

>  <m_score__min__energy>  (10) 
-7.6399999999999997

>  <m_primary>  (10) 
energy

>  <meeko>  (10) 
{"free_energy": -7.42, "intermolecular_energy": -8.91, "internal_energy": -1.36, "cluster_size": 8, "cluster_id": 4, "rank_in_cluster": 4}

>  <energy>  (10) 
-7.45

>  <cluster_rmsd>  (10) 
0.0

>  <rmsd>  (10) 
271.05

>  <cluster>  (10) 
4

$$$$
AQNDWTVLZSMOQU-FMIVXFBMNA-N
     RDKit          3D

 43 46  0  0  0  0  0  0  0  0999 V2000
  135.3836   68.0016  222.6499 H   0  0  0  0  0  0  0  0  0  0  0  0
  135.9300   68.7360  223.2600 C   0  0  0  0  0  0  0  0  0  0  0  0
  137.1880   69.0380  222.9260 C   0  0  0  0  0  0  0  0  0  0  0  0
  137.5056   68.9797  221.8745 H   0  0  0  0  0  0  0  0  0  0  0  0
  138.1510   69.4490  223.9630 C   0  0  0  0  0  0  0  0  0  0  0  0
  138.4360   68.5640  224.9550 N   0  0  0  0  0  0  0  0  0  0  0  0
  139.3360   68.8470  225.9270 C   0  0  0  0  0  0  0  0  0  0  0  0
  139.5870   67.9170  226.9420 C   0  0  0  0  0  0  0  0  0  0  0  0
  139.0441   66.9605  226.9589 H   0  0  0  0  0  0  0  0  0  0  0  0
  140.5290   68.2050  227.9350 C   0  0  0  0  0  0  0  0  0  0  0  0
  140.7244   67.4750  228.7343 H   0  0  0  0  0  0  0  0  0  0  0  0
  141.2230   69.4190  227.9140 C   0  0  0  0  0  0  0  0  0  0  0  0
  141.9708   69.6364  228.6908 H   0  0  0  0  0  0  0  0  0  0  0  0
  140.9690   70.3590  226.9070 C   0  0  0  0  0  0  0  0  0  0  0  0
  141.5130   71.3150  226.8971 H   0  0  0  0  0  0  0  0  0  0  0  0
  140.0170   70.0800  225.9070 C   0  0  0  0  0  0  0  0  0  0  0  0
  139.7210   70.9900  224.8750 C   0  0  0  0  0  0  0  0  0  0  0  0
  140.3310   72.0990  224.8310 O   0  0  0  0  0  0  0  0  0  0  0  0
  138.7840   70.6750  223.9180 N   0  0  0  0  0  0  0  0  0  0  0  0
  138.4890   71.6300  222.8200 C   0  0  0  0  0  0  0  0  0  0  0  0
  137.8753   71.1245  222.0598 H   0  0  0  0  0  0  0  0  0  0  0  0
  137.9509   72.4914  223.2424 H   0  0  0  0  0  0  0  0  0  0  0  0
  139.7620   72.1300  222.1740 C   0  0  0  0  0  0  0  0  0  0  0  0
  140.7140   71.2150  221.6870 C   0  0  0  0  0  0  0  0  0  0  0  0
  140.5582   70.1348  221.8247 H   0  0  0  0  0  0  0  0  0  0  0  0
  141.8600   71.6780  221.0270 C   0  0  0  0  0  0  0  0  0  0  0  0
  142.5926   70.9597  220.6304 H   0  0  0  0  0  0  0  0  0  0  0  0
  142.0750   73.0530  220.8710 C   0  0  0  0  0  0  0  0  0  0  0  0
  143.4930   73.6340  220.0080 Cl  0  0  0  0  0  0  0  0  0  0  0  0
  141.1370   73.9650  221.3610 C   0  0  0  0  0  0  0  0  0  0  0  0
  141.3002   75.0452  221.2321 H   0  0  0  0  0  0  0  0  0  0  0  0
  139.9860   73.5020  222.0180 C   0  0  0  0  0  0  0  0  0  0  0  0
  139.2552   74.2231  222.4129 H   0  0  0  0  0  0  0  0  0  0  0  0
  135.2420   69.3500  224.4180 C   0  0  0  0  0  0  0  0  0  0  0  0
  134.5900   68.5760  225.4050 C   0  0  0  0  0  0  0  0  0  0  0  0
  134.5893   67.4786  225.3289 H   0  0  0  0  0  0  0  0  0  0  0  0
  133.9650   69.1820  226.4460 N   0  0  0  0  0  0  0  0  0  0  0  0
  133.9530   70.5370  226.5780 C   0  0  0  0  0  0  0  0  0  0  0  0
  133.4464   70.9988  227.4383 H   0  0  0  0  0  0  0  0  0  0  0  0
  134.5790   71.3410  225.6290 C   0  0  0  0  0  0  0  0  0  0  0  0
  134.5704   72.4356  225.7376 H   0  0  0  0  0  0  0  0  0  0  0  0
  135.2180   70.7470  224.5380 C   0  0  0  0  0  0  0  0  0  0  0  0
  135.7015   71.3740  223.7744 H   0  0  0  0  0  0  0  0  0  0  0  0
  1  2  1  0
  2  3  2  0
  3  4  1  0
  3  5  1  0
  5  6  2  0
  6  7  1  0
  7  8  2  0
  8  9  1  0
  8 10  1  0
 10 11  1  0
 10 12  2  0
 12 13  1  0
 12 14  1  0
 14 15  1  0
 14 16  2  0
 16 17  1  0
 17 18  2  0
 17 19  1  0
 19 20  1  0
 20 21  1  0
 20 22  1  0
 20 23  1  0
 23 24  2  0
 24 25  1  0
 24 26  1  0
 26 27  1  0
 26 28  2  0
 28 29  1  0
 28 30  1  0
 30 31  1  0
 30 32  2  0
 32 33  1  0
  2 34  1  0
 34 35  2  0
 35 36  1  0
 35 37  1  0
 37 38  2  0
 38 39  1  0
 38 40  1  0
 40 41  1  0
 40 42  2  0
 42 43  1  0
 19  5  1  0
 32 23  1  0
 42 34  1  0
 16  7  1  0
M  END
>  <UniqueID>  (11) 
22

>  <SMILES>  (11) 
O=c1c2ccccc2nc(/C=C/c2cccnc2)n1Cc1ccc(Cl)cc1

>  <Energy>  (11) 
62.84178484156742

>  <Genealogy>  (11) 
O=c1c2ccccc2nc(/C=C/c2cccnc2)n1Cc1ccc(Cl)cc1 (cis-trans isomerization)
O=c1c2ccccc2nc(/C=C/c2cccnc2)n1Cc1ccc(Cl)cc1 (3D coordinates assigned)
O=c1c2ccccc2nc(/C=C/c2cccnc2)n1Cc1ccc(Cl)cc1 (optimized conformer: 62.84178484156742 kcal/mol)

>  <smiles>  (11) 
O=c1c2ccccc2nc(/C=C/c2cccnc2)n1Cc1ccc(Cl)cc1

>  <score_type>  (11) 
oracle

>  <origin>  (11) 
autodockgpu

>  <m_score__min__energy>  (11) 
-7.6399999999999997

>  <m_primary>  (11) 
energy

>  <meeko>  (11) 
{"free_energy": -7.23, "intermolecular_energy": -8.72, "internal_energy": -1.34, "cluster_size": 2, "cluster_id": 6, "rank_in_cluster": 2}

>  <energy>  (11) 
-7.43

>  <cluster_rmsd>  (11) 
0.1

>  <rmsd>  (11) 
271.03

>  <cluster>  (11) 
4

$$$$
AQNDWTVLZSMOQU-FMIVXFBMNA-N
     RDKit          3D

 43 46  0  0  0  0  0  0  0  0999 V2000
  143.4439   75.7530  218.1343 H   0  0  0  0  0  0  0  0  0  0  0  0
  143.5050   75.4050  219.1760 C   0  0  0  0  0  0  0  0  0  0  0  0
  142.7140   75.9740  220.0900 C   0  0  0  0  0  0  0  0  0  0  0  0
  142.9251   76.9958  220.4383 H   0  0  0  0  0  0  0  0  0  0  0  0
  141.5590   75.2360  220.6330 C   0  0  0  0  0  0  0  0  0  0  0  0
  141.7570   73.9540  221.0410 N   0  0  0  0  0  0  0  0  0  0  0  0
  140.7580   73.2170  221.5840 C   0  0  0  0  0  0  0  0  0  0  0  0
  140.9970   71.8940  221.9740 C   0  0  0  0  0  0  0  0  0  0  0  0
  141.9919   71.4481  221.8284 H   0  0  0  0  0  0  0  0  0  0  0  0
  139.9690   71.1400  222.5490 C   0  0  0  0  0  0  0  0  0  0  0  0
  140.1556   70.0991  222.8519 H   0  0  0  0  0  0  0  0  0  0  0  0
  138.7040   71.7060  222.7400 C   0  0  0  0  0  0  0  0  0  0  0  0
  137.9018   71.1126  223.2030 H   0  0  0  0  0  0  0  0  0  0  0  0
  138.4560   73.0270  222.3430 C   0  0  0  0  0  0  0  0  0  0  0  0
  137.4587   73.4674  222.4897 H   0  0  0  0  0  0  0  0  0  0  0  0
  139.4840   73.7910  221.7560 C   0  0  0  0  0  0  0  0  0  0  0  0
  139.2870   75.1200  221.3360 C   0  0  0  0  0  0  0  0  0  0  0  0
  138.1520   75.6590  221.4920 O   0  0  0  0  0  0  0  0  0  0  0  0
  140.3200   75.8290  220.7670 N   0  0  0  0  0  0  0  0  0  0  0  0
  140.1130   77.2370  220.3430 C   0  0  0  0  0  0  0  0  0  0  0  0
  140.5326   77.3740  219.3355 H   0  0  0  0  0  0  0  0  0  0  0  0
  139.0332   77.4466  220.3445 H   0  0  0  0  0  0  0  0  0  0  0  0
  140.7900   78.1990  221.2950 C   0  0  0  0  0  0  0  0  0  0  0  0
  141.3190   79.4120  220.8180 C   0  0  0  0  0  0  0  0  0  0  0  0
  141.2904   79.6382  219.7419 H   0  0  0  0  0  0  0  0  0  0  0  0
  141.8820   80.3320  221.7110 C   0  0  0  0  0  0  0  0  0  0  0  0
  142.2759   81.2886  221.3371 H   0  0  0  0  0  0  0  0  0  0  0  0
  141.9450   80.0380  223.0780 C   0  0  0  0  0  0  0  0  0  0  0  0
  142.6170   81.2100  224.2050 Cl  0  0  0  0  0  0  0  0  0  0  0  0
  141.4300   78.8310  223.5560 C   0  0  0  0  0  0  0  0  0  0  0  0
  141.4712   78.6019  224.6311 H   0  0  0  0  0  0  0  0  0  0  0  0
  140.8600   77.9110  222.6630 C   0  0  0  0  0  0  0  0  0  0  0  0
  140.4652   76.9563  223.0408 H   0  0  0  0  0  0  0  0  0  0  0  0
  144.4610   74.3240  219.5100 C   0  0  0  0  0  0  0  0  0  0  0  0
  144.9240   73.4030  218.5430 C   0  0  0  0  0  0  0  0  0  0  0  0
  144.5776   73.4811  217.5019 H   0  0  0  0  0  0  0  0  0  0  0  0
  145.7940   72.4230  218.8940 N   0  0  0  0  0  0  0  0  0  0  0  0
  146.2510   72.3010  220.1700 C   0  0  0  0  0  0  0  0  0  0  0  0
  146.9635   71.5018  220.4221 H   0  0  0  0  0  0  0  0  0  0  0  0
  145.8210   73.1830  221.1580 C   0  0  0  0  0  0  0  0  0  0  0  0
  146.1921   73.0848  222.1888 H   0  0  0  0  0  0  0  0  0  0  0  0
  144.9140   74.1940  220.8290 C   0  0  0  0  0  0  0  0  0  0  0  0
  144.5563   74.8868  221.6049 H   0  0  0  0  0  0  0  0  0  0  0  0
  1  2  1  0
  2  3  2  0
  3  4  1  0
  3  5  1  0
  5  6  2  0
  6  7  1  0
  7  8  2  0
  8  9  1  0
  8 10  1  0
 10 11  1  0
 10 12  2  0
 12 13  1  0
 12 14  1  0
 14 15  1  0
 14 16  2  0
 16 17  1  0
 17 18  2  0
 17 19  1  0
 19 20  1  0
 20 21  1  0
 20 22  1  0
 20 23  1  0
 23 24  2  0
 24 25  1  0
 24 26  1  0
 26 27  1  0
 26 28  2  0
 28 29  1  0
 28 30  1  0
 30 31  1  0
 30 32  2  0
 32 33  1  0
  2 34  1  0
 34 35  2  0
 35 36  1  0
 35 37  1  0
 37 38  2  0
 38 39  1  0
 38 40  1  0
 40 41  1  0
 40 42  2  0
 42 43  1  0
 19  5  1  0
 32 23  1  0
 42 34  1  0
 16  7  1  0
M  END
>  <UniqueID>  (12) 
22

>  <SMILES>  (12) 
O=c1c2ccccc2nc(/C=C/c2cccnc2)n1Cc1ccc(Cl)cc1

>  <Energy>  (12) 
62.84178484156742

>  <Genealogy>  (12) 
O=c1c2ccccc2nc(/C=C/c2cccnc2)n1Cc1ccc(Cl)cc1 (cis-trans isomerization)
O=c1c2ccccc2nc(/C=C/c2cccnc2)n1Cc1ccc(Cl)cc1 (3D coordinates assigned)
O=c1c2ccccc2nc(/C=C/c2cccnc2)n1Cc1ccc(Cl)cc1 (optimized conformer: 62.84178484156742 kcal/mol)

>  <smiles>  (12) 
O=c1c2ccccc2nc(/C=C/c2cccnc2)n1Cc1ccc(Cl)cc1

>  <score_type>  (12) 
oracle

>  <origin>  (12) 
autodockgpu

>  <m_score__min__energy>  (12) 
-7.6399999999999997

>  <m_primary>  (12) 
energy

>  <meeko>  (12) 
{"free_energy": -7.44, "intermolecular_energy": -8.93, "internal_energy": -1.31, "cluster_size": 3, "cluster_id": 3, "rank_in_cluster": 2}

>  <energy>  (12) 
-7.43

>  <cluster_rmsd>  (12) 
0.09

>  <rmsd>  (12) 
271.04

>  <cluster>  (12) 
4

$$$$
AQNDWTVLZSMOQU-FMIVXFBMNA-N
     RDKit          3D

 43 46  0  0  0  0  0  0  0  0999 V2000
  135.4094   69.4994  222.2644 H   0  0  0  0  0  0  0  0  0  0  0  0
  135.9090   69.3440  223.2320 C   0  0  0  0  0  0  0  0  0  0  0  0
  137.1460   68.8400  223.2410 C   0  0  0  0  0  0  0  0  0  0  0  0
  137.4386   68.0913  222.4901 H   0  0  0  0  0  0  0  0  0  0  0  0
  138.1200   69.2840  224.2540 C   0  0  0  0  0  0  0  0  0  0  0  0
  138.4460   68.4170  225.2490 N   0  0  0  0  0  0  0  0  0  0  0  0
  139.3580   68.7330  226.1990 C   0  0  0  0  0  0  0  0  0  0  0  0
  139.6530   67.8190  227.2180 C   0  0  0  0  0  0  0  0  0  0  0  0
  139.1350   66.8493  227.2548 H   0  0  0  0  0  0  0  0  0  0  0  0
  140.6060   68.1400  228.1880 C   0  0  0  0  0  0  0  0  0  0  0  0
  140.8341   67.4236  228.9909 H   0  0  0  0  0  0  0  0  0  0  0  0
  141.2710   69.3700  228.1410 C   0  0  0  0  0  0  0  0  0  0  0  0
  142.0289   69.6133  228.9003 H   0  0  0  0  0  0  0  0  0  0  0  0
  140.9740   70.2930  227.1290 C   0  0  0  0  0  0  0  0  0  0  0  0
  141.4948   71.2614  227.0979 H   0  0  0  0  0  0  0  0  0  0  0  0
  140.0090   69.9810  226.1520 C   0  0  0  0  0  0  0  0  0  0  0  0
  139.6710   70.8730  225.1170 C   0  0  0  0  0  0  0  0  0  0  0  0
  140.2530   71.9950  225.0490 O   0  0  0  0  0  0  0  0  0  0  0  0
  138.7220   70.5250  224.1830 N   0  0  0  0  0  0  0  0  0  0  0  0
  138.3820   71.4610  223.0820 C   0  0  0  0  0  0  0  0  0  0  0  0
  137.7901   70.9252  222.3253 H   0  0  0  0  0  0  0  0  0  0  0  0
  137.8065   72.2991  223.5021 H   0  0  0  0  0  0  0  0  0  0  0  0
  139.6300   72.0150  222.4310 C   0  0  0  0  0  0  0  0  0  0  0  0
  140.6170   71.1430  221.9360 C   0  0  0  0  0  0  0  0  0  0  0  0
  140.5073   70.0567  222.0699 H   0  0  0  0  0  0  0  0  0  0  0  0
  141.7390   71.6560  221.2730 C   0  0  0  0  0  0  0  0  0  0  0  0
  142.4995   70.9706  220.8707 H   0  0  0  0  0  0  0  0  0  0  0  0
  141.8950   73.0390  221.1210 C   0  0  0  0  0  0  0  0  0  0  0  0
  143.2840   73.6820  220.2540 Cl  0  0  0  0  0  0  0  0  0  0  0  0
  140.9230   73.9090  221.6190 C   0  0  0  0  0  0  0  0  0  0  0  0
  141.0404   74.9955  221.4934 H   0  0  0  0  0  0  0  0  0  0  0  0
  139.7960   73.3960  222.2800 C   0  0  0  0  0  0  0  0  0  0  0  0
  139.0381   74.0845  222.6820 H   0  0  0  0  0  0  0  0  0  0  0  0
  135.1830   69.7020  224.4720 C   0  0  0  0  0  0  0  0  0  0  0  0
  134.6400   68.7230  225.3360 C   0  0  0  0  0  0  0  0  0  0  0  0
  134.7561   67.6555  225.0972 H   0  0  0  0  0  0  0  0  0  0  0  0
  133.9760   69.0970  226.4590 N   0  0  0  0  0  0  0  0  0  0  0  0
  133.8210   70.4070  226.7920 C   0  0  0  0  0  0  0  0  0  0  0  0
  133.2857   70.6780  227.7139 H   0  0  0  0  0  0  0  0  0  0  0  0
  134.3370   71.4060  225.9710 C   0  0  0  0  0  0  0  0  0  0  0  0
  134.2140   72.4648  226.2426 H   0  0  0  0  0  0  0  0  0  0  0  0
  135.0120   71.0540  224.8000 C   0  0  0  0  0  0  0  0  0  0  0  0
  135.4087   71.8364  224.1363 H   0  0  0  0  0  0  0  0  0  0  0  0
  1  2  1  0
  2  3  2  0
  3  4  1  0
  3  5  1  0
  5  6  2  0
  6  7  1  0
  7  8  2  0
  8  9  1  0
  8 10  1  0
 10 11  1  0
 10 12  2  0
 12 13  1  0
 12 14  1  0
 14 15  1  0
 14 16  2  0
 16 17  1  0
 17 18  2  0
 17 19  1  0
 19 20  1  0
 20 21  1  0
 20 22  1  0
 20 23  1  0
 23 24  2  0
 24 25  1  0
 24 26  1  0
 26 27  1  0
 26 28  2  0
 28 29  1  0
 28 30  1  0
 30 31  1  0
 30 32  2  0
 32 33  1  0
  2 34  1  0
 34 35  2  0
 35 36  1  0
 35 37  1  0
 37 38  2  0
 38 39  1  0
 38 40  1  0
 40 41  1  0
 40 42  2  0
 42 43  1  0
 19  5  1  0
 32 23  1  0
 42 34  1  0
 16  7  1  0
M  END
>  <UniqueID>  (13) 
22

>  <SMILES>  (13) 
O=c1c2ccccc2nc(/C=C/c2cccnc2)n1Cc1ccc(Cl)cc1

>  <Energy>  (13) 
62.84178484156742

>  <Genealogy>  (13) 
O=c1c2ccccc2nc(/C=C/c2cccnc2)n1Cc1ccc(Cl)cc1 (cis-trans isomerization)
O=c1c2ccccc2nc(/C=C/c2cccnc2)n1Cc1ccc(Cl)cc1 (3D coordinates assigned)
O=c1c2ccccc2nc(/C=C/c2cccnc2)n1Cc1ccc(Cl)cc1 (optimized conformer: 62.84178484156742 kcal/mol)

>  <smiles>  (13) 
O=c1c2ccccc2nc(/C=C/c2cccnc2)n1Cc1ccc(Cl)cc1

>  <score_type>  (13) 
oracle

>  <origin>  (13) 
autodockgpu

>  <m_score__min__energy>  (13) 
-7.6399999999999997

>  <m_primary>  (13) 
energy

>  <meeko>  (13) 
{"free_energy": -7.36, "intermolecular_energy": -8.85, "internal_energy": -1.29, "cluster_size": 2, "cluster_id": 6, "rank_in_cluster": 1}

>  <energy>  (13) 
-7.42

>  <cluster_rmsd>  (13) 
0.11

>  <rmsd>  (13) 
271.02

>  <cluster>  (13) 
4

$$$$
AQNDWTVLZSMOQU-FMIVXFBMNA-N
     RDKit          3D

 43 46  0  0  0  0  0  0  0  0999 V2000
  134.2734   73.2677  222.2784 H   0  0  0  0  0  0  0  0  0  0  0  0
  135.0070   72.7950  222.9480 C   0  0  0  0  0  0  0  0  0  0  0  0
  136.1960   72.4440  222.4510 C   0  0  0  0  0  0  0  0  0  0  0  0
  136.3700   71.4075  222.1264 H   0  0  0  0  0  0  0  0  0  0  0  0
  137.2750   73.4400  222.3360 C   0  0  0  0  0  0  0  0  0  0  0  0
  136.9410   74.7550  222.4280 N   0  0  0  0  0  0  0  0  0  0  0  0
  137.8760   75.7330  222.3680 C   0  0  0  0  0  0  0  0  0  0  0  0
  137.4900   77.0770  222.4480 C   0  0  0  0  0  0  0  0  0  0  0  0
  136.4264   77.3396  222.5469 H   0  0  0  0  0  0  0  0  0  0  0  0
  138.4580   78.0840  222.4020 C   0  0  0  0  0  0  0  0  0  0  0  0
  138.1542   79.1396  222.4611 H   0  0  0  0  0  0  0  0  0  0  0  0
  139.8120   77.7540  222.2810 C   0  0  0  0  0  0  0  0  0  0  0  0
  140.5707   78.5501  222.2565 H   0  0  0  0  0  0  0  0  0  0  0  0
  140.2040   76.4120  222.1910 C   0  0  0  0  0  0  0  0  0  0  0  0
  141.2690   76.1558  222.0906 H   0  0  0  0  0  0  0  0  0  0  0  0
  139.2350   75.3910  222.2290 C   0  0  0  0  0  0  0  0  0  0  0  0
  139.5750   74.0280  222.1380 C   0  0  0  0  0  0  0  0  0  0  0  0
  140.7910   73.6970  222.0250 O   0  0  0  0  0  0  0  0  0  0  0  0
  138.5940   73.0630  222.1800 N   0  0  0  0  0  0  0  0  0  0  0  0
  138.9580   71.6260  222.1040 C   0  0  0  0  0  0  0  0  0  0  0  0
  138.1181   71.0657  221.6675 H   0  0  0  0  0  0  0  0  0  0  0  0
  139.8572   71.5270  221.4782 H   0  0  0  0  0  0  0  0  0  0  0  0
  139.2650   71.0660  223.4760 C   0  0  0  0  0  0  0  0  0  0  0  0
  140.3680   71.5470  224.2050 C   0  0  0  0  0  0  0  0  0  0  0  0
  141.0409   72.2922  223.7557 H   0  0  0  0  0  0  0  0  0  0  0  0
  140.6100   71.0780  225.5020 C   0  0  0  0  0  0  0  0  0  0  0  0
  141.4611   71.4713  226.0773 H   0  0  0  0  0  0  0  0  0  0  0  0
  139.7720   70.1100  226.0690 C   0  0  0  0  0  0  0  0  0  0  0  0
  140.0520   69.5490  227.7120 Cl  0  0  0  0  0  0  0  0  0  0  0  0
  138.6820   69.6220  225.3440 C   0  0  0  0  0  0  0  0  0  0  0  0
  138.0179   68.8670  225.7899 H   0  0  0  0  0  0  0  0  0  0  0  0
  138.4350   70.0960  224.0460 C   0  0  0  0  0  0  0  0  0  0  0  0
  137.5826   69.7016  223.4734 H   0  0  0  0  0  0  0  0  0  0  0  0
  134.6370   72.5730  224.3650 C   0  0  0  0  0  0  0  0  0  0  0  0
  134.2570   73.6330  225.2200 C   0  0  0  0  0  0  0  0  0  0  0  0
  134.2249   74.6630  224.8353 H   0  0  0  0  0  0  0  0  0  0  0  0
  133.9320   73.3840  226.5130 N   0  0  0  0  0  0  0  0  0  0  0  0
  133.9530   72.1220  227.0230 C   0  0  0  0  0  0  0  0  0  0  0  0
  133.6757   71.9510  228.0737 H   0  0  0  0  0  0  0  0  0  0  0  0
  134.3240   71.0470  226.2200 C   0  0  0  0  0  0  0  0  0  0  0  0
  134.3384   70.0271  226.6317 H   0  0  0  0  0  0  0  0  0  0  0  0
  134.6780   71.2730  224.8870 C   0  0  0  0  0  0  0  0  0  0  0  0
  134.9881   70.4324  224.2489 H   0  0  0  0  0  0  0  0  0  0  0  0
  1  2  1  0
  2  3  2  0
  3  4  1  0
  3  5  1  0
  5  6  2  0
  6  7  1  0
  7  8  2  0
  8  9  1  0
  8 10  1  0
 10 11  1  0
 10 12  2  0
 12 13  1  0
 12 14  1  0
 14 15  1  0
 14 16  2  0
 16 17  1  0
 17 18  2  0
 17 19  1  0
 19 20  1  0
 20 21  1  0
 20 22  1  0
 20 23  1  0
 23 24  2  0
 24 25  1  0
 24 26  1  0
 26 27  1  0
 26 28  2  0
 28 29  1  0
 28 30  1  0
 30 31  1  0
 30 32  2  0
 32 33  1  0
  2 34  1  0
 34 35  2  0
 35 36  1  0
 35 37  1  0
 37 38  2  0
 38 39  1  0
 38 40  1  0
 40 41  1  0
 40 42  2  0
 42 43  1  0
 19  5  1  0
 32 23  1  0
 42 34  1  0
 16  7  1  0
M  END
>  <UniqueID>  (14) 
22

>  <SMILES>  (14) 
O=c1c2ccccc2nc(/C=C/c2cccnc2)n1Cc1ccc(Cl)cc1

>  <Energy>  (14) 
62.84178484156742

>  <Genealogy>  (14) 
O=c1c2ccccc2nc(/C=C/c2cccnc2)n1Cc1ccc(Cl)cc1 (cis-trans isomerization)
O=c1c2ccccc2nc(/C=C/c2cccnc2)n1Cc1ccc(Cl)cc1 (3D coordinates assigned)
O=c1c2ccccc2nc(/C=C/c2cccnc2)n1Cc1ccc(Cl)cc1 (optimized conformer: 62.84178484156742 kcal/mol)

>  <smiles>  (14) 
O=c1c2ccccc2nc(/C=C/c2cccnc2)n1Cc1ccc(Cl)cc1

>  <score_type>  (14) 
oracle

>  <origin>  (14) 
autodockgpu

>  <m_score__min__energy>  (14) 
-7.6399999999999997

>  <m_primary>  (14) 
energy

>  <meeko>  (14) 
{"free_energy": -7.0, "intermolecular_energy": -8.49, "internal_energy": -1.46, "cluster_size": 8, "cluster_id": 4, "rank_in_cluster": 8}

>  <energy>  (14) 
-7.41

>  <cluster_rmsd>  (14) 
0.34

>  <rmsd>  (14) 
271.02

>  <cluster>  (14) 
4

$$$$
AQNDWTVLZSMOQU-FMIVXFBMNA-N
     RDKit          3D

 43 46  0  0  0  0  0  0  0  0999 V2000
  138.4691   71.7180  221.4629 H   0  0  0  0  0  0  0  0  0  0  0  0
  139.0330   72.2460  222.2460 C   0  0  0  0  0  0  0  0  0  0  0  0
  139.3840   73.5180  222.0370 C   0  0  0  0  0  0  0  0  0  0  0  0
  138.6838   74.3283  222.2883 H   0  0  0  0  0  0  0  0  0  0  0  0
  140.7060   73.8390  221.4710 C   0  0  0  0  0  0  0  0  0  0  0  0
  141.6210   72.8370  221.3800 N   0  0  0  0  0  0  0  0  0  0  0  0
  142.8470   73.0380  220.8400 C   0  0  0  0  0  0  0  0  0  0  0  0
  143.7670   71.9850  220.7820 C   0  0  0  0  0  0  0  0  0  0  0  0
  143.4998   70.9974  221.1859 H   0  0  0  0  0  0  0  0  0  0  0  0
  145.0260   72.1900  220.2100 C   0  0  0  0  0  0  0  0  0  0  0  0
  145.7505   71.3634  220.1678 H   0  0  0  0  0  0  0  0  0  0  0  0
  145.3670   73.4440  219.6910 C   0  0  0  0  0  0  0  0  0  0  0  0
  146.3549   73.5976  219.2323 H   0  0  0  0  0  0  0  0  0  0  0  0
  144.4540   74.5040  219.7540 C   0  0  0  0  0  0  0  0  0  0  0  0
  144.7269   75.4897  219.3491 H   0  0  0  0  0  0  0  0  0  0  0  0
  143.1860   74.3080  220.3360 C   0  0  0  0  0  0  0  0  0  0  0  0
  142.2340   75.3400  220.4290 C   0  0  0  0  0  0  0  0  0  0  0  0
  142.5130   76.4870  219.9710 O   0  0  0  0  0  0  0  0  0  0  0  0
  141.0060   75.1030  221.0050 N   0  0  0  0  0  0  0  0  0  0  0  0
  139.9970   76.1900  221.0840 C   0  0  0  0  0  0  0  0  0  0  0  0
  139.6965   76.4755  220.0651 H   0  0  0  0  0  0  0  0  0  0  0  0
  139.1316   75.8215  221.6544 H   0  0  0  0  0  0  0  0  0  0  0  0
  140.5560   77.4040  221.7920 C   0  0  0  0  0  0  0  0  0  0  0  0
  141.0750   77.2870  223.0940 C   0  0  0  0  0  0  0  0  0  0  0  0
  141.0253   76.3225  223.6205 H   0  0  0  0  0  0  0  0  0  0  0  0
  141.6550   78.3970  223.7210 C   0  0  0  0  0  0  0  0  0  0  0  0
  142.0788   78.2968  224.7311 H   0  0  0  0  0  0  0  0  0  0  0  0
  141.6970   79.6340  223.0660 C   0  0  0  0  0  0  0  0  0  0  0  0
  142.4600   81.0190  223.8370 Cl  0  0  0  0  0  0  0  0  0  0  0  0
  141.1740   79.7570  221.7770 C   0  0  0  0  0  0  0  0  0  0  0  0
  141.2134   80.7257  221.2572 H   0  0  0  0  0  0  0  0  0  0  0  0
  140.5980   78.6440  221.1450 C   0  0  0  0  0  0  0  0  0  0  0  0
  140.1767   78.7472  220.1341 H   0  0  0  0  0  0  0  0  0  0  0  0
  139.3730   71.5190  223.4900 C   0  0  0  0  0  0  0  0  0  0  0  0
  138.5430   70.5050  224.0220 C   0  0  0  0  0  0  0  0  0  0  0  0
  137.6125   70.2303  223.5035 H   0  0  0  0  0  0  0  0  0  0  0  0
  138.8900   69.8700  225.1690 N   0  0  0  0  0  0  0  0  0  0  0  0
  140.0380   70.1760  225.8330 C   0  0  0  0  0  0  0  0  0  0  0  0
  140.2971   69.6361  226.7557 H   0  0  0  0  0  0  0  0  0  0  0  0
  140.8860   71.1690  225.3500 C   0  0  0  0  0  0  0  0  0  0  0  0
  141.8145   71.4144  225.8863 H   0  0  0  0  0  0  0  0  0  0  0  0
  140.5480   71.8510  224.1790 C   0  0  0  0  0  0  0  0  0  0  0  0
  141.2032   72.6480  223.7976 H   0  0  0  0  0  0  0  0  0  0  0  0
  1  2  1  0
  2  3  2  0
  3  4  1  0
  3  5  1  0
  5  6  2  0
  6  7  1  0
  7  8  2  0
  8  9  1  0
  8 10  1  0
 10 11  1  0
 10 12  2  0
 12 13  1  0
 12 14  1  0
 14 15  1  0
 14 16  2  0
 16 17  1  0
 17 18  2  0
 17 19  1  0
 19 20  1  0
 20 21  1  0
 20 22  1  0
 20 23  1  0
 23 24  2  0
 24 25  1  0
 24 26  1  0
 26 27  1  0
 26 28  2  0
 28 29  1  0
 28 30  1  0
 30 31  1  0
 30 32  2  0
 32 33  1  0
  2 34  1  0
 34 35  2  0
 35 36  1  0
 35 37  1  0
 37 38  2  0
 38 39  1  0
 38 40  1  0
 40 41  1  0
 40 42  2  0
 42 43  1  0
 19  5  1  0
 32 23  1  0
 42 34  1  0
 16  7  1  0
M  END
>  <UniqueID>  (15) 
22

>  <SMILES>  (15) 
O=c1c2ccccc2nc(/C=C/c2cccnc2)n1Cc1ccc(Cl)cc1

>  <Energy>  (15) 
62.84178484156742

>  <Genealogy>  (15) 
O=c1c2ccccc2nc(/C=C/c2cccnc2)n1Cc1ccc(Cl)cc1 (cis-trans isomerization)
O=c1c2ccccc2nc(/C=C/c2cccnc2)n1Cc1ccc(Cl)cc1 (3D coordinates assigned)
O=c1c2ccccc2nc(/C=C/c2cccnc2)n1Cc1ccc(Cl)cc1 (optimized conformer: 62.84178484156742 kcal/mol)

>  <smiles>  (15) 
O=c1c2ccccc2nc(/C=C/c2cccnc2)n1Cc1ccc(Cl)cc1

>  <score_type>  (15) 
oracle

>  <origin>  (15) 
autodockgpu

>  <m_score__min__energy>  (15) 
-7.6399999999999997

>  <m_primary>  (15) 
energy

>  <meeko>  (15) 
{"free_energy": -7.37, "intermolecular_energy": -8.86, "internal_energy": -1.19, "cluster_size": 1, "cluster_id": 5, "rank_in_cluster": 1}

>  <energy>  (15) 
-7.38

>  <cluster_rmsd>  (15) 
0.33

>  <rmsd>  (15) 
271.0

>  <cluster>  (15) 
4

$$$$
AQNDWTVLZSMOQU-FMIVXFBMNA-N
     RDKit          3D

 43 46  0  0  0  0  0  0  0  0999 V2000
  139.2416   76.8794  220.5846 H   0  0  0  0  0  0  0  0  0  0  0  0
  139.9440   76.7000  221.4120 C   0  0  0  0  0  0  0  0  0  0  0  0
  139.9750   75.4890  221.9750 C   0  0  0  0  0  0  0  0  0  0  0  0
  139.2510   75.2316  222.7621 H   0  0  0  0  0  0  0  0  0  0  0  0
  140.9760   74.4970  221.5450 C   0  0  0  0  0  0  0  0  0  0  0  0
  142.2060   74.9480  221.1830 N   0  0  0  0  0  0  0  0  0  0  0  0
  143.1940   74.1010  220.8080 C   0  0  0  0  0  0  0  0  0  0  0  0
  144.4420   74.6060  220.4230 C   0  0  0  0  0  0  0  0  0  0  0  0
  144.6166   75.6920  220.4117 H   0  0  0  0  0  0  0  0  0  0  0  0
  145.4660   73.7290  220.0530 C   0  0  0  0  0  0  0  0  0  0  0  0
  146.4453   74.1264  219.7478 H   0  0  0  0  0  0  0  0  0  0  0  0
  145.2480   72.3470  220.0700 C   0  0  0  0  0  0  0  0  0  0  0  0
  146.0601   71.6604  219.7888 H   0  0  0  0  0  0  0  0  0  0  0  0
  143.9990   71.8350  220.4440 C   0  0  0  0  0  0  0  0  0  0  0  0
  143.8295   70.7481  220.4503 H   0  0  0  0  0  0  0  0  0  0  0  0
  142.9600   72.7120  220.8120 C   0  0  0  0  0  0  0  0  0  0  0  0
  141.6860   72.2510  221.1930 C   0  0  0  0  0  0  0  0  0  0  0  0
  141.4570   71.0060  221.2150 O   0  0  0  0  0  0  0  0  0  0  0  0
  140.6990   73.1450  221.5450 N   0  0  0  0  0  0  0  0  0  0  0  0
  139.3630   72.6530  221.9640 C   0  0  0  0  0  0  0  0  0  0  0  0
  138.7333   73.5127  222.2368 H   0  0  0  0  0  0  0  0  0  0  0  0
  138.9178   72.0969  221.1259 H   0  0  0  0  0  0  0  0  0  0  0  0
  139.4710   71.7230  223.1530 C   0  0  0  0  0  0  0  0  0  0  0  0
  138.5590   70.6630  223.3070 C   0  0  0  0  0  0  0  0  0  0  0  0
  137.7321   70.5419  222.5918 H   0  0  0  0  0  0  0  0  0  0  0  0
  138.7020   69.7620  224.3690 C   0  0  0  0  0  0  0  0  0  0  0  0
  137.9986   68.9229  224.4748 H   0  0  0  0  0  0  0  0  0  0  0  0
  139.7380   69.9260  225.2970 C   0  0  0  0  0  0  0  0  0  0  0  0
  139.9420   68.7730  226.6090 Cl  0  0  0  0  0  0  0  0  0  0  0  0
  140.6400   70.9830  225.1530 C   0  0  0  0  0  0  0  0  0  0  0  0
  141.4591   71.1095  225.8762 H   0  0  0  0  0  0  0  0  0  0  0  0
  140.5010   71.8830  224.0860 C   0  0  0  0  0  0  0  0  0  0  0  0
  141.2068   72.7203  223.9822 H   0  0  0  0  0  0  0  0  0  0  0  0
  140.8160   77.8100  221.8560 C   0  0  0  0  0  0  0  0  0  0  0  0
  141.3660   78.7460  220.9510 C   0  0  0  0  0  0  0  0  0  0  0  0
  141.1438   78.6651  219.8767 H   0  0  0  0  0  0  0  0  0  0  0  0
  142.1670   79.7440  221.4020 N   0  0  0  0  0  0  0  0  0  0  0  0
  142.4570   79.8820  222.7250 C   0  0  0  0  0  0  0  0  0  0  0  0
  143.1009   80.7080  223.0613 H   0  0  0  0  0  0  0  0  0  0  0  0
  141.9420   78.9820  223.6540 C   0  0  0  0  0  0  0  0  0  0  0  0
  142.1757   79.0943  224.7230 H   0  0  0  0  0  0  0  0  0  0  0  0
  141.1260   77.9350  223.2180 C   0  0  0  0  0  0  0  0  0  0  0  0
  140.7272   77.2095  223.9423 H   0  0  0  0  0  0  0  0  0  0  0  0
  1  2  1  0
  2  3  2  0
  3  4  1  0
  3  5  1  0
  5  6  2  0
  6  7  1  0
  7  8  2  0
  8  9  1  0
  8 10  1  0
 10 11  1  0
 10 12  2  0
 12 13  1  0
 12 14  1  0
 14 15  1  0
 14 16  2  0
 16 17  1  0
 17 18  2  0
 17 19  1  0
 19 20  1  0
 20 21  1  0
 20 22  1  0
 20 23  1  0
 23 24  2  0
 24 25  1  0
 24 26  1  0
 26 27  1  0
 26 28  2  0
 28 29  1  0
 28 30  1  0
 30 31  1  0
 30 32  2  0
 32 33  1  0
  2 34  1  0
 34 35  2  0
 35 36  1  0
 35 37  1  0
 37 38  2  0
 38 39  1  0
 38 40  1  0
 40 41  1  0
 40 42  2  0
 42 43  1  0
 19  5  1  0
 32 23  1  0
 42 34  1  0
 16  7  1  0
M  END
>  <UniqueID>  (16) 
22

>  <SMILES>  (16) 
O=c1c2ccccc2nc(/C=C/c2cccnc2)n1Cc1ccc(Cl)cc1

>  <Energy>  (16) 
62.84178484156742

>  <Genealogy>  (16) 
O=c1c2ccccc2nc(/C=C/c2cccnc2)n1Cc1ccc(Cl)cc1 (cis-trans isomerization)
O=c1c2ccccc2nc(/C=C/c2cccnc2)n1Cc1ccc(Cl)cc1 (3D coordinates assigned)
O=c1c2ccccc2nc(/C=C/c2cccnc2)n1Cc1ccc(Cl)cc1 (optimized conformer: 62.84178484156742 kcal/mol)

>  <smiles>  (16) 
O=c1c2ccccc2nc(/C=C/c2cccnc2)n1Cc1ccc(Cl)cc1

>  <score_type>  (16) 
oracle

>  <origin>  (16) 
autodockgpu

>  <m_score__min__energy>  (16) 
-7.6399999999999997

>  <m_primary>  (16) 
energy

>  <meeko>  (16) 
{"free_energy": -7.49, "intermolecular_energy": -8.98, "internal_energy": -1.16, "cluster_size": 1, "cluster_id": 2, "rank_in_cluster": 1}

>  <energy>  (16) 
-7.38

>  <cluster_rmsd>  (16) 
0.32

>  <rmsd>  (16) 
271.02

>  <cluster>  (16) 
4

$$$$
AQNDWTVLZSMOQU-FMIVXFBMNA-N
     RDKit          3D

 43 46  0  0  0  0  0  0  0  0999 V2000
  143.5516   69.8966  220.1824 H   0  0  0  0  0  0  0  0  0  0  0  0
  143.3280   70.9650  220.0460 C   0  0  0  0  0  0  0  0  0  0  0  0
  142.0560   71.3380  219.8760 C   0  0  0  0  0  0  0  0  0  0  0  0
  141.3581   70.6788  219.3390 H   0  0  0  0  0  0  0  0  0  0  0  0
  141.5860   72.6300  220.4060 C   0  0  0  0  0  0  0  0  0  0  0  0
  142.2580   73.7530  220.0370 N   0  0  0  0  0  0  0  0  0  0  0  0
  141.8700   74.9830  220.4490 C   0  0  0  0  0  0  0  0  0  0  0  0
  142.6010   76.1140  220.0630 C   0  0  0  0  0  0  0  0  0  0  0  0
  143.4972   76.0026  219.4350 H   0  0  0  0  0  0  0  0  0  0  0  0
  142.1900   77.3840  220.4770 C   0  0  0  0  0  0  0  0  0  0  0  0
  142.7662   78.2716  220.1769 H   0  0  0  0  0  0  0  0  0  0  0  0
  141.0480   77.5300  221.2720 C   0  0  0  0  0  0  0  0  0  0  0  0
  140.7223   78.5328  221.5854 H   0  0  0  0  0  0  0  0  0  0  0  0
  140.3180   76.4020  221.6700 C   0  0  0  0  0  0  0  0  0  0  0  0
  139.4235   76.5194  222.2993 H   0  0  0  0  0  0  0  0  0  0  0  0
  140.7300   75.1180  221.2640 C   0  0  0  0  0  0  0  0  0  0  0  0
  140.0350   73.9520  221.6390 C   0  0  0  0  0  0  0  0  0  0  0  0
  139.0000   74.0510  222.3600 O   0  0  0  0  0  0  0  0  0  0  0  0
  140.4730   72.7170  221.2180 N   0  0  0  0  0  0  0  0  0  0  0  0
  139.7260   71.4920  221.5990 C   0  0  0  0  0  0  0  0  0  0  0  0
  138.6531   71.6553  221.4194 H   0  0  0  0  0  0  0  0  0  0  0  0
  140.0971   70.6537  220.9910 H   0  0  0  0  0  0  0  0  0  0  0  0
  139.9370   71.1560  223.0600 C   0  0  0  0  0  0  0  0  0  0  0  0
  140.6860   72.0170  223.8830 C   0  0  0  0  0  0  0  0  0  0  0  0
  141.1660   72.9085  223.4530 H   0  0  0  0  0  0  0  0  0  0  0  0
  140.8210   71.7400  225.2490 C   0  0  0  0  0  0  0  0  0  0  0  0
  141.3905   72.4257  225.8936 H   0  0  0  0  0  0  0  0  0  0  0  0
  140.2340   70.5940  225.7970 C   0  0  0  0  0  0  0  0  0  0  0  0
  140.3710   70.2660  227.5190 Cl  0  0  0  0  0  0  0  0  0  0  0  0
  139.4980   69.7310  224.9820 C   0  0  0  0  0  0  0  0  0  0  0  0
  139.0292   68.8336  225.4121 H   0  0  0  0  0  0  0  0  0  0  0  0
  139.3570   70.0100  223.6130 C   0  0  0  0  0  0  0  0  0  0  0  0
  138.7865   69.3225  222.9713 H   0  0  0  0  0  0  0  0  0  0  0  0
  144.4480   71.9330  220.0580 C   0  0  0  0  0  0  0  0  0  0  0  0
  145.2430   72.1800  218.9150 C   0  0  0  0  0  0  0  0  0  0  0  0
  145.0325   71.6484  217.9753 H   0  0  0  0  0  0  0  0  0  0  0  0
  146.2650   73.0710  218.9740 N   0  0  0  0  0  0  0  0  0  0  0  0
  146.5500   73.7530  220.1160 C   0  0  0  0  0  0  0  0  0  0  0  0
  147.3787   74.4763  220.1292 H   0  0  0  0  0  0  0  0  0  0  0  0
  145.7980   73.5400  221.2680 C   0  0  0  0  0  0  0  0  0  0  0  0
  146.0288   74.0926  222.1907 H   0  0  0  0  0  0  0  0  0  0  0  0
  144.7480   72.6190  221.2430 C   0  0  0  0  0  0  0  0  0  0  0  0
  144.1574   72.4324  222.1520 H   0  0  0  0  0  0  0  0  0  0  0  0
  1  2  1  0
  2  3  2  0
  3  4  1  0
  3  5  1  0
  5  6  2  0
  6  7  1  0
  7  8  2  0
  8  9  1  0
  8 10  1  0
 10 11  1  0
 10 12  2  0
 12 13  1  0
 12 14  1  0
 14 15  1  0
 14 16  2  0
 16 17  1  0
 17 18  2  0
 17 19  1  0
 19 20  1  0
 20 21  1  0
 20 22  1  0
 20 23  1  0
 23 24  2  0
 24 25  1  0
 24 26  1  0
 26 27  1  0
 26 28  2  0
 28 29  1  0
 28 30  1  0
 30 31  1  0
 30 32  2  0
 32 33  1  0
  2 34  1  0
 34 35  2  0
 35 36  1  0
 35 37  1  0
 37 38  2  0
 38 39  1  0
 38 40  1  0
 40 41  1  0
 40 42  2  0
 42 43  1  0
 19  5  1  0
 32 23  1  0
 42 34  1  0
 16  7  1  0
M  END
>  <UniqueID>  (17) 
22

>  <SMILES>  (17) 
O=c1c2ccccc2nc(/C=C/c2cccnc2)n1Cc1ccc(Cl)cc1

>  <Energy>  (17) 
62.84178484156742

>  <Genealogy>  (17) 
O=c1c2ccccc2nc(/C=C/c2cccnc2)n1Cc1ccc(Cl)cc1 (cis-trans isomerization)
O=c1c2ccccc2nc(/C=C/c2cccnc2)n1Cc1ccc(Cl)cc1 (3D coordinates assigned)
O=c1c2ccccc2nc(/C=C/c2cccnc2)n1Cc1ccc(Cl)cc1 (optimized conformer: 62.84178484156742 kcal/mol)

>  <smiles>  (17) 
O=c1c2ccccc2nc(/C=C/c2cccnc2)n1Cc1ccc(Cl)cc1

>  <score_type>  (17) 
oracle

>  <origin>  (17) 
autodockgpu

>  <m_score__min__energy>  (17) 
-7.6399999999999997

>  <m_primary>  (17) 
energy

>  <meeko>  (17) 
{"free_energy": -7.5, "intermolecular_energy": -9.0, "internal_energy": -1.36, "cluster_size": 5, "cluster_id": 1, "rank_in_cluster": 4}

>  <energy>  (17) 
-7.0

>  <cluster_rmsd>  (17) 
0.83

>  <rmsd>  (17) 
270.79

>  <cluster>  (17) 
4

$$$$
AQNDWTVLZSMOQU-FMIVXFBMNA-N
     RDKit          3D

 43 46  0  0  0  0  0  0  0  0999 V2000
  135.9968   71.6216  223.9552 H   0  0  0  0  0  0  0  0  0  0  0  0
  135.7910   72.6650  223.6740 C   0  0  0  0  0  0  0  0  0  0  0  0
  136.1760   73.0920  222.4690 C   0  0  0  0  0  0  0  0  0  0  0  0
  135.6034   72.8019  221.5757 H   0  0  0  0  0  0  0  0  0  0  0  0
  137.3660   73.9510  222.3320 C   0  0  0  0  0  0  0  0  0  0  0  0
  137.1940   75.2970  222.4220 N   0  0  0  0  0  0  0  0  0  0  0  0
  138.2390   76.1560  222.3430 C   0  0  0  0  0  0  0  0  0  0  0  0
  138.0180   77.5360  222.4200 C   0  0  0  0  0  0  0  0  0  0  0  0
  136.9951   77.9247  222.5322 H   0  0  0  0  0  0  0  0  0  0  0  0
  139.1000   78.4200  222.3540 C   0  0  0  0  0  0  0  0  0  0  0  0
  138.9265   79.5047  222.4108 H   0  0  0  0  0  0  0  0  0  0  0  0
  140.4020   77.9280  222.2160 C   0  0  0  0  0  0  0  0  0  0  0  0
  141.2507   78.6267  222.1764 H   0  0  0  0  0  0  0  0  0  0  0  0
  140.6290   76.5480  222.1280 C   0  0  0  0  0  0  0  0  0  0  0  0
  141.6539   76.1652  222.0137 H   0  0  0  0  0  0  0  0  0  0  0  0
  139.5440   75.6510  222.1860 C   0  0  0  0  0  0  0  0  0  0  0  0
  139.7160   74.2570  222.0980 C   0  0  0  0  0  0  0  0  0  0  0  0
  140.8820   73.7820  221.9700 O   0  0  0  0  0  0  0  0  0  0  0  0
  138.6270   73.4170  222.1600 N   0  0  0  0  0  0  0  0  0  0  0  0
  138.8150   71.9470  222.0870 C   0  0  0  0  0  0  0  0  0  0  0  0
  137.8692   71.4793  221.7761 H   0  0  0  0  0  0  0  0  0  0  0  0
  139.6112   71.7334  221.3586 H   0  0  0  0  0  0  0  0  0  0  0  0
  139.2280   71.3810  223.4280 C   0  0  0  0  0  0  0  0  0  0  0  0
  140.3700   71.8780  224.0840 C   0  0  0  0  0  0  0  0  0  0  0  0
  140.9951   72.6410  223.5970 H   0  0  0  0  0  0  0  0  0  0  0  0
  140.7110   71.4020  225.3560 C   0  0  0  0  0  0  0  0  0  0  0  0
  141.5921   71.8072  225.8751 H   0  0  0  0  0  0  0  0  0  0  0  0
  139.9340   70.4120  225.9690 C   0  0  0  0  0  0  0  0  0  0  0  0
  140.3400   69.8420  227.5830 Cl  0  0  0  0  0  0  0  0  0  0  0  0
  138.8060   69.9090  225.3180 C   0  0  0  0  0  0  0  0  0  0  0  0
  138.1896   69.1372  225.8021 H   0  0  0  0  0  0  0  0  0  0  0  0
  138.4590   70.3890  224.0450 C   0  0  0  0  0  0  0  0  0  0  0  0
  137.5765   69.9822  223.5295 H   0  0  0  0  0  0  0  0  0  0  0  0
  135.0980   73.5400  224.6470 C   0  0  0  0  0  0  0  0  0  0  0  0
  134.2170   73.0280  225.6270 C   0  0  0  0  0  0  0  0  0  0  0  0
  134.0325   71.9452  225.6862 H   0  0  0  0  0  0  0  0  0  0  0  0
  133.5980   73.8680  226.4950 N   0  0  0  0  0  0  0  0  0  0  0  0
  133.8080   75.2120  226.4570 C   0  0  0  0  0  0  0  0  0  0  0  0
  133.2982   75.8663  227.1795 H   0  0  0  0  0  0  0  0  0  0  0  0
  134.6650   75.7630  225.5080 C   0  0  0  0  0  0  0  0  0  0  0  0
  134.8366   76.8492  225.4799 H   0  0  0  0  0  0  0  0  0  0  0  0
  135.3050   74.9250  224.5920 C   0  0  0  0  0  0  0  0  0  0  0  0
  135.9712   75.3519  223.8278 H   0  0  0  0  0  0  0  0  0  0  0  0
  1  2  1  0
  2  3  2  0
  3  4  1  0
  3  5  1  0
  5  6  2  0
  6  7  1  0
  7  8  2  0
  8  9  1  0
  8 10  1  0
 10 11  1  0
 10 12  2  0
 12 13  1  0
 12 14  1  0
 14 15  1  0
 14 16  2  0
 16 17  1  0
 17 18  2  0
 17 19  1  0
 19 20  1  0
 20 21  1  0
 20 22  1  0
 20 23  1  0
 23 24  2  0
 24 25  1  0
 24 26  1  0
 26 27  1  0
 26 28  2  0
 28 29  1  0
 28 30  1  0
 30 31  1  0
 30 32  2  0
 32 33  1  0
  2 34  1  0
 34 35  2  0
 35 36  1  0
 35 37  1  0
 37 38  2  0
 38 39  1  0
 38 40  1  0
 40 41  1  0
 40 42  2  0
 42 43  1  0
 19  5  1  0
 32 23  1  0
 42 34  1  0
 16  7  1  0
M  END
>  <UniqueID>  (18) 
22

>  <SMILES>  (18) 
O=c1c2ccccc2nc(/C=C/c2cccnc2)n1Cc1ccc(Cl)cc1

>  <Energy>  (18) 
62.84178484156742

>  <Genealogy>  (18) 
O=c1c2ccccc2nc(/C=C/c2cccnc2)n1Cc1ccc(Cl)cc1 (cis-trans isomerization)
O=c1c2ccccc2nc(/C=C/c2cccnc2)n1Cc1ccc(Cl)cc1 (3D coordinates assigned)
O=c1c2ccccc2nc(/C=C/c2cccnc2)n1Cc1ccc(Cl)cc1 (optimized conformer: 62.84178484156742 kcal/mol)

>  <smiles>  (18) 
O=c1c2ccccc2nc(/C=C/c2cccnc2)n1Cc1ccc(Cl)cc1

>  <score_type>  (18) 
oracle

>  <origin>  (18) 
autodockgpu

>  <m_score__min__energy>  (18) 
-7.6399999999999997

>  <m_primary>  (18) 
energy

>  <meeko>  (18) 
{"free_energy": -7.45, "intermolecular_energy": -8.94, "internal_energy": -1.34, "cluster_size": 8, "cluster_id": 4, "rank_in_cluster": 1}

>  <energy>  (18) 
-7.37

>  <cluster_rmsd>  (18) 
0.0

>  <rmsd>  (18) 
271.69

>  <cluster>  (18) 
5

$$$$
AQNDWTVLZSMOQU-FMIVXFBMNA-N
     RDKit          3D

 43 46  0  0  0  0  0  0  0  0999 V2000
  136.0053   71.6005  224.0162 H   0  0  0  0  0  0  0  0  0  0  0  0
  135.8020   72.6390  223.7160 C   0  0  0  0  0  0  0  0  0  0  0  0
  136.1860   73.0430  222.5020 C   0  0  0  0  0  0  0  0  0  0  0  0
  135.6190   72.7263  221.6142 H   0  0  0  0  0  0  0  0  0  0  0  0
  137.3660   73.9110  222.3480 C   0  0  0  0  0  0  0  0  0  0  0  0
  137.1820   75.2560  222.4190 N   0  0  0  0  0  0  0  0  0  0  0  0
  138.2190   76.1230  222.3230 C   0  0  0  0  0  0  0  0  0  0  0  0
  137.9850   77.5020  222.3810 C   0  0  0  0  0  0  0  0  0  0  0  0
  136.9589   77.8825  222.4917 H   0  0  0  0  0  0  0  0  0  0  0  0
  139.0580   78.3950  222.2980 C   0  0  0  0  0  0  0  0  0  0  0  0
  138.8742   79.4787  222.3398 H   0  0  0  0  0  0  0  0  0  0  0  0
  140.3640   77.9140  222.1620 C   0  0  0  0  0  0  0  0  0  0  0  0
  141.2056   78.6203  222.1090 H   0  0  0  0  0  0  0  0  0  0  0  0
  140.6040   76.5350  222.0930 C   0  0  0  0  0  0  0  0  0  0  0  0
  141.6321   76.1603  221.9803 H   0  0  0  0  0  0  0  0  0  0  0  0
  139.5280   75.6290  222.1680 C   0  0  0  0  0  0  0  0  0  0  0  0
  139.7130   74.2350  222.1000 C   0  0  0  0  0  0  0  0  0  0  0  0
  140.8830   73.7690  221.9740 O   0  0  0  0  0  0  0  0  0  0  0  0
  138.6320   73.3860  222.1790 N   0  0  0  0  0  0  0  0  0  0  0  0
  138.8330   71.9160  222.1260 C   0  0  0  0  0  0  0  0  0  0  0  0
  137.9027   71.4385  221.7847 H   0  0  0  0  0  0  0  0  0  0  0  0
  139.6566   71.7013  221.4292 H   0  0  0  0  0  0  0  0  0  0  0  0
  139.2000   71.3660  223.4870 C   0  0  0  0  0  0  0  0  0  0  0  0
  138.4200   70.3540  224.0740 C   0  0  0  0  0  0  0  0  0  0  0  0
  137.5100   69.9991  223.5682 H   0  0  0  0  0  0  0  0  0  0  0  0
  138.8000   69.7970  225.3020 C   0  0  0  0  0  0  0  0  0  0  0  0
  138.1984   68.9917  225.7489 H   0  0  0  0  0  0  0  0  0  0  0  0
  139.9440   70.2630  225.9620 C   0  0  0  0  0  0  0  0  0  0  0  0
  140.4440   69.5370  227.4840 Cl  0  0  0  0  0  0  0  0  0  0  0  0
  140.7160   71.2750  225.3870 C   0  0  0  0  0  0  0  0  0  0  0  0
  141.6191   71.6372  225.9001 H   0  0  0  0  0  0  0  0  0  0  0  0
  140.3390   71.8290  224.1550 C   0  0  0  0  0  0  0  0  0  0  0  0
  140.9433   72.6336  223.7105 H   0  0  0  0  0  0  0  0  0  0  0  0
  135.1130   73.5350  224.6740 C   0  0  0  0  0  0  0  0  0  0  0  0
  134.2140   73.0470  225.6500 C   0  0  0  0  0  0  0  0  0  0  0  0
  134.0117   71.9679  225.7180 H   0  0  0  0  0  0  0  0  0  0  0  0
  133.6000   73.9050  226.5030 N   0  0  0  0  0  0  0  0  0  0  0  0
  133.8320   75.2450  226.4540 C   0  0  0  0  0  0  0  0  0  0  0  0
  133.3263   75.9143  227.1655 H   0  0  0  0  0  0  0  0  0  0  0  0
  134.7060   75.7730  225.5080 C   0  0  0  0  0  0  0  0  0  0  0  0
  134.8936   76.8562  225.4701 H   0  0  0  0  0  0  0  0  0  0  0  0
  135.3430   74.9160  224.6070 C   0  0  0  0  0  0  0  0  0  0  0  0
  136.0242   75.3246  223.8460 H   0  0  0  0  0  0  0  0  0  0  0  0
  1  2  1  0
  2  3  2  0
  3  4  1  0
  3  5  1  0
  5  6  2  0
  6  7  1  0
  7  8  2  0
  8  9  1  0
  8 10  1  0
 10 11  1  0
 10 12  2  0
 12 13  1  0
 12 14  1  0
 14 15  1  0
 14 16  2  0
 16 17  1  0
 17 18  2  0
 17 19  1  0
 19 20  1  0
 20 21  1  0
 20 22  1  0
 20 23  1  0
 23 24  2  0
 24 25  1  0
 24 26  1  0
 26 27  1  0
 26 28  2  0
 28 29  1  0
 28 30  1  0
 30 31  1  0
 30 32  2  0
 32 33  1  0
  2 34  1  0
 34 35  2  0
 35 36  1  0
 35 37  1  0
 37 38  2  0
 38 39  1  0
 38 40  1  0
 40 41  1  0
 40 42  2  0
 42 43  1  0
 19  5  1  0
 32 23  1  0
 42 34  1  0
 16  7  1  0
M  END
>  <UniqueID>  (19) 
22

>  <SMILES>  (19) 
O=c1c2ccccc2nc(/C=C/c2cccnc2)n1Cc1ccc(Cl)cc1

>  <Energy>  (19) 
62.84178484156742

>  <Genealogy>  (19) 
O=c1c2ccccc2nc(/C=C/c2cccnc2)n1Cc1ccc(Cl)cc1 (cis-trans isomerization)
O=c1c2ccccc2nc(/C=C/c2cccnc2)n1Cc1ccc(Cl)cc1 (3D coordinates assigned)
O=c1c2ccccc2nc(/C=C/c2cccnc2)n1Cc1ccc(Cl)cc1 (optimized conformer: 62.84178484156742 kcal/mol)

>  <smiles>  (19) 
O=c1c2ccccc2nc(/C=C/c2cccnc2)n1Cc1ccc(Cl)cc1

>  <score_type>  (19) 
oracle

>  <origin>  (19) 
autodockgpu

>  <m_score__min__energy>  (19) 
-7.6399999999999997

>  <m_primary>  (19) 
energy

>  <meeko>  (19) 
{"free_energy": -7.43, "intermolecular_energy": -8.92, "internal_energy": -1.34, "cluster_size": 8, "cluster_id": 4, "rank_in_cluster": 3}

>  <energy>  (19) 
-7.36

>  <cluster_rmsd>  (19) 
0.0

>  <rmsd>  (19) 
271.12

>  <cluster>  (19) 
6

$$$$
AQNDWTVLZSMOQU-FMIVXFBMNA-N
     RDKit          3D

 43 46  0  0  0  0  0  0  0  0999 V2000
  143.4124   75.7049  218.1062 H   0  0  0  0  0  0  0  0  0  0  0  0
  143.4720   75.3690  219.1520 C   0  0  0  0  0  0  0  0  0  0  0  0
  142.6550   75.9240  220.0520 C   0  0  0  0  0  0  0  0  0  0  0  0
  142.8276   76.9583  220.3843 H   0  0  0  0  0  0  0  0  0  0  0  0
  141.5240   75.1560  220.6010 C   0  0  0  0  0  0  0  0  0  0  0  0
  141.7540   73.8750  220.9940 N   0  0  0  0  0  0  0  0  0  0  0  0
  140.7790   73.1110  221.5410 C   0  0  0  0  0  0  0  0  0  0  0  0
  141.0510   71.7900  221.9160 C   0  0  0  0  0  0  0  0  0  0  0  0
  142.0538   71.3676  221.7553 H   0  0  0  0  0  0  0  0  0  0  0  0
  140.0470   71.0080  222.4950 C   0  0  0  0  0  0  0  0  0  0  0  0
  140.2601   69.9688  222.7861 H   0  0  0  0  0  0  0  0  0  0  0  0
  138.7720   71.5440  222.7050 C   0  0  0  0  0  0  0  0  0  0  0  0
  137.9885   70.9287  223.1715 H   0  0  0  0  0  0  0  0  0  0  0  0
  138.4900   72.8620  222.3230 C   0  0  0  0  0  0  0  0  0  0  0  0
  137.4848   73.2784  222.4845 H   0  0  0  0  0  0  0  0  0  0  0  0
  139.4940   73.6540  221.7320 C   0  0  0  0  0  0  0  0  0  0  0  0
  139.2620   74.9820  221.3270 C   0  0  0  0  0  0  0  0  0  0  0  0
  138.1180   75.4940  221.5020 O   0  0  0  0  0  0  0  0  0  0  0  0
  140.2730   75.7200  220.7540 N   0  0  0  0  0  0  0  0  0  0  0  0
  140.0300   77.1260  220.3460 C   0  0  0  0  0  0  0  0  0  0  0  0
  140.4264   77.2790  219.3314 H   0  0  0  0  0  0  0  0  0  0  0  0
  138.9465   77.3141  220.3709 H   0  0  0  0  0  0  0  0  0  0  0  0
  140.7070   78.0940  221.2920 C   0  0  0  0  0  0  0  0  0  0  0  0
  140.7890   77.8010  222.6650 C   0  0  0  0  0  0  0  0  0  0  0  0
  140.3127   76.8924  223.0618 H   0  0  0  0  0  0  0  0  0  0  0  0
  141.4760   78.6640  223.5280 C   0  0  0  0  0  0  0  0  0  0  0  0
  141.5562   78.4205  224.5977 H   0  0  0  0  0  0  0  0  0  0  0  0
  142.0610   79.8360  223.0330 C   0  0  0  0  0  0  0  0  0  0  0  0
  142.9570   80.9000  224.1080 Cl  0  0  0  0  0  0  0  0  0  0  0  0
  141.9730   80.1360  221.6710 C   0  0  0  0  0  0  0  0  0  0  0  0
  142.4391   81.0516  221.2781 H   0  0  0  0  0  0  0  0  0  0  0  0
  141.2900   79.2690  220.8050 C   0  0  0  0  0  0  0  0  0  0  0  0
  141.2122   79.5147  219.7356 H   0  0  0  0  0  0  0  0  0  0  0  0
  144.4540   74.3200  219.5070 C   0  0  0  0  0  0  0  0  0  0  0  0
  144.9340   73.3850  218.5600 C   0  0  0  0  0  0  0  0  0  0  0  0
  144.5802   73.4279  217.5193 H   0  0  0  0  0  0  0  0  0  0  0  0
  145.8290   72.4360  218.9310 N   0  0  0  0  0  0  0  0  0  0  0  0
  146.2970   72.3580  220.2070 C   0  0  0  0  0  0  0  0  0  0  0  0
  147.0303   71.5831  220.4748 H   0  0  0  0  0  0  0  0  0  0  0  0
  145.8520   73.2540  221.1740 C   0  0  0  0  0  0  0  0  0  0  0  0
  146.2318   73.1913  222.2044 H   0  0  0  0  0  0  0  0  0  0  0  0
  144.9190   74.2340  220.8260 C   0  0  0  0  0  0  0  0  0  0  0  0
  144.5498   74.9375  221.5868 H   0  0  0  0  0  0  0  0  0  0  0  0
  1  2  1  0
  2  3  2  0
  3  4  1  0
  3  5  1  0
  5  6  2  0
  6  7  1  0
  7  8  2  0
  8  9  1  0
  8 10  1  0
 10 11  1  0
 10 12  2  0
 12 13  1  0
 12 14  1  0
 14 15  1  0
 14 16  2  0
 16 17  1  0
 17 18  2  0
 17 19  1  0
 19 20  1  0
 20 21  1  0
 20 22  1  0
 20 23  1  0
 23 24  2  0
 24 25  1  0
 24 26  1  0
 26 27  1  0
 26 28  2  0
 28 29  1  0
 28 30  1  0
 30 31  1  0
 30 32  2  0
 32 33  1  0
  2 34  1  0
 34 35  2  0
 35 36  1  0
 35 37  1  0
 37 38  2  0
 38 39  1  0
 38 40  1  0
 40 41  1  0
 40 42  2  0
 42 43  1  0
 19  5  1  0
 32 23  1  0
 42 34  1  0
 16  7  1  0
M  END
>  <UniqueID>  (20) 
22

>  <SMILES>  (20) 
O=c1c2ccccc2nc(/C=C/c2cccnc2)n1Cc1ccc(Cl)cc1

>  <Energy>  (20) 
62.84178484156742

>  <Genealogy>  (20) 
O=c1c2ccccc2nc(/C=C/c2cccnc2)n1Cc1ccc(Cl)cc1 (cis-trans isomerization)
O=c1c2ccccc2nc(/C=C/c2cccnc2)n1Cc1ccc(Cl)cc1 (3D coordinates assigned)
O=c1c2ccccc2nc(/C=C/c2cccnc2)n1Cc1ccc(Cl)cc1 (optimized conformer: 62.84178484156742 kcal/mol)

>  <smiles>  (20) 
O=c1c2ccccc2nc(/C=C/c2cccnc2)n1Cc1ccc(Cl)cc1

>  <score_type>  (20) 
oracle

>  <origin>  (20) 
autodockgpu

>  <m_score__min__energy>  (20) 
-7.6399999999999997

>  <m_primary>  (20) 
energy

>  <meeko>  (20) 
{"free_energy": -7.44, "intermolecular_energy": -8.93, "internal_energy": -1.34, "cluster_size": 3, "cluster_id": 3, "rank_in_cluster": 3}

>  <energy>  (20) 
-7.23

>  <cluster_rmsd>  (20) 
0.32

>  <rmsd>  (20) 
270.98

>  <cluster>  (20) 
6

$$$$
