GEKDQXSPTHHANP-OUKQBFOZNA-N
     RDKit          3D

 43 46  0  0  0  0  0  0  0  0999 V2000
  139.2359   76.6881  223.6137 H   0  0  0  0  0  0  0  0  0  0  0  0
  139.0340   77.2680  222.7010 C   0  0  0  0  0  0  0  0  0  0  0  0
  139.1070   76.6380  221.5220 C   0  0  0  0  0  0  0  0  0  0  0  0
  138.2001   76.5037  220.9141 H   0  0  0  0  0  0  0  0  0  0  0  0
  140.3980   76.1250  221.0380 C   0  0  0  0  0  0  0  0  0  0  0  0
  140.7020   74.8290  221.3090 N   0  0  0  0  0  0  0  0  0  0  0  0
  141.8760   74.2780  220.9250 C   0  0  0  0  0  0  0  0  0  0  0  0
  142.1490   72.9340  221.2180 C   0  0  0  0  0  0  0  0  0  0  0  0
  141.4041   72.3261  221.7524 H   0  0  0  0  0  0  0  0  0  0  0  0
  143.3660   72.3660  220.8320 C   0  0  0  0  0  0  0  0  0  0  0  0
  143.5786   71.3117  221.0629 H   0  0  0  0  0  0  0  0  0  0  0  0
  144.3140   73.1380  220.1520 C   0  0  0  0  0  0  0  0  0  0  0  0
  145.2719   72.6893  219.8501 H   0  0  0  0  0  0  0  0  0  0  0  0
  144.0470   74.4820  219.8540 C   0  0  0  0  0  0  0  0  0  0  0  0
  144.7961   75.0853  219.3203 H   0  0  0  0  0  0  0  0  0  0  0  0
  142.8210   75.0610  220.2370 C   0  0  0  0  0  0  0  0  0  0  0  0
  142.5010   76.4050  219.9590 C   0  0  0  0  0  0  0  0  0  0  0  0
  143.3380   77.1310  219.3510 O   0  0  0  0  0  0  0  0  0  0  0  0
  141.2880   76.9250  220.3530 N   0  0  0  0  0  0  0  0  0  0  0  0
  140.9590   78.3430  220.0780 C   0  0  0  0  0  0  0  0  0  0  0  0
  141.4165   78.6397  219.1227 H   0  0  0  0  0  0  0  0  0  0  0  0
  139.8649   78.4459  220.0297 H   0  0  0  0  0  0  0  0  0  0  0  0
  141.4790   79.2420  221.1750 C   0  0  0  0  0  0  0  0  0  0  0  0
  141.3850   80.6400  221.0520 C   0  0  0  0  0  0  0  0  0  0  0  0
  140.9489   81.0822  220.1441 H   0  0  0  0  0  0  0  0  0  0  0  0
  141.8440   81.4700  222.0800 C   0  0  0  0  0  0  0  0  0  0  0  0
  141.7413   82.5616  221.9919 H   0  0  0  0  0  0  0  0  0  0  0  0
  142.4340   80.9130  223.2210 C   0  0  0  0  0  0  0  0  0  0  0  0
  142.8029   81.5679  224.0241 H   0  0  0  0  0  0  0  0  0  0  0  0
  142.5550   79.5230  223.3410 C   0  0  0  0  0  0  0  0  0  0  0  0
  143.0220   79.0862  224.2360 H   0  0  0  0  0  0  0  0  0  0  0  0
  142.0820   78.6920  222.3230 C   0  0  0  0  0  0  0  0  0  0  0  0
  142.1810   77.6006  222.4184 H   0  0  0  0  0  0  0  0  0  0  0  0
  138.6960   78.7040  222.8440 C   0  0  0  0  0  0  0  0  0  0  0  0
  137.8680   79.3050  221.8840 C   0  0  0  0  0  0  0  0  0  0  0  0
  137.4700   78.7046  221.0527 H   0  0  0  0  0  0  0  0  0  0  0  0
  137.5540   80.6270  221.9750 N   0  0  0  0  0  0  0  0  0  0  0  0
  138.0220   81.4070  222.9870 C   0  0  0  0  0  0  0  0  0  0  0  0
  137.7398   82.4689  223.0394 H   0  0  0  0  0  0  0  0  0  0  0  0
  138.8610   80.8580  223.9590 C   0  0  0  0  0  0  0  0  0  0  0  0
  139.2495   81.4855  224.7747 H   0  0  0  0  0  0  0  0  0  0  0  0
  139.2030   79.5050  223.8870 C   0  0  0  0  0  0  0  0  0  0  0  0
  139.8681   79.0650  224.6446 H   0  0  0  0  0  0  0  0  0  0  0  0
  1  2  1  0
  2  3  2  0
  3  4  1  0
  3  5  1  0
  5  6  2  0
  6  7  1  0
  7  8  2  0
  8  9  1  0
  8 10  1  0
 10 11  1  0
 10 12  2  0
 12 13  1  0
 12 14  1  0
 14 15  1  0
 14 16  2  0
 16 17  1  0
 17 18  2  0
 17 19  1  0
 19 20  1  0
 20 21  1  0
 20 22  1  0
 20 23  1  0
 23 24  2  0
 24 25  1  0
 24 26  1  0
 26 27  1  0
 26 28  2  0
 28 29  1  0
 28 30  1  0
 30 31  1  0
 30 32  2  0
 32 33  1  0
  2 34  1  0
 34 35  2  0
 35 36  1  0
 35 37  1  0
 37 38  2  0
 38 39  1  0
 38 40  1  0
 40 41  1  0
 40 42  2  0
 42 43  1  0
 19  5  1  0
 32 23  1  0
 42 34  1  0
 16  7  1  0
M  END
>  <UniqueID>  (1) 
21

>  <SMILES>  (1) 
O=c1c2ccccc2nc(/C=C/c2cccnc2)n1Cc1ccccc1

>  <Energy>  (1) 
64.00571729435049

>  <Genealogy>  (1) 
O=c1c2ccccc2nc(/C=C/c2cccnc2)n1Cc1ccccc1 (cis-trans isomerization)
O=c1c2ccccc2nc(/C=C/c2cccnc2)n1Cc1ccccc1 (3D coordinates assigned)
O=c1c2ccccc2nc(/C=C/c2cccnc2)n1Cc1ccccc1 (optimized conformer: 64.00571729435049 kcal/mol)

>  <smiles>  (1) 
O=c1c2ccccc2nc(/C=C/c2cccnc2)n1Cc1ccccc1

>  <score_type>  (1) 
oracle

>  <origin>  (1) 
autodockgpu

>  <m_score__min__energy>  (1) 
-7.3799999999999999

>  <m_primary>  (1) 
energy

>  <meeko>  (1) 
{"free_energy": -6.29, "intermolecular_energy": -7.78, "internal_energy": -1.92, "cluster_size": 1, "cluster_id": 4, "rank_in_cluster": 1}

>  <energy>  (1) 
-7.38

>  <cluster_rmsd>  (1) 
0.0

>  <rmsd>  (1) 
268.79

>  <cluster>  (1) 
1

$$$$
GEKDQXSPTHHANP-OUKQBFOZNA-N
     RDKit          3D

 43 46  0  0  0  0  0  0  0  0999 V2000
  137.4649   71.6214  221.7018 H   0  0  0  0  0  0  0  0  0  0  0  0
  138.5190   71.8590  221.9080 C   0  0  0  0  0  0  0  0  0  0  0  0
  139.3630   70.8450  222.1380 C   0  0  0  0  0  0  0  0  0  0  0  0
  139.9169   70.3918  221.3027 H   0  0  0  0  0  0  0  0  0  0  0  0
  139.5510   70.3360  223.5050 C   0  0  0  0  0  0  0  0  0  0  0  0
  140.0690   71.1870  224.4280 N   0  0  0  0  0  0  0  0  0  0  0  0
  140.3010   70.7990  225.7030 C   0  0  0  0  0  0  0  0  0  0  0  0
  140.8300   71.7110  226.6280 C   0  0  0  0  0  0  0  0  0  0  0  0
  141.0484   72.7435  226.3178 H   0  0  0  0  0  0  0  0  0  0  0  0
  141.0800   71.3100  227.9430 C   0  0  0  0  0  0  0  0  0  0  0  0
  141.4950   72.0263  228.6673 H   0  0  0  0  0  0  0  0  0  0  0  0
  140.8020   69.9960  228.3380 C   0  0  0  0  0  0  0  0  0  0  0  0
  141.0016   69.6809  229.3728 H   0  0  0  0  0  0  0  0  0  0  0  0
  140.2700   69.0800  227.4190 C   0  0  0  0  0  0  0  0  0  0  0  0
  140.0539   68.0485  227.7341 H   0  0  0  0  0  0  0  0  0  0  0  0
  140.0120   69.4790  226.0930 C   0  0  0  0  0  0  0  0  0  0  0  0
  139.4760   68.6000  225.1310 C   0  0  0  0  0  0  0  0  0  0  0  0
  139.2180   67.4050  225.4550 O   0  0  0  0  0  0  0  0  0  0  0  0
  139.2390   69.0370  223.8470 N   0  0  0  0  0  0  0  0  0  0  0  0
  138.6940   68.1080  222.8300 C   0  0  0  0  0  0  0  0  0  0  0  0
  139.0776   68.3936  221.8394 H   0  0  0  0  0  0  0  0  0  0  0  0
  139.0089   67.0852  223.0845 H   0  0  0  0  0  0  0  0  0  0  0  0
  137.1830   68.1560  222.8080 C   0  0  0  0  0  0  0  0  0  0  0  0
  136.4590   67.3230  221.9350 C   0  0  0  0  0  0  0  0  0  0  0  0
  136.9942   66.6481  221.2508 H   0  0  0  0  0  0  0  0  0  0  0  0
  135.0610   67.3510  221.9350 C   0  0  0  0  0  0  0  0  0  0  0  0
  134.4985   66.6759  221.2733 H   0  0  0  0  0  0  0  0  0  0  0  0
  134.3760   68.2360  222.7750 C   0  0  0  0  0  0  0  0  0  0  0  0
  133.2764   68.2639  222.7643 H   0  0  0  0  0  0  0  0  0  0  0  0
  135.0890   69.0860  223.6290 C   0  0  0  0  0  0  0  0  0  0  0  0
  134.5504   69.7828  224.2880 H   0  0  0  0  0  0  0  0  0  0  0  0
  136.4850   69.0480  223.6430 C   0  0  0  0  0  0  0  0  0  0  0  0
  137.0429   69.7202  224.3116 H   0  0  0  0  0  0  0  0  0  0  0  0
  138.9270   73.2830  221.9160 C   0  0  0  0  0  0  0  0  0  0  0  0
  140.2950   73.5980  221.9400 C   0  0  0  0  0  0  0  0  0  0  0  0
  141.0418   72.7904  221.9370 H   0  0  0  0  0  0  0  0  0  0  0  0
  140.7030   74.8960  221.9670 N   0  0  0  0  0  0  0  0  0  0  0  0
  139.8150   75.9270  221.9720 C   0  0  0  0  0  0  0  0  0  0  0  0
  140.1771   76.9656  221.9816 H   0  0  0  0  0  0  0  0  0  0  0  0
  138.4440   75.6650  221.9650 C   0  0  0  0  0  0  0  0  0  0  0  0
  137.7212   76.4941  221.9783 H   0  0  0  0  0  0  0  0  0  0  0  0
  137.9970   74.3420  221.9410 C   0  0  0  0  0  0  0  0  0  0  0  0
  136.9184   74.1263  221.9416 H   0  0  0  0  0  0  0  0  0  0  0  0
  1  2  1  0
  2  3  2  0
  3  4  1  0
  3  5  1  0
  5  6  2  0
  6  7  1  0
  7  8  2  0
  8  9  1  0
  8 10  1  0
 10 11  1  0
 10 12  2  0
 12 13  1  0
 12 14  1  0
 14 15  1  0
 14 16  2  0
 16 17  1  0
 17 18  2  0
 17 19  1  0
 19 20  1  0
 20 21  1  0
 20 22  1  0
 20 23  1  0
 23 24  2  0
 24 25  1  0
 24 26  1  0
 26 27  1  0
 26 28  2  0
 28 29  1  0
 28 30  1  0
 30 31  1  0
 30 32  2  0
 32 33  1  0
  2 34  1  0
 34 35  2  0
 35 36  1  0
 35 37  1  0
 37 38  2  0
 38 39  1  0
 38 40  1  0
 40 41  1  0
 40 42  2  0
 42 43  1  0
 19  5  1  0
 32 23  1  0
 42 34  1  0
 16  7  1  0
M  END
>  <UniqueID>  (2) 
21

>  <SMILES>  (2) 
O=c1c2ccccc2nc(/C=C/c2cccnc2)n1Cc1ccccc1

>  <Energy>  (2) 
64.00571729435049

>  <Genealogy>  (2) 
O=c1c2ccccc2nc(/C=C/c2cccnc2)n1Cc1ccccc1 (cis-trans isomerization)
O=c1c2ccccc2nc(/C=C/c2cccnc2)n1Cc1ccccc1 (3D coordinates assigned)
O=c1c2ccccc2nc(/C=C/c2cccnc2)n1Cc1ccccc1 (optimized conformer: 64.00571729435049 kcal/mol)

>  <smiles>  (2) 
O=c1c2ccccc2nc(/C=C/c2cccnc2)n1Cc1ccccc1

>  <score_type>  (2) 
oracle

>  <origin>  (2) 
autodockgpu

>  <m_score__min__energy>  (2) 
-7.3799999999999999

>  <m_primary>  (2) 
energy

>  <meeko>  (2) 
{"free_energy": -7.21, "intermolecular_energy": -8.71, "internal_energy": -1.29, "cluster_size": 7, "cluster_id": 1, "rank_in_cluster": 4}

>  <energy>  (2) 
-7.37

>  <cluster_rmsd>  (2) 
0.09

>  <rmsd>  (2) 
268.79

>  <cluster>  (2) 
1

$$$$
GEKDQXSPTHHANP-OUKQBFOZNA-N
     RDKit          3D

 43 46  0  0  0  0  0  0  0  0999 V2000
  138.2625   71.6816  221.1846 H   0  0  0  0  0  0  0  0  0  0  0  0
  139.3060   71.6630  221.5320 C   0  0  0  0  0  0  0  0  0  0  0  0
  139.8030   70.5040  221.9780 C   0  0  0  0  0  0  0  0  0  0  0  0
  140.2061   69.7695  221.2652 H   0  0  0  0  0  0  0  0  0  0  0  0
  139.8120   70.2090  223.4190 C   0  0  0  0  0  0  0  0  0  0  0  0
  140.3670   71.1330  224.2470 N   0  0  0  0  0  0  0  0  0  0  0  0
  140.4420   70.9380  225.5840 C   0  0  0  0  0  0  0  0  0  0  0  0
  141.0150   71.9200  226.4040 C   0  0  0  0  0  0  0  0  0  0  0  0
  141.3951   72.8523  225.9609 H   0  0  0  0  0  0  0  0  0  0  0  0
  141.1040   71.7160  227.7840 C   0  0  0  0  0  0  0  0  0  0  0  0
  141.5536   72.4875  228.4264 H   0  0  0  0  0  0  0  0  0  0  0  0
  140.6210   70.5300  228.3480 C   0  0  0  0  0  0  0  0  0  0  0  0
  140.6934   70.3699  229.4339 H   0  0  0  0  0  0  0  0  0  0  0  0
  140.0450   69.5450  227.5330 C   0  0  0  0  0  0  0  0  0  0  0  0
  139.6679   68.6138  227.9810 H   0  0  0  0  0  0  0  0  0  0  0  0
  139.9480   69.7450  226.1420 C   0  0  0  0  0  0  0  0  0  0  0  0
  139.3760   68.7900  225.2790 C   0  0  0  0  0  0  0  0  0  0  0  0
  138.9340   67.7060  225.7560 O   0  0  0  0  0  0  0  0  0  0  0  0
  139.3020   69.0330  223.9260 N   0  0  0  0  0  0  0  0  0  0  0  0
  138.7180   68.0210  223.0160 C   0  0  0  0  0  0  0  0  0  0  0  0
  139.1959   68.1065  222.0289 H   0  0  0  0  0  0  0  0  0  0  0  0
  138.8928   67.0228  223.4439 H   0  0  0  0  0  0  0  0  0  0  0  0
  137.2280   68.2250  222.8630 C   0  0  0  0  0  0  0  0  0  0  0  0
  136.4910   67.4320  221.9640 C   0  0  0  0  0  0  0  0  0  0  0  0
  137.0033   66.6726  221.3550 H   0  0  0  0  0  0  0  0  0  0  0  0
  135.1090   67.6070  221.8430 C   0  0  0  0  0  0  0  0  0  0  0  0
  134.5322   66.9652  221.1608 H   0  0  0  0  0  0  0  0  0  0  0  0
  134.4580   68.5970  222.5880 C   0  0  0  0  0  0  0  0  0  0  0  0
  133.3723   68.7390  222.4831 H   0  0  0  0  0  0  0  0  0  0  0  0
  135.1880   69.4070  223.4670 C   0  0  0  0  0  0  0  0  0  0  0  0
  134.6766   70.1863  224.0511 H   0  0  0  0  0  0  0  0  0  0  0  0
  136.5660   69.2240  223.6010 C   0  0  0  0  0  0  0  0  0  0  0  0
  137.1379   69.8650  224.2880 H   0  0  0  0  0  0  0  0  0  0  0  0
  140.0840   72.9240  221.4800 C   0  0  0  0  0  0  0  0  0  0  0  0
  139.5190   74.0920  222.0130 C   0  0  0  0  0  0  0  0  0  0  0  0
  138.5208   74.0559  222.4738 H   0  0  0  0  0  0  0  0  0  0  0  0
  140.2000   75.2710  221.9630 N   0  0  0  0  0  0  0  0  0  0  0  0
  141.4360   75.3610  221.4040 C   0  0  0  0  0  0  0  0  0  0  0  0
  141.9647   76.3255  221.3908 H   0  0  0  0  0  0  0  0  0  0  0  0
  142.0340   74.2300  220.8470 C   0  0  0  0  0  0  0  0  0  0  0  0
  143.0303   74.2994  220.3859 H   0  0  0  0  0  0  0  0  0  0  0  0
  141.3560   73.0080  220.8800 C   0  0  0  0  0  0  0  0  0  0  0  0
  141.8156   72.1119  220.4375 H   0  0  0  0  0  0  0  0  0  0  0  0
  1  2  1  0
  2  3  2  0
  3  4  1  0
  3  5  1  0
  5  6  2  0
  6  7  1  0
  7  8  2  0
  8  9  1  0
  8 10  1  0
 10 11  1  0
 10 12  2  0
 12 13  1  0
 12 14  1  0
 14 15  1  0
 14 16  2  0
 16 17  1  0
 17 18  2  0
 17 19  1  0
 19 20  1  0
 20 21  1  0
 20 22  1  0
 20 23  1  0
 23 24  2  0
 24 25  1  0
 24 26  1  0
 26 27  1  0
 26 28  2  0
 28 29  1  0
 28 30  1  0
 30 31  1  0
 30 32  2  0
 32 33  1  0
  2 34  1  0
 34 35  2  0
 35 36  1  0
 35 37  1  0
 37 38  2  0
 38 39  1  0
 38 40  1  0
 40 41  1  0
 40 42  2  0
 42 43  1  0
 19  5  1  0
 32 23  1  0
 42 34  1  0
 16  7  1  0
M  END
>  <UniqueID>  (3) 
21

>  <SMILES>  (3) 
O=c1c2ccccc2nc(/C=C/c2cccnc2)n1Cc1ccccc1

>  <Energy>  (3) 
64.00571729435049

>  <Genealogy>  (3) 
O=c1c2ccccc2nc(/C=C/c2cccnc2)n1Cc1ccccc1 (cis-trans isomerization)
O=c1c2ccccc2nc(/C=C/c2cccnc2)n1Cc1ccccc1 (3D coordinates assigned)
O=c1c2ccccc2nc(/C=C/c2cccnc2)n1Cc1ccccc1 (optimized conformer: 64.00571729435049 kcal/mol)

>  <smiles>  (3) 
O=c1c2ccccc2nc(/C=C/c2cccnc2)n1Cc1ccccc1

>  <score_type>  (3) 
oracle

>  <origin>  (3) 
autodockgpu

>  <m_score__min__energy>  (3) 
-7.3799999999999999

>  <m_primary>  (3) 
energy

>  <meeko>  (3) 
{"free_energy": -6.98, "intermolecular_energy": -8.47, "internal_energy": -1.28, "cluster_size": 7, "cluster_id": 1, "rank_in_cluster": 7}

>  <energy>  (3) 
-7.27

>  <cluster_rmsd>  (3) 
0.17

>  <rmsd>  (3) 
268.77

>  <cluster>  (3) 
1

$$$$
GEKDQXSPTHHANP-OUKQBFOZNA-N
     RDKit          3D

 43 46  0  0  0  0  0  0  0  0999 V2000
  135.3172   68.0216  222.6661 H   0  0  0  0  0  0  0  0  0  0  0  0
  135.9050   68.7420  223.2540 C   0  0  0  0  0  0  0  0  0  0  0  0
  137.1700   68.9770  222.8850 C   0  0  0  0  0  0  0  0  0  0  0  0
  137.4615   68.8743  221.8293 H   0  0  0  0  0  0  0  0  0  0  0  0
  138.1710   69.3720  223.8870 C   0  0  0  0  0  0  0  0  0  0  0  0
  138.4460   68.4910  224.8840 N   0  0  0  0  0  0  0  0  0  0  0  0
  139.3340   68.7780  225.8630 C   0  0  0  0  0  0  0  0  0  0  0  0
  139.5950   67.8380  226.8700 C   0  0  0  0  0  0  0  0  0  0  0  0
  139.0835   66.8642  226.8580 H   0  0  0  0  0  0  0  0  0  0  0  0
  140.5040   68.1360  227.8890 C   0  0  0  0  0  0  0  0  0  0  0  0
  140.7083   67.3971  228.6778 H   0  0  0  0  0  0  0  0  0  0  0  0
  141.1540   69.3750  227.9050 C   0  0  0  0  0  0  0  0  0  0  0  0
  141.8675   69.6093  228.7087 H   0  0  0  0  0  0  0  0  0  0  0  0
  140.8990   70.3190  226.9000 C   0  0  0  0  0  0  0  0  0  0  0  0
  141.4122   71.2918  226.9176 H   0  0  0  0  0  0  0  0  0  0  0  0
  139.9870   70.0240  225.8680 C   0  0  0  0  0  0  0  0  0  0  0  0
  139.6970   70.9350  224.8330 C   0  0  0  0  0  0  0  0  0  0  0  0
  140.2640   72.0650  224.8210 O   0  0  0  0  0  0  0  0  0  0  0  0
  138.7990   70.5990  223.8440 N   0  0  0  0  0  0  0  0  0  0  0  0
  138.4790   71.5640  222.7670 C   0  0  0  0  0  0  0  0  0  0  0  0
  137.8382   71.0712  222.0209 H   0  0  0  0  0  0  0  0  0  0  0  0
  137.9597   72.4260  223.2112 H   0  0  0  0  0  0  0  0  0  0  0  0
  139.7380   72.0560  222.0900 C   0  0  0  0  0  0  0  0  0  0  0  0
  139.9830   73.4360  221.9630 C   0  0  0  0  0  0  0  0  0  0  0  0
  139.2465   74.1609  222.3400 H   0  0  0  0  0  0  0  0  0  0  0  0
  141.1600   73.8880  221.3590 C   0  0  0  0  0  0  0  0  0  0  0  0
  141.3612   74.9672  221.2891 H   0  0  0  0  0  0  0  0  0  0  0  0
  142.0830   72.9710  220.8430 C   0  0  0  0  0  0  0  0  0  0  0  0
  143.0032   73.3301  220.3589 H   0  0  0  0  0  0  0  0  0  0  0  0
  141.8350   71.5960  220.9430 C   0  0  0  0  0  0  0  0  0  0  0  0
  142.5590   70.8748  220.5358 H   0  0  0  0  0  0  0  0  0  0  0  0
  140.6680   71.1420  221.5600 C   0  0  0  0  0  0  0  0  0  0  0  0
  140.4737   70.0617  221.6325 H   0  0  0  0  0  0  0  0  0  0  0  0
  135.2530   69.3990  224.4110 C   0  0  0  0  0  0  0  0  0  0  0  0
  134.6130   68.6020  225.3730 C   0  0  0  0  0  0  0  0  0  0  0  0
  134.6168   67.5072  225.2660 H   0  0  0  0  0  0  0  0  0  0  0  0
  133.9880   69.1750  226.4370 N   0  0  0  0  0  0  0  0  0  0  0  0
  133.9580   70.5240  226.6110 C   0  0  0  0  0  0  0  0  0  0  0  0
  133.4545   70.9551  227.4888 H   0  0  0  0  0  0  0  0  0  0  0  0
  134.5670   71.3600  225.6740 C   0  0  0  0  0  0  0  0  0  0  0  0
  134.5388   72.4519  225.8042 H   0  0  0  0  0  0  0  0  0  0  0  0
  135.2130   70.7990  224.5690 C   0  0  0  0  0  0  0  0  0  0  0  0
  135.6905   71.4504  223.8222 H   0  0  0  0  0  0  0  0  0  0  0  0
  1  2  1  0
  2  3  2  0
  3  4  1  0
  3  5  1  0
  5  6  2  0
  6  7  1  0
  7  8  2  0
  8  9  1  0
  8 10  1  0
 10 11  1  0
 10 12  2  0
 12 13  1  0
 12 14  1  0
 14 15  1  0
 14 16  2  0
 16 17  1  0
 17 18  2  0
 17 19  1  0
 19 20  1  0
 20 21  1  0
 20 22  1  0
 20 23  1  0
 23 24  2  0
 24 25  1  0
 24 26  1  0
 26 27  1  0
 26 28  2  0
 28 29  1  0
 28 30  1  0
 30 31  1  0
 30 32  2  0
 32 33  1  0
  2 34  1  0
 34 35  2  0
 35 36  1  0
 35 37  1  0
 37 38  2  0
 38 39  1  0
 38 40  1  0
 40 41  1  0
 40 42  2  0
 42 43  1  0
 19  5  1  0
 32 23  1  0
 42 34  1  0
 16  7  1  0
M  END
>  <UniqueID>  (4) 
21

>  <SMILES>  (4) 
O=c1c2ccccc2nc(/C=C/c2cccnc2)n1Cc1ccccc1

>  <Energy>  (4) 
64.00571729435049

>  <Genealogy>  (4) 
O=c1c2ccccc2nc(/C=C/c2cccnc2)n1Cc1ccccc1 (cis-trans isomerization)
O=c1c2ccccc2nc(/C=C/c2cccnc2)n1Cc1ccccc1 (3D coordinates assigned)
O=c1c2ccccc2nc(/C=C/c2cccnc2)n1Cc1ccccc1 (optimized conformer: 64.00571729435049 kcal/mol)

>  <smiles>  (4) 
O=c1c2ccccc2nc(/C=C/c2cccnc2)n1Cc1ccccc1

>  <score_type>  (4) 
oracle

>  <origin>  (4) 
autodockgpu

>  <m_score__min__energy>  (4) 
-7.3799999999999999

>  <m_primary>  (4) 
energy

>  <meeko>  (4) 
{"free_energy": -6.89, "intermolecular_energy": -8.38, "internal_energy": -1.4, "cluster_size": 4, "cluster_id": 3, "rank_in_cluster": 1}

>  <energy>  (4) 
-7.21

>  <cluster_rmsd>  (4) 
0.76

>  <rmsd>  (4) 
268.73

>  <cluster>  (4) 
1

$$$$
GEKDQXSPTHHANP-OUKQBFOZNA-N
     RDKit          3D

 43 46  0  0  0  0  0  0  0  0999 V2000
  135.3296   68.7306  222.2746 H   0  0  0  0  0  0  0  0  0  0  0  0
  135.9440   68.8720  223.1760 C   0  0  0  0  0  0  0  0  0  0  0  0
  137.2340   68.5200  223.1240 C   0  0  0  0  0  0  0  0  0  0  0  0
  137.5858   67.8419  222.3325 H   0  0  0  0  0  0  0  0  0  0  0  0
  138.1830   69.0370  224.1220 C   0  0  0  0  0  0  0  0  0  0  0  0
  138.5000   68.2290  225.1670 N   0  0  0  0  0  0  0  0  0  0  0  0
  139.3430   68.6300  226.1470 C   0  0  0  0  0  0  0  0  0  0  0  0
  139.6500   67.7630  227.2050 C   0  0  0  0  0  0  0  0  0  0  0  0
  139.2106   66.7550  227.2343 H   0  0  0  0  0  0  0  0  0  0  0  0
  140.5140   68.1780  228.2230 C   0  0  0  0  0  0  0  0  0  0  0  0
  140.7557   67.4962  229.0517 H   0  0  0  0  0  0  0  0  0  0  0  0
  141.0710   69.4610  228.1870 C   0  0  0  0  0  0  0  0  0  0  0  0
  141.7474   69.7876  228.9906 H   0  0  0  0  0  0  0  0  0  0  0  0
  140.7700   70.3320  227.1300 C   0  0  0  0  0  0  0  0  0  0  0  0
  141.2110   71.3394  227.1061 H   0  0  0  0  0  0  0  0  0  0  0  0
  139.9040   69.9190  226.0990 C   0  0  0  0  0  0  0  0  0  0  0  0
  139.5710   70.7530  225.0130 C   0  0  0  0  0  0  0  0  0  0  0  0
  140.0540   71.9190  224.9530 O   0  0  0  0  0  0  0  0  0  0  0  0
  138.7210   70.3030  224.0270 N   0  0  0  0  0  0  0  0  0  0  0  0
  138.3550   71.1860  222.8960 C   0  0  0  0  0  0  0  0  0  0  0  0
  137.7437   70.6180  222.1793 H   0  0  0  0  0  0  0  0  0  0  0  0
  137.7898   72.0437  223.2895 H   0  0  0  0  0  0  0  0  0  0  0  0
  139.5890   71.7040  222.1920 C   0  0  0  0  0  0  0  0  0  0  0  0
  140.4200   70.8230  221.4760 C   0  0  0  0  0  0  0  0  0  0  0  0
  140.1832   69.7493  221.4441 H   0  0  0  0  0  0  0  0  0  0  0  0
  141.5460   71.3090  220.8050 C   0  0  0  0  0  0  0  0  0  0  0  0
  142.1765   70.6215  220.2221 H   0  0  0  0  0  0  0  0  0  0  0  0
  141.8730   72.6680  220.8730 C   0  0  0  0  0  0  0  0  0  0  0  0
  142.7653   73.0453  220.3520 H   0  0  0  0  0  0  0  0  0  0  0  0
  141.0650   73.5480  221.6040 C   0  0  0  0  0  0  0  0  0  0  0  0
  141.3235   74.6158  221.6596 H   0  0  0  0  0  0  0  0  0  0  0  0
  139.9310   73.0680  222.2620 C   0  0  0  0  0  0  0  0  0  0  0  0
  139.3004   73.7603  222.8391 H   0  0  0  0  0  0  0  0  0  0  0  0
  135.2980   69.4420  224.3820 C   0  0  0  0  0  0  0  0  0  0  0  0
  134.6920   68.5740  225.3020 C   0  0  0  0  0  0  0  0  0  0  0  0
  134.7170   67.4882  225.1273 H   0  0  0  0  0  0  0  0  0  0  0  0
  134.0730   69.0670  226.4100 N   0  0  0  0  0  0  0  0  0  0  0  0
  134.0180   70.4020  226.6670 C   0  0  0  0  0  0  0  0  0  0  0  0
  133.5212   70.7676  227.5778 H   0  0  0  0  0  0  0  0  0  0  0  0
  134.5930   71.3070  225.7730 C   0  0  0  0  0  0  0  0  0  0  0  0
  134.5440   72.3881  225.9703 H   0  0  0  0  0  0  0  0  0  0  0  0
  135.2310   70.8290  224.6260 C   0  0  0  0  0  0  0  0  0  0  0  0
  135.6814   71.5350  223.9128 H   0  0  0  0  0  0  0  0  0  0  0  0
  1  2  1  0
  2  3  2  0
  3  4  1  0
  3  5  1  0
  5  6  2  0
  6  7  1  0
  7  8  2  0
  8  9  1  0
  8 10  1  0
 10 11  1  0
 10 12  2  0
 12 13  1  0
 12 14  1  0
 14 15  1  0
 14 16  2  0
 16 17  1  0
 17 18  2  0
 17 19  1  0
 19 20  1  0
 20 21  1  0
 20 22  1  0
 20 23  1  0
 23 24  2  0
 24 25  1  0
 24 26  1  0
 26 27  1  0
 26 28  2  0
 28 29  1  0
 28 30  1  0
 30 31  1  0
 30 32  2  0
 32 33  1  0
  2 34  1  0
 34 35  2  0
 35 36  1  0
 35 37  1  0
 37 38  2  0
 38 39  1  0
 38 40  1  0
 40 41  1  0
 40 42  2  0
 42 43  1  0
 19  5  1  0
 32 23  1  0
 42 34  1  0
 16  7  1  0
M  END
>  <UniqueID>  (5) 
21

>  <SMILES>  (5) 
O=c1c2ccccc2nc(/C=C/c2cccnc2)n1Cc1ccccc1

>  <Energy>  (5) 
64.00571729435049

>  <Genealogy>  (5) 
O=c1c2ccccc2nc(/C=C/c2cccnc2)n1Cc1ccccc1 (cis-trans isomerization)
O=c1c2ccccc2nc(/C=C/c2cccnc2)n1Cc1ccccc1 (3D coordinates assigned)
O=c1c2ccccc2nc(/C=C/c2cccnc2)n1Cc1ccccc1 (optimized conformer: 64.00571729435049 kcal/mol)

>  <smiles>  (5) 
O=c1c2ccccc2nc(/C=C/c2cccnc2)n1Cc1ccccc1

>  <score_type>  (5) 
oracle

>  <origin>  (5) 
autodockgpu

>  <m_score__min__energy>  (5) 
-7.3799999999999999

>  <m_primary>  (5) 
energy

>  <meeko>  (5) 
{"free_energy": -6.88, "intermolecular_energy": -8.37, "internal_energy": -1.44, "cluster_size": 4, "cluster_id": 3, "rank_in_cluster": 2}

>  <energy>  (5) 
-7.17

>  <cluster_rmsd>  (5) 
0.76

>  <rmsd>  (5) 
268.76

>  <cluster>  (5) 
1

$$$$
GEKDQXSPTHHANP-OUKQBFOZNA-N
     RDKit          3D

 43 46  0  0  0  0  0  0  0  0999 V2000
  140.4772   70.6176  220.7295 H   0  0  0  0  0  0  0  0  0  0  0  0
  139.9860   71.3190  221.4200 C   0  0  0  0  0  0  0  0  0  0  0  0
  139.0200   70.8490  222.2170 C   0  0  0  0  0  0  0  0  0  0  0  0
  137.9778   70.8335  221.8655 H   0  0  0  0  0  0  0  0  0  0  0  0
  139.3480   70.3530  223.5620 C   0  0  0  0  0  0  0  0  0  0  0  0
  139.8470   71.2450  224.4570 N   0  0  0  0  0  0  0  0  0  0  0  0
  140.2000   70.8750  225.7100 C   0  0  0  0  0  0  0  0  0  0  0  0
  140.7040   71.8280  226.6060 C   0  0  0  0  0  0  0  0  0  0  0  0
  140.8037   72.8776  226.2924 H   0  0  0  0  0  0  0  0  0  0  0  0
  141.0800   71.4470  227.8970 C   0  0  0  0  0  0  0  0  0  0  0  0
  141.4746   72.1962  228.5991 H   0  0  0  0  0  0  0  0  0  0  0  0
  140.9540   70.1110  228.2960 C   0  0  0  0  0  0  0  0  0  0  0  0
  141.2528   69.8113  229.3113 H   0  0  0  0  0  0  0  0  0  0  0  0
  140.4480   69.1540  227.4050 C   0  0  0  0  0  0  0  0  0  0  0  0
  140.3508   68.1055  227.7230 H   0  0  0  0  0  0  0  0  0  0  0  0
  140.0640   69.5320  226.1040 C   0  0  0  0  0  0  0  0  0  0  0  0
  139.5470   68.6110  225.1710 C   0  0  0  0  0  0  0  0  0  0  0  0
  139.4250   67.3960  225.4990 O   0  0  0  0  0  0  0  0  0  0  0  0
  139.1840   69.0290  223.9110 N   0  0  0  0  0  0  0  0  0  0  0  0
  138.6590   68.0580  222.9240 C   0  0  0  0  0  0  0  0  0  0  0  0
  139.1110   68.2631  221.9424 H   0  0  0  0  0  0  0  0  0  0  0  0
  138.9143   67.0428  223.2619 H   0  0  0  0  0  0  0  0  0  0  0  0
  137.1560   68.1620  222.8070 C   0  0  0  0  0  0  0  0  0  0  0  0
  136.4230   68.9270  223.7330 C   0  0  0  0  0  0  0  0  0  0  0  0
  136.9432   69.4352  224.5583 H   0  0  0  0  0  0  0  0  0  0  0  0
  135.0350   69.0430  223.6070 C   0  0  0  0  0  0  0  0  0  0  0  0
  134.4700   69.6670  224.3151 H   0  0  0  0  0  0  0  0  0  0  0  0
  134.3630   68.3670  222.5820 C   0  0  0  0  0  0  0  0  0  0  0  0
  133.2698   68.4507  222.4927 H   0  0  0  0  0  0  0  0  0  0  0  0
  135.0820   67.5840  221.6700 C   0  0  0  0  0  0  0  0  0  0  0  0
  134.5541   67.0517  220.8650 H   0  0  0  0  0  0  0  0  0  0  0  0
  136.4700   67.4800  221.7840 C   0  0  0  0  0  0  0  0  0  0  0  0
  137.0315   66.8606  221.0691 H   0  0  0  0  0  0  0  0  0  0  0  0
  140.4310   72.7330  221.4160 C   0  0  0  0  0  0  0  0  0  0  0  0
  139.5950   73.7090  221.9800 C   0  0  0  0  0  0  0  0  0  0  0  0
  138.6351   73.4137  222.4287 H   0  0  0  0  0  0  0  0  0  0  0  0
  139.9650   75.0190  221.9750 N   0  0  0  0  0  0  0  0  0  0  0  0
  141.1430   75.4300  221.4340 C   0  0  0  0  0  0  0  0  0  0  0  0
  141.4185   76.4947  221.4582 H   0  0  0  0  0  0  0  0  0  0  0  0
  142.0020   74.4990  220.8480 C   0  0  0  0  0  0  0  0  0  0  0  0
  142.9523   74.8260  220.4008 H   0  0  0  0  0  0  0  0  0  0  0  0
  141.6450   73.1480  220.8340 C   0  0  0  0  0  0  0  0  0  0  0  0
  142.3124   72.4080  220.3682 H   0  0  0  0  0  0  0  0  0  0  0  0
  1  2  1  0
  2  3  2  0
  3  4  1  0
  3  5  1  0
  5  6  2  0
  6  7  1  0
  7  8  2  0
  8  9  1  0
  8 10  1  0
 10 11  1  0
 10 12  2  0
 12 13  1  0
 12 14  1  0
 14 15  1  0
 14 16  2  0
 16 17  1  0
 17 18  2  0
 17 19  1  0
 19 20  1  0
 20 21  1  0
 20 22  1  0
 20 23  1  0
 23 24  2  0
 24 25  1  0
 24 26  1  0
 26 27  1  0
 26 28  2  0
 28 29  1  0
 28 30  1  0
 30 31  1  0
 30 32  2  0
 32 33  1  0
  2 34  1  0
 34 35  2  0
 35 36  1  0
 35 37  1  0
 37 38  2  0
 38 39  1  0
 38 40  1  0
 40 41  1  0
 40 42  2  0
 42 43  1  0
 19  5  1  0
 32 23  1  0
 42 34  1  0
 16  7  1  0
M  END
>  <UniqueID>  (6) 
21

>  <SMILES>  (6) 
O=c1c2ccccc2nc(/C=C/c2cccnc2)n1Cc1ccccc1

>  <Energy>  (6) 
64.00571729435049

>  <Genealogy>  (6) 
O=c1c2ccccc2nc(/C=C/c2cccnc2)n1Cc1ccccc1 (cis-trans isomerization)
O=c1c2ccccc2nc(/C=C/c2cccnc2)n1Cc1ccccc1 (3D coordinates assigned)
O=c1c2ccccc2nc(/C=C/c2cccnc2)n1Cc1ccccc1 (optimized conformer: 64.00571729435049 kcal/mol)

>  <smiles>  (6) 
O=c1c2ccccc2nc(/C=C/c2cccnc2)n1Cc1ccccc1

>  <score_type>  (6) 
oracle

>  <origin>  (6) 
autodockgpu

>  <m_score__min__energy>  (6) 
-7.3799999999999999

>  <m_primary>  (6) 
energy

>  <meeko>  (6) 
{"free_energy": -7.27, "intermolecular_energy": -8.76, "internal_energy": -1.2, "cluster_size": 7, "cluster_id": 1, "rank_in_cluster": 3}

>  <energy>  (6) 
-7.15

>  <cluster_rmsd>  (6) 
0.78

>  <rmsd>  (6) 
268.82

>  <cluster>  (6) 
1

$$$$
GEKDQXSPTHHANP-OUKQBFOZNA-N
     RDKit          3D

 43 46  0  0  0  0  0  0  0  0999 V2000
  143.8469   76.5321  218.5005 H   0  0  0  0  0  0  0  0  0  0  0  0
  143.3620   75.6870  219.0110 C   0  0  0  0  0  0  0  0  0  0  0  0
  142.0410   75.7450  219.2140 C   0  0  0  0  0  0  0  0  0  0  0  0
  141.3599   75.1823  218.5587 H   0  0  0  0  0  0  0  0  0  0  0  0
  141.4970   76.5600  220.3120 C   0  0  0  0  0  0  0  0  0  0  0  0
  142.2170   77.6410  220.7090 N   0  0  0  0  0  0  0  0  0  0  0  0
  141.8080   78.4340  221.7260 C   0  0  0  0  0  0  0  0  0  0  0  0
  142.5760   79.5460  222.1010 C   0  0  0  0  0  0  0  0  0  0  0  0
  143.5066   79.7776  221.5621 H   0  0  0  0  0  0  0  0  0  0  0  0
  142.1610   80.3600  223.1580 C   0  0  0  0  0  0  0  0  0  0  0  0
  142.7644   81.2321  223.4502 H   0  0  0  0  0  0  0  0  0  0  0  0
  140.9780   80.0660  223.8450 C   0  0  0  0  0  0  0  0  0  0  0  0
  140.6542   80.7066  224.6785 H   0  0  0  0  0  0  0  0  0  0  0  0
  140.2040   78.9570  223.4740 C   0  0  0  0  0  0  0  0  0  0  0  0
  139.2752   78.7291  224.0176 H   0  0  0  0  0  0  0  0  0  0  0  0
  140.6140   78.1340  222.4060 C   0  0  0  0  0  0  0  0  0  0  0  0
  139.8720   77.0100  221.9910 C   0  0  0  0  0  0  0  0  0  0  0  0
  138.8010   76.7140  222.5940 O   0  0  0  0  0  0  0  0  0  0  0  0
  140.3130   76.2370  220.9400 N   0  0  0  0  0  0  0  0  0  0  0  0
  139.5440   75.0450  220.5160 C   0  0  0  0  0  0  0  0  0  0  0  0
  138.4751   75.2196  220.7084 H   0  0  0  0  0  0  0  0  0  0  0  0
  139.7207   74.8778  219.4432 H   0  0  0  0  0  0  0  0  0  0  0  0
  139.9880   73.8150  221.2740 C   0  0  0  0  0  0  0  0  0  0  0  0
  139.2130   73.3170  222.3380 C   0  0  0  0  0  0  0  0  0  0  0  0
  138.2892   73.8359  222.6336 H   0  0  0  0  0  0  0  0  0  0  0  0
  139.6140   72.1650  223.0200 C   0  0  0  0  0  0  0  0  0  0  0  0
  138.9899   71.7630  223.8317 H   0  0  0  0  0  0  0  0  0  0  0  0
  140.8080   71.5210  222.6730 C   0  0  0  0  0  0  0  0  0  0  0  0
  141.1261   70.6204  223.2186 H   0  0  0  0  0  0  0  0  0  0  0  0
  141.5970   72.0240  221.6310 C   0  0  0  0  0  0  0  0  0  0  0  0
  142.5359   71.5197  221.3587 H   0  0  0  0  0  0  0  0  0  0  0  0
  141.1910   73.1660  220.9380 C   0  0  0  0  0  0  0  0  0  0  0  0
  141.8157   73.5614  220.1236 H   0  0  0  0  0  0  0  0  0  0  0  0
  144.2080   74.5470  219.4360 C   0  0  0  0  0  0  0  0  0  0  0  0
  144.8190   73.7520  218.4540 C   0  0  0  0  0  0  0  0  0  0  0  0
  144.6764   73.9918  217.3900 H   0  0  0  0  0  0  0  0  0  0  0  0
  145.5870   72.6860  218.8100 N   0  0  0  0  0  0  0  0  0  0  0  0
  145.7910   72.3530  220.1120 C   0  0  0  0  0  0  0  0  0  0  0  0
  146.4273   71.4926  220.3668 H   0  0  0  0  0  0  0  0  0  0  0  0
  145.1930   73.1030  221.1250 C   0  0  0  0  0  0  0  0  0  0  0  0
  145.3475   72.8324  222.1799 H   0  0  0  0  0  0  0  0  0  0  0  0
  144.3960   74.2010  220.7890 C   0  0  0  0  0  0  0  0  0  0  0  0
  143.9156   74.7949  221.5806 H   0  0  0  0  0  0  0  0  0  0  0  0
  1  2  1  0
  2  3  2  0
  3  4  1  0
  3  5  1  0
  5  6  2  0
  6  7  1  0
  7  8  2  0
  8  9  1  0
  8 10  1  0
 10 11  1  0
 10 12  2  0
 12 13  1  0
 12 14  1  0
 14 15  1  0
 14 16  2  0
 16 17  1  0
 17 18  2  0
 17 19  1  0
 19 20  1  0
 20 21  1  0
 20 22  1  0
 20 23  1  0
 23 24  2  0
 24 25  1  0
 24 26  1  0
 26 27  1  0
 26 28  2  0
 28 29  1  0
 28 30  1  0
 30 31  1  0
 30 32  2  0
 32 33  1  0
  2 34  1  0
 34 35  2  0
 35 36  1  0
 35 37  1  0
 37 38  2  0
 38 39  1  0
 38 40  1  0
 40 41  1  0
 40 42  2  0
 42 43  1  0
 19  5  1  0
 32 23  1  0
 42 34  1  0
 16  7  1  0
M  END
>  <UniqueID>  (7) 
21

>  <SMILES>  (7) 
O=c1c2ccccc2nc(/C=C/c2cccnc2)n1Cc1ccccc1

>  <Energy>  (7) 
64.00571729435049

>  <Genealogy>  (7) 
O=c1c2ccccc2nc(/C=C/c2cccnc2)n1Cc1ccccc1 (cis-trans isomerization)
O=c1c2ccccc2nc(/C=C/c2cccnc2)n1Cc1ccccc1 (3D coordinates assigned)
O=c1c2ccccc2nc(/C=C/c2cccnc2)n1Cc1ccccc1 (optimized conformer: 64.00571729435049 kcal/mol)

>  <smiles>  (7) 
O=c1c2ccccc2nc(/C=C/c2cccnc2)n1Cc1ccccc1

>  <score_type>  (7) 
oracle

>  <origin>  (7) 
autodockgpu

>  <m_score__min__energy>  (7) 
-7.3799999999999999

>  <m_primary>  (7) 
energy

>  <meeko>  (7) 
{"free_energy": -6.7, "intermolecular_energy": -8.19, "internal_energy": -1.54, "cluster_size": 8, "cluster_id": 2, "rank_in_cluster": 8}

>  <energy>  (7) 
-6.98

>  <cluster_rmsd>  (7) 
0.41

>  <rmsd>  (7) 
268.81

>  <cluster>  (7) 
1

$$$$
GEKDQXSPTHHANP-OUKQBFOZNA-N
     RDKit          3D

 43 46  0  0  0  0  0  0  0  0999 V2000
  137.5801   71.5576  221.4776 H   0  0  0  0  0  0  0  0  0  0  0  0
  138.6030   71.8160  221.7890 C   0  0  0  0  0  0  0  0  0  0  0  0
  139.4460   70.8180  222.0830 C   0  0  0  0  0  0  0  0  0  0  0  0
  140.0228   70.3325  221.2820 H   0  0  0  0  0  0  0  0  0  0  0  0
  139.6020   70.3700  223.4750 C   0  0  0  0  0  0  0  0  0  0  0  0
  140.1210   71.2550  224.3670 N   0  0  0  0  0  0  0  0  0  0  0  0
  140.3240   70.9230  225.6630 C   0  0  0  0  0  0  0  0  0  0  0  0
  140.8550   71.8670  226.5530 C   0  0  0  0  0  0  0  0  0  0  0  0
  141.0982   72.8795  226.1986 H   0  0  0  0  0  0  0  0  0  0  0  0
  141.0760   71.5240  227.8900 C   0  0  0  0  0  0  0  0  0  0  0  0
  141.4925   72.2661  228.5870 H   0  0  0  0  0  0  0  0  0  0  0  0
  140.7670   70.2360  228.3410 C   0  0  0  0  0  0  0  0  0  0  0  0
  140.9434   69.9662  229.3927 H   0  0  0  0  0  0  0  0  0  0  0  0
  140.2330   69.2880  227.4560 C   0  0  0  0  0  0  0  0  0  0  0  0
  139.9918   68.2766  227.8151 H   0  0  0  0  0  0  0  0  0  0  0  0
  140.0050   69.6280  226.1090 C   0  0  0  0  0  0  0  0  0  0  0  0
  139.4680   68.7150  225.1800 C   0  0  0  0  0  0  0  0  0  0  0  0
  139.1820   67.5410  225.5540 O   0  0  0  0  0  0  0  0  0  0  0  0
  139.2610   69.0950  223.8720 N   0  0  0  0  0  0  0  0  0  0  0  0
  138.7140   68.1290  222.8910 C   0  0  0  0  0  0  0  0  0  0  0  0
  139.1130   68.3646  221.8934 H   0  0  0  0  0  0  0  0  0  0  0  0
  139.0110   67.1145  223.1954 H   0  0  0  0  0  0  0  0  0  0  0  0
  137.2050   68.1960  222.8480 C   0  0  0  0  0  0  0  0  0  0  0  0
  136.4840   67.3850  221.9520 C   0  0  0  0  0  0  0  0  0  0  0  0
  137.0211   66.7139  221.2656 H   0  0  0  0  0  0  0  0  0  0  0  0
  135.0870   67.4300  221.9320 C   0  0  0  0  0  0  0  0  0  0  0  0
  134.5263   66.7728  221.2511 H   0  0  0  0  0  0  0  0  0  0  0  0
  134.4000   68.3100  222.7770 C   0  0  0  0  0  0  0  0  0  0  0  0
  133.3011   68.3511  222.7513 H   0  0  0  0  0  0  0  0  0  0  0  0
  135.1110   69.1380  223.6550 C   0  0  0  0  0  0  0  0  0  0  0  0
  134.5713   69.8306  224.3176 H   0  0  0  0  0  0  0  0  0  0  0  0
  136.5060   69.0830  223.6880 C   0  0  0  0  0  0  0  0  0  0  0  0
  137.0623   69.7374  224.3752 H   0  0  0  0  0  0  0  0  0  0  0  0
  138.9720   73.2490  221.8600 C   0  0  0  0  0  0  0  0  0  0  0  0
  140.3310   73.6000  221.8910 C   0  0  0  0  0  0  0  0  0  0  0  0
  141.0997   72.8144  221.8463 H   0  0  0  0  0  0  0  0  0  0  0  0
  140.7030   74.9060  221.9760 N   0  0  0  0  0  0  0  0  0  0  0  0
  139.7880   75.9110  222.0320 C   0  0  0  0  0  0  0  0  0  0  0  0
  140.1219   76.9576  222.0874 H   0  0  0  0  0  0  0  0  0  0  0  0
  138.4250   75.6120  222.0190 C   0  0  0  0  0  0  0  0  0  0  0  0
  137.6799   76.4194  222.0729 H   0  0  0  0  0  0  0  0  0  0  0  0
  138.0140   74.2790  221.9370 C   0  0  0  0  0  0  0  0  0  0  0  0
  136.9417   74.0337  221.9326 H   0  0  0  0  0  0  0  0  0  0  0  0
  1  2  1  0
  2  3  2  0
  3  4  1  0
  3  5  1  0
  5  6  2  0
  6  7  1  0
  7  8  2  0
  8  9  1  0
  8 10  1  0
 10 11  1  0
 10 12  2  0
 12 13  1  0
 12 14  1  0
 14 15  1  0
 14 16  2  0
 16 17  1  0
 17 18  2  0
 17 19  1  0
 19 20  1  0
 20 21  1  0
 20 22  1  0
 20 23  1  0
 23 24  2  0
 24 25  1  0
 24 26  1  0
 26 27  1  0
 26 28  2  0
 28 29  1  0
 28 30  1  0
 30 31  1  0
 30 32  2  0
 32 33  1  0
  2 34  1  0
 34 35  2  0
 35 36  1  0
 35 37  1  0
 37 38  2  0
 38 39  1  0
 38 40  1  0
 40 41  1  0
 40 42  2  0
 42 43  1  0
 19  5  1  0
 32 23  1  0
 42 34  1  0
 16  7  1  0
M  END
>  <UniqueID>  (8) 
21

>  <SMILES>  (8) 
O=c1c2ccccc2nc(/C=C/c2cccnc2)n1Cc1ccccc1

>  <Energy>  (8) 
64.00571729435049

>  <Genealogy>  (8) 
O=c1c2ccccc2nc(/C=C/c2cccnc2)n1Cc1ccccc1 (cis-trans isomerization)
O=c1c2ccccc2nc(/C=C/c2cccnc2)n1Cc1ccccc1 (3D coordinates assigned)
O=c1c2ccccc2nc(/C=C/c2cccnc2)n1Cc1ccccc1 (optimized conformer: 64.00571729435049 kcal/mol)

>  <smiles>  (8) 
O=c1c2ccccc2nc(/C=C/c2cccnc2)n1Cc1ccccc1

>  <score_type>  (8) 
oracle

>  <origin>  (8) 
autodockgpu

>  <m_score__min__energy>  (8) 
-7.3799999999999999

>  <m_primary>  (8) 
energy

>  <meeko>  (8) 
{"free_energy": -7.17, "intermolecular_energy": -8.67, "internal_energy": -1.32, "cluster_size": 7, "cluster_id": 1, "rank_in_cluster": 5}

>  <energy>  (8) 
-7.18

>  <cluster_rmsd>  (8) 
0.0

>  <rmsd>  (8) 
269.47

>  <cluster>  (8) 
2

$$$$
GEKDQXSPTHHANP-OUKQBFOZNA-N
     RDKit          3D

 43 46  0  0  0  0  0  0  0  0999 V2000
  140.9935   70.6273  220.8564 H   0  0  0  0  0  0  0  0  0  0  0  0
  140.3470   71.3010  221.4380 C   0  0  0  0  0  0  0  0  0  0  0  0
  139.3260   70.7660  222.1180 C   0  0  0  0  0  0  0  0  0  0  0  0
  138.3367   70.6797  221.6449 H   0  0  0  0  0  0  0  0  0  0  0  0
  139.5240   70.2930  223.4970 C   0  0  0  0  0  0  0  0  0  0  0  0
  140.0450   71.1690  224.3940 N   0  0  0  0  0  0  0  0  0  0  0  0
  140.2850   70.8150  225.6780 C   0  0  0  0  0  0  0  0  0  0  0  0
  140.8170   71.7520  226.5760 C   0  0  0  0  0  0  0  0  0  0  0  0
  141.0306   72.7767  226.2379 H   0  0  0  0  0  0  0  0  0  0  0  0
  141.0760   71.3860  227.8990 C   0  0  0  0  0  0  0  0  0  0  0  0
  141.4928   72.1223  228.6020 H   0  0  0  0  0  0  0  0  0  0  0  0
  140.8050   70.0820  228.3300 C   0  0  0  0  0  0  0  0  0  0  0  0
  141.0109   69.7948  229.3717 H   0  0  0  0  0  0  0  0  0  0  0  0
  140.2720   69.1410  227.4380 C   0  0  0  0  0  0  0  0  0  0  0  0
  140.0625   68.1170  227.7809 H   0  0  0  0  0  0  0  0  0  0  0  0
  140.0040   69.5040  226.1030 C   0  0  0  0  0  0  0  0  0  0  0  0
  139.4650   68.5990  225.1680 C   0  0  0  0  0  0  0  0  0  0  0  0
  139.2140   67.4120  225.5230 O   0  0  0  0  0  0  0  0  0  0  0  0
  139.2200   69.0020  223.8740 N   0  0  0  0  0  0  0  0  0  0  0  0
  138.6710   68.0460  222.8850 C   0  0  0  0  0  0  0  0  0  0  0  0
  139.0931   68.2713  221.8945 H   0  0  0  0  0  0  0  0  0  0  0  0
  138.9411   67.0262  223.1966 H   0  0  0  0  0  0  0  0  0  0  0  0
  137.1650   68.1440  222.8140 C   0  0  0  0  0  0  0  0  0  0  0  0
  136.4700   69.0300  223.6580 C   0  0  0  0  0  0  0  0  0  0  0  0
  137.0230   69.6400  224.3874 H   0  0  0  0  0  0  0  0  0  0  0  0
  135.0790   69.1370  223.5720 C   0  0  0  0  0  0  0  0  0  0  0  0
  134.5431   69.8524  224.2131 H   0  0  0  0  0  0  0  0  0  0  0  0
  134.3660   68.3360  222.6720 C   0  0  0  0  0  0  0  0  0  0  0  0
  133.2704   68.4152  222.6144 H   0  0  0  0  0  0  0  0  0  0  0  0
  135.0470   67.4340  221.8450 C   0  0  0  0  0  0  0  0  0  0  0  0
  134.4868   66.8035  221.1388 H   0  0  0  0  0  0  0  0  0  0  0  0
  136.4380   67.3360  221.9180 C   0  0  0  0  0  0  0  0  0  0  0  0
  136.9699   66.6227  221.2712 H   0  0  0  0  0  0  0  0  0  0  0  0
  140.6550   72.7500  221.4250 C   0  0  0  0  0  0  0  0  0  0  0  0
  139.7290   73.6460  221.9810 C   0  0  0  0  0  0  0  0  0  0  0  0
  138.8004   73.2639  222.4300 H   0  0  0  0  0  0  0  0  0  0  0  0
  139.9730   74.9850  221.9680 N   0  0  0  0  0  0  0  0  0  0  0  0
  141.1080   75.5030  221.4250 C   0  0  0  0  0  0  0  0  0  0  0  0
  141.2811   76.5892  221.4416 H   0  0  0  0  0  0  0  0  0  0  0  0
  142.0520   74.6530  220.8470 C   0  0  0  0  0  0  0  0  0  0  0  0
  142.9677   75.0657  220.3985 H   0  0  0  0  0  0  0  0  0  0  0  0
  141.8260   73.2750  220.8420 C   0  0  0  0  0  0  0  0  0  0  0  0
  142.5622   72.5989  220.3828 H   0  0  0  0  0  0  0  0  0  0  0  0
  1  2  1  0
  2  3  2  0
  3  4  1  0
  3  5  1  0
  5  6  2  0
  6  7  1  0
  7  8  2  0
  8  9  1  0
  8 10  1  0
 10 11  1  0
 10 12  2  0
 12 13  1  0
 12 14  1  0
 14 15  1  0
 14 16  2  0
 16 17  1  0
 17 18  2  0
 17 19  1  0
 19 20  1  0
 20 21  1  0
 20 22  1  0
 20 23  1  0
 23 24  2  0
 24 25  1  0
 24 26  1  0
 26 27  1  0
 26 28  2  0
 28 29  1  0
 28 30  1  0
 30 31  1  0
 30 32  2  0
 32 33  1  0
  2 34  1  0
 34 35  2  0
 35 36  1  0
 35 37  1  0
 37 38  2  0
 38 39  1  0
 38 40  1  0
 40 41  1  0
 40 42  2  0
 42 43  1  0
 19  5  1  0
 32 23  1  0
 42 34  1  0
 16  7  1  0
M  END
>  <UniqueID>  (9) 
21

>  <SMILES>  (9) 
O=c1c2ccccc2nc(/C=C/c2cccnc2)n1Cc1ccccc1

>  <Energy>  (9) 
64.00571729435049

>  <Genealogy>  (9) 
O=c1c2ccccc2nc(/C=C/c2cccnc2)n1Cc1ccccc1 (cis-trans isomerization)
O=c1c2ccccc2nc(/C=C/c2cccnc2)n1Cc1ccccc1 (3D coordinates assigned)
O=c1c2ccccc2nc(/C=C/c2cccnc2)n1Cc1ccccc1 (optimized conformer: 64.00571729435049 kcal/mol)

>  <smiles>  (9) 
O=c1c2ccccc2nc(/C=C/c2cccnc2)n1Cc1ccccc1

>  <score_type>  (9) 
oracle

>  <origin>  (9) 
autodockgpu

>  <m_score__min__energy>  (9) 
-7.3799999999999999

>  <m_primary>  (9) 
energy

>  <meeko>  (9) 
{"free_energy": -7.38, "intermolecular_energy": -8.88, "internal_energy": -1.19, "cluster_size": 7, "cluster_id": 1, "rank_in_cluster": 1}

>  <energy>  (9) 
-7.17

>  <cluster_rmsd>  (9) 
0.07

>  <rmsd>  (9) 
269.49

>  <cluster>  (9) 
2

$$$$
GEKDQXSPTHHANP-OUKQBFOZNA-N
     RDKit          3D

 43 46  0  0  0  0  0  0  0  0999 V2000
  135.3578   69.3722  222.3078 H   0  0  0  0  0  0  0  0  0  0  0  0
  135.8950   69.3150  223.2660 C   0  0  0  0  0  0  0  0  0  0  0  0
  137.1600   68.8760  223.2570 C   0  0  0  0  0  0  0  0  0  0  0  0
  137.4376   68.0142  222.6323 H   0  0  0  0  0  0  0  0  0  0  0  0
  138.1790   69.5440  224.0810 C   0  0  0  0  0  0  0  0  0  0  0  0
  138.3680   69.0830  225.3450 N   0  0  0  0  0  0  0  0  0  0  0  0
  139.2660   69.6500  226.1830 C   0  0  0  0  0  0  0  0  0  0  0  0
  139.4370   69.1390  227.4770 C   0  0  0  0  0  0  0  0  0  0  0  0
  138.8469   68.2713  227.8070 H   0  0  0  0  0  0  0  0  0  0  0  0
  140.3560   69.7300  228.3490 C   0  0  0  0  0  0  0  0  0  0  0  0
  140.4888   69.3278  229.3642 H   0  0  0  0  0  0  0  0  0  0  0  0
  141.1070   70.8340  227.9290 C   0  0  0  0  0  0  0  0  0  0  0  0
  141.8292   71.2990  228.6161 H   0  0  0  0  0  0  0  0  0  0  0  0
  140.9420   71.3490  226.6360 C   0  0  0  0  0  0  0  0  0  0  0  0
  141.5331   72.2183  226.3121 H   0  0  0  0  0  0  0  0  0  0  0  0
  140.0210   70.7560  225.7500 C   0  0  0  0  0  0  0  0  0  0  0  0
  139.8190   71.2310  224.4390 C   0  0  0  0  0  0  0  0  0  0  0  0
  140.4780   72.2300  224.0310 O   0  0  0  0  0  0  0  0  0  0  0  0
  138.9080   70.6160  223.6110 N   0  0  0  0  0  0  0  0  0  0  0  0
  138.6820   71.1270  222.2390 C   0  0  0  0  0  0  0  0  0  0  0  0
  139.6431   71.1610  221.7050 H   0  0  0  0  0  0  0  0  0  0  0  0
  137.9794   70.4539  221.7259 H   0  0  0  0  0  0  0  0  0  0  0  0
  138.0840   72.5150  222.2690 C   0  0  0  0  0  0  0  0  0  0  0  0
  136.7370   72.7010  222.6320 C   0  0  0  0  0  0  0  0  0  0  0  0
  136.1095   71.8308  222.8748 H   0  0  0  0  0  0  0  0  0  0  0  0
  136.1940   73.9880  222.6850 C   0  0  0  0  0  0  0  0  0  0  0  0
  135.1495   74.1306  222.9991 H   0  0  0  0  0  0  0  0  0  0  0  0
  136.9770   75.0960  222.3390 C   0  0  0  0  0  0  0  0  0  0  0  0
  136.5438   76.1066  222.3703 H   0  0  0  0  0  0  0  0  0  0  0  0
  138.3120   74.9180  221.9530 C   0  0  0  0  0  0  0  0  0  0  0  0
  138.9270   75.7881  221.6795 H   0  0  0  0  0  0  0  0  0  0  0  0
  138.8610   73.6340  221.9160 C   0  0  0  0  0  0  0  0  0  0  0  0
  139.9082   73.4966  221.6087 H   0  0  0  0  0  0  0  0  0  0  0  0
  135.1790   69.7280  224.4960 C   0  0  0  0  0  0  0  0  0  0  0  0
  134.6400   68.7380  225.3320 C   0  0  0  0  0  0  0  0  0  0  0  0
  134.7677   67.6763  225.0742 H   0  0  0  0  0  0  0  0  0  0  0  0
  133.9600   69.0830  226.4600 N   0  0  0  0  0  0  0  0  0  0  0  0
  133.7770   70.3830  226.8170 C   0  0  0  0  0  0  0  0  0  0  0  0
  133.2325   70.6290  227.7405 H   0  0  0  0  0  0  0  0  0  0  0  0
  134.2810   71.4040  226.0100 C   0  0  0  0  0  0  0  0  0  0  0  0
  134.1291   72.4571  226.2889 H   0  0  0  0  0  0  0  0  0  0  0  0
  134.9800   71.0780  224.8450 C   0  0  0  0  0  0  0  0  0  0  0  0
  135.3753   71.8764  224.1998 H   0  0  0  0  0  0  0  0  0  0  0  0
  1  2  1  0
  2  3  2  0
  3  4  1  0
  3  5  1  0
  5  6  2  0
  6  7  1  0
  7  8  2  0
  8  9  1  0
  8 10  1  0
 10 11  1  0
 10 12  2  0
 12 13  1  0
 12 14  1  0
 14 15  1  0
 14 16  2  0
 16 17  1  0
 17 18  2  0
 17 19  1  0
 19 20  1  0
 20 21  1  0
 20 22  1  0
 20 23  1  0
 23 24  2  0
 24 25  1  0
 24 26  1  0
 26 27  1  0
 26 28  2  0
 28 29  1  0
 28 30  1  0
 30 31  1  0
 30 32  2  0
 32 33  1  0
  2 34  1  0
 34 35  2  0
 35 36  1  0
 35 37  1  0
 37 38  2  0
 38 39  1  0
 38 40  1  0
 40 41  1  0
 40 42  2  0
 42 43  1  0
 19  5  1  0
 32 23  1  0
 42 34  1  0
 16  7  1  0
M  END
>  <UniqueID>  (10) 
21

>  <SMILES>  (10) 
O=c1c2ccccc2nc(/C=C/c2cccnc2)n1Cc1ccccc1

>  <Energy>  (10) 
64.00571729435049

>  <Genealogy>  (10) 
O=c1c2ccccc2nc(/C=C/c2cccnc2)n1Cc1ccccc1 (cis-trans isomerization)
O=c1c2ccccc2nc(/C=C/c2cccnc2)n1Cc1ccccc1 (3D coordinates assigned)
O=c1c2ccccc2nc(/C=C/c2cccnc2)n1Cc1ccccc1 (optimized conformer: 64.00571729435049 kcal/mol)

>  <smiles>  (10) 
O=c1c2ccccc2nc(/C=C/c2cccnc2)n1Cc1ccccc1

>  <score_type>  (10) 
oracle

>  <origin>  (10) 
autodockgpu

>  <m_score__min__energy>  (10) 
-7.3799999999999999

>  <m_primary>  (10) 
energy

>  <meeko>  (10) 
{"free_energy": -6.64, "intermolecular_energy": -8.13, "internal_energy": -1.69, "cluster_size": 4, "cluster_id": 3, "rank_in_cluster": 4}

>  <energy>  (10) 
-7.17

>  <cluster_rmsd>  (10) 
0.08

>  <rmsd>  (10) 
269.48

>  <cluster>  (10) 
2

$$$$
GEKDQXSPTHHANP-OUKQBFOZNA-N
     RDKit          3D

 43 46  0  0  0  0  0  0  0  0999 V2000
  143.5695   75.8990  218.1126 H   0  0  0  0  0  0  0  0  0  0  0  0
  143.5630   75.5450  219.1540 C   0  0  0  0  0  0  0  0  0  0  0  0
  142.7420   76.1490  220.0230 C   0  0  0  0  0  0  0  0  0  0  0  0
  142.8858   77.2122  220.2658 H   0  0  0  0  0  0  0  0  0  0  0  0
  141.6490   75.3940  220.6530 C   0  0  0  0  0  0  0  0  0  0  0  0
  141.8450   74.0670  220.8720 N   0  0  0  0  0  0  0  0  0  0  0  0
  140.8860   73.2880  221.4240 C   0  0  0  0  0  0  0  0  0  0  0  0
  141.1300   71.9240  221.6410 C   0  0  0  0  0  0  0  0  0  0  0  0
  142.1039   71.4905  221.3699 H   0  0  0  0  0  0  0  0  0  0  0  0
  140.1380   71.1150  222.2010 C   0  0  0  0  0  0  0  0  0  0  0  0
  140.3317   70.0457  222.3715 H   0  0  0  0  0  0  0  0  0  0  0  0
  138.8980   71.6650  222.5450 C   0  0  0  0  0  0  0  0  0  0  0  0
  138.1173   71.0262  222.9837 H   0  0  0  0  0  0  0  0  0  0  0  0
  138.6480   73.0280  222.3320 C   0  0  0  0  0  0  0  0  0  0  0  0
  137.6714   73.4557  222.6027 H   0  0  0  0  0  0  0  0  0  0  0  0
  139.6450   73.8510  221.7720 C   0  0  0  0  0  0  0  0  0  0  0  0
  139.4470   75.2270  221.5410 C   0  0  0  0  0  0  0  0  0  0  0  0
  138.3360   75.7540  221.8360 O   0  0  0  0  0  0  0  0  0  0  0  0
  140.4530   75.9910  220.9920 N   0  0  0  0  0  0  0  0  0  0  0  0
  140.2390   77.4330  220.7310 C   0  0  0  0  0  0  0  0  0  0  0  0
  140.5613   77.6645  219.7051 H   0  0  0  0  0  0  0  0  0  0  0  0
  139.1697   77.6572  220.8591 H   0  0  0  0  0  0  0  0  0  0  0  0
  141.0280   78.2820  221.7000 C   0  0  0  0  0  0  0  0  0  0  0  0
  141.7290   79.4140  221.2450 C   0  0  0  0  0  0  0  0  0  0  0  0
  141.7198   79.6710  220.1755 H   0  0  0  0  0  0  0  0  0  0  0  0
  142.4370   80.2130  222.1470 C   0  0  0  0  0  0  0  0  0  0  0  0
  142.9582   81.1138  221.7907 H   0  0  0  0  0  0  0  0  0  0  0  0
  142.4840   79.8690  223.5030 C   0  0  0  0  0  0  0  0  0  0  0  0
  143.0508   80.4938  224.2090 H   0  0  0  0  0  0  0  0  0  0  0  0
  141.8100   78.7300  223.9620 C   0  0  0  0  0  0  0  0  0  0  0  0
  141.8491   78.4582  225.0272 H   0  0  0  0  0  0  0  0  0  0  0  0
  141.0880   77.9400  223.0640 C   0  0  0  0  0  0  0  0  0  0  0  0
  140.5624   77.0439  223.4257 H   0  0  0  0  0  0  0  0  0  0  0  0
  144.4630   74.4260  219.5190 C   0  0  0  0  0  0  0  0  0  0  0  0
  144.7740   73.4620  218.5470 C   0  0  0  0  0  0  0  0  0  0  0  0
  144.3628   73.5569  217.5312 H   0  0  0  0  0  0  0  0  0  0  0  0
  145.5820   72.4100  218.8550 N   0  0  0  0  0  0  0  0  0  0  0  0
  146.1140   72.2540  220.0970 C   0  0  0  0  0  0  0  0  0  0  0  0
  146.7739   71.4001  220.3098 H   0  0  0  0  0  0  0  0  0  0  0  0
  145.8220   73.1780  221.1010 C   0  0  0  0  0  0  0  0  0  0  0  0
  146.2423   73.0520  222.1097 H   0  0  0  0  0  0  0  0  0  0  0  0
  144.9920   74.2640  220.8150 C   0  0  0  0  0  0  0  0  0  0  0  0
  144.7509   74.9936  221.6021 H   0  0  0  0  0  0  0  0  0  0  0  0
  1  2  1  0
  2  3  2  0
  3  4  1  0
  3  5  1  0
  5  6  2  0
  6  7  1  0
  7  8  2  0
  8  9  1  0
  8 10  1  0
 10 11  1  0
 10 12  2  0
 12 13  1  0
 12 14  1  0
 14 15  1  0
 14 16  2  0
 16 17  1  0
 17 18  2  0
 17 19  1  0
 19 20  1  0
 20 21  1  0
 20 22  1  0
 20 23  1  0
 23 24  2  0
 24 25  1  0
 24 26  1  0
 26 27  1  0
 26 28  2  0
 28 29  1  0
 28 30  1  0
 30 31  1  0
 30 32  2  0
 32 33  1  0
  2 34  1  0
 34 35  2  0
 35 36  1  0
 35 37  1  0
 37 38  2  0
 38 39  1  0
 38 40  1  0
 40 41  1  0
 40 42  2  0
 42 43  1  0
 19  5  1  0
 32 23  1  0
 42 34  1  0
 16  7  1  0
M  END
>  <UniqueID>  (11) 
21

>  <SMILES>  (11) 
O=c1c2ccccc2nc(/C=C/c2cccnc2)n1Cc1ccccc1

>  <Energy>  (11) 
64.00571729435049

>  <Genealogy>  (11) 
O=c1c2ccccc2nc(/C=C/c2cccnc2)n1Cc1ccccc1 (cis-trans isomerization)
O=c1c2ccccc2nc(/C=C/c2cccnc2)n1Cc1ccccc1 (3D coordinates assigned)
O=c1c2ccccc2nc(/C=C/c2cccnc2)n1Cc1ccccc1 (optimized conformer: 64.00571729435049 kcal/mol)

>  <smiles>  (11) 
O=c1c2ccccc2nc(/C=C/c2cccnc2)n1Cc1ccccc1

>  <score_type>  (11) 
oracle

>  <origin>  (11) 
autodockgpu

>  <m_score__min__energy>  (11) 
-7.3799999999999999

>  <m_primary>  (11) 
energy

>  <meeko>  (11) 
{"free_energy": -7.17, "intermolecular_energy": -8.66, "internal_energy": -1.34, "cluster_size": 8, "cluster_id": 2, "rank_in_cluster": 2}

>  <energy>  (11) 
-7.17

>  <cluster_rmsd>  (11) 
0.08

>  <rmsd>  (11) 
269.49

>  <cluster>  (11) 
2

$$$$
GEKDQXSPTHHANP-OUKQBFOZNA-N
     RDKit          3D

 43 46  0  0  0  0  0  0  0  0999 V2000
  143.5185   75.8269  218.1512 H   0  0  0  0  0  0  0  0  0  0  0  0
  143.5340   75.4770  219.1940 C   0  0  0  0  0  0  0  0  0  0  0  0
  142.7290   76.0810  220.0750 C   0  0  0  0  0  0  0  0  0  0  0  0
  142.8967   77.1358  220.3380 H   0  0  0  0  0  0  0  0  0  0  0  0
  141.6200   75.3380  220.6930 C   0  0  0  0  0  0  0  0  0  0  0  0
  141.8050   74.0140  220.9320 N   0  0  0  0  0  0  0  0  0  0  0  0
  140.8330   73.2450  221.4740 C   0  0  0  0  0  0  0  0  0  0  0  0
  141.0670   71.8830  221.7110 C   0  0  0  0  0  0  0  0  0  0  0  0
  142.0442   71.4425  221.4639 H   0  0  0  0  0  0  0  0  0  0  0  0
  140.0600   71.0840  222.2610 C   0  0  0  0  0  0  0  0  0  0  0  0
  140.2451   70.0158  222.4474 H   0  0  0  0  0  0  0  0  0  0  0  0
  138.8170   71.6440  222.5740 C   0  0  0  0  0  0  0  0  0  0  0  0
  138.0247   71.0135  223.0038 H   0  0  0  0  0  0  0  0  0  0  0  0
  138.5770   73.0060  222.3420 C   0  0  0  0  0  0  0  0  0  0  0  0
  137.5975   73.4410  222.5899 H   0  0  0  0  0  0  0  0  0  0  0  0
  139.5880   73.8180  221.7920 C   0  0  0  0  0  0  0  0  0  0  0  0
  139.4010   75.1910  221.5410 C   0  0  0  0  0  0  0  0  0  0  0  0
  138.2880   75.7270  221.8090 O   0  0  0  0  0  0  0  0  0  0  0  0
  140.4210   75.9440  221.0030 N   0  0  0  0  0  0  0  0  0  0  0  0
  140.2180   77.3840  220.7220 C   0  0  0  0  0  0  0  0  0  0  0  0
  140.5479   77.6000  219.6951 H   0  0  0  0  0  0  0  0  0  0  0  0
  139.1495   77.6167  220.8408 H   0  0  0  0  0  0  0  0  0  0  0  0
  141.0070   78.2410  221.6850 C   0  0  0  0  0  0  0  0  0  0  0  0
  141.6940   79.3790  221.2240 C   0  0  0  0  0  0  0  0  0  0  0  0
  141.6742   79.6361  220.1547 H   0  0  0  0  0  0  0  0  0  0  0  0
  142.4020   80.1840  222.1220 C   0  0  0  0  0  0  0  0  0  0  0  0
  142.9131   81.0891  221.7620 H   0  0  0  0  0  0  0  0  0  0  0  0
  142.4620   79.8410  223.4780 C   0  0  0  0  0  0  0  0  0  0  0  0
  143.0287   80.4705  224.1798 H   0  0  0  0  0  0  0  0  0  0  0  0
  141.8010   78.6970  223.9410 C   0  0  0  0  0  0  0  0  0  0  0  0
  141.8494   78.4262  225.0060 H   0  0  0  0  0  0  0  0  0  0  0  0
  141.0800   77.9000  223.0490 C   0  0  0  0  0  0  0  0  0  0  0  0
  140.5654   76.9993  223.4149 H   0  0  0  0  0  0  0  0  0  0  0  0
  144.4460   74.3620  219.5450 C   0  0  0  0  0  0  0  0  0  0  0  0
  144.7880   73.4280  218.5560 C   0  0  0  0  0  0  0  0  0  0  0  0
  144.3922   73.5420  217.5360 H   0  0  0  0  0  0  0  0  0  0  0  0
  145.6070   72.3810  218.8510 N   0  0  0  0  0  0  0  0  0  0  0  0
  146.1210   72.2020  220.0980 C   0  0  0  0  0  0  0  0  0  0  0  0
  146.7906   71.3532  220.3009 H   0  0  0  0  0  0  0  0  0  0  0  0
  145.7980   73.0960  221.1190 C   0  0  0  0  0  0  0  0  0  0  0  0
  146.2036   72.9513  222.1312 H   0  0  0  0  0  0  0  0  0  0  0  0
  144.9550   74.1770  220.8460 C   0  0  0  0  0  0  0  0  0  0  0  0
  144.6890   74.8831  221.6464 H   0  0  0  0  0  0  0  0  0  0  0  0
  1  2  1  0
  2  3  2  0
  3  4  1  0
  3  5  1  0
  5  6  2  0
  6  7  1  0
  7  8  2  0
  8  9  1  0
  8 10  1  0
 10 11  1  0
 10 12  2  0
 12 13  1  0
 12 14  1  0
 14 15  1  0
 14 16  2  0
 16 17  1  0
 17 18  2  0
 17 19  1  0
 19 20  1  0
 20 21  1  0
 20 22  1  0
 20 23  1  0
 23 24  2  0
 24 25  1  0
 24 26  1  0
 26 27  1  0
 26 28  2  0
 28 29  1  0
 28 30  1  0
 30 31  1  0
 30 32  2  0
 32 33  1  0
  2 34  1  0
 34 35  2  0
 35 36  1  0
 35 37  1  0
 37 38  2  0
 38 39  1  0
 38 40  1  0
 40 41  1  0
 40 42  2  0
 42 43  1  0
 19  5  1  0
 32 23  1  0
 42 34  1  0
 16  7  1  0
M  END
>  <UniqueID>  (12) 
21

>  <SMILES>  (12) 
O=c1c2ccccc2nc(/C=C/c2cccnc2)n1Cc1ccccc1

>  <Energy>  (12) 
64.00571729435049

>  <Genealogy>  (12) 
O=c1c2ccccc2nc(/C=C/c2cccnc2)n1Cc1ccccc1 (cis-trans isomerization)
O=c1c2ccccc2nc(/C=C/c2cccnc2)n1Cc1ccccc1 (3D coordinates assigned)
O=c1c2ccccc2nc(/C=C/c2cccnc2)n1Cc1ccccc1 (optimized conformer: 64.00571729435049 kcal/mol)

>  <smiles>  (12) 
O=c1c2ccccc2nc(/C=C/c2cccnc2)n1Cc1ccccc1

>  <score_type>  (12) 
oracle

>  <origin>  (12) 
autodockgpu

>  <m_score__min__energy>  (12) 
-7.3799999999999999

>  <m_primary>  (12) 
energy

>  <meeko>  (12) 
{"free_energy": -7.18, "intermolecular_energy": -8.68, "internal_energy": -1.34, "cluster_size": 8, "cluster_id": 2, "rank_in_cluster": 1}

>  <energy>  (12) 
-7.17

>  <cluster_rmsd>  (12) 
0.08

>  <rmsd>  (12) 
269.49

>  <cluster>  (12) 
2

$$$$
GEKDQXSPTHHANP-OUKQBFOZNA-N
     RDKit          3D

 43 46  0  0  0  0  0  0  0  0999 V2000
  143.4988   75.9012  218.1172 H   0  0  0  0  0  0  0  0  0  0  0  0
  143.5640   75.6030  219.1740 C   0  0  0  0  0  0  0  0  0  0  0  0
  142.8640   76.3040  220.0730 C   0  0  0  0  0  0  0  0  0  0  0  0
  143.2349   77.2811  220.4160 H   0  0  0  0  0  0  0  0  0  0  0  0
  141.6000   75.7720  220.6040 C   0  0  0  0  0  0  0  0  0  0  0  0
  141.5260   74.4340  220.8310 N   0  0  0  0  0  0  0  0  0  0  0  0
  140.3960   73.8520  221.2940 C   0  0  0  0  0  0  0  0  0  0  0  0
  140.3640   72.4690  221.5220 C   0  0  0  0  0  0  0  0  0  0  0  0
  141.2600   71.8599  221.3318 H   0  0  0  0  0  0  0  0  0  0  0  0
  139.1940   71.8630  221.9910 C   0  0  0  0  0  0  0  0  0  0  0  0
  139.1703   70.7780  222.1703 H   0  0  0  0  0  0  0  0  0  0  0  0
  138.0540   72.6370  222.2320 C   0  0  0  0  0  0  0  0  0  0  0  0
  137.1337   72.1586  222.5983 H   0  0  0  0  0  0  0  0  0  0  0  0
  138.0810   74.0210  222.0080 C   0  0  0  0  0  0  0  0  0  0  0  0
  137.1818   74.6254  222.1982 H   0  0  0  0  0  0  0  0  0  0  0  0
  139.2570   74.6390  221.5400 C   0  0  0  0  0  0  0  0  0  0  0  0
  139.3390   76.0250  221.3010 C   0  0  0  0  0  0  0  0  0  0  0  0
  138.3250   76.7530  221.5050 O   0  0  0  0  0  0  0  0  0  0  0  0
  140.5120   76.5840  220.8450 N   0  0  0  0  0  0  0  0  0  0  0  0
  140.5920   78.0380  220.5760 C   0  0  0  0  0  0  0  0  0  0  0  0
  141.1704   78.2021  219.6548 H   0  0  0  0  0  0  0  0  0  0  0  0
  139.5704   78.4305  220.4648 H   0  0  0  0  0  0  0  0  0  0  0  0
  141.2650   78.7640  221.7180 C   0  0  0  0  0  0  0  0  0  0  0  0
  141.1840   78.2570  223.0280 C   0  0  0  0  0  0  0  0  0  0  0  0
  140.6113   77.3390  223.2260 H   0  0  0  0  0  0  0  0  0  0  0  0
  141.8290   78.9160  224.0790 C   0  0  0  0  0  0  0  0  0  0  0  0
  141.7881   78.4990  225.0961 H   0  0  0  0  0  0  0  0  0  0  0  0
  142.5270   80.1060  223.8390 C   0  0  0  0  0  0  0  0  0  0  0  0
  143.0238   80.6289  224.6695 H   0  0  0  0  0  0  0  0  0  0  0  0
  142.5930   80.6310  222.5420 C   0  0  0  0  0  0  0  0  0  0  0  0
  143.1402   81.5665  222.3537 H   0  0  0  0  0  0  0  0  0  0  0  0
  141.9630   79.9650  221.4880 C   0  0  0  0  0  0  0  0  0  0  0  0
  142.0126   80.3818  220.4712 H   0  0  0  0  0  0  0  0  0  0  0  0
  144.4230   74.4460  219.5240 C   0  0  0  0  0  0  0  0  0  0  0  0
  144.8440   73.5810  218.5030 C   0  0  0  0  0  0  0  0  0  0  0  0
  144.5480   73.7787  217.4622 H   0  0  0  0  0  0  0  0  0  0  0  0
  145.6170   72.4980  218.7930 N   0  0  0  0  0  0  0  0  0  0  0  0
  146.0080   72.2160  220.0650 C   0  0  0  0  0  0  0  0  0  0  0  0
  146.6439   71.3409  220.2646 H   0  0  0  0  0  0  0  0  0  0  0  0
  145.6010   73.0390  221.1170 C   0  0  0  0  0  0  0  0  0  0  0  0
  145.9058   72.8108  222.1490 H   0  0  0  0  0  0  0  0  0  0  0  0
  144.8040   74.1540  220.8490 C   0  0  0  0  0  0  0  0  0  0  0  0
  144.4736   74.8044  221.6722 H   0  0  0  0  0  0  0  0  0  0  0  0
  1  2  1  0
  2  3  2  0
  3  4  1  0
  3  5  1  0
  5  6  2  0
  6  7  1  0
  7  8  2  0
  8  9  1  0
  8 10  1  0
 10 11  1  0
 10 12  2  0
 12 13  1  0
 12 14  1  0
 14 15  1  0
 14 16  2  0
 16 17  1  0
 17 18  2  0
 17 19  1  0
 19 20  1  0
 20 21  1  0
 20 22  1  0
 20 23  1  0
 23 24  2  0
 24 25  1  0
 24 26  1  0
 26 27  1  0
 26 28  2  0
 28 29  1  0
 28 30  1  0
 30 31  1  0
 30 32  2  0
 32 33  1  0
  2 34  1  0
 34 35  2  0
 35 36  1  0
 35 37  1  0
 37 38  2  0
 38 39  1  0
 38 40  1  0
 40 41  1  0
 40 42  2  0
 42 43  1  0
 19  5  1  0
 32 23  1  0
 42 34  1  0
 16  7  1  0
M  END
>  <UniqueID>  (13) 
21

>  <SMILES>  (13) 
O=c1c2ccccc2nc(/C=C/c2cccnc2)n1Cc1ccccc1

>  <Energy>  (13) 
64.00571729435049

>  <Genealogy>  (13) 
O=c1c2ccccc2nc(/C=C/c2cccnc2)n1Cc1ccccc1 (cis-trans isomerization)
O=c1c2ccccc2nc(/C=C/c2cccnc2)n1Cc1ccccc1 (3D coordinates assigned)
O=c1c2ccccc2nc(/C=C/c2cccnc2)n1Cc1ccccc1 (optimized conformer: 64.00571729435049 kcal/mol)

>  <smiles>  (13) 
O=c1c2ccccc2nc(/C=C/c2cccnc2)n1Cc1ccccc1

>  <score_type>  (13) 
oracle

>  <origin>  (13) 
autodockgpu

>  <m_score__min__energy>  (13) 
-7.3799999999999999

>  <m_primary>  (13) 
energy

>  <meeko>  (13) 
{"free_energy": -7.06, "intermolecular_energy": -8.55, "internal_energy": -1.29, "cluster_size": 8, "cluster_id": 2, "rank_in_cluster": 7}

>  <energy>  (13) 
-7.16

>  <cluster_rmsd>  (13) 
0.06

>  <rmsd>  (13) 
269.47

>  <cluster>  (13) 
2

$$$$
GEKDQXSPTHHANP-OUKQBFOZNA-N
     RDKit          3D

 43 46  0  0  0  0  0  0  0  0999 V2000
  143.5453   75.8993  218.1010 H   0  0  0  0  0  0  0  0  0  0  0  0
  143.5360   75.5560  219.1460 C   0  0  0  0  0  0  0  0  0  0  0  0
  142.7060   76.1610  220.0030 C   0  0  0  0  0  0  0  0  0  0  0  0
  142.8358   77.2292  220.2312 H   0  0  0  0  0  0  0  0  0  0  0  0
  141.6200   75.4010  220.6410 C   0  0  0  0  0  0  0  0  0  0  0  0
  141.8210   74.0750  220.8550 N   0  0  0  0  0  0  0  0  0  0  0  0
  140.8700   73.2910  221.4130 C   0  0  0  0  0  0  0  0  0  0  0  0
  141.1200   71.9270  221.6230 C   0  0  0  0  0  0  0  0  0  0  0  0
  142.0928   71.4973  221.3418 H   0  0  0  0  0  0  0  0  0  0  0  0
  140.1350   71.1130  222.1890 C   0  0  0  0  0  0  0  0  0  0  0  0
  140.3328   70.0435  222.3538 H   0  0  0  0  0  0  0  0  0  0  0  0
  138.8970   71.6590  222.5460 C   0  0  0  0  0  0  0  0  0  0  0  0
  138.1219   71.0164  222.9891 H   0  0  0  0  0  0  0  0  0  0  0  0
  138.6410   73.0220  222.3410 C   0  0  0  0  0  0  0  0  0  0  0  0
  137.6660   73.4461  222.6231 H   0  0  0  0  0  0  0  0  0  0  0  0
  139.6310   73.8500  221.7740 C   0  0  0  0  0  0  0  0  0  0  0  0
  139.4270   75.2250  221.5490 C   0  0  0  0  0  0  0  0  0  0  0  0
  138.3180   75.7490  221.8560 O   0  0  0  0  0  0  0  0  0  0  0  0
  140.4260   75.9940  220.9940 N   0  0  0  0  0  0  0  0  0  0  0  0
  140.2050   77.4360  220.7390 C   0  0  0  0  0  0  0  0  0  0  0  0
  140.5181   77.6718  219.7112 H   0  0  0  0  0  0  0  0  0  0  0  0
  139.1361   77.6567  220.8760 H   0  0  0  0  0  0  0  0  0  0  0  0
  141.0000   78.2840  221.7050 C   0  0  0  0  0  0  0  0  0  0  0  0
  141.6770   79.4310  221.2510 C   0  0  0  0  0  0  0  0  0  0  0  0
  141.6446   79.7009  220.1851 H   0  0  0  0  0  0  0  0  0  0  0  0
  142.3910   80.2290  222.1510 C   0  0  0  0  0  0  0  0  0  0  0  0
  142.8943   81.1407  221.7968 H   0  0  0  0  0  0  0  0  0  0  0  0
  142.4660   79.8690  223.5020 C   0  0  0  0  0  0  0  0  0  0  0  0
  143.0368   80.4925  224.2059 H   0  0  0  0  0  0  0  0  0  0  0  0
  141.8150   78.7160  223.9580 C   0  0  0  0  0  0  0  0  0  0  0  0
  141.8759   78.4320  225.0190 H   0  0  0  0  0  0  0  0  0  0  0  0
  141.0880   77.9270  223.0630 C   0  0  0  0  0  0  0  0  0  0  0  0
  140.5806   77.0198  223.4229 H   0  0  0  0  0  0  0  0  0  0  0  0
  144.4440   74.4480  219.5280 C   0  0  0  0  0  0  0  0  0  0  0  0
  144.7610   73.4710  218.5720 C   0  0  0  0  0  0  0  0  0  0  0  0
  144.3485   73.5473  217.5551 H   0  0  0  0  0  0  0  0  0  0  0  0
  145.5760   72.4290  218.8950 N   0  0  0  0  0  0  0  0  0  0  0  0
  146.1100   72.2960  220.1390 C   0  0  0  0  0  0  0  0  0  0  0  0
  146.7757   71.4499  220.3650 H   0  0  0  0  0  0  0  0  0  0  0  0
  145.8120   73.2350  221.1290 C   0  0  0  0  0  0  0  0  0  0  0  0
  146.2333   73.1278  222.1395 H   0  0  0  0  0  0  0  0  0  0  0  0
  144.9750   74.3110  220.8260 C   0  0  0  0  0  0  0  0  0  0  0  0
  144.7301   75.0521  221.6011 H   0  0  0  0  0  0  0  0  0  0  0  0
  1  2  1  0
  2  3  2  0
  3  4  1  0
  3  5  1  0
  5  6  2  0
  6  7  1  0
  7  8  2  0
  8  9  1  0
  8 10  1  0
 10 11  1  0
 10 12  2  0
 12 13  1  0
 12 14  1  0
 14 15  1  0
 14 16  2  0
 16 17  1  0
 17 18  2  0
 17 19  1  0
 19 20  1  0
 20 21  1  0
 20 22  1  0
 20 23  1  0
 23 24  2  0
 24 25  1  0
 24 26  1  0
 26 27  1  0
 26 28  2  0
 28 29  1  0
 28 30  1  0
 30 31  1  0
 30 32  2  0
 32 33  1  0
  2 34  1  0
 34 35  2  0
 35 36  1  0
 35 37  1  0
 37 38  2  0
 38 39  1  0
 38 40  1  0
 40 41  1  0
 40 42  2  0
 42 43  1  0
 19  5  1  0
 32 23  1  0
 42 34  1  0
 16  7  1  0
M  END
>  <UniqueID>  (14) 
21

>  <SMILES>  (14) 
O=c1c2ccccc2nc(/C=C/c2cccnc2)n1Cc1ccccc1

>  <Energy>  (14) 
64.00571729435049

>  <Genealogy>  (14) 
O=c1c2ccccc2nc(/C=C/c2cccnc2)n1Cc1ccccc1 (cis-trans isomerization)
O=c1c2ccccc2nc(/C=C/c2cccnc2)n1Cc1ccccc1 (3D coordinates assigned)
O=c1c2ccccc2nc(/C=C/c2cccnc2)n1Cc1ccccc1 (optimized conformer: 64.00571729435049 kcal/mol)

>  <smiles>  (14) 
O=c1c2ccccc2nc(/C=C/c2cccnc2)n1Cc1ccccc1

>  <score_type>  (14) 
oracle

>  <origin>  (14) 
autodockgpu

>  <m_score__min__energy>  (14) 
-7.3799999999999999

>  <m_primary>  (14) 
energy

>  <meeko>  (14) 
{"free_energy": -7.17, "intermolecular_energy": -8.66, "internal_energy": -1.34, "cluster_size": 8, "cluster_id": 2, "rank_in_cluster": 4}

>  <energy>  (14) 
-7.06

>  <cluster_rmsd>  (14) 
0.6

>  <rmsd>  (14) 
269.5

>  <cluster>  (14) 
2

$$$$
GEKDQXSPTHHANP-OUKQBFOZNA-N
     RDKit          3D

 43 46  0  0  0  0  0  0  0  0999 V2000
  140.9811   70.5424  220.8328 H   0  0  0  0  0  0  0  0  0  0  0  0
  140.3450   71.2140  221.4280 C   0  0  0  0  0  0  0  0  0  0  0  0
  139.3300   70.6780  222.1170 C   0  0  0  0  0  0  0  0  0  0  0  0
  138.3457   70.5588  221.6406 H   0  0  0  0  0  0  0  0  0  0  0  0
  139.5280   70.2480  223.5100 C   0  0  0  0  0  0  0  0  0  0  0  0
  140.0530   71.1520  224.3790 N   0  0  0  0  0  0  0  0  0  0  0  0
  140.2930   70.8380  225.6730 C   0  0  0  0  0  0  0  0  0  0  0  0
  140.8280   71.8020  226.5400 C   0  0  0  0  0  0  0  0  0  0  0  0
  141.0439   72.8149  226.1694 H   0  0  0  0  0  0  0  0  0  0  0  0
  141.0870   71.4770  227.8740 C   0  0  0  0  0  0  0  0  0  0  0  0
  141.5062   72.2340  228.5532 H   0  0  0  0  0  0  0  0  0  0  0  0
  140.8130   70.1880  228.3460 C   0  0  0  0  0  0  0  0  0  0  0  0
  141.0198   69.9331  229.3959 H   0  0  0  0  0  0  0  0  0  0  0  0
  140.2760   69.2210  227.4850 C   0  0  0  0  0  0  0  0  0  0  0  0
  140.0634   68.2092  227.8606 H   0  0  0  0  0  0  0  0  0  0  0  0
  140.0080   69.5420  226.1400 C   0  0  0  0  0  0  0  0  0  0  0  0
  139.4660   68.6090  225.2340 C   0  0  0  0  0  0  0  0  0  0  0  0
  139.2120   67.4350  225.6280 O   0  0  0  0  0  0  0  0  0  0  0  0
  139.2210   68.9720  223.9280 N   0  0  0  0  0  0  0  0  0  0  0  0
  138.6690   67.9850  222.9710 C   0  0  0  0  0  0  0  0  0  0  0  0
  139.1444   68.1305  221.9898 H   0  0  0  0  0  0  0  0  0  0  0  0
  138.8745   66.9740  223.3526 H   0  0  0  0  0  0  0  0  0  0  0  0
  137.1730   68.1500  222.8250 C   0  0  0  0  0  0  0  0  0  0  0  0
  136.4760   67.4510  221.8220 C   0  0  0  0  0  0  0  0  0  0  0  0
  137.0239   66.7973  221.1273 H   0  0  0  0  0  0  0  0  0  0  0  0
  135.0890   67.5850  221.7060 C   0  0  0  0  0  0  0  0  0  0  0  0
  134.5441   67.0128  220.9407 H   0  0  0  0  0  0  0  0  0  0  0  0
  134.3930   68.4460  222.5620 C   0  0  0  0  0  0  0  0  0  0  0  0
  133.3035   68.5588  222.4609 H   0  0  0  0  0  0  0  0  0  0  0  0
  135.0820   69.1640  223.5470 C   0  0  0  0  0  0  0  0  0  0  0  0
  134.5345   69.8416  224.2186 H   0  0  0  0  0  0  0  0  0  0  0  0
  136.4650   69.0190  223.6760 C   0  0  0  0  0  0  0  0  0  0  0  0
  137.0044   69.5877  224.4478 H   0  0  0  0  0  0  0  0  0  0  0  0
  140.6590   72.6630  221.4230 C   0  0  0  0  0  0  0  0  0  0  0  0
  139.7370   73.5580  221.9860 C   0  0  0  0  0  0  0  0  0  0  0  0
  138.8080   73.1763  222.4347 H   0  0  0  0  0  0  0  0  0  0  0  0
  139.9860   74.8970  221.9800 N   0  0  0  0  0  0  0  0  0  0  0  0
  141.1210   75.4130  221.4360 C   0  0  0  0  0  0  0  0  0  0  0  0
  141.2984   76.4984  221.4588 H   0  0  0  0  0  0  0  0  0  0  0  0
  142.0600   74.5640  220.8490 C   0  0  0  0  0  0  0  0  0  0  0  0
  142.9749   74.9763  220.3985 H   0  0  0  0  0  0  0  0  0  0  0  0
  141.8290   73.1860  220.8380 C   0  0  0  0  0  0  0  0  0  0  0  0
  142.5608   72.5094  220.3725 H   0  0  0  0  0  0  0  0  0  0  0  0
  1  2  1  0
  2  3  2  0
  3  4  1  0
  3  5  1  0
  5  6  2  0
  6  7  1  0
  7  8  2  0
  8  9  1  0
  8 10  1  0
 10 11  1  0
 10 12  2  0
 12 13  1  0
 12 14  1  0
 14 15  1  0
 14 16  2  0
 16 17  1  0
 17 18  2  0
 17 19  1  0
 19 20  1  0
 20 21  1  0
 20 22  1  0
 20 23  1  0
 23 24  2  0
 24 25  1  0
 24 26  1  0
 26 27  1  0
 26 28  2  0
 28 29  1  0
 28 30  1  0
 30 31  1  0
 30 32  2  0
 32 33  1  0
  2 34  1  0
 34 35  2  0
 35 36  1  0
 35 37  1  0
 37 38  2  0
 38 39  1  0
 38 40  1  0
 40 41  1  0
 40 42  2  0
 42 43  1  0
 19  5  1  0
 32 23  1  0
 42 34  1  0
 16  7  1  0
M  END
>  <UniqueID>  (15) 
21

>  <SMILES>  (15) 
O=c1c2ccccc2nc(/C=C/c2cccnc2)n1Cc1ccccc1

>  <Energy>  (15) 
64.00571729435049

>  <Genealogy>  (15) 
O=c1c2ccccc2nc(/C=C/c2cccnc2)n1Cc1ccccc1 (cis-trans isomerization)
O=c1c2ccccc2nc(/C=C/c2cccnc2)n1Cc1ccccc1 (3D coordinates assigned)
O=c1c2ccccc2nc(/C=C/c2cccnc2)n1Cc1ccccc1 (optimized conformer: 64.00571729435049 kcal/mol)

>  <smiles>  (15) 
O=c1c2ccccc2nc(/C=C/c2cccnc2)n1Cc1ccccc1

>  <score_type>  (15) 
oracle

>  <origin>  (15) 
autodockgpu

>  <m_score__min__energy>  (15) 
-7.3799999999999999

>  <m_primary>  (15) 
energy

>  <meeko>  (15) 
{"free_energy": -7.37, "intermolecular_energy": -8.86, "internal_energy": -1.21, "cluster_size": 7, "cluster_id": 1, "rank_in_cluster": 2}

>  <energy>  (15) 
-6.7

>  <cluster_rmsd>  (15) 
1.22

>  <rmsd>  (15) 
269.55

>  <cluster>  (15) 
2

$$$$
GEKDQXSPTHHANP-OUKQBFOZNA-N
     RDKit          3D

 43 46  0  0  0  0  0  0  0  0999 V2000
  137.4981   71.5301  221.5886 H   0  0  0  0  0  0  0  0  0  0  0  0
  138.5350   71.7740  221.8630 C   0  0  0  0  0  0  0  0  0  0  0  0
  139.3680   70.7660  222.1460 C   0  0  0  0  0  0  0  0  0  0  0  0
  139.8951   70.2446  221.3334 H   0  0  0  0  0  0  0  0  0  0  0  0
  139.5800   70.3540  223.5420 C   0  0  0  0  0  0  0  0  0  0  0  0
  140.1710   71.2470  224.3790 N   0  0  0  0  0  0  0  0  0  0  0  0
  140.4290   70.9480  225.6730 C   0  0  0  0  0  0  0  0  0  0  0  0
  141.0340   71.9000  226.5050 C   0  0  0  0  0  0  0  0  0  0  0  0
  141.2913   72.8927  226.1070 H   0  0  0  0  0  0  0  0  0  0  0  0
  141.3110   71.5900  227.8400 C   0  0  0  0  0  0  0  0  0  0  0  0
  141.7838   72.3388  228.4925 H   0  0  0  0  0  0  0  0  0  0  0  0
  140.9860   70.3260  228.3450 C   0  0  0  0  0  0  0  0  0  0  0  0
  141.2071   70.0820  229.3945 H   0  0  0  0  0  0  0  0  0  0  0  0
  140.3800   69.3700  227.5190 C   0  0  0  0  0  0  0  0  0  0  0  0
  140.1278   68.3778  227.9213 H   0  0  0  0  0  0  0  0  0  0  0  0
  140.0930   69.6770  226.1740 C   0  0  0  0  0  0  0  0  0  0  0  0
  139.4830   68.7550  225.3020 C   0  0  0  0  0  0  0  0  0  0  0  0
  139.1810   67.6030  225.7260 O   0  0  0  0  0  0  0  0  0  0  0  0
  139.2210   69.1030  223.9950 N   0  0  0  0  0  0  0  0  0  0  0  0
  138.5960   68.1260  223.0730 C   0  0  0  0  0  0  0  0  0  0  0  0
  139.0544   68.2261  222.0781 H   0  0  0  0  0  0  0  0  0  0  0  0
  138.7585   67.1139  223.4721 H   0  0  0  0  0  0  0  0  0  0  0  0
  137.1090   68.3650  222.9580 C   0  0  0  0  0  0  0  0  0  0  0  0
  136.4630   69.2580  223.8330 C   0  0  0  0  0  0  0  0  0  0  0  0
  137.0389   69.7700  224.6180 H   0  0  0  0  0  0  0  0  0  0  0  0
  135.0910   69.4960  223.7070 C   0  0  0  0  0  0  0  0  0  0  0  0
  134.5959   70.2177  224.3733 H   0  0  0  0  0  0  0  0  0  0  0  0
  134.3460   68.8180  222.7350 C   0  0  0  0  0  0  0  0  0  0  0  0
  133.2646   68.9989  222.6462 H   0  0  0  0  0  0  0  0  0  0  0  0
  134.9760   67.9100  221.8760 C   0  0  0  0  0  0  0  0  0  0  0  0
  134.3902   67.3767  221.1128 H   0  0  0  0  0  0  0  0  0  0  0  0
  136.3490   67.6820  221.9890 C   0  0  0  0  0  0  0  0  0  0  0  0
  136.8404   66.9637  221.3163 H   0  0  0  0  0  0  0  0  0  0  0  0
  138.9330   73.2020  221.8990 C   0  0  0  0  0  0  0  0  0  0  0  0
  140.2990   73.5250  221.9180 C   0  0  0  0  0  0  0  0  0  0  0  0
  141.0511   72.7228  221.8907 H   0  0  0  0  0  0  0  0  0  0  0  0
  140.6980   74.8250  221.9700 N   0  0  0  0  0  0  0  0  0  0  0  0
  139.8030   75.8490  222.0060 C   0  0  0  0  0  0  0  0  0  0  0  0
  140.1581   76.8897  222.0366 H   0  0  0  0  0  0  0  0  0  0  0  0
  138.4340   75.5780  222.0040 C   0  0  0  0  0  0  0  0  0  0  0  0
  137.7057   76.4015  222.0407 H   0  0  0  0  0  0  0  0  0  0  0  0
  137.9960   74.2520  221.9550 C   0  0  0  0  0  0  0  0  0  0  0  0
  136.9190   74.0282  221.9602 H   0  0  0  0  0  0  0  0  0  0  0  0
  1  2  1  0
  2  3  2  0
  3  4  1  0
  3  5  1  0
  5  6  2  0
  6  7  1  0
  7  8  2  0
  8  9  1  0
  8 10  1  0
 10 11  1  0
 10 12  2  0
 12 13  1  0
 12 14  1  0
 14 15  1  0
 14 16  2  0
 16 17  1  0
 17 18  2  0
 17 19  1  0
 19 20  1  0
 20 21  1  0
 20 22  1  0
 20 23  1  0
 23 24  2  0
 24 25  1  0
 24 26  1  0
 26 27  1  0
 26 28  2  0
 28 29  1  0
 28 30  1  0
 30 31  1  0
 30 32  2  0
 32 33  1  0
  2 34  1  0
 34 35  2  0
 35 36  1  0
 35 37  1  0
 37 38  2  0
 38 39  1  0
 38 40  1  0
 40 41  1  0
 40 42  2  0
 42 43  1  0
 19  5  1  0
 32 23  1  0
 42 34  1  0
 16  7  1  0
M  END
>  <UniqueID>  (16) 
21

>  <SMILES>  (16) 
O=c1c2ccccc2nc(/C=C/c2cccnc2)n1Cc1ccccc1

>  <Energy>  (16) 
64.00571729435049

>  <Genealogy>  (16) 
O=c1c2ccccc2nc(/C=C/c2cccnc2)n1Cc1ccccc1 (cis-trans isomerization)
O=c1c2ccccc2nc(/C=C/c2cccnc2)n1Cc1ccccc1 (3D coordinates assigned)
O=c1c2ccccc2nc(/C=C/c2cccnc2)n1Cc1ccccc1 (optimized conformer: 64.00571729435049 kcal/mol)

>  <smiles>  (16) 
O=c1c2ccccc2nc(/C=C/c2cccnc2)n1Cc1ccccc1

>  <score_type>  (16) 
oracle

>  <origin>  (16) 
autodockgpu

>  <m_score__min__energy>  (16) 
-7.3799999999999999

>  <m_primary>  (16) 
energy

>  <meeko>  (16) 
{"free_energy": -7.15, "intermolecular_energy": -8.64, "internal_energy": -1.36, "cluster_size": 7, "cluster_id": 1, "rank_in_cluster": 6}

>  <energy>  (16) 
-6.89

>  <cluster_rmsd>  (16) 
0.0

>  <rmsd>  (16) 
268.99

>  <cluster>  (16) 
3

$$$$
GEKDQXSPTHHANP-OUKQBFOZNA-N
     RDKit          3D

 43 46  0  0  0  0  0  0  0  0999 V2000
  143.4910   75.7412  218.1330 H   0  0  0  0  0  0  0  0  0  0  0  0
  143.5480   75.4150  219.1820 C   0  0  0  0  0  0  0  0  0  0  0  0
  142.7670   76.0290  220.0790 C   0  0  0  0  0  0  0  0  0  0  0  0
  142.9664   77.0749  220.3553 H   0  0  0  0  0  0  0  0  0  0  0  0
  141.6430   75.3090  220.6960 C   0  0  0  0  0  0  0  0  0  0  0  0
  141.8080   73.9850  220.9510 N   0  0  0  0  0  0  0  0  0  0  0  0
  140.8200   73.2350  221.4940 C   0  0  0  0  0  0  0  0  0  0  0  0
  141.0340   71.8730  221.7490 C   0  0  0  0  0  0  0  0  0  0  0  0
  142.0073   71.4166  221.5158 H   0  0  0  0  0  0  0  0  0  0  0  0
  140.0120   71.0950  222.2990 C   0  0  0  0  0  0  0  0  0  0  0  0
  140.1808   70.0265  222.4985 H   0  0  0  0  0  0  0  0  0  0  0  0
  138.7740   71.6750  222.5960 C   0  0  0  0  0  0  0  0  0  0  0  0
  137.9702   71.0602  223.0272 H   0  0  0  0  0  0  0  0  0  0  0  0
  138.5540   73.0370  222.3460 C   0  0  0  0  0  0  0  0  0  0  0  0
  137.5784   73.4879  222.5803 H   0  0  0  0  0  0  0  0  0  0  0  0
  139.5810   73.8290  221.7950 C   0  0  0  0  0  0  0  0  0  0  0  0
  139.4150   75.2020  221.5270 C   0  0  0  0  0  0  0  0  0  0  0  0
  138.3070   75.7560  221.7790 O   0  0  0  0  0  0  0  0  0  0  0  0
  140.4500   75.9350  220.9890 N   0  0  0  0  0  0  0  0  0  0  0  0
  140.2690   77.3740  220.6890 C   0  0  0  0  0  0  0  0  0  0  0  0
  140.6221   77.5755  219.6669 H   0  0  0  0  0  0  0  0  0  0  0  0
  139.2010   77.6199  220.7835 H   0  0  0  0  0  0  0  0  0  0  0  0
  141.0480   78.2320  221.6590 C   0  0  0  0  0  0  0  0  0  0  0  0
  141.7390   79.3700  221.2050 C   0  0  0  0  0  0  0  0  0  0  0  0
  141.7292   79.6266  220.1354 H   0  0  0  0  0  0  0  0  0  0  0  0
  142.4380   80.1760  222.1080 C   0  0  0  0  0  0  0  0  0  0  0  0
  142.9513   81.0815  221.7522 H   0  0  0  0  0  0  0  0  0  0  0  0
  142.4860   79.8330  223.4640 C   0  0  0  0  0  0  0  0  0  0  0  0
  143.0457   80.4633  224.1707 H   0  0  0  0  0  0  0  0  0  0  0  0
  141.8220   78.6880  223.9220 C   0  0  0  0  0  0  0  0  0  0  0  0
  141.8613   78.4177  224.9875 H   0  0  0  0  0  0  0  0  0  0  0  0
  141.1100   77.8900  223.0240 C   0  0  0  0  0  0  0  0  0  0  0  0
  140.5940   76.9881  223.3851 H   0  0  0  0  0  0  0  0  0  0  0  0
  144.4850   74.3200  219.5250 C   0  0  0  0  0  0  0  0  0  0  0  0
  144.8220   73.3810  218.5370 C   0  0  0  0  0  0  0  0  0  0  0  0
  144.4016   73.4773  217.5251 H   0  0  0  0  0  0  0  0  0  0  0  0
  145.6660   72.3520  218.8240 N   0  0  0  0  0  0  0  0  0  0  0  0
  146.2090   72.1940  220.0610 C   0  0  0  0  0  0  0  0  0  0  0  0
  146.8972   71.3587  220.2576 H   0  0  0  0  0  0  0  0  0  0  0  0
  145.8920   73.0930  221.0810 C   0  0  0  0  0  0  0  0  0  0  0  0
  146.3211   72.9650  222.0857 H   0  0  0  0  0  0  0  0  0  0  0  0
  145.0260   74.1560  220.8160 C   0  0  0  0  0  0  0  0  0  0  0  0
  144.7660   74.8656  221.6152 H   0  0  0  0  0  0  0  0  0  0  0  0
  1  2  1  0
  2  3  2  0
  3  4  1  0
  3  5  1  0
  5  6  2  0
  6  7  1  0
  7  8  2  0
  8  9  1  0
  8 10  1  0
 10 11  1  0
 10 12  2  0
 12 13  1  0
 12 14  1  0
 14 15  1  0
 14 16  2  0
 16 17  1  0
 17 18  2  0
 17 19  1  0
 19 20  1  0
 20 21  1  0
 20 22  1  0
 20 23  1  0
 23 24  2  0
 24 25  1  0
 24 26  1  0
 26 27  1  0
 26 28  2  0
 28 29  1  0
 28 30  1  0
 30 31  1  0
 30 32  2  0
 32 33  1  0
  2 34  1  0
 34 35  2  0
 35 36  1  0
 35 37  1  0
 37 38  2  0
 38 39  1  0
 38 40  1  0
 40 41  1  0
 40 42  2  0
 42 43  1  0
 19  5  1  0
 32 23  1  0
 42 34  1  0
 16  7  1  0
M  END
>  <UniqueID>  (17) 
21

>  <SMILES>  (17) 
O=c1c2ccccc2nc(/C=C/c2cccnc2)n1Cc1ccccc1

>  <Energy>  (17) 
64.00571729435049

>  <Genealogy>  (17) 
O=c1c2ccccc2nc(/C=C/c2cccnc2)n1Cc1ccccc1 (cis-trans isomerization)
O=c1c2ccccc2nc(/C=C/c2cccnc2)n1Cc1ccccc1 (3D coordinates assigned)
O=c1c2ccccc2nc(/C=C/c2cccnc2)n1Cc1ccccc1 (optimized conformer: 64.00571729435049 kcal/mol)

>  <smiles>  (17) 
O=c1c2ccccc2nc(/C=C/c2cccnc2)n1Cc1ccccc1

>  <score_type>  (17) 
oracle

>  <origin>  (17) 
autodockgpu

>  <m_score__min__energy>  (17) 
-7.3799999999999999

>  <m_primary>  (17) 
energy

>  <meeko>  (17) 
{"free_energy": -7.16, "intermolecular_energy": -8.65, "internal_energy": -1.33, "cluster_size": 8, "cluster_id": 2, "rank_in_cluster": 6}

>  <energy>  (17) 
-6.88

>  <cluster_rmsd>  (17) 
0.33

>  <rmsd>  (17) 
269.03

>  <cluster>  (17) 
3

$$$$
GEKDQXSPTHHANP-OUKQBFOZNA-N
     RDKit          3D

 43 46  0  0  0  0  0  0  0  0999 V2000
  143.5501   75.8791  218.0870 H   0  0  0  0  0  0  0  0  0  0  0  0
  143.5400   75.5420  219.1340 C   0  0  0  0  0  0  0  0  0  0  0  0
  142.7080   76.1510  219.9860 C   0  0  0  0  0  0  0  0  0  0  0  0
  142.8340   77.2216  220.2049 H   0  0  0  0  0  0  0  0  0  0  0  0
  141.6250   75.3930  220.6310 C   0  0  0  0  0  0  0  0  0  0  0  0
  141.8250   74.0660  220.8420 N   0  0  0  0  0  0  0  0  0  0  0  0
  140.8770   73.2830  221.4060 C   0  0  0  0  0  0  0  0  0  0  0  0
  141.1260   71.9190  221.6130 C   0  0  0  0  0  0  0  0  0  0  0  0
  142.0961   71.4879  221.3250 H   0  0  0  0  0  0  0  0  0  0  0  0
  140.1430   71.1060  222.1850 C   0  0  0  0  0  0  0  0  0  0  0  0
  140.3398   70.0360  222.3472 H   0  0  0  0  0  0  0  0  0  0  0  0
  138.9090   71.6540  222.5510 C   0  0  0  0  0  0  0  0  0  0  0  0
  138.1360   71.0128  222.9996 H   0  0  0  0  0  0  0  0  0  0  0  0
  138.6540   73.0180  222.3480 C   0  0  0  0  0  0  0  0  0  0  0  0
  137.6814   73.4435  222.6361 H   0  0  0  0  0  0  0  0  0  0  0  0
  139.6410   73.8440  221.7760 C   0  0  0  0  0  0  0  0  0  0  0  0
  139.4380   75.2200  221.5540 C   0  0  0  0  0  0  0  0  0  0  0  0
  138.3320   75.7450  221.8690 O   0  0  0  0  0  0  0  0  0  0  0  0
  140.4350   75.9870  220.9920 N   0  0  0  0  0  0  0  0  0  0  0  0
  140.2150   77.4300  220.7410 C   0  0  0  0  0  0  0  0  0  0  0  0
  140.5260   77.6676  219.7130 H   0  0  0  0  0  0  0  0  0  0  0  0
  139.1466   77.6509  220.8817 H   0  0  0  0  0  0  0  0  0  0  0  0
  141.0120   78.2760  221.7060 C   0  0  0  0  0  0  0  0  0  0  0  0
  141.7090   79.4100  221.2490 C   0  0  0  0  0  0  0  0  0  0  0  0
  141.6904   79.6710  220.1806 H   0  0  0  0  0  0  0  0  0  0  0  0
  142.4250   80.2060  222.1480 C   0  0  0  0  0  0  0  0  0  0  0  0
  142.9428   81.1084  221.7908 H   0  0  0  0  0  0  0  0  0  0  0  0
  142.4840   79.8560  223.5030 C   0  0  0  0  0  0  0  0  0  0  0  0
  143.0577   80.4770  224.2068 H   0  0  0  0  0  0  0  0  0  0  0  0
  141.8130   78.7160  223.9620 C   0  0  0  0  0  0  0  0  0  0  0  0
  141.8601   78.4406  225.0259 H   0  0  0  0  0  0  0  0  0  0  0  0
  141.0840   77.9290  223.0680 C   0  0  0  0  0  0  0  0  0  0  0  0
  140.5622   77.0313  223.4310 H   0  0  0  0  0  0  0  0  0  0  0  0
  144.4490   74.4380  219.5230 C   0  0  0  0  0  0  0  0  0  0  0  0
  144.7670   73.4540  218.5740 C   0  0  0  0  0  0  0  0  0  0  0  0
  144.3539   73.5222  217.5568 H   0  0  0  0  0  0  0  0  0  0  0  0
  145.5830   72.4160  218.9040 N   0  0  0  0  0  0  0  0  0  0  0  0
  146.1170   72.2920  220.1490 C   0  0  0  0  0  0  0  0  0  0  0  0
  146.7835   71.4482  220.3808 H   0  0  0  0  0  0  0  0  0  0  0  0
  145.8180   73.2370  221.1320 C   0  0  0  0  0  0  0  0  0  0  0  0
  146.2394   73.1371  222.1432 H   0  0  0  0  0  0  0  0  0  0  0  0
  144.9800   74.3100  220.8220 C   0  0  0  0  0  0  0  0  0  0  0  0
  144.7342   75.0558  221.5923 H   0  0  0  0  0  0  0  0  0  0  0  0
  1  2  1  0
  2  3  2  0
  3  4  1  0
  3  5  1  0
  5  6  2  0
  6  7  1  0
  7  8  2  0
  8  9  1  0
  8 10  1  0
 10 11  1  0
 10 12  2  0
 12 13  1  0
 12 14  1  0
 14 15  1  0
 14 16  2  0
 16 17  1  0
 17 18  2  0
 17 19  1  0
 19 20  1  0
 20 21  1  0
 20 22  1  0
 20 23  1  0
 23 24  2  0
 24 25  1  0
 24 26  1  0
 26 27  1  0
 26 28  2  0
 28 29  1  0
 28 30  1  0
 30 31  1  0
 30 32  2  0
 32 33  1  0
  2 34  1  0
 34 35  2  0
 35 36  1  0
 35 37  1  0
 37 38  2  0
 38 39  1  0
 38 40  1  0
 40 41  1  0
 40 42  2  0
 42 43  1  0
 19  5  1  0
 32 23  1  0
 42 34  1  0
 16  7  1  0
M  END
>  <UniqueID>  (18) 
21

>  <SMILES>  (18) 
O=c1c2ccccc2nc(/C=C/c2cccnc2)n1Cc1ccccc1

>  <Energy>  (18) 
64.00571729435049

>  <Genealogy>  (18) 
O=c1c2ccccc2nc(/C=C/c2cccnc2)n1Cc1ccccc1 (cis-trans isomerization)
O=c1c2ccccc2nc(/C=C/c2cccnc2)n1Cc1ccccc1 (3D coordinates assigned)
O=c1c2ccccc2nc(/C=C/c2cccnc2)n1Cc1ccccc1 (optimized conformer: 64.00571729435049 kcal/mol)

>  <smiles>  (18) 
O=c1c2ccccc2nc(/C=C/c2cccnc2)n1Cc1ccccc1

>  <score_type>  (18) 
oracle

>  <origin>  (18) 
autodockgpu

>  <m_score__min__energy>  (18) 
-7.3799999999999999

>  <m_primary>  (18) 
energy

>  <meeko>  (18) 
{"free_energy": -7.17, "intermolecular_energy": -8.66, "internal_energy": -1.35, "cluster_size": 8, "cluster_id": 2, "rank_in_cluster": 5}

>  <energy>  (18) 
-6.88

>  <cluster_rmsd>  (18) 
0.29

>  <rmsd>  (18) 
269.01

>  <cluster>  (18) 
3

$$$$
GEKDQXSPTHHANP-OUKQBFOZNA-N
     RDKit          3D

 43 46  0  0  0  0  0  0  0  0999 V2000
  143.5796   75.8870  218.0881 H   0  0  0  0  0  0  0  0  0  0  0  0
  143.5560   75.5410  219.1320 C   0  0  0  0  0  0  0  0  0  0  0  0
  142.7190   76.1490  219.9810 C   0  0  0  0  0  0  0  0  0  0  0  0
  142.8400   77.2206  220.1980 H   0  0  0  0  0  0  0  0  0  0  0  0
  141.6370   75.3870  220.6250 C   0  0  0  0  0  0  0  0  0  0  0  0
  141.8410   74.0600  220.8340 N   0  0  0  0  0  0  0  0  0  0  0  0
  140.8930   73.2750  221.3970 C   0  0  0  0  0  0  0  0  0  0  0  0
  141.1450   71.9110  221.6020 C   0  0  0  0  0  0  0  0  0  0  0  0
  142.1156   71.4819  221.3124 H   0  0  0  0  0  0  0  0  0  0  0  0
  140.1640   71.0960  222.1740 C   0  0  0  0  0  0  0  0  0  0  0  0
  140.3639   70.0267  222.3371 H   0  0  0  0  0  0  0  0  0  0  0  0
  138.9280   71.6400  222.5390 C   0  0  0  0  0  0  0  0  0  0  0  0
  138.1555   70.9962  222.9849 H   0  0  0  0  0  0  0  0  0  0  0  0
  138.6710   73.0040  222.3380 C   0  0  0  0  0  0  0  0  0  0  0  0
  137.6977   73.4274  222.6270 H   0  0  0  0  0  0  0  0  0  0  0  0
  139.6560   73.8330  221.7670 C   0  0  0  0  0  0  0  0  0  0  0  0
  139.4500   75.2090  221.5460 C   0  0  0  0  0  0  0  0  0  0  0  0
  138.3430   75.7310  221.8610 O   0  0  0  0  0  0  0  0  0  0  0  0
  140.4460   75.9790  220.9860 N   0  0  0  0  0  0  0  0  0  0  0  0
  140.2230   77.4210  220.7360 C   0  0  0  0  0  0  0  0  0  0  0  0
  140.5338   77.6600  219.7082 H   0  0  0  0  0  0  0  0  0  0  0  0
  139.1541   77.6395  220.8764 H   0  0  0  0  0  0  0  0  0  0  0  0
  141.0180   78.2680  221.7020 C   0  0  0  0  0  0  0  0  0  0  0  0
  141.7160   79.4010  221.2460 C   0  0  0  0  0  0  0  0  0  0  0  0
  141.7000   79.6610  220.1773 H   0  0  0  0  0  0  0  0  0  0  0  0
  142.4300   80.1980  222.1460 C   0  0  0  0  0  0  0  0  0  0  0  0
  142.9486   81.1000  221.7889 H   0  0  0  0  0  0  0  0  0  0  0  0
  142.4860   79.8500  223.5010 C   0  0  0  0  0  0  0  0  0  0  0  0
  143.0579   80.4720  224.2053 H   0  0  0  0  0  0  0  0  0  0  0  0
  141.8140   78.7100  223.9600 C   0  0  0  0  0  0  0  0  0  0  0  0
  141.8588   78.4356  225.0243 H   0  0  0  0  0  0  0  0  0  0  0  0
  141.0870   77.9220  223.0650 C   0  0  0  0  0  0  0  0  0  0  0  0
  140.5645   77.0245  223.4276 H   0  0  0  0  0  0  0  0  0  0  0  0
  144.4530   74.4270  219.5210 C   0  0  0  0  0  0  0  0  0  0  0  0
  144.7730   73.4490  218.5660 C   0  0  0  0  0  0  0  0  0  0  0  0
  144.3709   73.5292  217.5452 H   0  0  0  0  0  0  0  0  0  0  0  0
  145.5780   72.4020  218.8960 N   0  0  0  0  0  0  0  0  0  0  0  0
  146.0990   72.2640  220.1450 C   0  0  0  0  0  0  0  0  0  0  0  0
  146.7569   71.4132  220.3762 H   0  0  0  0  0  0  0  0  0  0  0  0
  145.7980   73.2030  221.1330 C   0  0  0  0  0  0  0  0  0  0  0  0
  146.2096   73.0919  222.1470 H   0  0  0  0  0  0  0  0  0  0  0  0
  144.9700   74.2850  220.8240 C   0  0  0  0  0  0  0  0  0  0  0  0
  144.7217   75.0261  221.5980 H   0  0  0  0  0  0  0  0  0  0  0  0
  1  2  1  0
  2  3  2  0
  3  4  1  0
  3  5  1  0
  5  6  2  0
  6  7  1  0
  7  8  2  0
  8  9  1  0
  8 10  1  0
 10 11  1  0
 10 12  2  0
 12 13  1  0
 12 14  1  0
 14 15  1  0
 14 16  2  0
 16 17  1  0
 17 18  2  0
 17 19  1  0
 19 20  1  0
 20 21  1  0
 20 22  1  0
 20 23  1  0
 23 24  2  0
 24 25  1  0
 24 26  1  0
 26 27  1  0
 26 28  2  0
 28 29  1  0
 28 30  1  0
 30 31  1  0
 30 32  2  0
 32 33  1  0
  2 34  1  0
 34 35  2  0
 35 36  1  0
 35 37  1  0
 37 38  2  0
 38 39  1  0
 38 40  1  0
 40 41  1  0
 40 42  2  0
 42 43  1  0
 19  5  1  0
 32 23  1  0
 42 34  1  0
 16  7  1  0
M  END
>  <UniqueID>  (19) 
21

>  <SMILES>  (19) 
O=c1c2ccccc2nc(/C=C/c2cccnc2)n1Cc1ccccc1

>  <Energy>  (19) 
64.00571729435049

>  <Genealogy>  (19) 
O=c1c2ccccc2nc(/C=C/c2cccnc2)n1Cc1ccccc1 (cis-trans isomerization)
O=c1c2ccccc2nc(/C=C/c2cccnc2)n1Cc1ccccc1 (3D coordinates assigned)
O=c1c2ccccc2nc(/C=C/c2cccnc2)n1Cc1ccccc1 (optimized conformer: 64.00571729435049 kcal/mol)

>  <smiles>  (19) 
O=c1c2ccccc2nc(/C=C/c2cccnc2)n1Cc1ccccc1

>  <score_type>  (19) 
oracle

>  <origin>  (19) 
autodockgpu

>  <m_score__min__energy>  (19) 
-7.3799999999999999

>  <m_primary>  (19) 
energy

>  <meeko>  (19) 
{"free_energy": -7.17, "intermolecular_energy": -8.66, "internal_energy": -1.35, "cluster_size": 8, "cluster_id": 2, "rank_in_cluster": 3}

>  <energy>  (19) 
-6.64

>  <cluster_rmsd>  (19) 
1.46

>  <rmsd>  (19) 
268.95

>  <cluster>  (19) 
3

$$$$
GEKDQXSPTHHANP-OUKQBFOZNA-N
     RDKit          3D

 43 46  0  0  0  0  0  0  0  0999 V2000
  135.2254   68.5267  222.3273 H   0  0  0  0  0  0  0  0  0  0  0  0
  135.8900   68.7780  223.1670 C   0  0  0  0  0  0  0  0  0  0  0  0
  137.1960   68.5180  223.0390 C   0  0  0  0  0  0  0  0  0  0  0  0
  137.5556   67.9179  222.1902 H   0  0  0  0  0  0  0  0  0  0  0  0
  138.1520   69.0330  224.0310 C   0  0  0  0  0  0  0  0  0  0  0  0
  138.4880   68.2160  225.0640 N   0  0  0  0  0  0  0  0  0  0  0  0
  139.3400   68.6120  226.0370 C   0  0  0  0  0  0  0  0  0  0  0  0
  139.6660   67.7370  227.0820 C   0  0  0  0  0  0  0  0  0  0  0  0
  139.2350   66.7252  227.1058 H   0  0  0  0  0  0  0  0  0  0  0  0
  140.5380   68.1480  228.0940 C   0  0  0  0  0  0  0  0  0  0  0  0
  140.7935   67.4593  228.9128 H   0  0  0  0  0  0  0  0  0  0  0  0
  141.0860   69.4350  228.0660 C   0  0  0  0  0  0  0  0  0  0  0  0
  141.7702   69.7575  228.8646 H   0  0  0  0  0  0  0  0  0  0  0  0
  140.7650   70.3150  227.0220 C   0  0  0  0  0  0  0  0  0  0  0  0
  141.1972   71.3264  227.0042 H   0  0  0  0  0  0  0  0  0  0  0  0
  139.8900   69.9060  225.9960 C   0  0  0  0  0  0  0  0  0  0  0  0
  139.5380   70.7490  224.9240 C   0  0  0  0  0  0  0  0  0  0  0  0
  140.0120   71.9200  224.8710 O   0  0  0  0  0  0  0  0  0  0  0  0
  138.6800   70.3030  223.9430 N   0  0  0  0  0  0  0  0  0  0  0  0
  138.2940   71.1960  222.8260 C   0  0  0  0  0  0  0  0  0  0  0  0
  137.7832   70.6040  222.0523 H   0  0  0  0  0  0  0  0  0  0  0  0
  137.6260   71.9775  223.2171 H   0  0  0  0  0  0  0  0  0  0  0  0
  139.5080   71.8600  222.2190 C   0  0  0  0  0  0  0  0  0  0  0  0
  139.5850   73.2630  222.1380 C   0  0  0  0  0  0  0  0  0  0  0  0
  138.7493   73.8798  222.5001 H   0  0  0  0  0  0  0  0  0  0  0  0
  140.7200   73.8750  221.5990 C   0  0  0  0  0  0  0  0  0  0  0  0
  140.7875   74.9724  221.5645 H   0  0  0  0  0  0  0  0  0  0  0  0
  141.7710   73.0950  221.1030 C   0  0  0  0  0  0  0  0  0  0  0  0
  142.6585   73.5796  220.6699 H   0  0  0  0  0  0  0  0  0  0  0  0
  141.6930   71.6970  221.1580 C   0  0  0  0  0  0  0  0  0  0  0  0
  142.5180   71.0834  220.7671 H   0  0  0  0  0  0  0  0  0  0  0  0
  140.5660   71.0840  221.7100 C   0  0  0  0  0  0  0  0  0  0  0  0
  140.5048   69.9863  221.7472 H   0  0  0  0  0  0  0  0  0  0  0  0
  135.2890   69.3860  224.3780 C   0  0  0  0  0  0  0  0  0  0  0  0
  134.6840   68.5490  225.3280 C   0  0  0  0  0  0  0  0  0  0  0  0
  134.6767   67.4602  225.1718 H   0  0  0  0  0  0  0  0  0  0  0  0
  134.1060   69.0770  226.4420 N   0  0  0  0  0  0  0  0  0  0  0  0
  134.0920   70.4160  226.6760 C   0  0  0  0  0  0  0  0  0  0  0  0
  133.6283   70.8096  227.5926 H   0  0  0  0  0  0  0  0  0  0  0  0
  134.6660   71.2910  225.7530 C   0  0  0  0  0  0  0  0  0  0  0  0
  134.6487   72.3761  225.9323 H   0  0  0  0  0  0  0  0  0  0  0  0
  135.2630   70.7770  224.5990 C   0  0  0  0  0  0  0  0  0  0  0  0
  135.7130   71.4590  223.8626 H   0  0  0  0  0  0  0  0  0  0  0  0
  1  2  1  0
  2  3  2  0
  3  4  1  0
  3  5  1  0
  5  6  2  0
  6  7  1  0
  7  8  2  0
  8  9  1  0
  8 10  1  0
 10 11  1  0
 10 12  2  0
 12 13  1  0
 12 14  1  0
 14 15  1  0
 14 16  2  0
 16 17  1  0
 17 18  2  0
 17 19  1  0
 19 20  1  0
 20 21  1  0
 20 22  1  0
 20 23  1  0
 23 24  2  0
 24 25  1  0
 24 26  1  0
 26 27  1  0
 26 28  2  0
 28 29  1  0
 28 30  1  0
 30 31  1  0
 30 32  2  0
 32 33  1  0
  2 34  1  0
 34 35  2  0
 35 36  1  0
 35 37  1  0
 37 38  2  0
 38 39  1  0
 38 40  1  0
 40 41  1  0
 40 42  2  0
 42 43  1  0
 19  5  1  0
 32 23  1  0
 42 34  1  0
 16  7  1  0
M  END
>  <UniqueID>  (20) 
21

>  <SMILES>  (20) 
O=c1c2ccccc2nc(/C=C/c2cccnc2)n1Cc1ccccc1

>  <Energy>  (20) 
64.00571729435049

>  <Genealogy>  (20) 
O=c1c2ccccc2nc(/C=C/c2cccnc2)n1Cc1ccccc1 (cis-trans isomerization)
O=c1c2ccccc2nc(/C=C/c2cccnc2)n1Cc1ccccc1 (3D coordinates assigned)
O=c1c2ccccc2nc(/C=C/c2cccnc2)n1Cc1ccccc1 (optimized conformer: 64.00571729435049 kcal/mol)

>  <smiles>  (20) 
O=c1c2ccccc2nc(/C=C/c2cccnc2)n1Cc1ccccc1

>  <score_type>  (20) 
oracle

>  <origin>  (20) 
autodockgpu

>  <m_score__min__energy>  (20) 
-7.3799999999999999

>  <m_primary>  (20) 
energy

>  <meeko>  (20) 
{"free_energy": -6.88, "intermolecular_energy": -8.37, "internal_energy": -1.42, "cluster_size": 4, "cluster_id": 3, "rank_in_cluster": 3}

>  <energy>  (20) 
-6.29

>  <cluster_rmsd>  (20) 
0.0

>  <rmsd>  (20) 
269.99

>  <cluster>  (20) 
4

$$$$
