NQSIIFRRCFYKTO-OOGIUIOONA-M
     RDKit          3D

 60 64  0  0  0  0  0  0  0  0999 V2000
  138.6970   72.6000  222.1130 C   0  0  0  0  0  0  0  0  0  0  0  0
  139.7720   72.9420  221.1580 N   0  0  0  0  0  0  0  0  0  0  0  0
  139.4630   74.2210  220.4820 C   0  0  0  0  0  0  0  0  0  0  0  0
  140.5300   74.5240  219.4180 C   0  0  0  0  0  0  0  0  0  0  0  0
  141.8720   74.4670  220.0120 N   0  0  0  0  0  0  0  0  0  0  0  0
  142.9670   75.1310  219.3300 C   0  0  0  0  0  0  0  0  0  0  0  0
  144.1170   74.6170  219.3260 O   0  0  0  0  0  0  0  0  0  0  0  0
  142.7760   76.4290  218.6560 C   0  0  0  0  0  0  0  0  0  0  0  0
  142.9920   76.5390  217.2720 C   0  0  0  0  0  0  0  0  0  0  0  0
  142.8570   77.7760  216.6330 C   0  0  0  0  0  0  0  0  0  0  0  0
  142.5380   78.9160  217.3770 C   0  0  0  0  0  0  0  0  0  0  0  0
  142.3370   78.8270  218.7700 C   0  0  0  0  0  0  0  0  0  0  0  0
  142.1110   80.0430  219.5950 C   0  0  0  0  0  0  0  0  0  0  0  0
  142.2210   79.9200  221.0170 N   0  0  0  0  0  0  0  0  0  0  0  0
  141.1170   80.1710  221.8910 C   0  0  0  0  0  0  0  0  0  0  0  0
  140.8310   79.2380  222.8970 C   0  0  0  0  0  0  0  0  0  0  0  0
  139.8180   79.4810  223.8250 C   0  0  0  0  0  0  0  0  0  0  0  0
  139.0950   80.6730  223.7770 C   0  0  0  0  0  0  0  0  0  0  0  0
  138.0800   80.9480  224.7600 C   0  0  0  0  0  0  0  0  0  0  0  0
  137.2290   81.1870  225.5810 C   0  0  0  0  0  0  0  0  0  0  0  0
  136.2180   81.4650  226.5650 C   0  0  0  0  0  0  0  0  0  0  0  0
  134.8740   81.5710  226.1780 C   0  0  0  0  0  0  0  0  0  0  0  0
  133.8930   81.8470  227.1370 C   0  0  0  0  0  0  0  0  0  0  0  0
  134.2520   82.0310  228.4750 C   0  0  0  0  0  0  0  0  0  0  0  0
  135.5920   81.9290  228.8610 C   0  0  0  0  0  0  0  0  0  0  0  0
  136.5740   81.6440  227.9080 C   0  0  0  0  0  0  0  0  0  0  0  0
  139.3850   81.6160  222.7870 C   0  0  0  0  0  0  0  0  0  0  0  0
  140.3790   81.3690  221.8300 C   0  0  0  0  0  0  0  0  0  0  0  0
  140.6790   82.4140  220.9010 N   0  0  0  0  0  0  0  0  0  0  0  0
  141.0760   82.3110  219.5310 C   0  0  0  0  0  0  0  0  0  0  0  0
  140.6080   83.1450  218.7150 O   0  0  0  0  0  0  0  0  0  0  0  0
  141.9260   81.2310  219.0030 C   0  0  0  0  0  0  0  0  0  0  0  0
  142.4500   77.5730  219.4030 C   0  0  0  0  0  0  0  0  0  0  0  0
  142.1910   73.3230  220.8810 C   0  0  0  0  0  0  0  0  0  0  0  0
  141.0580   73.0570  221.8710 C   0  0  0  0  0  0  0  0  0  0  0  0
  139.0689   72.7183  223.1415 H   0  0  0  0  0  0  0  0  0  0  0  0
  137.8388   73.2695  221.9542 H   0  0  0  0  0  0  0  0  0  0  0  0
  138.3833   71.5577  221.9542 H   0  0  0  0  0  0  0  0  0  0  0  0
  138.4772   74.1491  219.9992 H   0  0  0  0  0  0  0  0  0  0  0  0
  139.4553   75.0306  221.2267 H   0  0  0  0  0  0  0  0  0  0  0  0
  140.4586   73.7806  218.6104 H   0  0  0  0  0  0  0  0  0  0  0  0
  140.3587   75.5337  219.0166 H   0  0  0  0  0  0  0  0  0  0  0  0
  143.2685   75.6485  216.6884 H   0  0  0  0  0  0  0  0  0  0  0  0
  143.0018   77.8519  215.5452 H   0  0  0  0  0  0  0  0  0  0  0  0
  142.4432   79.8888  216.8724 H   0  0  0  0  0  0  0  0  0  0  0  0
  142.9680   79.2790  221.3720 H   0  0  0  0  0  0  0  0  0  0  0  0
  141.4109   78.3051  222.9554 H   0  0  0  0  0  0  0  0  0  0  0  0
  139.5889   78.7309  224.5963 H   0  0  0  0  0  0  0  0  0  0  0  0
  134.5918   81.4375  225.1232 H   0  0  0  0  0  0  0  0  0  0  0  0
  132.8372   81.9193  226.8371 H   0  0  0  0  0  0  0  0  0  0  0  0
  133.4797   82.2563  229.2252 H   0  0  0  0  0  0  0  0  0  0  0  0
  135.8734   82.0730  229.9146 H   0  0  0  0  0  0  0  0  0  0  0  0
  137.6276   81.5602  228.2129 H   0  0  0  0  0  0  0  0  0  0  0  0
  138.8266   82.5633  222.7585 H   0  0  0  0  0  0  0  0  0  0  0  0
  142.4480   81.4127  218.0520 H   0  0  0  0  0  0  0  0  0  0  0  0
  142.2821   77.4897  220.4869 H   0  0  0  0  0  0  0  0  0  0  0  0
  142.3423   72.4290  220.2582 H   0  0  0  0  0  0  0  0  0  0  0  0
  143.1047   73.5562  221.4473 H   0  0  0  0  0  0  0  0  0  0  0  0
  141.2594   72.1193  222.4097 H   0  0  0  0  0  0  0  0  0  0  0  0
  140.9996   73.8946  222.5816 H   0  0  0  0  0  0  0  0  0  0  0  0
  1  2  1  0
  2  3  1  0
  3  4  1  0
  4  5  1  0
  5  6  1  0
  6  7  2  0
  6  8  1  0
  8  9  2  0
  9 10  1  0
 10 11  2  0
 11 12  1  0
 12 13  1  0
 13 14  1  0
 14 15  1  0
 15 16  2  0
 16 17  1  0
 17 18  2  0
 18 19  1  0
 19 20  3  0
 20 21  1  0
 21 22  2  0
 22 23  1  0
 23 24  2  0
 24 25  1  0
 25 26  2  0
 18 27  1  0
 27 28  2  0
 28 29  1  0
 29 30  1  0
 30 31  2  0
 30 32  1  0
 12 33  2  0
  5 34  1  0
 34 35  1  0
 35  2  1  0
 33  8  1  0
 32 13  2  0
 28 15  1  0
 26 21  1  0
  1 36  1  0
  1 37  1  0
  1 38  1  0
  3 39  1  0
  3 40  1  0
  4 41  1  0
  4 42  1  0
  9 43  1  0
 10 44  1  0
 11 45  1  0
 14 46  1  0
 16 47  1  0
 17 48  1  0
 22 49  1  0
 23 50  1  0
 24 51  1  0
 25 52  1  0
 26 53  1  0
 27 54  1  0
 32 55  1  0
 33 56  1  0
 34 57  1  0
 34 58  1  0
 35 59  1  0
 35 60  1  0
M  CHG  1  29  -1
M  END
>  <UniqueID>  (1) 
35

>  <SMILES>  (1) 
CN1CCN(C(=O)c2cccc(C3=CC(=O)[N-]c4cc(C#Cc5ccccc5)ccc4N3)c2)CC1

>  <Energy>  (1) 
87.41025854903613

>  <Genealogy>  (1) 
CN1CCN(C(=O)c2cccc(C3=Nc4ccc(C#Cc5ccccc5)cc4[N-]C(=O)C3)c2)CC1 (protonated)
CN1CCN(C(=O)c2cccc(C3=CC(=O)[N-]c4cc(C#Cc5ccccc5)ccc4N3)c2)CC1 (tautomer)
CN1CCN(C(=O)c2cccc(C3=CC(=O)[N-]c4cc(C#Cc5ccccc5)ccc4N3)c2)CC1 (3D coordinates assigned)
CN1CCN(C(=O)c2cccc(C3=CC(=O)[N-]c4cc(C#Cc5ccccc5)ccc4N3)c2)CC1 (nonaromatic ring conformer: 87.41025854903613 kcal/mol)

>  <smiles>  (1) 
CN1CCN(C(=O)c2cccc(C3=Nc4ccc(C#Cc5ccccc5)cc4NC(=O)C3)c2)CC1

>  <score_type>  (1) 
oracle

>  <origin>  (1) 
autodockgpu

>  <m_score__min__energy>  (1) 
-6.1799999999999997

>  <m_primary>  (1) 
energy

>  <meeko>  (1) 
{"free_energy": -5.59, "intermolecular_energy": -8.57, "internal_energy": -1.35, "cluster_size": 4, "cluster_id": 2, "rank_in_cluster": 1}

>  <energy>  (1) 
-6.18

>  <cluster_rmsd>  (1) 
0.0

>  <rmsd>  (1) 
269.71

>  <cluster>  (1) 
1

$$$$
NQSIIFRRCFYKTO-OOGIUIOONA-M
     RDKit          3D

 60 64  0  0  0  0  0  0  0  0999 V2000
  141.6060   81.0980  223.9170 C   0  0  0  0  0  0  0  0  0  0  0  0
  141.2490   81.3620  222.5070 N   0  0  0  0  0  0  0  0  0  0  0  0
  142.0380   80.4900  221.6100 C   0  0  0  0  0  0  0  0  0  0  0  0
  141.7390   80.8360  220.1430 C   0  0  0  0  0  0  0  0  0  0  0  0
  140.2920   80.7990  219.8960 N   0  0  0  0  0  0  0  0  0  0  0  0
  139.8200   80.6600  218.5310 C   0  0  0  0  0  0  0  0  0  0  0  0
  138.7840   81.2690  218.1520 O   0  0  0  0  0  0  0  0  0  0  0  0
  140.5120   79.7850  217.5660 C   0  0  0  0  0  0  0  0  0  0  0  0
  140.1730   79.8360  216.2040 C   0  0  0  0  0  0  0  0  0  0  0  0
  140.7920   78.9780  215.2890 C   0  0  0  0  0  0  0  0  0  0  0  0
  141.7300   78.0410  215.7340 C   0  0  0  0  0  0  0  0  0  0  0  0
  142.0670   77.9630  217.1020 C   0  0  0  0  0  0  0  0  0  0  0  0
  142.9740   76.9000  217.6100 C   0  0  0  0  0  0  0  0  0  0  0  0
  143.2030   76.8320  219.0220 N   0  0  0  0  0  0  0  0  0  0  0  0
  142.6340   75.8030  219.8380 C   0  0  0  0  0  0  0  0  0  0  0  0
  141.8190   76.1740  220.9160 C   0  0  0  0  0  0  0  0  0  0  0  0
  141.1750   75.2050  221.6860 C   0  0  0  0  0  0  0  0  0  0  0  0
  141.3160   73.8530  221.3720 C   0  0  0  0  0  0  0  0  0  0  0  0
  140.6170   72.8530  222.1360 C   0  0  0  0  0  0  0  0  0  0  0  0
  140.0290   72.0210  222.7820 C   0  0  0  0  0  0  0  0  0  0  0  0
  139.3350   71.0290  223.5580 C   0  0  0  0  0  0  0  0  0  0  0  0
  138.0180   70.6770  223.2290 C   0  0  0  0  0  0  0  0  0  0  0  0
  137.3430   69.7150  223.9890 C   0  0  0  0  0  0  0  0  0  0  0  0
  137.9740   69.1170  225.0830 C   0  0  0  0  0  0  0  0  0  0  0  0
  139.2860   69.4690  225.4140 C   0  0  0  0  0  0  0  0  0  0  0  0
  139.9670   70.4230  224.6520 C   0  0  0  0  0  0  0  0  0  0  0  0
  142.1140   73.4750  220.2890 C   0  0  0  0  0  0  0  0  0  0  0  0
  142.7910   74.4380  219.5280 C   0  0  0  0  0  0  0  0  0  0  0  0
  143.5200   73.9860  218.3830 N   0  0  0  0  0  0  0  0  0  0  0  0
  143.5490   74.5340  217.0620 C   0  0  0  0  0  0  0  0  0  0  0  0
  143.7370   73.7470  216.0990 O   0  0  0  0  0  0  0  0  0  0  0  0
  143.4620   75.9740  216.7710 C   0  0  0  0  0  0  0  0  0  0  0  0
  141.4580   78.8480  218.0130 C   0  0  0  0  0  0  0  0  0  0  0  0
  139.4120   81.4680  220.8670 C   0  0  0  0  0  0  0  0  0  0  0  0
  139.8090   81.1130  222.2990 C   0  0  0  0  0  0  0  0  0  0  0  0
  140.8992   81.6207  224.5782 H   0  0  0  0  0  0  0  0  0  0  0  0
  141.5582   80.0163  224.1110 H   0  0  0  0  0  0  0  0  0  0  0  0
  142.6262   81.4606  224.1110 H   0  0  0  0  0  0  0  0  0  0  0  0
  143.1098   80.6385  221.8080 H   0  0  0  0  0  0  0  0  0  0  0  0
  141.7658   79.4405  221.7959 H   0  0  0  0  0  0  0  0  0  0  0  0
  142.1191   81.8446  219.9232 H   0  0  0  0  0  0  0  0  0  0  0  0
  142.2321   80.0979  219.4934 H   0  0  0  0  0  0  0  0  0  0  0  0
  139.4167   80.5545  215.8550 H   0  0  0  0  0  0  0  0  0  0  0  0
  140.5411   79.0402  214.2198 H   0  0  0  0  0  0  0  0  0  0  0  0
  142.2078   77.3609  215.0134 H   0  0  0  0  0  0  0  0  0  0  0  0
  144.0800   77.2810  219.3730 H   0  0  0  0  0  0  0  0  0  0  0  0
  141.6858   77.2389  221.1573 H   0  0  0  0  0  0  0  0  0  0  0  0
  140.5547   75.5077  222.5425 H   0  0  0  0  0  0  0  0  0  0  0  0
  137.5165   71.1561  222.3752 H   0  0  0  0  0  0  0  0  0  0  0  0
  136.3142   69.4292  223.7247 H   0  0  0  0  0  0  0  0  0  0  0  0
  137.4378   68.3683  225.6846 H   0  0  0  0  0  0  0  0  0  0  0  0
  139.7823   68.9954  226.2739 H   0  0  0  0  0  0  0  0  0  0  0  0
  140.9999   70.6982  224.9115 H   0  0  0  0  0  0  0  0  0  0  0  0
  142.2120   72.4102  220.0309 H   0  0  0  0  0  0  0  0  0  0  0  0
  143.8248   76.3171  215.7909 H   0  0  0  0  0  0  0  0  0  0  0  0
  141.7245   78.8051  219.0794 H   0  0  0  0  0  0  0  0  0  0  0  0
  139.4887   82.5569  220.7317 H   0  0  0  0  0  0  0  0  0  0  0  0
  138.3792   81.1307  220.6952 H   0  0  0  0  0  0  0  0  0  0  0  0
  139.2287   81.7306  223.0003 H   0  0  0  0  0  0  0  0  0  0  0  0
  139.6007   80.0473  222.4748 H   0  0  0  0  0  0  0  0  0  0  0  0
  1  2  1  0
  2  3  1  0
  3  4  1  0
  4  5  1  0
  5  6  1  0
  6  7  2  0
  6  8  1  0
  8  9  2  0
  9 10  1  0
 10 11  2  0
 11 12  1  0
 12 13  1  0
 13 14  1  0
 14 15  1  0
 15 16  2  0
 16 17  1  0
 17 18  2  0
 18 19  1  0
 19 20  3  0
 20 21  1  0
 21 22  2  0
 22 23  1  0
 23 24  2  0
 24 25  1  0
 25 26  2  0
 18 27  1  0
 27 28  2  0
 28 29  1  0
 29 30  1  0
 30 31  2  0
 30 32  1  0
 12 33  2  0
  5 34  1  0
 34 35  1  0
 35  2  1  0
 33  8  1  0
 32 13  2  0
 28 15  1  0
 26 21  1  0
  1 36  1  0
  1 37  1  0
  1 38  1  0
  3 39  1  0
  3 40  1  0
  4 41  1  0
  4 42  1  0
  9 43  1  0
 10 44  1  0
 11 45  1  0
 14 46  1  0
 16 47  1  0
 17 48  1  0
 22 49  1  0
 23 50  1  0
 24 51  1  0
 25 52  1  0
 26 53  1  0
 27 54  1  0
 32 55  1  0
 33 56  1  0
 34 57  1  0
 34 58  1  0
 35 59  1  0
 35 60  1  0
M  CHG  1  29  -1
M  END
>  <UniqueID>  (2) 
35

>  <SMILES>  (2) 
CN1CCN(C(=O)c2cccc(C3=CC(=O)[N-]c4cc(C#Cc5ccccc5)ccc4N3)c2)CC1

>  <Energy>  (2) 
87.41025854903613

>  <Genealogy>  (2) 
CN1CCN(C(=O)c2cccc(C3=Nc4ccc(C#Cc5ccccc5)cc4[N-]C(=O)C3)c2)CC1 (protonated)
CN1CCN(C(=O)c2cccc(C3=CC(=O)[N-]c4cc(C#Cc5ccccc5)ccc4N3)c2)CC1 (tautomer)
CN1CCN(C(=O)c2cccc(C3=CC(=O)[N-]c4cc(C#Cc5ccccc5)ccc4N3)c2)CC1 (3D coordinates assigned)
CN1CCN(C(=O)c2cccc(C3=CC(=O)[N-]c4cc(C#Cc5ccccc5)ccc4N3)c2)CC1 (nonaromatic ring conformer: 87.41025854903613 kcal/mol)

>  <smiles>  (2) 
CN1CCN(C(=O)c2cccc(C3=Nc4ccc(C#Cc5ccccc5)cc4NC(=O)C3)c2)CC1

>  <score_type>  (2) 
oracle

>  <origin>  (2) 
autodockgpu

>  <m_score__min__energy>  (2) 
-6.1799999999999997

>  <m_primary>  (2) 
energy

>  <meeko>  (2) 
{"free_energy": -4.27, "intermolecular_energy": -7.26, "internal_energy": -1.43, "cluster_size": 1, "cluster_id": 11, "rank_in_cluster": 1}

>  <energy>  (2) 
-6.13

>  <cluster_rmsd>  (2) 
1.75

>  <rmsd>  (2) 
270.29

>  <cluster>  (2) 
1

$$$$
NQSIIFRRCFYKTO-OOGIUIOONA-M
     RDKit          3D

 60 64  0  0  0  0  0  0  0  0999 V2000
  138.3250   72.4740  222.1970 C   0  0  0  0  0  0  0  0  0  0  0  0
  139.4920   72.7350  221.3290 N   0  0  0  0  0  0  0  0  0  0  0  0
  139.2990   73.9990  220.5840 C   0  0  0  0  0  0  0  0  0  0  0  0
  140.4660   74.2170  219.6080 C   0  0  0  0  0  0  0  0  0  0  0  0
  141.7480   74.1290  220.3200 N   0  0  0  0  0  0  0  0  0  0  0  0
  142.9260   74.7220  219.7130 C   0  0  0  0  0  0  0  0  0  0  0  0
  144.0480   74.1620  219.8280 O   0  0  0  0  0  0  0  0  0  0  0  0
  142.8500   75.9990  218.9800 C   0  0  0  0  0  0  0  0  0  0  0  0
  143.3610   76.0910  217.6750 C   0  0  0  0  0  0  0  0  0  0  0  0
  143.3340   77.3100  216.9900 C   0  0  0  0  0  0  0  0  0  0  0  0
  142.8280   78.4530  217.6170 C   0  0  0  0  0  0  0  0  0  0  0  0
  142.3290   78.3830  218.9350 C   0  0  0  0  0  0  0  0  0  0  0  0
  141.8940   79.6070  219.6580 C   0  0  0  0  0  0  0  0  0  0  0  0
  142.0510   79.6370  221.0810 N   0  0  0  0  0  0  0  0  0  0  0  0
  140.9740   79.9760  221.9590 C   0  0  0  0  0  0  0  0  0  0  0  0
  140.6680   79.1060  223.0140 C   0  0  0  0  0  0  0  0  0  0  0  0
  139.6830   79.4370  223.9460 C   0  0  0  0  0  0  0  0  0  0  0  0
  139.0080   80.6540  223.8490 C   0  0  0  0  0  0  0  0  0  0  0  0
  138.0230   81.0190  224.8340 C   0  0  0  0  0  0  0  0  0  0  0  0
  137.2020   81.3180  225.6650 C   0  0  0  0  0  0  0  0  0  0  0  0
  136.2240   81.6680  226.6600 C   0  0  0  0  0  0  0  0  0  0  0  0
  134.9300   82.0430  226.2700 C   0  0  0  0  0  0  0  0  0  0  0  0
  133.9830   82.3870  227.2410 C   0  0  0  0  0  0  0  0  0  0  0  0
  134.3280   82.3710  228.5950 C   0  0  0  0  0  0  0  0  0  0  0  0
  135.6180   82.0000  228.9840 C   0  0  0  0  0  0  0  0  0  0  0  0
  136.5660   81.6470  228.0190 C   0  0  0  0  0  0  0  0  0  0  0  0
  139.3180   81.5350  222.8100 C   0  0  0  0  0  0  0  0  0  0  0  0
  140.2840   81.2000  221.8500 C   0  0  0  0  0  0  0  0  0  0  0  0
  140.6100   82.1840  220.8660 N   0  0  0  0  0  0  0  0  0  0  0  0
  141.1950   82.0020  219.5730 C   0  0  0  0  0  0  0  0  0  0  0  0
  141.4100   83.0230  218.8710 O   0  0  0  0  0  0  0  0  0  0  0  0
  141.4770   80.6850  218.9800 C   0  0  0  0  0  0  0  0  0  0  0  0
  142.3360   77.1460  219.6080 C   0  0  0  0  0  0  0  0  0  0  0  0
  141.9400   73.0070  221.2520 C   0  0  0  0  0  0  0  0  0  0  0  0
  140.7160   72.8250  222.1470 C   0  0  0  0  0  0  0  0  0  0  0  0
  138.6299   72.5422  223.2517 H   0  0  0  0  0  0  0  0  0  0  0  0
  137.5421   73.2192  221.9927 H   0  0  0  0  0  0  0  0  0  0  0  0
  137.9342   71.4663  221.9927 H   0  0  0  0  0  0  0  0  0  0  0  0
  138.3563   73.9488  220.0193 H   0  0  0  0  0  0  0  0  0  0  0  0
  139.2628   74.8363  221.2965 H   0  0  0  0  0  0  0  0  0  0  0  0
  140.4325   73.4462  218.8240 H   0  0  0  0  0  0  0  0  0  0  0  0
  140.3743   75.2163  219.1574 H   0  0  0  0  0  0  0  0  0  0  0  0
  143.7846   75.1997  217.1892 H   0  0  0  0  0  0  0  0  0  0  0  0
  143.7107   77.3697  215.9582 H   0  0  0  0  0  0  0  0  0  0  0  0
  142.8189   79.4126  217.0794 H   0  0  0  0  0  0  0  0  0  0  0  0
  142.8130   79.0400  221.4780 H   0  0  0  0  0  0  0  0  0  0  0  0
  141.2092   78.1531  223.1086 H   0  0  0  0  0  0  0  0  0  0  0  0
  139.4386   78.7369  224.7585 H   0  0  0  0  0  0  0  0  0  0  0  0
  134.6603   82.0666  225.2038 H   0  0  0  0  0  0  0  0  0  0  0  0
  132.9644   82.6707  226.9377 H   0  0  0  0  0  0  0  0  0  0  0  0
  133.5837   82.6506  229.3552 H   0  0  0  0  0  0  0  0  0  0  0  0
  135.8877   81.9857  230.0503 H   0  0  0  0  0  0  0  0  0  0  0  0
  137.5804   81.3528  228.3264 H   0  0  0  0  0  0  0  0  0  0  0  0
  138.7985   82.5024  222.7441 H   0  0  0  0  0  0  0  0  0  0  0  0
  141.3342   80.5770  217.8947 H   0  0  0  0  0  0  0  0  0  0  0  0
  141.9369   77.0774  220.6308 H   0  0  0  0  0  0  0  0  0  0  0  0
  142.1049   72.0846  220.6758 H   0  0  0  0  0  0  0  0  0  0  0  0
  142.8108   73.2242  221.8881 H   0  0  0  0  0  0  0  0  0  0  0  0
  140.8293   71.9011  222.7332 H   0  0  0  0  0  0  0  0  0  0  0  0
  140.6333   73.6910  222.8203 H   0  0  0  0  0  0  0  0  0  0  0  0
  1  2  1  0
  2  3  1  0
  3  4  1  0
  4  5  1  0
  5  6  1  0
  6  7  2  0
  6  8  1  0
  8  9  2  0
  9 10  1  0
 10 11  2  0
 11 12  1  0
 12 13  1  0
 13 14  1  0
 14 15  1  0
 15 16  2  0
 16 17  1  0
 17 18  2  0
 18 19  1  0
 19 20  3  0
 20 21  1  0
 21 22  2  0
 22 23  1  0
 23 24  2  0
 24 25  1  0
 25 26  2  0
 18 27  1  0
 27 28  2  0
 28 29  1  0
 29 30  1  0
 30 31  2  0
 30 32  1  0
 12 33  2  0
  5 34  1  0
 34 35  1  0
 35  2  1  0
 33  8  1  0
 32 13  2  0
 28 15  1  0
 26 21  1  0
  1 36  1  0
  1 37  1  0
  1 38  1  0
  3 39  1  0
  3 40  1  0
  4 41  1  0
  4 42  1  0
  9 43  1  0
 10 44  1  0
 11 45  1  0
 14 46  1  0
 16 47  1  0
 17 48  1  0
 22 49  1  0
 23 50  1  0
 24 51  1  0
 25 52  1  0
 26 53  1  0
 27 54  1  0
 32 55  1  0
 33 56  1  0
 34 57  1  0
 34 58  1  0
 35 59  1  0
 35 60  1  0
M  CHG  1  29  -1
M  END
>  <UniqueID>  (3) 
35

>  <SMILES>  (3) 
CN1CCN(C(=O)c2cccc(C3=CC(=O)[N-]c4cc(C#Cc5ccccc5)ccc4N3)c2)CC1

>  <Energy>  (3) 
87.41025854903613

>  <Genealogy>  (3) 
CN1CCN(C(=O)c2cccc(C3=Nc4ccc(C#Cc5ccccc5)cc4[N-]C(=O)C3)c2)CC1 (protonated)
CN1CCN(C(=O)c2cccc(C3=CC(=O)[N-]c4cc(C#Cc5ccccc5)ccc4N3)c2)CC1 (tautomer)
CN1CCN(C(=O)c2cccc(C3=CC(=O)[N-]c4cc(C#Cc5ccccc5)ccc4N3)c2)CC1 (3D coordinates assigned)
CN1CCN(C(=O)c2cccc(C3=CC(=O)[N-]c4cc(C#Cc5ccccc5)ccc4N3)c2)CC1 (nonaromatic ring conformer: 87.41025854903613 kcal/mol)

>  <smiles>  (3) 
CN1CCN(C(=O)c2cccc(C3=Nc4ccc(C#Cc5ccccc5)cc4NC(=O)C3)c2)CC1

>  <score_type>  (3) 
oracle

>  <origin>  (3) 
autodockgpu

>  <m_score__min__energy>  (3) 
-6.1799999999999997

>  <m_primary>  (3) 
energy

>  <meeko>  (3) 
{"free_energy": -5.24, "intermolecular_energy": -8.22, "internal_energy": -1.32, "cluster_size": 4, "cluster_id": 2, "rank_in_cluster": 4}

>  <energy>  (3) 
-6.06

>  <cluster_rmsd>  (3) 
1.89

>  <rmsd>  (3) 
270.19

>  <cluster>  (3) 
1

$$$$
NQSIIFRRCFYKTO-OOGIUIOONA-M
     RDKit          3D

 60 64  0  0  0  0  0  0  0  0999 V2000
  133.8410   78.2550  224.2550 C   0  0  0  0  0  0  0  0  0  0  0  0
  133.4030   76.9430  224.7740 N   0  0  0  0  0  0  0  0  0  0  0  0
  133.9470   75.8550  223.9310 C   0  0  0  0  0  0  0  0  0  0  0  0
  133.4080   74.4990  224.4120 C   0  0  0  0  0  0  0  0  0  0  0  0
  133.6620   74.3300  225.8480 N   0  0  0  0  0  0  0  0  0  0  0  0
  133.6430   72.9910  226.4090 C   0  0  0  0  0  0  0  0  0  0  0  0
  133.1740   72.7930  227.5610 O   0  0  0  0  0  0  0  0  0  0  0  0
  134.1950   71.8420  225.6680 C   0  0  0  0  0  0  0  0  0  0  0  0
  133.9480   70.5340  226.1160 C   0  0  0  0  0  0  0  0  0  0  0  0
  134.5050   69.4400  225.4450 C   0  0  0  0  0  0  0  0  0  0  0  0
  135.3410   69.6480  224.3440 C   0  0  0  0  0  0  0  0  0  0  0  0
  135.6160   70.9570  223.8930 C   0  0  0  0  0  0  0  0  0  0  0  0
  136.5910   71.2030  222.7980 C   0  0  0  0  0  0  0  0  0  0  0  0
  136.3620   72.3220  221.9340 N   0  0  0  0  0  0  0  0  0  0  0  0
  137.1600   73.5080  221.9950 C   0  0  0  0  0  0  0  0  0  0  0  0
  136.5250   74.7330  222.2390 C   0  0  0  0  0  0  0  0  0  0  0  0
  137.2720   75.9020  222.3920 C   0  0  0  0  0  0  0  0  0  0  0  0
  138.6650   75.8570  222.3290 C   0  0  0  0  0  0  0  0  0  0  0  0
  139.4410   77.0530  222.5310 C   0  0  0  0  0  0  0  0  0  0  0  0
  140.0840   78.0580  222.7060 C   0  0  0  0  0  0  0  0  0  0  0  0
  140.8550   79.2530  222.9230 C   0  0  0  0  0  0  0  0  0  0  0  0
  142.0850   79.1820  223.5930 C   0  0  0  0  0  0  0  0  0  0  0  0
  142.8300   80.3460  223.8060 C   0  0  0  0  0  0  0  0  0  0  0  0
  142.3440   81.5810  223.3670 C   0  0  0  0  0  0  0  0  0  0  0  0
  141.1160   81.6530  222.7010 C   0  0  0  0  0  0  0  0  0  0  0  0
  140.3730   80.4900  222.4780 C   0  0  0  0  0  0  0  0  0  0  0  0
  139.3060   74.6360  222.1020 C   0  0  0  0  0  0  0  0  0  0  0  0
  138.5660   73.4610  221.9160 C   0  0  0  0  0  0  0  0  0  0  0  0
  139.2900   72.2360  221.7740 N   0  0  0  0  0  0  0  0  0  0  0  0
  139.0460   70.9710  222.3960 C   0  0  0  0  0  0  0  0  0  0  0  0
  140.0300   70.2200  222.6170 O   0  0  0  0  0  0  0  0  0  0  0  0
  137.7020   70.4580  222.7090 C   0  0  0  0  0  0  0  0  0  0  0  0
  135.0300   72.0510  224.5580 C   0  0  0  0  0  0  0  0  0  0  0  0
  133.3440   75.4570  226.7390 C   0  0  0  0  0  0  0  0  0  0  0  0
  133.8670   76.7720  226.1630 C   0  0  0  0  0  0  0  0  0  0  0  0
  134.0651   78.9262  225.0972 H   0  0  0  0  0  0  0  0  0  0  0  0
  134.7440   78.1234  223.6407 H   0  0  0  0  0  0  0  0  0  0  0  0
  133.0401   78.6922  223.6407 H   0  0  0  0  0  0  0  0  0  0  0  0
  133.6442   76.0176  222.8861 H   0  0  0  0  0  0  0  0  0  0  0  0
  135.0445   75.8546  224.0053 H   0  0  0  0  0  0  0  0  0  0  0  0
  132.3246   74.4530  224.2273 H   0  0  0  0  0  0  0  0  0  0  0  0
  133.9187   73.6953  223.8613 H   0  0  0  0  0  0  0  0  0  0  0  0
  133.3133   70.3689  226.9991 H   0  0  0  0  0  0  0  0  0  0  0  0
  134.2853   68.4167  225.7836 H   0  0  0  0  0  0  0  0  0  0  0  0
  135.7872   68.7863  223.8259 H   0  0  0  0  0  0  0  0  0  0  0  0
  135.8890   72.1180  221.0230 H   0  0  0  0  0  0  0  0  0  0  0  0
  135.4281   74.7737  222.3106 H   0  0  0  0  0  0  0  0  0  0  0  0
  136.7612   76.8611  222.5627 H   0  0  0  0  0  0  0  0  0  0  0  0
  142.4629   78.2127  223.9502 H   0  0  0  0  0  0  0  0  0  0  0  0
  143.8008   80.2897  224.3202 H   0  0  0  0  0  0  0  0  0  0  0  0
  142.9273   82.4964  223.5453 H   0  0  0  0  0  0  0  0  0  0  0  0
  140.7351   82.6244  222.3529 H   0  0  0  0  0  0  0  0  0  0  0  0
  139.4085   80.5468  221.9522 H   0  0  0  0  0  0  0  0  0  0  0  0
  140.4048   74.5971  222.0690 H   0  0  0  0  0  0  0  0  0  0  0  0
  137.6013   69.3767  222.8839 H   0  0  0  0  0  0  0  0  0  0  0  0
  135.2271   73.0745  224.2065 H   0  0  0  0  0  0  0  0  0  0  0  0
  132.2526   75.5249  226.8583 H   0  0  0  0  0  0  0  0  0  0  0  0
  133.8268   75.2828  227.7119 H   0  0  0  0  0  0  0  0  0  0  0  0
  133.4975   77.6084  226.7745 H   0  0  0  0  0  0  0  0  0  0  0  0
  134.9668   76.7546  226.1731 H   0  0  0  0  0  0  0  0  0  0  0  0
  1  2  1  0
  2  3  1  0
  3  4  1  0
  4  5  1  0
  5  6  1  0
  6  7  2  0
  6  8  1  0
  8  9  2  0
  9 10  1  0
 10 11  2  0
 11 12  1  0
 12 13  1  0
 13 14  1  0
 14 15  1  0
 15 16  2  0
 16 17  1  0
 17 18  2  0
 18 19  1  0
 19 20  3  0
 20 21  1  0
 21 22  2  0
 22 23  1  0
 23 24  2  0
 24 25  1  0
 25 26  2  0
 18 27  1  0
 27 28  2  0
 28 29  1  0
 29 30  1  0
 30 31  2  0
 30 32  1  0
 12 33  2  0
  5 34  1  0
 34 35  1  0
 35  2  1  0
 33  8  1  0
 32 13  2  0
 28 15  1  0
 26 21  1  0
  1 36  1  0
  1 37  1  0
  1 38  1  0
  3 39  1  0
  3 40  1  0
  4 41  1  0
  4 42  1  0
  9 43  1  0
 10 44  1  0
 11 45  1  0
 14 46  1  0
 16 47  1  0
 17 48  1  0
 22 49  1  0
 23 50  1  0
 24 51  1  0
 25 52  1  0
 26 53  1  0
 27 54  1  0
 32 55  1  0
 33 56  1  0
 34 57  1  0
 34 58  1  0
 35 59  1  0
 35 60  1  0
M  CHG  1  29  -1
M  END
>  <UniqueID>  (4) 
35

>  <SMILES>  (4) 
CN1CCN(C(=O)c2cccc(C3=CC(=O)[N-]c4cc(C#Cc5ccccc5)ccc4N3)c2)CC1

>  <Energy>  (4) 
87.41025854903613

>  <Genealogy>  (4) 
CN1CCN(C(=O)c2cccc(C3=Nc4ccc(C#Cc5ccccc5)cc4[N-]C(=O)C3)c2)CC1 (protonated)
CN1CCN(C(=O)c2cccc(C3=CC(=O)[N-]c4cc(C#Cc5ccccc5)ccc4N3)c2)CC1 (tautomer)
CN1CCN(C(=O)c2cccc(C3=CC(=O)[N-]c4cc(C#Cc5ccccc5)ccc4N3)c2)CC1 (3D coordinates assigned)
CN1CCN(C(=O)c2cccc(C3=CC(=O)[N-]c4cc(C#Cc5ccccc5)ccc4N3)c2)CC1 (nonaromatic ring conformer: 87.41025854903613 kcal/mol)

>  <smiles>  (4) 
CN1CCN(C(=O)c2cccc(C3=Nc4ccc(C#Cc5ccccc5)cc4NC(=O)C3)c2)CC1

>  <score_type>  (4) 
oracle

>  <origin>  (4) 
autodockgpu

>  <m_score__min__energy>  (4) 
-6.1799999999999997

>  <m_primary>  (4) 
energy

>  <meeko>  (4) 
{"free_energy": -4.85, "intermolecular_energy": -7.83, "internal_energy": -1.65, "cluster_size": 1, "cluster_id": 8, "rank_in_cluster": 1}

>  <energy>  (4) 
-5.94

>  <cluster_rmsd>  (4) 
0.14

>  <rmsd>  (4) 
269.61

>  <cluster>  (4) 
1

$$$$
NQSIIFRRCFYKTO-OOGIUIOONA-M
     RDKit          3D

 60 64  0  0  0  0  0  0  0  0999 V2000
  136.4260   79.7490  223.7590 C   0  0  0  0  0  0  0  0  0  0  0  0
  137.8790   79.6280  223.5150 N   0  0  0  0  0  0  0  0  0  0  0  0
  138.1230   78.8690  222.2680 C   0  0  0  0  0  0  0  0  0  0  0  0
  139.6320   78.6570  222.0690 C   0  0  0  0  0  0  0  0  0  0  0  0
  140.3400   79.9420  222.1390 N   0  0  0  0  0  0  0  0  0  0  0  0
  141.6660   80.0420  221.5570 C   0  0  0  0  0  0  0  0  0  0  0  0
  142.5510   80.7460  222.1130 O   0  0  0  0  0  0  0  0  0  0  0  0
  142.0030   79.3560  220.2970 C   0  0  0  0  0  0  0  0  0  0  0  0
  142.0980   80.0890  219.1020 C   0  0  0  0  0  0  0  0  0  0  0  0
  142.3730   79.4400  217.8940 C   0  0  0  0  0  0  0  0  0  0  0  0
  142.5210   78.0500  217.8660 C   0  0  0  0  0  0  0  0  0  0  0  0
  142.4080   77.2950  219.0540 C   0  0  0  0  0  0  0  0  0  0  0  0
  142.4480   75.8090  219.0270 C   0  0  0  0  0  0  0  0  0  0  0  0
  141.2340   75.1000  219.3020 N   0  0  0  0  0  0  0  0  0  0  0  0
  141.1050   74.2140  220.4170 C   0  0  0  0  0  0  0  0  0  0  0  0
  139.9800   74.3340  221.2430 C   0  0  0  0  0  0  0  0  0  0  0  0
  139.7690   73.4370  222.2910 C   0  0  0  0  0  0  0  0  0  0  0  0
  140.6670   72.3930  222.5110 C   0  0  0  0  0  0  0  0  0  0  0  0
  140.4290   71.4380  223.5620 C   0  0  0  0  0  0  0  0  0  0  0  0
  140.2390   70.6400  224.4460 C   0  0  0  0  0  0  0  0  0  0  0  0
  140.0200   69.6840  225.4980 C   0  0  0  0  0  0  0  0  0  0  0  0
  140.2640   70.0410  226.8320 C   0  0  0  0  0  0  0  0  0  0  0  0
  140.0550   69.1080  227.8530 C   0  0  0  0  0  0  0  0  0  0  0  0
  139.6180   67.8170  227.5440 C   0  0  0  0  0  0  0  0  0  0  0  0
  139.3770   67.4580  226.2140 C   0  0  0  0  0  0  0  0  0  0  0  0
  139.5750   68.3910  225.1910 C   0  0  0  0  0  0  0  0  0  0  0  0
  141.7840   72.2570  221.6820 C   0  0  0  0  0  0  0  0  0  0  0  0
  142.0220   73.1700  220.6450 C   0  0  0  0  0  0  0  0  0  0  0  0
  143.1370   72.9200  219.7850 N   0  0  0  0  0  0  0  0  0  0  0  0
  144.0050   73.8580  219.1440 C   0  0  0  0  0  0  0  0  0  0  0  0
  145.2290   73.5800  219.0740 O   0  0  0  0  0  0  0  0  0  0  0  0
  143.5660   75.1710  218.6430 C   0  0  0  0  0  0  0  0  0  0  0  0
  142.1570   77.9600  220.2700 C   0  0  0  0  0  0  0  0  0  0  0  0
  139.9970   80.8560  223.2400 C   0  0  0  0  0  0  0  0  0  0  0  0
  138.4820   80.9690  223.4050 C   0  0  0  0  0  0  0  0  0  0  0  0
  136.2362   79.7648  224.8424 H   0  0  0  0  0  0  0  0  0  0  0  0
  136.0548   80.6812  223.3081 H   0  0  0  0  0  0  0  0  0  0  0  0
  135.9058   78.8911  223.3081 H   0  0  0  0  0  0  0  0  0  0  0  0
  137.6231   77.8913  222.3328 H   0  0  0  0  0  0  0  0  0  0  0  0
  137.7224   79.4368  221.4153 H   0  0  0  0  0  0  0  0  0  0  0  0
  140.0119   77.9898  222.8568 H   0  0  0  0  0  0  0  0  0  0  0  0
  139.8032   78.2071  221.0799 H   0  0  0  0  0  0  0  0  0  0  0  0
  141.9553   81.1796  219.1167 H   0  0  0  0  0  0  0  0  0  0  0  0
  142.4728   80.0228  216.9665 H   0  0  0  0  0  0  0  0  0  0  0  0
  142.7267   77.5413  216.9126 H   0  0  0  0  0  0  0  0  0  0  0  0
  140.3530   75.5280  218.9340 H   0  0  0  0  0  0  0  0  0  0  0  0
  139.2562   75.1427  221.0639 H   0  0  0  0  0  0  0  0  0  0  0  0
  138.8923   73.5537  222.9451 H   0  0  0  0  0  0  0  0  0  0  0  0
  140.6193   71.0533  227.0751 H   0  0  0  0  0  0  0  0  0  0  0  0
  140.2349   69.3909  228.9007 H   0  0  0  0  0  0  0  0  0  0  0  0
  139.4634   67.0823  228.3479 H   0  0  0  0  0  0  0  0  0  0  0  0
  139.0317   66.4419  225.9725 H   0  0  0  0  0  0  0  0  0  0  0  0
  139.3814   68.1099  224.1453 H   0  0  0  0  0  0  0  0  0  0  0  0
  142.4841   71.4244  221.8450 H   0  0  0  0  0  0  0  0  0  0  0  0
  144.2028   75.6680  217.8964 H   0  0  0  0  0  0  0  0  0  0  0  0
  142.0812   77.3831  221.2035 H   0  0  0  0  0  0  0  0  0  0  0  0
  140.4332   80.4734  224.1745 H   0  0  0  0  0  0  0  0  0  0  0  0
  140.3998   81.8527  223.0069 H   0  0  0  0  0  0  0  0  0  0  0  0
  138.2578   81.5437  224.3157 H   0  0  0  0  0  0  0  0  0  0  0  0
  138.0628   81.4793  222.5253 H   0  0  0  0  0  0  0  0  0  0  0  0
  1  2  1  0
  2  3  1  0
  3  4  1  0
  4  5  1  0
  5  6  1  0
  6  7  2  0
  6  8  1  0
  8  9  2  0
  9 10  1  0
 10 11  2  0
 11 12  1  0
 12 13  1  0
 13 14  1  0
 14 15  1  0
 15 16  2  0
 16 17  1  0
 17 18  2  0
 18 19  1  0
 19 20  3  0
 20 21  1  0
 21 22  2  0
 22 23  1  0
 23 24  2  0
 24 25  1  0
 25 26  2  0
 18 27  1  0
 27 28  2  0
 28 29  1  0
 29 30  1  0
 30 31  2  0
 30 32  1  0
 12 33  2  0
  5 34  1  0
 34 35  1  0
 35  2  1  0
 33  8  1  0
 32 13  2  0
 28 15  1  0
 26 21  1  0
  1 36  1  0
  1 37  1  0
  1 38  1  0
  3 39  1  0
  3 40  1  0
  4 41  1  0
  4 42  1  0
  9 43  1  0
 10 44  1  0
 11 45  1  0
 14 46  1  0
 16 47  1  0
 17 48  1  0
 22 49  1  0
 23 50  1  0
 24 51  1  0
 25 52  1  0
 26 53  1  0
 27 54  1  0
 32 55  1  0
 33 56  1  0
 34 57  1  0
 34 58  1  0
 35 59  1  0
 35 60  1  0
M  CHG  1  29  -1
M  END
>  <UniqueID>  (5) 
35

>  <SMILES>  (5) 
CN1CCN(C(=O)c2cccc(C3=CC(=O)[N-]c4cc(C#Cc5ccccc5)ccc4N3)c2)CC1

>  <Energy>  (5) 
87.41025854903613

>  <Genealogy>  (5) 
CN1CCN(C(=O)c2cccc(C3=Nc4ccc(C#Cc5ccccc5)cc4[N-]C(=O)C3)c2)CC1 (protonated)
CN1CCN(C(=O)c2cccc(C3=CC(=O)[N-]c4cc(C#Cc5ccccc5)ccc4N3)c2)CC1 (tautomer)
CN1CCN(C(=O)c2cccc(C3=CC(=O)[N-]c4cc(C#Cc5ccccc5)ccc4N3)c2)CC1 (3D coordinates assigned)
CN1CCN(C(=O)c2cccc(C3=CC(=O)[N-]c4cc(C#Cc5ccccc5)ccc4N3)c2)CC1 (nonaromatic ring conformer: 87.41025854903613 kcal/mol)

>  <smiles>  (5) 
CN1CCN(C(=O)c2cccc(C3=Nc4ccc(C#Cc5ccccc5)cc4NC(=O)C3)c2)CC1

>  <score_type>  (5) 
oracle

>  <origin>  (5) 
autodockgpu

>  <m_score__min__energy>  (5) 
-6.1799999999999997

>  <m_primary>  (5) 
energy

>  <meeko>  (5) 
{"free_energy": -6.13, "intermolecular_energy": -9.11, "internal_energy": -1.39, "cluster_size": 6, "cluster_id": 1, "rank_in_cluster": 2}

>  <energy>  (5) 
-5.86

>  <cluster_rmsd>  (5) 
1.67

>  <rmsd>  (5) 
270.3

>  <cluster>  (5) 
1

$$$$
NQSIIFRRCFYKTO-OOGIUIOONA-M
     RDKit          3D

 60 64  0  0  0  0  0  0  0  0999 V2000
  145.8940   70.2440  218.9910 C   0  0  0  0  0  0  0  0  0  0  0  0
  145.2800   71.4240  219.6330 N   0  0  0  0  0  0  0  0  0  0  0  0
  145.3600   72.5940  218.7300 C   0  0  0  0  0  0  0  0  0  0  0  0
  144.8120   73.8420  219.4390 C   0  0  0  0  0  0  0  0  0  0  0  0
  143.4660   73.5800  219.9640 N   0  0  0  0  0  0  0  0  0  0  0  0
  142.6030   74.7070  220.2690 C   0  0  0  0  0  0  0  0  0  0  0  0
  141.8340   74.6650  221.2660 O   0  0  0  0  0  0  0  0  0  0  0  0
  142.5780   75.9070  219.4120 C   0  0  0  0  0  0  0  0  0  0  0  0
  142.9700   75.8160  218.0660 C   0  0  0  0  0  0  0  0  0  0  0  0
  142.9930   76.9580  217.2580 C   0  0  0  0  0  0  0  0  0  0  0  0
  142.6570   78.2030  217.7980 C   0  0  0  0  0  0  0  0  0  0  0  0
  142.2800   78.3150  219.1540 C   0  0  0  0  0  0  0  0  0  0  0  0
  142.0320   79.6430  219.7750 C   0  0  0  0  0  0  0  0  0  0  0  0
  142.1860   79.7590  221.1940 N   0  0  0  0  0  0  0  0  0  0  0  0
  141.0970   80.1100  222.0520 C   0  0  0  0  0  0  0  0  0  0  0  0
  140.8760   79.3430  223.2040 C   0  0  0  0  0  0  0  0  0  0  0  0
  139.8800   79.6990  224.1140 C   0  0  0  0  0  0  0  0  0  0  0  0
  139.1090   80.8410  223.8980 C   0  0  0  0  0  0  0  0  0  0  0  0
  138.1110   81.2360  224.8580 C   0  0  0  0  0  0  0  0  0  0  0  0
  137.2770   81.5600  225.6670 C   0  0  0  0  0  0  0  0  0  0  0  0
  136.2820   81.9380  226.6340 C   0  0  0  0  0  0  0  0  0  0  0  0
  135.2670   81.0360  226.9840 C   0  0  0  0  0  0  0  0  0  0  0  0
  134.2970   81.4090  227.9210 C   0  0  0  0  0  0  0  0  0  0  0  0
  134.3310   82.6810  228.4980 C   0  0  0  0  0  0  0  0  0  0  0  0
  135.3410   83.5820  228.1480 C   0  0  0  0  0  0  0  0  0  0  0  0
  136.3180   83.2110  227.2180 C   0  0  0  0  0  0  0  0  0  0  0  0
  139.3340   81.6200  222.7610 C   0  0  0  0  0  0  0  0  0  0  0  0
  140.3110   81.2560  221.8230 C   0  0  0  0  0  0  0  0  0  0  0  0
  140.5440   82.1460  220.7290 N   0  0  0  0  0  0  0  0  0  0  0  0
  140.9110   81.8350  219.3810 C   0  0  0  0  0  0  0  0  0  0  0  0
  140.3890   82.5080  218.4560 O   0  0  0  0  0  0  0  0  0  0  0  0
  141.7920   80.7160  219.0100 C   0  0  0  0  0  0  0  0  0  0  0  0
  142.2360   77.1560  219.9530 C   0  0  0  0  0  0  0  0  0  0  0  0
  143.2470   72.3240  220.6980 C   0  0  0  0  0  0  0  0  0  0  0  0
  143.8680   71.1420  219.9540 C   0  0  0  0  0  0  0  0  0  0  0  0
  146.2545   69.5512  219.7656 H   0  0  0  0  0  0  0  0  0  0  0  0
  145.1456   69.7364  218.3646 H   0  0  0  0  0  0  0  0  0  0  0  0
  146.7391   70.5656  218.3646 H   0  0  0  0  0  0  0  0  0  0  0  0
  146.4094   72.7660  218.4484 H   0  0  0  0  0  0  0  0  0  0  0  0
  144.7601   72.3972  217.8292 H   0  0  0  0  0  0  0  0  0  0  0  0
  145.4802   74.1096  220.2708 H   0  0  0  0  0  0  0  0  0  0  0  0
  144.7594   74.6699  218.7166 H   0  0  0  0  0  0  0  0  0  0  0  0
  143.2603   74.8420  217.6452 H   0  0  0  0  0  0  0  0  0  0  0  0
  143.2754   76.8763  216.1980 H   0  0  0  0  0  0  0  0  0  0  0  0
  142.6865   79.1005  217.1627 H   0  0  0  0  0  0  0  0  0  0  0  0
  142.9690   79.2120  221.6230 H   0  0  0  0  0  0  0  0  0  0  0  0
  141.4934   78.4523  223.3925 H   0  0  0  0  0  0  0  0  0  0  0  0
  139.7024   79.0774  225.0040 H   0  0  0  0  0  0  0  0  0  0  0  0
  135.2334   80.0378  226.5231 H   0  0  0  0  0  0  0  0  0  0  0  0
  133.5058   80.6991  228.2040 H   0  0  0  0  0  0  0  0  0  0  0  0
  133.5623   82.9738  229.2284 H   0  0  0  0  0  0  0  0  0  0  0  0
  135.3675   84.5827  228.6039 H   0  0  0  0  0  0  0  0  0  0  0  0
  137.1146   83.9188  226.9452 H   0  0  0  0  0  0  0  0  0  0  0  0
  138.7377   82.5301  222.5992 H   0  0  0  0  0  0  0  0  0  0  0  0
  142.2909   80.7645  218.0308 H   0  0  0  0  0  0  0  0  0  0  0  0
  141.9317   77.2302  221.0075 H   0  0  0  0  0  0  0  0  0  0  0  0
  143.7066   72.4042  221.6941 H   0  0  0  0  0  0  0  0  0  0  0  0
  142.1640   72.1533  220.7871 H   0  0  0  0  0  0  0  0  0  0  0  0
  143.8121   70.2445  220.5876 H   0  0  0  0  0  0  0  0  0  0  0  0
  143.3142   70.9774  219.0179 H   0  0  0  0  0  0  0  0  0  0  0  0
  1  2  1  0
  2  3  1  0
  3  4  1  0
  4  5  1  0
  5  6  1  0
  6  7  2  0
  6  8  1  0
  8  9  2  0
  9 10  1  0
 10 11  2  0
 11 12  1  0
 12 13  1  0
 13 14  1  0
 14 15  1  0
 15 16  2  0
 16 17  1  0
 17 18  2  0
 18 19  1  0
 19 20  3  0
 20 21  1  0
 21 22  2  0
 22 23  1  0
 23 24  2  0
 24 25  1  0
 25 26  2  0
 18 27  1  0
 27 28  2  0
 28 29  1  0
 29 30  1  0
 30 31  2  0
 30 32  1  0
 12 33  2  0
  5 34  1  0
 34 35  1  0
 35  2  1  0
 33  8  1  0
 32 13  2  0
 28 15  1  0
 26 21  1  0
  1 36  1  0
  1 37  1  0
  1 38  1  0
  3 39  1  0
  3 40  1  0
  4 41  1  0
  4 42  1  0
  9 43  1  0
 10 44  1  0
 11 45  1  0
 14 46  1  0
 16 47  1  0
 17 48  1  0
 22 49  1  0
 23 50  1  0
 24 51  1  0
 25 52  1  0
 26 53  1  0
 27 54  1  0
 32 55  1  0
 33 56  1  0
 34 57  1  0
 34 58  1  0
 35 59  1  0
 35 60  1  0
M  CHG  1  29  -1
M  END
>  <UniqueID>  (6) 
35

>  <SMILES>  (6) 
CN1CCN(C(=O)c2cccc(C3=CC(=O)[N-]c4cc(C#Cc5ccccc5)ccc4N3)c2)CC1

>  <Energy>  (6) 
87.41025854903613

>  <Genealogy>  (6) 
CN1CCN(C(=O)c2cccc(C3=Nc4ccc(C#Cc5ccccc5)cc4[N-]C(=O)C3)c2)CC1 (protonated)
CN1CCN(C(=O)c2cccc(C3=CC(=O)[N-]c4cc(C#Cc5ccccc5)ccc4N3)c2)CC1 (tautomer)
CN1CCN(C(=O)c2cccc(C3=CC(=O)[N-]c4cc(C#Cc5ccccc5)ccc4N3)c2)CC1 (3D coordinates assigned)
CN1CCN(C(=O)c2cccc(C3=CC(=O)[N-]c4cc(C#Cc5ccccc5)ccc4N3)c2)CC1 (nonaromatic ring conformer: 87.41025854903613 kcal/mol)

>  <smiles>  (6) 
CN1CCN(C(=O)c2cccc(C3=Nc4ccc(C#Cc5ccccc5)cc4NC(=O)C3)c2)CC1

>  <score_type>  (6) 
oracle

>  <origin>  (6) 
autodockgpu

>  <m_score__min__energy>  (6) 
-6.1799999999999997

>  <m_primary>  (6) 
energy

>  <meeko>  (6) 
{"free_energy": -5.56, "intermolecular_energy": -8.55, "internal_energy": -1.18, "cluster_size": 4, "cluster_id": 2, "rank_in_cluster": 2}

>  <energy>  (6) 
-5.73

>  <cluster_rmsd>  (6) 
1.84

>  <rmsd>  (6) 
270.21

>  <cluster>  (6) 
1

$$$$
NQSIIFRRCFYKTO-OOGIUIOONA-M
     RDKit          3D

 60 64  0  0  0  0  0  0  0  0999 V2000
  133.7650   75.0010  225.6440 C   0  0  0  0  0  0  0  0  0  0  0  0
  134.4400   74.8460  224.3380 N   0  0  0  0  0  0  0  0  0  0  0  0
  135.7390   75.5550  224.3490 C   0  0  0  0  0  0  0  0  0  0  0  0
  136.3910   75.4780  222.9610 C   0  0  0  0  0  0  0  0  0  0  0  0
  136.4730   74.0810  222.5130 N   0  0  0  0  0  0  0  0  0  0  0  0
  137.4200   73.7360  221.4690 C   0  0  0  0  0  0  0  0  0  0  0  0
  137.1210   72.8720  220.6020 O   0  0  0  0  0  0  0  0  0  0  0  0
  138.7570   74.3560  221.4110 C   0  0  0  0  0  0  0  0  0  0  0  0
  139.8990   73.5500  221.2740 C   0  0  0  0  0  0  0  0  0  0  0  0
  141.1730   74.1270  221.2630 C   0  0  0  0  0  0  0  0  0  0  0  0
  141.3160   75.5080  221.4240 C   0  0  0  0  0  0  0  0  0  0  0  0
  140.1810   76.3300  221.5830 C   0  0  0  0  0  0  0  0  0  0  0  0
  140.3170   77.7830  221.8700 C   0  0  0  0  0  0  0  0  0  0  0  0
  139.2080   78.6350  221.5620 N   0  0  0  0  0  0  0  0  0  0  0  0
  138.5140   79.3760  222.5700 C   0  0  0  0  0  0  0  0  0  0  0  0
  137.1550   79.1090  222.7840 C   0  0  0  0  0  0  0  0  0  0  0  0
  136.4590   79.7460  223.8130 C   0  0  0  0  0  0  0  0  0  0  0  0
  137.1190   80.6380  224.6580 C   0  0  0  0  0  0  0  0  0  0  0  0
  136.4160   81.2620  225.7480 C   0  0  0  0  0  0  0  0  0  0  0  0
  135.8250   81.7760  226.6650 C   0  0  0  0  0  0  0  0  0  0  0  0
  135.1190   82.3970  227.7530 C   0  0  0  0  0  0  0  0  0  0  0  0
  134.5280   83.6560  227.5790 C   0  0  0  0  0  0  0  0  0  0  0  0
  133.8460   84.2590  228.6410 C   0  0  0  0  0  0  0  0  0  0  0  0
  133.7660   83.6160  229.8790 C   0  0  0  0  0  0  0  0  0  0  0  0
  134.3570   82.3610  230.0550 C   0  0  0  0  0  0  0  0  0  0  0  0
  135.0320   81.7500  228.9940 C   0  0  0  0  0  0  0  0  0  0  0  0
  138.4780   80.8970  224.4610 C   0  0  0  0  0  0  0  0  0  0  0  0
  139.1800   80.2870  223.4120 C   0  0  0  0  0  0  0  0  0  0  0  0
  140.5860   80.5330  223.3250 N   0  0  0  0  0  0  0  0  0  0  0  0
  141.6240   79.6580  222.8730 C   0  0  0  0  0  0  0  0  0  0  0  0
  142.7750   80.1400  222.7100 O   0  0  0  0  0  0  0  0  0  0  0  0
  141.4050   78.2510  222.5000 C   0  0  0  0  0  0  0  0  0  0  0  0
  138.9000   75.7440  221.5670 C   0  0  0  0  0  0  0  0  0  0  0  0
  135.2760   73.2390  222.6670 C   0  0  0  0  0  0  0  0  0  0  0  0
  134.6590   73.4150  224.0540 C   0  0  0  0  0  0  0  0  0  0  0  0
  134.4906   74.8344  226.4538 H   0  0  0  0  0  0  0  0  0  0  0  0
  133.3521   76.0173  225.7250 H   0  0  0  0  0  0  0  0  0  0  0  0
  132.9501   74.2666  225.7250 H   0  0  0  0  0  0  0  0  0  0  0  0
  135.5763   76.6094  224.6170 H   0  0  0  0  0  0  0  0  0  0  0  0
  136.4030   75.0807  225.0867 H   0  0  0  0  0  0  0  0  0  0  0  0
  135.7876   76.0542  222.2441 H   0  0  0  0  0  0  0  0  0  0  0  0
  137.4071   75.8953  223.0193 H   0  0  0  0  0  0  0  0  0  0  0  0
  139.7909   72.4598  221.1749 H   0  0  0  0  0  0  0  0  0  0  0  0
  142.0624   73.4940  221.1277 H   0  0  0  0  0  0  0  0  0  0  0  0
  142.3203   75.9567  221.4267 H   0  0  0  0  0  0  0  0  0  0  0  0
  139.1680   79.0120  220.5870 H   0  0  0  0  0  0  0  0  0  0  0  0
  136.6319   78.3910  222.1353 H   0  0  0  0  0  0  0  0  0  0  0  0
  135.3874   79.5439  223.9577 H   0  0  0  0  0  0  0  0  0  0  0  0
  134.6004   84.1691  226.6087 H   0  0  0  0  0  0  0  0  0  0  0  0
  133.3716   85.2416  228.5013 H   0  0  0  0  0  0  0  0  0  0  0  0
  133.2380   84.0972  230.7154 H   0  0  0  0  0  0  0  0  0  0  0  0
  134.2908   81.8541  231.0290 H   0  0  0  0  0  0  0  0  0  0  0  0
  135.4948   80.7618  229.1327 H   0  0  0  0  0  0  0  0  0  0  0  0
  139.0032   81.5877  225.1371 H   0  0  0  0  0  0  0  0  0  0  0  0
  142.1934   77.5284  222.7574 H   0  0  0  0  0  0  0  0  0  0  0  0
  138.0072   76.3771  221.6773 H   0  0  0  0  0  0  0  0  0  0  0  0
  134.5355   73.5233  221.9049 H   0  0  0  0  0  0  0  0  0  0  0  0
  135.5694   72.1860  222.5444 H   0  0  0  0  0  0  0  0  0  0  0  0
  133.6955   72.8856  224.0926 H   0  0  0  0  0  0  0  0  0  0  0  0
  135.3461   73.0014  224.8069 H   0  0  0  0  0  0  0  0  0  0  0  0
  1  2  1  0
  2  3  1  0
  3  4  1  0
  4  5  1  0
  5  6  1  0
  6  7  2  0
  6  8  1  0
  8  9  2  0
  9 10  1  0
 10 11  2  0
 11 12  1  0
 12 13  1  0
 13 14  1  0
 14 15  1  0
 15 16  2  0
 16 17  1  0
 17 18  2  0
 18 19  1  0
 19 20  3  0
 20 21  1  0
 21 22  2  0
 22 23  1  0
 23 24  2  0
 24 25  1  0
 25 26  2  0
 18 27  1  0
 27 28  2  0
 28 29  1  0
 29 30  1  0
 30 31  2  0
 30 32  1  0
 12 33  2  0
  5 34  1  0
 34 35  1  0
 35  2  1  0
 33  8  1  0
 32 13  2  0
 28 15  1  0
 26 21  1  0
  1 36  1  0
  1 37  1  0
  1 38  1  0
  3 39  1  0
  3 40  1  0
  4 41  1  0
  4 42  1  0
  9 43  1  0
 10 44  1  0
 11 45  1  0
 14 46  1  0
 16 47  1  0
 17 48  1  0
 22 49  1  0
 23 50  1  0
 24 51  1  0
 25 52  1  0
 26 53  1  0
 27 54  1  0
 32 55  1  0
 33 56  1  0
 34 57  1  0
 34 58  1  0
 35 59  1  0
 35 60  1  0
M  CHG  1  29  -1
M  END
>  <UniqueID>  (7) 
35

>  <SMILES>  (7) 
CN1CCN(C(=O)c2cccc(C3=CC(=O)[N-]c4cc(C#Cc5ccccc5)ccc4N3)c2)CC1

>  <Energy>  (7) 
87.41025854903613

>  <Genealogy>  (7) 
CN1CCN(C(=O)c2cccc(C3=Nc4ccc(C#Cc5ccccc5)cc4[N-]C(=O)C3)c2)CC1 (protonated)
CN1CCN(C(=O)c2cccc(C3=CC(=O)[N-]c4cc(C#Cc5ccccc5)ccc4N3)c2)CC1 (tautomer)
CN1CCN(C(=O)c2cccc(C3=CC(=O)[N-]c4cc(C#Cc5ccccc5)ccc4N3)c2)CC1 (3D coordinates assigned)
CN1CCN(C(=O)c2cccc(C3=CC(=O)[N-]c4cc(C#Cc5ccccc5)ccc4N3)c2)CC1 (nonaromatic ring conformer: 87.41025854903613 kcal/mol)

>  <smiles>  (7) 
CN1CCN(C(=O)c2cccc(C3=Nc4ccc(C#Cc5ccccc5)cc4NC(=O)C3)c2)CC1

>  <score_type>  (7) 
oracle

>  <origin>  (7) 
autodockgpu

>  <m_score__min__energy>  (7) 
-6.1799999999999997

>  <m_primary>  (7) 
energy

>  <meeko>  (7) 
{"free_energy": -5.0, "intermolecular_energy": -7.98, "internal_energy": -1.43, "cluster_size": 1, "cluster_id": 6, "rank_in_cluster": 1}

>  <energy>  (7) 
-5.59

>  <cluster_rmsd>  (7) 
0.0

>  <rmsd>  (7) 
270.81

>  <cluster>  (7) 
2

$$$$
NQSIIFRRCFYKTO-OOGIUIOONA-M
     RDKit          3D

 60 64  0  0  0  0  0  0  0  0999 V2000
  143.8550   76.0610  214.4360 C   0  0  0  0  0  0  0  0  0  0  0  0
  143.9570   75.7170  215.8700 N   0  0  0  0  0  0  0  0  0  0  0  0
  142.9670   76.4910  216.6510 C   0  0  0  0  0  0  0  0  0  0  0  0
  143.1430   76.2070  218.1510 C   0  0  0  0  0  0  0  0  0  0  0  0
  143.1080   74.7600  218.4020 N   0  0  0  0  0  0  0  0  0  0  0  0
  142.8170   74.2910  219.7450 C   0  0  0  0  0  0  0  0  0  0  0  0
  143.3990   73.2710  220.2000 O   0  0  0  0  0  0  0  0  0  0  0  0
  141.8190   74.9690  220.5940 C   0  0  0  0  0  0  0  0  0  0  0  0
  140.7410   74.2410  221.1250 C   0  0  0  0  0  0  0  0  0  0  0  0
  139.7660   74.8850  221.8940 C   0  0  0  0  0  0  0  0  0  0  0  0
  139.8430   76.2650  222.1070 C   0  0  0  0  0  0  0  0  0  0  0  0
  140.9080   77.0140  221.5630 C   0  0  0  0  0  0  0  0  0  0  0  0
  140.9450   78.4950  221.6810 C   0  0  0  0  0  0  0  0  0  0  0  0
  139.7340   79.2190  221.4390 N   0  0  0  0  0  0  0  0  0  0  0  0
  138.9860   79.8290  222.4950 C   0  0  0  0  0  0  0  0  0  0  0  0
  137.6470   79.4560  222.6720 C   0  0  0  0  0  0  0  0  0  0  0  0
  136.9040   79.9600  223.7410 C   0  0  0  0  0  0  0  0  0  0  0  0
  137.4980   80.8230  224.6610 C   0  0  0  0  0  0  0  0  0  0  0  0
  136.7480   81.3090  225.7900 C   0  0  0  0  0  0  0  0  0  0  0  0
  136.1180   81.7080  226.7380 C   0  0  0  0  0  0  0  0  0  0  0  0
  135.3580   82.1840  227.8630 C   0  0  0  0  0  0  0  0  0  0  0  0
  135.4670   81.5410  229.1040 C   0  0  0  0  0  0  0  0  0  0  0  0
  134.7230   82.0030  230.1960 C   0  0  0  0  0  0  0  0  0  0  0  0
  133.8620   83.0940  230.0460 C   0  0  0  0  0  0  0  0  0  0  0  0
  133.7500   83.7330  228.8080 C   0  0  0  0  0  0  0  0  0  0  0  0
  134.4990   83.2810  227.7170 C   0  0  0  0  0  0  0  0  0  0  0  0
  138.8380   81.1870  224.5010 C   0  0  0  0  0  0  0  0  0  0  0  0
  139.5850   80.7120  223.4150 C   0  0  0  0  0  0  0  0  0  0  0  0
  140.9720   81.0570  223.3620 N   0  0  0  0  0  0  0  0  0  0  0  0
  142.0950   80.2180  223.0780 C   0  0  0  0  0  0  0  0  0  0  0  0
  143.1940   80.4950  223.6240 O   0  0  0  0  0  0  0  0  0  0  0  0
  142.0650   79.1070  222.1130 C   0  0  0  0  0  0  0  0  0  0  0  0
  141.9000   76.3530  220.8120 C   0  0  0  0  0  0  0  0  0  0  0  0
  143.9060   73.8900  217.5240 C   0  0  0  0  0  0  0  0  0  0  0  0
  143.7160   74.2730  216.0570 C   0  0  0  0  0  0  0  0  0  0  0  0
  143.5437   77.1109  214.3320 H   0  0  0  0  0  0  0  0  0  0  0  0
  144.8338   75.9194  213.9544 H   0  0  0  0  0  0  0  0  0  0  0  0
  143.1116   75.4087  213.9544 H   0  0  0  0  0  0  0  0  0  0  0  0
  143.1144   77.5649  216.4638 H   0  0  0  0  0  0  0  0  0  0  0  0
  141.9532   76.1946  216.3438 H   0  0  0  0  0  0  0  0  0  0  0  0
  144.1100   76.6104  218.4860 H   0  0  0  0  0  0  0  0  0  0  0  0
  142.3230   76.6869  218.7053 H   0  0  0  0  0  0  0  0  0  0  0  0
  140.6634   73.1603  220.9353 H   0  0  0  0  0  0  0  0  0  0  0  0
  138.9390   74.3061  222.3310 H   0  0  0  0  0  0  0  0  0  0  0  0
  139.0682   76.7700  222.7026 H   0  0  0  0  0  0  0  0  0  0  0  0
  139.6200   79.6290  220.4830 H   0  0  0  0  0  0  0  0  0  0  0  0
  137.1769   78.7596  221.9620 H   0  0  0  0  0  0  0  0  0  0  0  0
  135.8478   79.6757  223.8577 H   0  0  0  0  0  0  0  0  0  0  0  0
  136.1357   80.6753  229.2194 H   0  0  0  0  0  0  0  0  0  0  0  0
  134.8160   81.5069  231.1734 H   0  0  0  0  0  0  0  0  0  0  0  0
  133.2719   83.4500  230.9033 H   0  0  0  0  0  0  0  0  0  0  0  0
  133.0725   84.5917  228.6918 H   0  0  0  0  0  0  0  0  0  0  0  0
  134.4137   83.7869  226.7440 H   0  0  0  0  0  0  0  0  0  0  0  0
  139.3116   81.8541  225.2363 H   0  0  0  0  0  0  0  0  0  0  0  0
  143.0268   78.7504  221.7156 H   0  0  0  0  0  0  0  0  0  0  0  0
  142.7421   76.9245  220.3945 H   0  0  0  0  0  0  0  0  0  0  0  0
  144.9692   73.9905  217.7875 H   0  0  0  0  0  0  0  0  0  0  0  0
  143.5722   72.8510  217.6617 H   0  0  0  0  0  0  0  0  0  0  0  0
  144.4252   73.7035  215.4384 H   0  0  0  0  0  0  0  0  0  0  0  0
  142.6836   74.0404  215.7570 H   0  0  0  0  0  0  0  0  0  0  0  0
  1  2  1  0
  2  3  1  0
  3  4  1  0
  4  5  1  0
  5  6  1  0
  6  7  2  0
  6  8  1  0
  8  9  2  0
  9 10  1  0
 10 11  2  0
 11 12  1  0
 12 13  1  0
 13 14  1  0
 14 15  1  0
 15 16  2  0
 16 17  1  0
 17 18  2  0
 18 19  1  0
 19 20  3  0
 20 21  1  0
 21 22  2  0
 22 23  1  0
 23 24  2  0
 24 25  1  0
 25 26  2  0
 18 27  1  0
 27 28  2  0
 28 29  1  0
 29 30  1  0
 30 31  2  0
 30 32  1  0
 12 33  2  0
  5 34  1  0
 34 35  1  0
 35  2  1  0
 33  8  1  0
 32 13  2  0
 28 15  1  0
 26 21  1  0
  1 36  1  0
  1 37  1  0
  1 38  1  0
  3 39  1  0
  3 40  1  0
  4 41  1  0
  4 42  1  0
  9 43  1  0
 10 44  1  0
 11 45  1  0
 14 46  1  0
 16 47  1  0
 17 48  1  0
 22 49  1  0
 23 50  1  0
 24 51  1  0
 25 52  1  0
 26 53  1  0
 27 54  1  0
 32 55  1  0
 33 56  1  0
 34 57  1  0
 34 58  1  0
 35 59  1  0
 35 60  1  0
M  CHG  1  29  -1
M  END
>  <UniqueID>  (8) 
35

>  <SMILES>  (8) 
CN1CCN(C(=O)c2cccc(C3=CC(=O)[N-]c4cc(C#Cc5ccccc5)ccc4N3)c2)CC1

>  <Energy>  (8) 
87.41025854903613

>  <Genealogy>  (8) 
CN1CCN(C(=O)c2cccc(C3=Nc4ccc(C#Cc5ccccc5)cc4[N-]C(=O)C3)c2)CC1 (protonated)
CN1CCN(C(=O)c2cccc(C3=CC(=O)[N-]c4cc(C#Cc5ccccc5)ccc4N3)c2)CC1 (tautomer)
CN1CCN(C(=O)c2cccc(C3=CC(=O)[N-]c4cc(C#Cc5ccccc5)ccc4N3)c2)CC1 (3D coordinates assigned)
CN1CCN(C(=O)c2cccc(C3=CC(=O)[N-]c4cc(C#Cc5ccccc5)ccc4N3)c2)CC1 (nonaromatic ring conformer: 87.41025854903613 kcal/mol)

>  <smiles>  (8) 
CN1CCN(C(=O)c2cccc(C3=Nc4ccc(C#Cc5ccccc5)cc4NC(=O)C3)c2)CC1

>  <score_type>  (8) 
oracle

>  <origin>  (8) 
autodockgpu

>  <m_score__min__energy>  (8) 
-6.1799999999999997

>  <m_primary>  (8) 
energy

>  <meeko>  (8) 
{"free_energy": -4.94, "intermolecular_energy": -7.92, "internal_energy": -1.22, "cluster_size": 1, "cluster_id": 7, "rank_in_cluster": 1}

>  <energy>  (8) 
-5.56

>  <cluster_rmsd>  (8) 
1.76

>  <rmsd>  (8) 
271.05

>  <cluster>  (8) 
2

$$$$
NQSIIFRRCFYKTO-OOGIUIOONA-M
     RDKit          3D

 60 64  0  0  0  0  0  0  0  0999 V2000
  139.8630   79.4170  223.5910 C   0  0  0  0  0  0  0  0  0  0  0  0
  140.8880   79.4550  222.5260 N   0  0  0  0  0  0  0  0  0  0  0  0
  140.7780   78.2520  221.6720 C   0  0  0  0  0  0  0  0  0  0  0  0
  141.9060   78.2440  220.6290 C   0  0  0  0  0  0  0  0  0  0  0  0
  141.9210   79.5090  219.8840 N   0  0  0  0  0  0  0  0  0  0  0  0
  142.5870   79.5550  218.5960 C   0  0  0  0  0  0  0  0  0  0  0  0
  143.2260   80.5830  218.2480 O   0  0  0  0  0  0  0  0  0  0  0  0
  142.5090   78.4230  217.6530 C   0  0  0  0  0  0  0  0  0  0  0  0
  142.0240   78.6270  216.3510 C   0  0  0  0  0  0  0  0  0  0  0  0
  141.9040   77.5510  215.4640 C   0  0  0  0  0  0  0  0  0  0  0  0
  142.2360   76.2600  215.8850 C   0  0  0  0  0  0  0  0  0  0  0  0
  142.7060   76.0340  217.1960 C   0  0  0  0  0  0  0  0  0  0  0  0
  142.9550   74.6570  217.6970 C   0  0  0  0  0  0  0  0  0  0  0  0
  141.8230   73.8620  218.0670 N   0  0  0  0  0  0  0  0  0  0  0  0
  141.6290   73.3870  219.4020 C   0  0  0  0  0  0  0  0  0  0  0  0
  140.3720   73.5520  219.9980 C   0  0  0  0  0  0  0  0  0  0  0  0
  140.1110   73.0280  221.2650 C   0  0  0  0  0  0  0  0  0  0  0  0
  141.0960   72.3100  221.9420 C   0  0  0  0  0  0  0  0  0  0  0  0
  140.8170   71.7290  223.2290 C   0  0  0  0  0  0  0  0  0  0  0  0
  140.5920   71.2420  224.3090 C   0  0  0  0  0  0  0  0  0  0  0  0
  140.3320   70.6620  225.6000 C   0  0  0  0  0  0  0  0  0  0  0  0
  140.5790   71.4030  226.7640 C   0  0  0  0  0  0  0  0  0  0  0  0
  140.3300   70.8350  228.0180 C   0  0  0  0  0  0  0  0  0  0  0  0
  139.8510   69.5250  228.1120 C   0  0  0  0  0  0  0  0  0  0  0  0
  139.6070   68.7840  226.9520 C   0  0  0  0  0  0  0  0  0  0  0  0
  139.8460   69.3510  225.6960 C   0  0  0  0  0  0  0  0  0  0  0  0
  142.3480   72.1260  221.3470 C   0  0  0  0  0  0  0  0  0  0  0  0
  142.6310   72.6740  220.0890 C   0  0  0  0  0  0  0  0  0  0  0  0
  143.9010   72.3730  219.5050 N   0  0  0  0  0  0  0  0  0  0  0  0
  144.7260   73.1960  218.6750 C   0  0  0  0  0  0  0  0  0  0  0  0
  145.9700   73.1580  218.8530 O   0  0  0  0  0  0  0  0  0  0  0  0
  144.1980   74.1530  217.6890 C   0  0  0  0  0  0  0  0  0  0  0  0
  142.8480   77.1270  218.0740 C   0  0  0  0  0  0  0  0  0  0  0  0
  141.8160   80.7600  220.6530 C   0  0  0  0  0  0  0  0  0  0  0  0
  140.7090   80.6650  221.7020 C   0  0  0  0  0  0  0  0  0  0  0  0
  140.3553   79.4353  224.5745 H   0  0  0  0  0  0  0  0  0  0  0  0
  139.2023   80.2913  223.4954 H   0  0  0  0  0  0  0  0  0  0  0  0
  139.2689   78.4962  223.4954 H   0  0  0  0  0  0  0  0  0  0  0  0
  140.8552   77.3516  222.2991 H   0  0  0  0  0  0  0  0  0  0  0  0
  139.8074   78.2637  221.1545 H   0  0  0  0  0  0  0  0  0  0  0  0
  142.8713   78.1123  221.1397 H   0  0  0  0  0  0  0  0  0  0  0  0
  141.7359   77.4163  219.9247 H   0  0  0  0  0  0  0  0  0  0  0  0
  141.7368   79.6380  216.0265 H   0  0  0  0  0  0  0  0  0  0  0  0
  141.5489   77.7210  214.4369 H   0  0  0  0  0  0  0  0  0  0  0  0
  142.1301   75.4145  215.1894 H   0  0  0  0  0  0  0  0  0  0  0  0
  140.9660   73.9700  217.4750 H   0  0  0  0  0  0  0  0  0  0  0  0
  139.5829   74.0999  219.4622 H   0  0  0  0  0  0  0  0  0  0  0  0
  139.1262   73.1818  221.7304 H   0  0  0  0  0  0  0  0  0  0  0  0
  140.9680   72.4294  226.6915 H   0  0  0  0  0  0  0  0  0  0  0  0
  140.5114   71.4202  228.9316 H   0  0  0  0  0  0  0  0  0  0  0  0
  139.6660   69.0770  229.0994 H   0  0  0  0  0  0  0  0  0  0  0  0
  139.2269   67.7545  227.0271 H   0  0  0  0  0  0  0  0  0  0  0  0
  139.6525   68.7680  224.7835 H   0  0  0  0  0  0  0  0  0  0  0  0
  143.1196   71.5443  221.8727 H   0  0  0  0  0  0  0  0  0  0  0  0
  144.8739   74.4795  216.8849 H   0  0  0  0  0  0  0  0  0  0  0  0
  143.2262   76.9642  219.0940 H   0  0  0  0  0  0  0  0  0  0  0  0
  142.7741   80.9541  221.1573 H   0  0  0  0  0  0  0  0  0  0  0  0
  141.5734   81.5789  219.9598 H   0  0  0  0  0  0  0  0  0  0  0  0
  140.7451   81.5536  222.3493 H   0  0  0  0  0  0  0  0  0  0  0  0
  139.7360   80.6101  221.1918 H   0  0  0  0  0  0  0  0  0  0  0  0
  1  2  1  0
  2  3  1  0
  3  4  1  0
  4  5  1  0
  5  6  1  0
  6  7  2  0
  6  8  1  0
  8  9  2  0
  9 10  1  0
 10 11  2  0
 11 12  1  0
 12 13  1  0
 13 14  1  0
 14 15  1  0
 15 16  2  0
 16 17  1  0
 17 18  2  0
 18 19  1  0
 19 20  3  0
 20 21  1  0
 21 22  2  0
 22 23  1  0
 23 24  2  0
 24 25  1  0
 25 26  2  0
 18 27  1  0
 27 28  2  0
 28 29  1  0
 29 30  1  0
 30 31  2  0
 30 32  1  0
 12 33  2  0
  5 34  1  0
 34 35  1  0
 35  2  1  0
 33  8  1  0
 32 13  2  0
 28 15  1  0
 26 21  1  0
  1 36  1  0
  1 37  1  0
  1 38  1  0
  3 39  1  0
  3 40  1  0
  4 41  1  0
  4 42  1  0
  9 43  1  0
 10 44  1  0
 11 45  1  0
 14 46  1  0
 16 47  1  0
 17 48  1  0
 22 49  1  0
 23 50  1  0
 24 51  1  0
 25 52  1  0
 26 53  1  0
 27 54  1  0
 32 55  1  0
 33 56  1  0
 34 57  1  0
 34 58  1  0
 35 59  1  0
 35 60  1  0
M  CHG  1  29  -1
M  END
>  <UniqueID>  (9) 
35

>  <SMILES>  (9) 
CN1CCN(C(=O)c2cccc(C3=CC(=O)[N-]c4cc(C#Cc5ccccc5)ccc4N3)c2)CC1

>  <Energy>  (9) 
87.41025854903613

>  <Genealogy>  (9) 
CN1CCN(C(=O)c2cccc(C3=Nc4ccc(C#Cc5ccccc5)cc4[N-]C(=O)C3)c2)CC1 (protonated)
CN1CCN(C(=O)c2cccc(C3=CC(=O)[N-]c4cc(C#Cc5ccccc5)ccc4N3)c2)CC1 (tautomer)
CN1CCN(C(=O)c2cccc(C3=CC(=O)[N-]c4cc(C#Cc5ccccc5)ccc4N3)c2)CC1 (3D coordinates assigned)
CN1CCN(C(=O)c2cccc(C3=CC(=O)[N-]c4cc(C#Cc5ccccc5)ccc4N3)c2)CC1 (nonaromatic ring conformer: 87.41025854903613 kcal/mol)

>  <smiles>  (9) 
CN1CCN(C(=O)c2cccc(C3=Nc4ccc(C#Cc5ccccc5)cc4NC(=O)C3)c2)CC1

>  <score_type>  (9) 
oracle

>  <origin>  (9) 
autodockgpu

>  <m_score__min__energy>  (9) 
-6.1799999999999997

>  <m_primary>  (9) 
energy

>  <meeko>  (9) 
{"free_energy": -6.18, "intermolecular_energy": -9.16, "internal_energy": -1.27, "cluster_size": 6, "cluster_id": 1, "rank_in_cluster": 1}

>  <energy>  (9) 
-5.46

>  <cluster_rmsd>  (9) 
0.52

>  <rmsd>  (9) 
270.84

>  <cluster>  (9) 
2

$$$$
NQSIIFRRCFYKTO-OOGIUIOONA-M
     RDKit          3D

 60 64  0  0  0  0  0  0  0  0999 V2000
  136.5800   79.7500  223.7580 C   0  0  0  0  0  0  0  0  0  0  0  0
  138.0270   79.6350  223.4790 N   0  0  0  0  0  0  0  0  0  0  0  0
  138.2460   78.8480  222.2450 C   0  0  0  0  0  0  0  0  0  0  0  0
  139.7510   78.6440  222.0130 C   0  0  0  0  0  0  0  0  0  0  0  0
  140.4490   79.9360  222.0340 N   0  0  0  0  0  0  0  0  0  0  0  0
  141.7590   80.0330  221.4170 C   0  0  0  0  0  0  0  0  0  0  0  0
  142.6520   80.7570  221.9320 O   0  0  0  0  0  0  0  0  0  0  0  0
  142.0710   79.3190  220.1640 C   0  0  0  0  0  0  0  0  0  0  0  0
  142.1750   80.0310  218.9580 C   0  0  0  0  0  0  0  0  0  0  0  0
  142.4250   79.3570  217.7580 C   0  0  0  0  0  0  0  0  0  0  0  0
  142.5380   77.9630  217.7510 C   0  0  0  0  0  0  0  0  0  0  0  0
  142.4160   77.2300  218.9510 C   0  0  0  0  0  0  0  0  0  0  0  0
  142.4180   75.7430  218.9470 C   0  0  0  0  0  0  0  0  0  0  0  0
  141.2030   75.0690  219.2910 N   0  0  0  0  0  0  0  0  0  0  0  0
  141.1050   74.2080  220.4290 C   0  0  0  0  0  0  0  0  0  0  0  0
  140.0210   74.3700  221.3030 C   0  0  0  0  0  0  0  0  0  0  0  0
  139.8390   73.4990  222.3780 C   0  0  0  0  0  0  0  0  0  0  0  0
  140.7230   72.4390  222.5790 C   0  0  0  0  0  0  0  0  0  0  0  0
  140.5120   71.5110  223.6590 C   0  0  0  0  0  0  0  0  0  0  0  0
  140.3260   70.7350  224.5630 C   0  0  0  0  0  0  0  0  0  0  0  0
  140.0990   69.8040  225.6360 C   0  0  0  0  0  0  0  0  0  0  0  0
  139.9860   70.2670  226.9540 C   0  0  0  0  0  0  0  0  0  0  0  0
  139.7710   69.3590  227.9960 C   0  0  0  0  0  0  0  0  0  0  0  0
  139.6820   67.9900  227.7270 C   0  0  0  0  0  0  0  0  0  0  0  0
  139.7980   67.5260  226.4120 C   0  0  0  0  0  0  0  0  0  0  0  0
  140.0040   68.4320  225.3670 C   0  0  0  0  0  0  0  0  0  0  0  0
  141.7960   72.2610  221.7020 C   0  0  0  0  0  0  0  0  0  0  0  0
  142.0080   73.1470  220.6380 C   0  0  0  0  0  0  0  0  0  0  0  0
  143.0750   72.8540  219.7320 N   0  0  0  0  0  0  0  0  0  0  0  0
  143.9320   73.7600  219.0300 C   0  0  0  0  0  0  0  0  0  0  0  0
  145.1440   73.4500  218.9040 O   0  0  0  0  0  0  0  0  0  0  0  0
  143.4980   75.0730  218.5270 C   0  0  0  0  0  0  0  0  0  0  0  0
  142.1890   77.9200  220.1580 C   0  0  0  0  0  0  0  0  0  0  0  0
  140.1270   80.8740  223.1210 C   0  0  0  0  0  0  0  0  0  0  0  0
  138.6160   80.9780  223.3220 C   0  0  0  0  0  0  0  0  0  0  0  0
  136.4162   79.7630  224.8457 H   0  0  0  0  0  0  0  0  0  0  0  0
  136.1946   80.6816  223.3180 H   0  0  0  0  0  0  0  0  0  0  0  0
  136.0523   78.8910  223.3180 H   0  0  0  0  0  0  0  0  0  0  0  0
  137.7567   77.8680  222.3461 H   0  0  0  0  0  0  0  0  0  0  0  0
  137.8188   79.3913  221.3892 H   0  0  0  0  0  0  0  0  0  0  0  0
  140.1566   77.9994  222.8067 H   0  0  0  0  0  0  0  0  0  0  0  0
  139.9012   78.1717  221.0310 H   0  0  0  0  0  0  0  0  0  0  0  0
  142.0592   81.1249  218.9570 H   0  0  0  0  0  0  0  0  0  0  0  0
  142.5326   79.9228  216.8208 H   0  0  0  0  0  0  0  0  0  0  0  0
  142.7231   77.4345  216.8042 H   0  0  0  0  0  0  0  0  0  0  0  0
  140.3150   75.5110  218.9560 H   0  0  0  0  0  0  0  0  0  0  0  0
  139.3074   75.1911  221.1399 H   0  0  0  0  0  0  0  0  0  0  0  0
  138.9961   73.6488  223.0687 H   0  0  0  0  0  0  0  0  0  0  0  0
  140.0663   71.3429  227.1687 H   0  0  0  0  0  0  0  0  0  0  0  0
  139.6717   69.7229  229.0293 H   0  0  0  0  0  0  0  0  0  0  0  0
  139.5208   67.2774  228.5493 H   0  0  0  0  0  0  0  0  0  0  0  0
  139.7272   66.4489  226.2004 H   0  0  0  0  0  0  0  0  0  0  0  0
  140.0916   68.0674  224.3329 H   0  0  0  0  0  0  0  0  0  0  0  0
  142.4829   71.4145  221.8489 H   0  0  0  0  0  0  0  0  0  0  0  0
  144.1104   75.5417  217.7426 H   0  0  0  0  0  0  0  0  0  0  0  0
  142.1037   77.3597  221.1008 H   0  0  0  0  0  0  0  0  0  0  0  0
  140.5906   80.5181  224.0529 H   0  0  0  0  0  0  0  0  0  0  0  0
  140.5151   81.8680  222.8539 H   0  0  0  0  0  0  0  0  0  0  0  0
  138.4100   81.5724  224.2244 H   0  0  0  0  0  0  0  0  0  0  0  0
  138.1704   81.4635  222.4412 H   0  0  0  0  0  0  0  0  0  0  0  0
  1  2  1  0
  2  3  1  0
  3  4  1  0
  4  5  1  0
  5  6  1  0
  6  7  2  0
  6  8  1  0
  8  9  2  0
  9 10  1  0
 10 11  2  0
 11 12  1  0
 12 13  1  0
 13 14  1  0
 14 15  1  0
 15 16  2  0
 16 17  1  0
 17 18  2  0
 18 19  1  0
 19 20  3  0
 20 21  1  0
 21 22  2  0
 22 23  1  0
 23 24  2  0
 24 25  1  0
 25 26  2  0
 18 27  1  0
 27 28  2  0
 28 29  1  0
 29 30  1  0
 30 31  2  0
 30 32  1  0
 12 33  2  0
  5 34  1  0
 34 35  1  0
 35  2  1  0
 33  8  1  0
 32 13  2  0
 28 15  1  0
 26 21  1  0
  1 36  1  0
  1 37  1  0
  1 38  1  0
  3 39  1  0
  3 40  1  0
  4 41  1  0
  4 42  1  0
  9 43  1  0
 10 44  1  0
 11 45  1  0
 14 46  1  0
 16 47  1  0
 17 48  1  0
 22 49  1  0
 23 50  1  0
 24 51  1  0
 25 52  1  0
 26 53  1  0
 27 54  1  0
 32 55  1  0
 33 56  1  0
 34 57  1  0
 34 58  1  0
 35 59  1  0
 35 60  1  0
M  CHG  1  29  -1
M  END
>  <UniqueID>  (10) 
35

>  <SMILES>  (10) 
CN1CCN(C(=O)c2cccc(C3=CC(=O)[N-]c4cc(C#Cc5ccccc5)ccc4N3)c2)CC1

>  <Energy>  (10) 
87.41025854903613

>  <Genealogy>  (10) 
CN1CCN(C(=O)c2cccc(C3=Nc4ccc(C#Cc5ccccc5)cc4[N-]C(=O)C3)c2)CC1 (protonated)
CN1CCN(C(=O)c2cccc(C3=CC(=O)[N-]c4cc(C#Cc5ccccc5)ccc4N3)c2)CC1 (tautomer)
CN1CCN(C(=O)c2cccc(C3=CC(=O)[N-]c4cc(C#Cc5ccccc5)ccc4N3)c2)CC1 (3D coordinates assigned)
CN1CCN(C(=O)c2cccc(C3=CC(=O)[N-]c4cc(C#Cc5ccccc5)ccc4N3)c2)CC1 (nonaromatic ring conformer: 87.41025854903613 kcal/mol)

>  <smiles>  (10) 
CN1CCN(C(=O)c2cccc(C3=Nc4ccc(C#Cc5ccccc5)cc4NC(=O)C3)c2)CC1

>  <score_type>  (10) 
oracle

>  <origin>  (10) 
autodockgpu

>  <m_score__min__energy>  (10) 
-6.1799999999999997

>  <m_primary>  (10) 
energy

>  <meeko>  (10) 
{"free_energy": -5.86, "intermolecular_energy": -8.84, "internal_energy": -1.39, "cluster_size": 6, "cluster_id": 1, "rank_in_cluster": 5}

>  <energy>  (10) 
-5.24

>  <cluster_rmsd>  (10) 
0.45

>  <rmsd>  (10) 
270.85

>  <cluster>  (10) 
2

$$$$
NQSIIFRRCFYKTO-OOGIUIOONA-M
     RDKit          3D

 60 64  0  0  0  0  0  0  0  0999 V2000
  136.7280   80.6630  224.4780 C   0  0  0  0  0  0  0  0  0  0  0  0
  138.0500   80.1470  224.0660 N   0  0  0  0  0  0  0  0  0  0  0  0
  137.9260   79.3710  222.8130 C   0  0  0  0  0  0  0  0  0  0  0  0
  139.2830   78.7530  222.4420 C   0  0  0  0  0  0  0  0  0  0  0  0
  140.3230   79.7890  222.4060 N   0  0  0  0  0  0  0  0  0  0  0  0
  141.5470   79.5260  221.6720 C   0  0  0  0  0  0  0  0  0  0  0  0
  142.6510   79.9480  222.1080 O   0  0  0  0  0  0  0  0  0  0  0  0
  141.5300   78.7940  220.3920 C   0  0  0  0  0  0  0  0  0  0  0  0
  142.1490   79.3480  219.2590 C   0  0  0  0  0  0  0  0  0  0  0  0
  142.0980   78.6820  218.0290 C   0  0  0  0  0  0  0  0  0  0  0  0
  141.4000   77.4760  217.9170 C   0  0  0  0  0  0  0  0  0  0  0  0
  140.7560   76.9150  219.0400 C   0  0  0  0  0  0  0  0  0  0  0  0
  139.9150   75.6960  218.9150 C   0  0  0  0  0  0  0  0  0  0  0  0
  140.5650   74.4220  218.9790 N   0  0  0  0  0  0  0  0  0  0  0  0
  140.4630   73.5710  220.1250 C   0  0  0  0  0  0  0  0  0  0  0  0
  141.6390   73.1740  220.7740 C   0  0  0  0  0  0  0  0  0  0  0  0
  141.5840   72.4150  221.9440 C   0  0  0  0  0  0  0  0  0  0  0  0
  140.3510   72.0650  222.4940 C   0  0  0  0  0  0  0  0  0  0  0  0
  140.2900   71.3210  223.7250 C   0  0  0  0  0  0  0  0  0  0  0  0
  140.2450   70.6920  224.7540 C   0  0  0  0  0  0  0  0  0  0  0  0
  140.1830   69.9470  225.9820 C   0  0  0  0  0  0  0  0  0  0  0  0
  139.9620   68.5630  225.9520 C   0  0  0  0  0  0  0  0  0  0  0  0
  139.8970   67.8410  227.1480 C   0  0  0  0  0  0  0  0  0  0  0  0
  140.0390   68.4990  228.3730 C   0  0  0  0  0  0  0  0  0  0  0  0
  140.2560   69.8800  228.4050 C   0  0  0  0  0  0  0  0  0  0  0  0
  140.3310   70.6040  227.2110 C   0  0  0  0  0  0  0  0  0  0  0  0
  139.1730   72.4710  221.8620 C   0  0  0  0  0  0  0  0  0  0  0  0
  139.2160   73.2070  220.6700 C   0  0  0  0  0  0  0  0  0  0  0  0
  137.9740   73.6600  220.1250 N   0  0  0  0  0  0  0  0  0  0  0  0
  137.6400   74.9490  219.6020 C   0  0  0  0  0  0  0  0  0  0  0  0
  136.4500   75.3430  219.7130 O   0  0  0  0  0  0  0  0  0  0  0  0
  138.5840   75.8030  218.8620 C   0  0  0  0  0  0  0  0  0  0  0  0
  140.8330   77.5800  220.2800 C   0  0  0  0  0  0  0  0  0  0  0  0
  140.3790   80.7440  223.5240 C   0  0  0  0  0  0  0  0  0  0  0  0
  138.9850   81.2700  223.8640 C   0  0  0  0  0  0  0  0  0  0  0  0
  136.6693   80.6859  225.5762 H   0  0  0  0  0  0  0  0  0  0  0  0
  136.5919   81.6803  224.0822 H   0  0  0  0  0  0  0  0  0  0  0  0
  135.9387   80.0069  224.0822 H   0  0  0  0  0  0  0  0  0  0  0  0
  137.1863   78.5689  222.9528 H   0  0  0  0  0  0  0  0  0  0  0  0
  137.6007   80.0411  222.0036 H   0  0  0  0  0  0  0  0  0  0  0  0
  139.5529   77.9940  223.1911 H   0  0  0  0  0  0  0  0  0  0  0  0
  139.2050   78.2902  221.4472 H   0  0  0  0  0  0  0  0  0  0  0  0
  142.6764   80.3100  219.3390 H   0  0  0  0  0  0  0  0  0  0  0  0
  142.6067   79.1072  217.1513 H   0  0  0  0  0  0  0  0  0  0  0  0
  141.3525   76.9607  216.9463 H   0  0  0  0  0  0  0  0  0  0  0  0
  140.7720   73.9590  218.0640 H   0  0  0  0  0  0  0  0  0  0  0  0
  142.6152   73.4632  220.3576 H   0  0  0  0  0  0  0  0  0  0  0  0
  142.5148   72.0922  222.4333 H   0  0  0  0  0  0  0  0  0  0  0  0
  139.8399   68.0456  224.9890 H   0  0  0  0  0  0  0  0  0  0  0  0
  139.7338   66.7534  227.1246 H   0  0  0  0  0  0  0  0  0  0  0  0
  139.9800   67.9300  229.3126 H   0  0  0  0  0  0  0  0  0  0  0  0
  140.3677   70.3969  229.3695 H   0  0  0  0  0  0  0  0  0  0  0  0
  140.5062   71.6897  227.2364 H   0  0  0  0  0  0  0  0  0  0  0  0
  138.2006   72.2100  222.3050 H   0  0  0  0  0  0  0  0  0  0  0  0
  138.1620   76.5879  218.2172 H   0  0  0  0  0  0  0  0  0  0  0  0
  140.3446   77.1459  221.1649 H   0  0  0  0  0  0  0  0  0  0  0  0
  140.7988   80.2401  224.4071 H   0  0  0  0  0  0  0  0  0  0  0  0
  141.0121   81.5936  223.2284 H   0  0  0  0  0  0  0  0  0  0  0  0
  139.0377   81.8687  224.7853 H   0  0  0  0  0  0  0  0  0  0  0  0
  138.6238   81.8914  223.0313 H   0  0  0  0  0  0  0  0  0  0  0  0
  1  2  1  0
  2  3  1  0
  3  4  1  0
  4  5  1  0
  5  6  1  0
  6  7  2  0
  6  8  1  0
  8  9  2  0
  9 10  1  0
 10 11  2  0
 11 12  1  0
 12 13  1  0
 13 14  1  0
 14 15  1  0
 15 16  2  0
 16 17  1  0
 17 18  2  0
 18 19  1  0
 19 20  3  0
 20 21  1  0
 21 22  2  0
 22 23  1  0
 23 24  2  0
 24 25  1  0
 25 26  2  0
 18 27  1  0
 27 28  2  0
 28 29  1  0
 29 30  1  0
 30 31  2  0
 30 32  1  0
 12 33  2  0
  5 34  1  0
 34 35  1  0
 35  2  1  0
 33  8  1  0
 32 13  2  0
 28 15  1  0
 26 21  1  0
  1 36  1  0
  1 37  1  0
  1 38  1  0
  3 39  1  0
  3 40  1  0
  4 41  1  0
  4 42  1  0
  9 43  1  0
 10 44  1  0
 11 45  1  0
 14 46  1  0
 16 47  1  0
 17 48  1  0
 22 49  1  0
 23 50  1  0
 24 51  1  0
 25 52  1  0
 26 53  1  0
 27 54  1  0
 32 55  1  0
 33 56  1  0
 34 57  1  0
 34 58  1  0
 35 59  1  0
 35 60  1  0
M  CHG  1  29  -1
M  END
>  <UniqueID>  (11) 
35

>  <SMILES>  (11) 
CN1CCN(C(=O)c2cccc(C3=CC(=O)[N-]c4cc(C#Cc5ccccc5)ccc4N3)c2)CC1

>  <Energy>  (11) 
87.41025854903613

>  <Genealogy>  (11) 
CN1CCN(C(=O)c2cccc(C3=Nc4ccc(C#Cc5ccccc5)cc4[N-]C(=O)C3)c2)CC1 (protonated)
CN1CCN(C(=O)c2cccc(C3=CC(=O)[N-]c4cc(C#Cc5ccccc5)ccc4N3)c2)CC1 (tautomer)
CN1CCN(C(=O)c2cccc(C3=CC(=O)[N-]c4cc(C#Cc5ccccc5)ccc4N3)c2)CC1 (3D coordinates assigned)
CN1CCN(C(=O)c2cccc(C3=CC(=O)[N-]c4cc(C#Cc5ccccc5)ccc4N3)c2)CC1 (nonaromatic ring conformer: 87.41025854903613 kcal/mol)

>  <smiles>  (11) 
CN1CCN(C(=O)c2cccc(C3=Nc4ccc(C#Cc5ccccc5)cc4NC(=O)C3)c2)CC1

>  <score_type>  (11) 
oracle

>  <origin>  (11) 
autodockgpu

>  <m_score__min__energy>  (11) 
-6.1799999999999997

>  <m_primary>  (11) 
energy

>  <meeko>  (11) 
{"free_energy": -4.77, "intermolecular_energy": -7.75, "internal_energy": -1.3, "cluster_size": 2, "cluster_id": 4, "rank_in_cluster": 2}

>  <energy>  (11) 
-5.1

>  <cluster_rmsd>  (11) 
0.0

>  <rmsd>  (11) 
269.51

>  <cluster>  (11) 
3

$$$$
NQSIIFRRCFYKTO-OOGIUIOONA-M
     RDKit          3D

 60 64  0  0  0  0  0  0  0  0999 V2000
  141.0690   70.8640  227.8680 C   0  0  0  0  0  0  0  0  0  0  0  0
  140.1930   70.6270  226.7020 N   0  0  0  0  0  0  0  0  0  0  0  0
  141.0070   70.4730  225.4770 C   0  0  0  0  0  0  0  0  0  0  0  0
  140.0910   70.3280  224.2520 C   0  0  0  0  0  0  0  0  0  0  0  0
  139.1190   69.2480  224.4680 N   0  0  0  0  0  0  0  0  0  0  0  0
  138.4670   68.6550  223.3150 C   0  0  0  0  0  0  0  0  0  0  0  0
  137.2600   68.3000  223.3820 O   0  0  0  0  0  0  0  0  0  0  0  0
  139.1990   68.4220  222.0560 C   0  0  0  0  0  0  0  0  0  0  0  0
  139.2980   67.1220  221.5330 C   0  0  0  0  0  0  0  0  0  0  0  0
  140.0290   66.8850  220.3630 C   0  0  0  0  0  0  0  0  0  0  0  0
  140.6930   67.9390  219.7290 C   0  0  0  0  0  0  0  0  0  0  0  0
  140.6200   69.2470  220.2530 C   0  0  0  0  0  0  0  0  0  0  0  0
  141.4110   70.3580  219.6600 C   0  0  0  0  0  0  0  0  0  0  0  0
  140.6980   71.4660  219.1000 N   0  0  0  0  0  0  0  0  0  0  0  0
  140.8240   72.7930  219.6190 C   0  0  0  0  0  0  0  0  0  0  0  0
  139.6850   73.4230  220.1390 C   0  0  0  0  0  0  0  0  0  0  0  0
  139.7780   74.6820  220.7330 C   0  0  0  0  0  0  0  0  0  0  0  0
  141.0150   75.3190  220.8360 C   0  0  0  0  0  0  0  0  0  0  0  0
  141.1210   76.5970  221.4890 C   0  0  0  0  0  0  0  0  0  0  0  0
  141.2200   77.6680  222.0350 C   0  0  0  0  0  0  0  0  0  0  0  0
  141.3360   78.9410  222.6940 C   0  0  0  0  0  0  0  0  0  0  0  0
  140.1830   79.6250  223.1050 C   0  0  0  0  0  0  0  0  0  0  0  0
  140.2990   80.8660  223.7410 C   0  0  0  0  0  0  0  0  0  0  0  0
  141.5590   81.4300  223.9540 C   0  0  0  0  0  0  0  0  0  0  0  0
  142.7100   80.7510  223.5420 C   0  0  0  0  0  0  0  0  0  0  0  0
  142.5990   79.5060  222.9140 C   0  0  0  0  0  0  0  0  0  0  0  0
  142.1580   74.6910  220.3340 C   0  0  0  0  0  0  0  0  0  0  0  0
  142.0720   73.4400  219.7080 C   0  0  0  0  0  0  0  0  0  0  0  0
  143.2930   72.8200  219.2960 N   0  0  0  0  0  0  0  0  0  0  0  0
  143.6230   71.4290  219.2470 C   0  0  0  0  0  0  0  0  0  0  0  0
  144.6870   71.0930  218.6670 O   0  0  0  0  0  0  0  0  0  0  0  0
  142.7450   70.3610  219.7540 C   0  0  0  0  0  0  0  0  0  0  0  0
  139.8610   69.4820  221.4160 C   0  0  0  0  0  0  0  0  0  0  0  0
  138.4140   69.2060  225.7580 C   0  0  0  0  0  0  0  0  0  0  0  0
  139.3870   69.4110  226.9190 C   0  0  0  0  0  0  0  0  0  0  0  0
  140.4964   70.7091  228.7943 H   0  0  0  0  0  0  0  0  0  0  0  0
  141.9160   70.1627  227.8389 H   0  0  0  0  0  0  0  0  0  0  0  0
  141.4468   71.8967  227.8389 H   0  0  0  0  0  0  0  0  0  0  0  0
  141.6465   71.3591  225.3508 H   0  0  0  0  0  0  0  0  0  0  0  0
  141.6315   69.5722  225.5694 H   0  0  0  0  0  0  0  0  0  0  0  0
  139.5528   71.2731  224.0873 H   0  0  0  0  0  0  0  0  0  0  0  0
  140.7053   70.0862  223.3721 H   0  0  0  0  0  0  0  0  0  0  0  0
  138.7987   66.2864  222.0453 H   0  0  0  0  0  0  0  0  0  0  0  0
  140.0809   65.8698  219.9427 H   0  0  0  0  0  0  0  0  0  0  0  0
  141.2760   67.7476  218.8160 H   0  0  0  0  0  0  0  0  0  0  0  0
  140.4110   71.3760  218.0980 H   0  0  0  0  0  0  0  0  0  0  0  0
  138.7086   72.9201  220.0782 H   0  0  0  0  0  0  0  0  0  0  0  0
  138.8738   75.1736  221.1211 H   0  0  0  0  0  0  0  0  0  0  0  0
  139.1896   79.1870  222.9279 H   0  0  0  0  0  0  0  0  0  0  0  0
  139.3959   81.3986  224.0740 H   0  0  0  0  0  0  0  0  0  0  0  0
  141.6460   82.4097  224.4465 H   0  0  0  0  0  0  0  0  0  0  0  0
  143.7018   81.1955  223.7116 H   0  0  0  0  0  0  0  0  0  0  0  0
  143.5042   78.9701  222.5926 H   0  0  0  0  0  0  0  0  0  0  0  0
  143.1364   75.1842  220.4313 H   0  0  0  0  0  0  0  0  0  0  0  0
  143.2222   69.5012  220.2470 H   0  0  0  0  0  0  0  0  0  0  0  0
  139.7865   70.5005  221.8247 H   0  0  0  0  0  0  0  0  0  0  0  0
  137.6550   70.0019  225.7795 H   0  0  0  0  0  0  0  0  0  0  0  0
  137.9399   68.2194  225.8671 H   0  0  0  0  0  0  0  0  0  0  0  0
  138.8185   69.5146  227.8550 H   0  0  0  0  0  0  0  0  0  0  0  0
  140.0590   68.5423  226.9807 H   0  0  0  0  0  0  0  0  0  0  0  0
  1  2  1  0
  2  3  1  0
  3  4  1  0
  4  5  1  0
  5  6  1  0
  6  7  2  0
  6  8  1  0
  8  9  2  0
  9 10  1  0
 10 11  2  0
 11 12  1  0
 12 13  1  0
 13 14  1  0
 14 15  1  0
 15 16  2  0
 16 17  1  0
 17 18  2  0
 18 19  1  0
 19 20  3  0
 20 21  1  0
 21 22  2  0
 22 23  1  0
 23 24  2  0
 24 25  1  0
 25 26  2  0
 18 27  1  0
 27 28  2  0
 28 29  1  0
 29 30  1  0
 30 31  2  0
 30 32  1  0
 12 33  2  0
  5 34  1  0
 34 35  1  0
 35  2  1  0
 33  8  1  0
 32 13  2  0
 28 15  1  0
 26 21  1  0
  1 36  1  0
  1 37  1  0
  1 38  1  0
  3 39  1  0
  3 40  1  0
  4 41  1  0
  4 42  1  0
  9 43  1  0
 10 44  1  0
 11 45  1  0
 14 46  1  0
 16 47  1  0
 17 48  1  0
 22 49  1  0
 23 50  1  0
 24 51  1  0
 25 52  1  0
 26 53  1  0
 27 54  1  0
 32 55  1  0
 33 56  1  0
 34 57  1  0
 34 58  1  0
 35 59  1  0
 35 60  1  0
M  CHG  1  29  -1
M  END
>  <UniqueID>  (12) 
35

>  <SMILES>  (12) 
CN1CCN(C(=O)c2cccc(C3=CC(=O)[N-]c4cc(C#Cc5ccccc5)ccc4N3)c2)CC1

>  <Energy>  (12) 
87.41025854903613

>  <Genealogy>  (12) 
CN1CCN(C(=O)c2cccc(C3=Nc4ccc(C#Cc5ccccc5)cc4[N-]C(=O)C3)c2)CC1 (protonated)
CN1CCN(C(=O)c2cccc(C3=CC(=O)[N-]c4cc(C#Cc5ccccc5)ccc4N3)c2)CC1 (tautomer)
CN1CCN(C(=O)c2cccc(C3=CC(=O)[N-]c4cc(C#Cc5ccccc5)ccc4N3)c2)CC1 (3D coordinates assigned)
CN1CCN(C(=O)c2cccc(C3=CC(=O)[N-]c4cc(C#Cc5ccccc5)ccc4N3)c2)CC1 (nonaromatic ring conformer: 87.41025854903613 kcal/mol)

>  <smiles>  (12) 
CN1CCN(C(=O)c2cccc(C3=Nc4ccc(C#Cc5ccccc5)cc4NC(=O)C3)c2)CC1

>  <score_type>  (12) 
oracle

>  <origin>  (12) 
autodockgpu

>  <m_score__min__energy>  (12) 
-6.1799999999999997

>  <m_primary>  (12) 
energy

>  <meeko>  (12) 
{"free_energy": -5.08, "intermolecular_energy": -8.06, "internal_energy": -1.32, "cluster_size": 1, "cluster_id": 5, "rank_in_cluster": 1}

>  <energy>  (12) 
-5.08

>  <cluster_rmsd>  (12) 
0.0

>  <rmsd>  (12) 
269.95

>  <cluster>  (12) 
4

$$$$
NQSIIFRRCFYKTO-OOGIUIOONA-M
     RDKit          3D

 60 64  0  0  0  0  0  0  0  0999 V2000
  136.3490   79.9510  223.7940 C   0  0  0  0  0  0  0  0  0  0  0  0
  137.8000   79.8280  223.5410 N   0  0  0  0  0  0  0  0  0  0  0  0
  138.0350   79.1200  222.2630 C   0  0  0  0  0  0  0  0  0  0  0  0
  139.5410   78.9040  222.0520 C   0  0  0  0  0  0  0  0  0  0  0  0
  140.2610   80.1780  222.1740 N   0  0  0  0  0  0  0  0  0  0  0  0
  141.5870   80.2910  221.5940 C   0  0  0  0  0  0  0  0  0  0  0  0
  142.4790   80.9630  222.1770 O   0  0  0  0  0  0  0  0  0  0  0  0
  141.9150   79.6550  220.3050 C   0  0  0  0  0  0  0  0  0  0  0  0
  142.1130   80.4480  219.1630 C   0  0  0  0  0  0  0  0  0  0  0  0
  142.3810   79.8510  217.9260 C   0  0  0  0  0  0  0  0  0  0  0  0
  142.4180   78.4570  217.8170 C   0  0  0  0  0  0  0  0  0  0  0  0
  142.2020   77.6460  218.9500 C   0  0  0  0  0  0  0  0  0  0  0  0
  142.1240   76.1660  218.8330 C   0  0  0  0  0  0  0  0  0  0  0  0
  140.9140   75.5220  219.2480 N   0  0  0  0  0  0  0  0  0  0  0  0
  140.8840   74.5750  220.3200 C   0  0  0  0  0  0  0  0  0  0  0  0
  139.9010   74.7120  221.3100 C   0  0  0  0  0  0  0  0  0  0  0  0
  139.7800   73.7630  222.3260 C   0  0  0  0  0  0  0  0  0  0  0  0
  140.6230   72.6520  222.3520 C   0  0  0  0  0  0  0  0  0  0  0  0
  140.4710   71.6480  223.3720 C   0  0  0  0  0  0  0  0  0  0  0  0
  140.3520   70.8080  224.2300 C   0  0  0  0  0  0  0  0  0  0  0  0
  140.2030   69.8040  225.2490 C   0  0  0  0  0  0  0  0  0  0  0  0
  140.7960   69.9880  226.5060 C   0  0  0  0  0  0  0  0  0  0  0  0
  140.6530   69.0080  227.4940 C   0  0  0  0  0  0  0  0  0  0  0  0
  139.9340   67.8400  227.2250 C   0  0  0  0  0  0  0  0  0  0  0  0
  139.3450   67.6540  225.9700 C   0  0  0  0  0  0  0  0  0  0  0  0
  139.4770   68.6360  224.9830 C   0  0  0  0  0  0  0  0  0  0  0  0
  141.5940   72.5000  221.3590 C   0  0  0  0  0  0  0  0  0  0  0  0
  141.7460   73.4620  220.3510 C   0  0  0  0  0  0  0  0  0  0  0  0
  142.7030   73.1980  219.3210 N   0  0  0  0  0  0  0  0  0  0  0  0
  143.5340   74.1190  218.6100 C   0  0  0  0  0  0  0  0  0  0  0  0
  144.7140   73.7710  218.3480 O   0  0  0  0  0  0  0  0  0  0  0  0
  143.1210   75.4850  218.2490 C   0  0  0  0  0  0  0  0  0  0  0  0
  141.9590   78.2560  220.1970 C   0  0  0  0  0  0  0  0  0  0  0  0
  139.9280   81.0490  223.3130 C   0  0  0  0  0  0  0  0  0  0  0  0
  138.4150   81.1680  223.4860 C   0  0  0  0  0  0  0  0  0  0  0  0
  136.1659   79.9665  224.8786 H   0  0  0  0  0  0  0  0  0  0  0  0
  135.9764   80.8839  223.3459 H   0  0  0  0  0  0  0  0  0  0  0  0
  135.8247   79.0941  223.3459 H   0  0  0  0  0  0  0  0  0  0  0  0
  137.5270   78.1447  222.2880 H   0  0  0  0  0  0  0  0  0  0  0  0
  137.6375   79.7263  221.4357 H   0  0  0  0  0  0  0  0  0  0  0  0
  139.9164   78.2010  222.8102 H   0  0  0  0  0  0  0  0  0  0  0  0
  139.7059   78.4951  221.0442 H   0  0  0  0  0  0  0  0  0  0  0  0
  142.0572   81.5438  219.2412 H   0  0  0  0  0  0  0  0  0  0  0  0
  142.5624   80.4774  217.0402 H   0  0  0  0  0  0  0  0  0  0  0  0
  142.6169   77.9904  216.8410 H   0  0  0  0  0  0  0  0  0  0  0  0
  140.0230   76.0310  219.0420 H   0  0  0  0  0  0  0  0  0  0  0  0
  139.2192   75.5749  221.2858 H   0  0  0  0  0  0  0  0  0  0  0  0
  139.0177   73.8915  223.1085 H   0  0  0  0  0  0  0  0  0  0  0  0
  141.3726   70.9012  226.7149 H   0  0  0  0  0  0  0  0  0  0  0  0
  141.1074   69.1570  228.4846 H   0  0  0  0  0  0  0  0  0  0  0  0
  139.8313   67.0667  228.0006 H   0  0  0  0  0  0  0  0  0  0  0  0
  138.7779   66.7353  225.7593 H   0  0  0  0  0  0  0  0  0  0  0  0
  139.0105   68.4911  223.9974 H   0  0  0  0  0  0  0  0  0  0  0  0
  142.2470   71.6148  221.3684 H   0  0  0  0  0  0  0  0  0  0  0  0
  143.6719   75.9852  217.4388 H   0  0  0  0  0  0  0  0  0  0  0  0
  141.8031   77.6329  221.0900 H   0  0  0  0  0  0  0  0  0  0  0  0
  140.3628   80.6244  224.2299 H   0  0  0  0  0  0  0  0  0  0  0  0
  140.3390   82.0510  223.1203 H   0  0  0  0  0  0  0  0  0  0  0  0
  138.1976   81.7059  224.4206 H   0  0  0  0  0  0  0  0  0  0  0  0
  137.9986   81.7184  222.6294 H   0  0  0  0  0  0  0  0  0  0  0  0
  1  2  1  0
  2  3  1  0
  3  4  1  0
  4  5  1  0
  5  6  1  0
  6  7  2  0
  6  8  1  0
  8  9  2  0
  9 10  1  0
 10 11  2  0
 11 12  1  0
 12 13  1  0
 13 14  1  0
 14 15  1  0
 15 16  2  0
 16 17  1  0
 17 18  2  0
 18 19  1  0
 19 20  3  0
 20 21  1  0
 21 22  2  0
 22 23  1  0
 23 24  2  0
 24 25  1  0
 25 26  2  0
 18 27  1  0
 27 28  2  0
 28 29  1  0
 29 30  1  0
 30 31  2  0
 30 32  1  0
 12 33  2  0
  5 34  1  0
 34 35  1  0
 35  2  1  0
 33  8  1  0
 32 13  2  0
 28 15  1  0
 26 21  1  0
  1 36  1  0
  1 37  1  0
  1 38  1  0
  3 39  1  0
  3 40  1  0
  4 41  1  0
  4 42  1  0
  9 43  1  0
 10 44  1  0
 11 45  1  0
 14 46  1  0
 16 47  1  0
 17 48  1  0
 22 49  1  0
 23 50  1  0
 24 51  1  0
 25 52  1  0
 26 53  1  0
 27 54  1  0
 32 55  1  0
 33 56  1  0
 34 57  1  0
 34 58  1  0
 35 59  1  0
 35 60  1  0
M  CHG  1  29  -1
M  END
>  <UniqueID>  (13) 
35

>  <SMILES>  (13) 
CN1CCN(C(=O)c2cccc(C3=CC(=O)[N-]c4cc(C#Cc5ccccc5)ccc4N3)c2)CC1

>  <Energy>  (13) 
87.41025854903613

>  <Genealogy>  (13) 
CN1CCN(C(=O)c2cccc(C3=Nc4ccc(C#Cc5ccccc5)cc4[N-]C(=O)C3)c2)CC1 (protonated)
CN1CCN(C(=O)c2cccc(C3=CC(=O)[N-]c4cc(C#Cc5ccccc5)ccc4N3)c2)CC1 (tautomer)
CN1CCN(C(=O)c2cccc(C3=CC(=O)[N-]c4cc(C#Cc5ccccc5)ccc4N3)c2)CC1 (3D coordinates assigned)
CN1CCN(C(=O)c2cccc(C3=CC(=O)[N-]c4cc(C#Cc5ccccc5)ccc4N3)c2)CC1 (nonaromatic ring conformer: 87.41025854903613 kcal/mol)

>  <smiles>  (13) 
CN1CCN(C(=O)c2cccc(C3=Nc4ccc(C#Cc5ccccc5)cc4NC(=O)C3)c2)CC1

>  <score_type>  (13) 
oracle

>  <origin>  (13) 
autodockgpu

>  <m_score__min__energy>  (13) 
-6.1799999999999997

>  <m_primary>  (13) 
energy

>  <meeko>  (13) 
{"free_energy": -6.06, "intermolecular_energy": -9.04, "internal_energy": -1.38, "cluster_size": 6, "cluster_id": 1, "rank_in_cluster": 3}

>  <energy>  (13) 
-4.77

>  <cluster_rmsd>  (13) 
1.06

>  <rmsd>  (13) 
269.9

>  <cluster>  (13) 
4

$$$$
NQSIIFRRCFYKTO-OOGIUIOONA-M
     RDKit          3D

 60 64  0  0  0  0  0  0  0  0999 V2000
  138.9890   85.2630  220.8900 C   0  0  0  0  0  0  0  0  0  0  0  0
  140.1590   84.5540  220.3310 N   0  0  0  0  0  0  0  0  0  0  0  0
  139.9240   83.0930  220.3480 C   0  0  0  0  0  0  0  0  0  0  0  0
  141.1800   82.3540  219.8620 C   0  0  0  0  0  0  0  0  0  0  0  0
  141.6060   82.8780  218.5580 N   0  0  0  0  0  0  0  0  0  0  0  0
  142.4720   82.0630  217.7260 C   0  0  0  0  0  0  0  0  0  0  0  0
  143.3780   82.6010  217.0340 O   0  0  0  0  0  0  0  0  0  0  0  0
  142.2990   80.6010  217.6410 C   0  0  0  0  0  0  0  0  0  0  0  0
  142.1910   79.9790  216.3870 C   0  0  0  0  0  0  0  0  0  0  0  0
  141.9810   78.5980  216.2980 C   0  0  0  0  0  0  0  0  0  0  0  0
  141.8430   77.8370  217.4630 C   0  0  0  0  0  0  0  0  0  0  0  0
  141.9290   78.4490  218.7310 C   0  0  0  0  0  0  0  0  0  0  0  0
  141.6710   77.6790  219.9760 C   0  0  0  0  0  0  0  0  0  0  0  0
  142.0870   78.2540  221.2200 N   0  0  0  0  0  0  0  0  0  0  0  0
  141.1560   78.8220  222.1450 C   0  0  0  0  0  0  0  0  0  0  0  0
  141.3180   80.1610  222.5240 C   0  0  0  0  0  0  0  0  0  0  0  0
  140.3860   80.7820  223.3570 C   0  0  0  0  0  0  0  0  0  0  0  0
  139.2660   80.0790  223.8010 C   0  0  0  0  0  0  0  0  0  0  0  0
  138.2790   80.7290  224.6230 C   0  0  0  0  0  0  0  0  0  0  0  0
  137.4560   81.2710  225.3190 C   0  0  0  0  0  0  0  0  0  0  0  0
  136.4700   81.9100  226.1480 C   0  0  0  0  0  0  0  0  0  0  0  0
  135.7340   82.9960  225.6520 C   0  0  0  0  0  0  0  0  0  0  0  0
  134.7790   83.6190  226.4620 C   0  0  0  0  0  0  0  0  0  0  0  0
  134.5680   83.1710  227.7690 C   0  0  0  0  0  0  0  0  0  0  0  0
  135.3030   82.0910  228.2660 C   0  0  0  0  0  0  0  0  0  0  0  0
  136.2530   81.4590  227.4570 C   0  0  0  0  0  0  0  0  0  0  0  0
  139.0890   78.7480  223.4150 C   0  0  0  0  0  0  0  0  0  0  0  0
  140.0340   78.1050  222.6050 C   0  0  0  0  0  0  0  0  0  0  0  0
  139.7450   76.7700  222.1800 N   0  0  0  0  0  0  0  0  0  0  0  0
  139.8830   76.1920  220.8780 C   0  0  0  0  0  0  0  0  0  0  0  0
  139.0890   75.2730  220.5520 O   0  0  0  0  0  0  0  0  0  0  0  0
  140.9550   76.5470  219.9340 C   0  0  0  0  0  0  0  0  0  0  0  0
  142.1660   79.8360  218.8110 C   0  0  0  0  0  0  0  0  0  0  0  0
  141.6620   84.3390  218.3900 C   0  0  0  0  0  0  0  0  0  0  0  0
  140.4020   85.0010  218.9470 C   0  0  0  0  0  0  0  0  0  0  0  0
  139.0342   85.2356  221.9887 H   0  0  0  0  0  0  0  0  0  0  0  0
  138.9964   86.3087  220.5487 H   0  0  0  0  0  0  0  0  0  0  0  0
  138.0655   84.7724  220.5487 H   0  0  0  0  0  0  0  0  0  0  0  0
  139.6874   82.7739  221.3738 H   0  0  0  0  0  0  0  0  0  0  0  0
  139.0831   82.8544  219.6802 H   0  0  0  0  0  0  0  0  0  0  0  0
  141.9901   82.4958  220.5925 H   0  0  0  0  0  0  0  0  0  0  0  0
  140.9486   81.2835  219.7596 H   0  0  0  0  0  0  0  0  0  0  0  0
  142.2718   80.5802  215.4694 H   0  0  0  0  0  0  0  0  0  0  0  0
  141.9246   78.1119  215.3128 H   0  0  0  0  0  0  0  0  0  0  0  0
  141.6662   76.7538  217.3901 H   0  0  0  0  0  0  0  0  0  0  0  0
  142.9920   77.9050  221.6140 H   0  0  0  0  0  0  0  0  0  0  0  0
  142.1880   80.7283  222.1616 H   0  0  0  0  0  0  0  0  0  0  0  0
  140.5350   81.8277  223.6639 H   0  0  0  0  0  0  0  0  0  0  0  0
  135.9075   83.3572  224.6276 H   0  0  0  0  0  0  0  0  0  0  0  0
  134.1929   84.4631  226.0697 H   0  0  0  0  0  0  0  0  0  0  0  0
  133.8229   83.6688  228.4070 H   0  0  0  0  0  0  0  0  0  0  0  0
  135.1342   81.7379  229.2940 H   0  0  0  0  0  0  0  0  0  0  0  0
  136.8298   80.6080  227.8482 H   0  0  0  0  0  0  0  0  0  0  0  0
  138.1973   78.1985  223.7510 H   0  0  0  0  0  0  0  0  0  0  0  0
  141.1859   75.8288  219.1335 H   0  0  0  0  0  0  0  0  0  0  0  0
  142.2472   80.3216  219.7947 H   0  0  0  0  0  0  0  0  0  0  0  0
  142.5404   84.7295  218.9247 H   0  0  0  0  0  0  0  0  0  0  0  0
  141.7331   84.5667  217.3162 H   0  0  0  0  0  0  0  0  0  0  0  0
  140.5306   86.0934  218.9357 H   0  0  0  0  0  0  0  0  0  0  0  0
  139.5422   84.7166  218.3226 H   0  0  0  0  0  0  0  0  0  0  0  0
  1  2  1  0
  2  3  1  0
  3  4  1  0
  4  5  1  0
  5  6  1  0
  6  7  2  0
  6  8  1  0
  8  9  2  0
  9 10  1  0
 10 11  2  0
 11 12  1  0
 12 13  1  0
 13 14  1  0
 14 15  1  0
 15 16  2  0
 16 17  1  0
 17 18  2  0
 18 19  1  0
 19 20  3  0
 20 21  1  0
 21 22  2  0
 22 23  1  0
 23 24  2  0
 24 25  1  0
 25 26  2  0
 18 27  1  0
 27 28  2  0
 28 29  1  0
 29 30  1  0
 30 31  2  0
 30 32  1  0
 12 33  2  0
  5 34  1  0
 34 35  1  0
 35  2  1  0
 33  8  1  0
 32 13  2  0
 28 15  1  0
 26 21  1  0
  1 36  1  0
  1 37  1  0
  1 38  1  0
  3 39  1  0
  3 40  1  0
  4 41  1  0
  4 42  1  0
  9 43  1  0
 10 44  1  0
 11 45  1  0
 14 46  1  0
 16 47  1  0
 17 48  1  0
 22 49  1  0
 23 50  1  0
 24 51  1  0
 25 52  1  0
 26 53  1  0
 27 54  1  0
 32 55  1  0
 33 56  1  0
 34 57  1  0
 34 58  1  0
 35 59  1  0
 35 60  1  0
M  CHG  1  29  -1
M  END
>  <UniqueID>  (14) 
35

>  <SMILES>  (14) 
CN1CCN(C(=O)c2cccc(C3=CC(=O)[N-]c4cc(C#Cc5ccccc5)ccc4N3)c2)CC1

>  <Energy>  (14) 
87.41025854903613

>  <Genealogy>  (14) 
CN1CCN(C(=O)c2cccc(C3=Nc4ccc(C#Cc5ccccc5)cc4[N-]C(=O)C3)c2)CC1 (protonated)
CN1CCN(C(=O)c2cccc(C3=CC(=O)[N-]c4cc(C#Cc5ccccc5)ccc4N3)c2)CC1 (tautomer)
CN1CCN(C(=O)c2cccc(C3=CC(=O)[N-]c4cc(C#Cc5ccccc5)ccc4N3)c2)CC1 (3D coordinates assigned)
CN1CCN(C(=O)c2cccc(C3=CC(=O)[N-]c4cc(C#Cc5ccccc5)ccc4N3)c2)CC1 (nonaromatic ring conformer: 87.41025854903613 kcal/mol)

>  <smiles>  (14) 
CN1CCN(C(=O)c2cccc(C3=Nc4ccc(C#Cc5ccccc5)cc4NC(=O)C3)c2)CC1

>  <score_type>  (14) 
oracle

>  <origin>  (14) 
autodockgpu

>  <m_score__min__energy>  (14) 
-6.1799999999999997

>  <m_primary>  (14) 
energy

>  <meeko>  (14) 
{"free_energy": -4.52, "intermolecular_energy": -7.5, "internal_energy": -1.62, "cluster_size": 1, "cluster_id": 9, "rank_in_cluster": 1}

>  <energy>  (14) 
-5.08

>  <cluster_rmsd>  (14) 
0.0

>  <rmsd>  (14) 
269.58

>  <cluster>  (14) 
5

$$$$
NQSIIFRRCFYKTO-OOGIUIOONA-M
     RDKit          3D

 60 64  0  0  0  0  0  0  0  0999 V2000
  137.3790   81.1190  225.2040 C   0  0  0  0  0  0  0  0  0  0  0  0
  138.4240   81.2660  224.1690 N   0  0  0  0  0  0  0  0  0  0  0  0
  138.8890   79.9340  223.7230 C   0  0  0  0  0  0  0  0  0  0  0  0
  140.0440   80.0900  222.7210 C   0  0  0  0  0  0  0  0  0  0  0  0
  139.6510   80.9860  221.6270 N   0  0  0  0  0  0  0  0  0  0  0  0
  140.3910   80.9320  220.3790 C   0  0  0  0  0  0  0  0  0  0  0  0
  140.6160   81.9870  219.7280 O   0  0  0  0  0  0  0  0  0  0  0  0
  140.8680   79.6500  219.8260 C   0  0  0  0  0  0  0  0  0  0  0  0
  142.1120   79.5860  219.1790 C   0  0  0  0  0  0  0  0  0  0  0  0
  142.5520   78.3850  218.6120 C   0  0  0  0  0  0  0  0  0  0  0  0
  141.7360   77.2500  218.6580 C   0  0  0  0  0  0  0  0  0  0  0  0
  140.4740   77.3030  219.2870 C   0  0  0  0  0  0  0  0  0  0  0  0
  139.5450   76.1430  219.2470 C   0  0  0  0  0  0  0  0  0  0  0  0
  140.1130   74.8310  219.1620 N   0  0  0  0  0  0  0  0  0  0  0  0
  140.1240   73.9330  220.2750 C   0  0  0  0  0  0  0  0  0  0  0  0
  141.3540   73.4370  220.7270 C   0  0  0  0  0  0  0  0  0  0  0  0
  141.4210   72.6270  221.8610 C   0  0  0  0  0  0  0  0  0  0  0  0
  140.2610   72.3210  222.5730 C   0  0  0  0  0  0  0  0  0  0  0  0
  140.3320   71.5230  223.7690 C   0  0  0  0  0  0  0  0  0  0  0  0
  140.3830   70.8510  224.7690 C   0  0  0  0  0  0  0  0  0  0  0  0
  140.4370   70.0430  225.9580 C   0  0  0  0  0  0  0  0  0  0  0  0
  140.0780   68.6890  225.9030 C   0  0  0  0  0  0  0  0  0  0  0  0
  140.1270   67.9070  227.0620 C   0  0  0  0  0  0  0  0  0  0  0  0
  140.5180   68.4780  228.2770 C   0  0  0  0  0  0  0  0  0  0  0  0
  140.8740   69.8290  228.3340 C   0  0  0  0  0  0  0  0  0  0  0  0
  140.8350   70.6120  227.1750 C   0  0  0  0  0  0  0  0  0  0  0  0
  139.0320   72.8250  222.1390 C   0  0  0  0  0  0  0  0  0  0  0  0
  138.9490   73.6140  220.9840 C   0  0  0  0  0  0  0  0  0  0  0  0
  137.6720   74.1650  220.6470 N   0  0  0  0  0  0  0  0  0  0  0  0
  137.3490   75.4960  220.2350 C   0  0  0  0  0  0  0  0  0  0  0  0
  136.2160   75.9500  220.5380 O   0  0  0  0  0  0  0  0  0  0  0  0
  138.2270   76.3310  219.4000 C   0  0  0  0  0  0  0  0  0  0  0  0
  140.0500   78.5100  219.8780 C   0  0  0  0  0  0  0  0  0  0  0  0
  138.9820   82.2480  221.9790 C   0  0  0  0  0  0  0  0  0  0  0  0
  137.8860   82.0140  223.0170 C   0  0  0  0  0  0  0  0  0  0  0  0
  137.8389   81.1837  226.2012 H   0  0  0  0  0  0  0  0  0  0  0  0
  136.6351   81.9214  225.0905 H   0  0  0  0  0  0  0  0  0  0  0  0
  136.8853   80.1426  225.0905 H   0  0  0  0  0  0  0  0  0  0  0  0
  139.2371   79.3591  224.5938 H   0  0  0  0  0  0  0  0  0  0  0  0
  138.0567   79.4049  223.2358 H   0  0  0  0  0  0  0  0  0  0  0  0
  140.9189   80.5107  223.2382 H   0  0  0  0  0  0  0  0  0  0  0  0
  140.2919   79.1028  222.3038 H   0  0  0  0  0  0  0  0  0  0  0  0
  142.7439   80.4843  219.1175 H   0  0  0  0  0  0  0  0  0  0  0  0
  143.5395   78.3334  218.1301 H   0  0  0  0  0  0  0  0  0  0  0  0
  142.0801   76.3104  218.2011 H   0  0  0  0  0  0  0  0  0  0  0  0
  140.1530   74.4020  218.2080 H   0  0  0  0  0  0  0  0  0  0  0  0
  142.2760   73.6887  220.1824 H   0  0  0  0  0  0  0  0  0  0  0  0
  142.3907   72.2288  222.1944 H   0  0  0  0  0  0  0  0  0  0  0  0
  139.7583   68.2421  224.9501 H   0  0  0  0  0  0  0  0  0  0  0  0
  139.8575   66.8414  227.0174 H   0  0  0  0  0  0  0  0  0  0  0  0
  140.5456   67.8637  229.1890 H   0  0  0  0  0  0  0  0  0  0  0  0
  141.1846   70.2762  229.2898 H   0  0  0  0  0  0  0  0  0  0  0  0
  141.1168   71.6744  227.2193 H   0  0  0  0  0  0  0  0  0  0  0  0
  138.1195   72.5998  222.7105 H   0  0  0  0  0  0  0  0  0  0  0  0
  137.7671   77.1725  218.8611 H   0  0  0  0  0  0  0  0  0  0  0  0
  139.0737   78.5593  220.3824 H   0  0  0  0  0  0  0  0  0  0  0  0
  139.7250   82.9465  222.3913 H   0  0  0  0  0  0  0  0  0  0  0  0
  138.5224   82.6667  221.0715 H   0  0  0  0  0  0  0  0  0  0  0  0
  137.5001   82.9844  223.3625 H   0  0  0  0  0  0  0  0  0  0  0  0
  137.0761   81.4289  222.5569 H   0  0  0  0  0  0  0  0  0  0  0  0
  1  2  1  0
  2  3  1  0
  3  4  1  0
  4  5  1  0
  5  6  1  0
  6  7  2  0
  6  8  1  0
  8  9  2  0
  9 10  1  0
 10 11  2  0
 11 12  1  0
 12 13  1  0
 13 14  1  0
 14 15  1  0
 15 16  2  0
 16 17  1  0
 17 18  2  0
 18 19  1  0
 19 20  3  0
 20 21  1  0
 21 22  2  0
 22 23  1  0
 23 24  2  0
 24 25  1  0
 25 26  2  0
 18 27  1  0
 27 28  2  0
 28 29  1  0
 29 30  1  0
 30 31  2  0
 30 32  1  0
 12 33  2  0
  5 34  1  0
 34 35  1  0
 35  2  1  0
 33  8  1  0
 32 13  2  0
 28 15  1  0
 26 21  1  0
  1 36  1  0
  1 37  1  0
  1 38  1  0
  3 39  1  0
  3 40  1  0
  4 41  1  0
  4 42  1  0
  9 43  1  0
 10 44  1  0
 11 45  1  0
 14 46  1  0
 16 47  1  0
 17 48  1  0
 22 49  1  0
 23 50  1  0
 24 51  1  0
 25 52  1  0
 26 53  1  0
 27 54  1  0
 32 55  1  0
 33 56  1  0
 34 57  1  0
 34 58  1  0
 35 59  1  0
 35 60  1  0
M  CHG  1  29  -1
M  END
>  <UniqueID>  (15) 
35

>  <SMILES>  (15) 
CN1CCN(C(=O)c2cccc(C3=CC(=O)[N-]c4cc(C#Cc5ccccc5)ccc4N3)c2)CC1

>  <Energy>  (15) 
87.41025854903613

>  <Genealogy>  (15) 
CN1CCN(C(=O)c2cccc(C3=Nc4ccc(C#Cc5ccccc5)cc4[N-]C(=O)C3)c2)CC1 (protonated)
CN1CCN(C(=O)c2cccc(C3=CC(=O)[N-]c4cc(C#Cc5ccccc5)ccc4N3)c2)CC1 (tautomer)
CN1CCN(C(=O)c2cccc(C3=CC(=O)[N-]c4cc(C#Cc5ccccc5)ccc4N3)c2)CC1 (3D coordinates assigned)
CN1CCN(C(=O)c2cccc(C3=CC(=O)[N-]c4cc(C#Cc5ccccc5)ccc4N3)c2)CC1 (nonaromatic ring conformer: 87.41025854903613 kcal/mol)

>  <smiles>  (15) 
CN1CCN(C(=O)c2cccc(C3=Nc4ccc(C#Cc5ccccc5)cc4NC(=O)C3)c2)CC1

>  <score_type>  (15) 
oracle

>  <origin>  (15) 
autodockgpu

>  <m_score__min__energy>  (15) 
-6.1799999999999997

>  <m_primary>  (15) 
energy

>  <meeko>  (15) 
{"free_energy": -5.08, "intermolecular_energy": -8.06, "internal_energy": -1.43, "cluster_size": 2, "cluster_id": 4, "rank_in_cluster": 1}

>  <energy>  (15) 
-5.0

>  <cluster_rmsd>  (15) 
0.0

>  <rmsd>  (15) 
271.05

>  <cluster>  (15) 
6

$$$$
NQSIIFRRCFYKTO-OOGIUIOONA-M
     RDKit          3D

 60 64  0  0  0  0  0  0  0  0999 V2000
  139.8020   79.4040  223.5660 C   0  0  0  0  0  0  0  0  0  0  0  0
  140.8130   79.4270  222.4880 N   0  0  0  0  0  0  0  0  0  0  0  0
  140.6860   78.2180  221.6450 C   0  0  0  0  0  0  0  0  0  0  0  0
  141.8020   78.1940  220.5890 C   0  0  0  0  0  0  0  0  0  0  0  0
  141.8150   79.4540  219.8340 N   0  0  0  0  0  0  0  0  0  0  0  0
  142.4660   79.4850  218.5370 C   0  0  0  0  0  0  0  0  0  0  0  0
  143.1070   80.5070  218.1740 O   0  0  0  0  0  0  0  0  0  0  0  0
  142.3700   78.3470  217.6040 C   0  0  0  0  0  0  0  0  0  0  0  0
  141.8510   78.5400  216.3140 C   0  0  0  0  0  0  0  0  0  0  0  0
  141.7140   77.4570  215.4380 C   0  0  0  0  0  0  0  0  0  0  0  0
  142.0630   76.1700  215.8590 C   0  0  0  0  0  0  0  0  0  0  0  0
  142.5670   75.9560  217.1590 C   0  0  0  0  0  0  0  0  0  0  0  0
  142.8350   74.5830  217.6630 C   0  0  0  0  0  0  0  0  0  0  0  0
  141.7140   73.7750  218.0390 N   0  0  0  0  0  0  0  0  0  0  0  0
  141.5270   73.3060  219.3770 C   0  0  0  0  0  0  0  0  0  0  0  0
  140.2660   73.4520  219.9710 C   0  0  0  0  0  0  0  0  0  0  0  0
  140.0140   72.9330  221.2410 C   0  0  0  0  0  0  0  0  0  0  0  0
  141.0120   72.2380  221.9250 C   0  0  0  0  0  0  0  0  0  0  0  0
  140.7420   71.6620  223.2160 C   0  0  0  0  0  0  0  0  0  0  0  0
  140.5070   71.1830  224.2980 C   0  0  0  0  0  0  0  0  0  0  0  0
  140.2270   70.6030  225.5840 C   0  0  0  0  0  0  0  0  0  0  0  0
  140.4180   71.3580  226.7500 C   0  0  0  0  0  0  0  0  0  0  0  0
  140.1500   70.7890  228.0000 C   0  0  0  0  0  0  0  0  0  0  0  0
  139.7060   69.4670  228.0880 C   0  0  0  0  0  0  0  0  0  0  0  0
  139.5180   68.7120  226.9260 C   0  0  0  0  0  0  0  0  0  0  0  0
  139.7760   69.2790  225.6740 C   0  0  0  0  0  0  0  0  0  0  0  0
  142.2670   72.0730  221.3330 C   0  0  0  0  0  0  0  0  0  0  0  0
  142.5420   72.6170  220.0710 C   0  0  0  0  0  0  0  0  0  0  0  0
  143.8190   72.3360  219.4910 N   0  0  0  0  0  0  0  0  0  0  0  0
  144.6270   73.1680  218.6530 C   0  0  0  0  0  0  0  0  0  0  0  0
  145.8710   73.1610  218.8360 O   0  0  0  0  0  0  0  0  0  0  0  0
  144.0810   74.0980  217.6510 C   0  0  0  0  0  0  0  0  0  0  0  0
  142.7260   77.0550  218.0250 C   0  0  0  0  0  0  0  0  0  0  0  0
  141.7270   80.7110  220.5940 C   0  0  0  0  0  0  0  0  0  0  0  0
  140.6330   80.6320  221.6570 C   0  0  0  0  0  0  0  0  0  0  0  0
  140.3074   79.4155  224.5430 H   0  0  0  0  0  0  0  0  0  0  0  0
  139.1527   80.2876  223.4786 H   0  0  0  0  0  0  0  0  0  0  0  0
  139.1935   78.4918  223.4786 H   0  0  0  0  0  0  0  0  0  0  0  0
  140.7647   77.3222  222.2786 H   0  0  0  0  0  0  0  0  0  0  0  0
  139.7097   78.2320  221.1383 H   0  0  0  0  0  0  0  0  0  0  0  0
  142.7725   78.0605  221.0893 H   0  0  0  0  0  0  0  0  0  0  0  0
  141.6195   77.3614  219.8936 H   0  0  0  0  0  0  0  0  0  0  0  0
  141.5505   79.5473  215.9900 H   0  0  0  0  0  0  0  0  0  0  0  0
  141.3321   77.6181  214.4191 H   0  0  0  0  0  0  0  0  0  0  0  0
  141.9438   75.3191  215.1721 H   0  0  0  0  0  0  0  0  0  0  0  0
  140.8560   73.8660  217.4460 H   0  0  0  0  0  0  0  0  0  0  0  0
  139.4673   73.9810  219.4305 H   0  0  0  0  0  0  0  0  0  0  0  0
  139.0261   73.0720  221.7044 H   0  0  0  0  0  0  0  0  0  0  0  0
  140.7777   72.3953  226.6823 H   0  0  0  0  0  0  0  0  0  0  0  0
  140.2891   71.3835  228.9150 H   0  0  0  0  0  0  0  0  0  0  0  0
  139.5041   69.0197  229.0724 H   0  0  0  0  0  0  0  0  0  0  0  0
  139.1671   67.6719  226.9968 H   0  0  0  0  0  0  0  0  0  0  0  0
  139.6250   68.6860  224.7599 H   0  0  0  0  0  0  0  0  0  0  0  0
  143.0484   71.5094  221.8638 H   0  0  0  0  0  0  0  0  0  0  0  0
  144.7453   74.4166  216.8342 H   0  0  0  0  0  0  0  0  0  0  0  0
  143.1310   76.9010  219.0361 H   0  0  0  0  0  0  0  0  0  0  0  0
  142.6925   80.9030  221.0849 H   0  0  0  0  0  0  0  0  0  0  0  0
  141.4806   81.5256  219.8971 H   0  0  0  0  0  0  0  0  0  0  0  0
  140.6838   81.5252  222.2971 H   0  0  0  0  0  0  0  0  0  0  0  0
  139.6534   80.5804  221.1592 H   0  0  0  0  0  0  0  0  0  0  0  0
  1  2  1  0
  2  3  1  0
  3  4  1  0
  4  5  1  0
  5  6  1  0
  6  7  2  0
  6  8  1  0
  8  9  2  0
  9 10  1  0
 10 11  2  0
 11 12  1  0
 12 13  1  0
 13 14  1  0
 14 15  1  0
 15 16  2  0
 16 17  1  0
 17 18  2  0
 18 19  1  0
 19 20  3  0
 20 21  1  0
 21 22  2  0
 22 23  1  0
 23 24  2  0
 24 25  1  0
 25 26  2  0
 18 27  1  0
 27 28  2  0
 28 29  1  0
 29 30  1  0
 30 31  2  0
 30 32  1  0
 12 33  2  0
  5 34  1  0
 34 35  1  0
 35  2  1  0
 33  8  1  0
 32 13  2  0
 28 15  1  0
 26 21  1  0
  1 36  1  0
  1 37  1  0
  1 38  1  0
  3 39  1  0
  3 40  1  0
  4 41  1  0
  4 42  1  0
  9 43  1  0
 10 44  1  0
 11 45  1  0
 14 46  1  0
 16 47  1  0
 17 48  1  0
 22 49  1  0
 23 50  1  0
 24 51  1  0
 25 52  1  0
 26 53  1  0
 27 54  1  0
 32 55  1  0
 33 56  1  0
 34 57  1  0
 34 58  1  0
 35 59  1  0
 35 60  1  0
M  CHG  1  29  -1
M  END
>  <UniqueID>  (16) 
35

>  <SMILES>  (16) 
CN1CCN(C(=O)c2cccc(C3=CC(=O)[N-]c4cc(C#Cc5ccccc5)ccc4N3)c2)CC1

>  <Energy>  (16) 
87.41025854903613

>  <Genealogy>  (16) 
CN1CCN(C(=O)c2cccc(C3=Nc4ccc(C#Cc5ccccc5)cc4[N-]C(=O)C3)c2)CC1 (protonated)
CN1CCN(C(=O)c2cccc(C3=CC(=O)[N-]c4cc(C#Cc5ccccc5)ccc4N3)c2)CC1 (tautomer)
CN1CCN(C(=O)c2cccc(C3=CC(=O)[N-]c4cc(C#Cc5ccccc5)ccc4N3)c2)CC1 (3D coordinates assigned)
CN1CCN(C(=O)c2cccc(C3=CC(=O)[N-]c4cc(C#Cc5ccccc5)ccc4N3)c2)CC1 (nonaromatic ring conformer: 87.41025854903613 kcal/mol)

>  <smiles>  (16) 
CN1CCN(C(=O)c2cccc(C3=Nc4ccc(C#Cc5ccccc5)cc4NC(=O)C3)c2)CC1

>  <score_type>  (16) 
oracle

>  <origin>  (16) 
autodockgpu

>  <m_score__min__energy>  (16) 
-6.1799999999999997

>  <m_primary>  (16) 
energy

>  <meeko>  (16) 
{"free_energy": -5.94, "intermolecular_energy": -8.93, "internal_energy": -1.28, "cluster_size": 6, "cluster_id": 1, "rank_in_cluster": 4}

>  <energy>  (16) 
-4.94

>  <cluster_rmsd>  (16) 
0.0

>  <rmsd>  (16) 
271.2

>  <cluster>  (16) 
7

$$$$
NQSIIFRRCFYKTO-OOGIUIOONA-M
     RDKit          3D

 60 64  0  0  0  0  0  0  0  0999 V2000
  132.8620   74.1270  226.4850 C   0  0  0  0  0  0  0  0  0  0  0  0
  133.2770   72.9450  225.7020 N   0  0  0  0  0  0  0  0  0  0  0  0
  134.7160   73.0340  225.3700 C   0  0  0  0  0  0  0  0  0  0  0  0
  135.1220   71.8560  224.4710 C   0  0  0  0  0  0  0  0  0  0  0  0
  134.7260   70.5840  225.0890 N   0  0  0  0  0  0  0  0  0  0  0  0
  135.3770   69.3620  224.6530 C   0  0  0  0  0  0  0  0  0  0  0  0
  134.7220   68.2900  224.5660 O   0  0  0  0  0  0  0  0  0  0  0  0
  136.8170   69.3340  224.3330 C   0  0  0  0  0  0  0  0  0  0  0  0
  137.7300   68.8030  225.2590 C   0  0  0  0  0  0  0  0  0  0  0  0
  139.1020   68.8130  224.9840 C   0  0  0  0  0  0  0  0  0  0  0  0
  139.5720   69.3850  223.7970 C   0  0  0  0  0  0  0  0  0  0  0  0
  138.6700   69.9400  222.8660 C   0  0  0  0  0  0  0  0  0  0  0  0
  139.1560   70.6530  221.6550 C   0  0  0  0  0  0  0  0  0  0  0  0
  138.4080   71.7850  221.1970 N   0  0  0  0  0  0  0  0  0  0  0  0
  138.8770   73.1260  221.3640 C   0  0  0  0  0  0  0  0  0  0  0  0
  138.0720   74.0370  222.0630 C   0  0  0  0  0  0  0  0  0  0  0  0
  138.5260   75.3300  222.3250 C   0  0  0  0  0  0  0  0  0  0  0  0
  139.7990   75.7230  221.9140 C   0  0  0  0  0  0  0  0  0  0  0  0
  140.2880   77.0420  222.2220 C   0  0  0  0  0  0  0  0  0  0  0  0
  140.7060   78.1440  222.4780 C   0  0  0  0  0  0  0  0  0  0  0  0
  141.2120   79.4550  222.7820 C   0  0  0  0  0  0  0  0  0  0  0  0
  140.5160   80.5930  222.3510 C   0  0  0  0  0  0  0  0  0  0  0  0
  141.0140   81.8670  222.6440 C   0  0  0  0  0  0  0  0  0  0  0  0
  142.2110   82.0070  223.3510 C   0  0  0  0  0  0  0  0  0  0  0  0
  142.9080   80.8730  223.7790 C   0  0  0  0  0  0  0  0  0  0  0  0
  142.4090   79.5980  223.4970 C   0  0  0  0  0  0  0  0  0  0  0  0
  140.6140   74.8160  221.2310 C   0  0  0  0  0  0  0  0  0  0  0  0
  140.1580   73.5240  220.9350 C   0  0  0  0  0  0  0  0  0  0  0  0
  141.0770   72.6230  220.3100 N   0  0  0  0  0  0  0  0  0  0  0  0
  141.3460   71.2540  220.6240 C   0  0  0  0  0  0  0  0  0  0  0  0
  142.5050   70.8150  220.4100 O   0  0  0  0  0  0  0  0  0  0  0  0
  140.3240   70.3060  221.0970 C   0  0  0  0  0  0  0  0  0  0  0  0
  137.2880   69.9030  223.1390 C   0  0  0  0  0  0  0  0  0  0  0  0
  133.3660   70.4820  225.6410 C   0  0  0  0  0  0  0  0  0  0  0  0
  133.0220   71.7150  226.4760 C   0  0  0  0  0  0  0  0  0  0  0  0
  132.9411   73.9017  227.5588 H   0  0  0  0  0  0  0  0  0  0  0  0
  133.5154   74.9772  226.2396 H   0  0  0  0  0  0  0  0  0  0  0  0
  131.8205   74.3822  226.2396 H   0  0  0  0  0  0  0  0  0  0  0  0
  134.9101   73.9791  224.8417 H   0  0  0  0  0  0  0  0  0  0  0  0
  135.3037   72.9983  226.2992 H   0  0  0  0  0  0  0  0  0  0  0  0
  134.6244   71.9558  223.4951 H   0  0  0  0  0  0  0  0  0  0  0  0
  136.2141   71.8656  224.3395 H   0  0  0  0  0  0  0  0  0  0  0  0
  137.3646   68.3772  226.2051 H   0  0  0  0  0  0  0  0  0  0  0  0
  139.8103   68.3715  225.7005 H   0  0  0  0  0  0  0  0  0  0  0  0
  140.6520   69.4019  223.5886 H   0  0  0  0  0  0  0  0  0  0  0  0
  137.7410   71.6130  220.4100 H   0  0  0  0  0  0  0  0  0  0  0  0
  137.0738   73.7294  222.4078 H   0  0  0  0  0  0  0  0  0  0  0  0
  137.8777   76.0415  222.8574 H   0  0  0  0  0  0  0  0  0  0  0  0
  139.5800   80.4844  221.7835 H   0  0  0  0  0  0  0  0  0  0  0  0
  140.4620   82.7605  222.3171 H   0  0  0  0  0  0  0  0  0  0  0  0
  142.6053   83.0101  223.5710 H   0  0  0  0  0  0  0  0  0  0  0  0
  143.8490   80.9841  224.3377 H   0  0  0  0  0  0  0  0  0  0  0  0
  142.9562   78.7062  223.8365 H   0  0  0  0  0  0  0  0  0  0  0  0
  141.6251   75.1196  220.9221 H   0  0  0  0  0  0  0  0  0  0  0  0
  140.5348   69.2323  220.9840 H   0  0  0  0  0  0  0  0  0  0  0  0
  136.5751   70.3218  222.4135 H   0  0  0  0  0  0  0  0  0  0  0  0
  132.6469   70.3957  224.8131 H   0  0  0  0  0  0  0  0  0  0  0  0
  133.3153   69.5941  226.2883 H   0  0  0  0  0  0  0  0  0  0  0  0
  131.9594   71.6774  226.7579 H   0  0  0  0  0  0  0  0  0  0  0  0
  133.6512   71.7231  227.3782 H   0  0  0  0  0  0  0  0  0  0  0  0
  1  2  1  0
  2  3  1  0
  3  4  1  0
  4  5  1  0
  5  6  1  0
  6  7  2  0
  6  8  1  0
  8  9  2  0
  9 10  1  0
 10 11  2  0
 11 12  1  0
 12 13  1  0
 13 14  1  0
 14 15  1  0
 15 16  2  0
 16 17  1  0
 17 18  2  0
 18 19  1  0
 19 20  3  0
 20 21  1  0
 21 22  2  0
 22 23  1  0
 23 24  2  0
 24 25  1  0
 25 26  2  0
 18 27  1  0
 27 28  2  0
 28 29  1  0
 29 30  1  0
 30 31  2  0
 30 32  1  0
 12 33  2  0
  5 34  1  0
 34 35  1  0
 35  2  1  0
 33  8  1  0
 32 13  2  0
 28 15  1  0
 26 21  1  0
  1 36  1  0
  1 37  1  0
  1 38  1  0
  3 39  1  0
  3 40  1  0
  4 41  1  0
  4 42  1  0
  9 43  1  0
 10 44  1  0
 11 45  1  0
 14 46  1  0
 16 47  1  0
 17 48  1  0
 22 49  1  0
 23 50  1  0
 24 51  1  0
 25 52  1  0
 26 53  1  0
 27 54  1  0
 32 55  1  0
 33 56  1  0
 34 57  1  0
 34 58  1  0
 35 59  1  0
 35 60  1  0
M  CHG  1  29  -1
M  END
>  <UniqueID>  (17) 
35

>  <SMILES>  (17) 
CN1CCN(C(=O)c2cccc(C3=CC(=O)[N-]c4cc(C#Cc5ccccc5)ccc4N3)c2)CC1

>  <Energy>  (17) 
87.41025854903613

>  <Genealogy>  (17) 
CN1CCN(C(=O)c2cccc(C3=Nc4ccc(C#Cc5ccccc5)cc4[N-]C(=O)C3)c2)CC1 (protonated)
CN1CCN(C(=O)c2cccc(C3=CC(=O)[N-]c4cc(C#Cc5ccccc5)ccc4N3)c2)CC1 (tautomer)
CN1CCN(C(=O)c2cccc(C3=CC(=O)[N-]c4cc(C#Cc5ccccc5)ccc4N3)c2)CC1 (3D coordinates assigned)
CN1CCN(C(=O)c2cccc(C3=CC(=O)[N-]c4cc(C#Cc5ccccc5)ccc4N3)c2)CC1 (nonaromatic ring conformer: 87.41025854903613 kcal/mol)

>  <smiles>  (17) 
CN1CCN(C(=O)c2cccc(C3=Nc4ccc(C#Cc5ccccc5)cc4NC(=O)C3)c2)CC1

>  <score_type>  (17) 
oracle

>  <origin>  (17) 
autodockgpu

>  <m_score__min__energy>  (17) 
-6.1799999999999997

>  <m_primary>  (17) 
energy

>  <meeko>  (17) 
{"free_energy": -5.1, "intermolecular_energy": -8.09, "internal_energy": -1.49, "cluster_size": 1, "cluster_id": 3, "rank_in_cluster": 1}

>  <energy>  (17) 
-4.85

>  <cluster_rmsd>  (17) 
0.0

>  <rmsd>  (17) 
269.56

>  <cluster>  (17) 
8

$$$$
NQSIIFRRCFYKTO-OOGIUIOONA-M
     RDKit          3D

 60 64  0  0  0  0  0  0  0  0999 V2000
  143.1440   67.6730  219.2990 C   0  0  0  0  0  0  0  0  0  0  0  0
  143.7520   68.8140  218.5820 N   0  0  0  0  0  0  0  0  0  0  0  0
  142.7420   69.8710  218.3600 C   0  0  0  0  0  0  0  0  0  0  0  0
  143.3490   71.0110  217.5270 C   0  0  0  0  0  0  0  0  0  0  0  0
  144.5910   71.4890  218.1480 N   0  0  0  0  0  0  0  0  0  0  0  0
  145.0860   72.8080  217.7980 C   0  0  0  0  0  0  0  0  0  0  0  0
  146.3240   73.0130  217.6900 O   0  0  0  0  0  0  0  0  0  0  0  0
  144.1650   73.9410  217.5910 C   0  0  0  0  0  0  0  0  0  0  0  0
  144.5570   75.0260  216.7890 C   0  0  0  0  0  0  0  0  0  0  0  0
  143.7080   76.1260  216.6240 C   0  0  0  0  0  0  0  0  0  0  0  0
  142.4770   76.1630  217.2860 C   0  0  0  0  0  0  0  0  0  0  0  0
  142.0770   75.0910  218.1110 C   0  0  0  0  0  0  0  0  0  0  0  0
  140.8270   75.1630  218.9130 C   0  0  0  0  0  0  0  0  0  0  0  0
  140.0490   73.9690  219.0530 N   0  0  0  0  0  0  0  0  0  0  0  0
  140.0060   73.2270  220.2750 C   0  0  0  0  0  0  0  0  0  0  0  0
  140.3830   71.8770  220.2560 C   0  0  0  0  0  0  0  0  0  0  0  0
  140.4390   71.1380  221.4380 C   0  0  0  0  0  0  0  0  0  0  0  0
  140.1410   71.7450  222.6590 C   0  0  0  0  0  0  0  0  0  0  0  0
  140.2410   70.9970  223.8850 C   0  0  0  0  0  0  0  0  0  0  0  0
  140.3200   70.3780  224.9170 C   0  0  0  0  0  0  0  0  0  0  0  0
  140.4130   69.6460  226.1520 C   0  0  0  0  0  0  0  0  0  0  0  0
  139.9370   70.2160  227.3410 C   0  0  0  0  0  0  0  0  0  0  0  0
  140.0340   69.5050  228.5420 C   0  0  0  0  0  0  0  0  0  0  0  0
  140.6160   68.2350  228.5600 C   0  0  0  0  0  0  0  0  0  0  0  0
  141.0940   67.6660  227.3750 C   0  0  0  0  0  0  0  0  0  0  0  0
  140.9910   68.3700  226.1710 C   0  0  0  0  0  0  0  0  0  0  0  0
  139.7790   73.0940  222.6880 C   0  0  0  0  0  0  0  0  0  0  0  0
  139.6900   73.8390  221.5040 C   0  0  0  0  0  0  0  0  0  0  0  0
  139.3980   75.2340  221.6190 N   0  0  0  0  0  0  0  0  0  0  0  0
  140.0170   76.3390  220.9540 C   0  0  0  0  0  0  0  0  0  0  0  0
  140.0730   77.4390  221.5610 O   0  0  0  0  0  0  0  0  0  0  0  0
  140.5110   76.2890  219.5690 C   0  0  0  0  0  0  0  0  0  0  0  0
  142.9270   73.9760  218.2520 C   0  0  0  0  0  0  0  0  0  0  0  0
  145.5660   70.4820  218.5970 C   0  0  0  0  0  0  0  0  0  0  0  0
  144.8750   69.3590  219.3690 C   0  0  0  0  0  0  0  0  0  0  0  0
  143.2297   67.8339  220.3838 H   0  0  0  0  0  0  0  0  0  0  0  0
  142.0823   67.5904  219.0233 H   0  0  0  0  0  0  0  0  0  0  0  0
  143.6676   66.7457  219.0233 H   0  0  0  0  0  0  0  0  0  0  0  0
  141.8814   69.4456  217.8229 H   0  0  0  0  0  0  0  0  0  0  0  0
  142.4154   70.2684  219.3323 H   0  0  0  0  0  0  0  0  0  0  0  0
  143.5678   70.6435  216.5136 H   0  0  0  0  0  0  0  0  0  0  0  0
  142.6297   71.8418  217.4787 H   0  0  0  0  0  0  0  0  0  0  0  0
  145.5363   75.0107  216.2883 H   0  0  0  0  0  0  0  0  0  0  0  0
  144.0088   76.9609  215.9740 H   0  0  0  0  0  0  0  0  0  0  0  0
  141.8162   77.0337  217.1627 H   0  0  0  0  0  0  0  0  0  0  0  0
  139.2280   73.8710  218.4110 H   0  0  0  0  0  0  0  0  0  0  0  0
  140.6371   71.3957  219.3001 H   0  0  0  0  0  0  0  0  0  0  0  0
  140.7186   70.0746  221.4076 H   0  0  0  0  0  0  0  0  0  0  0  0
  139.4882   71.2202  227.3297 H   0  0  0  0  0  0  0  0  0  0  0  0
  139.6513   69.9467  229.4739 H   0  0  0  0  0  0  0  0  0  0  0  0
  140.6984   67.6819  229.5072 H   0  0  0  0  0  0  0  0  0  0  0  0
  141.5506   66.6654  227.3901 H   0  0  0  0  0  0  0  0  0  0  0  0
  141.3640   67.9216  225.2384 H   0  0  0  0  0  0  0  0  0  0  0  0
  139.5612   73.5774  223.6518 H   0  0  0  0  0  0  0  0  0  0  0  0
  140.6295   77.2427  219.0339 H   0  0  0  0  0  0  0  0  0  0  0  0
  142.6191   73.1291  218.8829 H   0  0  0  0  0  0  0  0  0  0  0  0
  146.0736   70.0559  217.7191 H   0  0  0  0  0  0  0  0  0  0  0  0
  146.2932   70.9698  219.2627 H   0  0  0  0  0  0  0  0  0  0  0  0
  145.6004   68.5569  219.5702 H   0  0  0  0  0  0  0  0  0  0  0  0
  144.4868   69.7614  220.3163 H   0  0  0  0  0  0  0  0  0  0  0  0
  1  2  1  0
  2  3  1  0
  3  4  1  0
  4  5  1  0
  5  6  1  0
  6  7  2  0
  6  8  1  0
  8  9  2  0
  9 10  1  0
 10 11  2  0
 11 12  1  0
 12 13  1  0
 13 14  1  0
 14 15  1  0
 15 16  2  0
 16 17  1  0
 17 18  2  0
 18 19  1  0
 19 20  3  0
 20 21  1  0
 21 22  2  0
 22 23  1  0
 23 24  2  0
 24 25  1  0
 25 26  2  0
 18 27  1  0
 27 28  2  0
 28 29  1  0
 29 30  1  0
 30 31  2  0
 30 32  1  0
 12 33  2  0
  5 34  1  0
 34 35  1  0
 35  2  1  0
 33  8  1  0
 32 13  2  0
 28 15  1  0
 26 21  1  0
  1 36  1  0
  1 37  1  0
  1 38  1  0
  3 39  1  0
  3 40  1  0
  4 41  1  0
  4 42  1  0
  9 43  1  0
 10 44  1  0
 11 45  1  0
 14 46  1  0
 16 47  1  0
 17 48  1  0
 22 49  1  0
 23 50  1  0
 24 51  1  0
 25 52  1  0
 26 53  1  0
 27 54  1  0
 32 55  1  0
 33 56  1  0
 34 57  1  0
 34 58  1  0
 35 59  1  0
 35 60  1  0
M  CHG  1  29  -1
M  END
>  <UniqueID>  (18) 
35

>  <SMILES>  (18) 
CN1CCN(C(=O)c2cccc(C3=CC(=O)[N-]c4cc(C#Cc5ccccc5)ccc4N3)c2)CC1

>  <Energy>  (18) 
87.41025854903613

>  <Genealogy>  (18) 
CN1CCN(C(=O)c2cccc(C3=Nc4ccc(C#Cc5ccccc5)cc4[N-]C(=O)C3)c2)CC1 (protonated)
CN1CCN(C(=O)c2cccc(C3=CC(=O)[N-]c4cc(C#Cc5ccccc5)ccc4N3)c2)CC1 (tautomer)
CN1CCN(C(=O)c2cccc(C3=CC(=O)[N-]c4cc(C#Cc5ccccc5)ccc4N3)c2)CC1 (3D coordinates assigned)
CN1CCN(C(=O)c2cccc(C3=CC(=O)[N-]c4cc(C#Cc5ccccc5)ccc4N3)c2)CC1 (nonaromatic ring conformer: 87.41025854903613 kcal/mol)

>  <smiles>  (18) 
CN1CCN(C(=O)c2cccc(C3=Nc4ccc(C#Cc5ccccc5)cc4NC(=O)C3)c2)CC1

>  <score_type>  (18) 
oracle

>  <origin>  (18) 
autodockgpu

>  <m_score__min__energy>  (18) 
-6.1799999999999997

>  <m_primary>  (18) 
energy

>  <meeko>  (18) 
{"free_energy": -4.46, "intermolecular_energy": -7.45, "internal_energy": -1.71, "cluster_size": 1, "cluster_id": 10, "rank_in_cluster": 1}

>  <energy>  (18) 
-4.52

>  <cluster_rmsd>  (18) 
0.0

>  <rmsd>  (18) 
270.91

>  <cluster>  (18) 
9

$$$$
NQSIIFRRCFYKTO-OOGIUIOONA-M
     RDKit          3D

 60 64  0  0  0  0  0  0  0  0999 V2000
  136.3100   79.8920  223.5650 C   0  0  0  0  0  0  0  0  0  0  0  0
  137.7550   79.9640  223.2620 N   0  0  0  0  0  0  0  0  0  0  0  0
  138.0870   79.0480  222.1490 C   0  0  0  0  0  0  0  0  0  0  0  0
  139.6030   79.0480  221.9030 C   0  0  0  0  0  0  0  0  0  0  0  0
  140.0890   80.4220  221.7160 N   0  0  0  0  0  0  0  0  0  0  0  0
  141.3620   80.6290  221.0520 C   0  0  0  0  0  0  0  0  0  0  0  0
  142.1330   81.5510  221.4300 O   0  0  0  0  0  0  0  0  0  0  0  0
  141.7740   79.7960  219.9060 C   0  0  0  0  0  0  0  0  0  0  0  0
  141.8600   80.3610  218.6230 C   0  0  0  0  0  0  0  0  0  0  0  0
  142.2050   79.5680  217.5240 C   0  0  0  0  0  0  0  0  0  0  0  0
  142.4320   78.1990  217.6940 C   0  0  0  0  0  0  0  0  0  0  0  0
  142.3300   77.6110  218.9730 C   0  0  0  0  0  0  0  0  0  0  0  0
  142.4550   76.1410  219.1560 C   0  0  0  0  0  0  0  0  0  0  0  0
  141.2580   75.3890  219.3870 N   0  0  0  0  0  0  0  0  0  0  0  0
  141.1350   74.4690  220.4750 C   0  0  0  0  0  0  0  0  0  0  0  0
  140.0320   74.5840  221.3310 C   0  0  0  0  0  0  0  0  0  0  0  0
  139.8250   73.6560  222.3520 C   0  0  0  0  0  0  0  0  0  0  0  0
  140.7050   72.5860  222.5160 C   0  0  0  0  0  0  0  0  0  0  0  0
  140.4700   71.6020  223.5400 C   0  0  0  0  0  0  0  0  0  0  0  0
  140.2820   70.7760  224.3980 C   0  0  0  0  0  0  0  0  0  0  0  0
  140.0630   69.7950  225.4270 C   0  0  0  0  0  0  0  0  0  0  0  0
  139.4370   68.5800  225.1150 C   0  0  0  0  0  0  0  0  0  0  0  0
  139.2210   67.6290  226.1190 C   0  0  0  0  0  0  0  0  0  0  0  0
  139.6150   67.8950  227.4330 C   0  0  0  0  0  0  0  0  0  0  0  0
  140.2360   69.1080  227.7460 C   0  0  0  0  0  0  0  0  0  0  0  0
  140.4630   70.0570  226.7440 C   0  0  0  0  0  0  0  0  0  0  0  0
  141.7990   72.4550  221.6560 C   0  0  0  0  0  0  0  0  0  0  0  0
  142.0340   73.3980  220.6460 C   0  0  0  0  0  0  0  0  0  0  0  0
  143.1220   73.1530  219.7510 N   0  0  0  0  0  0  0  0  0  0  0  0
  143.8600   74.0870  218.9580 C   0  0  0  0  0  0  0  0  0  0  0  0
  144.7990   73.6470  218.2470 O   0  0  0  0  0  0  0  0  0  0  0  0
  143.6430   75.5430  218.9930 C   0  0  0  0  0  0  0  0  0  0  0  0
  142.0070   78.4220  220.0790 C   0  0  0  0  0  0  0  0  0  0  0  0
  139.6300   81.4480  222.6660 C   0  0  0  0  0  0  0  0  0  0  0  0
  138.1230   81.3440  222.8950 C   0  0  0  0  0  0  0  0  0  0  0  0
  136.1639   79.8847  224.6552 H   0  0  0  0  0  0  0  0  0  0  0  0
  135.8007   80.7659  223.1326 H   0  0  0  0  0  0  0  0  0  0  0  0
  135.8901   78.9718  223.1326 H   0  0  0  0  0  0  0  0  0  0  0  0
  137.7596   78.0296  222.4054 H   0  0  0  0  0  0  0  0  0  0  0  0
  137.5733   79.3867  221.2372 H   0  0  0  0  0  0  0  0  0  0  0  0
  140.1111   78.5979  222.7686 H   0  0  0  0  0  0  0  0  0  0  0  0
  139.8183   78.4655  220.9951 H   0  0  0  0  0  0  0  0  0  0  0  0
  141.6550   81.4325  218.4819 H   0  0  0  0  0  0  0  0  0  0  0  0
  142.2977   80.0213  216.5260 H   0  0  0  0  0  0  0  0  0  0  0  0
  142.6918   77.5761  216.8253 H   0  0  0  0  0  0  0  0  0  0  0  0
  140.3710   75.8010  219.0140 H   0  0  0  0  0  0  0  0  0  0  0  0
  139.3224   75.4138  221.1969 H   0  0  0  0  0  0  0  0  0  0  0  0
  138.9657   73.7683  223.0295 H   0  0  0  0  0  0  0  0  0  0  0  0
  139.1162   68.3745  224.0831 H   0  0  0  0  0  0  0  0  0  0  0  0
  138.7403   66.6706  225.8733 H   0  0  0  0  0  0  0  0  0  0  0  0
  139.4365   67.1494  228.2218 H   0  0  0  0  0  0  0  0  0  0  0  0
  140.5461   69.3160  228.7807 H   0  0  0  0  0  0  0  0  0  0  0  0
  140.9557   71.0093  226.9899 H   0  0  0  0  0  0  0  0  0  0  0  0
  142.4835   71.6019  221.7732 H   0  0  0  0  0  0  0  0  0  0  0  0
  144.5248   76.1902  218.8762 H   0  0  0  0  0  0  0  0  0  0  0  0
  141.9370   77.9769  221.0825 H   0  0  0  0  0  0  0  0  0  0  0  0
  140.1504   81.3093  223.6251 H   0  0  0  0  0  0  0  0  0  0  0  0
  139.8541   82.4401  222.2471 H   0  0  0  0  0  0  0  0  0  0  0  0
  137.8316   82.0256  223.7077 H   0  0  0  0  0  0  0  0  0  0  0  0
  137.6003   81.6189  221.9670 H   0  0  0  0  0  0  0  0  0  0  0  0
  1  2  1  0
  2  3  1  0
  3  4  1  0
  4  5  1  0
  5  6  1  0
  6  7  2  0
  6  8  1  0
  8  9  2  0
  9 10  1  0
 10 11  2  0
 11 12  1  0
 12 13  1  0
 13 14  1  0
 14 15  1  0
 15 16  2  0
 16 17  1  0
 17 18  2  0
 18 19  1  0
 19 20  3  0
 20 21  1  0
 21 22  2  0
 22 23  1  0
 23 24  2  0
 24 25  1  0
 25 26  2  0
 18 27  1  0
 27 28  2  0
 28 29  1  0
 29 30  1  0
 30 31  2  0
 30 32  1  0
 12 33  2  0
  5 34  1  0
 34 35  1  0
 35  2  1  0
 33  8  1  0
 32 13  2  0
 28 15  1  0
 26 21  1  0
  1 36  1  0
  1 37  1  0
  1 38  1  0
  3 39  1  0
  3 40  1  0
  4 41  1  0
  4 42  1  0
  9 43  1  0
 10 44  1  0
 11 45  1  0
 14 46  1  0
 16 47  1  0
 17 48  1  0
 22 49  1  0
 23 50  1  0
 24 51  1  0
 25 52  1  0
 26 53  1  0
 27 54  1  0
 32 55  1  0
 33 56  1  0
 34 57  1  0
 34 58  1  0
 35 59  1  0
 35 60  1  0
M  CHG  1  29  -1
M  END
>  <UniqueID>  (19) 
35

>  <SMILES>  (19) 
CN1CCN(C(=O)c2cccc(C3=CC(=O)[N-]c4cc(C#Cc5ccccc5)ccc4N3)c2)CC1

>  <Energy>  (19) 
87.41025854903613

>  <Genealogy>  (19) 
CN1CCN(C(=O)c2cccc(C3=Nc4ccc(C#Cc5ccccc5)cc4[N-]C(=O)C3)c2)CC1 (protonated)
CN1CCN(C(=O)c2cccc(C3=CC(=O)[N-]c4cc(C#Cc5ccccc5)ccc4N3)c2)CC1 (tautomer)
CN1CCN(C(=O)c2cccc(C3=CC(=O)[N-]c4cc(C#Cc5ccccc5)ccc4N3)c2)CC1 (3D coordinates assigned)
CN1CCN(C(=O)c2cccc(C3=CC(=O)[N-]c4cc(C#Cc5ccccc5)ccc4N3)c2)CC1 (nonaromatic ring conformer: 87.41025854903613 kcal/mol)

>  <smiles>  (19) 
CN1CCN(C(=O)c2cccc(C3=Nc4ccc(C#Cc5ccccc5)cc4NC(=O)C3)c2)CC1

>  <score_type>  (19) 
oracle

>  <origin>  (19) 
autodockgpu

>  <m_score__min__energy>  (19) 
-6.1799999999999997

>  <m_primary>  (19) 
energy

>  <meeko>  (19) 
{"free_energy": -5.73, "intermolecular_energy": -8.71, "internal_energy": -1.31, "cluster_size": 6, "cluster_id": 1, "rank_in_cluster": 6}

>  <energy>  (19) 
-4.46

>  <cluster_rmsd>  (19) 
0.0

>  <rmsd>  (19) 
269.14

>  <cluster>  (19) 
10

$$$$
NQSIIFRRCFYKTO-OOGIUIOONA-M
     RDKit          3D

 60 64  0  0  0  0  0  0  0  0999 V2000
  138.3850   72.3000  222.1070 C   0  0  0  0  0  0  0  0  0  0  0  0
  139.5550   72.5980  221.2550 N   0  0  0  0  0  0  0  0  0  0  0  0
  139.3300   73.8530  220.5040 C   0  0  0  0  0  0  0  0  0  0  0  0
  140.5020   74.1080  219.5440 C   0  0  0  0  0  0  0  0  0  0  0  0
  141.7760   74.0640  220.2730 N   0  0  0  0  0  0  0  0  0  0  0  0
  142.9420   74.6950  219.6810 C   0  0  0  0  0  0  0  0  0  0  0  0
  144.0810   74.1720  219.8130 O   0  0  0  0  0  0  0  0  0  0  0  0
  142.8340   75.9670  218.9440 C   0  0  0  0  0  0  0  0  0  0  0  0
  143.2900   76.0510  217.6190 C   0  0  0  0  0  0  0  0  0  0  0  0
  143.2330   77.2660  216.9270 C   0  0  0  0  0  0  0  0  0  0  0  0
  142.7520   78.4120  217.5680 C   0  0  0  0  0  0  0  0  0  0  0  0
  142.3080   78.3500  218.9060 C   0  0  0  0  0  0  0  0  0  0  0  0
  141.9010   79.5780  219.6390 C   0  0  0  0  0  0  0  0  0  0  0  0
  142.0470   79.5880  221.0630 N   0  0  0  0  0  0  0  0  0  0  0  0
  140.9800   79.9710  221.9350 C   0  0  0  0  0  0  0  0  0  0  0  0
  140.6290   79.1130  222.9860 C   0  0  0  0  0  0  0  0  0  0  0  0
  139.6530   79.4840  223.9120 C   0  0  0  0  0  0  0  0  0  0  0  0
  139.0330   80.7300  223.8150 C   0  0  0  0  0  0  0  0  0  0  0  0
  138.0590   81.1340  224.7940 C   0  0  0  0  0  0  0  0  0  0  0  0
  137.2470   81.4690  225.6210 C   0  0  0  0  0  0  0  0  0  0  0  0
  136.2750   81.8590  226.6070 C   0  0  0  0  0  0  0  0  0  0  0  0
  135.0920   82.4980  226.2100 C   0  0  0  0  0  0  0  0  0  0  0  0
  134.1500   82.8820  227.1710 C   0  0  0  0  0  0  0  0  0  0  0  0
  134.3940   82.6420  228.5260 C   0  0  0  0  0  0  0  0  0  0  0  0
  135.5750   82.0070  228.9240 C   0  0  0  0  0  0  0  0  0  0  0  0
  136.5140   81.6140  227.9650 C   0  0  0  0  0  0  0  0  0  0  0  0
  139.3880   81.5980  222.7790 C   0  0  0  0  0  0  0  0  0  0  0  0
  140.3450   81.2240  221.8260 C   0  0  0  0  0  0  0  0  0  0  0  0
  140.7200   82.1960  220.8460 N   0  0  0  0  0  0  0  0  0  0  0  0
  141.2910   81.9910  219.5510 C   0  0  0  0  0  0  0  0  0  0  0  0
  141.5380   83.0030  218.8460 O   0  0  0  0  0  0  0  0  0  0  0  0
  141.5220   80.6640  218.9580 C   0  0  0  0  0  0  0  0  0  0  0  0
  142.3450   77.1170  219.5860 C   0  0  0  0  0  0  0  0  0  0  0  0
  141.9930   72.9510  221.2100 C   0  0  0  0  0  0  0  0  0  0  0  0
  140.7640   72.7300  222.0900 C   0  0  0  0  0  0  0  0  0  0  0  0
  138.6741   72.3736  223.1658 H   0  0  0  0  0  0  0  0  0  0  0  0
  137.5833   73.0226  221.8947 H   0  0  0  0  0  0  0  0  0  0  0  0
  138.0266   71.2819  221.8947 H   0  0  0  0  0  0  0  0  0  0  0  0
  138.3975   73.7698  219.9265 H   0  0  0  0  0  0  0  0  0  0  0  0
  139.2558   74.6902  221.2137 H   0  0  0  0  0  0  0  0  0  0  0  0
  140.5048   73.3352  218.7613 H   0  0  0  0  0  0  0  0  0  0  0  0
  140.3832   75.1030  219.0903 H   0  0  0  0  0  0  0  0  0  0  0  0
  143.6943   75.1569  217.1220 H   0  0  0  0  0  0  0  0  0  0  0  0
  143.5662   77.3195  215.8800 H   0  0  0  0  0  0  0  0  0  0  0  0
  142.7195   79.3684  217.0255 H   0  0  0  0  0  0  0  0  0  0  0  0
  142.7760   78.9510  221.4610 H   0  0  0  0  0  0  0  0  0  0  0  0
  141.1278   78.1373  223.0820 H   0  0  0  0  0  0  0  0  0  0  0  0
  139.3720   78.7925  224.7200 H   0  0  0  0  0  0  0  0  0  0  0  0
  134.9045   82.6973  225.1446 H   0  0  0  0  0  0  0  0  0  0  0  0
  133.2164   83.3733  226.8595 H   0  0  0  0  0  0  0  0  0  0  0  0
  133.6563   82.9529  229.2805 H   0  0  0  0  0  0  0  0  0  0  0  0
  135.7651   81.8169  229.9906 H   0  0  0  0  0  0  0  0  0  0  0  0
  137.4414   81.1119  228.2777 H   0  0  0  0  0  0  0  0  0  0  0  0
  138.9106   82.5866  222.7107 H   0  0  0  0  0  0  0  0  0  0  0  0
  141.3716   80.5579  217.8735 H   0  0  0  0  0  0  0  0  0  0  0  0
  141.9892   77.0542  220.6250 H   0  0  0  0  0  0  0  0  0  0  0  0
  142.1959   72.0335  220.6382 H   0  0  0  0  0  0  0  0  0  0  0  0
  142.8477   73.1984  221.8567 H   0  0  0  0  0  0  0  0  0  0  0  0
  140.9001   71.8115  222.6797 H   0  0  0  0  0  0  0  0  0  0  0  0
  140.6437   73.5934  222.7609 H   0  0  0  0  0  0  0  0  0  0  0  0
  1  2  1  0
  2  3  1  0
  3  4  1  0
  4  5  1  0
  5  6  1  0
  6  7  2  0
  6  8  1  0
  8  9  2  0
  9 10  1  0
 10 11  2  0
 11 12  1  0
 12 13  1  0
 13 14  1  0
 14 15  1  0
 15 16  2  0
 16 17  1  0
 17 18  2  0
 18 19  1  0
 19 20  3  0
 20 21  1  0
 21 22  2  0
 22 23  1  0
 23 24  2  0
 24 25  1  0
 25 26  2  0
 18 27  1  0
 27 28  2  0
 28 29  1  0
 29 30  1  0
 30 31  2  0
 30 32  1  0
 12 33  2  0
  5 34  1  0
 34 35  1  0
 35  2  1  0
 33  8  1  0
 32 13  2  0
 28 15  1  0
 26 21  1  0
  1 36  1  0
  1 37  1  0
  1 38  1  0
  3 39  1  0
  3 40  1  0
  4 41  1  0
  4 42  1  0
  9 43  1  0
 10 44  1  0
 11 45  1  0
 14 46  1  0
 16 47  1  0
 17 48  1  0
 22 49  1  0
 23 50  1  0
 24 51  1  0
 25 52  1  0
 26 53  1  0
 27 54  1  0
 32 55  1  0
 33 56  1  0
 34 57  1  0
 34 58  1  0
 35 59  1  0
 35 60  1  0
M  CHG  1  29  -1
M  END
>  <UniqueID>  (20) 
35

>  <SMILES>  (20) 
CN1CCN(C(=O)c2cccc(C3=CC(=O)[N-]c4cc(C#Cc5ccccc5)ccc4N3)c2)CC1

>  <Energy>  (20) 
87.41025854903613

>  <Genealogy>  (20) 
CN1CCN(C(=O)c2cccc(C3=Nc4ccc(C#Cc5ccccc5)cc4[N-]C(=O)C3)c2)CC1 (protonated)
CN1CCN(C(=O)c2cccc(C3=CC(=O)[N-]c4cc(C#Cc5ccccc5)ccc4N3)c2)CC1 (tautomer)
CN1CCN(C(=O)c2cccc(C3=CC(=O)[N-]c4cc(C#Cc5ccccc5)ccc4N3)c2)CC1 (3D coordinates assigned)
CN1CCN(C(=O)c2cccc(C3=CC(=O)[N-]c4cc(C#Cc5ccccc5)ccc4N3)c2)CC1 (nonaromatic ring conformer: 87.41025854903613 kcal/mol)

>  <smiles>  (20) 
CN1CCN(C(=O)c2cccc(C3=Nc4ccc(C#Cc5ccccc5)cc4NC(=O)C3)c2)CC1

>  <score_type>  (20) 
oracle

>  <origin>  (20) 
autodockgpu

>  <m_score__min__energy>  (20) 
-6.1799999999999997

>  <m_primary>  (20) 
energy

>  <meeko>  (20) 
{"free_energy": -5.46, "intermolecular_energy": -8.44, "internal_energy": -1.31, "cluster_size": 4, "cluster_id": 2, "rank_in_cluster": 3}

>  <energy>  (20) 
-4.27

>  <cluster_rmsd>  (20) 
0.0

>  <rmsd>  (20) 
269.28

>  <cluster>  (20) 
11

$$$$
RUYQROVMPDWUPI-ZYMSVLFVNA-N
     RDKit          3D

 61 65  0  0  0  0  0  0  0  0999 V2000
  136.9330   80.2570  223.4110 C   0  0  0  0  0  0  0  0  0  0  0  0
  138.0710   81.1830  223.5410 N   0  0  0  0  0  0  0  0  0  0  0  0
  139.2340   80.5210  224.1910 C   0  0  0  0  0  0  0  0  0  0  0  0
  140.5800   80.8740  223.5500 C   0  0  0  0  0  0  0  0  0  0  0  0
  140.5130   80.6150  222.1100 N   0  0  0  0  0  0  0  0  0  0  0  0
  141.6870   80.1750  221.4010 C   0  0  0  0  0  0  0  0  0  0  0  0
  142.8300   80.5110  221.8170 O   0  0  0  0  0  0  0  0  0  0  0  0
  141.5830   79.3260  220.1950 C   0  0  0  0  0  0  0  0  0  0  0  0
  142.2230   79.7010  219.0040 C   0  0  0  0  0  0  0  0  0  0  0  0
  142.1270   78.8950  217.8690 C   0  0  0  0  0  0  0  0  0  0  0  0
  141.3870   77.7120  217.9070 C   0  0  0  0  0  0  0  0  0  0  0  0
  140.7250   77.3240  219.0870 C   0  0  0  0  0  0  0  0  0  0  0  0
  139.9240   76.0760  219.1280 C   0  0  0  0  0  0  0  0  0  0  0  0
  140.5410   74.9390  219.2800 N   0  0  0  0  0  0  0  0  0  0  0  0
  140.3840   74.0070  220.3630 C   0  0  0  0  0  0  0  0  0  0  0  0
  141.5420   73.3780  220.8440 C   0  0  0  0  0  0  0  0  0  0  0  0
  141.4870   72.5230  221.9450 C   0  0  0  0  0  0  0  0  0  0  0  0
  140.2730   72.3040  222.6020 C   0  0  0  0  0  0  0  0  0  0  0  0
  140.2170   71.4340  223.7480 C   0  0  0  0  0  0  0  0  0  0  0  0
  140.1740   70.7070  224.7070 C   0  0  0  0  0  0  0  0  0  0  0  0
  140.1290   69.8380  225.8540 C   0  0  0  0  0  0  0  0  0  0  0  0
  139.8820   68.4680  225.6870 C   0  0  0  0  0  0  0  0  0  0  0  0
  139.8420   67.6240  226.8030 C   0  0  0  0  0  0  0  0  0  0  0  0
  140.0510   68.1460  228.0840 C   0  0  0  0  0  0  0  0  0  0  0  0
  140.2950   69.5120  228.2510 C   0  0  0  0  0  0  0  0  0  0  0  0
  140.3330   70.3590  227.1380 C   0  0  0  0  0  0  0  0  0  0  0  0
  139.1130   72.9440  222.1520 C   0  0  0  0  0  0  0  0  0  0  0  0
  139.1450   73.7850  221.0310 C   0  0  0  0  0  0  0  0  0  0  0  0
  137.9230   74.4560  220.6750 N   0  0  0  0  0  0  0  0  0  0  0  0
  137.8040   75.6780  220.2490 C   0  0  0  0  0  0  0  0  0  0  0  0
  137.0610   76.5940  220.9890 O   0  0  0  0  0  0  0  0  0  0  0  0
  138.4320   76.1170  218.9710 C   0  0  0  0  0  0  0  0  0  0  0  0
  140.8140   78.1500  220.2240 C   0  0  0  0  0  0  0  0  0  0  0  0
  139.3160   81.0260  221.3670 C   0  0  0  0  0  0  0  0  0  0  0  0
  138.3730   81.8520  222.2540 C   0  0  0  0  0  0  0  0  0  0  0  0
  136.5787   79.9687  224.4117 H   0  0  0  0  0  0  0  0  0  0  0  0
  136.1183   80.7520  222.8621 H   0  0  0  0  0  0  0  0  0  0  0  0
  137.2521   79.3587  222.8621 H   0  0  0  0  0  0  0  0  0  0  0  0
  139.2616   80.8261  225.2475 H   0  0  0  0  0  0  0  0  0  0  0  0
  139.0952   79.4364  224.0713 H   0  0  0  0  0  0  0  0  0  0  0  0
  140.8013   81.9377  223.7222 H   0  0  0  0  0  0  0  0  0  0  0  0
  141.3743   80.2592  223.9985 H   0  0  0  0  0  0  0  0  0  0  0  0
  142.8032   80.6347  218.9648 H   0  0  0  0  0  0  0  0  0  0  0  0
  142.6364   79.1930  216.9407 H   0  0  0  0  0  0  0  0  0  0  0  0
  141.3208   77.0793  217.0096 H   0  0  0  0  0  0  0  0  0  0  0  0
  142.5059   73.5613  220.3466 H   0  0  0  0  0  0  0  0  0  0  0  0
  142.4003   72.0206  222.2965 H   0  0  0  0  0  0  0  0  0  0  0  0
  139.7198   68.0567  224.6798 H   0  0  0  0  0  0  0  0  0  0  0  0
  139.6461   66.5495  226.6726 H   0  0  0  0  0  0  0  0  0  0  0  0
  140.0233   67.4812  228.9600 H   0  0  0  0  0  0  0  0  0  0  0  0
  140.4574   69.9218  229.2588 H   0  0  0  0  0  0  0  0  0  0  0  0
  140.5231   71.4342  227.2714 H   0  0  0  0  0  0  0  0  0  0  0  0
  138.1638   72.7852  222.6847 H   0  0  0  0  0  0  0  0  0  0  0  0
  136.0470   76.5720  220.9820 H   0  0  0  0  0  0  0  0  0  0  0  0
  138.1269   75.4420  218.1578 H   0  0  0  0  0  0  0  0  0  0  0  0
  138.1092   77.1399  218.7272 H   0  0  0  0  0  0  0  0  0  0  0  0
  140.2769   77.8724  221.1429 H   0  0  0  0  0  0  0  0  0  0  0  0
  139.6206   81.6339  220.5023 H   0  0  0  0  0  0  0  0  0  0  0  0
  138.7828   80.1229  221.0352 H   0  0  0  0  0  0  0  0  0  0  0  0
  138.8465   82.8225  222.4638 H   0  0  0  0  0  0  0  0  0  0  0  0
  137.4244   81.9729  221.7103 H   0  0  0  0  0  0  0  0  0  0  0  0
  1  2  1  0
  2  3  1  0
  3  4  1  0
  4  5  1  0
  5  6  1  0
  6  7  2  0
  6  8  1  0
  8  9  2  0
  9 10  1  0
 10 11  2  0
 11 12  1  0
 12 13  1  0
 13 14  2  0
 14 15  1  0
 15 16  2  0
 16 17  1  0
 17 18  2  0
 18 19  1  0
 19 20  3  0
 20 21  1  0
 21 22  2  0
 22 23  1  0
 23 24  2  0
 24 25  1  0
 25 26  2  0
 18 27  1  0
 27 28  2  0
 28 29  1  0
 29 30  2  0
 30 31  1  0
 30 32  1  0
 12 33  2  0
  5 34  1  0
 34 35  1  0
 35  2  1  0
 33  8  1  0
 32 13  1  0
 28 15  1  0
 26 21  1  0
  1 36  1  0
  1 37  1  0
  1 38  1  0
  3 39  1  0
  3 40  1  0
  4 41  1  0
  4 42  1  0
  9 43  1  0
 10 44  1  0
 11 45  1  0
 16 46  1  0
 17 47  1  0
 22 48  1  0
 23 49  1  0
 24 50  1  0
 25 51  1  0
 26 52  1  0
 27 53  1  0
 31 54  1  0
 32 55  1  0
 32 56  1  0
 33 57  1  0
 34 58  1  0
 34 59  1  0
 35 60  1  0
 35 61  1  0
M  END
>  <UniqueID>  (21) 
36

>  <SMILES>  (21) 
CN1CCN(C(=O)c2cccc(C3=Nc4ccc(C#Cc5ccccc5)cc4N=C(O)C3)c2)CC1

>  <Energy>  (21) 
87.66003728717698

>  <Genealogy>  (21) 
CN1CCN(C(=O)c2cccc(C3=Nc4ccc(C#Cc5ccccc5)cc4N=C(O)C3)c2)CC1 (tautomer)
CN1CCN(C(=O)c2cccc(C3=Nc4ccc(C#Cc5ccccc5)cc4N=C(O)C3)c2)CC1 (3D coordinates assigned)
CN1CCN(C(=O)c2cccc(C3=Nc4ccc(C#Cc5ccccc5)cc4N=C(O)C3)c2)CC1 (nonaromatic ring conformer: 87.66003728717698 kcal/mol)

>  <smiles>  (21) 
CN1CCN(C(=O)c2cccc(C3=Nc4ccc(C#Cc5ccccc5)cc4NC(=O)C3)c2)CC1

>  <score_type>  (21) 
oracle

>  <origin>  (21) 
autodockgpu

>  <m_score__min__energy>  (21) 
-5.4500000000000002

>  <m_primary>  (21) 
energy

>  <meeko>  (21) 
{"free_energy": -4.68, "intermolecular_energy": -7.96, "internal_energy": -1.29, "cluster_size": 1, "cluster_id": 7, "rank_in_cluster": 1}

>  <energy>  (21) 
-5.45

>  <cluster_rmsd>  (21) 
0.0

>  <rmsd>  (21) 
270.53

>  <cluster>  (21) 
1

$$$$
RUYQROVMPDWUPI-ZYMSVLFVNA-N
     RDKit          3D

 61 65  0  0  0  0  0  0  0  0999 V2000
  137.1690   77.7330  222.7340 C   0  0  0  0  0  0  0  0  0  0  0  0
  137.7270   79.0880  222.8840 N   0  0  0  0  0  0  0  0  0  0  0  0
  139.0260   79.0580  223.6090 C   0  0  0  0  0  0  0  0  0  0  0  0
  140.0810   80.0000  223.0180 C   0  0  0  0  0  0  0  0  0  0  0  0
  140.2250   79.7290  221.5850 N   0  0  0  0  0  0  0  0  0  0  0  0
  141.5050   79.8910  220.9450 C   0  0  0  0  0  0  0  0  0  0  0  0
  142.3290   80.7300  221.4010 O   0  0  0  0  0  0  0  0  0  0  0  0
  141.8790   79.0840  219.7650 C   0  0  0  0  0  0  0  0  0  0  0  0
  142.3180   79.7080  218.5870 C   0  0  0  0  0  0  0  0  0  0  0  0
  142.6760   78.9440  217.4760 C   0  0  0  0  0  0  0  0  0  0  0  0
  142.5950   77.5510  217.5250 C   0  0  0  0  0  0  0  0  0  0  0  0
  142.1440   76.9050  218.6910 C   0  0  0  0  0  0  0  0  0  0  0  0
  142.0410   75.4250  218.7430 C   0  0  0  0  0  0  0  0  0  0  0  0
  140.9840   74.8880  219.2830 N   0  0  0  0  0  0  0  0  0  0  0  0
  140.9400   74.0590  220.4570 C   0  0  0  0  0  0  0  0  0  0  0  0
  139.7720   74.1070  221.2330 C   0  0  0  0  0  0  0  0  0  0  0  0
  139.6160   73.2730  222.3420 C   0  0  0  0  0  0  0  0  0  0  0  0
  140.6170   72.3560  222.6750 C   0  0  0  0  0  0  0  0  0  0  0  0
  140.4520   71.4840  223.8090 C   0  0  0  0  0  0  0  0  0  0  0  0
  140.3170   70.7550  224.7580 C   0  0  0  0  0  0  0  0  0  0  0  0
  140.1510   69.8870  225.8940 C   0  0  0  0  0  0  0  0  0  0  0  0
  139.8240   68.5370  225.7040 C   0  0  0  0  0  0  0  0  0  0  0  0
  139.6680   67.6930  226.8100 C   0  0  0  0  0  0  0  0  0  0  0  0
  139.8410   68.1940  228.1030 C   0  0  0  0  0  0  0  0  0  0  0  0
  140.1650   69.5400  228.2940 C   0  0  0  0  0  0  0  0  0  0  0  0
  140.3190   70.3880  227.1920 C   0  0  0  0  0  0  0  0  0  0  0  0
  141.7760   72.2770  221.8950 C   0  0  0  0  0  0  0  0  0  0  0  0
  141.9610   73.1250  220.7950 C   0  0  0  0  0  0  0  0  0  0  0  0
  143.1490   72.9340  220.0070 N   0  0  0  0  0  0  0  0  0  0  0  0
  143.7930   73.8440  219.3390 C   0  0  0  0  0  0  0  0  0  0  0  0
  145.1010   74.1610  219.6950 O   0  0  0  0  0  0  0  0  0  0  0  0
  143.1450   74.5610  218.2080 C   0  0  0  0  0  0  0  0  0  0  0  0
  141.7710   77.6830  219.8030 C   0  0  0  0  0  0  0  0  0  0  0  0
  139.0180   79.5210  220.7760 C   0  0  0  0  0  0  0  0  0  0  0  0
  137.7490   79.8100  221.5910 C   0  0  0  0  0  0  0  0  0  0  0  0
  136.9899   77.2981  223.7284 H   0  0  0  0  0  0  0  0  0  0  0  0
  136.2197   77.7865  222.1808 H   0  0  0  0  0  0  0  0  0  0  0  0
  137.8807   77.1025  222.1808 H   0  0  0  0  0  0  0  0  0  0  0  0
  138.8473   79.3485  224.6548 H   0  0  0  0  0  0  0  0  0  0  0  0
  139.4211   78.0353  223.5203 H   0  0  0  0  0  0  0  0  0  0  0  0
  139.7651   81.0434  223.1646 H   0  0  0  0  0  0  0  0  0  0  0  0
  141.0447   79.8362  223.5224 H   0  0  0  0  0  0  0  0  0  0  0  0
  142.3801   80.8052  218.5395 H   0  0  0  0  0  0  0  0  0  0  0  0
  143.0233   79.4408  216.5581 H   0  0  0  0  0  0  0  0  0  0  0  0
  142.8854   76.9551  216.6472 H   0  0  0  0  0  0  0  0  0  0  0  0
  138.9697   74.8100  220.9645 H   0  0  0  0  0  0  0  0  0  0  0  0
  138.7044   73.3377  222.9542 H   0  0  0  0  0  0  0  0  0  0  0  0
  139.6901   68.1412  224.6865 H   0  0  0  0  0  0  0  0  0  0  0  0
  139.4090   66.6344  226.6611 H   0  0  0  0  0  0  0  0  0  0  0  0
  139.7221   67.5286  228.9709 H   0  0  0  0  0  0  0  0  0  0  0  0
  140.2991   69.9333  229.3125 H   0  0  0  0  0  0  0  0  0  0  0  0
  140.5719   71.4477  227.3443 H   0  0  0  0  0  0  0  0  0  0  0  0
  142.5519   71.5397  222.1486 H   0  0  0  0  0  0  0  0  0  0  0  0
  145.8160   74.3040  218.9890 H   0  0  0  0  0  0  0  0  0  0  0  0
  143.8887   75.1888  217.6953 H   0  0  0  0  0  0  0  0  0  0  0  0
  142.7329   73.8323  217.4945 H   0  0  0  0  0  0  0  0  0  0  0  0
  141.3914   77.1901  220.7102 H   0  0  0  0  0  0  0  0  0  0  0  0
  139.0478   80.1945  219.9068 H   0  0  0  0  0  0  0  0  0  0  0  0
  138.9924   78.4705  220.4508 H   0  0  0  0  0  0  0  0  0  0  0  0
  137.6962   80.8906  221.7897 H   0  0  0  0  0  0  0  0  0  0  0  0
  136.8875   79.4640  221.0010 H   0  0  0  0  0  0  0  0  0  0  0  0
  1  2  1  0
  2  3  1  0
  3  4  1  0
  4  5  1  0
  5  6  1  0
  6  7  2  0
  6  8  1  0
  8  9  2  0
  9 10  1  0
 10 11  2  0
 11 12  1  0
 12 13  1  0
 13 14  2  0
 14 15  1  0
 15 16  2  0
 16 17  1  0
 17 18  2  0
 18 19  1  0
 19 20  3  0
 20 21  1  0
 21 22  2  0
 22 23  1  0
 23 24  2  0
 24 25  1  0
 25 26  2  0
 18 27  1  0
 27 28  2  0
 28 29  1  0
 29 30  2  0
 30 31  1  0
 30 32  1  0
 12 33  2  0
  5 34  1  0
 34 35  1  0
 35  2  1  0
 33  8  1  0
 32 13  1  0
 28 15  1  0
 26 21  1  0
  1 36  1  0
  1 37  1  0
  1 38  1  0
  3 39  1  0
  3 40  1  0
  4 41  1  0
  4 42  1  0
  9 43  1  0
 10 44  1  0
 11 45  1  0
 16 46  1  0
 17 47  1  0
 22 48  1  0
 23 49  1  0
 24 50  1  0
 25 51  1  0
 26 52  1  0
 27 53  1  0
 31 54  1  0
 32 55  1  0
 32 56  1  0
 33 57  1  0
 34 58  1  0
 34 59  1  0
 35 60  1  0
 35 61  1  0
M  END
>  <UniqueID>  (22) 
36

>  <SMILES>  (22) 
CN1CCN(C(=O)c2cccc(C3=Nc4ccc(C#Cc5ccccc5)cc4N=C(O)C3)c2)CC1

>  <Energy>  (22) 
87.66003728717698

>  <Genealogy>  (22) 
CN1CCN(C(=O)c2cccc(C3=Nc4ccc(C#Cc5ccccc5)cc4N=C(O)C3)c2)CC1 (tautomer)
CN1CCN(C(=O)c2cccc(C3=Nc4ccc(C#Cc5ccccc5)cc4N=C(O)C3)c2)CC1 (3D coordinates assigned)
CN1CCN(C(=O)c2cccc(C3=Nc4ccc(C#Cc5ccccc5)cc4N=C(O)C3)c2)CC1 (nonaromatic ring conformer: 87.66003728717698 kcal/mol)

>  <smiles>  (22) 
CN1CCN(C(=O)c2cccc(C3=Nc4ccc(C#Cc5ccccc5)cc4NC(=O)C3)c2)CC1

>  <score_type>  (22) 
oracle

>  <origin>  (22) 
autodockgpu

>  <m_score__min__energy>  (22) 
-5.4500000000000002

>  <m_primary>  (22) 
energy

>  <meeko>  (22) 
{"free_energy": -5.22, "intermolecular_energy": -8.5, "internal_energy": -1.38, "cluster_size": 4, "cluster_id": 2, "rank_in_cluster": 3}

>  <energy>  (22) 
-4.12

>  <cluster_rmsd>  (22) 
1.72

>  <rmsd>  (22) 
269.73

>  <cluster>  (22) 
1

$$$$
RUYQROVMPDWUPI-ZYMSVLFVNA-N
     RDKit          3D

 61 65  0  0  0  0  0  0  0  0999 V2000
  139.9800   76.9730  212.7180 C   0  0  0  0  0  0  0  0  0  0  0  0
  140.4540   76.0090  213.7260 N   0  0  0  0  0  0  0  0  0  0  0  0
  141.9360   76.0500  213.8550 C   0  0  0  0  0  0  0  0  0  0  0  0
  142.4290   75.9640  215.3040 C   0  0  0  0  0  0  0  0  0  0  0  0
  141.7610   76.9940  216.1040 N   0  0  0  0  0  0  0  0  0  0  0  0
  142.4540   77.6150  217.2030 C   0  0  0  0  0  0  0  0  0  0  0  0
  143.3470   76.9720  217.8220 O   0  0  0  0  0  0  0  0  0  0  0  0
  142.1470   79.0000  217.6190 C   0  0  0  0  0  0  0  0  0  0  0  0
  142.3450   80.0680  216.7310 C   0  0  0  0  0  0  0  0  0  0  0  0
  142.0500   81.3740  217.1230 C   0  0  0  0  0  0  0  0  0  0  0  0
  141.5620   81.6300  218.4060 C   0  0  0  0  0  0  0  0  0  0  0  0
  141.3700   80.5750  219.3180 C   0  0  0  0  0  0  0  0  0  0  0  0
  140.8670   80.8420  220.6880 C   0  0  0  0  0  0  0  0  0  0  0  0
  139.5870   80.7600  220.9140 N   0  0  0  0  0  0  0  0  0  0  0  0
  138.9150   80.9640  222.1680 C   0  0  0  0  0  0  0  0  0  0  0  0
  137.6090   81.4750  222.1230 C   0  0  0  0  0  0  0  0  0  0  0  0
  136.8590   81.6260  223.2900 C   0  0  0  0  0  0  0  0  0  0  0  0
  137.3950   81.2390  224.5220 C   0  0  0  0  0  0  0  0  0  0  0  0
  136.6170   81.3780  225.7250 C   0  0  0  0  0  0  0  0  0  0  0  0
  135.9640   81.4980  226.7300 C   0  0  0  0  0  0  0  0  0  0  0  0
  135.1800   81.6380  227.9290 C   0  0  0  0  0  0  0  0  0  0  0  0
  133.8050   81.8980  227.8430 C   0  0  0  0  0  0  0  0  0  0  0  0
  133.0440   82.0300  229.0100 C   0  0  0  0  0  0  0  0  0  0  0  0
  133.6520   81.8990  230.2620 C   0  0  0  0  0  0  0  0  0  0  0  0
  135.0230   81.6430  230.3490 C   0  0  0  0  0  0  0  0  0  0  0  0
  135.7880   81.5130  229.1850 C   0  0  0  0  0  0  0  0  0  0  0  0
  138.6860   80.7020  224.5810 C   0  0  0  0  0  0  0  0  0  0  0  0
  139.4630   80.5690  223.4230 C   0  0  0  0  0  0  0  0  0  0  0  0
  140.7520   79.9470  223.5620 N   0  0  0  0  0  0  0  0  0  0  0  0
  141.8020   80.1610  222.8250 C   0  0  0  0  0  0  0  0  0  0  0  0
  142.9450   79.3910  223.0170 O   0  0  0  0  0  0  0  0  0  0  0  0
  141.8100   81.2280  221.7890 C   0  0  0  0  0  0  0  0  0  0  0  0
  141.6840   79.2620  218.9190 C   0  0  0  0  0  0  0  0  0  0  0  0
  140.3210   77.2140  215.9230 C   0  0  0  0  0  0  0  0  0  0  0  0
  139.7110   76.1490  215.0000 C   0  0  0  0  0  0  0  0  0  0  0  0
  139.5489   77.8498  213.2234 H   0  0  0  0  0  0  0  0  0  0  0  0
  140.8246   77.2908  212.0890 H   0  0  0  0  0  0  0  0  0  0  0  0
  139.2126   76.4982  212.0890 H   0  0  0  0  0  0  0  0  0  0  0  0
  142.3574   75.2031  213.2935 H   0  0  0  0  0  0  0  0  0  0  0  0
  142.2673   77.0212  213.4589 H   0  0  0  0  0  0  0  0  0  0  0  0
  142.1942   74.9705  215.7138 H   0  0  0  0  0  0  0  0  0  0  0  0
  143.5172   76.1223  215.3333 H   0  0  0  0  0  0  0  0  0  0  0  0
  142.7348   79.8747  215.7207 H   0  0  0  0  0  0  0  0  0  0  0  0
  142.2024   82.2052  216.4188 H   0  0  0  0  0  0  0  0  0  0  0  0
  141.3263   82.6618  218.7057 H   0  0  0  0  0  0  0  0  0  0  0  0
  137.1707   81.7603  221.1553 H   0  0  0  0  0  0  0  0  0  0  0  0
  135.8451   82.0499  223.2406 H   0  0  0  0  0  0  0  0  0  0  0  0
  133.3245   81.9982  226.8586 H   0  0  0  0  0  0  0  0  0  0  0  0
  131.9658   82.2371  228.9420 H   0  0  0  0  0  0  0  0  0  0  0  0
  133.0514   81.9974  231.1783 H   0  0  0  0  0  0  0  0  0  0  0  0
  135.5015   81.5435  231.3345 H   0  0  0  0  0  0  0  0  0  0  0  0
  136.8673   81.3126  229.2559 H   0  0  0  0  0  0  0  0  0  0  0  0
  139.0961   80.3801  225.5496 H   0  0  0  0  0  0  0  0  0  0  0  0
  143.0580   78.4960  222.5520 H   0  0  0  0  0  0  0  0  0  0  0  0
  141.4862   82.1795  222.2361 H   0  0  0  0  0  0  0  0  0  0  0  0
  142.8260   81.3482  221.3850 H   0  0  0  0  0  0  0  0  0  0  0  0
  141.5656   78.4330  219.6323 H   0  0  0  0  0  0  0  0  0  0  0  0
  139.8243   77.1669  216.9034 H   0  0  0  0  0  0  0  0  0  0  0  0
  140.1736   78.2018  215.4621 H   0  0  0  0  0  0  0  0  0  0  0  0
  139.7218   75.1812  215.5228 H   0  0  0  0  0  0  0  0  0  0  0  0
  138.6862   76.4657  214.7560 H   0  0  0  0  0  0  0  0  0  0  0  0
  1  2  1  0
  2  3  1  0
  3  4  1  0
  4  5  1  0
  5  6  1  0
  6  7  2  0
  6  8  1  0
  8  9  2  0
  9 10  1  0
 10 11  2  0
 11 12  1  0
 12 13  1  0
 13 14  2  0
 14 15  1  0
 15 16  2  0
 16 17  1  0
 17 18  2  0
 18 19  1  0
 19 20  3  0
 20 21  1  0
 21 22  2  0
 22 23  1  0
 23 24  2  0
 24 25  1  0
 25 26  2  0
 18 27  1  0
 27 28  2  0
 28 29  1  0
 29 30  2  0
 30 31  1  0
 30 32  1  0
 12 33  2  0
  5 34  1  0
 34 35  1  0
 35  2  1  0
 33  8  1  0
 32 13  1  0
 28 15  1  0
 26 21  1  0
  1 36  1  0
  1 37  1  0
  1 38  1  0
  3 39  1  0
  3 40  1  0
  4 41  1  0
  4 42  1  0
  9 43  1  0
 10 44  1  0
 11 45  1  0
 16 46  1  0
 17 47  1  0
 22 48  1  0
 23 49  1  0
 24 50  1  0
 25 51  1  0
 26 52  1  0
 27 53  1  0
 31 54  1  0
 32 55  1  0
 32 56  1  0
 33 57  1  0
 34 58  1  0
 34 59  1  0
 35 60  1  0
 35 61  1  0
M  END
>  <UniqueID>  (23) 
36

>  <SMILES>  (23) 
CN1CCN(C(=O)c2cccc(C3=Nc4ccc(C#Cc5ccccc5)cc4N=C(O)C3)c2)CC1

>  <Energy>  (23) 
87.66003728717698

>  <Genealogy>  (23) 
CN1CCN(C(=O)c2cccc(C3=Nc4ccc(C#Cc5ccccc5)cc4N=C(O)C3)c2)CC1 (tautomer)
CN1CCN(C(=O)c2cccc(C3=Nc4ccc(C#Cc5ccccc5)cc4N=C(O)C3)c2)CC1 (3D coordinates assigned)
CN1CCN(C(=O)c2cccc(C3=Nc4ccc(C#Cc5ccccc5)cc4N=C(O)C3)c2)CC1 (nonaromatic ring conformer: 87.66003728717698 kcal/mol)

>  <smiles>  (23) 
CN1CCN(C(=O)c2cccc(C3=Nc4ccc(C#Cc5ccccc5)cc4NC(=O)C3)c2)CC1

>  <score_type>  (23) 
oracle

>  <origin>  (23) 
autodockgpu

>  <m_score__min__energy>  (23) 
-5.4500000000000002

>  <m_primary>  (23) 
energy

>  <meeko>  (23) 
{"free_energy": -4.12, "intermolecular_energy": -7.4, "internal_energy": -1.12, "cluster_size": 2, "cluster_id": 1, "rank_in_cluster": 2}

>  <energy>  (23) 
-5.39

>  <cluster_rmsd>  (23) 
0.0

>  <rmsd>  (23) 
269.25

>  <cluster>  (23) 
2

$$$$
RUYQROVMPDWUPI-ZYMSVLFVNA-N
     RDKit          3D

 61 65  0  0  0  0  0  0  0  0999 V2000
  136.2470   80.0270  223.6800 C   0  0  0  0  0  0  0  0  0  0  0  0
  137.3170   81.0120  223.9140 N   0  0  0  0  0  0  0  0  0  0  0  0
  138.5440   80.3580  224.4450 C   0  0  0  0  0  0  0  0  0  0  0  0
  139.8420   80.8970  223.8330 C   0  0  0  0  0  0  0  0  0  0  0  0
  139.7520   80.8320  222.3720 N   0  0  0  0  0  0  0  0  0  0  0  0
  140.9330   80.5840  221.5870 C   0  0  0  0  0  0  0  0  0  0  0  0
  142.0600   80.9470  222.0240 O   0  0  0  0  0  0  0  0  0  0  0  0
  140.8560   79.9010  220.2790 C   0  0  0  0  0  0  0  0  0  0  0  0
  140.4810   80.6110  219.1270 C   0  0  0  0  0  0  0  0  0  0  0  0
  140.4140   79.9660  217.8930 C   0  0  0  0  0  0  0  0  0  0  0  0
  140.7120   78.6050  217.7930 C   0  0  0  0  0  0  0  0  0  0  0  0
  141.0750   77.8700  218.9370 C   0  0  0  0  0  0  0  0  0  0  0  0
  141.3780   76.4210  218.8400 C   0  0  0  0  0  0  0  0  0  0  0  0
  140.4520   75.5630  219.1630 N   0  0  0  0  0  0  0  0  0  0  0  0
  140.4880   74.6200  220.2460 C   0  0  0  0  0  0  0  0  0  0  0  0
  139.2650   74.2760  220.8410 C   0  0  0  0  0  0  0  0  0  0  0  0
  139.2040   73.3070  221.8430 C   0  0  0  0  0  0  0  0  0  0  0  0
  140.3660   72.6440  222.2490 C   0  0  0  0  0  0  0  0  0  0  0  0
  140.3020   71.6330  223.2710 C   0  0  0  0  0  0  0  0  0  0  0  0
  140.2470   70.7890  224.1300 C   0  0  0  0  0  0  0  0  0  0  0  0
  140.1850   69.7790  225.1520 C   0  0  0  0  0  0  0  0  0  0  0  0
  141.0990   69.7970  226.2150 C   0  0  0  0  0  0  0  0  0  0  0  0
  141.0350   68.8160  227.2100 C   0  0  0  0  0  0  0  0  0  0  0  0
  140.0570   67.8190  227.1480 C   0  0  0  0  0  0  0  0  0  0  0  0
  139.1460   67.7970  226.0890 C   0  0  0  0  0  0  0  0  0  0  0  0
  139.2090   68.7750  225.0900 C   0  0  0  0  0  0  0  0  0  0  0  0
  141.5900   72.9560  221.6470 C   0  0  0  0  0  0  0  0  0  0  0  0
  141.6740   73.9450  220.6580 C   0  0  0  0  0  0  0  0  0  0  0  0
  142.9580   74.1570  220.0450 N   0  0  0  0  0  0  0  0  0  0  0  0
  143.4070   75.2720  219.5500 C   0  0  0  0  0  0  0  0  0  0  0  0
  144.5350   75.8660  220.1100 O   0  0  0  0  0  0  0  0  0  0  0  0
  142.7340   75.9490  218.4030 C   0  0  0  0  0  0  0  0  0  0  0  0
  141.1270   78.5260  220.1820 C   0  0  0  0  0  0  0  0  0  0  0  0
  138.5060   81.2470  221.7160 C   0  0  0  0  0  0  0  0  0  0  0  0
  137.5310   81.8700  222.7260 C   0  0  0  0  0  0  0  0  0  0  0  0
  135.8594   79.6702  224.6457 H   0  0  0  0  0  0  0  0  0  0  0  0
  135.4330   80.4984  223.1098 H   0  0  0  0  0  0  0  0  0  0  0  0
  136.6496   79.1768  223.1098 H   0  0  0  0  0  0  0  0  0  0  0  0
  138.5801   80.5179  225.5327 H   0  0  0  0  0  0  0  0  0  0  0  0
  138.4813   79.2922  224.1800 H   0  0  0  0  0  0  0  0  0  0  0  0
  139.9899   81.9411  224.1459 H   0  0  0  0  0  0  0  0  0  0  0  0
  140.6918   80.2893  224.1772 H   0  0  0  0  0  0  0  0  0  0  0  0
  140.2389   81.6816  219.1987 H   0  0  0  0  0  0  0  0  0  0  0  0
  140.1253   80.5311  216.9945 H   0  0  0  0  0  0  0  0  0  0  0  0
  140.6627   78.1048  216.8145 H   0  0  0  0  0  0  0  0  0  0  0  0
  138.3421   74.7768  220.5133 H   0  0  0  0  0  0  0  0  0  0  0  0
  138.2401   73.0643  222.3143 H   0  0  0  0  0  0  0  0  0  0  0  0
  141.8668   70.5830  226.2665 H   0  0  0  0  0  0  0  0  0  0  0  0
  141.7547   68.8290  228.0418 H   0  0  0  0  0  0  0  0  0  0  0  0
  140.0047   67.0510  227.9338 H   0  0  0  0  0  0  0  0  0  0  0  0
  138.3786   67.0104  226.0404 H   0  0  0  0  0  0  0  0  0  0  0  0
  138.4923   68.7558  224.2558 H   0  0  0  0  0  0  0  0  0  0  0  0
  142.4986   72.4175  221.9544 H   0  0  0  0  0  0  0  0  0  0  0  0
  144.5930   76.8720  220.2270 H   0  0  0  0  0  0  0  0  0  0  0  0
  143.3368   76.8098  218.0778 H   0  0  0  0  0  0  0  0  0  0  0  0
  142.6293   75.2438  217.5653 H   0  0  0  0  0  0  0  0  0  0  0  0
  141.3824   77.9561  221.0876 H   0  0  0  0  0  0  0  0  0  0  0  0
  138.7393   81.9883  220.9375 H   0  0  0  0  0  0  0  0  0  0  0  0
  138.0311   80.3588  221.2738 H   0  0  0  0  0  0  0  0  0  0  0  0
  137.9376   82.8367  223.0581 H   0  0  0  0  0  0  0  0  0  0  0  0
  136.5605   81.9899  222.2222 H   0  0  0  0  0  0  0  0  0  0  0  0
  1  2  1  0
  2  3  1  0
  3  4  1  0
  4  5  1  0
  5  6  1  0
  6  7  2  0
  6  8  1  0
  8  9  2  0
  9 10  1  0
 10 11  2  0
 11 12  1  0
 12 13  1  0
 13 14  2  0
 14 15  1  0
 15 16  2  0
 16 17  1  0
 17 18  2  0
 18 19  1  0
 19 20  3  0
 20 21  1  0
 21 22  2  0
 22 23  1  0
 23 24  2  0
 24 25  1  0
 25 26  2  0
 18 27  1  0
 27 28  2  0
 28 29  1  0
 29 30  2  0
 30 31  1  0
 30 32  1  0
 12 33  2  0
  5 34  1  0
 34 35  1  0
 35  2  1  0
 33  8  1  0
 32 13  1  0
 28 15  1  0
 26 21  1  0
  1 36  1  0
  1 37  1  0
  1 38  1  0
  3 39  1  0
  3 40  1  0
  4 41  1  0
  4 42  1  0
  9 43  1  0
 10 44  1  0
 11 45  1  0
 16 46  1  0
 17 47  1  0
 22 48  1  0
 23 49  1  0
 24 50  1  0
 25 51  1  0
 26 52  1  0
 27 53  1  0
 31 54  1  0
 32 55  1  0
 32 56  1  0
 33 57  1  0
 34 58  1  0
 34 59  1  0
 35 60  1  0
 35 61  1  0
M  END
>  <UniqueID>  (24) 
36

>  <SMILES>  (24) 
CN1CCN(C(=O)c2cccc(C3=Nc4ccc(C#Cc5ccccc5)cc4N=C(O)C3)c2)CC1

>  <Energy>  (24) 
87.66003728717698

>  <Genealogy>  (24) 
CN1CCN(C(=O)c2cccc(C3=Nc4ccc(C#Cc5ccccc5)cc4N=C(O)C3)c2)CC1 (tautomer)
CN1CCN(C(=O)c2cccc(C3=Nc4ccc(C#Cc5ccccc5)cc4N=C(O)C3)c2)CC1 (3D coordinates assigned)
CN1CCN(C(=O)c2cccc(C3=Nc4ccc(C#Cc5ccccc5)cc4N=C(O)C3)c2)CC1 (nonaromatic ring conformer: 87.66003728717698 kcal/mol)

>  <smiles>  (24) 
CN1CCN(C(=O)c2cccc(C3=Nc4ccc(C#Cc5ccccc5)cc4NC(=O)C3)c2)CC1

>  <score_type>  (24) 
oracle

>  <origin>  (24) 
autodockgpu

>  <m_score__min__energy>  (24) 
-5.4500000000000002

>  <m_primary>  (24) 
energy

>  <meeko>  (24) 
{"free_energy": -5.02, "intermolecular_energy": -8.3, "internal_energy": -1.19, "cluster_size": 4, "cluster_id": 2, "rank_in_cluster": 4}

>  <energy>  (24) 
-5.25

>  <cluster_rmsd>  (24) 
1.42

>  <rmsd>  (24) 
269.32

>  <cluster>  (24) 
2

$$$$
RUYQROVMPDWUPI-ZYMSVLFVNA-N
     RDKit          3D

 61 65  0  0  0  0  0  0  0  0999 V2000
  133.4640   84.1460  230.0500 C   0  0  0  0  0  0  0  0  0  0  0  0
  133.3770   82.6760  230.0740 N   0  0  0  0  0  0  0  0  0  0  0  0
  132.3640   82.1790  229.1040 C   0  0  0  0  0  0  0  0  0  0  0  0
  132.8110   80.9320  228.3340 C   0  0  0  0  0  0  0  0  0  0  0  0
  134.1140   81.1870  227.7130 N   0  0  0  0  0  0  0  0  0  0  0  0
  134.4420   80.5770  226.4500 C   0  0  0  0  0  0  0  0  0  0  0  0
  133.9250   79.4690  226.1380 O   0  0  0  0  0  0  0  0  0  0  0  0
  135.3700   81.2290  225.5020 C   0  0  0  0  0  0  0  0  0  0  0  0
  135.2750   82.6060  225.2480 C   0  0  0  0  0  0  0  0  0  0  0  0
  136.1550   83.2200  224.3570 C   0  0  0  0  0  0  0  0  0  0  0  0
  137.1340   82.4690  223.7050 C   0  0  0  0  0  0  0  0  0  0  0  0
  137.2380   81.0840  223.9330 C   0  0  0  0  0  0  0  0  0  0  0  0
  138.2660   80.2770  223.2310 C   0  0  0  0  0  0  0  0  0  0  0  0
  138.0850   78.9930  223.1130 N   0  0  0  0  0  0  0  0  0  0  0  0
  139.0650   78.0110  222.7370 C   0  0  0  0  0  0  0  0  0  0  0  0
  138.6220   76.9170  221.9790 C   0  0  0  0  0  0  0  0  0  0  0  0
  139.5230   75.9630  221.5040 C   0  0  0  0  0  0  0  0  0  0  0  0
  140.8910   76.1050  221.7570 C   0  0  0  0  0  0  0  0  0  0  0  0
  141.8240   75.1310  221.2550 C   0  0  0  0  0  0  0  0  0  0  0  0
  142.6030   74.3120  220.8370 C   0  0  0  0  0  0  0  0  0  0  0  0
  143.5300   73.3320  220.3350 C   0  0  0  0  0  0  0  0  0  0  0  0
  143.0540   72.1400  219.7700 C   0  0  0  0  0  0  0  0  0  0  0  0
  143.9560   71.1900  219.2790 C   0  0  0  0  0  0  0  0  0  0  0  0
  145.3320   71.4290  219.3480 C   0  0  0  0  0  0  0  0  0  0  0  0
  145.8080   72.6160  219.9120 C   0  0  0  0  0  0  0  0  0  0  0  0
  144.9090   73.5670  220.4070 C   0  0  0  0  0  0  0  0  0  0  0  0
  141.3530   77.2050  222.4880 C   0  0  0  0  0  0  0  0  0  0  0  0
  140.4590   78.1570  222.9960 C   0  0  0  0  0  0  0  0  0  0  0  0
  141.0210   79.2920  223.6790 N   0  0  0  0  0  0  0  0  0  0  0  0
  140.6680   80.5350  223.5400 C   0  0  0  0  0  0  0  0  0  0  0  0
  141.3770   81.5290  224.2090 O   0  0  0  0  0  0  0  0  0  0  0  0
  139.5080   80.9220  222.6890 C   0  0  0  0  0  0  0  0  0  0  0  0
  136.3370   80.4690  224.8230 C   0  0  0  0  0  0  0  0  0  0  0  0
  135.1520   81.8720  228.4920 C   0  0  0  0  0  0  0  0  0  0  0  0
  134.7160   82.0530  229.9530 C   0  0  0  0  0  0  0  0  0  0  0  0
  133.4867   84.5288  231.0810 H   0  0  0  0  0  0  0  0  0  0  0  0
  134.3817   84.4505  229.5256 H   0  0  0  0  0  0  0  0  0  0  0  0
  132.5886   84.5566  229.5256 H   0  0  0  0  0  0  0  0  0  0  0  0
  131.4442   81.9355  229.6560 H   0  0  0  0  0  0  0  0  0  0  0  0
  132.2088   82.9769  228.3629 H   0  0  0  0  0  0  0  0  0  0  0  0
  132.8945   80.0823  229.0275 H   0  0  0  0  0  0  0  0  0  0  0  0
  132.0715   80.6955  227.5548 H   0  0  0  0  0  0  0  0  0  0  0  0
  134.5027   83.2039  225.7541 H   0  0  0  0  0  0  0  0  0  0  0  0
  136.0770   84.3007  224.1674 H   0  0  0  0  0  0  0  0  0  0  0  0
  137.8284   82.9623  223.0089 H   0  0  0  0  0  0  0  0  0  0  0  0
  137.5502   76.8096  221.7560 H   0  0  0  0  0  0  0  0  0  0  0  0
  139.1569   75.0988  220.9302 H   0  0  0  0  0  0  0  0  0  0  0  0
  141.9717   71.9520  219.7129 H   0  0  0  0  0  0  0  0  0  0  0  0
  143.5824   70.2540  218.8382 H   0  0  0  0  0  0  0  0  0  0  0  0
  146.0400   70.6827  218.9584 H   0  0  0  0  0  0  0  0  0  0  0  0
  146.8907   72.8027  219.9668 H   0  0  0  0  0  0  0  0  0  0  0  0
  145.2853   74.4995  220.8528 H   0  0  0  0  0  0  0  0  0  0  0  0
  142.4319   77.3240  222.6662 H   0  0  0  0  0  0  0  0  0  0  0  0
  142.1120   82.0510  223.7440 H   0  0  0  0  0  0  0  0  0  0  0  0
  139.3907   82.0157  222.7011 H   0  0  0  0  0  0  0  0  0  0  0  0
  139.6786   80.5880  221.6549 H   0  0  0  0  0  0  0  0  0  0  0  0
  136.3907   79.3828  224.9883 H   0  0  0  0  0  0  0  0  0  0  0  0
  136.0754   81.2749  228.4638 H   0  0  0  0  0  0  0  0  0  0  0  0
  135.3212   82.8657  228.0517 H   0  0  0  0  0  0  0  0  0  0  0  0
  134.6908   81.0661  230.4382 H   0  0  0  0  0  0  0  0  0  0  0  0
  135.4411   82.7239  230.4369 H   0  0  0  0  0  0  0  0  0  0  0  0
  1  2  1  0
  2  3  1  0
  3  4  1  0
  4  5  1  0
  5  6  1  0
  6  7  2  0
  6  8  1  0
  8  9  2  0
  9 10  1  0
 10 11  2  0
 11 12  1  0
 12 13  1  0
 13 14  2  0
 14 15  1  0
 15 16  2  0
 16 17  1  0
 17 18  2  0
 18 19  1  0
 19 20  3  0
 20 21  1  0
 21 22  2  0
 22 23  1  0
 23 24  2  0
 24 25  1  0
 25 26  2  0
 18 27  1  0
 27 28  2  0
 28 29  1  0
 29 30  2  0
 30 31  1  0
 30 32  1  0
 12 33  2  0
  5 34  1  0
 34 35  1  0
 35  2  1  0
 33  8  1  0
 32 13  1  0
 28 15  1  0
 26 21  1  0
  1 36  1  0
  1 37  1  0
  1 38  1  0
  3 39  1  0
  3 40  1  0
  4 41  1  0
  4 42  1  0
  9 43  1  0
 10 44  1  0
 11 45  1  0
 16 46  1  0
 17 47  1  0
 22 48  1  0
 23 49  1  0
 24 50  1  0
 25 51  1  0
 26 52  1  0
 27 53  1  0
 31 54  1  0
 32 55  1  0
 32 56  1  0
 33 57  1  0
 34 58  1  0
 34 59  1  0
 35 60  1  0
 35 61  1  0
M  END
>  <UniqueID>  (25) 
36

>  <SMILES>  (25) 
CN1CCN(C(=O)c2cccc(C3=Nc4ccc(C#Cc5ccccc5)cc4N=C(O)C3)c2)CC1

>  <Energy>  (25) 
87.66003728717698

>  <Genealogy>  (25) 
CN1CCN(C(=O)c2cccc(C3=Nc4ccc(C#Cc5ccccc5)cc4N=C(O)C3)c2)CC1 (tautomer)
CN1CCN(C(=O)c2cccc(C3=Nc4ccc(C#Cc5ccccc5)cc4N=C(O)C3)c2)CC1 (3D coordinates assigned)
CN1CCN(C(=O)c2cccc(C3=Nc4ccc(C#Cc5ccccc5)cc4N=C(O)C3)c2)CC1 (nonaromatic ring conformer: 87.66003728717698 kcal/mol)

>  <smiles>  (25) 
CN1CCN(C(=O)c2cccc(C3=Nc4ccc(C#Cc5ccccc5)cc4NC(=O)C3)c2)CC1

>  <score_type>  (25) 
oracle

>  <origin>  (25) 
autodockgpu

>  <m_score__min__energy>  (25) 
-5.4500000000000002

>  <m_primary>  (25) 
energy

>  <meeko>  (25) 
{"free_energy": -4.48, "intermolecular_energy": -7.76, "internal_energy": -1.15, "cluster_size": 1, "cluster_id": 10, "rank_in_cluster": 1}

>  <energy>  (25) 
-5.22

>  <cluster_rmsd>  (25) 
1.75

>  <rmsd>  (25) 
269.28

>  <cluster>  (25) 
2

$$$$
RUYQROVMPDWUPI-ZYMSVLFVNA-N
     RDKit          3D

 61 65  0  0  0  0  0  0  0  0999 V2000
  141.7930   78.6320  224.2880 C   0  0  0  0  0  0  0  0  0  0  0  0
  141.5140   80.0350  223.9360 N   0  0  0  0  0  0  0  0  0  0  0  0
  142.5850   80.5960  223.0690 C   0  0  0  0  0  0  0  0  0  0  0  0
  142.0560   81.4710  221.9270 C   0  0  0  0  0  0  0  0  0  0  0  0
  141.0480   80.7230  221.1710 N   0  0  0  0  0  0  0  0  0  0  0  0
  140.9050   80.9360  219.7540 C   0  0  0  0  0  0  0  0  0  0  0  0
  141.2010   82.0580  219.2580 O   0  0  0  0  0  0  0  0  0  0  0  0
  140.4250   79.8600  218.8610 C   0  0  0  0  0  0  0  0  0  0  0  0
  139.4700   80.1330  217.8700 C   0  0  0  0  0  0  0  0  0  0  0  0
  139.0230   79.1170  217.0250 C   0  0  0  0  0  0  0  0  0  0  0  0
  139.5170   77.8180  217.1630 C   0  0  0  0  0  0  0  0  0  0  0  0
  140.4640   77.5200  218.1600 C   0  0  0  0  0  0  0  0  0  0  0  0
  140.9810   76.1380  218.3220 C   0  0  0  0  0  0  0  0  0  0  0  0
  140.1710   75.2100  218.7460 N   0  0  0  0  0  0  0  0  0  0  0  0
  140.2720   74.4690  219.9730 C   0  0  0  0  0  0  0  0  0  0  0  0
  139.0750   74.0370  220.5640 C   0  0  0  0  0  0  0  0  0  0  0  0
  139.0890   73.2440  221.7120 C   0  0  0  0  0  0  0  0  0  0  0  0
  140.3060   72.8450  222.2720 C   0  0  0  0  0  0  0  0  0  0  0  0
  140.3230   72.0130  223.4470 C   0  0  0  0  0  0  0  0  0  0  0  0
  140.3410   71.3150  224.4300 C   0  0  0  0  0  0  0  0  0  0  0  0
  140.3670   70.4810  225.6010 C   0  0  0  0  0  0  0  0  0  0  0  0
  140.7130   71.0270  226.8460 C   0  0  0  0  0  0  0  0  0  0  0  0
  140.7340   70.2140  227.9840 C   0  0  0  0  0  0  0  0  0  0  0  0
  140.4070   68.8580  227.8840 C   0  0  0  0  0  0  0  0  0  0  0  0
  140.0640   68.3120  226.6440 C   0  0  0  0  0  0  0  0  0  0  0  0
  140.0440   69.1210  225.5020 C   0  0  0  0  0  0  0  0  0  0  0  0
  141.5090   73.2450  221.6810 C   0  0  0  0  0  0  0  0  0  0  0  0
  141.5130   74.0640  220.5440 C   0  0  0  0  0  0  0  0  0  0  0  0
  142.7900   74.3750  219.9590 N   0  0  0  0  0  0  0  0  0  0  0  0
  143.1030   75.4530  219.3030 C   0  0  0  0  0  0  0  0  0  0  0  0
  144.0930   76.2950  219.8000 O   0  0  0  0  0  0  0  0  0  0  0  0
  142.4180   75.8190  218.0290 C   0  0  0  0  0  0  0  0  0  0  0  0
  140.9000   78.5470  219.0180 C   0  0  0  0  0  0  0  0  0  0  0  0
  140.0460   79.9390  221.9030 C   0  0  0  0  0  0  0  0  0  0  0  0
  140.1370   80.1980  223.4140 C   0  0  0  0  0  0  0  0  0  0  0  0
  141.8141   78.5258  225.3827 H   0  0  0  0  0  0  0  0  0  0  0  0
  141.0057   77.9861  223.8721 H   0  0  0  0  0  0  0  0  0  0  0  0
  142.7675   78.3364  223.8721 H   0  0  0  0  0  0  0  0  0  0  0  0
  143.2536   81.2066  223.6936 H   0  0  0  0  0  0  0  0  0  0  0  0
  143.1053   79.7438  222.6074 H   0  0  0  0  0  0  0  0  0  0  0  0
  141.6020   82.3827  222.3426 H   0  0  0  0  0  0  0  0  0  0  0  0
  142.8859   81.7484  221.2604 H   0  0  0  0  0  0  0  0  0  0  0  0
  139.0721   81.1525  217.7589 H   0  0  0  0  0  0  0  0  0  0  0  0
  138.2783   79.3399  216.2467 H   0  0  0  0  0  0  0  0  0  0  0  0
  139.1639   77.0238  216.4888 H   0  0  0  0  0  0  0  0  0  0  0  0
  138.1130   74.3273  220.1165 H   0  0  0  0  0  0  0  0  0  0  0  0
  138.1418   72.9327  222.1766 H   0  0  0  0  0  0  0  0  0  0  0  0
  140.9677   72.0940  226.9273 H   0  0  0  0  0  0  0  0  0  0  0  0
  141.0082   70.6421  228.9595 H   0  0  0  0  0  0  0  0  0  0  0  0
  140.4197   68.2214  228.7810 H   0  0  0  0  0  0  0  0  0  0  0  0
  139.8093   67.2448  226.5654 H   0  0  0  0  0  0  0  0  0  0  0  0
  139.7747   68.6892  224.5268 H   0  0  0  0  0  0  0  0  0  0  0  0
  142.4639   72.9125  222.1142 H   0  0  0  0  0  0  0  0  0  0  0  0
  144.1450   77.2680  219.5150 H   0  0  0  0  0  0  0  0  0  0  0  0
  142.9082   76.6984  217.5860 H   0  0  0  0  0  0  0  0  0  0  0  0
  142.4757   74.9791  217.3210 H   0  0  0  0  0  0  0  0  0  0  0  0
  141.6191   78.3197  219.8187 H   0  0  0  0  0  0  0  0  0  0  0  0
  139.0426   80.2195  221.5502 H   0  0  0  0  0  0  0  0  0  0  0  0
  140.2359   78.8711  221.7196 H   0  0  0  0  0  0  0  0  0  0  0  0
  139.8025   81.2262  223.6164 H   0  0  0  0  0  0  0  0  0  0  0  0
  139.4986   79.4580  223.9188 H   0  0  0  0  0  0  0  0  0  0  0  0
  1  2  1  0
  2  3  1  0
  3  4  1  0
  4  5  1  0
  5  6  1  0
  6  7  2  0
  6  8  1  0
  8  9  2  0
  9 10  1  0
 10 11  2  0
 11 12  1  0
 12 13  1  0
 13 14  2  0
 14 15  1  0
 15 16  2  0
 16 17  1  0
 17 18  2  0
 18 19  1  0
 19 20  3  0
 20 21  1  0
 21 22  2  0
 22 23  1  0
 23 24  2  0
 24 25  1  0
 25 26  2  0
 18 27  1  0
 27 28  2  0
 28 29  1  0
 29 30  2  0
 30 31  1  0
 30 32  1  0
 12 33  2  0
  5 34  1  0
 34 35  1  0
 35  2  1  0
 33  8  1  0
 32 13  1  0
 28 15  1  0
 26 21  1  0
  1 36  1  0
  1 37  1  0
  1 38  1  0
  3 39  1  0
  3 40  1  0
  4 41  1  0
  4 42  1  0
  9 43  1  0
 10 44  1  0
 11 45  1  0
 16 46  1  0
 17 47  1  0
 22 48  1  0
 23 49  1  0
 24 50  1  0
 25 51  1  0
 26 52  1  0
 27 53  1  0
 31 54  1  0
 32 55  1  0
 32 56  1  0
 33 57  1  0
 34 58  1  0
 34 59  1  0
 35 60  1  0
 35 61  1  0
M  END
>  <UniqueID>  (26) 
36

>  <SMILES>  (26) 
CN1CCN(C(=O)c2cccc(C3=Nc4ccc(C#Cc5ccccc5)cc4N=C(O)C3)c2)CC1

>  <Energy>  (26) 
87.66003728717698

>  <Genealogy>  (26) 
CN1CCN(C(=O)c2cccc(C3=Nc4ccc(C#Cc5ccccc5)cc4N=C(O)C3)c2)CC1 (tautomer)
CN1CCN(C(=O)c2cccc(C3=Nc4ccc(C#Cc5ccccc5)cc4N=C(O)C3)c2)CC1 (3D coordinates assigned)
CN1CCN(C(=O)c2cccc(C3=Nc4ccc(C#Cc5ccccc5)cc4N=C(O)C3)c2)CC1 (nonaromatic ring conformer: 87.66003728717698 kcal/mol)

>  <smiles>  (26) 
CN1CCN(C(=O)c2cccc(C3=Nc4ccc(C#Cc5ccccc5)cc4NC(=O)C3)c2)CC1

>  <score_type>  (26) 
oracle

>  <origin>  (26) 
autodockgpu

>  <m_score__min__energy>  (26) 
-5.4500000000000002

>  <m_primary>  (26) 
energy

>  <meeko>  (26) 
{"free_energy": -5.39, "intermolecular_energy": -8.67, "internal_energy": -1.3, "cluster_size": 4, "cluster_id": 2, "rank_in_cluster": 1}

>  <energy>  (26) 
-5.02

>  <cluster_rmsd>  (26) 
1.48

>  <rmsd>  (26) 
269.35

>  <cluster>  (26) 
2

$$$$
RUYQROVMPDWUPI-ZYMSVLFVNA-N
     RDKit          3D

 61 65  0  0  0  0  0  0  0  0999 V2000
  139.9600   71.8750  228.6590 C   0  0  0  0  0  0  0  0  0  0  0  0
  140.6910   70.6860  228.1890 N   0  0  0  0  0  0  0  0  0  0  0  0
  139.8560   69.4600  228.3030 C   0  0  0  0  0  0  0  0  0  0  0  0
  139.9800   68.5180  227.1000 C   0  0  0  0  0  0  0  0  0  0  0  0
  139.7200   69.2690  225.8680 N   0  0  0  0  0  0  0  0  0  0  0  0
  139.0890   68.6200  224.7480 C   0  0  0  0  0  0  0  0  0  0  0  0
  139.2400   67.3790  224.5790 O   0  0  0  0  0  0  0  0  0  0  0  0
  138.2560   69.3790  223.7920 C   0  0  0  0  0  0  0  0  0  0  0  0
  137.0350   68.8540  223.3400 C   0  0  0  0  0  0  0  0  0  0  0  0
  136.2480   69.5750  222.4410 C   0  0  0  0  0  0  0  0  0  0  0  0
  136.6720   70.8220  221.9790 C   0  0  0  0  0  0  0  0  0  0  0  0
  137.8990   71.3610  222.4070 C   0  0  0  0  0  0  0  0  0  0  0  0
  138.3620   72.6790  221.9060 C   0  0  0  0  0  0  0  0  0  0  0  0
  137.7620   73.7560  222.3260 N   0  0  0  0  0  0  0  0  0  0  0  0
  138.1340   75.1170  222.0490 C   0  0  0  0  0  0  0  0  0  0  0  0
  137.1100   76.0760  222.0480 C   0  0  0  0  0  0  0  0  0  0  0  0
  137.3980   77.4290  221.8680 C   0  0  0  0  0  0  0  0  0  0  0  0
  138.7220   77.8500  221.7150 C   0  0  0  0  0  0  0  0  0  0  0  0
  139.0230   79.2470  221.5460 C   0  0  0  0  0  0  0  0  0  0  0  0
  139.2700   80.4180  221.4040 C   0  0  0  0  0  0  0  0  0  0  0  0
  139.5610   81.8170  221.2310 C   0  0  0  0  0  0  0  0  0  0  0  0
  138.6900   82.7850  221.7490 C   0  0  0  0  0  0  0  0  0  0  0  0
  138.9770   84.1440  221.5840 C   0  0  0  0  0  0  0  0  0  0  0  0
  140.1340   84.5380  220.9050 C   0  0  0  0  0  0  0  0  0  0  0  0
  141.0030   83.5750  220.3870 C   0  0  0  0  0  0  0  0  0  0  0  0
  140.7180   82.2140  220.5470 C   0  0  0  0  0  0  0  0  0  0  0  0
  139.7580   76.9090  221.7410 C   0  0  0  0  0  0  0  0  0  0  0  0
  139.4840   75.5430  221.8930 C   0  0  0  0  0  0  0  0  0  0  0  0
  140.6100   74.6510  221.9760 N   0  0  0  0  0  0  0  0  0  0  0  0
  140.6560   73.4190  221.5630 C   0  0  0  0  0  0  0  0  0  0  0  0
  141.8290   72.6860  221.7200 O   0  0  0  0  0  0  0  0  0  0  0  0
  139.4830   72.7700  220.9130 C   0  0  0  0  0  0  0  0  0  0  0  0
  138.6950   70.6210  223.3030 C   0  0  0  0  0  0  0  0  0  0  0  0
  140.3130   70.6020  225.7090 C   0  0  0  0  0  0  0  0  0  0  0  0
  141.2890   70.9130  226.8520 C   0  0  0  0  0  0  0  0  0  0  0  0
  139.9514   71.8891  229.7589 H   0  0  0  0  0  0  0  0  0  0  0  0
  140.4565   72.7824  228.2846 H   0  0  0  0  0  0  0  0  0  0  0  0
  138.9262   71.8416  228.2846 H   0  0  0  0  0  0  0  0  0  0  0  0
  140.1636   68.9127  229.2062 H   0  0  0  0  0  0  0  0  0  0  0  0
  138.8070   69.7877  228.3488 H   0  0  0  0  0  0  0  0  0  0  0  0
  140.9956   68.0968  227.0662 H   0  0  0  0  0  0  0  0  0  0  0  0
  139.2495   67.7010  227.1948 H   0  0  0  0  0  0  0  0  0  0  0  0
  136.6970   67.8696  223.6961 H   0  0  0  0  0  0  0  0  0  0  0  0
  135.2901   69.1591  222.0952 H   0  0  0  0  0  0  0  0  0  0  0  0
  136.0426   71.3870  221.2757 H   0  0  0  0  0  0  0  0  0  0  0  0
  136.0670   75.7570  222.1910 H   0  0  0  0  0  0  0  0  0  0  0  0
  136.5816   78.1659  221.8464 H   0  0  0  0  0  0  0  0  0  0  0  0
  137.7807   82.4761  222.2853 H   0  0  0  0  0  0  0  0  0  0  0  0
  138.2919   84.9034  221.9888 H   0  0  0  0  0  0  0  0  0  0  0  0
  140.3600   85.6071  220.7787 H   0  0  0  0  0  0  0  0  0  0  0  0
  141.9126   83.8866  219.8526 H   0  0  0  0  0  0  0  0  0  0  0  0
  141.4017   81.4565  220.1361 H   0  0  0  0  0  0  0  0  0  0  0  0
  140.8003   77.2459  221.6409 H   0  0  0  0  0  0  0  0  0  0  0  0
  142.0040   71.8530  221.1670 H   0  0  0  0  0  0  0  0  0  0  0  0
  139.1620   73.3697  220.0485 H   0  0  0  0  0  0  0  0  0  0  0  0
  139.7588   71.7616  220.5708 H   0  0  0  0  0  0  0  0  0  0  0  0
  139.6693   71.0191  223.6228 H   0  0  0  0  0  0  0  0  0  0  0  0
  140.8552   70.6422  224.7528 H   0  0  0  0  0  0  0  0  0  0  0  0
  139.5049   71.3481  225.7271 H   0  0  0  0  0  0  0  0  0  0  0  0
  142.1726   70.2663  226.7467 H   0  0  0  0  0  0  0  0  0  0  0  0
  141.5555   71.9780  226.7824 H   0  0  0  0  0  0  0  0  0  0  0  0
  1  2  1  0
  2  3  1  0
  3  4  1  0
  4  5  1  0
  5  6  1  0
  6  7  2  0
  6  8  1  0
  8  9  2  0
  9 10  1  0
 10 11  2  0
 11 12  1  0
 12 13  1  0
 13 14  2  0
 14 15  1  0
 15 16  2  0
 16 17  1  0
 17 18  2  0
 18 19  1  0
 19 20  3  0
 20 21  1  0
 21 22  2  0
 22 23  1  0
 23 24  2  0
 24 25  1  0
 25 26  2  0
 18 27  1  0
 27 28  2  0
 28 29  1  0
 29 30  2  0
 30 31  1  0
 30 32  1  0
 12 33  2  0
  5 34  1  0
 34 35  1  0
 35  2  1  0
 33  8  1  0
 32 13  1  0
 28 15  1  0
 26 21  1  0
  1 36  1  0
  1 37  1  0
  1 38  1  0
  3 39  1  0
  3 40  1  0
  4 41  1  0
  4 42  1  0
  9 43  1  0
 10 44  1  0
 11 45  1  0
 16 46  1  0
 17 47  1  0
 22 48  1  0
 23 49  1  0
 24 50  1  0
 25 51  1  0
 26 52  1  0
 27 53  1  0
 31 54  1  0
 32 55  1  0
 32 56  1  0
 33 57  1  0
 34 58  1  0
 34 59  1  0
 35 60  1  0
 35 61  1  0
M  END
>  <UniqueID>  (27) 
36

>  <SMILES>  (27) 
CN1CCN(C(=O)c2cccc(C3=Nc4ccc(C#Cc5ccccc5)cc4N=C(O)C3)c2)CC1

>  <Energy>  (27) 
87.66003728717698

>  <Genealogy>  (27) 
CN1CCN(C(=O)c2cccc(C3=Nc4ccc(C#Cc5ccccc5)cc4N=C(O)C3)c2)CC1 (tautomer)
CN1CCN(C(=O)c2cccc(C3=Nc4ccc(C#Cc5ccccc5)cc4N=C(O)C3)c2)CC1 (3D coordinates assigned)
CN1CCN(C(=O)c2cccc(C3=Nc4ccc(C#Cc5ccccc5)cc4N=C(O)C3)c2)CC1 (nonaromatic ring conformer: 87.66003728717698 kcal/mol)

>  <smiles>  (27) 
CN1CCN(C(=O)c2cccc(C3=Nc4ccc(C#Cc5ccccc5)cc4NC(=O)C3)c2)CC1

>  <score_type>  (27) 
oracle

>  <origin>  (27) 
autodockgpu

>  <m_score__min__energy>  (27) 
-5.4500000000000002

>  <m_primary>  (27) 
energy

>  <meeko>  (27) 
{"free_energy": -5.3, "intermolecular_energy": -8.59, "internal_energy": -0.98, "cluster_size": 1, "cluster_id": 3, "rank_in_cluster": 1}

>  <energy>  (27) 
-5.3

>  <cluster_rmsd>  (27) 
0.0

>  <rmsd>  (27) 
269.18

>  <cluster>  (27) 
3

$$$$
RUYQROVMPDWUPI-ZYMSVLFVNA-N
     RDKit          3D

 61 65  0  0  0  0  0  0  0  0999 V2000
  140.2860   71.8880  227.8510 C   0  0  0  0  0  0  0  0  0  0  0  0
  140.5870   70.4800  227.5420 N   0  0  0  0  0  0  0  0  0  0  0  0
  139.3410   69.6750  227.4260 C   0  0  0  0  0  0  0  0  0  0  0  0
  139.3610   68.6720  226.2670 C   0  0  0  0  0  0  0  0  0  0  0  0
  139.7000   69.3750  225.0260 N   0  0  0  0  0  0  0  0  0  0  0  0
  139.1400   68.9350  223.7740 C   0  0  0  0  0  0  0  0  0  0  0  0
  138.8340   67.7220  223.6180 O   0  0  0  0  0  0  0  0  0  0  0  0
  138.9070   69.8840  222.6640 C   0  0  0  0  0  0  0  0  0  0  0  0
  138.8430   69.4250  221.3390 C   0  0  0  0  0  0  0  0  0  0  0  0
  138.6170   70.3210  220.2940 C   0  0  0  0  0  0  0  0  0  0  0  0
  138.4590   71.6830  220.5560 C   0  0  0  0  0  0  0  0  0  0  0  0
  138.5340   72.1670  221.8760 C   0  0  0  0  0  0  0  0  0  0  0  0
  138.3830   73.6150  222.1590 C   0  0  0  0  0  0  0  0  0  0  0  0
  139.4540   74.3380  222.3250 N   0  0  0  0  0  0  0  0  0  0  0  0
  139.8720   75.4600  221.5300 C   0  0  0  0  0  0  0  0  0  0  0  0
  141.2410   75.5700  221.2440 C   0  0  0  0  0  0  0  0  0  0  0  0
  141.7180   76.5840  220.4120 C   0  0  0  0  0  0  0  0  0  0  0  0
  140.8270   77.4880  219.8270 C   0  0  0  0  0  0  0  0  0  0  0  0
  141.3150   78.5250  218.9560 C   0  0  0  0  0  0  0  0  0  0  0  0
  141.7260   79.3890  218.2240 C   0  0  0  0  0  0  0  0  0  0  0  0
  142.2130   80.4200  217.3460 C   0  0  0  0  0  0  0  0  0  0  0  0
  141.9500   80.3540  215.9700 C   0  0  0  0  0  0  0  0  0  0  0  0
  142.4210   81.3590  215.1190 C   0  0  0  0  0  0  0  0  0  0  0  0
  143.1510   82.4330  215.6390 C   0  0  0  0  0  0  0  0  0  0  0  0
  143.4150   82.5000  217.0100 C   0  0  0  0  0  0  0  0  0  0  0  0
  142.9480   81.4950  217.8640 C   0  0  0  0  0  0  0  0  0  0  0  0
  139.4560   77.3760  220.0810 C   0  0  0  0  0  0  0  0  0  0  0  0
  138.9620   76.3810  220.9360 C   0  0  0  0  0  0  0  0  0  0  0  0
  137.5340   76.2930  221.0900 N   0  0  0  0  0  0  0  0  0  0  0  0
  136.8270   75.2050  221.1660 C   0  0  0  0  0  0  0  0  0  0  0  0
  135.8610   74.9440  220.1980 O   0  0  0  0  0  0  0  0  0  0  0  0
  137.0210   74.2340  222.2810 C   0  0  0  0  0  0  0  0  0  0  0  0
  138.7770   71.2580  222.9240 C   0  0  0  0  0  0  0  0  0  0  0  0
  140.7810   70.3680  225.0420 C   0  0  0  0  0  0  0  0  0  0  0  0
  141.5130   70.3650  226.3910 C   0  0  0  0  0  0  0  0  0  0  0  0
  140.2565   72.0258  228.9419 H   0  0  0  0  0  0  0  0  0  0  0  0
  141.0666   72.5328  227.4209 H   0  0  0  0  0  0  0  0  0  0  0  0
  139.3100   72.1572  227.4209 H   0  0  0  0  0  0  0  0  0  0  0  0
  139.1983   69.1188  228.3642 H   0  0  0  0  0  0  0  0  0  0  0  0
  138.5203   70.3799  227.2270 H   0  0  0  0  0  0  0  0  0  0  0  0
  140.1131   67.8944  226.4664 H   0  0  0  0  0  0  0  0  0  0  0  0
  138.3709   68.2032  226.1672 H   0  0  0  0  0  0  0  0  0  0  0  0
  138.9716   68.3540  221.1238 H   0  0  0  0  0  0  0  0  0  0  0  0
  138.5631   69.9526  219.2589 H   0  0  0  0  0  0  0  0  0  0  0  0
  138.2749   72.3819  219.7267 H   0  0  0  0  0  0  0  0  0  0  0  0
  141.9470   74.8484  221.6808 H   0  0  0  0  0  0  0  0  0  0  0  0
  142.7969   76.6718  220.2164 H   0  0  0  0  0  0  0  0  0  0  0  0
  141.3733   79.5118  215.5601 H   0  0  0  0  0  0  0  0  0  0  0  0
  142.2172   81.3048  214.0394 H   0  0  0  0  0  0  0  0  0  0  0  0
  143.5173   83.2248  214.9690 H   0  0  0  0  0  0  0  0  0  0  0  0
  143.9906   83.3439  217.4180 H   0  0  0  0  0  0  0  0  0  0  0  0
  143.1578   81.5486  218.9425 H   0  0  0  0  0  0  0  0  0  0  0  0
  138.7564   78.0779  219.6036 H   0  0  0  0  0  0  0  0  0  0  0  0
  135.6570   75.6180  219.4680 H   0  0  0  0  0  0  0  0  0  0  0  0
  136.9391   74.7580  223.2447 H   0  0  0  0  0  0  0  0  0  0  0  0
  136.2508   73.4503  222.2294 H   0  0  0  0  0  0  0  0  0  0  0  0
  138.8658   71.6278  223.9562 H   0  0  0  0  0  0  0  0  0  0  0  0
  141.4989   70.1307  224.2430 H   0  0  0  0  0  0  0  0  0  0  0  0
  140.3429   71.3645  224.8841 H   0  0  0  0  0  0  0  0  0  0  0  0
  142.0759   69.4245  226.4843 H   0  0  0  0  0  0  0  0  0  0  0  0
  142.1791   71.2402  226.4106 H   0  0  0  0  0  0  0  0  0  0  0  0
  1  2  1  0
  2  3  1  0
  3  4  1  0
  4  5  1  0
  5  6  1  0
  6  7  2  0
  6  8  1  0
  8  9  2  0
  9 10  1  0
 10 11  2  0
 11 12  1  0
 12 13  1  0
 13 14  2  0
 14 15  1  0
 15 16  2  0
 16 17  1  0
 17 18  2  0
 18 19  1  0
 19 20  3  0
 20 21  1  0
 21 22  2  0
 22 23  1  0
 23 24  2  0
 24 25  1  0
 25 26  2  0
 18 27  1  0
 27 28  2  0
 28 29  1  0
 29 30  2  0
 30 31  1  0
 30 32  1  0
 12 33  2  0
  5 34  1  0
 34 35  1  0
 35  2  1  0
 33  8  1  0
 32 13  1  0
 28 15  1  0
 26 21  1  0
  1 36  1  0
  1 37  1  0
  1 38  1  0
  3 39  1  0
  3 40  1  0
  4 41  1  0
  4 42  1  0
  9 43  1  0
 10 44  1  0
 11 45  1  0
 16 46  1  0
 17 47  1  0
 22 48  1  0
 23 49  1  0
 24 50  1  0
 25 51  1  0
 26 52  1  0
 27 53  1  0
 31 54  1  0
 32 55  1  0
 32 56  1  0
 33 57  1  0
 34 58  1  0
 34 59  1  0
 35 60  1  0
 35 61  1  0
M  END
>  <UniqueID>  (28) 
36

>  <SMILES>  (28) 
CN1CCN(C(=O)c2cccc(C3=Nc4ccc(C#Cc5ccccc5)cc4N=C(O)C3)c2)CC1

>  <Energy>  (28) 
87.66003728717698

>  <Genealogy>  (28) 
CN1CCN(C(=O)c2cccc(C3=Nc4ccc(C#Cc5ccccc5)cc4N=C(O)C3)c2)CC1 (tautomer)
CN1CCN(C(=O)c2cccc(C3=Nc4ccc(C#Cc5ccccc5)cc4N=C(O)C3)c2)CC1 (3D coordinates assigned)
CN1CCN(C(=O)c2cccc(C3=Nc4ccc(C#Cc5ccccc5)cc4N=C(O)C3)c2)CC1 (nonaromatic ring conformer: 87.66003728717698 kcal/mol)

>  <smiles>  (28) 
CN1CCN(C(=O)c2cccc(C3=Nc4ccc(C#Cc5ccccc5)cc4NC(=O)C3)c2)CC1

>  <score_type>  (28) 
oracle

>  <origin>  (28) 
autodockgpu

>  <m_score__min__energy>  (28) 
-5.4500000000000002

>  <m_primary>  (28) 
energy

>  <meeko>  (28) 
{"free_energy": -4.3, "intermolecular_energy": -7.58, "internal_energy": -1.16, "cluster_size": 1, "cluster_id": 12, "rank_in_cluster": 1}

>  <energy>  (28) 
-5.27

>  <cluster_rmsd>  (28) 
0.0

>  <rmsd>  (28) 
270.08

>  <cluster>  (28) 
4

$$$$
RUYQROVMPDWUPI-ZYMSVLFVNA-N
     RDKit          3D

 61 65  0  0  0  0  0  0  0  0999 V2000
  143.1400   68.3200  217.5370 C   0  0  0  0  0  0  0  0  0  0  0  0
  143.9420   68.6100  218.7380 N   0  0  0  0  0  0  0  0  0  0  0  0
  145.3020   69.0910  218.3750 C   0  0  0  0  0  0  0  0  0  0  0  0
  145.7960   70.2530  219.2440 C   0  0  0  0  0  0  0  0  0  0  0  0
  144.7950   71.3230  219.2350 N   0  0  0  0  0  0  0  0  0  0  0  0
  145.2100   72.6990  219.3230 C   0  0  0  0  0  0  0  0  0  0  0  0
  146.2800   72.9910  219.9250 O   0  0  0  0  0  0  0  0  0  0  0  0
  144.4120   73.7820  218.7110 C   0  0  0  0  0  0  0  0  0  0  0  0
  144.6640   74.1930  217.3920 C   0  0  0  0  0  0  0  0  0  0  0  0
  143.9050   75.2110  216.8150 C   0  0  0  0  0  0  0  0  0  0  0  0
  142.8920   75.8350  217.5460 C   0  0  0  0  0  0  0  0  0  0  0  0
  142.6320   75.4490  218.8740 C   0  0  0  0  0  0  0  0  0  0  0  0
  141.5680   76.1190  219.6610 C   0  0  0  0  0  0  0  0  0  0  0  0
  141.7180   77.3730  219.9800 N   0  0  0  0  0  0  0  0  0  0  0  0
  141.0240   78.0910  221.0140 C   0  0  0  0  0  0  0  0  0  0  0  0
  140.7820   79.4560  220.7980 C   0  0  0  0  0  0  0  0  0  0  0  0
  140.0450   80.2060  221.7150 C   0  0  0  0  0  0  0  0  0  0  0  0
  139.5120   79.5940  222.8530 C   0  0  0  0  0  0  0  0  0  0  0  0
  138.7380   80.3620  223.7930 C   0  0  0  0  0  0  0  0  0  0  0  0
  138.0860   81.0030  224.5780 C   0  0  0  0  0  0  0  0  0  0  0  0
  137.3040   81.7700  225.5110 C   0  0  0  0  0  0  0  0  0  0  0  0
  136.9030   83.0740  225.1880 C   0  0  0  0  0  0  0  0  0  0  0  0
  136.1390   83.8150  226.0960 C   0  0  0  0  0  0  0  0  0  0  0  0
  135.7720   83.2570  227.3240 C   0  0  0  0  0  0  0  0  0  0  0  0
  136.1730   81.9580  227.6490 C   0  0  0  0  0  0  0  0  0  0  0  0
  136.9390   81.2140  226.7450 C   0  0  0  0  0  0  0  0  0  0  0  0
  139.7210   78.2270  223.0710 C   0  0  0  0  0  0  0  0  0  0  0  0
  140.4830   77.4650  222.1740 C   0  0  0  0  0  0  0  0  0  0  0  0
  140.5930   76.0550  222.4360 N   0  0  0  0  0  0  0  0  0  0  0  0
  140.4420   75.0910  221.5770 C   0  0  0  0  0  0  0  0  0  0  0  0
  140.3750   73.7760  222.0250 O   0  0  0  0  0  0  0  0  0  0  0  0
  140.3520   75.3610  220.1070 C   0  0  0  0  0  0  0  0  0  0  0  0
  143.4120   74.4300  219.4550 C   0  0  0  0  0  0  0  0  0  0  0  0
  143.3760   70.9720  219.3690 C   0  0  0  0  0  0  0  0  0  0  0  0
  143.2040   69.4790  219.6840 C   0  0  0  0  0  0  0  0  0  0  0  0
  142.1452   67.9603  217.8385 H   0  0  0  0  0  0  0  0  0  0  0  0
  143.0325   69.2362  216.9378 H   0  0  0  0  0  0  0  0  0  0  0  0
  143.6434   67.5470  216.9378 H   0  0  0  0  0  0  0  0  0  0  0  0
  146.0068   68.2532  218.4817 H   0  0  0  0  0  0  0  0  0  0  0  0
  145.2465   69.4631  217.3413 H   0  0  0  0  0  0  0  0  0  0  0  0
  145.9493   69.9017  220.2751 H   0  0  0  0  0  0  0  0  0  0  0  0
  146.7471   70.6343  218.8440 H   0  0  0  0  0  0  0  0  0  0  0  0
  145.4636   73.7099  216.8113 H   0  0  0  0  0  0  0  0  0  0  0  0
  144.1053   75.5237  215.7796 H   0  0  0  0  0  0  0  0  0  0  0  0
  142.2940   76.6327  217.0812 H   0  0  0  0  0  0  0  0  0  0  0  0
  141.1785   79.9412  219.8939 H   0  0  0  0  0  0  0  0  0  0  0  0
  139.8832   81.2802  221.5422 H   0  0  0  0  0  0  0  0  0  0  0  0
  137.1889   83.5142  224.2213 H   0  0  0  0  0  0  0  0  0  0  0  0
  135.8264   84.8389  225.8431 H   0  0  0  0  0  0  0  0  0  0  0  0
  135.1677   83.8401  228.0345 H   0  0  0  0  0  0  0  0  0  0  0  0
  135.8860   81.5202  228.6165 H   0  0  0  0  0  0  0  0  0  0  0  0
  137.2549   80.1923  227.0027 H   0  0  0  0  0  0  0  0  0  0  0  0
  139.2820   77.7448  223.9569 H   0  0  0  0  0  0  0  0  0  0  0  0
  139.7230   73.5030  222.7530 H   0  0  0  0  0  0  0  0  0  0  0  0
  140.2945   74.4072  219.5621 H   0  0  0  0  0  0  0  0  0  0  0  0
  139.4517   75.9578  219.8988 H   0  0  0  0  0  0  0  0  0  0  0  0
  143.2364   74.1389  220.5012 H   0  0  0  0  0  0  0  0  0  0  0  0
  142.9346   71.5644  220.1840 H   0  0  0  0  0  0  0  0  0  0  0  0
  142.8706   71.1889  218.4163 H   0  0  0  0  0  0  0  0  0  0  0  0
  143.5758   69.2882  220.7015 H   0  0  0  0  0  0  0  0  0  0  0  0
  142.1343   69.2395  219.5923 H   0  0  0  0  0  0  0  0  0  0  0  0
  1  2  1  0
  2  3  1  0
  3  4  1  0
  4  5  1  0
  5  6  1  0
  6  7  2  0
  6  8  1  0
  8  9  2  0
  9 10  1  0
 10 11  2  0
 11 12  1  0
 12 13  1  0
 13 14  2  0
 14 15  1  0
 15 16  2  0
 16 17  1  0
 17 18  2  0
 18 19  1  0
 19 20  3  0
 20 21  1  0
 21 22  2  0
 22 23  1  0
 23 24  2  0
 24 25  1  0
 25 26  2  0
 18 27  1  0
 27 28  2  0
 28 29  1  0
 29 30  2  0
 30 31  1  0
 30 32  1  0
 12 33  2  0
  5 34  1  0
 34 35  1  0
 35  2  1  0
 33  8  1  0
 32 13  1  0
 28 15  1  0
 26 21  1  0
  1 36  1  0
  1 37  1  0
  1 38  1  0
  3 39  1  0
  3 40  1  0
  4 41  1  0
  4 42  1  0
  9 43  1  0
 10 44  1  0
 11 45  1  0
 16 46  1  0
 17 47  1  0
 22 48  1  0
 23 49  1  0
 24 50  1  0
 25 51  1  0
 26 52  1  0
 27 53  1  0
 31 54  1  0
 32 55  1  0
 32 56  1  0
 33 57  1  0
 34 58  1  0
 34 59  1  0
 35 60  1  0
 35 61  1  0
M  END
>  <UniqueID>  (29) 
36

>  <SMILES>  (29) 
CN1CCN(C(=O)c2cccc(C3=Nc4ccc(C#Cc5ccccc5)cc4N=C(O)C3)c2)CC1

>  <Energy>  (29) 
87.66003728717698

>  <Genealogy>  (29) 
CN1CCN(C(=O)c2cccc(C3=Nc4ccc(C#Cc5ccccc5)cc4N=C(O)C3)c2)CC1 (tautomer)
CN1CCN(C(=O)c2cccc(C3=Nc4ccc(C#Cc5ccccc5)cc4N=C(O)C3)c2)CC1 (3D coordinates assigned)
CN1CCN(C(=O)c2cccc(C3=Nc4ccc(C#Cc5ccccc5)cc4N=C(O)C3)c2)CC1 (nonaromatic ring conformer: 87.66003728717698 kcal/mol)

>  <smiles>  (29) 
CN1CCN(C(=O)c2cccc(C3=Nc4ccc(C#Cc5ccccc5)cc4NC(=O)C3)c2)CC1

>  <score_type>  (29) 
oracle

>  <origin>  (29) 
autodockgpu

>  <m_score__min__energy>  (29) 
-5.4500000000000002

>  <m_primary>  (29) 
energy

>  <meeko>  (29) 
{"free_energy": -5.13, "intermolecular_energy": -8.42, "internal_energy": -1.18, "cluster_size": 2, "cluster_id": 5, "rank_in_cluster": 2}

>  <energy>  (29) 
-4.88

>  <cluster_rmsd>  (29) 
1.4

>  <rmsd>  (29) 
270.19

>  <cluster>  (29) 
4

$$$$
RUYQROVMPDWUPI-ZYMSVLFVNA-N
     RDKit          3D

 61 65  0  0  0  0  0  0  0  0999 V2000
  144.2660   75.7760  213.9910 C   0  0  0  0  0  0  0  0  0  0  0  0
  145.1790   74.6700  214.3280 N   0  0  0  0  0  0  0  0  0  0  0  0
  146.1880   75.0930  215.3360 C   0  0  0  0  0  0  0  0  0  0  0  0
  146.4590   74.0380  216.4150 C   0  0  0  0  0  0  0  0  0  0  0  0
  145.1890   73.6280  217.0210 N   0  0  0  0  0  0  0  0  0  0  0  0
  145.1410   73.2540  218.4100 C   0  0  0  0  0  0  0  0  0  0  0  0
  146.1630   72.7600  218.9600 O   0  0  0  0  0  0  0  0  0  0  0  0
  143.9150   73.4480  219.2150 C   0  0  0  0  0  0  0  0  0  0  0  0
  143.6480   72.6160  220.3130 C   0  0  0  0  0  0  0  0  0  0  0  0
  142.4930   72.8040  221.0740 C   0  0  0  0  0  0  0  0  0  0  0  0
  141.5910   73.8170  220.7440 C   0  0  0  0  0  0  0  0  0  0  0  0
  141.8320   74.6530  219.6380 C   0  0  0  0  0  0  0  0  0  0  0  0
  140.8690   75.7210  219.2730 C   0  0  0  0  0  0  0  0  0  0  0  0
  139.6800   75.7030  219.8050 N   0  0  0  0  0  0  0  0  0  0  0  0
  139.0920   76.7100  220.6450 C   0  0  0  0  0  0  0  0  0  0  0  0
  138.3290   76.2710  221.7380 C   0  0  0  0  0  0  0  0  0  0  0  0
  137.7930   77.1830  222.6480 C   0  0  0  0  0  0  0  0  0  0  0  0
  138.0370   78.5510  222.4960 C   0  0  0  0  0  0  0  0  0  0  0  0
  137.4980   79.4920  223.4420 C   0  0  0  0  0  0  0  0  0  0  0  0
  137.0460   80.2820  224.2320 C   0  0  0  0  0  0  0  0  0  0  0  0
  136.5010   81.2260  225.1720 C   0  0  0  0  0  0  0  0  0  0  0  0
  135.1200   81.2670  225.4060 C   0  0  0  0  0  0  0  0  0  0  0  0
  134.5930   82.1830  226.3230 C   0  0  0  0  0  0  0  0  0  0  0  0
  135.4440   83.0550  227.0100 C   0  0  0  0  0  0  0  0  0  0  0  0
  136.8210   83.0170  226.7760 C   0  0  0  0  0  0  0  0  0  0  0  0
  137.3510   82.1040  225.8570 C   0  0  0  0  0  0  0  0  0  0  0  0
  138.8180   79.0030  221.4270 C   0  0  0  0  0  0  0  0  0  0  0  0
  139.3420   78.1040  220.4880 C   0  0  0  0  0  0  0  0  0  0  0  0
  140.1890   78.6440  219.4590 N   0  0  0  0  0  0  0  0  0  0  0  0
  141.2740   78.1070  218.9850 C   0  0  0  0  0  0  0  0  0  0  0  0
  142.4870   78.7780  219.1160 O   0  0  0  0  0  0  0  0  0  0  0  0
  141.2450   76.7890  218.2890 C   0  0  0  0  0  0  0  0  0  0  0  0
  142.9920   74.4480  218.8670 C   0  0  0  0  0  0  0  0  0  0  0  0
  144.0320   73.3830  216.1510 C   0  0  0  0  0  0  0  0  0  0  0  0
  144.4320   73.4370  214.6700 C   0  0  0  0  0  0  0  0  0  0  0  0
  143.8877   76.2342  214.9167 H   0  0  0  0  0  0  0  0  0  0  0  0
  144.8069   76.5316  213.4023 H   0  0  0  0  0  0  0  0  0  0  0  0
  143.4216   75.3880  213.4023 H   0  0  0  0  0  0  0  0  0  0  0  0
  147.1323   75.3067  214.8139 H   0  0  0  0  0  0  0  0  0  0  0  0
  145.7817   75.9787  215.8464 H   0  0  0  0  0  0  0  0  0  0  0  0
  146.9481   73.1641  215.9599 H   0  0  0  0  0  0  0  0  0  0  0  0
  147.1165   74.4620  217.1882 H   0  0  0  0  0  0  0  0  0  0  0  0
  144.3518   71.8123  220.5751 H   0  0  0  0  0  0  0  0  0  0  0  0
  142.2929   72.1516  221.9368 H   0  0  0  0  0  0  0  0  0  0  0  0
  140.6862   73.9627  221.3523 H   0  0  0  0  0  0  0  0  0  0  0  0
  138.1513   75.1947  221.8791 H   0  0  0  0  0  0  0  0  0  0  0  0
  137.1774   76.8249  223.4863 H   0  0  0  0  0  0  0  0  0  0  0  0
  134.4504   80.5792  224.8689 H   0  0  0  0  0  0  0  0  0  0  0  0
  133.5085   82.2174  226.5038 H   0  0  0  0  0  0  0  0  0  0  0  0
  135.0290   83.7709  227.7347 H   0  0  0  0  0  0  0  0  0  0  0  0
  137.4891   83.7052  227.3145 H   0  0  0  0  0  0  0  0  0  0  0  0
  138.4351   82.0759  225.6726 H   0  0  0  0  0  0  0  0  0  0  0  0
  139.0236   80.0785  221.3219 H   0  0  0  0  0  0  0  0  0  0  0  0
  143.3460   78.2740  219.3070 H   0  0  0  0  0  0  0  0  0  0  0  0
  140.5042   76.8181  217.4763 H   0  0  0  0  0  0  0  0  0  0  0  0
  142.2375   76.5711  217.8677 H   0  0  0  0  0  0  0  0  0  0  0  0
  143.1773   75.0769  217.9837 H   0  0  0  0  0  0  0  0  0  0  0  0
  143.6182   72.3888  216.3752 H   0  0  0  0  0  0  0  0  0  0  0  0
  143.2821   74.1656  216.3388 H   0  0  0  0  0  0  0  0  0  0  0  0
  145.0656   72.5667  214.4439 H   0  0  0  0  0  0  0  0  0  0  0  0
  143.5075   73.4304  214.0739 H   0  0  0  0  0  0  0  0  0  0  0  0
  1  2  1  0
  2  3  1  0
  3  4  1  0
  4  5  1  0
  5  6  1  0
  6  7  2  0
  6  8  1  0
  8  9  2  0
  9 10  1  0
 10 11  2  0
 11 12  1  0
 12 13  1  0
 13 14  2  0
 14 15  1  0
 15 16  2  0
 16 17  1  0
 17 18  2  0
 18 19  1  0
 19 20  3  0
 20 21  1  0
 21 22  2  0
 22 23  1  0
 23 24  2  0
 24 25  1  0
 25 26  2  0
 18 27  1  0
 27 28  2  0
 28 29  1  0
 29 30  2  0
 30 31  1  0
 30 32  1  0
 12 33  2  0
  5 34  1  0
 34 35  1  0
 35  2  1  0
 33  8  1  0
 32 13  1  0
 28 15  1  0
 26 21  1  0
  1 36  1  0
  1 37  1  0
  1 38  1  0
  3 39  1  0
  3 40  1  0
  4 41  1  0
  4 42  1  0
  9 43  1  0
 10 44  1  0
 11 45  1  0
 16 46  1  0
 17 47  1  0
 22 48  1  0
 23 49  1  0
 24 50  1  0
 25 51  1  0
 26 52  1  0
 27 53  1  0
 31 54  1  0
 32 55  1  0
 32 56  1  0
 33 57  1  0
 34 58  1  0
 34 59  1  0
 35 60  1  0
 35 61  1  0
M  END
>  <UniqueID>  (30) 
36

>  <SMILES>  (30) 
CN1CCN(C(=O)c2cccc(C3=Nc4ccc(C#Cc5ccccc5)cc4N=C(O)C3)c2)CC1

>  <Energy>  (30) 
87.66003728717698

>  <Genealogy>  (30) 
CN1CCN(C(=O)c2cccc(C3=Nc4ccc(C#Cc5ccccc5)cc4N=C(O)C3)c2)CC1 (tautomer)
CN1CCN(C(=O)c2cccc(C3=Nc4ccc(C#Cc5ccccc5)cc4N=C(O)C3)c2)CC1 (3D coordinates assigned)
CN1CCN(C(=O)c2cccc(C3=Nc4ccc(C#Cc5ccccc5)cc4N=C(O)C3)c2)CC1 (nonaromatic ring conformer: 87.66003728717698 kcal/mol)

>  <smiles>  (30) 
CN1CCN(C(=O)c2cccc(C3=Nc4ccc(C#Cc5ccccc5)cc4NC(=O)C3)c2)CC1

>  <score_type>  (30) 
oracle

>  <origin>  (30) 
autodockgpu

>  <m_score__min__energy>  (30) 
-5.4500000000000002

>  <m_primary>  (30) 
energy

>  <meeko>  (30) 
{"free_energy": -3.62, "intermolecular_energy": -6.9, "internal_energy": -1.19, "cluster_size": 1, "cluster_id": 13, "rank_in_cluster": 1}

>  <energy>  (30) 
-5.16

>  <cluster_rmsd>  (30) 
0.0

>  <rmsd>  (30) 
269.53

>  <cluster>  (30) 
5

$$$$
RUYQROVMPDWUPI-ZYMSVLFVNA-N
     RDKit          3D

 61 65  0  0  0  0  0  0  0  0999 V2000
  141.5610   74.9880  220.8480 C   0  0  0  0  0  0  0  0  0  0  0  0
  142.2540   74.8510  219.5560 N   0  0  0  0  0  0  0  0  0  0  0  0
  141.3120   75.0300  218.4180 C   0  0  0  0  0  0  0  0  0  0  0  0
  141.8910   75.8600  217.2660 C   0  0  0  0  0  0  0  0  0  0  0  0
  142.3950   77.1320  217.7910 N   0  0  0  0  0  0  0  0  0  0  0  0
  142.3300   78.3220  216.9820 C   0  0  0  0  0  0  0  0  0  0  0  0
  142.3690   78.2250  215.7250 O   0  0  0  0  0  0  0  0  0  0  0  0
  142.2070   79.6600  217.5960 C   0  0  0  0  0  0  0  0  0  0  0  0
  142.5980   80.8070  216.8870 C   0  0  0  0  0  0  0  0  0  0  0  0
  142.4770   82.0700  217.4670 C   0  0  0  0  0  0  0  0  0  0  0  0
  141.9700   82.2040  218.7610 C   0  0  0  0  0  0  0  0  0  0  0  0
  141.5860   81.0670  219.4960 C   0  0  0  0  0  0  0  0  0  0  0  0
  141.0620   81.2020  220.8780 C   0  0  0  0  0  0  0  0  0  0  0  0
  139.7750   81.2910  221.0560 N   0  0  0  0  0  0  0  0  0  0  0  0
  139.0780   81.3580  222.3110 C   0  0  0  0  0  0  0  0  0  0  0  0
  137.8620   82.0570  222.3350 C   0  0  0  0  0  0  0  0  0  0  0  0
  137.0840   82.1000  223.4930 C   0  0  0  0  0  0  0  0  0  0  0  0
  137.4980   81.4180  224.6410 C   0  0  0  0  0  0  0  0  0  0  0  0
  136.6900   81.4480  225.8310 C   0  0  0  0  0  0  0  0  0  0  0  0
  136.0160   81.4730  226.8300 C   0  0  0  0  0  0  0  0  0  0  0  0
  135.2110   81.4970  228.0230 C   0  0  0  0  0  0  0  0  0  0  0  0
  133.8190   81.3560  227.9340 C   0  0  0  0  0  0  0  0  0  0  0  0
  133.0390   81.3750  229.0960 C   0  0  0  0  0  0  0  0  0  0  0  0
  133.6470   81.5320  230.3450 C   0  0  0  0  0  0  0  0  0  0  0  0
  135.0340   81.6740  230.4350 C   0  0  0  0  0  0  0  0  0  0  0  0
  135.8170   81.6580  229.2760 C   0  0  0  0  0  0  0  0  0  0  0  0
  138.6950   80.6940  224.6260 C   0  0  0  0  0  0  0  0  0  0  0  0
  139.5020   80.6630  223.4800 C   0  0  0  0  0  0  0  0  0  0  0  0
  140.6820   79.8410  223.5270 N   0  0  0  0  0  0  0  0  0  0  0  0
  141.8000   80.0510  222.8990 C   0  0  0  0  0  0  0  0  0  0  0  0
  142.8400   79.1330  223.0210 O   0  0  0  0  0  0  0  0  0  0  0  0
  141.9980   81.2640  222.0490 C   0  0  0  0  0  0  0  0  0  0  0  0
  141.7250   79.7950  218.9090 C   0  0  0  0  0  0  0  0  0  0  0  0
  143.1670   77.1310  219.0390 C   0  0  0  0  0  0  0  0  0  0  0  0
  143.4680   75.6980  219.5010 C   0  0  0  0  0  0  0  0  0  0  0  0
  142.2811   74.8456  221.6672 H   0  0  0  0  0  0  0  0  0  0  0  0
  141.1163   75.9914  220.9210 H   0  0  0  0  0  0  0  0  0  0  0  0
  140.7679   74.2293  220.9210 H   0  0  0  0  0  0  0  0  0  0  0  0
  141.0430   74.0366  218.0298 H   0  0  0  0  0  0  0  0  0  0  0  0
  140.4403   75.5786  218.8043 H   0  0  0  0  0  0  0  0  0  0  0  0
  142.7146   75.3061  216.7918 H   0  0  0  0  0  0  0  0  0  0  0  0
  141.1056   76.0543  216.5208 H   0  0  0  0  0  0  0  0  0  0  0  0
  143.0020   80.7092  215.8685 H   0  0  0  0  0  0  0  0  0  0  0  0
  142.7822   82.9636  216.9028 H   0  0  0  0  0  0  0  0  0  0  0  0
  141.8702   83.2039  219.2085 H   0  0  0  0  0  0  0  0  0  0  0  0
  137.5172   82.5779  221.4296 H   0  0  0  0  0  0  0  0  0  0  0  0
  136.1440   82.6712  223.5023 H   0  0  0  0  0  0  0  0  0  0  0  0
  133.3402   81.2305  226.9517 H   0  0  0  0  0  0  0  0  0  0  0  0
  131.9466   81.2663  229.0264 H   0  0  0  0  0  0  0  0  0  0  0  0
  133.0330   81.5437  231.2576 H   0  0  0  0  0  0  0  0  0  0  0  0
  135.5108   81.7985  231.4184 H   0  0  0  0  0  0  0  0  0  0  0  0
  136.9087   81.7718  229.3483 H   0  0  0  0  0  0  0  0  0  0  0  0
  139.0070   80.1420  225.5249 H   0  0  0  0  0  0  0  0  0  0  0  0
  143.1100   78.5410  222.2420 H   0  0  0  0  0  0  0  0  0  0  0  0
  141.7877   82.1669  222.6411 H   0  0  0  0  0  0  0  0  0  0  0  0
  143.0374   81.2994  221.6907 H   0  0  0  0  0  0  0  0  0  0  0  0
  141.4535   78.8975  219.4841 H   0  0  0  0  0  0  0  0  0  0  0  0
  144.1160   77.6625  218.8749 H   0  0  0  0  0  0  0  0  0  0  0  0
  142.5733   77.6320  219.8178 H   0  0  0  0  0  0  0  0  0  0  0  0
  144.1828   75.2442  218.7988 H   0  0  0  0  0  0  0  0  0  0  0  0
  143.8807   75.7556  220.5190 H   0  0  0  0  0  0  0  0  0  0  0  0
  1  2  1  0
  2  3  1  0
  3  4  1  0
  4  5  1  0
  5  6  1  0
  6  7  2  0
  6  8  1  0
  8  9  2  0
  9 10  1  0
 10 11  2  0
 11 12  1  0
 12 13  1  0
 13 14  2  0
 14 15  1  0
 15 16  2  0
 16 17  1  0
 17 18  2  0
 18 19  1  0
 19 20  3  0
 20 21  1  0
 21 22  2  0
 22 23  1  0
 23 24  2  0
 24 25  1  0
 25 26  2  0
 18 27  1  0
 27 28  2  0
 28 29  1  0
 29 30  2  0
 30 31  1  0
 30 32  1  0
 12 33  2  0
  5 34  1  0
 34 35  1  0
 35  2  1  0
 33  8  1  0
 32 13  1  0
 28 15  1  0
 26 21  1  0
  1 36  1  0
  1 37  1  0
  1 38  1  0
  3 39  1  0
  3 40  1  0
  4 41  1  0
  4 42  1  0
  9 43  1  0
 10 44  1  0
 11 45  1  0
 16 46  1  0
 17 47  1  0
 22 48  1  0
 23 49  1  0
 24 50  1  0
 25 51  1  0
 26 52  1  0
 27 53  1  0
 31 54  1  0
 32 55  1  0
 32 56  1  0
 33 57  1  0
 34 58  1  0
 34 59  1  0
 35 60  1  0
 35 61  1  0
M  END
>  <UniqueID>  (31) 
36

>  <SMILES>  (31) 
CN1CCN(C(=O)c2cccc(C3=Nc4ccc(C#Cc5ccccc5)cc4N=C(O)C3)c2)CC1

>  <Energy>  (31) 
87.66003728717698

>  <Genealogy>  (31) 
CN1CCN(C(=O)c2cccc(C3=Nc4ccc(C#Cc5ccccc5)cc4N=C(O)C3)c2)CC1 (tautomer)
CN1CCN(C(=O)c2cccc(C3=Nc4ccc(C#Cc5ccccc5)cc4N=C(O)C3)c2)CC1 (3D coordinates assigned)
CN1CCN(C(=O)c2cccc(C3=Nc4ccc(C#Cc5ccccc5)cc4N=C(O)C3)c2)CC1 (nonaromatic ring conformer: 87.66003728717698 kcal/mol)

>  <smiles>  (31) 
CN1CCN(C(=O)c2cccc(C3=Nc4ccc(C#Cc5ccccc5)cc4NC(=O)C3)c2)CC1

>  <score_type>  (31) 
oracle

>  <origin>  (31) 
autodockgpu

>  <m_score__min__energy>  (31) 
-5.4500000000000002

>  <m_primary>  (31) 
energy

>  <meeko>  (31) 
{"free_energy": -5.45, "intermolecular_energy": -8.73, "internal_energy": -1.12, "cluster_size": 2, "cluster_id": 1, "rank_in_cluster": 1}

>  <energy>  (31) 
-5.13

>  <cluster_rmsd>  (31) 
0.89

>  <rmsd>  (31) 
269.35

>  <cluster>  (31) 
5

$$$$
RUYQROVMPDWUPI-ZYMSVLFVNA-N
     RDKit          3D

 61 65  0  0  0  0  0  0  0  0999 V2000
  142.8140   68.5380  217.5890 C   0  0  0  0  0  0  0  0  0  0  0  0
  143.8560   68.7310  218.6120 N   0  0  0  0  0  0  0  0  0  0  0  0
  145.1020   69.2820  218.0150 C   0  0  0  0  0  0  0  0  0  0  0  0
  145.7670   70.3670  218.8700 C   0  0  0  0  0  0  0  0  0  0  0  0
  144.7820   71.4050  219.1840 N   0  0  0  0  0  0  0  0  0  0  0  0
  145.1990   72.7770  219.3190 C   0  0  0  0  0  0  0  0  0  0  0  0
  146.3720   73.0390  219.7030 O   0  0  0  0  0  0  0  0  0  0  0  0
  144.2800   73.8920  219.0050 C   0  0  0  0  0  0  0  0  0  0  0  0
  144.2340   74.4320  217.7100 C   0  0  0  0  0  0  0  0  0  0  0  0
  143.3620   75.4800  217.4160 C   0  0  0  0  0  0  0  0  0  0  0  0
  142.5330   76.0070  218.4080 C   0  0  0  0  0  0  0  0  0  0  0  0
  142.5750   75.4910  219.7170 C   0  0  0  0  0  0  0  0  0  0  0  0
  141.7080   76.0570  220.7800 C   0  0  0  0  0  0  0  0  0  0  0  0
  141.5060   77.3430  220.8080 N   0  0  0  0  0  0  0  0  0  0  0  0
  140.7230   78.0760  221.7650 C   0  0  0  0  0  0  0  0  0  0  0  0
  141.1370   79.3810  222.0700 C   0  0  0  0  0  0  0  0  0  0  0  0
  140.3870   80.1870  222.9270 C   0  0  0  0  0  0  0  0  0  0  0  0
  139.1910   79.7090  223.4710 C   0  0  0  0  0  0  0  0  0  0  0  0
  138.4070   80.5450  224.3420 C   0  0  0  0  0  0  0  0  0  0  0  0
  137.7530   81.2480  225.0700 C   0  0  0  0  0  0  0  0  0  0  0  0
  136.9760   82.0890  225.9420 C   0  0  0  0  0  0  0  0  0  0  0  0
  136.5370   81.6000  227.1810 C   0  0  0  0  0  0  0  0  0  0  0  0
  135.7850   82.4210  228.0290 C   0  0  0  0  0  0  0  0  0  0  0  0
  135.4750   83.7290  227.6440 C   0  0  0  0  0  0  0  0  0  0  0  0
  135.9100   84.2170  226.4090 C   0  0  0  0  0  0  0  0  0  0  0  0
  136.6590   83.3980  225.5570 C   0  0  0  0  0  0  0  0  0  0  0  0
  138.7500   78.4190  223.1550 C   0  0  0  0  0  0  0  0  0  0  0  0
  139.5050   77.5860  222.3180 C   0  0  0  0  0  0  0  0  0  0  0  0
  138.9480   76.3010  221.9900 N   0  0  0  0  0  0  0  0  0  0  0  0
  139.6080   75.2190  221.7040 C   0  0  0  0  0  0  0  0  0  0  0  0
  138.9190   74.0840  221.2870 O   0  0  0  0  0  0  0  0  0  0  0  0
  141.0950   75.1690  221.8230 C   0  0  0  0  0  0  0  0  0  0  0  0
  143.4670   74.4420  220.0100 C   0  0  0  0  0  0  0  0  0  0  0  0
  143.4280   71.0050  219.5860 C   0  0  0  0  0  0  0  0  0  0  0  0
  143.3360   69.4840  219.7780 C   0  0  0  0  0  0  0  0  0  0  0  0
  141.8464   68.3588  218.0805 H   0  0  0  0  0  0  0  0  0  0  0  0
  142.7451   69.4387  216.9613 H   0  0  0  0  0  0  0  0  0  0  0  0
  143.0723   67.6724  216.9613 H   0  0  0  0  0  0  0  0  0  0  0  0
  145.8177   68.4573  217.8820 H   0  0  0  0  0  0  0  0  0  0  0  0
  144.8211   69.7516  217.0607 H   0  0  0  0  0  0  0  0  0  0  0  0
  146.1420   69.9215  219.8032 H   0  0  0  0  0  0  0  0  0  0  0  0
  146.6071   70.8108  218.3156 H   0  0  0  0  0  0  0  0  0  0  0  0
  144.8883   74.0269  216.9240 H   0  0  0  0  0  0  0  0  0  0  0  0
  143.3273   75.8935  216.3973 H   0  0  0  0  0  0  0  0  0  0  0  0
  141.8438   76.8293  218.1656 H   0  0  0  0  0  0  0  0  0  0  0  0
  142.0645   79.7738  221.6280 H   0  0  0  0  0  0  0  0  0  0  0  0
  140.7371   81.1999  223.1750 H   0  0  0  0  0  0  0  0  0  0  0  0
  136.7835   80.5723  227.4859 H   0  0  0  0  0  0  0  0  0  0  0  0
  135.4375   82.0369  228.9994 H   0  0  0  0  0  0  0  0  0  0  0  0
  134.8881   84.3745  228.3140 H   0  0  0  0  0  0  0  0  0  0  0  0
  135.6635   85.2455  226.1065 H   0  0  0  0  0  0  0  0  0  0  0  0
  136.9992   83.7823  224.5841 H   0  0  0  0  0  0  0  0  0  0  0  0
  137.7984   78.0540  223.5689 H   0  0  0  0  0  0  0  0  0  0  0  0
  138.2080   73.6580  221.8730 H   0  0  0  0  0  0  0  0  0  0  0  0
  141.3951   75.5157  222.8228 H   0  0  0  0  0  0  0  0  0  0  0  0
  141.4411   74.1354  221.6755 H   0  0  0  0  0  0  0  0  0  0  0  0
  143.5279   74.0493  221.0357 H   0  0  0  0  0  0  0  0  0  0  0  0
  143.1723   71.5029  220.5329 H   0  0  0  0  0  0  0  0  0  0  0  0
  142.7258   71.3005  218.7925 H   0  0  0  0  0  0  0  0  0  0  0  0
  143.9205   69.2049  220.6671 H   0  0  0  0  0  0  0  0  0  0  0  0
  142.2731   69.2261  219.8947 H   0  0  0  0  0  0  0  0  0  0  0  0
  1  2  1  0
  2  3  1  0
  3  4  1  0
  4  5  1  0
  5  6  1  0
  6  7  2  0
  6  8  1  0
  8  9  2  0
  9 10  1  0
 10 11  2  0
 11 12  1  0
 12 13  1  0
 13 14  2  0
 14 15  1  0
 15 16  2  0
 16 17  1  0
 17 18  2  0
 18 19  1  0
 19 20  3  0
 20 21  1  0
 21 22  2  0
 22 23  1  0
 23 24  2  0
 24 25  1  0
 25 26  2  0
 18 27  1  0
 27 28  2  0
 28 29  1  0
 29 30  2  0
 30 31  1  0
 30 32  1  0
 12 33  2  0
  5 34  1  0
 34 35  1  0
 35  2  1  0
 33  8  1  0
 32 13  1  0
 28 15  1  0
 26 21  1  0
  1 36  1  0
  1 37  1  0
  1 38  1  0
  3 39  1  0
  3 40  1  0
  4 41  1  0
  4 42  1  0
  9 43  1  0
 10 44  1  0
 11 45  1  0
 16 46  1  0
 17 47  1  0
 22 48  1  0
 23 49  1  0
 24 50  1  0
 25 51  1  0
 26 52  1  0
 27 53  1  0
 31 54  1  0
 32 55  1  0
 32 56  1  0
 33 57  1  0
 34 58  1  0
 34 59  1  0
 35 60  1  0
 35 61  1  0
M  END
>  <UniqueID>  (32) 
36

>  <SMILES>  (32) 
CN1CCN(C(=O)c2cccc(C3=Nc4ccc(C#Cc5ccccc5)cc4N=C(O)C3)c2)CC1

>  <Energy>  (32) 
87.66003728717698

>  <Genealogy>  (32) 
CN1CCN(C(=O)c2cccc(C3=Nc4ccc(C#Cc5ccccc5)cc4N=C(O)C3)c2)CC1 (tautomer)
CN1CCN(C(=O)c2cccc(C3=Nc4ccc(C#Cc5ccccc5)cc4N=C(O)C3)c2)CC1 (3D coordinates assigned)
CN1CCN(C(=O)c2cccc(C3=Nc4ccc(C#Cc5ccccc5)cc4N=C(O)C3)c2)CC1 (nonaromatic ring conformer: 87.66003728717698 kcal/mol)

>  <smiles>  (32) 
CN1CCN(C(=O)c2cccc(C3=Nc4ccc(C#Cc5ccccc5)cc4NC(=O)C3)c2)CC1

>  <score_type>  (32) 
oracle

>  <origin>  (32) 
autodockgpu

>  <m_score__min__energy>  (32) 
-5.4500000000000002

>  <m_primary>  (32) 
energy

>  <meeko>  (32) 
{"free_energy": -5.16, "intermolecular_energy": -8.44, "internal_energy": -1.12, "cluster_size": 2, "cluster_id": 5, "rank_in_cluster": 1}

>  <energy>  (32) 
-4.78

>  <cluster_rmsd>  (32) 
0.0

>  <rmsd>  (32) 
268.36

>  <cluster>  (32) 
6

$$$$
RUYQROVMPDWUPI-ZYMSVLFVNA-N
     RDKit          3D

 61 65  0  0  0  0  0  0  0  0999 V2000
  148.7540   76.0320  215.3930 C   0  0  0  0  0  0  0  0  0  0  0  0
  147.9470   74.9930  214.7300 N   0  0  0  0  0  0  0  0  0  0  0  0
  148.2860   73.6380  215.2430 C   0  0  0  0  0  0  0  0  0  0  0  0
  147.0630   72.7400  215.4600 C   0  0  0  0  0  0  0  0  0  0  0  0
  146.0910   73.4400  216.3030 N   0  0  0  0  0  0  0  0  0  0  0  0
  145.2600   72.6970  217.2150 C   0  0  0  0  0  0  0  0  0  0  0  0
  144.9530   71.5030  216.9490 O   0  0  0  0  0  0  0  0  0  0  0  0
  144.7650   73.3030  218.4700 C   0  0  0  0  0  0  0  0  0  0  0  0
  145.6440   73.5440  219.5370 C   0  0  0  0  0  0  0  0  0  0  0  0
  145.1760   74.1210  220.7180 C   0  0  0  0  0  0  0  0  0  0  0  0
  143.8270   74.4570  220.8500 C   0  0  0  0  0  0  0  0  0  0  0  0
  142.9260   74.2100  219.7980 C   0  0  0  0  0  0  0  0  0  0  0  0
  141.4890   74.5500  219.9390 C   0  0  0  0  0  0  0  0  0  0  0  0
  141.1070   75.7750  219.7120 N   0  0  0  0  0  0  0  0  0  0  0  0
  140.5240   76.6880  220.6560 C   0  0  0  0  0  0  0  0  0  0  0  0
  140.7670   78.0560  220.4620 C   0  0  0  0  0  0  0  0  0  0  0  0
  140.1720   79.0130  221.2850 C   0  0  0  0  0  0  0  0  0  0  0  0
  139.2980   78.6160  222.3010 C   0  0  0  0  0  0  0  0  0  0  0  0
  138.6700   79.6020  223.1410 C   0  0  0  0  0  0  0  0  0  0  0  0
  138.1470   80.4270  223.8470 C   0  0  0  0  0  0  0  0  0  0  0  0
  137.5230   81.4080  224.6950 C   0  0  0  0  0  0  0  0  0  0  0  0
  137.3390   81.1430  226.0590 C   0  0  0  0  0  0  0  0  0  0  0  0
  136.7350   82.1000  226.8820 C   0  0  0  0  0  0  0  0  0  0  0  0
  136.3180   83.3220  226.3460 C   0  0  0  0  0  0  0  0  0  0  0  0
  136.4990   83.5870  224.9850 C   0  0  0  0  0  0  0  0  0  0  0  0
  137.0990   82.6310  224.1590 C   0  0  0  0  0  0  0  0  0  0  0  0
  139.0240   77.2570  222.4920 C   0  0  0  0  0  0  0  0  0  0  0  0
  139.6340   76.2820  221.6920 C   0  0  0  0  0  0  0  0  0  0  0  0
  139.2470   74.9130  221.9090 N   0  0  0  0  0  0  0  0  0  0  0  0
  139.9810   73.8580  221.7150 C   0  0  0  0  0  0  0  0  0  0  0  0
  140.3090   73.0420  222.7940 O   0  0  0  0  0  0  0  0  0  0  0  0
  140.4930   73.5100  220.3620 C   0  0  0  0  0  0  0  0  0  0  0  0
  143.4030   73.6140  218.6150 C   0  0  0  0  0  0  0  0  0  0  0  0
  145.8140   74.8580  216.0440 C   0  0  0  0  0  0  0  0  0  0  0  0
  146.5050   75.3290  214.7570 C   0  0  0  0  0  0  0  0  0  0  0  0
  148.6685   75.9220  216.4841 H   0  0  0  0  0  0  0  0  0  0  0  0
  149.8073   75.9240  215.0950 H   0  0  0  0  0  0  0  0  0  0  0  0
  148.3887   77.0258  215.0950 H   0  0  0  0  0  0  0  0  0  0  0  0
  148.9526   73.1484  214.5178 H   0  0  0  0  0  0  0  0  0  0  0  0
  148.7636   73.7750  216.2244 H   0  0  0  0  0  0  0  0  0  0  0  0
  146.6039   72.5036  214.4887 H   0  0  0  0  0  0  0  0  0  0  0  0
  147.3740   71.8073  215.9534 H   0  0  0  0  0  0  0  0  0  0  0  0
  146.7068   73.2768  219.4419 H   0  0  0  0  0  0  0  0  0  0  0  0
  145.8721   74.3119  221.5481 H   0  0  0  0  0  0  0  0  0  0  0  0
  143.4668   74.9174  221.7818 H   0  0  0  0  0  0  0  0  0  0  0  0
  141.4355   78.3786  219.6502 H   0  0  0  0  0  0  0  0  0  0  0  0
  140.3909   80.0804  221.1341 H   0  0  0  0  0  0  0  0  0  0  0  0
  137.6693   80.1830  226.4824 H   0  0  0  0  0  0  0  0  0  0  0  0
  136.5881   81.8906  227.9519 H   0  0  0  0  0  0  0  0  0  0  0  0
  135.8474   84.0752  226.9950 H   0  0  0  0  0  0  0  0  0  0  0  0
  136.1692   84.5481  224.5637 H   0  0  0  0  0  0  0  0  0  0  0  0
  137.2381   82.8395  223.0879 H   0  0  0  0  0  0  0  0  0  0  0  0
  138.3207   76.9504  223.2803 H   0  0  0  0  0  0  0  0  0  0  0  0
  139.6040   72.7480  223.4610 H   0  0  0  0  0  0  0  0  0  0  0  0
  140.9791   72.5237  220.3932 H   0  0  0  0  0  0  0  0  0  0  0  0
  139.6599   73.4769  219.6445 H   0  0  0  0  0  0  0  0  0  0  0  0
  142.7027   73.3899  217.7969 H   0  0  0  0  0  0  0  0  0  0  0  0
  144.7279   74.9991  215.9412 H   0  0  0  0  0  0  0  0  0  0  0  0
  146.2023   75.4497  216.8861 H   0  0  0  0  0  0  0  0  0  0  0  0
  146.0149   74.8482  213.8976 H   0  0  0  0  0  0  0  0  0  0  0  0
  146.4170   76.4246  214.7130 H   0  0  0  0  0  0  0  0  0  0  0  0
  1  2  1  0
  2  3  1  0
  3  4  1  0
  4  5  1  0
  5  6  1  0
  6  7  2  0
  6  8  1  0
  8  9  2  0
  9 10  1  0
 10 11  2  0
 11 12  1  0
 12 13  1  0
 13 14  2  0
 14 15  1  0
 15 16  2  0
 16 17  1  0
 17 18  2  0
 18 19  1  0
 19 20  3  0
 20 21  1  0
 21 22  2  0
 22 23  1  0
 23 24  2  0
 24 25  1  0
 25 26  2  0
 18 27  1  0
 27 28  2  0
 28 29  1  0
 29 30  2  0
 30 31  1  0
 30 32  1  0
 12 33  2  0
  5 34  1  0
 34 35  1  0
 35  2  1  0
 33  8  1  0
 32 13  1  0
 28 15  1  0
 26 21  1  0
  1 36  1  0
  1 37  1  0
  1 38  1  0
  3 39  1  0
  3 40  1  0
  4 41  1  0
  4 42  1  0
  9 43  1  0
 10 44  1  0
 11 45  1  0
 16 46  1  0
 17 47  1  0
 22 48  1  0
 23 49  1  0
 24 50  1  0
 25 51  1  0
 26 52  1  0
 27 53  1  0
 31 54  1  0
 32 55  1  0
 32 56  1  0
 33 57  1  0
 34 58  1  0
 34 59  1  0
 35 60  1  0
 35 61  1  0
M  END
>  <UniqueID>  (33) 
36

>  <SMILES>  (33) 
CN1CCN(C(=O)c2cccc(C3=Nc4ccc(C#Cc5ccccc5)cc4N=C(O)C3)c2)CC1

>  <Energy>  (33) 
87.66003728717698

>  <Genealogy>  (33) 
CN1CCN(C(=O)c2cccc(C3=Nc4ccc(C#Cc5ccccc5)cc4N=C(O)C3)c2)CC1 (tautomer)
CN1CCN(C(=O)c2cccc(C3=Nc4ccc(C#Cc5ccccc5)cc4N=C(O)C3)c2)CC1 (3D coordinates assigned)
CN1CCN(C(=O)c2cccc(C3=Nc4ccc(C#Cc5ccccc5)cc4N=C(O)C3)c2)CC1 (nonaromatic ring conformer: 87.66003728717698 kcal/mol)

>  <smiles>  (33) 
CN1CCN(C(=O)c2cccc(C3=Nc4ccc(C#Cc5ccccc5)cc4NC(=O)C3)c2)CC1

>  <score_type>  (33) 
oracle

>  <origin>  (33) 
autodockgpu

>  <m_score__min__energy>  (33) 
-5.4500000000000002

>  <m_primary>  (33) 
energy

>  <meeko>  (33) 
{"free_energy": -4.46, "intermolecular_energy": -7.74, "internal_energy": -1.2, "cluster_size": 1, "cluster_id": 11, "rank_in_cluster": 1}

>  <energy>  (33) 
-4.68

>  <cluster_rmsd>  (33) 
0.0

>  <rmsd>  (33) 
269.07

>  <cluster>  (33) 
7

$$$$
RUYQROVMPDWUPI-ZYMSVLFVNA-N
     RDKit          3D

 61 65  0  0  0  0  0  0  0  0999 V2000
  143.2710   79.8350  222.7150 C   0  0  0  0  0  0  0  0  0  0  0  0
  142.5210   81.0900  222.8900 N   0  0  0  0  0  0  0  0  0  0  0  0
  141.8360   81.4900  221.6320 C   0  0  0  0  0  0  0  0  0  0  0  0
  140.4170   82.0270  221.8480 C   0  0  0  0  0  0  0  0  0  0  0  0
  139.6460   81.0570  222.6290 N   0  0  0  0  0  0  0  0  0  0  0  0
  138.2310   80.9100  222.4030 C   0  0  0  0  0  0  0  0  0  0  0  0
  137.5600   81.8940  221.9870 O   0  0  0  0  0  0  0  0  0  0  0  0
  137.5460   79.6220  222.6390 C   0  0  0  0  0  0  0  0  0  0  0  0
  136.3100   79.5860  223.3040 C   0  0  0  0  0  0  0  0  0  0  0  0
  135.6630   78.3690  223.5210 C   0  0  0  0  0  0  0  0  0  0  0  0
  136.2420   77.1760  223.0850 C   0  0  0  0  0  0  0  0  0  0  0  0
  137.4880   77.1880  222.4300 C   0  0  0  0  0  0  0  0  0  0  0  0
  138.1160   75.9220  221.9790 C   0  0  0  0  0  0  0  0  0  0  0  0
  139.4140   75.8150  222.0200 N   0  0  0  0  0  0  0  0  0  0  0  0
  140.2070   74.7150  221.5430 C   0  0  0  0  0  0  0  0  0  0  0  0
  141.4700   75.0150  221.0110 C   0  0  0  0  0  0  0  0  0  0  0  0
  142.3340   73.9990  220.6020 C   0  0  0  0  0  0  0  0  0  0  0  0
  141.9580   72.6600  220.7450 C   0  0  0  0  0  0  0  0  0  0  0  0
  142.8540   71.6100  220.3380 C   0  0  0  0  0  0  0  0  0  0  0  0
  143.6030   70.7280  220.0000 C   0  0  0  0  0  0  0  0  0  0  0  0
  144.4990   69.6760  219.6000 C   0  0  0  0  0  0  0  0  0  0  0  0
  144.3150   68.3730  220.0850 C   0  0  0  0  0  0  0  0  0  0  0  0
  145.1850   67.3510  219.6910 C   0  0  0  0  0  0  0  0  0  0  0  0
  146.2380   67.6260  218.8130 C   0  0  0  0  0  0  0  0  0  0  0  0
  146.4240   68.9240  218.3300 C   0  0  0  0  0  0  0  0  0  0  0  0
  145.5580   69.9500  218.7230 C   0  0  0  0  0  0  0  0  0  0  0  0
  140.7130   72.3420  221.2990 C   0  0  0  0  0  0  0  0  0  0  0  0
  139.8220   73.3510  221.6900 C   0  0  0  0  0  0  0  0  0  0  0  0
  138.5910   72.9390  222.3110 N   0  0  0  0  0  0  0  0  0  0  0  0
  137.4700   73.5960  222.3230 C   0  0  0  0  0  0  0  0  0  0  0  0
  136.4330   73.1690  223.1480 O   0  0  0  0  0  0  0  0  0  0  0  0
  137.2770   74.7930  221.4570 C   0  0  0  0  0  0  0  0  0  0  0  0
  138.1420   78.4180  222.2270 C   0  0  0  0  0  0  0  0  0  0  0  0
  140.2770   80.4120  223.7870 C   0  0  0  0  0  0  0  0  0  0  0  0
  141.6480   81.0360  224.0860 C   0  0  0  0  0  0  0  0  0  0  0  0
  143.5210   79.4167  223.7012 H   0  0  0  0  0  0  0  0  0  0  0  0
  142.6552   79.1146  222.1565 H   0  0  0  0  0  0  0  0  0  0  0  0
  144.1971   80.0361  222.1565 H   0  0  0  0  0  0  0  0  0  0  0  0
  142.4340   82.2745  221.1451 H   0  0  0  0  0  0  0  0  0  0  0  0
  141.7469   80.5854  221.0125 H   0  0  0  0  0  0  0  0  0  0  0  0
  140.4644   82.9820  222.3918 H   0  0  0  0  0  0  0  0  0  0  0  0
  139.9309   82.1857  220.8741 H   0  0  0  0  0  0  0  0  0  0  0  0
  135.8497   80.5212  223.6554 H   0  0  0  0  0  0  0  0  0  0  0  0
  134.6922   78.3496  224.0380 H   0  0  0  0  0  0  0  0  0  0  0  0
  135.7219   76.2216  223.2541 H   0  0  0  0  0  0  0  0  0  0  0  0
  141.7831   76.0651  220.9151 H   0  0  0  0  0  0  0  0  0  0  0  0
  143.3121   74.2516  220.1666 H   0  0  0  0  0  0  0  0  0  0  0  0
  143.4867   68.1547  220.7751 H   0  0  0  0  0  0  0  0  0  0  0  0
  145.0406   66.3294  220.0724 H   0  0  0  0  0  0  0  0  0  0  0  0
  146.9199   66.8206  218.5026 H   0  0  0  0  0  0  0  0  0  0  0  0
  147.2528   69.1394  217.6396 H   0  0  0  0  0  0  0  0  0  0  0  0
  145.7079   70.9717  218.3440 H   0  0  0  0  0  0  0  0  0  0  0  0
  140.4300   71.2871  221.4293 H   0  0  0  0  0  0  0  0  0  0  0  0
  136.5730   73.0490  224.1460 H   0  0  0  0  0  0  0  0  0  0  0  0
  137.5812   74.5546  220.4271 H   0  0  0  0  0  0  0  0  0  0  0  0
  136.2170   75.0869  221.4648 H   0  0  0  0  0  0  0  0  0  0  0  0
  139.1288   78.4368  221.7413 H   0  0  0  0  0  0  0  0  0  0  0  0
  139.6267   80.5348  224.6656 H   0  0  0  0  0  0  0  0  0  0  0  0
  140.4199   79.3454  223.5590 H   0  0  0  0  0  0  0  0  0  0  0  0
  141.4958   82.0600  224.4579 H   0  0  0  0  0  0  0  0  0  0  0  0
  142.1466   80.4031  224.8349 H   0  0  0  0  0  0  0  0  0  0  0  0
  1  2  1  0
  2  3  1  0
  3  4  1  0
  4  5  1  0
  5  6  1  0
  6  7  2  0
  6  8  1  0
  8  9  2  0
  9 10  1  0
 10 11  2  0
 11 12  1  0
 12 13  1  0
 13 14  2  0
 14 15  1  0
 15 16  2  0
 16 17  1  0
 17 18  2  0
 18 19  1  0
 19 20  3  0
 20 21  1  0
 21 22  2  0
 22 23  1  0
 23 24  2  0
 24 25  1  0
 25 26  2  0
 18 27  1  0
 27 28  2  0
 28 29  1  0
 29 30  2  0
 30 31  1  0
 30 32  1  0
 12 33  2  0
  5 34  1  0
 34 35  1  0
 35  2  1  0
 33  8  1  0
 32 13  1  0
 28 15  1  0
 26 21  1  0
  1 36  1  0
  1 37  1  0
  1 38  1  0
  3 39  1  0
  3 40  1  0
  4 41  1  0
  4 42  1  0
  9 43  1  0
 10 44  1  0
 11 45  1  0
 16 46  1  0
 17 47  1  0
 22 48  1  0
 23 49  1  0
 24 50  1  0
 25 51  1  0
 26 52  1  0
 27 53  1  0
 31 54  1  0
 32 55  1  0
 32 56  1  0
 33 57  1  0
 34 58  1  0
 34 59  1  0
 35 60  1  0
 35 61  1  0
M  END
>  <UniqueID>  (34) 
36

>  <SMILES>  (34) 
CN1CCN(C(=O)c2cccc(C3=Nc4ccc(C#Cc5ccccc5)cc4N=C(O)C3)c2)CC1

>  <Energy>  (34) 
87.66003728717698

>  <Genealogy>  (34) 
CN1CCN(C(=O)c2cccc(C3=Nc4ccc(C#Cc5ccccc5)cc4N=C(O)C3)c2)CC1 (tautomer)
CN1CCN(C(=O)c2cccc(C3=Nc4ccc(C#Cc5ccccc5)cc4N=C(O)C3)c2)CC1 (3D coordinates assigned)
CN1CCN(C(=O)c2cccc(C3=Nc4ccc(C#Cc5ccccc5)cc4N=C(O)C3)c2)CC1 (nonaromatic ring conformer: 87.66003728717698 kcal/mol)

>  <smiles>  (34) 
CN1CCN(C(=O)c2cccc(C3=Nc4ccc(C#Cc5ccccc5)cc4NC(=O)C3)c2)CC1

>  <score_type>  (34) 
oracle

>  <origin>  (34) 
autodockgpu

>  <m_score__min__energy>  (34) 
-5.4500000000000002

>  <m_primary>  (34) 
energy

>  <meeko>  (34) 
{"free_energy": -4.25, "intermolecular_energy": -7.53, "internal_energy": -1.21, "cluster_size": 2, "cluster_id": 8, "rank_in_cluster": 2}

>  <energy>  (34) 
-4.55

>  <cluster_rmsd>  (34) 
0.0

>  <rmsd>  (34) 
268.88

>  <cluster>  (34) 
8

$$$$
RUYQROVMPDWUPI-ZYMSVLFVNA-N
     RDKit          3D

 61 65  0  0  0  0  0  0  0  0999 V2000
  140.7840   69.6840  218.1520 C   0  0  0  0  0  0  0  0  0  0  0  0
  139.7280   70.0260  219.1200 N   0  0  0  0  0  0  0  0  0  0  0  0
  140.2490   70.0130  220.5130 C   0  0  0  0  0  0  0  0  0  0  0  0
  139.7310   71.1700  221.3740 C   0  0  0  0  0  0  0  0  0  0  0  0
  139.9860   72.4380  220.6850 N   0  0  0  0  0  0  0  0  0  0  0  0
  140.2750   73.6260  221.4460 C   0  0  0  0  0  0  0  0  0  0  0  0
  139.8060   73.7520  222.6100 O   0  0  0  0  0  0  0  0  0  0  0  0
  141.1220   74.7040  220.8930 C   0  0  0  0  0  0  0  0  0  0  0  0
  142.3430   74.3990  220.2700 C   0  0  0  0  0  0  0  0  0  0  0  0
  143.1390   75.4180  219.7440 C   0  0  0  0  0  0  0  0  0  0  0  0
  142.7300   76.7490  219.8380 C   0  0  0  0  0  0  0  0  0  0  0  0
  141.5170   77.0790  220.4710 C   0  0  0  0  0  0  0  0  0  0  0  0
  141.0850   78.4930  220.5880 C   0  0  0  0  0  0  0  0  0  0  0  0
  139.8170   78.7530  220.7340 N   0  0  0  0  0  0  0  0  0  0  0  0
  139.1940   79.4190  221.8450 C   0  0  0  0  0  0  0  0  0  0  0  0
  137.9600   78.9180  222.2850 C   0  0  0  0  0  0  0  0  0  0  0  0
  137.3280   79.4560  223.4070 C   0  0  0  0  0  0  0  0  0  0  0  0
  137.9370   80.4890  224.1260 C   0  0  0  0  0  0  0  0  0  0  0  0
  137.2950   81.0350  225.2930 C   0  0  0  0  0  0  0  0  0  0  0  0
  136.7540   81.4920  226.2680 C   0  0  0  0  0  0  0  0  0  0  0  0
  136.1120   82.0350  227.4350 C   0  0  0  0  0  0  0  0  0  0  0  0
  135.4630   83.2760  227.3670 C   0  0  0  0  0  0  0  0  0  0  0  0
  134.8360   83.8010  228.5020 C   0  0  0  0  0  0  0  0  0  0  0  0
  134.8520   83.0870  229.7050 C   0  0  0  0  0  0  0  0  0  0  0  0
  135.5000   81.8510  229.7750 C   0  0  0  0  0  0  0  0  0  0  0  0
  136.1310   81.3240  228.6430 C   0  0  0  0  0  0  0  0  0  0  0  0
  139.1810   80.9830  223.7160 C   0  0  0  0  0  0  0  0  0  0  0  0
  139.8160   80.4720  222.5750 C   0  0  0  0  0  0  0  0  0  0  0  0
  141.1220   80.9880  222.2620 N   0  0  0  0  0  0  0  0  0  0  0  0
  142.1390   80.3110  221.8200 C   0  0  0  0  0  0  0  0  0  0  0  0
  143.3060   80.2510  222.5770 O   0  0  0  0  0  0  0  0  0  0  0  0
  142.0860   79.6090  220.5100 C   0  0  0  0  0  0  0  0  0  0  0  0
  140.7260   76.0470  221.0120 C   0  0  0  0  0  0  0  0  0  0  0  0
  139.7180   72.5330  219.2450 C   0  0  0  0  0  0  0  0  0  0  0  0
  139.0180   71.2670  218.7300 C   0  0  0  0  0  0  0  0  0  0  0  0
  141.6954   69.3888  218.6926 H   0  0  0  0  0  0  0  0  0  0  0  0
  140.4459   68.8494  217.5202 H   0  0  0  0  0  0  0  0  0  0  0  0
  140.9994   70.5583  217.5202 H   0  0  0  0  0  0  0  0  0  0  0  0
  139.9503   69.0663  220.9869 H   0  0  0  0  0  0  0  0  0  0  0  0
  141.3416   70.1232  220.4492 H   0  0  0  0  0  0  0  0  0  0  0  0
  138.6496   71.0513  221.5370 H   0  0  0  0  0  0  0  0  0  0  0  0
  140.2484   71.1674  222.3447 H   0  0  0  0  0  0  0  0  0  0  0  0
  142.6737   73.3525  220.1962 H   0  0  0  0  0  0  0  0  0  0  0  0
  144.0922   75.1710  219.2536 H   0  0  0  0  0  0  0  0  0  0  0  0
  143.3597   77.5454  219.4146 H   0  0  0  0  0  0  0  0  0  0  0  0
  137.4842   78.0903  221.7386 H   0  0  0  0  0  0  0  0  0  0  0  0
  136.3498   79.0670  223.7260 H   0  0  0  0  0  0  0  0  0  0  0  0
  135.4469   83.8369  226.4209 H   0  0  0  0  0  0  0  0  0  0  0  0
  134.3299   84.7762  228.4485 H   0  0  0  0  0  0  0  0  0  0  0  0
  134.3546   83.4985  230.5956 H   0  0  0  0  0  0  0  0  0  0  0  0
  135.5140   81.2913  230.7219 H   0  0  0  0  0  0  0  0  0  0  0  0
  136.6421   80.3517  228.7009 H   0  0  0  0  0  0  0  0  0  0  0  0
  139.6663   81.7818  224.2960 H   0  0  0  0  0  0  0  0  0  0  0  0
  144.0780   79.6520  222.3030 H   0  0  0  0  0  0  0  0  0  0  0  0
  141.7859   80.3182  219.7245 H   0  0  0  0  0  0  0  0  0  0  0  0
  143.0782   79.1993  220.2699 H   0  0  0  0  0  0  0  0  0  0  0  0
  139.7892   76.2946  221.5327 H   0  0  0  0  0  0  0  0  0  0  0  0
  139.0721   73.4031  219.0561 H   0  0  0  0  0  0  0  0  0  0  0  0
  140.6767   72.6424  218.7169 H   0  0  0  0  0  0  0  0  0  0  0  0
  137.9990   71.2348  219.1430 H   0  0  0  0  0  0  0  0  0  0  0  0
  139.0083   71.3146  217.6311 H   0  0  0  0  0  0  0  0  0  0  0  0
  1  2  1  0
  2  3  1  0
  3  4  1  0
  4  5  1  0
  5  6  1  0
  6  7  2  0
  6  8  1  0
  8  9  2  0
  9 10  1  0
 10 11  2  0
 11 12  1  0
 12 13  1  0
 13 14  2  0
 14 15  1  0
 15 16  2  0
 16 17  1  0
 17 18  2  0
 18 19  1  0
 19 20  3  0
 20 21  1  0
 21 22  2  0
 22 23  1  0
 23 24  2  0
 24 25  1  0
 25 26  2  0
 18 27  1  0
 27 28  2  0
 28 29  1  0
 29 30  2  0
 30 31  1  0
 30 32  1  0
 12 33  2  0
  5 34  1  0
 34 35  1  0
 35  2  1  0
 33  8  1  0
 32 13  1  0
 28 15  1  0
 26 21  1  0
  1 36  1  0
  1 37  1  0
  1 38  1  0
  3 39  1  0
  3 40  1  0
  4 41  1  0
  4 42  1  0
  9 43  1  0
 10 44  1  0
 11 45  1  0
 16 46  1  0
 17 47  1  0
 22 48  1  0
 23 49  1  0
 24 50  1  0
 25 51  1  0
 26 52  1  0
 27 53  1  0
 31 54  1  0
 32 55  1  0
 32 56  1  0
 33 57  1  0
 34 58  1  0
 34 59  1  0
 35 60  1  0
 35 61  1  0
M  END
>  <UniqueID>  (35) 
36

>  <SMILES>  (35) 
CN1CCN(C(=O)c2cccc(C3=Nc4ccc(C#Cc5ccccc5)cc4N=C(O)C3)c2)CC1

>  <Energy>  (35) 
87.66003728717698

>  <Genealogy>  (35) 
CN1CCN(C(=O)c2cccc(C3=Nc4ccc(C#Cc5ccccc5)cc4N=C(O)C3)c2)CC1 (tautomer)
CN1CCN(C(=O)c2cccc(C3=Nc4ccc(C#Cc5ccccc5)cc4N=C(O)C3)c2)CC1 (3D coordinates assigned)
CN1CCN(C(=O)c2cccc(C3=Nc4ccc(C#Cc5ccccc5)cc4N=C(O)C3)c2)CC1 (nonaromatic ring conformer: 87.66003728717698 kcal/mol)

>  <smiles>  (35) 
CN1CCN(C(=O)c2cccc(C3=Nc4ccc(C#Cc5ccccc5)cc4NC(=O)C3)c2)CC1

>  <score_type>  (35) 
oracle

>  <origin>  (35) 
autodockgpu

>  <m_score__min__energy>  (35) 
-5.4500000000000002

>  <m_primary>  (35) 
energy

>  <meeko>  (35) 
{"free_energy": -5.27, "intermolecular_energy": -8.55, "internal_energy": -1.23, "cluster_size": 2, "cluster_id": 4, "rank_in_cluster": 1}

>  <energy>  (35) 
-4.25

>  <cluster_rmsd>  (35) 
0.21

>  <rmsd>  (35) 
268.98

>  <cluster>  (35) 
8

$$$$
RUYQROVMPDWUPI-ZYMSVLFVNA-N
     RDKit          3D

 61 65  0  0  0  0  0  0  0  0999 V2000
  138.8660   84.5370  221.5370 C   0  0  0  0  0  0  0  0  0  0  0  0
  138.9240   85.0410  220.1550 N   0  0  0  0  0  0  0  0  0  0  0  0
  140.3180   85.3880  219.7660 C   0  0  0  0  0  0  0  0  0  0  0  0
  140.6840   84.9600  218.3400 C   0  0  0  0  0  0  0  0  0  0  0  0
  140.3860   83.5350  218.1720 N   0  0  0  0  0  0  0  0  0  0  0  0
  141.2030   82.7250  217.3060 C   0  0  0  0  0  0  0  0  0  0  0  0
  141.7840   83.2550  216.3190 O   0  0  0  0  0  0  0  0  0  0  0  0
  141.3850   81.2790  217.5540 C   0  0  0  0  0  0  0  0  0  0  0  0
  141.8170   80.4300  216.5240 C   0  0  0  0  0  0  0  0  0  0  0  0
  141.9930   79.0670  216.7620 C   0  0  0  0  0  0  0  0  0  0  0  0
  141.7360   78.5340  218.0270 C   0  0  0  0  0  0  0  0  0  0  0  0
  141.2880   79.3650  219.0710 C   0  0  0  0  0  0  0  0  0  0  0  0
  140.9980   78.8030  220.4130 C   0  0  0  0  0  0  0  0  0  0  0  0
  139.7610   78.7520  220.8180 N   0  0  0  0  0  0  0  0  0  0  0  0
  139.1890   79.4470  221.9390 C   0  0  0  0  0  0  0  0  0  0  0  0
  137.8340   79.8000  221.8530 C   0  0  0  0  0  0  0  0  0  0  0  0
  137.1820   80.4040  222.9290 C   0  0  0  0  0  0  0  0  0  0  0  0
  137.8710   80.6390  224.1220 C   0  0  0  0  0  0  0  0  0  0  0  0
  137.1970   81.2470  225.2390 C   0  0  0  0  0  0  0  0  0  0  0  0
  136.6300   81.7590  226.1720 C   0  0  0  0  0  0  0  0  0  0  0  0
  135.9520   82.3740  227.2820 C   0  0  0  0  0  0  0  0  0  0  0  0
  135.5290   83.7080  227.1950 C   0  0  0  0  0  0  0  0  0  0  0  0
  134.8660   84.3030  228.2740 C   0  0  0  0  0  0  0  0  0  0  0  0
  134.6220   83.5670  229.4380 C   0  0  0  0  0  0  0  0  0  0  0  0
  135.0440   82.2380  229.5270 C   0  0  0  0  0  0  0  0  0  0  0  0
  135.7100   81.6410  228.4510 C   0  0  0  0  0  0  0  0  0  0  0  0
  139.2160   80.2690  224.2340 C   0  0  0  0  0  0  0  0  0  0  0  0
  139.8930   79.6860  223.1540 C   0  0  0  0  0  0  0  0  0  0  0  0
  141.2540   79.2740  223.3740 N   0  0  0  0  0  0  0  0  0  0  0  0
  142.2020   79.2240  222.4870 C   0  0  0  0  0  0  0  0  0  0  0  0
  143.3250   80.0330  222.6340 O   0  0  0  0  0  0  0  0  0  0  0  0
  142.1090   78.3250  221.3010 C   0  0  0  0  0  0  0  0  0  0  0  0
  141.0990   80.7380  218.8190 C   0  0  0  0  0  0  0  0  0  0  0  0
  139.1250   83.0030  218.7040 C   0  0  0  0  0  0  0  0  0  0  0  0
  138.2220   84.1340  219.2180 C   0  0  0  0  0  0  0  0  0  0  0  0
  138.9629   85.3787  222.2386 H   0  0  0  0  0  0  0  0  0  0  0  0
  137.9036   84.0306  221.7025 H   0  0  0  0  0  0  0  0  0  0  0  0
  139.6882   83.8252  221.7025 H   0  0  0  0  0  0  0  0  0  0  0  0
  140.4389   86.4786  219.8432 H   0  0  0  0  0  0  0  0  0  0  0  0
  140.9874   84.8425  220.4474 H   0  0  0  0  0  0  0  0  0  0  0  0
  140.0966   85.5461  217.6179 H   0  0  0  0  0  0  0  0  0  0  0  0
  141.7557   85.1361  218.1654 H   0  0  0  0  0  0  0  0  0  0  0  0
  142.0179   80.8413  215.5238 H   0  0  0  0  0  0  0  0  0  0  0  0
  142.3357   78.4090  215.9498 H   0  0  0  0  0  0  0  0  0  0  0  0
  141.8844   77.4593  218.2084 H   0  0  0  0  0  0  0  0  0  0  0  0
  137.2782   79.5981  220.9254 H   0  0  0  0  0  0  0  0  0  0  0  0
  136.1252   80.6953  222.8381 H   0  0  0  0  0  0  0  0  0  0  0  0
  135.7183   84.2866  226.2788 H   0  0  0  0  0  0  0  0  0  0  0  0
  134.5365   85.3503  228.2067 H   0  0  0  0  0  0  0  0  0  0  0  0
  134.0974   84.0348  230.2841 H   0  0  0  0  0  0  0  0  0  0  0  0
  134.8525   81.6607  230.4435 H   0  0  0  0  0  0  0  0  0  0  0  0
  136.0438   80.5954  228.5231 H   0  0  0  0  0  0  0  0  0  0  0  0
  139.7486   80.4378  225.1815 H   0  0  0  0  0  0  0  0  0  0  0  0
  144.2210   79.7630  222.2430 H   0  0  0  0  0  0  0  0  0  0  0  0
  143.0590   78.3456  220.7469 H   0  0  0  0  0  0  0  0  0  0  0  0
  141.9057   77.2951  221.6297 H   0  0  0  0  0  0  0  0  0  0  0  0
  140.7242   81.3926  219.6197 H   0  0  0  0  0  0  0  0  0  0  0  0
  138.5996   82.4581  217.9058 H   0  0  0  0  0  0  0  0  0  0  0  0
  139.3555   82.3305  219.5434 H   0  0  0  0  0  0  0  0  0  0  0  0
  137.8682   84.7211  218.3577 H   0  0  0  0  0  0  0  0  0  0  0  0
  137.3866   83.6717  219.7643 H   0  0  0  0  0  0  0  0  0  0  0  0
  1  2  1  0
  2  3  1  0
  3  4  1  0
  4  5  1  0
  5  6  1  0
  6  7  2  0
  6  8  1  0
  8  9  2  0
  9 10  1  0
 10 11  2  0
 11 12  1  0
 12 13  1  0
 13 14  2  0
 14 15  1  0
 15 16  2  0
 16 17  1  0
 17 18  2  0
 18 19  1  0
 19 20  3  0
 20 21  1  0
 21 22  2  0
 22 23  1  0
 23 24  2  0
 24 25  1  0
 25 26  2  0
 18 27  1  0
 27 28  2  0
 28 29  1  0
 29 30  2  0
 30 31  1  0
 30 32  1  0
 12 33  2  0
  5 34  1  0
 34 35  1  0
 35  2  1  0
 33  8  1  0
 32 13  1  0
 28 15  1  0
 26 21  1  0
  1 36  1  0
  1 37  1  0
  1 38  1  0
  3 39  1  0
  3 40  1  0
  4 41  1  0
  4 42  1  0
  9 43  1  0
 10 44  1  0
 11 45  1  0
 16 46  1  0
 17 47  1  0
 22 48  1  0
 23 49  1  0
 24 50  1  0
 25 51  1  0
 26 52  1  0
 27 53  1  0
 31 54  1  0
 32 55  1  0
 32 56  1  0
 33 57  1  0
 34 58  1  0
 34 59  1  0
 35 60  1  0
 35 61  1  0
M  END
>  <UniqueID>  (36) 
36

>  <SMILES>  (36) 
CN1CCN(C(=O)c2cccc(C3=Nc4ccc(C#Cc5ccccc5)cc4N=C(O)C3)c2)CC1

>  <Energy>  (36) 
87.66003728717698

>  <Genealogy>  (36) 
CN1CCN(C(=O)c2cccc(C3=Nc4ccc(C#Cc5ccccc5)cc4N=C(O)C3)c2)CC1 (tautomer)
CN1CCN(C(=O)c2cccc(C3=Nc4ccc(C#Cc5ccccc5)cc4N=C(O)C3)c2)CC1 (3D coordinates assigned)
CN1CCN(C(=O)c2cccc(C3=Nc4ccc(C#Cc5ccccc5)cc4N=C(O)C3)c2)CC1 (nonaromatic ring conformer: 87.66003728717698 kcal/mol)

>  <smiles>  (36) 
CN1CCN(C(=O)c2cccc(C3=Nc4ccc(C#Cc5ccccc5)cc4NC(=O)C3)c2)CC1

>  <score_type>  (36) 
oracle

>  <origin>  (36) 
autodockgpu

>  <m_score__min__energy>  (36) 
-5.4500000000000002

>  <m_primary>  (36) 
energy

>  <meeko>  (36) 
{"free_energy": -4.51, "intermolecular_energy": -7.79, "internal_energy": -1.44, "cluster_size": 1, "cluster_id": 9, "rank_in_cluster": 1}

>  <energy>  (36) 
-4.51

>  <cluster_rmsd>  (36) 
0.0

>  <rmsd>  (36) 
270.52

>  <cluster>  (36) 
9

$$$$
RUYQROVMPDWUPI-ZYMSVLFVNA-N
     RDKit          3D

 61 65  0  0  0  0  0  0  0  0999 V2000
  143.3690   80.5860  223.9410 C   0  0  0  0  0  0  0  0  0  0  0  0
  141.9050   80.6450  223.7860 N   0  0  0  0  0  0  0  0  0  0  0  0
  141.5070   81.7070  222.8230 C   0  0  0  0  0  0  0  0  0  0  0  0
  140.3760   81.2870  221.8770 C   0  0  0  0  0  0  0  0  0  0  0  0
  140.7390   80.0300  221.2170 N   0  0  0  0  0  0  0  0  0  0  0  0
  140.2990   79.7690  219.8710 C   0  0  0  0  0  0  0  0  0  0  0  0
  139.2250   80.2850  219.4540 O   0  0  0  0  0  0  0  0  0  0  0  0
  141.0860   78.9130  218.9590 C   0  0  0  0  0  0  0  0  0  0  0  0
  141.8820   79.4870  217.9560 C   0  0  0  0  0  0  0  0  0  0  0  0
  142.6290   78.6780  217.1000 C   0  0  0  0  0  0  0  0  0  0  0  0
  142.5850   77.2880  217.2290 C   0  0  0  0  0  0  0  0  0  0  0  0
  141.7820   76.6900  218.2180 C   0  0  0  0  0  0  0  0  0  0  0  0
  141.7180   75.2140  218.3500 C   0  0  0  0  0  0  0  0  0  0  0  0
  140.7110   74.6820  218.9820 N   0  0  0  0  0  0  0  0  0  0  0  0
  140.7570   73.9290  220.2050 C   0  0  0  0  0  0  0  0  0  0  0  0
  139.6440   74.0130  221.0540 C   0  0  0  0  0  0  0  0  0  0  0  0
  139.5750   73.2500  222.2210 C   0  0  0  0  0  0  0  0  0  0  0  0
  140.6100   72.3660  222.5420 C   0  0  0  0  0  0  0  0  0  0  0  0
  140.5330   71.5660  223.7360 C   0  0  0  0  0  0  0  0  0  0  0  0
  140.4730   70.8950  224.7350 C   0  0  0  0  0  0  0  0  0  0  0  0
  140.4040   70.0970  225.9310 C   0  0  0  0  0  0  0  0  0  0  0  0
  140.0910   68.7330  225.8480 C   0  0  0  0  0  0  0  0  0  0  0  0
  140.0290   67.9580  227.0110 C   0  0  0  0  0  0  0  0  0  0  0  0
  140.2820   68.5420  228.2560 C   0  0  0  0  0  0  0  0  0  0  0  0
  140.5920   69.9020  228.3410 C   0  0  0  0  0  0  0  0  0  0  0  0
  140.6530   70.6810  227.1800 C   0  0  0  0  0  0  0  0  0  0  0  0
  141.7150   72.2510  221.6920 C   0  0  0  0  0  0  0  0  0  0  0  0
  141.8130   73.0290  220.5300 C   0  0  0  0  0  0  0  0  0  0  0  0
  142.9490   72.8010  219.6770 N   0  0  0  0  0  0  0  0  0  0  0  0
  143.5380   73.6760  218.9180 C   0  0  0  0  0  0  0  0  0  0  0  0
  144.8710   74.0030  219.1530 O   0  0  0  0  0  0  0  0  0  0  0  0
  142.8080   74.3470  217.7900 C   0  0  0  0  0  0  0  0  0  0  0  0
  141.0200   77.5140  219.0690 C   0  0  0  0  0  0  0  0  0  0  0  0
  141.3480   78.9570  222.0140 C   0  0  0  0  0  0  0  0  0  0  0  0
  141.3360   79.3050  223.5090 C   0  0  0  0  0  0  0  0  0  0  0  0
  143.6243   80.5757  225.0109 H   0  0  0  0  0  0  0  0  0  0  0  0
  143.7517   79.6717  223.4639 H   0  0  0  0  0  0  0  0  0  0  0  0
  143.8240   81.4665  223.4639 H   0  0  0  0  0  0  0  0  0  0  0  0
  141.1742   82.5865  223.3936 H   0  0  0  0  0  0  0  0  0  0  0  0
  142.3866   81.9212  222.1982 H   0  0  0  0  0  0  0  0  0  0  0  0
  139.4491   81.1458  222.4522 H   0  0  0  0  0  0  0  0  0  0  0  0
  140.2192   82.0692  221.1197 H   0  0  0  0  0  0  0  0  0  0  0  0
  141.9170   80.5808  217.8443 H   0  0  0  0  0  0  0  0  0  0  0  0
  143.2551   79.1364  216.3204 H   0  0  0  0  0  0  0  0  0  0  0  0
  143.1815   76.6570  216.5537 H   0  0  0  0  0  0  0  0  0  0  0  0
  138.8148   74.6887  220.7971 H   0  0  0  0  0  0  0  0  0  0  0  0
  138.7058   73.3442  222.8886 H   0  0  0  0  0  0  0  0  0  0  0  0
  139.8942   68.2723  224.8687 H   0  0  0  0  0  0  0  0  0  0  0  0
  139.7810   66.8883  226.9460 H   0  0  0  0  0  0  0  0  0  0  0  0
  140.2370   67.9305  229.1692 H   0  0  0  0  0  0  0  0  0  0  0  0
  140.7882   70.3606  229.3214 H   0  0  0  0  0  0  0  0  0  0  0  0
  140.8964   71.7516  227.2480 H   0  0  0  0  0  0  0  0  0  0  0  0
  142.5178   71.5406  221.9387 H   0  0  0  0  0  0  0  0  0  0  0  0
  145.4370   74.4410  218.4340 H   0  0  0  0  0  0  0  0  0  0  0  0
  143.5113   74.9668  217.2145 H   0  0  0  0  0  0  0  0  0  0  0  0
  142.3694   73.5843  217.1298 H   0  0  0  0  0  0  0  0  0  0  0  0
  140.3668   77.0576  219.8273 H   0  0  0  0  0  0  0  0  0  0  0  0
  140.7818   78.0271  221.8569 H   0  0  0  0  0  0  0  0  0  0  0  0
  142.3925   78.8324  221.6924 H   0  0  0  0  0  0  0  0  0  0  0  0
  140.2964   79.2825  223.8678 H   0  0  0  0  0  0  0  0  0  0  0  0
  141.9604   78.5636  224.0290 H   0  0  0  0  0  0  0  0  0  0  0  0
  1  2  1  0
  2  3  1  0
  3  4  1  0
  4  5  1  0
  5  6  1  0
  6  7  2  0
  6  8  1  0
  8  9  2  0
  9 10  1  0
 10 11  2  0
 11 12  1  0
 12 13  1  0
 13 14  2  0
 14 15  1  0
 15 16  2  0
 16 17  1  0
 17 18  2  0
 18 19  1  0
 19 20  3  0
 20 21  1  0
 21 22  2  0
 22 23  1  0
 23 24  2  0
 24 25  1  0
 25 26  2  0
 18 27  1  0
 27 28  2  0
 28 29  1  0
 29 30  2  0
 30 31  1  0
 30 32  1  0
 12 33  2  0
  5 34  1  0
 34 35  1  0
 35  2  1  0
 33  8  1  0
 32 13  1  0
 28 15  1  0
 26 21  1  0
  1 36  1  0
  1 37  1  0
  1 38  1  0
  3 39  1  0
  3 40  1  0
  4 41  1  0
  4 42  1  0
  9 43  1  0
 10 44  1  0
 11 45  1  0
 16 46  1  0
 17 47  1  0
 22 48  1  0
 23 49  1  0
 24 50  1  0
 25 51  1  0
 26 52  1  0
 27 53  1  0
 31 54  1  0
 32 55  1  0
 32 56  1  0
 33 57  1  0
 34 58  1  0
 34 59  1  0
 35 60  1  0
 35 61  1  0
M  END
>  <UniqueID>  (37) 
36

>  <SMILES>  (37) 
CN1CCN(C(=O)c2cccc(C3=Nc4ccc(C#Cc5ccccc5)cc4N=C(O)C3)c2)CC1

>  <Energy>  (37) 
87.66003728717698

>  <Genealogy>  (37) 
CN1CCN(C(=O)c2cccc(C3=Nc4ccc(C#Cc5ccccc5)cc4N=C(O)C3)c2)CC1 (tautomer)
CN1CCN(C(=O)c2cccc(C3=Nc4ccc(C#Cc5ccccc5)cc4N=C(O)C3)c2)CC1 (3D coordinates assigned)
CN1CCN(C(=O)c2cccc(C3=Nc4ccc(C#Cc5ccccc5)cc4N=C(O)C3)c2)CC1 (nonaromatic ring conformer: 87.66003728717698 kcal/mol)

>  <smiles>  (37) 
CN1CCN(C(=O)c2cccc(C3=Nc4ccc(C#Cc5ccccc5)cc4NC(=O)C3)c2)CC1

>  <score_type>  (37) 
oracle

>  <origin>  (37) 
autodockgpu

>  <m_score__min__energy>  (37) 
-5.4500000000000002

>  <m_primary>  (37) 
energy

>  <meeko>  (37) 
{"free_energy": -5.25, "intermolecular_energy": -8.53, "internal_energy": -1.26, "cluster_size": 4, "cluster_id": 2, "rank_in_cluster": 2}

>  <energy>  (37) 
-4.48

>  <cluster_rmsd>  (37) 
0.0

>  <rmsd>  (37) 
271.02

>  <cluster>  (37) 
10

$$$$
RUYQROVMPDWUPI-ZYMSVLFVNA-N
     RDKit          3D

 61 65  0  0  0  0  0  0  0  0999 V2000
  139.6570   71.0860  224.7860 C   0  0  0  0  0  0  0  0  0  0  0  0
  138.9010   70.7580  223.5650 N   0  0  0  0  0  0  0  0  0  0  0  0
  137.7770   71.7110  223.3540 C   0  0  0  0  0  0  0  0  0  0  0  0
  137.6010   72.1400  221.8930 C   0  0  0  0  0  0  0  0  0  0  0  0
  138.8770   72.6450  221.3800 N   0  0  0  0  0  0  0  0  0  0  0  0
  138.8920   73.7010  220.4010 C   0  0  0  0  0  0  0  0  0  0  0  0
  137.9230   73.8270  219.6030 O   0  0  0  0  0  0  0  0  0  0  0  0
  140.0210   74.6520  220.3170 C   0  0  0  0  0  0  0  0  0  0  0  0
  141.3230   74.1900  220.0700 C   0  0  0  0  0  0  0  0  0  0  0  0
  142.3850   75.0900  219.9860 C   0  0  0  0  0  0  0  0  0  0  0  0
  142.1640   76.4580  220.1530 C   0  0  0  0  0  0  0  0  0  0  0  0
  140.8680   76.9420  220.4160 C   0  0  0  0  0  0  0  0  0  0  0  0
  140.6290   78.3930  220.6100 C   0  0  0  0  0  0  0  0  0  0  0  0
  139.4030   78.8170  220.7360 N   0  0  0  0  0  0  0  0  0  0  0  0
  138.8310   79.4860  221.8710 C   0  0  0  0  0  0  0  0  0  0  0  0
  137.5250   79.1290  222.2380 C   0  0  0  0  0  0  0  0  0  0  0  0
  136.9270   79.6730  223.3760 C   0  0  0  0  0  0  0  0  0  0  0  0
  137.6400   80.5630  224.1840 C   0  0  0  0  0  0  0  0  0  0  0  0
  137.0310   81.1130  225.3670 C   0  0  0  0  0  0  0  0  0  0  0  0
  136.5240   81.5760  226.3570 C   0  0  0  0  0  0  0  0  0  0  0  0
  135.9140   82.1300  227.5370 C   0  0  0  0  0  0  0  0  0  0  0  0
  135.1610   83.3100  227.4500 C   0  0  0  0  0  0  0  0  0  0  0  0
  134.5650   83.8450  228.5970 C   0  0  0  0  0  0  0  0  0  0  0  0
  134.7170   83.2030  229.8300 C   0  0  0  0  0  0  0  0  0  0  0  0
  135.4680   82.0280  229.9180 C   0  0  0  0  0  0  0  0  0  0  0  0
  136.0680   81.4910  228.7740 C   0  0  0  0  0  0  0  0  0  0  0  0
  138.9530   80.9090  223.8480 C   0  0  0  0  0  0  0  0  0  0  0  0
  139.5590   80.3940  222.6930 C   0  0  0  0  0  0  0  0  0  0  0  0
  140.9340   80.7470  222.4570 N   0  0  0  0  0  0  0  0  0  0  0  0
  141.8670   79.9700  221.9940 C   0  0  0  0  0  0  0  0  0  0  0  0
  142.9910   79.7080  222.7710 O   0  0  0  0  0  0  0  0  0  0  0  0
  141.7740   79.3630  220.6350 C   0  0  0  0  0  0  0  0  0  0  0  0
  139.8030   76.0260  220.5140 C   0  0  0  0  0  0  0  0  0  0  0  0
  140.1110   71.9150  221.6950 C   0  0  0  0  0  0  0  0  0  0  0  0
  139.8010   70.5870  222.4010 C   0  0  0  0  0  0  0  0  0  0  0  0
  139.0566   70.8255  225.6701 H   0  0  0  0  0  0  0  0  0  0  0  0
  140.5969   70.5148  224.7998 H   0  0  0  0  0  0  0  0  0  0  0  0
  139.8820   72.1627  224.7998 H   0  0  0  0  0  0  0  0  0  0  0  0
  136.8462   71.2304  223.6897 H   0  0  0  0  0  0  0  0  0  0  0  0
  138.0114   72.6182  223.9302 H   0  0  0  0  0  0  0  0  0  0  0  0
  137.2794   71.2763  221.2925 H   0  0  0  0  0  0  0  0  0  0  0  0
  136.8394   72.9312  221.8303 H   0  0  0  0  0  0  0  0  0  0  0  0
  141.5067   73.1130  219.9421 H   0  0  0  0  0  0  0  0  0  0  0  0
  143.4016   74.7200  219.7872 H   0  0  0  0  0  0  0  0  0  0  0  0
  143.0063   77.1615  220.0788 H   0  0  0  0  0  0  0  0  0  0  0  0
  136.9648   78.4110  221.6210 H   0  0  0  0  0  0  0  0  0  0  0  0
  135.8936   79.4009  223.6371 H   0  0  0  0  0  0  0  0  0  0  0  0
  135.0391   83.8146  226.4802 H   0  0  0  0  0  0  0  0  0  0  0  0
  133.9762   84.7716  228.5289 H   0  0  0  0  0  0  0  0  0  0  0  0
  134.2453   83.6230  230.7306 H   0  0  0  0  0  0  0  0  0  0  0  0
  135.5877   81.5243  230.8886 H   0  0  0  0  0  0  0  0  0  0  0  0
  136.6606   80.5671  228.8459 H   0  0  0  0  0  0  0  0  0  0  0  0
  139.5174   81.5938  224.4981 H   0  0  0  0  0  0  0  0  0  0  0  0
  143.9120   79.6360  222.3530 H   0  0  0  0  0  0  0  0  0  0  0  0
  141.6041   80.1533  219.8890 H   0  0  0  0  0  0  0  0  0  0  0  0
  142.7110   78.8378  220.3978 H   0  0  0  0  0  0  0  0  0  0  0  0
  138.7912   76.3894  220.7469 H   0  0  0  0  0  0  0  0  0  0  0  0
  140.6543   71.7076  220.7613 H   0  0  0  0  0  0  0  0  0  0  0  0
  140.7222   72.5346  222.3676 H   0  0  0  0  0  0  0  0  0  0  0  0
  139.3205   69.9087  221.6806 H   0  0  0  0  0  0  0  0  0  0  0  0
  140.7518   70.1767  222.7721 H   0  0  0  0  0  0  0  0  0  0  0  0
  1  2  1  0
  2  3  1  0
  3  4  1  0
  4  5  1  0
  5  6  1  0
  6  7  2  0
  6  8  1  0
  8  9  2  0
  9 10  1  0
 10 11  2  0
 11 12  1  0
 12 13  1  0
 13 14  2  0
 14 15  1  0
 15 16  2  0
 16 17  1  0
 17 18  2  0
 18 19  1  0
 19 20  3  0
 20 21  1  0
 21 22  2  0
 22 23  1  0
 23 24  2  0
 24 25  1  0
 25 26  2  0
 18 27  1  0
 27 28  2  0
 28 29  1  0
 29 30  2  0
 30 31  1  0
 30 32  1  0
 12 33  2  0
  5 34  1  0
 34 35  1  0
 35  2  1  0
 33  8  1  0
 32 13  1  0
 28 15  1  0
 26 21  1  0
  1 36  1  0
  1 37  1  0
  1 38  1  0
  3 39  1  0
  3 40  1  0
  4 41  1  0
  4 42  1  0
  9 43  1  0
 10 44  1  0
 11 45  1  0
 16 46  1  0
 17 47  1  0
 22 48  1  0
 23 49  1  0
 24 50  1  0
 25 51  1  0
 26 52  1  0
 27 53  1  0
 31 54  1  0
 32 55  1  0
 32 56  1  0
 33 57  1  0
 34 58  1  0
 34 59  1  0
 35 60  1  0
 35 61  1  0
M  END
>  <UniqueID>  (38) 
36

>  <SMILES>  (38) 
CN1CCN(C(=O)c2cccc(C3=Nc4ccc(C#Cc5ccccc5)cc4N=C(O)C3)c2)CC1

>  <Energy>  (38) 
87.66003728717698

>  <Genealogy>  (38) 
CN1CCN(C(=O)c2cccc(C3=Nc4ccc(C#Cc5ccccc5)cc4N=C(O)C3)c2)CC1 (tautomer)
CN1CCN(C(=O)c2cccc(C3=Nc4ccc(C#Cc5ccccc5)cc4N=C(O)C3)c2)CC1 (3D coordinates assigned)
CN1CCN(C(=O)c2cccc(C3=Nc4ccc(C#Cc5ccccc5)cc4N=C(O)C3)c2)CC1 (nonaromatic ring conformer: 87.66003728717698 kcal/mol)

>  <smiles>  (38) 
CN1CCN(C(=O)c2cccc(C3=Nc4ccc(C#Cc5ccccc5)cc4NC(=O)C3)c2)CC1

>  <score_type>  (38) 
oracle

>  <origin>  (38) 
autodockgpu

>  <m_score__min__energy>  (38) 
-5.4500000000000002

>  <m_primary>  (38) 
energy

>  <meeko>  (38) 
{"free_energy": -4.88, "intermolecular_energy": -8.16, "internal_energy": -1.11, "cluster_size": 2, "cluster_id": 4, "rank_in_cluster": 2}

>  <energy>  (38) 
-4.46

>  <cluster_rmsd>  (38) 
0.0

>  <rmsd>  (38) 
269.09

>  <cluster>  (38) 
11

$$$$
RUYQROVMPDWUPI-ZYMSVLFVNA-N
     RDKit          3D

 61 65  0  0  0  0  0  0  0  0999 V2000
  143.6560   70.4560  220.0350 C   0  0  0  0  0  0  0  0  0  0  0  0
  144.9340   70.7300  219.3570 N   0  0  0  0  0  0  0  0  0  0  0  0
  144.8170   70.5330  217.8860 C   0  0  0  0  0  0  0  0  0  0  0  0
  145.5400   71.6050  217.0630 C   0  0  0  0  0  0  0  0  0  0  0  0
  145.0920   72.9320  217.4960 N   0  0  0  0  0  0  0  0  0  0  0  0
  145.0110   74.0110  216.5460 C   0  0  0  0  0  0  0  0  0  0  0  0
  145.7810   74.0220  215.5460 O   0  0  0  0  0  0  0  0  0  0  0  0
  144.0330   75.1070  216.7110 C   0  0  0  0  0  0  0  0  0  0  0  0
  144.2110   76.3260  216.0390 C   0  0  0  0  0  0  0  0  0  0  0  0
  143.2840   77.3570  216.1920 C   0  0  0  0  0  0  0  0  0  0  0  0
  142.1740   77.1870  217.0210 C   0  0  0  0  0  0  0  0  0  0  0  0
  141.9830   75.9780  217.7170 C   0  0  0  0  0  0  0  0  0  0  0  0
  140.8140   75.7980  218.6120 C   0  0  0  0  0  0  0  0  0  0  0  0
  140.2940   74.6100  218.7340 N   0  0  0  0  0  0  0  0  0  0  0  0
  140.1920   73.8300  219.9370 C   0  0  0  0  0  0  0  0  0  0  0  0
  140.4340   72.4520  219.8330 C   0  0  0  0  0  0  0  0  0  0  0  0
  140.4350   71.6380  220.9660 C   0  0  0  0  0  0  0  0  0  0  0  0
  140.2210   72.1960  222.2300 C   0  0  0  0  0  0  0  0  0  0  0  0
  140.2380   71.3610  223.4020 C   0  0  0  0  0  0  0  0  0  0  0  0
  140.2480   70.6600  224.3820 C   0  0  0  0  0  0  0  0  0  0  0  0
  140.2630   69.8190  225.5500 C   0  0  0  0  0  0  0  0  0  0  0  0
  140.9140   70.2470  226.7160 C   0  0  0  0  0  0  0  0  0  0  0  0
  140.9240   69.4300  227.8510 C   0  0  0  0  0  0  0  0  0  0  0  0
  140.2830   68.1870  227.8260 C   0  0  0  0  0  0  0  0  0  0  0  0
  139.6360   67.7580  226.6640 C   0  0  0  0  0  0  0  0  0  0  0  0
  139.6260   68.5710  225.5260 C   0  0  0  0  0  0  0  0  0  0  0  0
  140.0050   73.5730  222.3540 C   0  0  0  0  0  0  0  0  0  0  0  0
  139.9740   74.4010  221.2240 C   0  0  0  0  0  0  0  0  0  0  0  0
  139.8130   75.8130  221.4450 N   0  0  0  0  0  0  0  0  0  0  0  0
  140.4120   76.7730  220.8060 C   0  0  0  0  0  0  0  0  0  0  0  0
  141.2420   77.6480  221.5010 O   0  0  0  0  0  0  0  0  0  0  0  0
  140.2200   76.9660  219.3430 C   0  0  0  0  0  0  0  0  0  0  0  0
  142.9310   74.9480  217.5680 C   0  0  0  0  0  0  0  0  0  0  0  0
  144.9520   73.2030  218.9320 C   0  0  0  0  0  0  0  0  0  0  0  0
  145.4960   72.0370  219.7700 C   0  0  0  0  0  0  0  0  0  0  0  0
  143.8047   70.4879  221.1244 H   0  0  0  0  0  0  0  0  0  0  0  0
  142.9160   71.2159  219.7435 H   0  0  0  0  0  0  0  0  0  0  0  0
  143.2926   69.4595  219.7435 H   0  0  0  0  0  0  0  0  0  0  0  0
  145.2449   69.5521  217.6316 H   0  0  0  0  0  0  0  0  0  0  0  0
  143.7480   70.6013  217.6358 H   0  0  0  0  0  0  0  0  0  0  0  0
  146.6256   71.5156  217.2159 H   0  0  0  0  0  0  0  0  0  0  0  0
  145.3097   71.4682  215.9961 H   0  0  0  0  0  0  0  0  0  0  0  0
  145.0862   76.4692  215.3882 H   0  0  0  0  0  0  0  0  0  0  0  0
  143.4283   78.3075  215.6574 H   0  0  0  0  0  0  0  0  0  0  0  0
  141.4440   78.0025  217.1312 H   0  0  0  0  0  0  0  0  0  0  0  0
  140.6255   72.0076  218.8452 H   0  0  0  0  0  0  0  0  0  0  0  0
  140.6044   70.5558  220.8648 H   0  0  0  0  0  0  0  0  0  0  0  0
  141.4167   71.2252  226.7379 H   0  0  0  0  0  0  0  0  0  0  0  0
  141.4366   69.7653  228.7646 H   0  0  0  0  0  0  0  0  0  0  0  0
  140.2882   67.5473  228.7208 H   0  0  0  0  0  0  0  0  0  0  0  0
  139.1339   66.7795  226.6443 H   0  0  0  0  0  0  0  0  0  0  0  0
  139.1179   68.2306  224.6117 H   0  0  0  0  0  0  0  0  0  0  0  0
  139.8576   74.0114  223.3521 H   0  0  0  0  0  0  0  0  0  0  0  0
  142.2210   77.4300  221.6570 H   0  0  0  0  0  0  0  0  0  0  0  0
  139.1453   77.0335  219.1182 H   0  0  0  0  0  0  0  0  0  0  0  0
  140.7157   77.8945  219.0233 H   0  0  0  0  0  0  0  0  0  0  0  0
  142.8078   74.0093  218.1281 H   0  0  0  0  0  0  0  0  0  0  0  0
  145.5116   74.1165  219.1815 H   0  0  0  0  0  0  0  0  0  0  0  0
  143.8836   73.3295  219.1612 H   0  0  0  0  0  0  0  0  0  0  0  0
  146.5897   72.0020  219.6575 H   0  0  0  0  0  0  0  0  0  0  0  0
  145.2020   72.2115  220.8155 H   0  0  0  0  0  0  0  0  0  0  0  0
  1  2  1  0
  2  3  1  0
  3  4  1  0
  4  5  1  0
  5  6  1  0
  6  7  2  0
  6  8  1  0
  8  9  2  0
  9 10  1  0
 10 11  2  0
 11 12  1  0
 12 13  1  0
 13 14  2  0
 14 15  1  0
 15 16  2  0
 16 17  1  0
 17 18  2  0
 18 19  1  0
 19 20  3  0
 20 21  1  0
 21 22  2  0
 22 23  1  0
 23 24  2  0
 24 25  1  0
 25 26  2  0
 18 27  1  0
 27 28  2  0
 28 29  1  0
 29 30  2  0
 30 31  1  0
 30 32  1  0
 12 33  2  0
  5 34  1  0
 34 35  1  0
 35  2  1  0
 33  8  1  0
 32 13  1  0
 28 15  1  0
 26 21  1  0
  1 36  1  0
  1 37  1  0
  1 38  1  0
  3 39  1  0
  3 40  1  0
  4 41  1  0
  4 42  1  0
  9 43  1  0
 10 44  1  0
 11 45  1  0
 16 46  1  0
 17 47  1  0
 22 48  1  0
 23 49  1  0
 24 50  1  0
 25 51  1  0
 26 52  1  0
 27 53  1  0
 31 54  1  0
 32 55  1  0
 32 56  1  0
 33 57  1  0
 34 58  1  0
 34 59  1  0
 35 60  1  0
 35 61  1  0
M  END
>  <UniqueID>  (39) 
36

>  <SMILES>  (39) 
CN1CCN(C(=O)c2cccc(C3=Nc4ccc(C#Cc5ccccc5)cc4N=C(O)C3)c2)CC1

>  <Energy>  (39) 
87.66003728717698

>  <Genealogy>  (39) 
CN1CCN(C(=O)c2cccc(C3=Nc4ccc(C#Cc5ccccc5)cc4N=C(O)C3)c2)CC1 (tautomer)
CN1CCN(C(=O)c2cccc(C3=Nc4ccc(C#Cc5ccccc5)cc4N=C(O)C3)c2)CC1 (3D coordinates assigned)
CN1CCN(C(=O)c2cccc(C3=Nc4ccc(C#Cc5ccccc5)cc4N=C(O)C3)c2)CC1 (nonaromatic ring conformer: 87.66003728717698 kcal/mol)

>  <smiles>  (39) 
CN1CCN(C(=O)c2cccc(C3=Nc4ccc(C#Cc5ccccc5)cc4NC(=O)C3)c2)CC1

>  <score_type>  (39) 
oracle

>  <origin>  (39) 
autodockgpu

>  <m_score__min__energy>  (39) 
-5.4500000000000002

>  <m_primary>  (39) 
energy

>  <meeko>  (39) 
{"free_energy": -4.78, "intermolecular_energy": -8.06, "internal_energy": -1.5, "cluster_size": 1, "cluster_id": 6, "rank_in_cluster": 1}

>  <energy>  (39) 
-4.3

>  <cluster_rmsd>  (39) 
0.0

>  <rmsd>  (39) 
268.21

>  <cluster>  (39) 
12

$$$$
RUYQROVMPDWUPI-ZYMSVLFVNA-N
     RDKit          3D

 61 65  0  0  0  0  0  0  0  0999 V2000
  143.2590   79.9240  222.7600 C   0  0  0  0  0  0  0  0  0  0  0  0
  142.4760   81.1640  222.8940 N   0  0  0  0  0  0  0  0  0  0  0  0
  141.8070   81.5200  221.6130 C   0  0  0  0  0  0  0  0  0  0  0  0
  140.3710   82.0260  221.7890 C   0  0  0  0  0  0  0  0  0  0  0  0
  139.6080   81.0530  222.5760 N   0  0  0  0  0  0  0  0  0  0  0  0
  138.2020   80.8670  222.3250 C   0  0  0  0  0  0  0  0  0  0  0  0
  137.5160   81.8250  221.8750 O   0  0  0  0  0  0  0  0  0  0  0  0
  137.5440   79.5670  222.5750 C   0  0  0  0  0  0  0  0  0  0  0  0
  136.3540   79.5040  223.3170 C   0  0  0  0  0  0  0  0  0  0  0  0
  135.7320   78.2770  223.5470 C   0  0  0  0  0  0  0  0  0  0  0  0
  136.2920   77.0990  223.0470 C   0  0  0  0  0  0  0  0  0  0  0  0
  137.4920   77.1370  222.3140 C   0  0  0  0  0  0  0  0  0  0  0  0
  138.1000   75.8880  221.7950 C   0  0  0  0  0  0  0  0  0  0  0  0
  139.3970   75.8180  221.6850 N   0  0  0  0  0  0  0  0  0  0  0  0
  140.1690   74.6810  221.2670 C   0  0  0  0  0  0  0  0  0  0  0  0
  141.3870   74.9340  220.6180 C   0  0  0  0  0  0  0  0  0  0  0  0
  142.2350   73.8870  220.2540 C   0  0  0  0  0  0  0  0  0  0  0  0
  141.8900   72.5670  220.5600 C   0  0  0  0  0  0  0  0  0  0  0  0
  142.7700   71.4870  220.2000 C   0  0  0  0  0  0  0  0  0  0  0  0
  143.5040   70.5800  219.8990 C   0  0  0  0  0  0  0  0  0  0  0  0
  144.3790   69.4930  219.5440 C   0  0  0  0  0  0  0  0  0  0  0  0
  143.9830   68.1690  219.7750 C   0  0  0  0  0  0  0  0  0  0  0  0
  144.8330   67.1140  219.4260 C   0  0  0  0  0  0  0  0  0  0  0  0
  146.0760   67.3790  218.8430 C   0  0  0  0  0  0  0  0  0  0  0  0
  146.4730   68.7000  218.6140 C   0  0  0  0  0  0  0  0  0  0  0  0
  145.6270   69.7570  218.9650 C   0  0  0  0  0  0  0  0  0  0  0  0
  140.6910   72.2990  221.2310 C   0  0  0  0  0  0  0  0  0  0  0  0
  139.8160   73.3370  221.5800 C   0  0  0  0  0  0  0  0  0  0  0  0
  138.6380   72.9820  222.3270 N   0  0  0  0  0  0  0  0  0  0  0  0
  137.4880   73.5880  222.2970 C   0  0  0  0  0  0  0  0  0  0  0  0
  136.4620   73.1540  223.1310 O   0  0  0  0  0  0  0  0  0  0  0  0
  137.2390   74.7330  221.3760 C   0  0  0  0  0  0  0  0  0  0  0  0
  138.1220   78.3780  222.0980 C   0  0  0  0  0  0  0  0  0  0  0  0
  140.2310   80.4490  223.7600 C   0  0  0  0  0  0  0  0  0  0  0  0
  141.5800   81.1120  224.0730 C   0  0  0  0  0  0  0  0  0  0  0  0
  143.5043   79.5355  223.7594 H   0  0  0  0  0  0  0  0  0  0  0  0
  142.6694   79.1756  222.2102 H   0  0  0  0  0  0  0  0  0  0  0  0
  144.1882   80.1347  222.2102 H   0  0  0  0  0  0  0  0  0  0  0  0
  142.3954   82.3085  221.1211 H   0  0  0  0  0  0  0  0  0  0  0  0
  141.7529   80.6005  221.0117 H   0  0  0  0  0  0  0  0  0  0  0  0
  140.3837   82.9932  222.3127 H   0  0  0  0  0  0  0  0  0  0  0  0
  139.9010   82.1520  220.8025 H   0  0  0  0  0  0  0  0  0  0  0  0
  135.9100   80.4267  223.7189 H   0  0  0  0  0  0  0  0  0  0  0  0
  134.7966   78.2368  224.1245 H   0  0  0  0  0  0  0  0  0  0  0  0
  135.7917   76.1361  223.2275 H   0  0  0  0  0  0  0  0  0  0  0  0
  141.6772   75.9709  220.3932 H   0  0  0  0  0  0  0  0  0  0  0  0
  143.1759   74.1005  219.7257 H   0  0  0  0  0  0  0  0  0  0  0  0
  143.0041   67.9591  220.2306 H   0  0  0  0  0  0  0  0  0  0  0  0
  144.5231   66.0748  219.6104 H   0  0  0  0  0  0  0  0  0  0  0  0
  146.7414   66.5485  218.5646 H   0  0  0  0  0  0  0  0  0  0  0  0
  147.4518   68.9082  218.1573 H   0  0  0  0  0  0  0  0  0  0  0  0
  145.9416   70.7958  218.7864 H   0  0  0  0  0  0  0  0  0  0  0  0
  140.4323   71.2611  221.4875 H   0  0  0  0  0  0  0  0  0  0  0  0
  136.6040   73.0610  224.1320 H   0  0  0  0  0  0  0  0  0  0  0  0
  137.4897   74.4399  220.3458 H   0  0  0  0  0  0  0  0  0  0  0  0
  136.1788   75.0229  221.4190 H   0  0  0  0  0  0  0  0  0  0  0  0
  139.0754   78.4170  221.5508 H   0  0  0  0  0  0  0  0  0  0  0  0
  139.5601   80.5746  224.6226 H   0  0  0  0  0  0  0  0  0  0  0  0
  140.4045   79.3818  223.5577 H   0  0  0  0  0  0  0  0  0  0  0  0
  141.3955   82.1391  224.4210 H   0  0  0  0  0  0  0  0  0  0  0  0
  142.0784   80.5060  224.8440 H   0  0  0  0  0  0  0  0  0  0  0  0
  1  2  1  0
  2  3  1  0
  3  4  1  0
  4  5  1  0
  5  6  1  0
  6  7  2  0
  6  8  1  0
  8  9  2  0
  9 10  1  0
 10 11  2  0
 11 12  1  0
 12 13  1  0
 13 14  2  0
 14 15  1  0
 15 16  2  0
 16 17  1  0
 17 18  2  0
 18 19  1  0
 19 20  3  0
 20 21  1  0
 21 22  2  0
 22 23  1  0
 23 24  2  0
 24 25  1  0
 25 26  2  0
 18 27  1  0
 27 28  2  0
 28 29  1  0
 29 30  2  0
 30 31  1  0
 30 32  1  0
 12 33  2  0
  5 34  1  0
 34 35  1  0
 35  2  1  0
 33  8  1  0
 32 13  1  0
 28 15  1  0
 26 21  1  0
  1 36  1  0
  1 37  1  0
  1 38  1  0
  3 39  1  0
  3 40  1  0
  4 41  1  0
  4 42  1  0
  9 43  1  0
 10 44  1  0
 11 45  1  0
 16 46  1  0
 17 47  1  0
 22 48  1  0
 23 49  1  0
 24 50  1  0
 25 51  1  0
 26 52  1  0
 27 53  1  0
 31 54  1  0
 32 55  1  0
 32 56  1  0
 33 57  1  0
 34 58  1  0
 34 59  1  0
 35 60  1  0
 35 61  1  0
M  END
>  <UniqueID>  (40) 
36

>  <SMILES>  (40) 
CN1CCN(C(=O)c2cccc(C3=Nc4ccc(C#Cc5ccccc5)cc4N=C(O)C3)c2)CC1

>  <Energy>  (40) 
87.66003728717698

>  <Genealogy>  (40) 
CN1CCN(C(=O)c2cccc(C3=Nc4ccc(C#Cc5ccccc5)cc4N=C(O)C3)c2)CC1 (tautomer)
CN1CCN(C(=O)c2cccc(C3=Nc4ccc(C#Cc5ccccc5)cc4N=C(O)C3)c2)CC1 (3D coordinates assigned)
CN1CCN(C(=O)c2cccc(C3=Nc4ccc(C#Cc5ccccc5)cc4N=C(O)C3)c2)CC1 (nonaromatic ring conformer: 87.66003728717698 kcal/mol)

>  <smiles>  (40) 
CN1CCN(C(=O)c2cccc(C3=Nc4ccc(C#Cc5ccccc5)cc4NC(=O)C3)c2)CC1

>  <score_type>  (40) 
oracle

>  <origin>  (40) 
autodockgpu

>  <m_score__min__energy>  (40) 
-5.4500000000000002

>  <m_primary>  (40) 
energy

>  <meeko>  (40) 
{"free_energy": -4.55, "intermolecular_energy": -7.84, "internal_energy": -1.21, "cluster_size": 2, "cluster_id": 8, "rank_in_cluster": 1}

>  <energy>  (40) 
-3.62

>  <cluster_rmsd>  (40) 
0.0

>  <rmsd>  (40) 
268.66

>  <cluster>  (40) 
13

$$$$
RUYQROVMPDWUPI-ZYMSVLFVNA-N
     RDKit          3D

 61 65  0  0  0  0  0  0  0  0999 V2000
  136.9330   80.2570  223.4110 C   0  0  0  0  0  0  0  0  0  0  0  0
  138.0710   81.1830  223.5410 N   0  0  0  0  0  0  0  0  0  0  0  0
  139.2340   80.5210  224.1910 C   0  0  0  0  0  0  0  0  0  0  0  0
  140.5800   80.8740  223.5500 C   0  0  0  0  0  0  0  0  0  0  0  0
  140.5130   80.6150  222.1100 N   0  0  0  0  0  0  0  0  0  0  0  0
  141.6870   80.1750  221.4010 C   0  0  0  0  0  0  0  0  0  0  0  0
  142.8300   80.5110  221.8170 O   0  0  0  0  0  0  0  0  0  0  0  0
  141.5830   79.3260  220.1950 C   0  0  0  0  0  0  0  0  0  0  0  0
  142.2230   79.7010  219.0040 C   0  0  0  0  0  0  0  0  0  0  0  0
  142.1270   78.8950  217.8690 C   0  0  0  0  0  0  0  0  0  0  0  0
  141.3870   77.7120  217.9070 C   0  0  0  0  0  0  0  0  0  0  0  0
  140.7250   77.3240  219.0870 C   0  0  0  0  0  0  0  0  0  0  0  0
  139.9240   76.0760  219.1280 C   0  0  0  0  0  0  0  0  0  0  0  0
  140.5410   74.9390  219.2800 N   0  0  0  0  0  0  0  0  0  0  0  0
  140.3840   74.0070  220.3630 C   0  0  0  0  0  0  0  0  0  0  0  0
  141.5420   73.3780  220.8440 C   0  0  0  0  0  0  0  0  0  0  0  0
  141.4870   72.5230  221.9450 C   0  0  0  0  0  0  0  0  0  0  0  0
  140.2730   72.3040  222.6020 C   0  0  0  0  0  0  0  0  0  0  0  0
  140.2170   71.4340  223.7480 C   0  0  0  0  0  0  0  0  0  0  0  0
  140.1740   70.7070  224.7070 C   0  0  0  0  0  0  0  0  0  0  0  0
  140.1290   69.8380  225.8540 C   0  0  0  0  0  0  0  0  0  0  0  0
  139.8820   68.4680  225.6870 C   0  0  0  0  0  0  0  0  0  0  0  0
  139.8420   67.6240  226.8030 C   0  0  0  0  0  0  0  0  0  0  0  0
  140.0510   68.1460  228.0840 C   0  0  0  0  0  0  0  0  0  0  0  0
  140.2950   69.5120  228.2510 C   0  0  0  0  0  0  0  0  0  0  0  0
  140.3330   70.3590  227.1380 C   0  0  0  0  0  0  0  0  0  0  0  0
  139.1130   72.9440  222.1520 C   0  0  0  0  0  0  0  0  0  0  0  0
  139.1450   73.7850  221.0310 C   0  0  0  0  0  0  0  0  0  0  0  0
  137.9230   74.4560  220.6750 N   0  0  0  0  0  0  0  0  0  0  0  0
  137.8040   75.6780  220.2490 C   0  0  0  0  0  0  0  0  0  0  0  0
  137.0610   76.5940  220.9890 O   0  0  0  0  0  0  0  0  0  0  0  0
  138.4320   76.1170  218.9710 C   0  0  0  0  0  0  0  0  0  0  0  0
  140.8140   78.1500  220.2240 C   0  0  0  0  0  0  0  0  0  0  0  0
  139.3160   81.0260  221.3670 C   0  0  0  0  0  0  0  0  0  0  0  0
  138.3730   81.8520  222.2540 C   0  0  0  0  0  0  0  0  0  0  0  0
  136.5787   79.9687  224.4117 H   0  0  0  0  0  0  0  0  0  0  0  0
  136.1183   80.7520  222.8621 H   0  0  0  0  0  0  0  0  0  0  0  0
  137.2521   79.3587  222.8621 H   0  0  0  0  0  0  0  0  0  0  0  0
  139.2616   80.8261  225.2475 H   0  0  0  0  0  0  0  0  0  0  0  0
  139.0952   79.4364  224.0713 H   0  0  0  0  0  0  0  0  0  0  0  0
  140.8013   81.9377  223.7222 H   0  0  0  0  0  0  0  0  0  0  0  0
  141.3743   80.2592  223.9985 H   0  0  0  0  0  0  0  0  0  0  0  0
  142.8032   80.6347  218.9648 H   0  0  0  0  0  0  0  0  0  0  0  0
  142.6364   79.1930  216.9407 H   0  0  0  0  0  0  0  0  0  0  0  0
  141.3208   77.0793  217.0096 H   0  0  0  0  0  0  0  0  0  0  0  0
  142.5059   73.5613  220.3466 H   0  0  0  0  0  0  0  0  0  0  0  0
  142.4003   72.0206  222.2965 H   0  0  0  0  0  0  0  0  0  0  0  0
  139.7198   68.0567  224.6798 H   0  0  0  0  0  0  0  0  0  0  0  0
  139.6461   66.5495  226.6726 H   0  0  0  0  0  0  0  0  0  0  0  0
  140.0233   67.4812  228.9600 H   0  0  0  0  0  0  0  0  0  0  0  0
  140.4574   69.9218  229.2588 H   0  0  0  0  0  0  0  0  0  0  0  0
  140.5231   71.4342  227.2714 H   0  0  0  0  0  0  0  0  0  0  0  0
  138.1638   72.7852  222.6847 H   0  0  0  0  0  0  0  0  0  0  0  0
  136.0470   76.5720  220.9820 H   0  0  0  0  0  0  0  0  0  0  0  0
  138.1269   75.4420  218.1578 H   0  0  0  0  0  0  0  0  0  0  0  0
  138.1092   77.1399  218.7272 H   0  0  0  0  0  0  0  0  0  0  0  0
  140.2769   77.8724  221.1429 H   0  0  0  0  0  0  0  0  0  0  0  0
  139.6206   81.6339  220.5023 H   0  0  0  0  0  0  0  0  0  0  0  0
  138.7828   80.1229  221.0352 H   0  0  0  0  0  0  0  0  0  0  0  0
  138.8465   82.8225  222.4638 H   0  0  0  0  0  0  0  0  0  0  0  0
  137.4244   81.9729  221.7103 H   0  0  0  0  0  0  0  0  0  0  0  0
  1  2  1  0
  2  3  1  0
  3  4  1  0
  4  5  1  0
  5  6  1  0
  6  7  2  0
  6  8  1  0
  8  9  2  0
  9 10  1  0
 10 11  2  0
 11 12  1  0
 12 13  1  0
 13 14  2  0
 14 15  1  0
 15 16  2  0
 16 17  1  0
 17 18  2  0
 18 19  1  0
 19 20  3  0
 20 21  1  0
 21 22  2  0
 22 23  1  0
 23 24  2  0
 24 25  1  0
 25 26  2  0
 18 27  1  0
 27 28  2  0
 28 29  1  0
 29 30  2  0
 30 31  1  0
 30 32  1  0
 12 33  2  0
  5 34  1  0
 34 35  1  0
 35  2  1  0
 33  8  1  0
 32 13  1  0
 28 15  1  0
 26 21  1  0
  1 36  1  0
  1 37  1  0
  1 38  1  0
  3 39  1  0
  3 40  1  0
  4 41  1  0
  4 42  1  0
  9 43  1  0
 10 44  1  0
 11 45  1  0
 16 46  1  0
 17 47  1  0
 22 48  1  0
 23 49  1  0
 24 50  1  0
 25 51  1  0
 26 52  1  0
 27 53  1  0
 31 54  1  0
 32 55  1  0
 32 56  1  0
 33 57  1  0
 34 58  1  0
 34 59  1  0
 35 60  1  0
 35 61  1  0
M  END
>  <UniqueID>  (41) 
37

>  <SMILES>  (41) 
CN1CCN(C(=O)c2cccc(C3=Nc4ccc(C#Cc5ccccc5)cc4N=C(O)C3)c2)CC1

>  <Energy>  (41) 
88.45939302911616

>  <Genealogy>  (41) 
CN1CCN(C(=O)c2cccc(C3=Nc4ccc(C#Cc5ccccc5)cc4N=C(O)C3)c2)CC1 (tautomer)
CN1CCN(C(=O)c2cccc(C3=Nc4ccc(C#Cc5ccccc5)cc4N=C(O)C3)c2)CC1 (3D coordinates assigned)
CN1CCN(C(=O)c2cccc(C3=Nc4ccc(C#Cc5ccccc5)cc4N=C(O)C3)c2)CC1 (nonaromatic ring conformer: 88.45939302911616 kcal/mol)

>  <smiles>  (41) 
CN1CCN(C(=O)c2cccc(C3=Nc4ccc(C#Cc5ccccc5)cc4NC(=O)C3)c2)CC1

>  <score_type>  (41) 
oracle

>  <origin>  (41) 
autodockgpu

>  <m_score__min__energy>  (41) 
-5.4500000000000002

>  <m_primary>  (41) 
energy

>  <meeko>  (41) 
{"free_energy": -4.68, "intermolecular_energy": -7.96, "internal_energy": -1.29, "cluster_size": 1, "cluster_id": 7, "rank_in_cluster": 1}

>  <energy>  (41) 
-5.45

>  <cluster_rmsd>  (41) 
0.0

>  <rmsd>  (41) 
270.53

>  <cluster>  (41) 
1

$$$$
RUYQROVMPDWUPI-ZYMSVLFVNA-N
     RDKit          3D

 61 65  0  0  0  0  0  0  0  0999 V2000
  137.1690   77.7330  222.7340 C   0  0  0  0  0  0  0  0  0  0  0  0
  137.7270   79.0880  222.8840 N   0  0  0  0  0  0  0  0  0  0  0  0
  139.0260   79.0580  223.6090 C   0  0  0  0  0  0  0  0  0  0  0  0
  140.0810   80.0000  223.0180 C   0  0  0  0  0  0  0  0  0  0  0  0
  140.2250   79.7290  221.5850 N   0  0  0  0  0  0  0  0  0  0  0  0
  141.5050   79.8910  220.9450 C   0  0  0  0  0  0  0  0  0  0  0  0
  142.3290   80.7300  221.4010 O   0  0  0  0  0  0  0  0  0  0  0  0
  141.8790   79.0840  219.7650 C   0  0  0  0  0  0  0  0  0  0  0  0
  142.3180   79.7080  218.5870 C   0  0  0  0  0  0  0  0  0  0  0  0
  142.6760   78.9440  217.4760 C   0  0  0  0  0  0  0  0  0  0  0  0
  142.5950   77.5510  217.5250 C   0  0  0  0  0  0  0  0  0  0  0  0
  142.1440   76.9050  218.6910 C   0  0  0  0  0  0  0  0  0  0  0  0
  142.0410   75.4250  218.7430 C   0  0  0  0  0  0  0  0  0  0  0  0
  140.9840   74.8880  219.2830 N   0  0  0  0  0  0  0  0  0  0  0  0
  140.9400   74.0590  220.4570 C   0  0  0  0  0  0  0  0  0  0  0  0
  139.7720   74.1070  221.2330 C   0  0  0  0  0  0  0  0  0  0  0  0
  139.6160   73.2730  222.3420 C   0  0  0  0  0  0  0  0  0  0  0  0
  140.6170   72.3560  222.6750 C   0  0  0  0  0  0  0  0  0  0  0  0
  140.4520   71.4840  223.8090 C   0  0  0  0  0  0  0  0  0  0  0  0
  140.3170   70.7550  224.7580 C   0  0  0  0  0  0  0  0  0  0  0  0
  140.1510   69.8870  225.8940 C   0  0  0  0  0  0  0  0  0  0  0  0
  139.8240   68.5370  225.7040 C   0  0  0  0  0  0  0  0  0  0  0  0
  139.6680   67.6930  226.8100 C   0  0  0  0  0  0  0  0  0  0  0  0
  139.8410   68.1940  228.1030 C   0  0  0  0  0  0  0  0  0  0  0  0
  140.1650   69.5400  228.2940 C   0  0  0  0  0  0  0  0  0  0  0  0
  140.3190   70.3880  227.1920 C   0  0  0  0  0  0  0  0  0  0  0  0
  141.7760   72.2770  221.8950 C   0  0  0  0  0  0  0  0  0  0  0  0
  141.9610   73.1250  220.7950 C   0  0  0  0  0  0  0  0  0  0  0  0
  143.1490   72.9340  220.0070 N   0  0  0  0  0  0  0  0  0  0  0  0
  143.7930   73.8440  219.3390 C   0  0  0  0  0  0  0  0  0  0  0  0
  145.1010   74.1610  219.6950 O   0  0  0  0  0  0  0  0  0  0  0  0
  143.1450   74.5610  218.2080 C   0  0  0  0  0  0  0  0  0  0  0  0
  141.7710   77.6830  219.8030 C   0  0  0  0  0  0  0  0  0  0  0  0
  139.0180   79.5210  220.7760 C   0  0  0  0  0  0  0  0  0  0  0  0
  137.7490   79.8100  221.5910 C   0  0  0  0  0  0  0  0  0  0  0  0
  136.9899   77.2981  223.7284 H   0  0  0  0  0  0  0  0  0  0  0  0
  136.2197   77.7865  222.1808 H   0  0  0  0  0  0  0  0  0  0  0  0
  137.8807   77.1025  222.1808 H   0  0  0  0  0  0  0  0  0  0  0  0
  138.8473   79.3485  224.6548 H   0  0  0  0  0  0  0  0  0  0  0  0
  139.4211   78.0353  223.5203 H   0  0  0  0  0  0  0  0  0  0  0  0
  139.7651   81.0434  223.1646 H   0  0  0  0  0  0  0  0  0  0  0  0
  141.0447   79.8362  223.5224 H   0  0  0  0  0  0  0  0  0  0  0  0
  142.3801   80.8052  218.5395 H   0  0  0  0  0  0  0  0  0  0  0  0
  143.0233   79.4408  216.5581 H   0  0  0  0  0  0  0  0  0  0  0  0
  142.8854   76.9551  216.6472 H   0  0  0  0  0  0  0  0  0  0  0  0
  138.9697   74.8100  220.9645 H   0  0  0  0  0  0  0  0  0  0  0  0
  138.7044   73.3377  222.9542 H   0  0  0  0  0  0  0  0  0  0  0  0
  139.6901   68.1412  224.6865 H   0  0  0  0  0  0  0  0  0  0  0  0
  139.4090   66.6344  226.6611 H   0  0  0  0  0  0  0  0  0  0  0  0
  139.7221   67.5286  228.9709 H   0  0  0  0  0  0  0  0  0  0  0  0
  140.2991   69.9333  229.3125 H   0  0  0  0  0  0  0  0  0  0  0  0
  140.5719   71.4477  227.3443 H   0  0  0  0  0  0  0  0  0  0  0  0
  142.5519   71.5397  222.1486 H   0  0  0  0  0  0  0  0  0  0  0  0
  145.8160   74.3040  218.9890 H   0  0  0  0  0  0  0  0  0  0  0  0
  143.8887   75.1888  217.6953 H   0  0  0  0  0  0  0  0  0  0  0  0
  142.7329   73.8323  217.4945 H   0  0  0  0  0  0  0  0  0  0  0  0
  141.3914   77.1901  220.7102 H   0  0  0  0  0  0  0  0  0  0  0  0
  139.0478   80.1945  219.9068 H   0  0  0  0  0  0  0  0  0  0  0  0
  138.9924   78.4705  220.4508 H   0  0  0  0  0  0  0  0  0  0  0  0
  137.6962   80.8906  221.7897 H   0  0  0  0  0  0  0  0  0  0  0  0
  136.8875   79.4640  221.0010 H   0  0  0  0  0  0  0  0  0  0  0  0
  1  2  1  0
  2  3  1  0
  3  4  1  0
  4  5  1  0
  5  6  1  0
  6  7  2  0
  6  8  1  0
  8  9  2  0
  9 10  1  0
 10 11  2  0
 11 12  1  0
 12 13  1  0
 13 14  2  0
 14 15  1  0
 15 16  2  0
 16 17  1  0
 17 18  2  0
 18 19  1  0
 19 20  3  0
 20 21  1  0
 21 22  2  0
 22 23  1  0
 23 24  2  0
 24 25  1  0
 25 26  2  0
 18 27  1  0
 27 28  2  0
 28 29  1  0
 29 30  2  0
 30 31  1  0
 30 32  1  0
 12 33  2  0
  5 34  1  0
 34 35  1  0
 35  2  1  0
 33  8  1  0
 32 13  1  0
 28 15  1  0
 26 21  1  0
  1 36  1  0
  1 37  1  0
  1 38  1  0
  3 39  1  0
  3 40  1  0
  4 41  1  0
  4 42  1  0
  9 43  1  0
 10 44  1  0
 11 45  1  0
 16 46  1  0
 17 47  1  0
 22 48  1  0
 23 49  1  0
 24 50  1  0
 25 51  1  0
 26 52  1  0
 27 53  1  0
 31 54  1  0
 32 55  1  0
 32 56  1  0
 33 57  1  0
 34 58  1  0
 34 59  1  0
 35 60  1  0
 35 61  1  0
M  END
>  <UniqueID>  (42) 
37

>  <SMILES>  (42) 
CN1CCN(C(=O)c2cccc(C3=Nc4ccc(C#Cc5ccccc5)cc4N=C(O)C3)c2)CC1

>  <Energy>  (42) 
88.45939302911616

>  <Genealogy>  (42) 
CN1CCN(C(=O)c2cccc(C3=Nc4ccc(C#Cc5ccccc5)cc4N=C(O)C3)c2)CC1 (tautomer)
CN1CCN(C(=O)c2cccc(C3=Nc4ccc(C#Cc5ccccc5)cc4N=C(O)C3)c2)CC1 (3D coordinates assigned)
CN1CCN(C(=O)c2cccc(C3=Nc4ccc(C#Cc5ccccc5)cc4N=C(O)C3)c2)CC1 (nonaromatic ring conformer: 88.45939302911616 kcal/mol)

>  <smiles>  (42) 
CN1CCN(C(=O)c2cccc(C3=Nc4ccc(C#Cc5ccccc5)cc4NC(=O)C3)c2)CC1

>  <score_type>  (42) 
oracle

>  <origin>  (42) 
autodockgpu

>  <m_score__min__energy>  (42) 
-5.4500000000000002

>  <m_primary>  (42) 
energy

>  <meeko>  (42) 
{"free_energy": -5.22, "intermolecular_energy": -8.5, "internal_energy": -1.38, "cluster_size": 4, "cluster_id": 2, "rank_in_cluster": 3}

>  <energy>  (42) 
-4.12

>  <cluster_rmsd>  (42) 
1.72

>  <rmsd>  (42) 
269.73

>  <cluster>  (42) 
1

$$$$
RUYQROVMPDWUPI-ZYMSVLFVNA-N
     RDKit          3D

 61 65  0  0  0  0  0  0  0  0999 V2000
  139.9800   76.9730  212.7180 C   0  0  0  0  0  0  0  0  0  0  0  0
  140.4540   76.0090  213.7260 N   0  0  0  0  0  0  0  0  0  0  0  0
  141.9360   76.0500  213.8550 C   0  0  0  0  0  0  0  0  0  0  0  0
  142.4290   75.9640  215.3040 C   0  0  0  0  0  0  0  0  0  0  0  0
  141.7610   76.9940  216.1040 N   0  0  0  0  0  0  0  0  0  0  0  0
  142.4540   77.6150  217.2030 C   0  0  0  0  0  0  0  0  0  0  0  0
  143.3470   76.9720  217.8220 O   0  0  0  0  0  0  0  0  0  0  0  0
  142.1470   79.0000  217.6190 C   0  0  0  0  0  0  0  0  0  0  0  0
  142.3450   80.0680  216.7310 C   0  0  0  0  0  0  0  0  0  0  0  0
  142.0500   81.3740  217.1230 C   0  0  0  0  0  0  0  0  0  0  0  0
  141.5620   81.6300  218.4060 C   0  0  0  0  0  0  0  0  0  0  0  0
  141.3700   80.5750  219.3180 C   0  0  0  0  0  0  0  0  0  0  0  0
  140.8670   80.8420  220.6880 C   0  0  0  0  0  0  0  0  0  0  0  0
  139.5870   80.7600  220.9140 N   0  0  0  0  0  0  0  0  0  0  0  0
  138.9150   80.9640  222.1680 C   0  0  0  0  0  0  0  0  0  0  0  0
  137.6090   81.4750  222.1230 C   0  0  0  0  0  0  0  0  0  0  0  0
  136.8590   81.6260  223.2900 C   0  0  0  0  0  0  0  0  0  0  0  0
  137.3950   81.2390  224.5220 C   0  0  0  0  0  0  0  0  0  0  0  0
  136.6170   81.3780  225.7250 C   0  0  0  0  0  0  0  0  0  0  0  0
  135.9640   81.4980  226.7300 C   0  0  0  0  0  0  0  0  0  0  0  0
  135.1800   81.6380  227.9290 C   0  0  0  0  0  0  0  0  0  0  0  0
  133.8050   81.8980  227.8430 C   0  0  0  0  0  0  0  0  0  0  0  0
  133.0440   82.0300  229.0100 C   0  0  0  0  0  0  0  0  0  0  0  0
  133.6520   81.8990  230.2620 C   0  0  0  0  0  0  0  0  0  0  0  0
  135.0230   81.6430  230.3490 C   0  0  0  0  0  0  0  0  0  0  0  0
  135.7880   81.5130  229.1850 C   0  0  0  0  0  0  0  0  0  0  0  0
  138.6860   80.7020  224.5810 C   0  0  0  0  0  0  0  0  0  0  0  0
  139.4630   80.5690  223.4230 C   0  0  0  0  0  0  0  0  0  0  0  0
  140.7520   79.9470  223.5620 N   0  0  0  0  0  0  0  0  0  0  0  0
  141.8020   80.1610  222.8250 C   0  0  0  0  0  0  0  0  0  0  0  0
  142.9450   79.3910  223.0170 O   0  0  0  0  0  0  0  0  0  0  0  0
  141.8100   81.2280  221.7890 C   0  0  0  0  0  0  0  0  0  0  0  0
  141.6840   79.2620  218.9190 C   0  0  0  0  0  0  0  0  0  0  0  0
  140.3210   77.2140  215.9230 C   0  0  0  0  0  0  0  0  0  0  0  0
  139.7110   76.1490  215.0000 C   0  0  0  0  0  0  0  0  0  0  0  0
  139.5489   77.8498  213.2234 H   0  0  0  0  0  0  0  0  0  0  0  0
  140.8246   77.2908  212.0890 H   0  0  0  0  0  0  0  0  0  0  0  0
  139.2126   76.4982  212.0890 H   0  0  0  0  0  0  0  0  0  0  0  0
  142.3574   75.2031  213.2935 H   0  0  0  0  0  0  0  0  0  0  0  0
  142.2673   77.0212  213.4589 H   0  0  0  0  0  0  0  0  0  0  0  0
  142.1942   74.9705  215.7138 H   0  0  0  0  0  0  0  0  0  0  0  0
  143.5172   76.1223  215.3333 H   0  0  0  0  0  0  0  0  0  0  0  0
  142.7348   79.8747  215.7207 H   0  0  0  0  0  0  0  0  0  0  0  0
  142.2024   82.2052  216.4188 H   0  0  0  0  0  0  0  0  0  0  0  0
  141.3263   82.6618  218.7057 H   0  0  0  0  0  0  0  0  0  0  0  0
  137.1707   81.7603  221.1553 H   0  0  0  0  0  0  0  0  0  0  0  0
  135.8451   82.0499  223.2406 H   0  0  0  0  0  0  0  0  0  0  0  0
  133.3245   81.9982  226.8586 H   0  0  0  0  0  0  0  0  0  0  0  0
  131.9658   82.2371  228.9420 H   0  0  0  0  0  0  0  0  0  0  0  0
  133.0514   81.9974  231.1783 H   0  0  0  0  0  0  0  0  0  0  0  0
  135.5015   81.5435  231.3345 H   0  0  0  0  0  0  0  0  0  0  0  0
  136.8673   81.3126  229.2559 H   0  0  0  0  0  0  0  0  0  0  0  0
  139.0961   80.3801  225.5496 H   0  0  0  0  0  0  0  0  0  0  0  0
  143.0580   78.4960  222.5520 H   0  0  0  0  0  0  0  0  0  0  0  0
  141.4862   82.1795  222.2361 H   0  0  0  0  0  0  0  0  0  0  0  0
  142.8260   81.3482  221.3850 H   0  0  0  0  0  0  0  0  0  0  0  0
  141.5656   78.4330  219.6323 H   0  0  0  0  0  0  0  0  0  0  0  0
  139.8243   77.1669  216.9034 H   0  0  0  0  0  0  0  0  0  0  0  0
  140.1736   78.2018  215.4621 H   0  0  0  0  0  0  0  0  0  0  0  0
  139.7218   75.1812  215.5228 H   0  0  0  0  0  0  0  0  0  0  0  0
  138.6862   76.4657  214.7560 H   0  0  0  0  0  0  0  0  0  0  0  0
  1  2  1  0
  2  3  1  0
  3  4  1  0
  4  5  1  0
  5  6  1  0
  6  7  2  0
  6  8  1  0
  8  9  2  0
  9 10  1  0
 10 11  2  0
 11 12  1  0
 12 13  1  0
 13 14  2  0
 14 15  1  0
 15 16  2  0
 16 17  1  0
 17 18  2  0
 18 19  1  0
 19 20  3  0
 20 21  1  0
 21 22  2  0
 22 23  1  0
 23 24  2  0
 24 25  1  0
 25 26  2  0
 18 27  1  0
 27 28  2  0
 28 29  1  0
 29 30  2  0
 30 31  1  0
 30 32  1  0
 12 33  2  0
  5 34  1  0
 34 35  1  0
 35  2  1  0
 33  8  1  0
 32 13  1  0
 28 15  1  0
 26 21  1  0
  1 36  1  0
  1 37  1  0
  1 38  1  0
  3 39  1  0
  3 40  1  0
  4 41  1  0
  4 42  1  0
  9 43  1  0
 10 44  1  0
 11 45  1  0
 16 46  1  0
 17 47  1  0
 22 48  1  0
 23 49  1  0
 24 50  1  0
 25 51  1  0
 26 52  1  0
 27 53  1  0
 31 54  1  0
 32 55  1  0
 32 56  1  0
 33 57  1  0
 34 58  1  0
 34 59  1  0
 35 60  1  0
 35 61  1  0
M  END
>  <UniqueID>  (43) 
37

>  <SMILES>  (43) 
CN1CCN(C(=O)c2cccc(C3=Nc4ccc(C#Cc5ccccc5)cc4N=C(O)C3)c2)CC1

>  <Energy>  (43) 
88.45939302911616

>  <Genealogy>  (43) 
CN1CCN(C(=O)c2cccc(C3=Nc4ccc(C#Cc5ccccc5)cc4N=C(O)C3)c2)CC1 (tautomer)
CN1CCN(C(=O)c2cccc(C3=Nc4ccc(C#Cc5ccccc5)cc4N=C(O)C3)c2)CC1 (3D coordinates assigned)
CN1CCN(C(=O)c2cccc(C3=Nc4ccc(C#Cc5ccccc5)cc4N=C(O)C3)c2)CC1 (nonaromatic ring conformer: 88.45939302911616 kcal/mol)

>  <smiles>  (43) 
CN1CCN(C(=O)c2cccc(C3=Nc4ccc(C#Cc5ccccc5)cc4NC(=O)C3)c2)CC1

>  <score_type>  (43) 
oracle

>  <origin>  (43) 
autodockgpu

>  <m_score__min__energy>  (43) 
-5.4500000000000002

>  <m_primary>  (43) 
energy

>  <meeko>  (43) 
{"free_energy": -4.12, "intermolecular_energy": -7.4, "internal_energy": -1.12, "cluster_size": 2, "cluster_id": 1, "rank_in_cluster": 2}

>  <energy>  (43) 
-5.39

>  <cluster_rmsd>  (43) 
0.0

>  <rmsd>  (43) 
269.25

>  <cluster>  (43) 
2

$$$$
RUYQROVMPDWUPI-ZYMSVLFVNA-N
     RDKit          3D

 61 65  0  0  0  0  0  0  0  0999 V2000
  136.2470   80.0270  223.6800 C   0  0  0  0  0  0  0  0  0  0  0  0
  137.3170   81.0120  223.9140 N   0  0  0  0  0  0  0  0  0  0  0  0
  138.5440   80.3580  224.4450 C   0  0  0  0  0  0  0  0  0  0  0  0
  139.8420   80.8970  223.8330 C   0  0  0  0  0  0  0  0  0  0  0  0
  139.7520   80.8320  222.3720 N   0  0  0  0  0  0  0  0  0  0  0  0
  140.9330   80.5840  221.5870 C   0  0  0  0  0  0  0  0  0  0  0  0
  142.0600   80.9470  222.0240 O   0  0  0  0  0  0  0  0  0  0  0  0
  140.8560   79.9010  220.2790 C   0  0  0  0  0  0  0  0  0  0  0  0
  140.4810   80.6110  219.1270 C   0  0  0  0  0  0  0  0  0  0  0  0
  140.4140   79.9660  217.8930 C   0  0  0  0  0  0  0  0  0  0  0  0
  140.7120   78.6050  217.7930 C   0  0  0  0  0  0  0  0  0  0  0  0
  141.0750   77.8700  218.9370 C   0  0  0  0  0  0  0  0  0  0  0  0
  141.3780   76.4210  218.8400 C   0  0  0  0  0  0  0  0  0  0  0  0
  140.4520   75.5630  219.1630 N   0  0  0  0  0  0  0  0  0  0  0  0
  140.4880   74.6200  220.2460 C   0  0  0  0  0  0  0  0  0  0  0  0
  139.2650   74.2760  220.8410 C   0  0  0  0  0  0  0  0  0  0  0  0
  139.2040   73.3070  221.8430 C   0  0  0  0  0  0  0  0  0  0  0  0
  140.3660   72.6440  222.2490 C   0  0  0  0  0  0  0  0  0  0  0  0
  140.3020   71.6330  223.2710 C   0  0  0  0  0  0  0  0  0  0  0  0
  140.2470   70.7890  224.1300 C   0  0  0  0  0  0  0  0  0  0  0  0
  140.1850   69.7790  225.1520 C   0  0  0  0  0  0  0  0  0  0  0  0
  141.0990   69.7970  226.2150 C   0  0  0  0  0  0  0  0  0  0  0  0
  141.0350   68.8160  227.2100 C   0  0  0  0  0  0  0  0  0  0  0  0
  140.0570   67.8190  227.1480 C   0  0  0  0  0  0  0  0  0  0  0  0
  139.1460   67.7970  226.0890 C   0  0  0  0  0  0  0  0  0  0  0  0
  139.2090   68.7750  225.0900 C   0  0  0  0  0  0  0  0  0  0  0  0
  141.5900   72.9560  221.6470 C   0  0  0  0  0  0  0  0  0  0  0  0
  141.6740   73.9450  220.6580 C   0  0  0  0  0  0  0  0  0  0  0  0
  142.9580   74.1570  220.0450 N   0  0  0  0  0  0  0  0  0  0  0  0
  143.4070   75.2720  219.5500 C   0  0  0  0  0  0  0  0  0  0  0  0
  144.5350   75.8660  220.1100 O   0  0  0  0  0  0  0  0  0  0  0  0
  142.7340   75.9490  218.4030 C   0  0  0  0  0  0  0  0  0  0  0  0
  141.1270   78.5260  220.1820 C   0  0  0  0  0  0  0  0  0  0  0  0
  138.5060   81.2470  221.7160 C   0  0  0  0  0  0  0  0  0  0  0  0
  137.5310   81.8700  222.7260 C   0  0  0  0  0  0  0  0  0  0  0  0
  135.8594   79.6702  224.6457 H   0  0  0  0  0  0  0  0  0  0  0  0
  135.4330   80.4984  223.1098 H   0  0  0  0  0  0  0  0  0  0  0  0
  136.6496   79.1768  223.1098 H   0  0  0  0  0  0  0  0  0  0  0  0
  138.5801   80.5179  225.5327 H   0  0  0  0  0  0  0  0  0  0  0  0
  138.4813   79.2922  224.1800 H   0  0  0  0  0  0  0  0  0  0  0  0
  139.9899   81.9411  224.1459 H   0  0  0  0  0  0  0  0  0  0  0  0
  140.6918   80.2893  224.1772 H   0  0  0  0  0  0  0  0  0  0  0  0
  140.2389   81.6816  219.1987 H   0  0  0  0  0  0  0  0  0  0  0  0
  140.1253   80.5311  216.9945 H   0  0  0  0  0  0  0  0  0  0  0  0
  140.6627   78.1048  216.8145 H   0  0  0  0  0  0  0  0  0  0  0  0
  138.3421   74.7768  220.5133 H   0  0  0  0  0  0  0  0  0  0  0  0
  138.2401   73.0643  222.3143 H   0  0  0  0  0  0  0  0  0  0  0  0
  141.8668   70.5830  226.2665 H   0  0  0  0  0  0  0  0  0  0  0  0
  141.7547   68.8290  228.0418 H   0  0  0  0  0  0  0  0  0  0  0  0
  140.0047   67.0510  227.9338 H   0  0  0  0  0  0  0  0  0  0  0  0
  138.3786   67.0104  226.0404 H   0  0  0  0  0  0  0  0  0  0  0  0
  138.4923   68.7558  224.2558 H   0  0  0  0  0  0  0  0  0  0  0  0
  142.4986   72.4175  221.9544 H   0  0  0  0  0  0  0  0  0  0  0  0
  144.5930   76.8720  220.2270 H   0  0  0  0  0  0  0  0  0  0  0  0
  143.3368   76.8098  218.0778 H   0  0  0  0  0  0  0  0  0  0  0  0
  142.6293   75.2438  217.5653 H   0  0  0  0  0  0  0  0  0  0  0  0
  141.3824   77.9561  221.0876 H   0  0  0  0  0  0  0  0  0  0  0  0
  138.7393   81.9883  220.9375 H   0  0  0  0  0  0  0  0  0  0  0  0
  138.0311   80.3588  221.2738 H   0  0  0  0  0  0  0  0  0  0  0  0
  137.9376   82.8367  223.0581 H   0  0  0  0  0  0  0  0  0  0  0  0
  136.5605   81.9899  222.2222 H   0  0  0  0  0  0  0  0  0  0  0  0
  1  2  1  0
  2  3  1  0
  3  4  1  0
  4  5  1  0
  5  6  1  0
  6  7  2  0
  6  8  1  0
  8  9  2  0
  9 10  1  0
 10 11  2  0
 11 12  1  0
 12 13  1  0
 13 14  2  0
 14 15  1  0
 15 16  2  0
 16 17  1  0
 17 18  2  0
 18 19  1  0
 19 20  3  0
 20 21  1  0
 21 22  2  0
 22 23  1  0
 23 24  2  0
 24 25  1  0
 25 26  2  0
 18 27  1  0
 27 28  2  0
 28 29  1  0
 29 30  2  0
 30 31  1  0
 30 32  1  0
 12 33  2  0
  5 34  1  0
 34 35  1  0
 35  2  1  0
 33  8  1  0
 32 13  1  0
 28 15  1  0
 26 21  1  0
  1 36  1  0
  1 37  1  0
  1 38  1  0
  3 39  1  0
  3 40  1  0
  4 41  1  0
  4 42  1  0
  9 43  1  0
 10 44  1  0
 11 45  1  0
 16 46  1  0
 17 47  1  0
 22 48  1  0
 23 49  1  0
 24 50  1  0
 25 51  1  0
 26 52  1  0
 27 53  1  0
 31 54  1  0
 32 55  1  0
 32 56  1  0
 33 57  1  0
 34 58  1  0
 34 59  1  0
 35 60  1  0
 35 61  1  0
M  END
>  <UniqueID>  (44) 
37

>  <SMILES>  (44) 
CN1CCN(C(=O)c2cccc(C3=Nc4ccc(C#Cc5ccccc5)cc4N=C(O)C3)c2)CC1

>  <Energy>  (44) 
88.45939302911616

>  <Genealogy>  (44) 
CN1CCN(C(=O)c2cccc(C3=Nc4ccc(C#Cc5ccccc5)cc4N=C(O)C3)c2)CC1 (tautomer)
CN1CCN(C(=O)c2cccc(C3=Nc4ccc(C#Cc5ccccc5)cc4N=C(O)C3)c2)CC1 (3D coordinates assigned)
CN1CCN(C(=O)c2cccc(C3=Nc4ccc(C#Cc5ccccc5)cc4N=C(O)C3)c2)CC1 (nonaromatic ring conformer: 88.45939302911616 kcal/mol)

>  <smiles>  (44) 
CN1CCN(C(=O)c2cccc(C3=Nc4ccc(C#Cc5ccccc5)cc4NC(=O)C3)c2)CC1

>  <score_type>  (44) 
oracle

>  <origin>  (44) 
autodockgpu

>  <m_score__min__energy>  (44) 
-5.4500000000000002

>  <m_primary>  (44) 
energy

>  <meeko>  (44) 
{"free_energy": -5.02, "intermolecular_energy": -8.3, "internal_energy": -1.19, "cluster_size": 4, "cluster_id": 2, "rank_in_cluster": 4}

>  <energy>  (44) 
-5.25

>  <cluster_rmsd>  (44) 
1.42

>  <rmsd>  (44) 
269.32

>  <cluster>  (44) 
2

$$$$
RUYQROVMPDWUPI-ZYMSVLFVNA-N
     RDKit          3D

 61 65  0  0  0  0  0  0  0  0999 V2000
  133.4640   84.1460  230.0500 C   0  0  0  0  0  0  0  0  0  0  0  0
  133.3770   82.6760  230.0740 N   0  0  0  0  0  0  0  0  0  0  0  0
  132.3640   82.1790  229.1040 C   0  0  0  0  0  0  0  0  0  0  0  0
  132.8110   80.9320  228.3340 C   0  0  0  0  0  0  0  0  0  0  0  0
  134.1140   81.1870  227.7130 N   0  0  0  0  0  0  0  0  0  0  0  0
  134.4420   80.5770  226.4500 C   0  0  0  0  0  0  0  0  0  0  0  0
  133.9250   79.4690  226.1380 O   0  0  0  0  0  0  0  0  0  0  0  0
  135.3700   81.2290  225.5020 C   0  0  0  0  0  0  0  0  0  0  0  0
  135.2750   82.6060  225.2480 C   0  0  0  0  0  0  0  0  0  0  0  0
  136.1550   83.2200  224.3570 C   0  0  0  0  0  0  0  0  0  0  0  0
  137.1340   82.4690  223.7050 C   0  0  0  0  0  0  0  0  0  0  0  0
  137.2380   81.0840  223.9330 C   0  0  0  0  0  0  0  0  0  0  0  0
  138.2660   80.2770  223.2310 C   0  0  0  0  0  0  0  0  0  0  0  0
  138.0850   78.9930  223.1130 N   0  0  0  0  0  0  0  0  0  0  0  0
  139.0650   78.0110  222.7370 C   0  0  0  0  0  0  0  0  0  0  0  0
  138.6220   76.9170  221.9790 C   0  0  0  0  0  0  0  0  0  0  0  0
  139.5230   75.9630  221.5040 C   0  0  0  0  0  0  0  0  0  0  0  0
  140.8910   76.1050  221.7570 C   0  0  0  0  0  0  0  0  0  0  0  0
  141.8240   75.1310  221.2550 C   0  0  0  0  0  0  0  0  0  0  0  0
  142.6030   74.3120  220.8370 C   0  0  0  0  0  0  0  0  0  0  0  0
  143.5300   73.3320  220.3350 C   0  0  0  0  0  0  0  0  0  0  0  0
  143.0540   72.1400  219.7700 C   0  0  0  0  0  0  0  0  0  0  0  0
  143.9560   71.1900  219.2790 C   0  0  0  0  0  0  0  0  0  0  0  0
  145.3320   71.4290  219.3480 C   0  0  0  0  0  0  0  0  0  0  0  0
  145.8080   72.6160  219.9120 C   0  0  0  0  0  0  0  0  0  0  0  0
  144.9090   73.5670  220.4070 C   0  0  0  0  0  0  0  0  0  0  0  0
  141.3530   77.2050  222.4880 C   0  0  0  0  0  0  0  0  0  0  0  0
  140.4590   78.1570  222.9960 C   0  0  0  0  0  0  0  0  0  0  0  0
  141.0210   79.2920  223.6790 N   0  0  0  0  0  0  0  0  0  0  0  0
  140.6680   80.5350  223.5400 C   0  0  0  0  0  0  0  0  0  0  0  0
  141.3770   81.5290  224.2090 O   0  0  0  0  0  0  0  0  0  0  0  0
  139.5080   80.9220  222.6890 C   0  0  0  0  0  0  0  0  0  0  0  0
  136.3370   80.4690  224.8230 C   0  0  0  0  0  0  0  0  0  0  0  0
  135.1520   81.8720  228.4920 C   0  0  0  0  0  0  0  0  0  0  0  0
  134.7160   82.0530  229.9530 C   0  0  0  0  0  0  0  0  0  0  0  0
  133.4867   84.5288  231.0810 H   0  0  0  0  0  0  0  0  0  0  0  0
  134.3817   84.4505  229.5256 H   0  0  0  0  0  0  0  0  0  0  0  0
  132.5886   84.5566  229.5256 H   0  0  0  0  0  0  0  0  0  0  0  0
  131.4442   81.9355  229.6560 H   0  0  0  0  0  0  0  0  0  0  0  0
  132.2088   82.9769  228.3629 H   0  0  0  0  0  0  0  0  0  0  0  0
  132.8945   80.0823  229.0275 H   0  0  0  0  0  0  0  0  0  0  0  0
  132.0715   80.6955  227.5548 H   0  0  0  0  0  0  0  0  0  0  0  0
  134.5027   83.2039  225.7541 H   0  0  0  0  0  0  0  0  0  0  0  0
  136.0770   84.3007  224.1674 H   0  0  0  0  0  0  0  0  0  0  0  0
  137.8284   82.9623  223.0089 H   0  0  0  0  0  0  0  0  0  0  0  0
  137.5502   76.8096  221.7560 H   0  0  0  0  0  0  0  0  0  0  0  0
  139.1569   75.0988  220.9302 H   0  0  0  0  0  0  0  0  0  0  0  0
  141.9717   71.9520  219.7129 H   0  0  0  0  0  0  0  0  0  0  0  0
  143.5824   70.2540  218.8382 H   0  0  0  0  0  0  0  0  0  0  0  0
  146.0400   70.6827  218.9584 H   0  0  0  0  0  0  0  0  0  0  0  0
  146.8907   72.8027  219.9668 H   0  0  0  0  0  0  0  0  0  0  0  0
  145.2853   74.4995  220.8528 H   0  0  0  0  0  0  0  0  0  0  0  0
  142.4319   77.3240  222.6662 H   0  0  0  0  0  0  0  0  0  0  0  0
  142.1120   82.0510  223.7440 H   0  0  0  0  0  0  0  0  0  0  0  0
  139.3907   82.0157  222.7011 H   0  0  0  0  0  0  0  0  0  0  0  0
  139.6786   80.5880  221.6549 H   0  0  0  0  0  0  0  0  0  0  0  0
  136.3907   79.3828  224.9883 H   0  0  0  0  0  0  0  0  0  0  0  0
  136.0754   81.2749  228.4638 H   0  0  0  0  0  0  0  0  0  0  0  0
  135.3212   82.8657  228.0517 H   0  0  0  0  0  0  0  0  0  0  0  0
  134.6908   81.0661  230.4382 H   0  0  0  0  0  0  0  0  0  0  0  0
  135.4411   82.7239  230.4369 H   0  0  0  0  0  0  0  0  0  0  0  0
  1  2  1  0
  2  3  1  0
  3  4  1  0
  4  5  1  0
  5  6  1  0
  6  7  2  0
  6  8  1  0
  8  9  2  0
  9 10  1  0
 10 11  2  0
 11 12  1  0
 12 13  1  0
 13 14  2  0
 14 15  1  0
 15 16  2  0
 16 17  1  0
 17 18  2  0
 18 19  1  0
 19 20  3  0
 20 21  1  0
 21 22  2  0
 22 23  1  0
 23 24  2  0
 24 25  1  0
 25 26  2  0
 18 27  1  0
 27 28  2  0
 28 29  1  0
 29 30  2  0
 30 31  1  0
 30 32  1  0
 12 33  2  0
  5 34  1  0
 34 35  1  0
 35  2  1  0
 33  8  1  0
 32 13  1  0
 28 15  1  0
 26 21  1  0
  1 36  1  0
  1 37  1  0
  1 38  1  0
  3 39  1  0
  3 40  1  0
  4 41  1  0
  4 42  1  0
  9 43  1  0
 10 44  1  0
 11 45  1  0
 16 46  1  0
 17 47  1  0
 22 48  1  0
 23 49  1  0
 24 50  1  0
 25 51  1  0
 26 52  1  0
 27 53  1  0
 31 54  1  0
 32 55  1  0
 32 56  1  0
 33 57  1  0
 34 58  1  0
 34 59  1  0
 35 60  1  0
 35 61  1  0
M  END
>  <UniqueID>  (45) 
37

>  <SMILES>  (45) 
CN1CCN(C(=O)c2cccc(C3=Nc4ccc(C#Cc5ccccc5)cc4N=C(O)C3)c2)CC1

>  <Energy>  (45) 
88.45939302911616

>  <Genealogy>  (45) 
CN1CCN(C(=O)c2cccc(C3=Nc4ccc(C#Cc5ccccc5)cc4N=C(O)C3)c2)CC1 (tautomer)
CN1CCN(C(=O)c2cccc(C3=Nc4ccc(C#Cc5ccccc5)cc4N=C(O)C3)c2)CC1 (3D coordinates assigned)
CN1CCN(C(=O)c2cccc(C3=Nc4ccc(C#Cc5ccccc5)cc4N=C(O)C3)c2)CC1 (nonaromatic ring conformer: 88.45939302911616 kcal/mol)

>  <smiles>  (45) 
CN1CCN(C(=O)c2cccc(C3=Nc4ccc(C#Cc5ccccc5)cc4NC(=O)C3)c2)CC1

>  <score_type>  (45) 
oracle

>  <origin>  (45) 
autodockgpu

>  <m_score__min__energy>  (45) 
-5.4500000000000002

>  <m_primary>  (45) 
energy

>  <meeko>  (45) 
{"free_energy": -4.48, "intermolecular_energy": -7.76, "internal_energy": -1.15, "cluster_size": 1, "cluster_id": 10, "rank_in_cluster": 1}

>  <energy>  (45) 
-5.22

>  <cluster_rmsd>  (45) 
1.75

>  <rmsd>  (45) 
269.28

>  <cluster>  (45) 
2

$$$$
RUYQROVMPDWUPI-ZYMSVLFVNA-N
     RDKit          3D

 61 65  0  0  0  0  0  0  0  0999 V2000
  141.7930   78.6320  224.2880 C   0  0  0  0  0  0  0  0  0  0  0  0
  141.5140   80.0350  223.9360 N   0  0  0  0  0  0  0  0  0  0  0  0
  142.5850   80.5960  223.0690 C   0  0  0  0  0  0  0  0  0  0  0  0
  142.0560   81.4710  221.9270 C   0  0  0  0  0  0  0  0  0  0  0  0
  141.0480   80.7230  221.1710 N   0  0  0  0  0  0  0  0  0  0  0  0
  140.9050   80.9360  219.7540 C   0  0  0  0  0  0  0  0  0  0  0  0
  141.2010   82.0580  219.2580 O   0  0  0  0  0  0  0  0  0  0  0  0
  140.4250   79.8600  218.8610 C   0  0  0  0  0  0  0  0  0  0  0  0
  139.4700   80.1330  217.8700 C   0  0  0  0  0  0  0  0  0  0  0  0
  139.0230   79.1170  217.0250 C   0  0  0  0  0  0  0  0  0  0  0  0
  139.5170   77.8180  217.1630 C   0  0  0  0  0  0  0  0  0  0  0  0
  140.4640   77.5200  218.1600 C   0  0  0  0  0  0  0  0  0  0  0  0
  140.9810   76.1380  218.3220 C   0  0  0  0  0  0  0  0  0  0  0  0
  140.1710   75.2100  218.7460 N   0  0  0  0  0  0  0  0  0  0  0  0
  140.2720   74.4690  219.9730 C   0  0  0  0  0  0  0  0  0  0  0  0
  139.0750   74.0370  220.5640 C   0  0  0  0  0  0  0  0  0  0  0  0
  139.0890   73.2440  221.7120 C   0  0  0  0  0  0  0  0  0  0  0  0
  140.3060   72.8450  222.2720 C   0  0  0  0  0  0  0  0  0  0  0  0
  140.3230   72.0130  223.4470 C   0  0  0  0  0  0  0  0  0  0  0  0
  140.3410   71.3150  224.4300 C   0  0  0  0  0  0  0  0  0  0  0  0
  140.3670   70.4810  225.6010 C   0  0  0  0  0  0  0  0  0  0  0  0
  140.7130   71.0270  226.8460 C   0  0  0  0  0  0  0  0  0  0  0  0
  140.7340   70.2140  227.9840 C   0  0  0  0  0  0  0  0  0  0  0  0
  140.4070   68.8580  227.8840 C   0  0  0  0  0  0  0  0  0  0  0  0
  140.0640   68.3120  226.6440 C   0  0  0  0  0  0  0  0  0  0  0  0
  140.0440   69.1210  225.5020 C   0  0  0  0  0  0  0  0  0  0  0  0
  141.5090   73.2450  221.6810 C   0  0  0  0  0  0  0  0  0  0  0  0
  141.5130   74.0640  220.5440 C   0  0  0  0  0  0  0  0  0  0  0  0
  142.7900   74.3750  219.9590 N   0  0  0  0  0  0  0  0  0  0  0  0
  143.1030   75.4530  219.3030 C   0  0  0  0  0  0  0  0  0  0  0  0
  144.0930   76.2950  219.8000 O   0  0  0  0  0  0  0  0  0  0  0  0
  142.4180   75.8190  218.0290 C   0  0  0  0  0  0  0  0  0  0  0  0
  140.9000   78.5470  219.0180 C   0  0  0  0  0  0  0  0  0  0  0  0
  140.0460   79.9390  221.9030 C   0  0  0  0  0  0  0  0  0  0  0  0
  140.1370   80.1980  223.4140 C   0  0  0  0  0  0  0  0  0  0  0  0
  141.8141   78.5258  225.3827 H   0  0  0  0  0  0  0  0  0  0  0  0
  141.0057   77.9861  223.8721 H   0  0  0  0  0  0  0  0  0  0  0  0
  142.7675   78.3364  223.8721 H   0  0  0  0  0  0  0  0  0  0  0  0
  143.2536   81.2066  223.6936 H   0  0  0  0  0  0  0  0  0  0  0  0
  143.1053   79.7438  222.6074 H   0  0  0  0  0  0  0  0  0  0  0  0
  141.6020   82.3827  222.3426 H   0  0  0  0  0  0  0  0  0  0  0  0
  142.8859   81.7484  221.2604 H   0  0  0  0  0  0  0  0  0  0  0  0
  139.0721   81.1525  217.7589 H   0  0  0  0  0  0  0  0  0  0  0  0
  138.2783   79.3399  216.2467 H   0  0  0  0  0  0  0  0  0  0  0  0
  139.1639   77.0238  216.4888 H   0  0  0  0  0  0  0  0  0  0  0  0
  138.1130   74.3273  220.1165 H   0  0  0  0  0  0  0  0  0  0  0  0
  138.1418   72.9327  222.1766 H   0  0  0  0  0  0  0  0  0  0  0  0
  140.9677   72.0940  226.9273 H   0  0  0  0  0  0  0  0  0  0  0  0
  141.0082   70.6421  228.9595 H   0  0  0  0  0  0  0  0  0  0  0  0
  140.4197   68.2214  228.7810 H   0  0  0  0  0  0  0  0  0  0  0  0
  139.8093   67.2448  226.5654 H   0  0  0  0  0  0  0  0  0  0  0  0
  139.7747   68.6892  224.5268 H   0  0  0  0  0  0  0  0  0  0  0  0
  142.4639   72.9125  222.1142 H   0  0  0  0  0  0  0  0  0  0  0  0
  144.1450   77.2680  219.5150 H   0  0  0  0  0  0  0  0  0  0  0  0
  142.9082   76.6984  217.5860 H   0  0  0  0  0  0  0  0  0  0  0  0
  142.4757   74.9791  217.3210 H   0  0  0  0  0  0  0  0  0  0  0  0
  141.6191   78.3197  219.8187 H   0  0  0  0  0  0  0  0  0  0  0  0
  139.0426   80.2195  221.5502 H   0  0  0  0  0  0  0  0  0  0  0  0
  140.2359   78.8711  221.7196 H   0  0  0  0  0  0  0  0  0  0  0  0
  139.8025   81.2262  223.6164 H   0  0  0  0  0  0  0  0  0  0  0  0
  139.4986   79.4580  223.9188 H   0  0  0  0  0  0  0  0  0  0  0  0
  1  2  1  0
  2  3  1  0
  3  4  1  0
  4  5  1  0
  5  6  1  0
  6  7  2  0
  6  8  1  0
  8  9  2  0
  9 10  1  0
 10 11  2  0
 11 12  1  0
 12 13  1  0
 13 14  2  0
 14 15  1  0
 15 16  2  0
 16 17  1  0
 17 18  2  0
 18 19  1  0
 19 20  3  0
 20 21  1  0
 21 22  2  0
 22 23  1  0
 23 24  2  0
 24 25  1  0
 25 26  2  0
 18 27  1  0
 27 28  2  0
 28 29  1  0
 29 30  2  0
 30 31  1  0
 30 32  1  0
 12 33  2  0
  5 34  1  0
 34 35  1  0
 35  2  1  0
 33  8  1  0
 32 13  1  0
 28 15  1  0
 26 21  1  0
  1 36  1  0
  1 37  1  0
  1 38  1  0
  3 39  1  0
  3 40  1  0
  4 41  1  0
  4 42  1  0
  9 43  1  0
 10 44  1  0
 11 45  1  0
 16 46  1  0
 17 47  1  0
 22 48  1  0
 23 49  1  0
 24 50  1  0
 25 51  1  0
 26 52  1  0
 27 53  1  0
 31 54  1  0
 32 55  1  0
 32 56  1  0
 33 57  1  0
 34 58  1  0
 34 59  1  0
 35 60  1  0
 35 61  1  0
M  END
>  <UniqueID>  (46) 
37

>  <SMILES>  (46) 
CN1CCN(C(=O)c2cccc(C3=Nc4ccc(C#Cc5ccccc5)cc4N=C(O)C3)c2)CC1

>  <Energy>  (46) 
88.45939302911616

>  <Genealogy>  (46) 
CN1CCN(C(=O)c2cccc(C3=Nc4ccc(C#Cc5ccccc5)cc4N=C(O)C3)c2)CC1 (tautomer)
CN1CCN(C(=O)c2cccc(C3=Nc4ccc(C#Cc5ccccc5)cc4N=C(O)C3)c2)CC1 (3D coordinates assigned)
CN1CCN(C(=O)c2cccc(C3=Nc4ccc(C#Cc5ccccc5)cc4N=C(O)C3)c2)CC1 (nonaromatic ring conformer: 88.45939302911616 kcal/mol)

>  <smiles>  (46) 
CN1CCN(C(=O)c2cccc(C3=Nc4ccc(C#Cc5ccccc5)cc4NC(=O)C3)c2)CC1

>  <score_type>  (46) 
oracle

>  <origin>  (46) 
autodockgpu

>  <m_score__min__energy>  (46) 
-5.4500000000000002

>  <m_primary>  (46) 
energy

>  <meeko>  (46) 
{"free_energy": -5.39, "intermolecular_energy": -8.67, "internal_energy": -1.3, "cluster_size": 4, "cluster_id": 2, "rank_in_cluster": 1}

>  <energy>  (46) 
-5.02

>  <cluster_rmsd>  (46) 
1.48

>  <rmsd>  (46) 
269.35

>  <cluster>  (46) 
2

$$$$
RUYQROVMPDWUPI-ZYMSVLFVNA-N
     RDKit          3D

 61 65  0  0  0  0  0  0  0  0999 V2000
  139.9600   71.8750  228.6590 C   0  0  0  0  0  0  0  0  0  0  0  0
  140.6910   70.6860  228.1890 N   0  0  0  0  0  0  0  0  0  0  0  0
  139.8560   69.4600  228.3030 C   0  0  0  0  0  0  0  0  0  0  0  0
  139.9800   68.5180  227.1000 C   0  0  0  0  0  0  0  0  0  0  0  0
  139.7200   69.2690  225.8680 N   0  0  0  0  0  0  0  0  0  0  0  0
  139.0890   68.6200  224.7480 C   0  0  0  0  0  0  0  0  0  0  0  0
  139.2400   67.3790  224.5790 O   0  0  0  0  0  0  0  0  0  0  0  0
  138.2560   69.3790  223.7920 C   0  0  0  0  0  0  0  0  0  0  0  0
  137.0350   68.8540  223.3400 C   0  0  0  0  0  0  0  0  0  0  0  0
  136.2480   69.5750  222.4410 C   0  0  0  0  0  0  0  0  0  0  0  0
  136.6720   70.8220  221.9790 C   0  0  0  0  0  0  0  0  0  0  0  0
  137.8990   71.3610  222.4070 C   0  0  0  0  0  0  0  0  0  0  0  0
  138.3620   72.6790  221.9060 C   0  0  0  0  0  0  0  0  0  0  0  0
  137.7620   73.7560  222.3260 N   0  0  0  0  0  0  0  0  0  0  0  0
  138.1340   75.1170  222.0490 C   0  0  0  0  0  0  0  0  0  0  0  0
  137.1100   76.0760  222.0480 C   0  0  0  0  0  0  0  0  0  0  0  0
  137.3980   77.4290  221.8680 C   0  0  0  0  0  0  0  0  0  0  0  0
  138.7220   77.8500  221.7150 C   0  0  0  0  0  0  0  0  0  0  0  0
  139.0230   79.2470  221.5460 C   0  0  0  0  0  0  0  0  0  0  0  0
  139.2700   80.4180  221.4040 C   0  0  0  0  0  0  0  0  0  0  0  0
  139.5610   81.8170  221.2310 C   0  0  0  0  0  0  0  0  0  0  0  0
  138.6900   82.7850  221.7490 C   0  0  0  0  0  0  0  0  0  0  0  0
  138.9770   84.1440  221.5840 C   0  0  0  0  0  0  0  0  0  0  0  0
  140.1340   84.5380  220.9050 C   0  0  0  0  0  0  0  0  0  0  0  0
  141.0030   83.5750  220.3870 C   0  0  0  0  0  0  0  0  0  0  0  0
  140.7180   82.2140  220.5470 C   0  0  0  0  0  0  0  0  0  0  0  0
  139.7580   76.9090  221.7410 C   0  0  0  0  0  0  0  0  0  0  0  0
  139.4840   75.5430  221.8930 C   0  0  0  0  0  0  0  0  0  0  0  0
  140.6100   74.6510  221.9760 N   0  0  0  0  0  0  0  0  0  0  0  0
  140.6560   73.4190  221.5630 C   0  0  0  0  0  0  0  0  0  0  0  0
  141.8290   72.6860  221.7200 O   0  0  0  0  0  0  0  0  0  0  0  0
  139.4830   72.7700  220.9130 C   0  0  0  0  0  0  0  0  0  0  0  0
  138.6950   70.6210  223.3030 C   0  0  0  0  0  0  0  0  0  0  0  0
  140.3130   70.6020  225.7090 C   0  0  0  0  0  0  0  0  0  0  0  0
  141.2890   70.9130  226.8520 C   0  0  0  0  0  0  0  0  0  0  0  0
  139.9514   71.8891  229.7589 H   0  0  0  0  0  0  0  0  0  0  0  0
  140.4565   72.7824  228.2846 H   0  0  0  0  0  0  0  0  0  0  0  0
  138.9262   71.8416  228.2846 H   0  0  0  0  0  0  0  0  0  0  0  0
  140.1636   68.9127  229.2062 H   0  0  0  0  0  0  0  0  0  0  0  0
  138.8070   69.7877  228.3488 H   0  0  0  0  0  0  0  0  0  0  0  0
  140.9956   68.0968  227.0662 H   0  0  0  0  0  0  0  0  0  0  0  0
  139.2495   67.7010  227.1948 H   0  0  0  0  0  0  0  0  0  0  0  0
  136.6970   67.8696  223.6961 H   0  0  0  0  0  0  0  0  0  0  0  0
  135.2901   69.1591  222.0952 H   0  0  0  0  0  0  0  0  0  0  0  0
  136.0426   71.3870  221.2757 H   0  0  0  0  0  0  0  0  0  0  0  0
  136.0670   75.7570  222.1910 H   0  0  0  0  0  0  0  0  0  0  0  0
  136.5816   78.1659  221.8464 H   0  0  0  0  0  0  0  0  0  0  0  0
  137.7807   82.4761  222.2853 H   0  0  0  0  0  0  0  0  0  0  0  0
  138.2919   84.9034  221.9888 H   0  0  0  0  0  0  0  0  0  0  0  0
  140.3600   85.6071  220.7787 H   0  0  0  0  0  0  0  0  0  0  0  0
  141.9126   83.8866  219.8526 H   0  0  0  0  0  0  0  0  0  0  0  0
  141.4017   81.4565  220.1361 H   0  0  0  0  0  0  0  0  0  0  0  0
  140.8003   77.2459  221.6409 H   0  0  0  0  0  0  0  0  0  0  0  0
  142.0040   71.8530  221.1670 H   0  0  0  0  0  0  0  0  0  0  0  0
  139.1620   73.3697  220.0485 H   0  0  0  0  0  0  0  0  0  0  0  0
  139.7588   71.7616  220.5708 H   0  0  0  0  0  0  0  0  0  0  0  0
  139.6693   71.0191  223.6228 H   0  0  0  0  0  0  0  0  0  0  0  0
  140.8552   70.6422  224.7528 H   0  0  0  0  0  0  0  0  0  0  0  0
  139.5049   71.3481  225.7271 H   0  0  0  0  0  0  0  0  0  0  0  0
  142.1726   70.2663  226.7467 H   0  0  0  0  0  0  0  0  0  0  0  0
  141.5555   71.9780  226.7824 H   0  0  0  0  0  0  0  0  0  0  0  0
  1  2  1  0
  2  3  1  0
  3  4  1  0
  4  5  1  0
  5  6  1  0
  6  7  2  0
  6  8  1  0
  8  9  2  0
  9 10  1  0
 10 11  2  0
 11 12  1  0
 12 13  1  0
 13 14  2  0
 14 15  1  0
 15 16  2  0
 16 17  1  0
 17 18  2  0
 18 19  1  0
 19 20  3  0
 20 21  1  0
 21 22  2  0
 22 23  1  0
 23 24  2  0
 24 25  1  0
 25 26  2  0
 18 27  1  0
 27 28  2  0
 28 29  1  0
 29 30  2  0
 30 31  1  0
 30 32  1  0
 12 33  2  0
  5 34  1  0
 34 35  1  0
 35  2  1  0
 33  8  1  0
 32 13  1  0
 28 15  1  0
 26 21  1  0
  1 36  1  0
  1 37  1  0
  1 38  1  0
  3 39  1  0
  3 40  1  0
  4 41  1  0
  4 42  1  0
  9 43  1  0
 10 44  1  0
 11 45  1  0
 16 46  1  0
 17 47  1  0
 22 48  1  0
 23 49  1  0
 24 50  1  0
 25 51  1  0
 26 52  1  0
 27 53  1  0
 31 54  1  0
 32 55  1  0
 32 56  1  0
 33 57  1  0
 34 58  1  0
 34 59  1  0
 35 60  1  0
 35 61  1  0
M  END
>  <UniqueID>  (47) 
37

>  <SMILES>  (47) 
CN1CCN(C(=O)c2cccc(C3=Nc4ccc(C#Cc5ccccc5)cc4N=C(O)C3)c2)CC1

>  <Energy>  (47) 
88.45939302911616

>  <Genealogy>  (47) 
CN1CCN(C(=O)c2cccc(C3=Nc4ccc(C#Cc5ccccc5)cc4N=C(O)C3)c2)CC1 (tautomer)
CN1CCN(C(=O)c2cccc(C3=Nc4ccc(C#Cc5ccccc5)cc4N=C(O)C3)c2)CC1 (3D coordinates assigned)
CN1CCN(C(=O)c2cccc(C3=Nc4ccc(C#Cc5ccccc5)cc4N=C(O)C3)c2)CC1 (nonaromatic ring conformer: 88.45939302911616 kcal/mol)

>  <smiles>  (47) 
CN1CCN(C(=O)c2cccc(C3=Nc4ccc(C#Cc5ccccc5)cc4NC(=O)C3)c2)CC1

>  <score_type>  (47) 
oracle

>  <origin>  (47) 
autodockgpu

>  <m_score__min__energy>  (47) 
-5.4500000000000002

>  <m_primary>  (47) 
energy

>  <meeko>  (47) 
{"free_energy": -5.3, "intermolecular_energy": -8.59, "internal_energy": -0.98, "cluster_size": 1, "cluster_id": 3, "rank_in_cluster": 1}

>  <energy>  (47) 
-5.3

>  <cluster_rmsd>  (47) 
0.0

>  <rmsd>  (47) 
269.18

>  <cluster>  (47) 
3

$$$$
RUYQROVMPDWUPI-ZYMSVLFVNA-N
     RDKit          3D

 61 65  0  0  0  0  0  0  0  0999 V2000
  140.2860   71.8880  227.8510 C   0  0  0  0  0  0  0  0  0  0  0  0
  140.5870   70.4800  227.5420 N   0  0  0  0  0  0  0  0  0  0  0  0
  139.3410   69.6750  227.4260 C   0  0  0  0  0  0  0  0  0  0  0  0
  139.3610   68.6720  226.2670 C   0  0  0  0  0  0  0  0  0  0  0  0
  139.7000   69.3750  225.0260 N   0  0  0  0  0  0  0  0  0  0  0  0
  139.1400   68.9350  223.7740 C   0  0  0  0  0  0  0  0  0  0  0  0
  138.8340   67.7220  223.6180 O   0  0  0  0  0  0  0  0  0  0  0  0
  138.9070   69.8840  222.6640 C   0  0  0  0  0  0  0  0  0  0  0  0
  138.8430   69.4250  221.3390 C   0  0  0  0  0  0  0  0  0  0  0  0
  138.6170   70.3210  220.2940 C   0  0  0  0  0  0  0  0  0  0  0  0
  138.4590   71.6830  220.5560 C   0  0  0  0  0  0  0  0  0  0  0  0
  138.5340   72.1670  221.8760 C   0  0  0  0  0  0  0  0  0  0  0  0
  138.3830   73.6150  222.1590 C   0  0  0  0  0  0  0  0  0  0  0  0
  139.4540   74.3380  222.3250 N   0  0  0  0  0  0  0  0  0  0  0  0
  139.8720   75.4600  221.5300 C   0  0  0  0  0  0  0  0  0  0  0  0
  141.2410   75.5700  221.2440 C   0  0  0  0  0  0  0  0  0  0  0  0
  141.7180   76.5840  220.4120 C   0  0  0  0  0  0  0  0  0  0  0  0
  140.8270   77.4880  219.8270 C   0  0  0  0  0  0  0  0  0  0  0  0
  141.3150   78.5250  218.9560 C   0  0  0  0  0  0  0  0  0  0  0  0
  141.7260   79.3890  218.2240 C   0  0  0  0  0  0  0  0  0  0  0  0
  142.2130   80.4200  217.3460 C   0  0  0  0  0  0  0  0  0  0  0  0
  141.9500   80.3540  215.9700 C   0  0  0  0  0  0  0  0  0  0  0  0
  142.4210   81.3590  215.1190 C   0  0  0  0  0  0  0  0  0  0  0  0
  143.1510   82.4330  215.6390 C   0  0  0  0  0  0  0  0  0  0  0  0
  143.4150   82.5000  217.0100 C   0  0  0  0  0  0  0  0  0  0  0  0
  142.9480   81.4950  217.8640 C   0  0  0  0  0  0  0  0  0  0  0  0
  139.4560   77.3760  220.0810 C   0  0  0  0  0  0  0  0  0  0  0  0
  138.9620   76.3810  220.9360 C   0  0  0  0  0  0  0  0  0  0  0  0
  137.5340   76.2930  221.0900 N   0  0  0  0  0  0  0  0  0  0  0  0
  136.8270   75.2050  221.1660 C   0  0  0  0  0  0  0  0  0  0  0  0
  135.8610   74.9440  220.1980 O   0  0  0  0  0  0  0  0  0  0  0  0
  137.0210   74.2340  222.2810 C   0  0  0  0  0  0  0  0  0  0  0  0
  138.7770   71.2580  222.9240 C   0  0  0  0  0  0  0  0  0  0  0  0
  140.7810   70.3680  225.0420 C   0  0  0  0  0  0  0  0  0  0  0  0
  141.5130   70.3650  226.3910 C   0  0  0  0  0  0  0  0  0  0  0  0
  140.2565   72.0258  228.9419 H   0  0  0  0  0  0  0  0  0  0  0  0
  141.0666   72.5328  227.4209 H   0  0  0  0  0  0  0  0  0  0  0  0
  139.3100   72.1572  227.4209 H   0  0  0  0  0  0  0  0  0  0  0  0
  139.1983   69.1188  228.3642 H   0  0  0  0  0  0  0  0  0  0  0  0
  138.5203   70.3799  227.2270 H   0  0  0  0  0  0  0  0  0  0  0  0
  140.1131   67.8944  226.4664 H   0  0  0  0  0  0  0  0  0  0  0  0
  138.3709   68.2032  226.1672 H   0  0  0  0  0  0  0  0  0  0  0  0
  138.9716   68.3540  221.1238 H   0  0  0  0  0  0  0  0  0  0  0  0
  138.5631   69.9526  219.2589 H   0  0  0  0  0  0  0  0  0  0  0  0
  138.2749   72.3819  219.7267 H   0  0  0  0  0  0  0  0  0  0  0  0
  141.9470   74.8484  221.6808 H   0  0  0  0  0  0  0  0  0  0  0  0
  142.7969   76.6718  220.2164 H   0  0  0  0  0  0  0  0  0  0  0  0
  141.3733   79.5118  215.5601 H   0  0  0  0  0  0  0  0  0  0  0  0
  142.2172   81.3048  214.0394 H   0  0  0  0  0  0  0  0  0  0  0  0
  143.5173   83.2248  214.9690 H   0  0  0  0  0  0  0  0  0  0  0  0
  143.9906   83.3439  217.4180 H   0  0  0  0  0  0  0  0  0  0  0  0
  143.1578   81.5486  218.9425 H   0  0  0  0  0  0  0  0  0  0  0  0
  138.7564   78.0779  219.6036 H   0  0  0  0  0  0  0  0  0  0  0  0
  135.6570   75.6180  219.4680 H   0  0  0  0  0  0  0  0  0  0  0  0
  136.9391   74.7580  223.2447 H   0  0  0  0  0  0  0  0  0  0  0  0
  136.2508   73.4503  222.2294 H   0  0  0  0  0  0  0  0  0  0  0  0
  138.8658   71.6278  223.9562 H   0  0  0  0  0  0  0  0  0  0  0  0
  141.4989   70.1307  224.2430 H   0  0  0  0  0  0  0  0  0  0  0  0
  140.3429   71.3645  224.8841 H   0  0  0  0  0  0  0  0  0  0  0  0
  142.0759   69.4245  226.4843 H   0  0  0  0  0  0  0  0  0  0  0  0
  142.1791   71.2402  226.4106 H   0  0  0  0  0  0  0  0  0  0  0  0
  1  2  1  0
  2  3  1  0
  3  4  1  0
  4  5  1  0
  5  6  1  0
  6  7  2  0
  6  8  1  0
  8  9  2  0
  9 10  1  0
 10 11  2  0
 11 12  1  0
 12 13  1  0
 13 14  2  0
 14 15  1  0
 15 16  2  0
 16 17  1  0
 17 18  2  0
 18 19  1  0
 19 20  3  0
 20 21  1  0
 21 22  2  0
 22 23  1  0
 23 24  2  0
 24 25  1  0
 25 26  2  0
 18 27  1  0
 27 28  2  0
 28 29  1  0
 29 30  2  0
 30 31  1  0
 30 32  1  0
 12 33  2  0
  5 34  1  0
 34 35  1  0
 35  2  1  0
 33  8  1  0
 32 13  1  0
 28 15  1  0
 26 21  1  0
  1 36  1  0
  1 37  1  0
  1 38  1  0
  3 39  1  0
  3 40  1  0
  4 41  1  0
  4 42  1  0
  9 43  1  0
 10 44  1  0
 11 45  1  0
 16 46  1  0
 17 47  1  0
 22 48  1  0
 23 49  1  0
 24 50  1  0
 25 51  1  0
 26 52  1  0
 27 53  1  0
 31 54  1  0
 32 55  1  0
 32 56  1  0
 33 57  1  0
 34 58  1  0
 34 59  1  0
 35 60  1  0
 35 61  1  0
M  END
>  <UniqueID>  (48) 
37

>  <SMILES>  (48) 
CN1CCN(C(=O)c2cccc(C3=Nc4ccc(C#Cc5ccccc5)cc4N=C(O)C3)c2)CC1

>  <Energy>  (48) 
88.45939302911616

>  <Genealogy>  (48) 
CN1CCN(C(=O)c2cccc(C3=Nc4ccc(C#Cc5ccccc5)cc4N=C(O)C3)c2)CC1 (tautomer)
CN1CCN(C(=O)c2cccc(C3=Nc4ccc(C#Cc5ccccc5)cc4N=C(O)C3)c2)CC1 (3D coordinates assigned)
CN1CCN(C(=O)c2cccc(C3=Nc4ccc(C#Cc5ccccc5)cc4N=C(O)C3)c2)CC1 (nonaromatic ring conformer: 88.45939302911616 kcal/mol)

>  <smiles>  (48) 
CN1CCN(C(=O)c2cccc(C3=Nc4ccc(C#Cc5ccccc5)cc4NC(=O)C3)c2)CC1

>  <score_type>  (48) 
oracle

>  <origin>  (48) 
autodockgpu

>  <m_score__min__energy>  (48) 
-5.4500000000000002

>  <m_primary>  (48) 
energy

>  <meeko>  (48) 
{"free_energy": -4.3, "intermolecular_energy": -7.58, "internal_energy": -1.16, "cluster_size": 1, "cluster_id": 12, "rank_in_cluster": 1}

>  <energy>  (48) 
-5.27

>  <cluster_rmsd>  (48) 
0.0

>  <rmsd>  (48) 
270.08

>  <cluster>  (48) 
4

$$$$
RUYQROVMPDWUPI-ZYMSVLFVNA-N
     RDKit          3D

 61 65  0  0  0  0  0  0  0  0999 V2000
  143.1400   68.3200  217.5370 C   0  0  0  0  0  0  0  0  0  0  0  0
  143.9420   68.6100  218.7380 N   0  0  0  0  0  0  0  0  0  0  0  0
  145.3020   69.0910  218.3750 C   0  0  0  0  0  0  0  0  0  0  0  0
  145.7960   70.2530  219.2440 C   0  0  0  0  0  0  0  0  0  0  0  0
  144.7950   71.3230  219.2350 N   0  0  0  0  0  0  0  0  0  0  0  0
  145.2100   72.6990  219.3230 C   0  0  0  0  0  0  0  0  0  0  0  0
  146.2800   72.9910  219.9250 O   0  0  0  0  0  0  0  0  0  0  0  0
  144.4120   73.7820  218.7110 C   0  0  0  0  0  0  0  0  0  0  0  0
  144.6640   74.1930  217.3920 C   0  0  0  0  0  0  0  0  0  0  0  0
  143.9050   75.2110  216.8150 C   0  0  0  0  0  0  0  0  0  0  0  0
  142.8920   75.8350  217.5460 C   0  0  0  0  0  0  0  0  0  0  0  0
  142.6320   75.4490  218.8740 C   0  0  0  0  0  0  0  0  0  0  0  0
  141.5680   76.1190  219.6610 C   0  0  0  0  0  0  0  0  0  0  0  0
  141.7180   77.3730  219.9800 N   0  0  0  0  0  0  0  0  0  0  0  0
  141.0240   78.0910  221.0140 C   0  0  0  0  0  0  0  0  0  0  0  0
  140.7820   79.4560  220.7980 C   0  0  0  0  0  0  0  0  0  0  0  0
  140.0450   80.2060  221.7150 C   0  0  0  0  0  0  0  0  0  0  0  0
  139.5120   79.5940  222.8530 C   0  0  0  0  0  0  0  0  0  0  0  0
  138.7380   80.3620  223.7930 C   0  0  0  0  0  0  0  0  0  0  0  0
  138.0860   81.0030  224.5780 C   0  0  0  0  0  0  0  0  0  0  0  0
  137.3040   81.7700  225.5110 C   0  0  0  0  0  0  0  0  0  0  0  0
  136.9030   83.0740  225.1880 C   0  0  0  0  0  0  0  0  0  0  0  0
  136.1390   83.8150  226.0960 C   0  0  0  0  0  0  0  0  0  0  0  0
  135.7720   83.2570  227.3240 C   0  0  0  0  0  0  0  0  0  0  0  0
  136.1730   81.9580  227.6490 C   0  0  0  0  0  0  0  0  0  0  0  0
  136.9390   81.2140  226.7450 C   0  0  0  0  0  0  0  0  0  0  0  0
  139.7210   78.2270  223.0710 C   0  0  0  0  0  0  0  0  0  0  0  0
  140.4830   77.4650  222.1740 C   0  0  0  0  0  0  0  0  0  0  0  0
  140.5930   76.0550  222.4360 N   0  0  0  0  0  0  0  0  0  0  0  0
  140.4420   75.0910  221.5770 C   0  0  0  0  0  0  0  0  0  0  0  0
  140.3750   73.7760  222.0250 O   0  0  0  0  0  0  0  0  0  0  0  0
  140.3520   75.3610  220.1070 C   0  0  0  0  0  0  0  0  0  0  0  0
  143.4120   74.4300  219.4550 C   0  0  0  0  0  0  0  0  0  0  0  0
  143.3760   70.9720  219.3690 C   0  0  0  0  0  0  0  0  0  0  0  0
  143.2040   69.4790  219.6840 C   0  0  0  0  0  0  0  0  0  0  0  0
  142.1452   67.9603  217.8385 H   0  0  0  0  0  0  0  0  0  0  0  0
  143.0325   69.2362  216.9378 H   0  0  0  0  0  0  0  0  0  0  0  0
  143.6434   67.5470  216.9378 H   0  0  0  0  0  0  0  0  0  0  0  0
  146.0068   68.2532  218.4817 H   0  0  0  0  0  0  0  0  0  0  0  0
  145.2465   69.4631  217.3413 H   0  0  0  0  0  0  0  0  0  0  0  0
  145.9493   69.9017  220.2751 H   0  0  0  0  0  0  0  0  0  0  0  0
  146.7471   70.6343  218.8440 H   0  0  0  0  0  0  0  0  0  0  0  0
  145.4636   73.7099  216.8113 H   0  0  0  0  0  0  0  0  0  0  0  0
  144.1053   75.5237  215.7796 H   0  0  0  0  0  0  0  0  0  0  0  0
  142.2940   76.6327  217.0812 H   0  0  0  0  0  0  0  0  0  0  0  0
  141.1785   79.9412  219.8939 H   0  0  0  0  0  0  0  0  0  0  0  0
  139.8832   81.2802  221.5422 H   0  0  0  0  0  0  0  0  0  0  0  0
  137.1889   83.5142  224.2213 H   0  0  0  0  0  0  0  0  0  0  0  0
  135.8264   84.8389  225.8431 H   0  0  0  0  0  0  0  0  0  0  0  0
  135.1677   83.8401  228.0345 H   0  0  0  0  0  0  0  0  0  0  0  0
  135.8860   81.5202  228.6165 H   0  0  0  0  0  0  0  0  0  0  0  0
  137.2549   80.1923  227.0027 H   0  0  0  0  0  0  0  0  0  0  0  0
  139.2820   77.7448  223.9569 H   0  0  0  0  0  0  0  0  0  0  0  0
  139.7230   73.5030  222.7530 H   0  0  0  0  0  0  0  0  0  0  0  0
  140.2945   74.4072  219.5621 H   0  0  0  0  0  0  0  0  0  0  0  0
  139.4517   75.9578  219.8988 H   0  0  0  0  0  0  0  0  0  0  0  0
  143.2364   74.1389  220.5012 H   0  0  0  0  0  0  0  0  0  0  0  0
  142.9346   71.5644  220.1840 H   0  0  0  0  0  0  0  0  0  0  0  0
  142.8706   71.1889  218.4163 H   0  0  0  0  0  0  0  0  0  0  0  0
  143.5758   69.2882  220.7015 H   0  0  0  0  0  0  0  0  0  0  0  0
  142.1343   69.2395  219.5923 H   0  0  0  0  0  0  0  0  0  0  0  0
  1  2  1  0
  2  3  1  0
  3  4  1  0
  4  5  1  0
  5  6  1  0
  6  7  2  0
  6  8  1  0
  8  9  2  0
  9 10  1  0
 10 11  2  0
 11 12  1  0
 12 13  1  0
 13 14  2  0
 14 15  1  0
 15 16  2  0
 16 17  1  0
 17 18  2  0
 18 19  1  0
 19 20  3  0
 20 21  1  0
 21 22  2  0
 22 23  1  0
 23 24  2  0
 24 25  1  0
 25 26  2  0
 18 27  1  0
 27 28  2  0
 28 29  1  0
 29 30  2  0
 30 31  1  0
 30 32  1  0
 12 33  2  0
  5 34  1  0
 34 35  1  0
 35  2  1  0
 33  8  1  0
 32 13  1  0
 28 15  1  0
 26 21  1  0
  1 36  1  0
  1 37  1  0
  1 38  1  0
  3 39  1  0
  3 40  1  0
  4 41  1  0
  4 42  1  0
  9 43  1  0
 10 44  1  0
 11 45  1  0
 16 46  1  0
 17 47  1  0
 22 48  1  0
 23 49  1  0
 24 50  1  0
 25 51  1  0
 26 52  1  0
 27 53  1  0
 31 54  1  0
 32 55  1  0
 32 56  1  0
 33 57  1  0
 34 58  1  0
 34 59  1  0
 35 60  1  0
 35 61  1  0
M  END
>  <UniqueID>  (49) 
37

>  <SMILES>  (49) 
CN1CCN(C(=O)c2cccc(C3=Nc4ccc(C#Cc5ccccc5)cc4N=C(O)C3)c2)CC1

>  <Energy>  (49) 
88.45939302911616

>  <Genealogy>  (49) 
CN1CCN(C(=O)c2cccc(C3=Nc4ccc(C#Cc5ccccc5)cc4N=C(O)C3)c2)CC1 (tautomer)
CN1CCN(C(=O)c2cccc(C3=Nc4ccc(C#Cc5ccccc5)cc4N=C(O)C3)c2)CC1 (3D coordinates assigned)
CN1CCN(C(=O)c2cccc(C3=Nc4ccc(C#Cc5ccccc5)cc4N=C(O)C3)c2)CC1 (nonaromatic ring conformer: 88.45939302911616 kcal/mol)

>  <smiles>  (49) 
CN1CCN(C(=O)c2cccc(C3=Nc4ccc(C#Cc5ccccc5)cc4NC(=O)C3)c2)CC1

>  <score_type>  (49) 
oracle

>  <origin>  (49) 
autodockgpu

>  <m_score__min__energy>  (49) 
-5.4500000000000002

>  <m_primary>  (49) 
energy

>  <meeko>  (49) 
{"free_energy": -5.13, "intermolecular_energy": -8.42, "internal_energy": -1.18, "cluster_size": 2, "cluster_id": 5, "rank_in_cluster": 2}

>  <energy>  (49) 
-4.88

>  <cluster_rmsd>  (49) 
1.4

>  <rmsd>  (49) 
270.19

>  <cluster>  (49) 
4

$$$$
RUYQROVMPDWUPI-ZYMSVLFVNA-N
     RDKit          3D

 61 65  0  0  0  0  0  0  0  0999 V2000
  144.2660   75.7760  213.9910 C   0  0  0  0  0  0  0  0  0  0  0  0
  145.1790   74.6700  214.3280 N   0  0  0  0  0  0  0  0  0  0  0  0
  146.1880   75.0930  215.3360 C   0  0  0  0  0  0  0  0  0  0  0  0
  146.4590   74.0380  216.4150 C   0  0  0  0  0  0  0  0  0  0  0  0
  145.1890   73.6280  217.0210 N   0  0  0  0  0  0  0  0  0  0  0  0
  145.1410   73.2540  218.4100 C   0  0  0  0  0  0  0  0  0  0  0  0
  146.1630   72.7600  218.9600 O   0  0  0  0  0  0  0  0  0  0  0  0
  143.9150   73.4480  219.2150 C   0  0  0  0  0  0  0  0  0  0  0  0
  143.6480   72.6160  220.3130 C   0  0  0  0  0  0  0  0  0  0  0  0
  142.4930   72.8040  221.0740 C   0  0  0  0  0  0  0  0  0  0  0  0
  141.5910   73.8170  220.7440 C   0  0  0  0  0  0  0  0  0  0  0  0
  141.8320   74.6530  219.6380 C   0  0  0  0  0  0  0  0  0  0  0  0
  140.8690   75.7210  219.2730 C   0  0  0  0  0  0  0  0  0  0  0  0
  139.6800   75.7030  219.8050 N   0  0  0  0  0  0  0  0  0  0  0  0
  139.0920   76.7100  220.6450 C   0  0  0  0  0  0  0  0  0  0  0  0
  138.3290   76.2710  221.7380 C   0  0  0  0  0  0  0  0  0  0  0  0
  137.7930   77.1830  222.6480 C   0  0  0  0  0  0  0  0  0  0  0  0
  138.0370   78.5510  222.4960 C   0  0  0  0  0  0  0  0  0  0  0  0
  137.4980   79.4920  223.4420 C   0  0  0  0  0  0  0  0  0  0  0  0
  137.0460   80.2820  224.2320 C   0  0  0  0  0  0  0  0  0  0  0  0
  136.5010   81.2260  225.1720 C   0  0  0  0  0  0  0  0  0  0  0  0
  135.1200   81.2670  225.4060 C   0  0  0  0  0  0  0  0  0  0  0  0
  134.5930   82.1830  226.3230 C   0  0  0  0  0  0  0  0  0  0  0  0
  135.4440   83.0550  227.0100 C   0  0  0  0  0  0  0  0  0  0  0  0
  136.8210   83.0170  226.7760 C   0  0  0  0  0  0  0  0  0  0  0  0
  137.3510   82.1040  225.8570 C   0  0  0  0  0  0  0  0  0  0  0  0
  138.8180   79.0030  221.4270 C   0  0  0  0  0  0  0  0  0  0  0  0
  139.3420   78.1040  220.4880 C   0  0  0  0  0  0  0  0  0  0  0  0
  140.1890   78.6440  219.4590 N   0  0  0  0  0  0  0  0  0  0  0  0
  141.2740   78.1070  218.9850 C   0  0  0  0  0  0  0  0  0  0  0  0
  142.4870   78.7780  219.1160 O   0  0  0  0  0  0  0  0  0  0  0  0
  141.2450   76.7890  218.2890 C   0  0  0  0  0  0  0  0  0  0  0  0
  142.9920   74.4480  218.8670 C   0  0  0  0  0  0  0  0  0  0  0  0
  144.0320   73.3830  216.1510 C   0  0  0  0  0  0  0  0  0  0  0  0
  144.4320   73.4370  214.6700 C   0  0  0  0  0  0  0  0  0  0  0  0
  143.8877   76.2342  214.9167 H   0  0  0  0  0  0  0  0  0  0  0  0
  144.8069   76.5316  213.4023 H   0  0  0  0  0  0  0  0  0  0  0  0
  143.4216   75.3880  213.4023 H   0  0  0  0  0  0  0  0  0  0  0  0
  147.1323   75.3067  214.8139 H   0  0  0  0  0  0  0  0  0  0  0  0
  145.7817   75.9787  215.8464 H   0  0  0  0  0  0  0  0  0  0  0  0
  146.9481   73.1641  215.9599 H   0  0  0  0  0  0  0  0  0  0  0  0
  147.1165   74.4620  217.1882 H   0  0  0  0  0  0  0  0  0  0  0  0
  144.3518   71.8123  220.5751 H   0  0  0  0  0  0  0  0  0  0  0  0
  142.2929   72.1516  221.9368 H   0  0  0  0  0  0  0  0  0  0  0  0
  140.6862   73.9627  221.3523 H   0  0  0  0  0  0  0  0  0  0  0  0
  138.1513   75.1947  221.8791 H   0  0  0  0  0  0  0  0  0  0  0  0
  137.1774   76.8249  223.4863 H   0  0  0  0  0  0  0  0  0  0  0  0
  134.4504   80.5792  224.8689 H   0  0  0  0  0  0  0  0  0  0  0  0
  133.5085   82.2174  226.5038 H   0  0  0  0  0  0  0  0  0  0  0  0
  135.0290   83.7709  227.7347 H   0  0  0  0  0  0  0  0  0  0  0  0
  137.4891   83.7052  227.3145 H   0  0  0  0  0  0  0  0  0  0  0  0
  138.4351   82.0759  225.6726 H   0  0  0  0  0  0  0  0  0  0  0  0
  139.0236   80.0785  221.3219 H   0  0  0  0  0  0  0  0  0  0  0  0
  143.3460   78.2740  219.3070 H   0  0  0  0  0  0  0  0  0  0  0  0
  140.5042   76.8181  217.4763 H   0  0  0  0  0  0  0  0  0  0  0  0
  142.2375   76.5711  217.8677 H   0  0  0  0  0  0  0  0  0  0  0  0
  143.1773   75.0769  217.9837 H   0  0  0  0  0  0  0  0  0  0  0  0
  143.6182   72.3888  216.3752 H   0  0  0  0  0  0  0  0  0  0  0  0
  143.2821   74.1656  216.3388 H   0  0  0  0  0  0  0  0  0  0  0  0
  145.0656   72.5667  214.4439 H   0  0  0  0  0  0  0  0  0  0  0  0
  143.5075   73.4304  214.0739 H   0  0  0  0  0  0  0  0  0  0  0  0
  1  2  1  0
  2  3  1  0
  3  4  1  0
  4  5  1  0
  5  6  1  0
  6  7  2  0
  6  8  1  0
  8  9  2  0
  9 10  1  0
 10 11  2  0
 11 12  1  0
 12 13  1  0
 13 14  2  0
 14 15  1  0
 15 16  2  0
 16 17  1  0
 17 18  2  0
 18 19  1  0
 19 20  3  0
 20 21  1  0
 21 22  2  0
 22 23  1  0
 23 24  2  0
 24 25  1  0
 25 26  2  0
 18 27  1  0
 27 28  2  0
 28 29  1  0
 29 30  2  0
 30 31  1  0
 30 32  1  0
 12 33  2  0
  5 34  1  0
 34 35  1  0
 35  2  1  0
 33  8  1  0
 32 13  1  0
 28 15  1  0
 26 21  1  0
  1 36  1  0
  1 37  1  0
  1 38  1  0
  3 39  1  0
  3 40  1  0
  4 41  1  0
  4 42  1  0
  9 43  1  0
 10 44  1  0
 11 45  1  0
 16 46  1  0
 17 47  1  0
 22 48  1  0
 23 49  1  0
 24 50  1  0
 25 51  1  0
 26 52  1  0
 27 53  1  0
 31 54  1  0
 32 55  1  0
 32 56  1  0
 33 57  1  0
 34 58  1  0
 34 59  1  0
 35 60  1  0
 35 61  1  0
M  END
>  <UniqueID>  (50) 
37

>  <SMILES>  (50) 
CN1CCN(C(=O)c2cccc(C3=Nc4ccc(C#Cc5ccccc5)cc4N=C(O)C3)c2)CC1

>  <Energy>  (50) 
88.45939302911616

>  <Genealogy>  (50) 
CN1CCN(C(=O)c2cccc(C3=Nc4ccc(C#Cc5ccccc5)cc4N=C(O)C3)c2)CC1 (tautomer)
CN1CCN(C(=O)c2cccc(C3=Nc4ccc(C#Cc5ccccc5)cc4N=C(O)C3)c2)CC1 (3D coordinates assigned)
CN1CCN(C(=O)c2cccc(C3=Nc4ccc(C#Cc5ccccc5)cc4N=C(O)C3)c2)CC1 (nonaromatic ring conformer: 88.45939302911616 kcal/mol)

>  <smiles>  (50) 
CN1CCN(C(=O)c2cccc(C3=Nc4ccc(C#Cc5ccccc5)cc4NC(=O)C3)c2)CC1

>  <score_type>  (50) 
oracle

>  <origin>  (50) 
autodockgpu

>  <m_score__min__energy>  (50) 
-5.4500000000000002

>  <m_primary>  (50) 
energy

>  <meeko>  (50) 
{"free_energy": -3.62, "intermolecular_energy": -6.9, "internal_energy": -1.19, "cluster_size": 1, "cluster_id": 13, "rank_in_cluster": 1}

>  <energy>  (50) 
-5.16

>  <cluster_rmsd>  (50) 
0.0

>  <rmsd>  (50) 
269.53

>  <cluster>  (50) 
5

$$$$
RUYQROVMPDWUPI-ZYMSVLFVNA-N
     RDKit          3D

 61 65  0  0  0  0  0  0  0  0999 V2000
  141.5610   74.9880  220.8480 C   0  0  0  0  0  0  0  0  0  0  0  0
  142.2540   74.8510  219.5560 N   0  0  0  0  0  0  0  0  0  0  0  0
  141.3120   75.0300  218.4180 C   0  0  0  0  0  0  0  0  0  0  0  0
  141.8910   75.8600  217.2660 C   0  0  0  0  0  0  0  0  0  0  0  0
  142.3950   77.1320  217.7910 N   0  0  0  0  0  0  0  0  0  0  0  0
  142.3300   78.3220  216.9820 C   0  0  0  0  0  0  0  0  0  0  0  0
  142.3690   78.2250  215.7250 O   0  0  0  0  0  0  0  0  0  0  0  0
  142.2070   79.6600  217.5960 C   0  0  0  0  0  0  0  0  0  0  0  0
  142.5980   80.8070  216.8870 C   0  0  0  0  0  0  0  0  0  0  0  0
  142.4770   82.0700  217.4670 C   0  0  0  0  0  0  0  0  0  0  0  0
  141.9700   82.2040  218.7610 C   0  0  0  0  0  0  0  0  0  0  0  0
  141.5860   81.0670  219.4960 C   0  0  0  0  0  0  0  0  0  0  0  0
  141.0620   81.2020  220.8780 C   0  0  0  0  0  0  0  0  0  0  0  0
  139.7750   81.2910  221.0560 N   0  0  0  0  0  0  0  0  0  0  0  0
  139.0780   81.3580  222.3110 C   0  0  0  0  0  0  0  0  0  0  0  0
  137.8620   82.0570  222.3350 C   0  0  0  0  0  0  0  0  0  0  0  0
  137.0840   82.1000  223.4930 C   0  0  0  0  0  0  0  0  0  0  0  0
  137.4980   81.4180  224.6410 C   0  0  0  0  0  0  0  0  0  0  0  0
  136.6900   81.4480  225.8310 C   0  0  0  0  0  0  0  0  0  0  0  0
  136.0160   81.4730  226.8300 C   0  0  0  0  0  0  0  0  0  0  0  0
  135.2110   81.4970  228.0230 C   0  0  0  0  0  0  0  0  0  0  0  0
  133.8190   81.3560  227.9340 C   0  0  0  0  0  0  0  0  0  0  0  0
  133.0390   81.3750  229.0960 C   0  0  0  0  0  0  0  0  0  0  0  0
  133.6470   81.5320  230.3450 C   0  0  0  0  0  0  0  0  0  0  0  0
  135.0340   81.6740  230.4350 C   0  0  0  0  0  0  0  0  0  0  0  0
  135.8170   81.6580  229.2760 C   0  0  0  0  0  0  0  0  0  0  0  0
  138.6950   80.6940  224.6260 C   0  0  0  0  0  0  0  0  0  0  0  0
  139.5020   80.6630  223.4800 C   0  0  0  0  0  0  0  0  0  0  0  0
  140.6820   79.8410  223.5270 N   0  0  0  0  0  0  0  0  0  0  0  0
  141.8000   80.0510  222.8990 C   0  0  0  0  0  0  0  0  0  0  0  0
  142.8400   79.1330  223.0210 O   0  0  0  0  0  0  0  0  0  0  0  0
  141.9980   81.2640  222.0490 C   0  0  0  0  0  0  0  0  0  0  0  0
  141.7250   79.7950  218.9090 C   0  0  0  0  0  0  0  0  0  0  0  0
  143.1670   77.1310  219.0390 C   0  0  0  0  0  0  0  0  0  0  0  0
  143.4680   75.6980  219.5010 C   0  0  0  0  0  0  0  0  0  0  0  0
  142.2811   74.8456  221.6672 H   0  0  0  0  0  0  0  0  0  0  0  0
  141.1163   75.9914  220.9210 H   0  0  0  0  0  0  0  0  0  0  0  0
  140.7679   74.2293  220.9210 H   0  0  0  0  0  0  0  0  0  0  0  0
  141.0430   74.0366  218.0298 H   0  0  0  0  0  0  0  0  0  0  0  0
  140.4403   75.5786  218.8043 H   0  0  0  0  0  0  0  0  0  0  0  0
  142.7146   75.3061  216.7918 H   0  0  0  0  0  0  0  0  0  0  0  0
  141.1056   76.0543  216.5208 H   0  0  0  0  0  0  0  0  0  0  0  0
  143.0020   80.7092  215.8685 H   0  0  0  0  0  0  0  0  0  0  0  0
  142.7822   82.9636  216.9028 H   0  0  0  0  0  0  0  0  0  0  0  0
  141.8702   83.2039  219.2085 H   0  0  0  0  0  0  0  0  0  0  0  0
  137.5172   82.5779  221.4296 H   0  0  0  0  0  0  0  0  0  0  0  0
  136.1440   82.6712  223.5023 H   0  0  0  0  0  0  0  0  0  0  0  0
  133.3402   81.2305  226.9517 H   0  0  0  0  0  0  0  0  0  0  0  0
  131.9466   81.2663  229.0264 H   0  0  0  0  0  0  0  0  0  0  0  0
  133.0330   81.5437  231.2576 H   0  0  0  0  0  0  0  0  0  0  0  0
  135.5108   81.7985  231.4184 H   0  0  0  0  0  0  0  0  0  0  0  0
  136.9087   81.7718  229.3483 H   0  0  0  0  0  0  0  0  0  0  0  0
  139.0070   80.1420  225.5249 H   0  0  0  0  0  0  0  0  0  0  0  0
  143.1100   78.5410  222.2420 H   0  0  0  0  0  0  0  0  0  0  0  0
  141.7877   82.1669  222.6411 H   0  0  0  0  0  0  0  0  0  0  0  0
  143.0374   81.2994  221.6907 H   0  0  0  0  0  0  0  0  0  0  0  0
  141.4535   78.8975  219.4841 H   0  0  0  0  0  0  0  0  0  0  0  0
  144.1160   77.6625  218.8749 H   0  0  0  0  0  0  0  0  0  0  0  0
  142.5733   77.6320  219.8178 H   0  0  0  0  0  0  0  0  0  0  0  0
  144.1828   75.2442  218.7988 H   0  0  0  0  0  0  0  0  0  0  0  0
  143.8807   75.7556  220.5190 H   0  0  0  0  0  0  0  0  0  0  0  0
  1  2  1  0
  2  3  1  0
  3  4  1  0
  4  5  1  0
  5  6  1  0
  6  7  2  0
  6  8  1  0
  8  9  2  0
  9 10  1  0
 10 11  2  0
 11 12  1  0
 12 13  1  0
 13 14  2  0
 14 15  1  0
 15 16  2  0
 16 17  1  0
 17 18  2  0
 18 19  1  0
 19 20  3  0
 20 21  1  0
 21 22  2  0
 22 23  1  0
 23 24  2  0
 24 25  1  0
 25 26  2  0
 18 27  1  0
 27 28  2  0
 28 29  1  0
 29 30  2  0
 30 31  1  0
 30 32  1  0
 12 33  2  0
  5 34  1  0
 34 35  1  0
 35  2  1  0
 33  8  1  0
 32 13  1  0
 28 15  1  0
 26 21  1  0
  1 36  1  0
  1 37  1  0
  1 38  1  0
  3 39  1  0
  3 40  1  0
  4 41  1  0
  4 42  1  0
  9 43  1  0
 10 44  1  0
 11 45  1  0
 16 46  1  0
 17 47  1  0
 22 48  1  0
 23 49  1  0
 24 50  1  0
 25 51  1  0
 26 52  1  0
 27 53  1  0
 31 54  1  0
 32 55  1  0
 32 56  1  0
 33 57  1  0
 34 58  1  0
 34 59  1  0
 35 60  1  0
 35 61  1  0
M  END
>  <UniqueID>  (51) 
37

>  <SMILES>  (51) 
CN1CCN(C(=O)c2cccc(C3=Nc4ccc(C#Cc5ccccc5)cc4N=C(O)C3)c2)CC1

>  <Energy>  (51) 
88.45939302911616

>  <Genealogy>  (51) 
CN1CCN(C(=O)c2cccc(C3=Nc4ccc(C#Cc5ccccc5)cc4N=C(O)C3)c2)CC1 (tautomer)
CN1CCN(C(=O)c2cccc(C3=Nc4ccc(C#Cc5ccccc5)cc4N=C(O)C3)c2)CC1 (3D coordinates assigned)
CN1CCN(C(=O)c2cccc(C3=Nc4ccc(C#Cc5ccccc5)cc4N=C(O)C3)c2)CC1 (nonaromatic ring conformer: 88.45939302911616 kcal/mol)

>  <smiles>  (51) 
CN1CCN(C(=O)c2cccc(C3=Nc4ccc(C#Cc5ccccc5)cc4NC(=O)C3)c2)CC1

>  <score_type>  (51) 
oracle

>  <origin>  (51) 
autodockgpu

>  <m_score__min__energy>  (51) 
-5.4500000000000002

>  <m_primary>  (51) 
energy

>  <meeko>  (51) 
{"free_energy": -5.45, "intermolecular_energy": -8.73, "internal_energy": -1.12, "cluster_size": 2, "cluster_id": 1, "rank_in_cluster": 1}

>  <energy>  (51) 
-5.13

>  <cluster_rmsd>  (51) 
0.89

>  <rmsd>  (51) 
269.35

>  <cluster>  (51) 
5

$$$$
RUYQROVMPDWUPI-ZYMSVLFVNA-N
     RDKit          3D

 61 65  0  0  0  0  0  0  0  0999 V2000
  142.8140   68.5380  217.5890 C   0  0  0  0  0  0  0  0  0  0  0  0
  143.8560   68.7310  218.6120 N   0  0  0  0  0  0  0  0  0  0  0  0
  145.1020   69.2820  218.0150 C   0  0  0  0  0  0  0  0  0  0  0  0
  145.7670   70.3670  218.8700 C   0  0  0  0  0  0  0  0  0  0  0  0
  144.7820   71.4050  219.1840 N   0  0  0  0  0  0  0  0  0  0  0  0
  145.1990   72.7770  219.3190 C   0  0  0  0  0  0  0  0  0  0  0  0
  146.3720   73.0390  219.7030 O   0  0  0  0  0  0  0  0  0  0  0  0
  144.2800   73.8920  219.0050 C   0  0  0  0  0  0  0  0  0  0  0  0
  144.2340   74.4320  217.7100 C   0  0  0  0  0  0  0  0  0  0  0  0
  143.3620   75.4800  217.4160 C   0  0  0  0  0  0  0  0  0  0  0  0
  142.5330   76.0070  218.4080 C   0  0  0  0  0  0  0  0  0  0  0  0
  142.5750   75.4910  219.7170 C   0  0  0  0  0  0  0  0  0  0  0  0
  141.7080   76.0570  220.7800 C   0  0  0  0  0  0  0  0  0  0  0  0
  141.5060   77.3430  220.8080 N   0  0  0  0  0  0  0  0  0  0  0  0
  140.7230   78.0760  221.7650 C   0  0  0  0  0  0  0  0  0  0  0  0
  141.1370   79.3810  222.0700 C   0  0  0  0  0  0  0  0  0  0  0  0
  140.3870   80.1870  222.9270 C   0  0  0  0  0  0  0  0  0  0  0  0
  139.1910   79.7090  223.4710 C   0  0  0  0  0  0  0  0  0  0  0  0
  138.4070   80.5450  224.3420 C   0  0  0  0  0  0  0  0  0  0  0  0
  137.7530   81.2480  225.0700 C   0  0  0  0  0  0  0  0  0  0  0  0
  136.9760   82.0890  225.9420 C   0  0  0  0  0  0  0  0  0  0  0  0
  136.5370   81.6000  227.1810 C   0  0  0  0  0  0  0  0  0  0  0  0
  135.7850   82.4210  228.0290 C   0  0  0  0  0  0  0  0  0  0  0  0
  135.4750   83.7290  227.6440 C   0  0  0  0  0  0  0  0  0  0  0  0
  135.9100   84.2170  226.4090 C   0  0  0  0  0  0  0  0  0  0  0  0
  136.6590   83.3980  225.5570 C   0  0  0  0  0  0  0  0  0  0  0  0
  138.7500   78.4190  223.1550 C   0  0  0  0  0  0  0  0  0  0  0  0
  139.5050   77.5860  222.3180 C   0  0  0  0  0  0  0  0  0  0  0  0
  138.9480   76.3010  221.9900 N   0  0  0  0  0  0  0  0  0  0  0  0
  139.6080   75.2190  221.7040 C   0  0  0  0  0  0  0  0  0  0  0  0
  138.9190   74.0840  221.2870 O   0  0  0  0  0  0  0  0  0  0  0  0
  141.0950   75.1690  221.8230 C   0  0  0  0  0  0  0  0  0  0  0  0
  143.4670   74.4420  220.0100 C   0  0  0  0  0  0  0  0  0  0  0  0
  143.4280   71.0050  219.5860 C   0  0  0  0  0  0  0  0  0  0  0  0
  143.3360   69.4840  219.7780 C   0  0  0  0  0  0  0  0  0  0  0  0
  141.8464   68.3588  218.0805 H   0  0  0  0  0  0  0  0  0  0  0  0
  142.7451   69.4387  216.9613 H   0  0  0  0  0  0  0  0  0  0  0  0
  143.0723   67.6724  216.9613 H   0  0  0  0  0  0  0  0  0  0  0  0
  145.8177   68.4573  217.8820 H   0  0  0  0  0  0  0  0  0  0  0  0
  144.8211   69.7516  217.0607 H   0  0  0  0  0  0  0  0  0  0  0  0
  146.1420   69.9215  219.8032 H   0  0  0  0  0  0  0  0  0  0  0  0
  146.6071   70.8108  218.3156 H   0  0  0  0  0  0  0  0  0  0  0  0
  144.8883   74.0269  216.9240 H   0  0  0  0  0  0  0  0  0  0  0  0
  143.3273   75.8935  216.3973 H   0  0  0  0  0  0  0  0  0  0  0  0
  141.8438   76.8293  218.1656 H   0  0  0  0  0  0  0  0  0  0  0  0
  142.0645   79.7738  221.6280 H   0  0  0  0  0  0  0  0  0  0  0  0
  140.7371   81.1999  223.1750 H   0  0  0  0  0  0  0  0  0  0  0  0
  136.7835   80.5723  227.4859 H   0  0  0  0  0  0  0  0  0  0  0  0
  135.4375   82.0369  228.9994 H   0  0  0  0  0  0  0  0  0  0  0  0
  134.8881   84.3745  228.3140 H   0  0  0  0  0  0  0  0  0  0  0  0
  135.6635   85.2455  226.1065 H   0  0  0  0  0  0  0  0  0  0  0  0
  136.9992   83.7823  224.5841 H   0  0  0  0  0  0  0  0  0  0  0  0
  137.7984   78.0540  223.5689 H   0  0  0  0  0  0  0  0  0  0  0  0
  138.2080   73.6580  221.8730 H   0  0  0  0  0  0  0  0  0  0  0  0
  141.3951   75.5157  222.8228 H   0  0  0  0  0  0  0  0  0  0  0  0
  141.4411   74.1354  221.6755 H   0  0  0  0  0  0  0  0  0  0  0  0
  143.5279   74.0493  221.0357 H   0  0  0  0  0  0  0  0  0  0  0  0
  143.1723   71.5029  220.5329 H   0  0  0  0  0  0  0  0  0  0  0  0
  142.7258   71.3005  218.7925 H   0  0  0  0  0  0  0  0  0  0  0  0
  143.9205   69.2049  220.6671 H   0  0  0  0  0  0  0  0  0  0  0  0
  142.2731   69.2261  219.8947 H   0  0  0  0  0  0  0  0  0  0  0  0
  1  2  1  0
  2  3  1  0
  3  4  1  0
  4  5  1  0
  5  6  1  0
  6  7  2  0
  6  8  1  0
  8  9  2  0
  9 10  1  0
 10 11  2  0
 11 12  1  0
 12 13  1  0
 13 14  2  0
 14 15  1  0
 15 16  2  0
 16 17  1  0
 17 18  2  0
 18 19  1  0
 19 20  3  0
 20 21  1  0
 21 22  2  0
 22 23  1  0
 23 24  2  0
 24 25  1  0
 25 26  2  0
 18 27  1  0
 27 28  2  0
 28 29  1  0
 29 30  2  0
 30 31  1  0
 30 32  1  0
 12 33  2  0
  5 34  1  0
 34 35  1  0
 35  2  1  0
 33  8  1  0
 32 13  1  0
 28 15  1  0
 26 21  1  0
  1 36  1  0
  1 37  1  0
  1 38  1  0
  3 39  1  0
  3 40  1  0
  4 41  1  0
  4 42  1  0
  9 43  1  0
 10 44  1  0
 11 45  1  0
 16 46  1  0
 17 47  1  0
 22 48  1  0
 23 49  1  0
 24 50  1  0
 25 51  1  0
 26 52  1  0
 27 53  1  0
 31 54  1  0
 32 55  1  0
 32 56  1  0
 33 57  1  0
 34 58  1  0
 34 59  1  0
 35 60  1  0
 35 61  1  0
M  END
>  <UniqueID>  (52) 
37

>  <SMILES>  (52) 
CN1CCN(C(=O)c2cccc(C3=Nc4ccc(C#Cc5ccccc5)cc4N=C(O)C3)c2)CC1

>  <Energy>  (52) 
88.45939302911616

>  <Genealogy>  (52) 
CN1CCN(C(=O)c2cccc(C3=Nc4ccc(C#Cc5ccccc5)cc4N=C(O)C3)c2)CC1 (tautomer)
CN1CCN(C(=O)c2cccc(C3=Nc4ccc(C#Cc5ccccc5)cc4N=C(O)C3)c2)CC1 (3D coordinates assigned)
CN1CCN(C(=O)c2cccc(C3=Nc4ccc(C#Cc5ccccc5)cc4N=C(O)C3)c2)CC1 (nonaromatic ring conformer: 88.45939302911616 kcal/mol)

>  <smiles>  (52) 
CN1CCN(C(=O)c2cccc(C3=Nc4ccc(C#Cc5ccccc5)cc4NC(=O)C3)c2)CC1

>  <score_type>  (52) 
oracle

>  <origin>  (52) 
autodockgpu

>  <m_score__min__energy>  (52) 
-5.4500000000000002

>  <m_primary>  (52) 
energy

>  <meeko>  (52) 
{"free_energy": -5.16, "intermolecular_energy": -8.44, "internal_energy": -1.12, "cluster_size": 2, "cluster_id": 5, "rank_in_cluster": 1}

>  <energy>  (52) 
-4.78

>  <cluster_rmsd>  (52) 
0.0

>  <rmsd>  (52) 
268.36

>  <cluster>  (52) 
6

$$$$
RUYQROVMPDWUPI-ZYMSVLFVNA-N
     RDKit          3D

 61 65  0  0  0  0  0  0  0  0999 V2000
  148.7540   76.0320  215.3930 C   0  0  0  0  0  0  0  0  0  0  0  0
  147.9470   74.9930  214.7300 N   0  0  0  0  0  0  0  0  0  0  0  0
  148.2860   73.6380  215.2430 C   0  0  0  0  0  0  0  0  0  0  0  0
  147.0630   72.7400  215.4600 C   0  0  0  0  0  0  0  0  0  0  0  0
  146.0910   73.4400  216.3030 N   0  0  0  0  0  0  0  0  0  0  0  0
  145.2600   72.6970  217.2150 C   0  0  0  0  0  0  0  0  0  0  0  0
  144.9530   71.5030  216.9490 O   0  0  0  0  0  0  0  0  0  0  0  0
  144.7650   73.3030  218.4700 C   0  0  0  0  0  0  0  0  0  0  0  0
  145.6440   73.5440  219.5370 C   0  0  0  0  0  0  0  0  0  0  0  0
  145.1760   74.1210  220.7180 C   0  0  0  0  0  0  0  0  0  0  0  0
  143.8270   74.4570  220.8500 C   0  0  0  0  0  0  0  0  0  0  0  0
  142.9260   74.2100  219.7980 C   0  0  0  0  0  0  0  0  0  0  0  0
  141.4890   74.5500  219.9390 C   0  0  0  0  0  0  0  0  0  0  0  0
  141.1070   75.7750  219.7120 N   0  0  0  0  0  0  0  0  0  0  0  0
  140.5240   76.6880  220.6560 C   0  0  0  0  0  0  0  0  0  0  0  0
  140.7670   78.0560  220.4620 C   0  0  0  0  0  0  0  0  0  0  0  0
  140.1720   79.0130  221.2850 C   0  0  0  0  0  0  0  0  0  0  0  0
  139.2980   78.6160  222.3010 C   0  0  0  0  0  0  0  0  0  0  0  0
  138.6700   79.6020  223.1410 C   0  0  0  0  0  0  0  0  0  0  0  0
  138.1470   80.4270  223.8470 C   0  0  0  0  0  0  0  0  0  0  0  0
  137.5230   81.4080  224.6950 C   0  0  0  0  0  0  0  0  0  0  0  0
  137.3390   81.1430  226.0590 C   0  0  0  0  0  0  0  0  0  0  0  0
  136.7350   82.1000  226.8820 C   0  0  0  0  0  0  0  0  0  0  0  0
  136.3180   83.3220  226.3460 C   0  0  0  0  0  0  0  0  0  0  0  0
  136.4990   83.5870  224.9850 C   0  0  0  0  0  0  0  0  0  0  0  0
  137.0990   82.6310  224.1590 C   0  0  0  0  0  0  0  0  0  0  0  0
  139.0240   77.2570  222.4920 C   0  0  0  0  0  0  0  0  0  0  0  0
  139.6340   76.2820  221.6920 C   0  0  0  0  0  0  0  0  0  0  0  0
  139.2470   74.9130  221.9090 N   0  0  0  0  0  0  0  0  0  0  0  0
  139.9810   73.8580  221.7150 C   0  0  0  0  0  0  0  0  0  0  0  0
  140.3090   73.0420  222.7940 O   0  0  0  0  0  0  0  0  0  0  0  0
  140.4930   73.5100  220.3620 C   0  0  0  0  0  0  0  0  0  0  0  0
  143.4030   73.6140  218.6150 C   0  0  0  0  0  0  0  0  0  0  0  0
  145.8140   74.8580  216.0440 C   0  0  0  0  0  0  0  0  0  0  0  0
  146.5050   75.3290  214.7570 C   0  0  0  0  0  0  0  0  0  0  0  0
  148.6685   75.9220  216.4841 H   0  0  0  0  0  0  0  0  0  0  0  0
  149.8073   75.9240  215.0950 H   0  0  0  0  0  0  0  0  0  0  0  0
  148.3887   77.0258  215.0950 H   0  0  0  0  0  0  0  0  0  0  0  0
  148.9526   73.1484  214.5178 H   0  0  0  0  0  0  0  0  0  0  0  0
  148.7636   73.7750  216.2244 H   0  0  0  0  0  0  0  0  0  0  0  0
  146.6039   72.5036  214.4887 H   0  0  0  0  0  0  0  0  0  0  0  0
  147.3740   71.8073  215.9534 H   0  0  0  0  0  0  0  0  0  0  0  0
  146.7068   73.2768  219.4419 H   0  0  0  0  0  0  0  0  0  0  0  0
  145.8721   74.3119  221.5481 H   0  0  0  0  0  0  0  0  0  0  0  0
  143.4668   74.9174  221.7818 H   0  0  0  0  0  0  0  0  0  0  0  0
  141.4355   78.3786  219.6502 H   0  0  0  0  0  0  0  0  0  0  0  0
  140.3909   80.0804  221.1341 H   0  0  0  0  0  0  0  0  0  0  0  0
  137.6693   80.1830  226.4824 H   0  0  0  0  0  0  0  0  0  0  0  0
  136.5881   81.8906  227.9519 H   0  0  0  0  0  0  0  0  0  0  0  0
  135.8474   84.0752  226.9950 H   0  0  0  0  0  0  0  0  0  0  0  0
  136.1692   84.5481  224.5637 H   0  0  0  0  0  0  0  0  0  0  0  0
  137.2381   82.8395  223.0879 H   0  0  0  0  0  0  0  0  0  0  0  0
  138.3207   76.9504  223.2803 H   0  0  0  0  0  0  0  0  0  0  0  0
  139.6040   72.7480  223.4610 H   0  0  0  0  0  0  0  0  0  0  0  0
  140.9791   72.5237  220.3932 H   0  0  0  0  0  0  0  0  0  0  0  0
  139.6599   73.4769  219.6445 H   0  0  0  0  0  0  0  0  0  0  0  0
  142.7027   73.3899  217.7969 H   0  0  0  0  0  0  0  0  0  0  0  0
  144.7279   74.9991  215.9412 H   0  0  0  0  0  0  0  0  0  0  0  0
  146.2023   75.4497  216.8861 H   0  0  0  0  0  0  0  0  0  0  0  0
  146.0149   74.8482  213.8976 H   0  0  0  0  0  0  0  0  0  0  0  0
  146.4170   76.4246  214.7130 H   0  0  0  0  0  0  0  0  0  0  0  0
  1  2  1  0
  2  3  1  0
  3  4  1  0
  4  5  1  0
  5  6  1  0
  6  7  2  0
  6  8  1  0
  8  9  2  0
  9 10  1  0
 10 11  2  0
 11 12  1  0
 12 13  1  0
 13 14  2  0
 14 15  1  0
 15 16  2  0
 16 17  1  0
 17 18  2  0
 18 19  1  0
 19 20  3  0
 20 21  1  0
 21 22  2  0
 22 23  1  0
 23 24  2  0
 24 25  1  0
 25 26  2  0
 18 27  1  0
 27 28  2  0
 28 29  1  0
 29 30  2  0
 30 31  1  0
 30 32  1  0
 12 33  2  0
  5 34  1  0
 34 35  1  0
 35  2  1  0
 33  8  1  0
 32 13  1  0
 28 15  1  0
 26 21  1  0
  1 36  1  0
  1 37  1  0
  1 38  1  0
  3 39  1  0
  3 40  1  0
  4 41  1  0
  4 42  1  0
  9 43  1  0
 10 44  1  0
 11 45  1  0
 16 46  1  0
 17 47  1  0
 22 48  1  0
 23 49  1  0
 24 50  1  0
 25 51  1  0
 26 52  1  0
 27 53  1  0
 31 54  1  0
 32 55  1  0
 32 56  1  0
 33 57  1  0
 34 58  1  0
 34 59  1  0
 35 60  1  0
 35 61  1  0
M  END
>  <UniqueID>  (53) 
37

>  <SMILES>  (53) 
CN1CCN(C(=O)c2cccc(C3=Nc4ccc(C#Cc5ccccc5)cc4N=C(O)C3)c2)CC1

>  <Energy>  (53) 
88.45939302911616

>  <Genealogy>  (53) 
CN1CCN(C(=O)c2cccc(C3=Nc4ccc(C#Cc5ccccc5)cc4N=C(O)C3)c2)CC1 (tautomer)
CN1CCN(C(=O)c2cccc(C3=Nc4ccc(C#Cc5ccccc5)cc4N=C(O)C3)c2)CC1 (3D coordinates assigned)
CN1CCN(C(=O)c2cccc(C3=Nc4ccc(C#Cc5ccccc5)cc4N=C(O)C3)c2)CC1 (nonaromatic ring conformer: 88.45939302911616 kcal/mol)

>  <smiles>  (53) 
CN1CCN(C(=O)c2cccc(C3=Nc4ccc(C#Cc5ccccc5)cc4NC(=O)C3)c2)CC1

>  <score_type>  (53) 
oracle

>  <origin>  (53) 
autodockgpu

>  <m_score__min__energy>  (53) 
-5.4500000000000002

>  <m_primary>  (53) 
energy

>  <meeko>  (53) 
{"free_energy": -4.46, "intermolecular_energy": -7.74, "internal_energy": -1.2, "cluster_size": 1, "cluster_id": 11, "rank_in_cluster": 1}

>  <energy>  (53) 
-4.68

>  <cluster_rmsd>  (53) 
0.0

>  <rmsd>  (53) 
269.07

>  <cluster>  (53) 
7

$$$$
RUYQROVMPDWUPI-ZYMSVLFVNA-N
     RDKit          3D

 61 65  0  0  0  0  0  0  0  0999 V2000
  143.2710   79.8350  222.7150 C   0  0  0  0  0  0  0  0  0  0  0  0
  142.5210   81.0900  222.8900 N   0  0  0  0  0  0  0  0  0  0  0  0
  141.8360   81.4900  221.6320 C   0  0  0  0  0  0  0  0  0  0  0  0
  140.4170   82.0270  221.8480 C   0  0  0  0  0  0  0  0  0  0  0  0
  139.6460   81.0570  222.6290 N   0  0  0  0  0  0  0  0  0  0  0  0
  138.2310   80.9100  222.4030 C   0  0  0  0  0  0  0  0  0  0  0  0
  137.5600   81.8940  221.9870 O   0  0  0  0  0  0  0  0  0  0  0  0
  137.5460   79.6220  222.6390 C   0  0  0  0  0  0  0  0  0  0  0  0
  136.3100   79.5860  223.3040 C   0  0  0  0  0  0  0  0  0  0  0  0
  135.6630   78.3690  223.5210 C   0  0  0  0  0  0  0  0  0  0  0  0
  136.2420   77.1760  223.0850 C   0  0  0  0  0  0  0  0  0  0  0  0
  137.4880   77.1880  222.4300 C   0  0  0  0  0  0  0  0  0  0  0  0
  138.1160   75.9220  221.9790 C   0  0  0  0  0  0  0  0  0  0  0  0
  139.4140   75.8150  222.0200 N   0  0  0  0  0  0  0  0  0  0  0  0
  140.2070   74.7150  221.5430 C   0  0  0  0  0  0  0  0  0  0  0  0
  141.4700   75.0150  221.0110 C   0  0  0  0  0  0  0  0  0  0  0  0
  142.3340   73.9990  220.6020 C   0  0  0  0  0  0  0  0  0  0  0  0
  141.9580   72.6600  220.7450 C   0  0  0  0  0  0  0  0  0  0  0  0
  142.8540   71.6100  220.3380 C   0  0  0  0  0  0  0  0  0  0  0  0
  143.6030   70.7280  220.0000 C   0  0  0  0  0  0  0  0  0  0  0  0
  144.4990   69.6760  219.6000 C   0  0  0  0  0  0  0  0  0  0  0  0
  144.3150   68.3730  220.0850 C   0  0  0  0  0  0  0  0  0  0  0  0
  145.1850   67.3510  219.6910 C   0  0  0  0  0  0  0  0  0  0  0  0
  146.2380   67.6260  218.8130 C   0  0  0  0  0  0  0  0  0  0  0  0
  146.4240   68.9240  218.3300 C   0  0  0  0  0  0  0  0  0  0  0  0
  145.5580   69.9500  218.7230 C   0  0  0  0  0  0  0  0  0  0  0  0
  140.7130   72.3420  221.2990 C   0  0  0  0  0  0  0  0  0  0  0  0
  139.8220   73.3510  221.6900 C   0  0  0  0  0  0  0  0  0  0  0  0
  138.5910   72.9390  222.3110 N   0  0  0  0  0  0  0  0  0  0  0  0
  137.4700   73.5960  222.3230 C   0  0  0  0  0  0  0  0  0  0  0  0
  136.4330   73.1690  223.1480 O   0  0  0  0  0  0  0  0  0  0  0  0
  137.2770   74.7930  221.4570 C   0  0  0  0  0  0  0  0  0  0  0  0
  138.1420   78.4180  222.2270 C   0  0  0  0  0  0  0  0  0  0  0  0
  140.2770   80.4120  223.7870 C   0  0  0  0  0  0  0  0  0  0  0  0
  141.6480   81.0360  224.0860 C   0  0  0  0  0  0  0  0  0  0  0  0
  143.5210   79.4167  223.7012 H   0  0  0  0  0  0  0  0  0  0  0  0
  142.6552   79.1146  222.1565 H   0  0  0  0  0  0  0  0  0  0  0  0
  144.1971   80.0361  222.1565 H   0  0  0  0  0  0  0  0  0  0  0  0
  142.4340   82.2745  221.1451 H   0  0  0  0  0  0  0  0  0  0  0  0
  141.7469   80.5854  221.0125 H   0  0  0  0  0  0  0  0  0  0  0  0
  140.4644   82.9820  222.3918 H   0  0  0  0  0  0  0  0  0  0  0  0
  139.9309   82.1857  220.8741 H   0  0  0  0  0  0  0  0  0  0  0  0
  135.8497   80.5212  223.6554 H   0  0  0  0  0  0  0  0  0  0  0  0
  134.6922   78.3496  224.0380 H   0  0  0  0  0  0  0  0  0  0  0  0
  135.7219   76.2216  223.2541 H   0  0  0  0  0  0  0  0  0  0  0  0
  141.7831   76.0651  220.9151 H   0  0  0  0  0  0  0  0  0  0  0  0
  143.3121   74.2516  220.1666 H   0  0  0  0  0  0  0  0  0  0  0  0
  143.4867   68.1547  220.7751 H   0  0  0  0  0  0  0  0  0  0  0  0
  145.0406   66.3294  220.0724 H   0  0  0  0  0  0  0  0  0  0  0  0
  146.9199   66.8206  218.5026 H   0  0  0  0  0  0  0  0  0  0  0  0
  147.2528   69.1394  217.6396 H   0  0  0  0  0  0  0  0  0  0  0  0
  145.7079   70.9717  218.3440 H   0  0  0  0  0  0  0  0  0  0  0  0
  140.4300   71.2871  221.4293 H   0  0  0  0  0  0  0  0  0  0  0  0
  136.5730   73.0490  224.1460 H   0  0  0  0  0  0  0  0  0  0  0  0
  137.5812   74.5546  220.4271 H   0  0  0  0  0  0  0  0  0  0  0  0
  136.2170   75.0869  221.4648 H   0  0  0  0  0  0  0  0  0  0  0  0
  139.1288   78.4368  221.7413 H   0  0  0  0  0  0  0  0  0  0  0  0
  139.6267   80.5348  224.6656 H   0  0  0  0  0  0  0  0  0  0  0  0
  140.4199   79.3454  223.5590 H   0  0  0  0  0  0  0  0  0  0  0  0
  141.4958   82.0600  224.4579 H   0  0  0  0  0  0  0  0  0  0  0  0
  142.1466   80.4031  224.8349 H   0  0  0  0  0  0  0  0  0  0  0  0
  1  2  1  0
  2  3  1  0
  3  4  1  0
  4  5  1  0
  5  6  1  0
  6  7  2  0
  6  8  1  0
  8  9  2  0
  9 10  1  0
 10 11  2  0
 11 12  1  0
 12 13  1  0
 13 14  2  0
 14 15  1  0
 15 16  2  0
 16 17  1  0
 17 18  2  0
 18 19  1  0
 19 20  3  0
 20 21  1  0
 21 22  2  0
 22 23  1  0
 23 24  2  0
 24 25  1  0
 25 26  2  0
 18 27  1  0
 27 28  2  0
 28 29  1  0
 29 30  2  0
 30 31  1  0
 30 32  1  0
 12 33  2  0
  5 34  1  0
 34 35  1  0
 35  2  1  0
 33  8  1  0
 32 13  1  0
 28 15  1  0
 26 21  1  0
  1 36  1  0
  1 37  1  0
  1 38  1  0
  3 39  1  0
  3 40  1  0
  4 41  1  0
  4 42  1  0
  9 43  1  0
 10 44  1  0
 11 45  1  0
 16 46  1  0
 17 47  1  0
 22 48  1  0
 23 49  1  0
 24 50  1  0
 25 51  1  0
 26 52  1  0
 27 53  1  0
 31 54  1  0
 32 55  1  0
 32 56  1  0
 33 57  1  0
 34 58  1  0
 34 59  1  0
 35 60  1  0
 35 61  1  0
M  END
>  <UniqueID>  (54) 
37

>  <SMILES>  (54) 
CN1CCN(C(=O)c2cccc(C3=Nc4ccc(C#Cc5ccccc5)cc4N=C(O)C3)c2)CC1

>  <Energy>  (54) 
88.45939302911616

>  <Genealogy>  (54) 
CN1CCN(C(=O)c2cccc(C3=Nc4ccc(C#Cc5ccccc5)cc4N=C(O)C3)c2)CC1 (tautomer)
CN1CCN(C(=O)c2cccc(C3=Nc4ccc(C#Cc5ccccc5)cc4N=C(O)C3)c2)CC1 (3D coordinates assigned)
CN1CCN(C(=O)c2cccc(C3=Nc4ccc(C#Cc5ccccc5)cc4N=C(O)C3)c2)CC1 (nonaromatic ring conformer: 88.45939302911616 kcal/mol)

>  <smiles>  (54) 
CN1CCN(C(=O)c2cccc(C3=Nc4ccc(C#Cc5ccccc5)cc4NC(=O)C3)c2)CC1

>  <score_type>  (54) 
oracle

>  <origin>  (54) 
autodockgpu

>  <m_score__min__energy>  (54) 
-5.4500000000000002

>  <m_primary>  (54) 
energy

>  <meeko>  (54) 
{"free_energy": -4.25, "intermolecular_energy": -7.53, "internal_energy": -1.21, "cluster_size": 2, "cluster_id": 8, "rank_in_cluster": 2}

>  <energy>  (54) 
-4.55

>  <cluster_rmsd>  (54) 
0.0

>  <rmsd>  (54) 
268.88

>  <cluster>  (54) 
8

$$$$
RUYQROVMPDWUPI-ZYMSVLFVNA-N
     RDKit          3D

 61 65  0  0  0  0  0  0  0  0999 V2000
  140.7840   69.6840  218.1520 C   0  0  0  0  0  0  0  0  0  0  0  0
  139.7280   70.0260  219.1200 N   0  0  0  0  0  0  0  0  0  0  0  0
  140.2490   70.0130  220.5130 C   0  0  0  0  0  0  0  0  0  0  0  0
  139.7310   71.1700  221.3740 C   0  0  0  0  0  0  0  0  0  0  0  0
  139.9860   72.4380  220.6850 N   0  0  0  0  0  0  0  0  0  0  0  0
  140.2750   73.6260  221.4460 C   0  0  0  0  0  0  0  0  0  0  0  0
  139.8060   73.7520  222.6100 O   0  0  0  0  0  0  0  0  0  0  0  0
  141.1220   74.7040  220.8930 C   0  0  0  0  0  0  0  0  0  0  0  0
  142.3430   74.3990  220.2700 C   0  0  0  0  0  0  0  0  0  0  0  0
  143.1390   75.4180  219.7440 C   0  0  0  0  0  0  0  0  0  0  0  0
  142.7300   76.7490  219.8380 C   0  0  0  0  0  0  0  0  0  0  0  0
  141.5170   77.0790  220.4710 C   0  0  0  0  0  0  0  0  0  0  0  0
  141.0850   78.4930  220.5880 C   0  0  0  0  0  0  0  0  0  0  0  0
  139.8170   78.7530  220.7340 N   0  0  0  0  0  0  0  0  0  0  0  0
  139.1940   79.4190  221.8450 C   0  0  0  0  0  0  0  0  0  0  0  0
  137.9600   78.9180  222.2850 C   0  0  0  0  0  0  0  0  0  0  0  0
  137.3280   79.4560  223.4070 C   0  0  0  0  0  0  0  0  0  0  0  0
  137.9370   80.4890  224.1260 C   0  0  0  0  0  0  0  0  0  0  0  0
  137.2950   81.0350  225.2930 C   0  0  0  0  0  0  0  0  0  0  0  0
  136.7540   81.4920  226.2680 C   0  0  0  0  0  0  0  0  0  0  0  0
  136.1120   82.0350  227.4350 C   0  0  0  0  0  0  0  0  0  0  0  0
  135.4630   83.2760  227.3670 C   0  0  0  0  0  0  0  0  0  0  0  0
  134.8360   83.8010  228.5020 C   0  0  0  0  0  0  0  0  0  0  0  0
  134.8520   83.0870  229.7050 C   0  0  0  0  0  0  0  0  0  0  0  0
  135.5000   81.8510  229.7750 C   0  0  0  0  0  0  0  0  0  0  0  0
  136.1310   81.3240  228.6430 C   0  0  0  0  0  0  0  0  0  0  0  0
  139.1810   80.9830  223.7160 C   0  0  0  0  0  0  0  0  0  0  0  0
  139.8160   80.4720  222.5750 C   0  0  0  0  0  0  0  0  0  0  0  0
  141.1220   80.9880  222.2620 N   0  0  0  0  0  0  0  0  0  0  0  0
  142.1390   80.3110  221.8200 C   0  0  0  0  0  0  0  0  0  0  0  0
  143.3060   80.2510  222.5770 O   0  0  0  0  0  0  0  0  0  0  0  0
  142.0860   79.6090  220.5100 C   0  0  0  0  0  0  0  0  0  0  0  0
  140.7260   76.0470  221.0120 C   0  0  0  0  0  0  0  0  0  0  0  0
  139.7180   72.5330  219.2450 C   0  0  0  0  0  0  0  0  0  0  0  0
  139.0180   71.2670  218.7300 C   0  0  0  0  0  0  0  0  0  0  0  0
  141.6954   69.3888  218.6926 H   0  0  0  0  0  0  0  0  0  0  0  0
  140.4459   68.8494  217.5202 H   0  0  0  0  0  0  0  0  0  0  0  0
  140.9994   70.5583  217.5202 H   0  0  0  0  0  0  0  0  0  0  0  0
  139.9503   69.0663  220.9869 H   0  0  0  0  0  0  0  0  0  0  0  0
  141.3416   70.1232  220.4492 H   0  0  0  0  0  0  0  0  0  0  0  0
  138.6496   71.0513  221.5370 H   0  0  0  0  0  0  0  0  0  0  0  0
  140.2484   71.1674  222.3447 H   0  0  0  0  0  0  0  0  0  0  0  0
  142.6737   73.3525  220.1962 H   0  0  0  0  0  0  0  0  0  0  0  0
  144.0922   75.1710  219.2536 H   0  0  0  0  0  0  0  0  0  0  0  0
  143.3597   77.5454  219.4146 H   0  0  0  0  0  0  0  0  0  0  0  0
  137.4842   78.0903  221.7386 H   0  0  0  0  0  0  0  0  0  0  0  0
  136.3498   79.0670  223.7260 H   0  0  0  0  0  0  0  0  0  0  0  0
  135.4469   83.8369  226.4209 H   0  0  0  0  0  0  0  0  0  0  0  0
  134.3299   84.7762  228.4485 H   0  0  0  0  0  0  0  0  0  0  0  0
  134.3546   83.4985  230.5956 H   0  0  0  0  0  0  0  0  0  0  0  0
  135.5140   81.2913  230.7219 H   0  0  0  0  0  0  0  0  0  0  0  0
  136.6421   80.3517  228.7009 H   0  0  0  0  0  0  0  0  0  0  0  0
  139.6663   81.7818  224.2960 H   0  0  0  0  0  0  0  0  0  0  0  0
  144.0780   79.6520  222.3030 H   0  0  0  0  0  0  0  0  0  0  0  0
  141.7859   80.3182  219.7245 H   0  0  0  0  0  0  0  0  0  0  0  0
  143.0782   79.1993  220.2699 H   0  0  0  0  0  0  0  0  0  0  0  0
  139.7892   76.2946  221.5327 H   0  0  0  0  0  0  0  0  0  0  0  0
  139.0721   73.4031  219.0561 H   0  0  0  0  0  0  0  0  0  0  0  0
  140.6767   72.6424  218.7169 H   0  0  0  0  0  0  0  0  0  0  0  0
  137.9990   71.2348  219.1430 H   0  0  0  0  0  0  0  0  0  0  0  0
  139.0083   71.3146  217.6311 H   0  0  0  0  0  0  0  0  0  0  0  0
  1  2  1  0
  2  3  1  0
  3  4  1  0
  4  5  1  0
  5  6  1  0
  6  7  2  0
  6  8  1  0
  8  9  2  0
  9 10  1  0
 10 11  2  0
 11 12  1  0
 12 13  1  0
 13 14  2  0
 14 15  1  0
 15 16  2  0
 16 17  1  0
 17 18  2  0
 18 19  1  0
 19 20  3  0
 20 21  1  0
 21 22  2  0
 22 23  1  0
 23 24  2  0
 24 25  1  0
 25 26  2  0
 18 27  1  0
 27 28  2  0
 28 29  1  0
 29 30  2  0
 30 31  1  0
 30 32  1  0
 12 33  2  0
  5 34  1  0
 34 35  1  0
 35  2  1  0
 33  8  1  0
 32 13  1  0
 28 15  1  0
 26 21  1  0
  1 36  1  0
  1 37  1  0
  1 38  1  0
  3 39  1  0
  3 40  1  0
  4 41  1  0
  4 42  1  0
  9 43  1  0
 10 44  1  0
 11 45  1  0
 16 46  1  0
 17 47  1  0
 22 48  1  0
 23 49  1  0
 24 50  1  0
 25 51  1  0
 26 52  1  0
 27 53  1  0
 31 54  1  0
 32 55  1  0
 32 56  1  0
 33 57  1  0
 34 58  1  0
 34 59  1  0
 35 60  1  0
 35 61  1  0
M  END
>  <UniqueID>  (55) 
37

>  <SMILES>  (55) 
CN1CCN(C(=O)c2cccc(C3=Nc4ccc(C#Cc5ccccc5)cc4N=C(O)C3)c2)CC1

>  <Energy>  (55) 
88.45939302911616

>  <Genealogy>  (55) 
CN1CCN(C(=O)c2cccc(C3=Nc4ccc(C#Cc5ccccc5)cc4N=C(O)C3)c2)CC1 (tautomer)
CN1CCN(C(=O)c2cccc(C3=Nc4ccc(C#Cc5ccccc5)cc4N=C(O)C3)c2)CC1 (3D coordinates assigned)
CN1CCN(C(=O)c2cccc(C3=Nc4ccc(C#Cc5ccccc5)cc4N=C(O)C3)c2)CC1 (nonaromatic ring conformer: 88.45939302911616 kcal/mol)

>  <smiles>  (55) 
CN1CCN(C(=O)c2cccc(C3=Nc4ccc(C#Cc5ccccc5)cc4NC(=O)C3)c2)CC1

>  <score_type>  (55) 
oracle

>  <origin>  (55) 
autodockgpu

>  <m_score__min__energy>  (55) 
-5.4500000000000002

>  <m_primary>  (55) 
energy

>  <meeko>  (55) 
{"free_energy": -5.27, "intermolecular_energy": -8.55, "internal_energy": -1.23, "cluster_size": 2, "cluster_id": 4, "rank_in_cluster": 1}

>  <energy>  (55) 
-4.25

>  <cluster_rmsd>  (55) 
0.21

>  <rmsd>  (55) 
268.98

>  <cluster>  (55) 
8

$$$$
RUYQROVMPDWUPI-ZYMSVLFVNA-N
     RDKit          3D

 61 65  0  0  0  0  0  0  0  0999 V2000
  138.8660   84.5370  221.5370 C   0  0  0  0  0  0  0  0  0  0  0  0
  138.9240   85.0410  220.1550 N   0  0  0  0  0  0  0  0  0  0  0  0
  140.3180   85.3880  219.7660 C   0  0  0  0  0  0  0  0  0  0  0  0
  140.6840   84.9600  218.3400 C   0  0  0  0  0  0  0  0  0  0  0  0
  140.3860   83.5350  218.1720 N   0  0  0  0  0  0  0  0  0  0  0  0
  141.2030   82.7250  217.3060 C   0  0  0  0  0  0  0  0  0  0  0  0
  141.7840   83.2550  216.3190 O   0  0  0  0  0  0  0  0  0  0  0  0
  141.3850   81.2790  217.5540 C   0  0  0  0  0  0  0  0  0  0  0  0
  141.8170   80.4300  216.5240 C   0  0  0  0  0  0  0  0  0  0  0  0
  141.9930   79.0670  216.7620 C   0  0  0  0  0  0  0  0  0  0  0  0
  141.7360   78.5340  218.0270 C   0  0  0  0  0  0  0  0  0  0  0  0
  141.2880   79.3650  219.0710 C   0  0  0  0  0  0  0  0  0  0  0  0
  140.9980   78.8030  220.4130 C   0  0  0  0  0  0  0  0  0  0  0  0
  139.7610   78.7520  220.8180 N   0  0  0  0  0  0  0  0  0  0  0  0
  139.1890   79.4470  221.9390 C   0  0  0  0  0  0  0  0  0  0  0  0
  137.8340   79.8000  221.8530 C   0  0  0  0  0  0  0  0  0  0  0  0
  137.1820   80.4040  222.9290 C   0  0  0  0  0  0  0  0  0  0  0  0
  137.8710   80.6390  224.1220 C   0  0  0  0  0  0  0  0  0  0  0  0
  137.1970   81.2470  225.2390 C   0  0  0  0  0  0  0  0  0  0  0  0
  136.6300   81.7590  226.1720 C   0  0  0  0  0  0  0  0  0  0  0  0
  135.9520   82.3740  227.2820 C   0  0  0  0  0  0  0  0  0  0  0  0
  135.5290   83.7080  227.1950 C   0  0  0  0  0  0  0  0  0  0  0  0
  134.8660   84.3030  228.2740 C   0  0  0  0  0  0  0  0  0  0  0  0
  134.6220   83.5670  229.4380 C   0  0  0  0  0  0  0  0  0  0  0  0
  135.0440   82.2380  229.5270 C   0  0  0  0  0  0  0  0  0  0  0  0
  135.7100   81.6410  228.4510 C   0  0  0  0  0  0  0  0  0  0  0  0
  139.2160   80.2690  224.2340 C   0  0  0  0  0  0  0  0  0  0  0  0
  139.8930   79.6860  223.1540 C   0  0  0  0  0  0  0  0  0  0  0  0
  141.2540   79.2740  223.3740 N   0  0  0  0  0  0  0  0  0  0  0  0
  142.2020   79.2240  222.4870 C   0  0  0  0  0  0  0  0  0  0  0  0
  143.3250   80.0330  222.6340 O   0  0  0  0  0  0  0  0  0  0  0  0
  142.1090   78.3250  221.3010 C   0  0  0  0  0  0  0  0  0  0  0  0
  141.0990   80.7380  218.8190 C   0  0  0  0  0  0  0  0  0  0  0  0
  139.1250   83.0030  218.7040 C   0  0  0  0  0  0  0  0  0  0  0  0
  138.2220   84.1340  219.2180 C   0  0  0  0  0  0  0  0  0  0  0  0
  138.9629   85.3787  222.2386 H   0  0  0  0  0  0  0  0  0  0  0  0
  137.9036   84.0306  221.7025 H   0  0  0  0  0  0  0  0  0  0  0  0
  139.6882   83.8252  221.7025 H   0  0  0  0  0  0  0  0  0  0  0  0
  140.4389   86.4786  219.8432 H   0  0  0  0  0  0  0  0  0  0  0  0
  140.9874   84.8425  220.4474 H   0  0  0  0  0  0  0  0  0  0  0  0
  140.0966   85.5461  217.6179 H   0  0  0  0  0  0  0  0  0  0  0  0
  141.7557   85.1361  218.1654 H   0  0  0  0  0  0  0  0  0  0  0  0
  142.0179   80.8413  215.5238 H   0  0  0  0  0  0  0  0  0  0  0  0
  142.3357   78.4090  215.9498 H   0  0  0  0  0  0  0  0  0  0  0  0
  141.8844   77.4593  218.2084 H   0  0  0  0  0  0  0  0  0  0  0  0
  137.2782   79.5981  220.9254 H   0  0  0  0  0  0  0  0  0  0  0  0
  136.1252   80.6953  222.8381 H   0  0  0  0  0  0  0  0  0  0  0  0
  135.7183   84.2866  226.2788 H   0  0  0  0  0  0  0  0  0  0  0  0
  134.5365   85.3503  228.2067 H   0  0  0  0  0  0  0  0  0  0  0  0
  134.0974   84.0348  230.2841 H   0  0  0  0  0  0  0  0  0  0  0  0
  134.8525   81.6607  230.4435 H   0  0  0  0  0  0  0  0  0  0  0  0
  136.0438   80.5954  228.5231 H   0  0  0  0  0  0  0  0  0  0  0  0
  139.7486   80.4378  225.1815 H   0  0  0  0  0  0  0  0  0  0  0  0
  144.2210   79.7630  222.2430 H   0  0  0  0  0  0  0  0  0  0  0  0
  143.0590   78.3456  220.7469 H   0  0  0  0  0  0  0  0  0  0  0  0
  141.9057   77.2951  221.6297 H   0  0  0  0  0  0  0  0  0  0  0  0
  140.7242   81.3926  219.6197 H   0  0  0  0  0  0  0  0  0  0  0  0
  138.5996   82.4581  217.9058 H   0  0  0  0  0  0  0  0  0  0  0  0
  139.3555   82.3305  219.5434 H   0  0  0  0  0  0  0  0  0  0  0  0
  137.8682   84.7211  218.3577 H   0  0  0  0  0  0  0  0  0  0  0  0
  137.3866   83.6717  219.7643 H   0  0  0  0  0  0  0  0  0  0  0  0
  1  2  1  0
  2  3  1  0
  3  4  1  0
  4  5  1  0
  5  6  1  0
  6  7  2  0
  6  8  1  0
  8  9  2  0
  9 10  1  0
 10 11  2  0
 11 12  1  0
 12 13  1  0
 13 14  2  0
 14 15  1  0
 15 16  2  0
 16 17  1  0
 17 18  2  0
 18 19  1  0
 19 20  3  0
 20 21  1  0
 21 22  2  0
 22 23  1  0
 23 24  2  0
 24 25  1  0
 25 26  2  0
 18 27  1  0
 27 28  2  0
 28 29  1  0
 29 30  2  0
 30 31  1  0
 30 32  1  0
 12 33  2  0
  5 34  1  0
 34 35  1  0
 35  2  1  0
 33  8  1  0
 32 13  1  0
 28 15  1  0
 26 21  1  0
  1 36  1  0
  1 37  1  0
  1 38  1  0
  3 39  1  0
  3 40  1  0
  4 41  1  0
  4 42  1  0
  9 43  1  0
 10 44  1  0
 11 45  1  0
 16 46  1  0
 17 47  1  0
 22 48  1  0
 23 49  1  0
 24 50  1  0
 25 51  1  0
 26 52  1  0
 27 53  1  0
 31 54  1  0
 32 55  1  0
 32 56  1  0
 33 57  1  0
 34 58  1  0
 34 59  1  0
 35 60  1  0
 35 61  1  0
M  END
>  <UniqueID>  (56) 
37

>  <SMILES>  (56) 
CN1CCN(C(=O)c2cccc(C3=Nc4ccc(C#Cc5ccccc5)cc4N=C(O)C3)c2)CC1

>  <Energy>  (56) 
88.45939302911616

>  <Genealogy>  (56) 
CN1CCN(C(=O)c2cccc(C3=Nc4ccc(C#Cc5ccccc5)cc4N=C(O)C3)c2)CC1 (tautomer)
CN1CCN(C(=O)c2cccc(C3=Nc4ccc(C#Cc5ccccc5)cc4N=C(O)C3)c2)CC1 (3D coordinates assigned)
CN1CCN(C(=O)c2cccc(C3=Nc4ccc(C#Cc5ccccc5)cc4N=C(O)C3)c2)CC1 (nonaromatic ring conformer: 88.45939302911616 kcal/mol)

>  <smiles>  (56) 
CN1CCN(C(=O)c2cccc(C3=Nc4ccc(C#Cc5ccccc5)cc4NC(=O)C3)c2)CC1

>  <score_type>  (56) 
oracle

>  <origin>  (56) 
autodockgpu

>  <m_score__min__energy>  (56) 
-5.4500000000000002

>  <m_primary>  (56) 
energy

>  <meeko>  (56) 
{"free_energy": -4.51, "intermolecular_energy": -7.79, "internal_energy": -1.44, "cluster_size": 1, "cluster_id": 9, "rank_in_cluster": 1}

>  <energy>  (56) 
-4.51

>  <cluster_rmsd>  (56) 
0.0

>  <rmsd>  (56) 
270.52

>  <cluster>  (56) 
9

$$$$
RUYQROVMPDWUPI-ZYMSVLFVNA-N
     RDKit          3D

 61 65  0  0  0  0  0  0  0  0999 V2000
  143.3690   80.5860  223.9410 C   0  0  0  0  0  0  0  0  0  0  0  0
  141.9050   80.6450  223.7860 N   0  0  0  0  0  0  0  0  0  0  0  0
  141.5070   81.7070  222.8230 C   0  0  0  0  0  0  0  0  0  0  0  0
  140.3760   81.2870  221.8770 C   0  0  0  0  0  0  0  0  0  0  0  0
  140.7390   80.0300  221.2170 N   0  0  0  0  0  0  0  0  0  0  0  0
  140.2990   79.7690  219.8710 C   0  0  0  0  0  0  0  0  0  0  0  0
  139.2250   80.2850  219.4540 O   0  0  0  0  0  0  0  0  0  0  0  0
  141.0860   78.9130  218.9590 C   0  0  0  0  0  0  0  0  0  0  0  0
  141.8820   79.4870  217.9560 C   0  0  0  0  0  0  0  0  0  0  0  0
  142.6290   78.6780  217.1000 C   0  0  0  0  0  0  0  0  0  0  0  0
  142.5850   77.2880  217.2290 C   0  0  0  0  0  0  0  0  0  0  0  0
  141.7820   76.6900  218.2180 C   0  0  0  0  0  0  0  0  0  0  0  0
  141.7180   75.2140  218.3500 C   0  0  0  0  0  0  0  0  0  0  0  0
  140.7110   74.6820  218.9820 N   0  0  0  0  0  0  0  0  0  0  0  0
  140.7570   73.9290  220.2050 C   0  0  0  0  0  0  0  0  0  0  0  0
  139.6440   74.0130  221.0540 C   0  0  0  0  0  0  0  0  0  0  0  0
  139.5750   73.2500  222.2210 C   0  0  0  0  0  0  0  0  0  0  0  0
  140.6100   72.3660  222.5420 C   0  0  0  0  0  0  0  0  0  0  0  0
  140.5330   71.5660  223.7360 C   0  0  0  0  0  0  0  0  0  0  0  0
  140.4730   70.8950  224.7350 C   0  0  0  0  0  0  0  0  0  0  0  0
  140.4040   70.0970  225.9310 C   0  0  0  0  0  0  0  0  0  0  0  0
  140.0910   68.7330  225.8480 C   0  0  0  0  0  0  0  0  0  0  0  0
  140.0290   67.9580  227.0110 C   0  0  0  0  0  0  0  0  0  0  0  0
  140.2820   68.5420  228.2560 C   0  0  0  0  0  0  0  0  0  0  0  0
  140.5920   69.9020  228.3410 C   0  0  0  0  0  0  0  0  0  0  0  0
  140.6530   70.6810  227.1800 C   0  0  0  0  0  0  0  0  0  0  0  0
  141.7150   72.2510  221.6920 C   0  0  0  0  0  0  0  0  0  0  0  0
  141.8130   73.0290  220.5300 C   0  0  0  0  0  0  0  0  0  0  0  0
  142.9490   72.8010  219.6770 N   0  0  0  0  0  0  0  0  0  0  0  0
  143.5380   73.6760  218.9180 C   0  0  0  0  0  0  0  0  0  0  0  0
  144.8710   74.0030  219.1530 O   0  0  0  0  0  0  0  0  0  0  0  0
  142.8080   74.3470  217.7900 C   0  0  0  0  0  0  0  0  0  0  0  0
  141.0200   77.5140  219.0690 C   0  0  0  0  0  0  0  0  0  0  0  0
  141.3480   78.9570  222.0140 C   0  0  0  0  0  0  0  0  0  0  0  0
  141.3360   79.3050  223.5090 C   0  0  0  0  0  0  0  0  0  0  0  0
  143.6243   80.5757  225.0109 H   0  0  0  0  0  0  0  0  0  0  0  0
  143.7517   79.6717  223.4639 H   0  0  0  0  0  0  0  0  0  0  0  0
  143.8240   81.4665  223.4639 H   0  0  0  0  0  0  0  0  0  0  0  0
  141.1742   82.5865  223.3936 H   0  0  0  0  0  0  0  0  0  0  0  0
  142.3866   81.9212  222.1982 H   0  0  0  0  0  0  0  0  0  0  0  0
  139.4491   81.1458  222.4522 H   0  0  0  0  0  0  0  0  0  0  0  0
  140.2192   82.0692  221.1197 H   0  0  0  0  0  0  0  0  0  0  0  0
  141.9170   80.5808  217.8443 H   0  0  0  0  0  0  0  0  0  0  0  0
  143.2551   79.1364  216.3204 H   0  0  0  0  0  0  0  0  0  0  0  0
  143.1815   76.6570  216.5537 H   0  0  0  0  0  0  0  0  0  0  0  0
  138.8148   74.6887  220.7971 H   0  0  0  0  0  0  0  0  0  0  0  0
  138.7058   73.3442  222.8886 H   0  0  0  0  0  0  0  0  0  0  0  0
  139.8942   68.2723  224.8687 H   0  0  0  0  0  0  0  0  0  0  0  0
  139.7810   66.8883  226.9460 H   0  0  0  0  0  0  0  0  0  0  0  0
  140.2370   67.9305  229.1692 H   0  0  0  0  0  0  0  0  0  0  0  0
  140.7882   70.3606  229.3214 H   0  0  0  0  0  0  0  0  0  0  0  0
  140.8964   71.7516  227.2480 H   0  0  0  0  0  0  0  0  0  0  0  0
  142.5178   71.5406  221.9387 H   0  0  0  0  0  0  0  0  0  0  0  0
  145.4370   74.4410  218.4340 H   0  0  0  0  0  0  0  0  0  0  0  0
  143.5113   74.9668  217.2145 H   0  0  0  0  0  0  0  0  0  0  0  0
  142.3694   73.5843  217.1298 H   0  0  0  0  0  0  0  0  0  0  0  0
  140.3668   77.0576  219.8273 H   0  0  0  0  0  0  0  0  0  0  0  0
  140.7818   78.0271  221.8569 H   0  0  0  0  0  0  0  0  0  0  0  0
  142.3925   78.8324  221.6924 H   0  0  0  0  0  0  0  0  0  0  0  0
  140.2964   79.2825  223.8678 H   0  0  0  0  0  0  0  0  0  0  0  0
  141.9604   78.5636  224.0290 H   0  0  0  0  0  0  0  0  0  0  0  0
  1  2  1  0
  2  3  1  0
  3  4  1  0
  4  5  1  0
  5  6  1  0
  6  7  2  0
  6  8  1  0
  8  9  2  0
  9 10  1  0
 10 11  2  0
 11 12  1  0
 12 13  1  0
 13 14  2  0
 14 15  1  0
 15 16  2  0
 16 17  1  0
 17 18  2  0
 18 19  1  0
 19 20  3  0
 20 21  1  0
 21 22  2  0
 22 23  1  0
 23 24  2  0
 24 25  1  0
 25 26  2  0
 18 27  1  0
 27 28  2  0
 28 29  1  0
 29 30  2  0
 30 31  1  0
 30 32  1  0
 12 33  2  0
  5 34  1  0
 34 35  1  0
 35  2  1  0
 33  8  1  0
 32 13  1  0
 28 15  1  0
 26 21  1  0
  1 36  1  0
  1 37  1  0
  1 38  1  0
  3 39  1  0
  3 40  1  0
  4 41  1  0
  4 42  1  0
  9 43  1  0
 10 44  1  0
 11 45  1  0
 16 46  1  0
 17 47  1  0
 22 48  1  0
 23 49  1  0
 24 50  1  0
 25 51  1  0
 26 52  1  0
 27 53  1  0
 31 54  1  0
 32 55  1  0
 32 56  1  0
 33 57  1  0
 34 58  1  0
 34 59  1  0
 35 60  1  0
 35 61  1  0
M  END
>  <UniqueID>  (57) 
37

>  <SMILES>  (57) 
CN1CCN(C(=O)c2cccc(C3=Nc4ccc(C#Cc5ccccc5)cc4N=C(O)C3)c2)CC1

>  <Energy>  (57) 
88.45939302911616

>  <Genealogy>  (57) 
CN1CCN(C(=O)c2cccc(C3=Nc4ccc(C#Cc5ccccc5)cc4N=C(O)C3)c2)CC1 (tautomer)
CN1CCN(C(=O)c2cccc(C3=Nc4ccc(C#Cc5ccccc5)cc4N=C(O)C3)c2)CC1 (3D coordinates assigned)
CN1CCN(C(=O)c2cccc(C3=Nc4ccc(C#Cc5ccccc5)cc4N=C(O)C3)c2)CC1 (nonaromatic ring conformer: 88.45939302911616 kcal/mol)

>  <smiles>  (57) 
CN1CCN(C(=O)c2cccc(C3=Nc4ccc(C#Cc5ccccc5)cc4NC(=O)C3)c2)CC1

>  <score_type>  (57) 
oracle

>  <origin>  (57) 
autodockgpu

>  <m_score__min__energy>  (57) 
-5.4500000000000002

>  <m_primary>  (57) 
energy

>  <meeko>  (57) 
{"free_energy": -5.25, "intermolecular_energy": -8.53, "internal_energy": -1.26, "cluster_size": 4, "cluster_id": 2, "rank_in_cluster": 2}

>  <energy>  (57) 
-4.48

>  <cluster_rmsd>  (57) 
0.0

>  <rmsd>  (57) 
271.02

>  <cluster>  (57) 
10

$$$$
RUYQROVMPDWUPI-ZYMSVLFVNA-N
     RDKit          3D

 61 65  0  0  0  0  0  0  0  0999 V2000
  139.6570   71.0860  224.7860 C   0  0  0  0  0  0  0  0  0  0  0  0
  138.9010   70.7580  223.5650 N   0  0  0  0  0  0  0  0  0  0  0  0
  137.7770   71.7110  223.3540 C   0  0  0  0  0  0  0  0  0  0  0  0
  137.6010   72.1400  221.8930 C   0  0  0  0  0  0  0  0  0  0  0  0
  138.8770   72.6450  221.3800 N   0  0  0  0  0  0  0  0  0  0  0  0
  138.8920   73.7010  220.4010 C   0  0  0  0  0  0  0  0  0  0  0  0
  137.9230   73.8270  219.6030 O   0  0  0  0  0  0  0  0  0  0  0  0
  140.0210   74.6520  220.3170 C   0  0  0  0  0  0  0  0  0  0  0  0
  141.3230   74.1900  220.0700 C   0  0  0  0  0  0  0  0  0  0  0  0
  142.3850   75.0900  219.9860 C   0  0  0  0  0  0  0  0  0  0  0  0
  142.1640   76.4580  220.1530 C   0  0  0  0  0  0  0  0  0  0  0  0
  140.8680   76.9420  220.4160 C   0  0  0  0  0  0  0  0  0  0  0  0
  140.6290   78.3930  220.6100 C   0  0  0  0  0  0  0  0  0  0  0  0
  139.4030   78.8170  220.7360 N   0  0  0  0  0  0  0  0  0  0  0  0
  138.8310   79.4860  221.8710 C   0  0  0  0  0  0  0  0  0  0  0  0
  137.5250   79.1290  222.2380 C   0  0  0  0  0  0  0  0  0  0  0  0
  136.9270   79.6730  223.3760 C   0  0  0  0  0  0  0  0  0  0  0  0
  137.6400   80.5630  224.1840 C   0  0  0  0  0  0  0  0  0  0  0  0
  137.0310   81.1130  225.3670 C   0  0  0  0  0  0  0  0  0  0  0  0
  136.5240   81.5760  226.3570 C   0  0  0  0  0  0  0  0  0  0  0  0
  135.9140   82.1300  227.5370 C   0  0  0  0  0  0  0  0  0  0  0  0
  135.1610   83.3100  227.4500 C   0  0  0  0  0  0  0  0  0  0  0  0
  134.5650   83.8450  228.5970 C   0  0  0  0  0  0  0  0  0  0  0  0
  134.7170   83.2030  229.8300 C   0  0  0  0  0  0  0  0  0  0  0  0
  135.4680   82.0280  229.9180 C   0  0  0  0  0  0  0  0  0  0  0  0
  136.0680   81.4910  228.7740 C   0  0  0  0  0  0  0  0  0  0  0  0
  138.9530   80.9090  223.8480 C   0  0  0  0  0  0  0  0  0  0  0  0
  139.5590   80.3940  222.6930 C   0  0  0  0  0  0  0  0  0  0  0  0
  140.9340   80.7470  222.4570 N   0  0  0  0  0  0  0  0  0  0  0  0
  141.8670   79.9700  221.9940 C   0  0  0  0  0  0  0  0  0  0  0  0
  142.9910   79.7080  222.7710 O   0  0  0  0  0  0  0  0  0  0  0  0
  141.7740   79.3630  220.6350 C   0  0  0  0  0  0  0  0  0  0  0  0
  139.8030   76.0260  220.5140 C   0  0  0  0  0  0  0  0  0  0  0  0
  140.1110   71.9150  221.6950 C   0  0  0  0  0  0  0  0  0  0  0  0
  139.8010   70.5870  222.4010 C   0  0  0  0  0  0  0  0  0  0  0  0
  139.0566   70.8255  225.6701 H   0  0  0  0  0  0  0  0  0  0  0  0
  140.5969   70.5148  224.7998 H   0  0  0  0  0  0  0  0  0  0  0  0
  139.8820   72.1627  224.7998 H   0  0  0  0  0  0  0  0  0  0  0  0
  136.8462   71.2304  223.6897 H   0  0  0  0  0  0  0  0  0  0  0  0
  138.0114   72.6182  223.9302 H   0  0  0  0  0  0  0  0  0  0  0  0
  137.2794   71.2763  221.2925 H   0  0  0  0  0  0  0  0  0  0  0  0
  136.8394   72.9312  221.8303 H   0  0  0  0  0  0  0  0  0  0  0  0
  141.5067   73.1130  219.9421 H   0  0  0  0  0  0  0  0  0  0  0  0
  143.4016   74.7200  219.7872 H   0  0  0  0  0  0  0  0  0  0  0  0
  143.0063   77.1615  220.0788 H   0  0  0  0  0  0  0  0  0  0  0  0
  136.9648   78.4110  221.6210 H   0  0  0  0  0  0  0  0  0  0  0  0
  135.8936   79.4009  223.6371 H   0  0  0  0  0  0  0  0  0  0  0  0
  135.0391   83.8146  226.4802 H   0  0  0  0  0  0  0  0  0  0  0  0
  133.9762   84.7716  228.5289 H   0  0  0  0  0  0  0  0  0  0  0  0
  134.2453   83.6230  230.7306 H   0  0  0  0  0  0  0  0  0  0  0  0
  135.5877   81.5243  230.8886 H   0  0  0  0  0  0  0  0  0  0  0  0
  136.6606   80.5671  228.8459 H   0  0  0  0  0  0  0  0  0  0  0  0
  139.5174   81.5938  224.4981 H   0  0  0  0  0  0  0  0  0  0  0  0
  143.9120   79.6360  222.3530 H   0  0  0  0  0  0  0  0  0  0  0  0
  141.6041   80.1533  219.8890 H   0  0  0  0  0  0  0  0  0  0  0  0
  142.7110   78.8378  220.3978 H   0  0  0  0  0  0  0  0  0  0  0  0
  138.7912   76.3894  220.7469 H   0  0  0  0  0  0  0  0  0  0  0  0
  140.6543   71.7076  220.7613 H   0  0  0  0  0  0  0  0  0  0  0  0
  140.7222   72.5346  222.3676 H   0  0  0  0  0  0  0  0  0  0  0  0
  139.3205   69.9087  221.6806 H   0  0  0  0  0  0  0  0  0  0  0  0
  140.7518   70.1767  222.7721 H   0  0  0  0  0  0  0  0  0  0  0  0
  1  2  1  0
  2  3  1  0
  3  4  1  0
  4  5  1  0
  5  6  1  0
  6  7  2  0
  6  8  1  0
  8  9  2  0
  9 10  1  0
 10 11  2  0
 11 12  1  0
 12 13  1  0
 13 14  2  0
 14 15  1  0
 15 16  2  0
 16 17  1  0
 17 18  2  0
 18 19  1  0
 19 20  3  0
 20 21  1  0
 21 22  2  0
 22 23  1  0
 23 24  2  0
 24 25  1  0
 25 26  2  0
 18 27  1  0
 27 28  2  0
 28 29  1  0
 29 30  2  0
 30 31  1  0
 30 32  1  0
 12 33  2  0
  5 34  1  0
 34 35  1  0
 35  2  1  0
 33  8  1  0
 32 13  1  0
 28 15  1  0
 26 21  1  0
  1 36  1  0
  1 37  1  0
  1 38  1  0
  3 39  1  0
  3 40  1  0
  4 41  1  0
  4 42  1  0
  9 43  1  0
 10 44  1  0
 11 45  1  0
 16 46  1  0
 17 47  1  0
 22 48  1  0
 23 49  1  0
 24 50  1  0
 25 51  1  0
 26 52  1  0
 27 53  1  0
 31 54  1  0
 32 55  1  0
 32 56  1  0
 33 57  1  0
 34 58  1  0
 34 59  1  0
 35 60  1  0
 35 61  1  0
M  END
>  <UniqueID>  (58) 
37

>  <SMILES>  (58) 
CN1CCN(C(=O)c2cccc(C3=Nc4ccc(C#Cc5ccccc5)cc4N=C(O)C3)c2)CC1

>  <Energy>  (58) 
88.45939302911616

>  <Genealogy>  (58) 
CN1CCN(C(=O)c2cccc(C3=Nc4ccc(C#Cc5ccccc5)cc4N=C(O)C3)c2)CC1 (tautomer)
CN1CCN(C(=O)c2cccc(C3=Nc4ccc(C#Cc5ccccc5)cc4N=C(O)C3)c2)CC1 (3D coordinates assigned)
CN1CCN(C(=O)c2cccc(C3=Nc4ccc(C#Cc5ccccc5)cc4N=C(O)C3)c2)CC1 (nonaromatic ring conformer: 88.45939302911616 kcal/mol)

>  <smiles>  (58) 
CN1CCN(C(=O)c2cccc(C3=Nc4ccc(C#Cc5ccccc5)cc4NC(=O)C3)c2)CC1

>  <score_type>  (58) 
oracle

>  <origin>  (58) 
autodockgpu

>  <m_score__min__energy>  (58) 
-5.4500000000000002

>  <m_primary>  (58) 
energy

>  <meeko>  (58) 
{"free_energy": -4.88, "intermolecular_energy": -8.16, "internal_energy": -1.11, "cluster_size": 2, "cluster_id": 4, "rank_in_cluster": 2}

>  <energy>  (58) 
-4.46

>  <cluster_rmsd>  (58) 
0.0

>  <rmsd>  (58) 
269.09

>  <cluster>  (58) 
11

$$$$
RUYQROVMPDWUPI-ZYMSVLFVNA-N
     RDKit          3D

 61 65  0  0  0  0  0  0  0  0999 V2000
  143.6560   70.4560  220.0350 C   0  0  0  0  0  0  0  0  0  0  0  0
  144.9340   70.7300  219.3570 N   0  0  0  0  0  0  0  0  0  0  0  0
  144.8170   70.5330  217.8860 C   0  0  0  0  0  0  0  0  0  0  0  0
  145.5400   71.6050  217.0630 C   0  0  0  0  0  0  0  0  0  0  0  0
  145.0920   72.9320  217.4960 N   0  0  0  0  0  0  0  0  0  0  0  0
  145.0110   74.0110  216.5460 C   0  0  0  0  0  0  0  0  0  0  0  0
  145.7810   74.0220  215.5460 O   0  0  0  0  0  0  0  0  0  0  0  0
  144.0330   75.1070  216.7110 C   0  0  0  0  0  0  0  0  0  0  0  0
  144.2110   76.3260  216.0390 C   0  0  0  0  0  0  0  0  0  0  0  0
  143.2840   77.3570  216.1920 C   0  0  0  0  0  0  0  0  0  0  0  0
  142.1740   77.1870  217.0210 C   0  0  0  0  0  0  0  0  0  0  0  0
  141.9830   75.9780  217.7170 C   0  0  0  0  0  0  0  0  0  0  0  0
  140.8140   75.7980  218.6120 C   0  0  0  0  0  0  0  0  0  0  0  0
  140.2940   74.6100  218.7340 N   0  0  0  0  0  0  0  0  0  0  0  0
  140.1920   73.8300  219.9370 C   0  0  0  0  0  0  0  0  0  0  0  0
  140.4340   72.4520  219.8330 C   0  0  0  0  0  0  0  0  0  0  0  0
  140.4350   71.6380  220.9660 C   0  0  0  0  0  0  0  0  0  0  0  0
  140.2210   72.1960  222.2300 C   0  0  0  0  0  0  0  0  0  0  0  0
  140.2380   71.3610  223.4020 C   0  0  0  0  0  0  0  0  0  0  0  0
  140.2480   70.6600  224.3820 C   0  0  0  0  0  0  0  0  0  0  0  0
  140.2630   69.8190  225.5500 C   0  0  0  0  0  0  0  0  0  0  0  0
  140.9140   70.2470  226.7160 C   0  0  0  0  0  0  0  0  0  0  0  0
  140.9240   69.4300  227.8510 C   0  0  0  0  0  0  0  0  0  0  0  0
  140.2830   68.1870  227.8260 C   0  0  0  0  0  0  0  0  0  0  0  0
  139.6360   67.7580  226.6640 C   0  0  0  0  0  0  0  0  0  0  0  0
  139.6260   68.5710  225.5260 C   0  0  0  0  0  0  0  0  0  0  0  0
  140.0050   73.5730  222.3540 C   0  0  0  0  0  0  0  0  0  0  0  0
  139.9740   74.4010  221.2240 C   0  0  0  0  0  0  0  0  0  0  0  0
  139.8130   75.8130  221.4450 N   0  0  0  0  0  0  0  0  0  0  0  0
  140.4120   76.7730  220.8060 C   0  0  0  0  0  0  0  0  0  0  0  0
  141.2420   77.6480  221.5010 O   0  0  0  0  0  0  0  0  0  0  0  0
  140.2200   76.9660  219.3430 C   0  0  0  0  0  0  0  0  0  0  0  0
  142.9310   74.9480  217.5680 C   0  0  0  0  0  0  0  0  0  0  0  0
  144.9520   73.2030  218.9320 C   0  0  0  0  0  0  0  0  0  0  0  0
  145.4960   72.0370  219.7700 C   0  0  0  0  0  0  0  0  0  0  0  0
  143.8047   70.4879  221.1244 H   0  0  0  0  0  0  0  0  0  0  0  0
  142.9160   71.2159  219.7435 H   0  0  0  0  0  0  0  0  0  0  0  0
  143.2926   69.4595  219.7435 H   0  0  0  0  0  0  0  0  0  0  0  0
  145.2449   69.5521  217.6316 H   0  0  0  0  0  0  0  0  0  0  0  0
  143.7480   70.6013  217.6358 H   0  0  0  0  0  0  0  0  0  0  0  0
  146.6256   71.5156  217.2159 H   0  0  0  0  0  0  0  0  0  0  0  0
  145.3097   71.4682  215.9961 H   0  0  0  0  0  0  0  0  0  0  0  0
  145.0862   76.4692  215.3882 H   0  0  0  0  0  0  0  0  0  0  0  0
  143.4283   78.3075  215.6574 H   0  0  0  0  0  0  0  0  0  0  0  0
  141.4440   78.0025  217.1312 H   0  0  0  0  0  0  0  0  0  0  0  0
  140.6255   72.0076  218.8452 H   0  0  0  0  0  0  0  0  0  0  0  0
  140.6044   70.5558  220.8648 H   0  0  0  0  0  0  0  0  0  0  0  0
  141.4167   71.2252  226.7379 H   0  0  0  0  0  0  0  0  0  0  0  0
  141.4366   69.7653  228.7646 H   0  0  0  0  0  0  0  0  0  0  0  0
  140.2882   67.5473  228.7208 H   0  0  0  0  0  0  0  0  0  0  0  0
  139.1339   66.7795  226.6443 H   0  0  0  0  0  0  0  0  0  0  0  0
  139.1179   68.2306  224.6117 H   0  0  0  0  0  0  0  0  0  0  0  0
  139.8576   74.0114  223.3521 H   0  0  0  0  0  0  0  0  0  0  0  0
  142.2210   77.4300  221.6570 H   0  0  0  0  0  0  0  0  0  0  0  0
  139.1453   77.0335  219.1182 H   0  0  0  0  0  0  0  0  0  0  0  0
  140.7157   77.8945  219.0233 H   0  0  0  0  0  0  0  0  0  0  0  0
  142.8078   74.0093  218.1281 H   0  0  0  0  0  0  0  0  0  0  0  0
  145.5116   74.1165  219.1815 H   0  0  0  0  0  0  0  0  0  0  0  0
  143.8836   73.3295  219.1612 H   0  0  0  0  0  0  0  0  0  0  0  0
  146.5897   72.0020  219.6575 H   0  0  0  0  0  0  0  0  0  0  0  0
  145.2020   72.2115  220.8155 H   0  0  0  0  0  0  0  0  0  0  0  0
  1  2  1  0
  2  3  1  0
  3  4  1  0
  4  5  1  0
  5  6  1  0
  6  7  2  0
  6  8  1  0
  8  9  2  0
  9 10  1  0
 10 11  2  0
 11 12  1  0
 12 13  1  0
 13 14  2  0
 14 15  1  0
 15 16  2  0
 16 17  1  0
 17 18  2  0
 18 19  1  0
 19 20  3  0
 20 21  1  0
 21 22  2  0
 22 23  1  0
 23 24  2  0
 24 25  1  0
 25 26  2  0
 18 27  1  0
 27 28  2  0
 28 29  1  0
 29 30  2  0
 30 31  1  0
 30 32  1  0
 12 33  2  0
  5 34  1  0
 34 35  1  0
 35  2  1  0
 33  8  1  0
 32 13  1  0
 28 15  1  0
 26 21  1  0
  1 36  1  0
  1 37  1  0
  1 38  1  0
  3 39  1  0
  3 40  1  0
  4 41  1  0
  4 42  1  0
  9 43  1  0
 10 44  1  0
 11 45  1  0
 16 46  1  0
 17 47  1  0
 22 48  1  0
 23 49  1  0
 24 50  1  0
 25 51  1  0
 26 52  1  0
 27 53  1  0
 31 54  1  0
 32 55  1  0
 32 56  1  0
 33 57  1  0
 34 58  1  0
 34 59  1  0
 35 60  1  0
 35 61  1  0
M  END
>  <UniqueID>  (59) 
37

>  <SMILES>  (59) 
CN1CCN(C(=O)c2cccc(C3=Nc4ccc(C#Cc5ccccc5)cc4N=C(O)C3)c2)CC1

>  <Energy>  (59) 
88.45939302911616

>  <Genealogy>  (59) 
CN1CCN(C(=O)c2cccc(C3=Nc4ccc(C#Cc5ccccc5)cc4N=C(O)C3)c2)CC1 (tautomer)
CN1CCN(C(=O)c2cccc(C3=Nc4ccc(C#Cc5ccccc5)cc4N=C(O)C3)c2)CC1 (3D coordinates assigned)
CN1CCN(C(=O)c2cccc(C3=Nc4ccc(C#Cc5ccccc5)cc4N=C(O)C3)c2)CC1 (nonaromatic ring conformer: 88.45939302911616 kcal/mol)

>  <smiles>  (59) 
CN1CCN(C(=O)c2cccc(C3=Nc4ccc(C#Cc5ccccc5)cc4NC(=O)C3)c2)CC1

>  <score_type>  (59) 
oracle

>  <origin>  (59) 
autodockgpu

>  <m_score__min__energy>  (59) 
-5.4500000000000002

>  <m_primary>  (59) 
energy

>  <meeko>  (59) 
{"free_energy": -4.78, "intermolecular_energy": -8.06, "internal_energy": -1.5, "cluster_size": 1, "cluster_id": 6, "rank_in_cluster": 1}

>  <energy>  (59) 
-4.3

>  <cluster_rmsd>  (59) 
0.0

>  <rmsd>  (59) 
268.21

>  <cluster>  (59) 
12

$$$$
RUYQROVMPDWUPI-ZYMSVLFVNA-N
     RDKit          3D

 61 65  0  0  0  0  0  0  0  0999 V2000
  143.2590   79.9240  222.7600 C   0  0  0  0  0  0  0  0  0  0  0  0
  142.4760   81.1640  222.8940 N   0  0  0  0  0  0  0  0  0  0  0  0
  141.8070   81.5200  221.6130 C   0  0  0  0  0  0  0  0  0  0  0  0
  140.3710   82.0260  221.7890 C   0  0  0  0  0  0  0  0  0  0  0  0
  139.6080   81.0530  222.5760 N   0  0  0  0  0  0  0  0  0  0  0  0
  138.2020   80.8670  222.3250 C   0  0  0  0  0  0  0  0  0  0  0  0
  137.5160   81.8250  221.8750 O   0  0  0  0  0  0  0  0  0  0  0  0
  137.5440   79.5670  222.5750 C   0  0  0  0  0  0  0  0  0  0  0  0
  136.3540   79.5040  223.3170 C   0  0  0  0  0  0  0  0  0  0  0  0
  135.7320   78.2770  223.5470 C   0  0  0  0  0  0  0  0  0  0  0  0
  136.2920   77.0990  223.0470 C   0  0  0  0  0  0  0  0  0  0  0  0
  137.4920   77.1370  222.3140 C   0  0  0  0  0  0  0  0  0  0  0  0
  138.1000   75.8880  221.7950 C   0  0  0  0  0  0  0  0  0  0  0  0
  139.3970   75.8180  221.6850 N   0  0  0  0  0  0  0  0  0  0  0  0
  140.1690   74.6810  221.2670 C   0  0  0  0  0  0  0  0  0  0  0  0
  141.3870   74.9340  220.6180 C   0  0  0  0  0  0  0  0  0  0  0  0
  142.2350   73.8870  220.2540 C   0  0  0  0  0  0  0  0  0  0  0  0
  141.8900   72.5670  220.5600 C   0  0  0  0  0  0  0  0  0  0  0  0
  142.7700   71.4870  220.2000 C   0  0  0  0  0  0  0  0  0  0  0  0
  143.5040   70.5800  219.8990 C   0  0  0  0  0  0  0  0  0  0  0  0
  144.3790   69.4930  219.5440 C   0  0  0  0  0  0  0  0  0  0  0  0
  143.9830   68.1690  219.7750 C   0  0  0  0  0  0  0  0  0  0  0  0
  144.8330   67.1140  219.4260 C   0  0  0  0  0  0  0  0  0  0  0  0
  146.0760   67.3790  218.8430 C   0  0  0  0  0  0  0  0  0  0  0  0
  146.4730   68.7000  218.6140 C   0  0  0  0  0  0  0  0  0  0  0  0
  145.6270   69.7570  218.9650 C   0  0  0  0  0  0  0  0  0  0  0  0
  140.6910   72.2990  221.2310 C   0  0  0  0  0  0  0  0  0  0  0  0
  139.8160   73.3370  221.5800 C   0  0  0  0  0  0  0  0  0  0  0  0
  138.6380   72.9820  222.3270 N   0  0  0  0  0  0  0  0  0  0  0  0
  137.4880   73.5880  222.2970 C   0  0  0  0  0  0  0  0  0  0  0  0
  136.4620   73.1540  223.1310 O   0  0  0  0  0  0  0  0  0  0  0  0
  137.2390   74.7330  221.3760 C   0  0  0  0  0  0  0  0  0  0  0  0
  138.1220   78.3780  222.0980 C   0  0  0  0  0  0  0  0  0  0  0  0
  140.2310   80.4490  223.7600 C   0  0  0  0  0  0  0  0  0  0  0  0
  141.5800   81.1120  224.0730 C   0  0  0  0  0  0  0  0  0  0  0  0
  143.5043   79.5355  223.7594 H   0  0  0  0  0  0  0  0  0  0  0  0
  142.6694   79.1756  222.2102 H   0  0  0  0  0  0  0  0  0  0  0  0
  144.1882   80.1347  222.2102 H   0  0  0  0  0  0  0  0  0  0  0  0
  142.3954   82.3085  221.1211 H   0  0  0  0  0  0  0  0  0  0  0  0
  141.7529   80.6005  221.0117 H   0  0  0  0  0  0  0  0  0  0  0  0
  140.3837   82.9932  222.3127 H   0  0  0  0  0  0  0  0  0  0  0  0
  139.9010   82.1520  220.8025 H   0  0  0  0  0  0  0  0  0  0  0  0
  135.9100   80.4267  223.7189 H   0  0  0  0  0  0  0  0  0  0  0  0
  134.7966   78.2368  224.1245 H   0  0  0  0  0  0  0  0  0  0  0  0
  135.7917   76.1361  223.2275 H   0  0  0  0  0  0  0  0  0  0  0  0
  141.6772   75.9709  220.3932 H   0  0  0  0  0  0  0  0  0  0  0  0
  143.1759   74.1005  219.7257 H   0  0  0  0  0  0  0  0  0  0  0  0
  143.0041   67.9591  220.2306 H   0  0  0  0  0  0  0  0  0  0  0  0
  144.5231   66.0748  219.6104 H   0  0  0  0  0  0  0  0  0  0  0  0
  146.7414   66.5485  218.5646 H   0  0  0  0  0  0  0  0  0  0  0  0
  147.4518   68.9082  218.1573 H   0  0  0  0  0  0  0  0  0  0  0  0
  145.9416   70.7958  218.7864 H   0  0  0  0  0  0  0  0  0  0  0  0
  140.4323   71.2611  221.4875 H   0  0  0  0  0  0  0  0  0  0  0  0
  136.6040   73.0610  224.1320 H   0  0  0  0  0  0  0  0  0  0  0  0
  137.4897   74.4399  220.3458 H   0  0  0  0  0  0  0  0  0  0  0  0
  136.1788   75.0229  221.4190 H   0  0  0  0  0  0  0  0  0  0  0  0
  139.0754   78.4170  221.5508 H   0  0  0  0  0  0  0  0  0  0  0  0
  139.5601   80.5746  224.6226 H   0  0  0  0  0  0  0  0  0  0  0  0
  140.4045   79.3818  223.5577 H   0  0  0  0  0  0  0  0  0  0  0  0
  141.3955   82.1391  224.4210 H   0  0  0  0  0  0  0  0  0  0  0  0
  142.0784   80.5060  224.8440 H   0  0  0  0  0  0  0  0  0  0  0  0
  1  2  1  0
  2  3  1  0
  3  4  1  0
  4  5  1  0
  5  6  1  0
  6  7  2  0
  6  8  1  0
  8  9  2  0
  9 10  1  0
 10 11  2  0
 11 12  1  0
 12 13  1  0
 13 14  2  0
 14 15  1  0
 15 16  2  0
 16 17  1  0
 17 18  2  0
 18 19  1  0
 19 20  3  0
 20 21  1  0
 21 22  2  0
 22 23  1  0
 23 24  2  0
 24 25  1  0
 25 26  2  0
 18 27  1  0
 27 28  2  0
 28 29  1  0
 29 30  2  0
 30 31  1  0
 30 32  1  0
 12 33  2  0
  5 34  1  0
 34 35  1  0
 35  2  1  0
 33  8  1  0
 32 13  1  0
 28 15  1  0
 26 21  1  0
  1 36  1  0
  1 37  1  0
  1 38  1  0
  3 39  1  0
  3 40  1  0
  4 41  1  0
  4 42  1  0
  9 43  1  0
 10 44  1  0
 11 45  1  0
 16 46  1  0
 17 47  1  0
 22 48  1  0
 23 49  1  0
 24 50  1  0
 25 51  1  0
 26 52  1  0
 27 53  1  0
 31 54  1  0
 32 55  1  0
 32 56  1  0
 33 57  1  0
 34 58  1  0
 34 59  1  0
 35 60  1  0
 35 61  1  0
M  END
>  <UniqueID>  (60) 
37

>  <SMILES>  (60) 
CN1CCN(C(=O)c2cccc(C3=Nc4ccc(C#Cc5ccccc5)cc4N=C(O)C3)c2)CC1

>  <Energy>  (60) 
88.45939302911616

>  <Genealogy>  (60) 
CN1CCN(C(=O)c2cccc(C3=Nc4ccc(C#Cc5ccccc5)cc4N=C(O)C3)c2)CC1 (tautomer)
CN1CCN(C(=O)c2cccc(C3=Nc4ccc(C#Cc5ccccc5)cc4N=C(O)C3)c2)CC1 (3D coordinates assigned)
CN1CCN(C(=O)c2cccc(C3=Nc4ccc(C#Cc5ccccc5)cc4N=C(O)C3)c2)CC1 (nonaromatic ring conformer: 88.45939302911616 kcal/mol)

>  <smiles>  (60) 
CN1CCN(C(=O)c2cccc(C3=Nc4ccc(C#Cc5ccccc5)cc4NC(=O)C3)c2)CC1

>  <score_type>  (60) 
oracle

>  <origin>  (60) 
autodockgpu

>  <m_score__min__energy>  (60) 
-5.4500000000000002

>  <m_primary>  (60) 
energy

>  <meeko>  (60) 
{"free_energy": -4.55, "intermolecular_energy": -7.84, "internal_energy": -1.21, "cluster_size": 2, "cluster_id": 8, "rank_in_cluster": 1}

>  <energy>  (60) 
-3.62

>  <cluster_rmsd>  (60) 
0.0

>  <rmsd>  (60) 
268.66

>  <cluster>  (60) 
13

$$$$
XUWAGCJCFKXBCU-VJSLDGLSNA-N
     RDKit          3D

 61 65  0  0  0  0  0  0  0  0999 V2000
  137.7470   81.6100  225.2540 C   0  0  0  0  0  0  0  0  0  0  0  0
  137.5270   80.8380  224.0200 N   0  0  0  0  0  0  0  0  0  0  0  0
  137.1930   81.6990  222.8650 C   0  0  0  0  0  0  0  0  0  0  0  0
  138.4080   82.4690  222.3290 C   0  0  0  0  0  0  0  0  0  0  0  0
  139.5270   81.5500  222.1110 N   0  0  0  0  0  0  0  0  0  0  0  0
  140.4860   81.8390  221.0800 C   0  0  0  0  0  0  0  0  0  0  0  0
  140.8130   83.0370  220.8570 O   0  0  0  0  0  0  0  0  0  0  0  0
  141.0790   80.7550  220.2610 C   0  0  0  0  0  0  0  0  0  0  0  0
  141.9740   81.0600  219.2230 C   0  0  0  0  0  0  0  0  0  0  0  0
  142.5350   80.0410  218.4510 C   0  0  0  0  0  0  0  0  0  0  0  0
  142.2030   78.7080  218.6980 C   0  0  0  0  0  0  0  0  0  0  0  0
  141.2910   78.3790  219.7150 C   0  0  0  0  0  0  0  0  0  0  0  0
  140.9540   76.9520  219.9660 C   0  0  0  0  0  0  0  0  0  0  0  0
  141.7880   76.2060  220.8580 N   0  0  0  0  0  0  0  0  0  0  0  0
  142.3860   74.9780  220.4440 C   0  0  0  0  0  0  0  0  0  0  0  0
  143.7830   74.8450  220.4970 C   0  0  0  0  0  0  0  0  0  0  0  0
  144.3960   73.6500  220.1190 C   0  0  0  0  0  0  0  0  0  0  0  0
  143.6160   72.5660  219.7040 C   0  0  0  0  0  0  0  0  0  0  0  0
  144.2450   71.3280  219.3240 C   0  0  0  0  0  0  0  0  0  0  0  0
  144.7720   70.2910  219.0060 C   0  0  0  0  0  0  0  0  0  0  0  0
  145.4000   69.0550  218.6250 C   0  0  0  0  0  0  0  0  0  0  0  0
  145.7300   68.8160  217.2840 C   0  0  0  0  0  0  0  0  0  0  0  0
  146.3430   67.6140  216.9170 C   0  0  0  0  0  0  0  0  0  0  0  0
  146.6250   66.6470  217.8880 C   0  0  0  0  0  0  0  0  0  0  0  0
  146.2970   66.8820  219.2260 C   0  0  0  0  0  0  0  0  0  0  0  0
  145.6850   68.0840  219.5970 C   0  0  0  0  0  0  0  0  0  0  0  0
  142.2220   72.6850  219.6710 C   0  0  0  0  0  0  0  0  0  0  0  0
  141.5970   73.8910  220.0280 C   0  0  0  0  0  0  0  0  0  0  0  0
  140.1640   73.9410  220.0750 N   0  0  0  0  0  0  0  0  0  0  0  0
  139.3550   75.0500  219.6580 C   0  0  0  0  0  0  0  0  0  0  0  0
  138.1230   74.8570  219.4760 O   0  0  0  0  0  0  0  0  0  0  0  0
  139.8800   76.4000  219.3750 C   0  0  0  0  0  0  0  0  0  0  0  0
  140.7350   79.4110  220.4950 C   0  0  0  0  0  0  0  0  0  0  0  0
  139.8890   80.6450  223.2050 C   0  0  0  0  0  0  0  0  0  0  0  0
  138.6400   79.9150  223.7200 C   0  0  0  0  0  0  0  0  0  0  0  0
  137.5635   80.9662  226.1269 H   0  0  0  0  0  0  0  0  0  0  0  0
  138.7847   81.9742  225.2786 H   0  0  0  0  0  0  0  0  0  0  0  0
  137.0572   82.4665  225.2786 H   0  0  0  0  0  0  0  0  0  0  0  0
  136.7934   81.0666  222.0585 H   0  0  0  0  0  0  0  0  0  0  0  0
  136.4541   82.4395  223.2053 H   0  0  0  0  0  0  0  0  0  0  0  0
  138.1423   82.9517  221.3770 H   0  0  0  0  0  0  0  0  0  0  0  0
  138.7051   83.2317  223.0639 H   0  0  0  0  0  0  0  0  0  0  0  0
  142.2348   82.1085  219.0168 H   0  0  0  0  0  0  0  0  0  0  0  0
  143.2413   80.2896  217.6451 H   0  0  0  0  0  0  0  0  0  0  0  0
  142.6581   77.9101  218.0928 H   0  0  0  0  0  0  0  0  0  0  0  0
  142.2860   76.7480  221.6010 H   0  0  0  0  0  0  0  0  0  0  0  0
  144.3989   75.6897  220.8392 H   0  0  0  0  0  0  0  0  0  0  0  0
  145.4920   73.5606  220.1474 H   0  0  0  0  0  0  0  0  0  0  0  0
  145.5066   69.5747  216.5195 H   0  0  0  0  0  0  0  0  0  0  0  0
  146.6036   67.4286  215.8645 H   0  0  0  0  0  0  0  0  0  0  0  0
  147.1053   65.7009  217.5980 H   0  0  0  0  0  0  0  0  0  0  0  0
  146.5203   66.1210  219.9882 H   0  0  0  0  0  0  0  0  0  0  0  0
  145.4273   68.2679  220.6504 H   0  0  0  0  0  0  0  0  0  0  0  0
  141.6095   71.8251  219.3623 H   0  0  0  0  0  0  0  0  0  0  0  0
  139.6630   73.0370  220.2310 H   0  0  0  0  0  0  0  0  0  0  0  0
  139.3510   77.0018  218.6213 H   0  0  0  0  0  0  0  0  0  0  0  0
  140.0235   79.1636  221.2966 H   0  0  0  0  0  0  0  0  0  0  0  0
  140.6179   79.9063  222.8402 H   0  0  0  0  0  0  0  0  0  0  0  0
  140.3288   81.2301  224.0262 H   0  0  0  0  0  0  0  0  0  0  0  0
  138.3080   79.2002  222.9526 H   0  0  0  0  0  0  0  0  0  0  0  0
  138.9132   79.4065  224.6564 H   0  0  0  0  0  0  0  0  0  0  0  0
  1  2  1  0
  2  3  1  0
  3  4  1  0
  4  5  1  0
  5  6  1  0
  6  7  2  0
  6  8  1  0
  8  9  2  0
  9 10  1  0
 10 11  2  0
 11 12  1  0
 12 13  1  0
 13 14  1  0
 14 15  1  0
 15 16  2  0
 16 17  1  0
 17 18  2  0
 18 19  1  0
 19 20  3  0
 20 21  1  0
 21 22  2  0
 22 23  1  0
 23 24  2  0
 24 25  1  0
 25 26  2  0
 18 27  1  0
 27 28  2  0
 28 29  1  0
 29 30  1  0
 30 31  2  0
 30 32  1  0
 12 33  2  0
  5 34  1  0
 34 35  1  0
 35  2  1  0
 33  8  1  0
 32 13  2  0
 28 15  1  0
 26 21  1  0
  1 36  1  0
  1 37  1  0
  1 38  1  0
  3 39  1  0
  3 40  1  0
  4 41  1  0
  4 42  1  0
  9 43  1  0
 10 44  1  0
 11 45  1  0
 14 46  1  0
 16 47  1  0
 17 48  1  0
 22 49  1  0
 23 50  1  0
 24 51  1  0
 25 52  1  0
 26 53  1  0
 27 54  1  0
 29 55  1  0
 32 56  1  0
 33 57  1  0
 34 58  1  0
 34 59  1  0
 35 60  1  0
 35 61  1  0
M  END
>  <UniqueID>  (61) 
38

>  <SMILES>  (61) 
CN1CCN(C(=O)c2cccc(C3=CC(=O)Nc4cc(C#Cc5ccccc5)ccc4N3)c2)CC1

>  <Energy>  (61) 
89.2893860797716

>  <Genealogy>  (61) 
CN1CCN(C(=O)c2cccc(C3=CC(=O)Nc4cc(C#Cc5ccccc5)ccc4N3)c2)CC1 (tautomer)
CN1CCN(C(=O)c2cccc(C3=CC(=O)Nc4cc(C#Cc5ccccc5)ccc4N3)c2)CC1 (3D coordinates assigned)
CN1CCN(C(=O)c2cccc(C3=CC(=O)Nc4cc(C#Cc5ccccc5)ccc4N3)c2)CC1 (nonaromatic ring conformer: 89.2893860797716 kcal/mol)

>  <smiles>  (61) 
CN1CCN(C(=O)c2cccc(C3=Nc4ccc(C#Cc5ccccc5)cc4NC(=O)C3)c2)CC1

>  <score_type>  (61) 
oracle

>  <origin>  (61) 
autodockgpu

>  <m_score__min__energy>  (61) 
-6.7800000000000002

>  <m_primary>  (61) 
energy

>  <meeko>  (61) 
{"free_energy": -5.29, "intermolecular_energy": -7.98, "internal_energy": -1.19, "cluster_size": 2, "cluster_id": 7, "rank_in_cluster": 1}

>  <energy>  (61) 
-6.78

>  <cluster_rmsd>  (61) 
0.0

>  <rmsd>  (61) 
272.58

>  <cluster>  (61) 
1

$$$$
XUWAGCJCFKXBCU-VJSLDGLSNA-N
     RDKit          3D

 61 65  0  0  0  0  0  0  0  0999 V2000
  141.8520   81.4970  224.2170 C   0  0  0  0  0  0  0  0  0  0  0  0
  141.9070   80.0950  223.7680 N   0  0  0  0  0  0  0  0  0  0  0  0
  140.5730   79.5600  223.4200 C   0  0  0  0  0  0  0  0  0  0  0  0
  140.0440   80.1070  222.0880 C   0  0  0  0  0  0  0  0  0  0  0  0
  141.0610   79.9590  221.0450 N   0  0  0  0  0  0  0  0  0  0  0  0
  140.6480   79.7820  219.6790 C   0  0  0  0  0  0  0  0  0  0  0  0
  139.6290   80.3920  219.2560 O   0  0  0  0  0  0  0  0  0  0  0  0
  141.3890   78.8760  218.7680 C   0  0  0  0  0  0  0  0  0  0  0  0
  141.8490   79.3430  217.5260 C   0  0  0  0  0  0  0  0  0  0  0  0
  142.5480   78.4930  216.6670 C   0  0  0  0  0  0  0  0  0  0  0  0
  142.7880   77.1670  217.0310 C   0  0  0  0  0  0  0  0  0  0  0  0
  142.3170   76.6700  218.2580 C   0  0  0  0  0  0  0  0  0  0  0  0
  142.5870   75.2560  218.6300 C   0  0  0  0  0  0  0  0  0  0  0  0
  141.4700   74.3800  218.8170 N   0  0  0  0  0  0  0  0  0  0  0  0
  141.3110   73.6500  220.0330 C   0  0  0  0  0  0  0  0  0  0  0  0
  140.1330   73.8140  220.7800 C   0  0  0  0  0  0  0  0  0  0  0  0
  139.9380   73.0990  221.9620 C   0  0  0  0  0  0  0  0  0  0  0  0
  140.9100   72.1940  222.4000 C   0  0  0  0  0  0  0  0  0  0  0  0
  140.7070   71.4470  223.6120 C   0  0  0  0  0  0  0  0  0  0  0  0
  140.5360   70.8200  224.6280 C   0  0  0  0  0  0  0  0  0  0  0  0
  140.3330   70.0730  225.8410 C   0  0  0  0  0  0  0  0  0  0  0  0
  140.0490   70.7410  227.0400 C   0  0  0  0  0  0  0  0  0  0  0  0
  139.8520   70.0120  228.2170 C   0  0  0  0  0  0  0  0  0  0  0  0
  139.9380   68.6160  228.1990 C   0  0  0  0  0  0  0  0  0  0  0  0
  140.2210   67.9470  227.0040 C   0  0  0  0  0  0  0  0  0  0  0  0
  140.4180   68.6730  225.8250 C   0  0  0  0  0  0  0  0  0  0  0  0
  142.0750   72.0090  221.6470 C   0  0  0  0  0  0  0  0  0  0  0  0
  142.2910   72.7410  220.4680 C   0  0  0  0  0  0  0  0  0  0  0  0
  143.4500   72.4510  219.6740 N   0  0  0  0  0  0  0  0  0  0  0  0
  144.2520   73.4210  218.9840 C   0  0  0  0  0  0  0  0  0  0  0  0
  145.3920   73.0730  218.5760 O   0  0  0  0  0  0  0  0  0  0  0  0
  143.8490   74.8230  218.7630 C   0  0  0  0  0  0  0  0  0  0  0  0
  141.6200   77.5360  219.1230 C   0  0  0  0  0  0  0  0  0  0  0  0
  142.4130   80.4390  221.3380 C   0  0  0  0  0  0  0  0  0  0  0  0
  142.8900   79.8820  222.6860 C   0  0  0  0  0  0  0  0  0  0  0  0
  141.8507   81.5301  225.3165 H   0  0  0  0  0  0  0  0  0  0  0  0
  142.7296   82.0391  223.8349 H   0  0  0  0  0  0  0  0  0  0  0  0
  140.9347   81.9687  223.8349 H   0  0  0  0  0  0  0  0  0  0  0  0
  140.6411   78.4645  223.3482 H   0  0  0  0  0  0  0  0  0  0  0  0
  139.8735   79.8736  224.2089 H   0  0  0  0  0  0  0  0  0  0  0  0
  139.1414   79.5491  221.7981 H   0  0  0  0  0  0  0  0  0  0  0  0
  139.8021   81.1735  222.2069 H   0  0  0  0  0  0  0  0  0  0  0  0
  141.6574   80.3845  217.2283 H   0  0  0  0  0  0  0  0  0  0  0  0
  142.9111   78.8697  215.6994 H   0  0  0  0  0  0  0  0  0  0  0  0
  143.3493   76.5071  216.3532 H   0  0  0  0  0  0  0  0  0  0  0  0
  140.6000   74.6070  218.2830 H   0  0  0  0  0  0  0  0  0  0  0  0
  139.3579   74.5118  220.4303 H   0  0  0  0  0  0  0  0  0  0  0  0
  139.0198   73.2471  222.5494 H   0  0  0  0  0  0  0  0  0  0  0  0
  139.9811   71.8388  227.0552 H   0  0  0  0  0  0  0  0  0  0  0  0
  139.6292   70.5368  229.1577 H   0  0  0  0  0  0  0  0  0  0  0  0
  139.7829   68.0439  229.1256 H   0  0  0  0  0  0  0  0  0  0  0  0
  140.2887   66.8492  226.9913 H   0  0  0  0  0  0  0  0  0  0  0  0
  140.6396   68.1461  224.8852 H   0  0  0  0  0  0  0  0  0  0  0  0
  142.8298   71.2824  221.9822 H   0  0  0  0  0  0  0  0  0  0  0  0
  143.8630   71.4950  219.7700 H   0  0  0  0  0  0  0  0  0  0  0  0
  144.6497   75.5748  218.7024 H   0  0  0  0  0  0  0  0  0  0  0  0
  141.2519   77.1587  220.0885 H   0  0  0  0  0  0  0  0  0  0  0  0
  143.0974   80.1057  220.5440 H   0  0  0  0  0  0  0  0  0  0  0  0
  142.4022   81.5379  221.3861 H   0  0  0  0  0  0  0  0  0  0  0  0
  143.0669   78.8017  222.5782 H   0  0  0  0  0  0  0  0  0  0  0  0
  143.8103   80.4180  222.9614 H   0  0  0  0  0  0  0  0  0  0  0  0
  1  2  1  0
  2  3  1  0
  3  4  1  0
  4  5  1  0
  5  6  1  0
  6  7  2  0
  6  8  1  0
  8  9  2  0
  9 10  1  0
 10 11  2  0
 11 12  1  0
 12 13  1  0
 13 14  1  0
 14 15  1  0
 15 16  2  0
 16 17  1  0
 17 18  2  0
 18 19  1  0
 19 20  3  0
 20 21  1  0
 21 22  2  0
 22 23  1  0
 23 24  2  0
 24 25  1  0
 25 26  2  0
 18 27  1  0
 27 28  2  0
 28 29  1  0
 29 30  1  0
 30 31  2  0
 30 32  1  0
 12 33  2  0
  5 34  1  0
 34 35  1  0
 35  2  1  0
 33  8  1  0
 32 13  2  0
 28 15  1  0
 26 21  1  0
  1 36  1  0
  1 37  1  0
  1 38  1  0
  3 39  1  0
  3 40  1  0
  4 41  1  0
  4 42  1  0
  9 43  1  0
 10 44  1  0
 11 45  1  0
 14 46  1  0
 16 47  1  0
 17 48  1  0
 22 49  1  0
 23 50  1  0
 24 51  1  0
 25 52  1  0
 26 53  1  0
 27 54  1  0
 29 55  1  0
 32 56  1  0
 33 57  1  0
 34 58  1  0
 34 59  1  0
 35 60  1  0
 35 61  1  0
M  END
>  <UniqueID>  (62) 
38

>  <SMILES>  (62) 
CN1CCN(C(=O)c2cccc(C3=CC(=O)Nc4cc(C#Cc5ccccc5)ccc4N3)c2)CC1

>  <Energy>  (62) 
89.2893860797716

>  <Genealogy>  (62) 
CN1CCN(C(=O)c2cccc(C3=CC(=O)Nc4cc(C#Cc5ccccc5)ccc4N3)c2)CC1 (tautomer)
CN1CCN(C(=O)c2cccc(C3=CC(=O)Nc4cc(C#Cc5ccccc5)ccc4N3)c2)CC1 (3D coordinates assigned)
CN1CCN(C(=O)c2cccc(C3=CC(=O)Nc4cc(C#Cc5ccccc5)ccc4N3)c2)CC1 (nonaromatic ring conformer: 89.2893860797716 kcal/mol)

>  <smiles>  (62) 
CN1CCN(C(=O)c2cccc(C3=Nc4ccc(C#Cc5ccccc5)cc4NC(=O)C3)c2)CC1

>  <score_type>  (62) 
oracle

>  <origin>  (62) 
autodockgpu

>  <m_score__min__energy>  (62) 
-6.7800000000000002

>  <m_primary>  (62) 
energy

>  <meeko>  (62) 
{"free_energy": -6.78, "intermolecular_energy": -9.47, "internal_energy": -1.28, "cluster_size": 9, "cluster_id": 1, "rank_in_cluster": 1}

>  <energy>  (62) 
-6.73

>  <cluster_rmsd>  (62) 
0.27

>  <rmsd>  (62) 
272.58

>  <cluster>  (62) 
1

$$$$
XUWAGCJCFKXBCU-VJSLDGLSNA-N
     RDKit          3D

 61 65  0  0  0  0  0  0  0  0999 V2000
  140.0390   70.6330  228.0520 C   0  0  0  0  0  0  0  0  0  0  0  0
  140.7230   69.7870  227.0600 N   0  0  0  0  0  0  0  0  0  0  0  0
  139.8560   68.7060  226.5440 C   0  0  0  0  0  0  0  0  0  0  0  0
  138.7870   69.2180  225.5690 C   0  0  0  0  0  0  0  0  0  0  0  0
  139.4060   70.0580  224.5420 N   0  0  0  0  0  0  0  0  0  0  0  0
  138.8140   70.1220  223.2330 C   0  0  0  0  0  0  0  0  0  0  0  0
  137.5580   70.0930  223.1200 O   0  0  0  0  0  0  0  0  0  0  0  0
  139.6560   70.2010  222.0160 C   0  0  0  0  0  0  0  0  0  0  0  0
  139.4840   69.2740  220.9750 C   0  0  0  0  0  0  0  0  0  0  0  0
  140.2750   69.3470  219.8270 C   0  0  0  0  0  0  0  0  0  0  0  0
  141.2520   70.3360  219.7070 C   0  0  0  0  0  0  0  0  0  0  0  0
  141.4590   71.2600  220.7450 C   0  0  0  0  0  0  0  0  0  0  0  0
  142.5020   72.3100  220.5970 C   0  0  0  0  0  0  0  0  0  0  0  0
  142.2920   73.5690  221.2450 N   0  0  0  0  0  0  0  0  0  0  0  0
  142.3440   74.7890  220.5040 C   0  0  0  0  0  0  0  0  0  0  0  0
  141.2270   75.6400  220.5110 C   0  0  0  0  0  0  0  0  0  0  0  0
  141.2540   76.8490  219.8150 C   0  0  0  0  0  0  0  0  0  0  0  0
  142.4060   77.2300  219.1200 C   0  0  0  0  0  0  0  0  0  0  0  0
  142.4400   78.4810  218.4110 C   0  0  0  0  0  0  0  0  0  0  0  0
  142.4680   79.5300  217.8160 C   0  0  0  0  0  0  0  0  0  0  0  0
  142.5020   80.7820  217.1080 C   0  0  0  0  0  0  0  0  0  0  0  0
  141.6900   80.9750  215.9820 C   0  0  0  0  0  0  0  0  0  0  0  0
  141.7240   82.1940  215.2960 C   0  0  0  0  0  0  0  0  0  0  0  0
  142.5690   83.2200  215.7310 C   0  0  0  0  0  0  0  0  0  0  0  0
  143.3810   83.0290  216.8540 C   0  0  0  0  0  0  0  0  0  0  0  0
  143.3490   81.8120  217.5430 C   0  0  0  0  0  0  0  0  0  0  0  0
  143.5300   76.3960  219.1290 C   0  0  0  0  0  0  0  0  0  0  0  0
  143.5050   75.1670  219.8090 C   0  0  0  0  0  0  0  0  0  0  0  0
  144.7080   74.3880  219.8760 N   0  0  0  0  0  0  0  0  0  0  0  0
  144.7800   72.9580  219.7860 C   0  0  0  0  0  0  0  0  0  0  0  0
  145.9020   72.4280  219.5650 O   0  0  0  0  0  0  0  0  0  0  0  0
  143.6130   72.0600  219.8860 C   0  0  0  0  0  0  0  0  0  0  0  0
  140.6530   71.1860  221.8970 C   0  0  0  0  0  0  0  0  0  0  0  0
  140.3030   71.1280  224.9850 C   0  0  0  0  0  0  0  0  0  0  0  0
  141.3390   70.5720  225.9710 C   0  0  0  0  0  0  0  0  0  0  0  0
  140.3080   70.3003  229.0654 H   0  0  0  0  0  0  0  0  0  0  0  0
  140.3474   71.6801  227.9159 H   0  0  0  0  0  0  0  0  0  0  0  0
  138.9506   70.5507  227.9159 H   0  0  0  0  0  0  0  0  0  0  0  0
  140.4847   67.9697  226.0219 H   0  0  0  0  0  0  0  0  0  0  0  0
  139.3348   68.2594  227.4036 H   0  0  0  0  0  0  0  0  0  0  0  0
  138.2918   68.3612  225.0888 H   0  0  0  0  0  0  0  0  0  0  0  0
  138.0475   69.8134  226.1246 H   0  0  0  0  0  0  0  0  0  0  0  0
  138.7217   68.4860  221.0648 H   0  0  0  0  0  0  0  0  0  0  0  0
  140.1274   68.6216  219.0134 H   0  0  0  0  0  0  0  0  0  0  0  0
  141.8637   70.3926  218.7945 H   0  0  0  0  0  0  0  0  0  0  0  0
  141.6980   73.5620  222.1060 H   0  0  0  0  0  0  0  0  0  0  0  0
  140.3242   75.3514  221.0692 H   0  0  0  0  0  0  0  0  0  0  0  0
  140.3691   77.5024  219.8130 H   0  0  0  0  0  0  0  0  0  0  0  0
  141.0262   80.1683  215.6377 H   0  0  0  0  0  0  0  0  0  0  0  0
  141.0853   82.3456  214.4134 H   0  0  0  0  0  0  0  0  0  0  0  0
  142.5951   84.1774  215.1900 H   0  0  0  0  0  0  0  0  0  0  0  0
  144.0453   83.8365  217.1956 H   0  0  0  0  0  0  0  0  0  0  0  0
  143.9880   81.6628  218.4258 H   0  0  0  0  0  0  0  0  0  0  0  0
  144.4422   76.7060  218.5982 H   0  0  0  0  0  0  0  0  0  0  0  0
  145.6130   74.9030  219.7770 H   0  0  0  0  0  0  0  0  0  0  0  0
  143.6571   71.1097  219.3337 H   0  0  0  0  0  0  0  0  0  0  0  0
  140.8048   71.9071  222.7137 H   0  0  0  0  0  0  0  0  0  0  0  0
  140.8218   71.5525  224.1128 H   0  0  0  0  0  0  0  0  0  0  0  0
  139.7123   71.9094  225.4855 H   0  0  0  0  0  0  0  0  0  0  0  0
  142.0367   69.9237  225.4206 H   0  0  0  0  0  0  0  0  0  0  0  0
  141.8560   71.4282  226.4289 H   0  0  0  0  0  0  0  0  0  0  0  0
  1  2  1  0
  2  3  1  0
  3  4  1  0
  4  5  1  0
  5  6  1  0
  6  7  2  0
  6  8  1  0
  8  9  2  0
  9 10  1  0
 10 11  2  0
 11 12  1  0
 12 13  1  0
 13 14  1  0
 14 15  1  0
 15 16  2  0
 16 17  1  0
 17 18  2  0
 18 19  1  0
 19 20  3  0
 20 21  1  0
 21 22  2  0
 22 23  1  0
 23 24  2  0
 24 25  1  0
 25 26  2  0
 18 27  1  0
 27 28  2  0
 28 29  1  0
 29 30  1  0
 30 31  2  0
 30 32  1  0
 12 33  2  0
  5 34  1  0
 34 35  1  0
 35  2  1  0
 33  8  1  0
 32 13  2  0
 28 15  1  0
 26 21  1  0
  1 36  1  0
  1 37  1  0
  1 38  1  0
  3 39  1  0
  3 40  1  0
  4 41  1  0
  4 42  1  0
  9 43  1  0
 10 44  1  0
 11 45  1  0
 14 46  1  0
 16 47  1  0
 17 48  1  0
 22 49  1  0
 23 50  1  0
 24 51  1  0
 25 52  1  0
 26 53  1  0
 27 54  1  0
 29 55  1  0
 32 56  1  0
 33 57  1  0
 34 58  1  0
 34 59  1  0
 35 60  1  0
 35 61  1  0
M  END
>  <UniqueID>  (63) 
38

>  <SMILES>  (63) 
CN1CCN(C(=O)c2cccc(C3=CC(=O)Nc4cc(C#Cc5ccccc5)ccc4N3)c2)CC1

>  <Energy>  (63) 
89.2893860797716

>  <Genealogy>  (63) 
CN1CCN(C(=O)c2cccc(C3=CC(=O)Nc4cc(C#Cc5ccccc5)ccc4N3)c2)CC1 (tautomer)
CN1CCN(C(=O)c2cccc(C3=CC(=O)Nc4cc(C#Cc5ccccc5)ccc4N3)c2)CC1 (3D coordinates assigned)
CN1CCN(C(=O)c2cccc(C3=CC(=O)Nc4cc(C#Cc5ccccc5)ccc4N3)c2)CC1 (nonaromatic ring conformer: 89.2893860797716 kcal/mol)

>  <smiles>  (63) 
CN1CCN(C(=O)c2cccc(C3=Nc4ccc(C#Cc5ccccc5)cc4NC(=O)C3)c2)CC1

>  <score_type>  (63) 
oracle

>  <origin>  (63) 
autodockgpu

>  <m_score__min__energy>  (63) 
-6.7800000000000002

>  <m_primary>  (63) 
energy

>  <meeko>  (63) 
{"free_energy": -6.43, "intermolecular_energy": -9.11, "internal_energy": -1.16, "cluster_size": 2, "cluster_id": 2, "rank_in_cluster": 2}

>  <energy>  (63) 
-6.64

>  <cluster_rmsd>  (63) 
0.22

>  <rmsd>  (63) 
272.58

>  <cluster>  (63) 
1

$$$$
XUWAGCJCFKXBCU-VJSLDGLSNA-N
     RDKit          3D

 61 65  0  0  0  0  0  0  0  0999 V2000
  134.0810   78.0110  222.4360 C   0  0  0  0  0  0  0  0  0  0  0  0
  135.1040   78.5790  221.5410 N   0  0  0  0  0  0  0  0  0  0  0  0
  135.3640   80.0090  221.8150 C   0  0  0  0  0  0  0  0  0  0  0  0
  136.1730   80.2280  223.1010 C   0  0  0  0  0  0  0  0  0  0  0  0
  137.3610   79.3720  223.0980 N   0  0  0  0  0  0  0  0  0  0  0  0
  138.5450   79.8070  223.7880 C   0  0  0  0  0  0  0  0  0  0  0  0
  138.4300   80.4460  224.8700 O   0  0  0  0  0  0  0  0  0  0  0  0
  139.8950   79.5360  223.2390 C   0  0  0  0  0  0  0  0  0  0  0  0
  141.0290   80.1190  223.8270 C   0  0  0  0  0  0  0  0  0  0  0  0
  142.3010   79.8630  223.3120 C   0  0  0  0  0  0  0  0  0  0  0  0
  142.4570   79.0350  222.2000 C   0  0  0  0  0  0  0  0  0  0  0  0
  141.3360   78.4590  221.5800 C   0  0  0  0  0  0  0  0  0  0  0  0
  141.5230   77.5750  220.3990 C   0  0  0  0  0  0  0  0  0  0  0  0
  140.7620   76.3640  220.3340 N   0  0  0  0  0  0  0  0  0  0  0  0
  141.4100   75.1030  220.1590 C   0  0  0  0  0  0  0  0  0  0  0  0
  141.2130   74.0950  221.1160 C   0  0  0  0  0  0  0  0  0  0  0  0
  141.8150   72.8450  220.9630 C   0  0  0  0  0  0  0  0  0  0  0  0
  142.6050   72.5840  219.8400 C   0  0  0  0  0  0  0  0  0  0  0  0
  143.2180   71.2920  219.6740 C   0  0  0  0  0  0  0  0  0  0  0  0
  143.7320   70.2100  219.5350 C   0  0  0  0  0  0  0  0  0  0  0  0
  144.3450   68.9190  219.3700 C   0  0  0  0  0  0  0  0  0  0  0  0
  145.7390   68.8080  219.2840 C   0  0  0  0  0  0  0  0  0  0  0  0
  146.3320   67.5510  219.1250 C   0  0  0  0  0  0  0  0  0  0  0  0
  145.5350   66.4050  219.0510 C   0  0  0  0  0  0  0  0  0  0  0  0
  144.1430   66.5130  219.1360 C   0  0  0  0  0  0  0  0  0  0  0  0
  143.5470   67.7680  219.2960 C   0  0  0  0  0  0  0  0  0  0  0  0
  142.7870   73.5770  218.8710 C   0  0  0  0  0  0  0  0  0  0  0  0
  142.2030   74.8450  219.0270 C   0  0  0  0  0  0  0  0  0  0  0  0
  142.3320   75.8030  217.9670 N   0  0  0  0  0  0  0  0  0  0  0  0
  142.5360   77.2130  218.1370 C   0  0  0  0  0  0  0  0  0  0  0  0
  142.9230   77.8860  217.1440 O   0  0  0  0  0  0  0  0  0  0  0  0
  142.3720   77.9260  219.4190 C   0  0  0  0  0  0  0  0  0  0  0  0
  140.0560   78.7150  222.1090 C   0  0  0  0  0  0  0  0  0  0  0  0
  137.1770   77.9500  222.8000 C   0  0  0  0  0  0  0  0  0  0  0  0
  136.3470   77.7820  221.5200 C   0  0  0  0  0  0  0  0  0  0  0  0
  134.3772   78.1755  223.4825 H   0  0  0  0  0  0  0  0  0  0  0  0
  133.1150   78.5019  222.2469 H   0  0  0  0  0  0  0  0  0  0  0  0
  133.9869   76.9315  222.2469 H   0  0  0  0  0  0  0  0  0  0  0  0
  135.9255   80.4329  220.9695 H   0  0  0  0  0  0  0  0  0  0  0  0
  134.3907   80.5046  221.9462 H   0  0  0  0  0  0  0  0  0  0  0  0
  136.4835   81.2816  223.1609 H   0  0  0  0  0  0  0  0  0  0  0  0
  135.5470   79.9732  223.9688 H   0  0  0  0  0  0  0  0  0  0  0  0
  140.9145   80.7809  224.6980 H   0  0  0  0  0  0  0  0  0  0  0  0
  143.1845   80.3163  223.7852 H   0  0  0  0  0  0  0  0  0  0  0  0
  143.4639   78.8321  221.8064 H   0  0  0  0  0  0  0  0  0  0  0  0
  139.8410   76.3580  220.8290 H   0  0  0  0  0  0  0  0  0  0  0  0
  140.5793   74.2918  221.9933 H   0  0  0  0  0  0  0  0  0  0  0  0
  141.6678   72.0660  221.7256 H   0  0  0  0  0  0  0  0  0  0  0  0
  146.3671   69.7092  219.3415 H   0  0  0  0  0  0  0  0  0  0  0  0
  147.4265   67.4643  219.0581 H   0  0  0  0  0  0  0  0  0  0  0  0
  146.0029   65.4174  218.9258 H   0  0  0  0  0  0  0  0  0  0  0  0
  143.5169   65.6105  219.0770 H   0  0  0  0  0  0  0  0  0  0  0  0
  142.4523   67.8524  219.3638 H   0  0  0  0  0  0  0  0  0  0  0  0
  143.3932   73.3626  217.9785 H   0  0  0  0  0  0  0  0  0  0  0  0
  142.4940   75.4260  217.0050 H   0  0  0  0  0  0  0  0  0  0  0  0
  142.9955   78.8169  219.5853 H   0  0  0  0  0  0  0  0  0  0  0  0
  139.1716   78.2672  221.6323 H   0  0  0  0  0  0  0  0  0  0  0  0
  138.1604   77.4774  222.6605 H   0  0  0  0  0  0  0  0  0  0  0  0
  136.6474   77.4724  223.6375 H   0  0  0  0  0  0  0  0  0  0  0  0
  136.9556   78.1009  220.6610 H   0  0  0  0  0  0  0  0  0  0  0  0
  136.0622   76.7222  221.4441 H   0  0  0  0  0  0  0  0  0  0  0  0
  1  2  1  0
  2  3  1  0
  3  4  1  0
  4  5  1  0
  5  6  1  0
  6  7  2  0
  6  8  1  0
  8  9  2  0
  9 10  1  0
 10 11  2  0
 11 12  1  0
 12 13  1  0
 13 14  1  0
 14 15  1  0
 15 16  2  0
 16 17  1  0
 17 18  2  0
 18 19  1  0
 19 20  3  0
 20 21  1  0
 21 22  2  0
 22 23  1  0
 23 24  2  0
 24 25  1  0
 25 26  2  0
 18 27  1  0
 27 28  2  0
 28 29  1  0
 29 30  1  0
 30 31  2  0
 30 32  1  0
 12 33  2  0
  5 34  1  0
 34 35  1  0
 35  2  1  0
 33  8  1  0
 32 13  2  0
 28 15  1  0
 26 21  1  0
  1 36  1  0
  1 37  1  0
  1 38  1  0
  3 39  1  0
  3 40  1  0
  4 41  1  0
  4 42  1  0
  9 43  1  0
 10 44  1  0
 11 45  1  0
 14 46  1  0
 16 47  1  0
 17 48  1  0
 22 49  1  0
 23 50  1  0
 24 51  1  0
 25 52  1  0
 26 53  1  0
 27 54  1  0
 29 55  1  0
 32 56  1  0
 33 57  1  0
 34 58  1  0
 34 59  1  0
 35 60  1  0
 35 61  1  0
M  END
>  <UniqueID>  (64) 
38

>  <SMILES>  (64) 
CN1CCN(C(=O)c2cccc(C3=CC(=O)Nc4cc(C#Cc5ccccc5)ccc4N3)c2)CC1

>  <Energy>  (64) 
89.2893860797716

>  <Genealogy>  (64) 
CN1CCN(C(=O)c2cccc(C3=CC(=O)Nc4cc(C#Cc5ccccc5)ccc4N3)c2)CC1 (tautomer)
CN1CCN(C(=O)c2cccc(C3=CC(=O)Nc4cc(C#Cc5ccccc5)ccc4N3)c2)CC1 (3D coordinates assigned)
CN1CCN(C(=O)c2cccc(C3=CC(=O)Nc4cc(C#Cc5ccccc5)ccc4N3)c2)CC1 (nonaromatic ring conformer: 89.2893860797716 kcal/mol)

>  <smiles>  (64) 
CN1CCN(C(=O)c2cccc(C3=Nc4ccc(C#Cc5ccccc5)cc4NC(=O)C3)c2)CC1

>  <score_type>  (64) 
oracle

>  <origin>  (64) 
autodockgpu

>  <m_score__min__energy>  (64) 
-6.7800000000000002

>  <m_primary>  (64) 
energy

>  <meeko>  (64) 
{"free_energy": -5.6, "intermolecular_energy": -8.28, "internal_energy": -1.19, "cluster_size": 3, "cluster_id": 5, "rank_in_cluster": 1}

>  <energy>  (64) 
-6.58

>  <cluster_rmsd>  (64) 
1.5

>  <rmsd>  (64) 
272.69

>  <cluster>  (64) 
1

$$$$
XUWAGCJCFKXBCU-VJSLDGLSNA-N
     RDKit          3D

 61 65  0  0  0  0  0  0  0  0999 V2000
  140.2870   71.0070  227.9170 C   0  0  0  0  0  0  0  0  0  0  0  0
  141.1460   70.3910  226.8910 N   0  0  0  0  0  0  0  0  0  0  0  0
  140.6990   69.0310  226.5210 C   0  0  0  0  0  0  0  0  0  0  0  0
  139.4350   69.0390  225.6510 C   0  0  0  0  0  0  0  0  0  0  0  0
  139.6060   69.9610  224.5270 N   0  0  0  0  0  0  0  0  0  0  0  0
  138.9210   69.6990  223.2900 C   0  0  0  0  0  0  0  0  0  0  0  0
  137.7600   69.2050  223.3190 O   0  0  0  0  0  0  0  0  0  0  0  0
  139.5640   69.9810  221.9840 C   0  0  0  0  0  0  0  0  0  0  0  0
  139.1810   69.2660  220.8380 C   0  0  0  0  0  0  0  0  0  0  0  0
  139.7840   69.5310  219.6070 C   0  0  0  0  0  0  0  0  0  0  0  0
  140.7810   70.5020  219.5060 C   0  0  0  0  0  0  0  0  0  0  0  0
  141.1980   71.2130  220.6430 C   0  0  0  0  0  0  0  0  0  0  0  0
  142.2590   72.2470  220.5150 C   0  0  0  0  0  0  0  0  0  0  0  0
  142.1900   73.3970  221.3650 N   0  0  0  0  0  0  0  0  0  0  0  0
  142.1980   74.7140  220.8140 C   0  0  0  0  0  0  0  0  0  0  0  0
  141.1290   75.5800  221.0970 C   0  0  0  0  0  0  0  0  0  0  0  0
  141.1170   76.8810  220.5910 C   0  0  0  0  0  0  0  0  0  0  0  0
  142.1860   77.3370  219.8130 C   0  0  0  0  0  0  0  0  0  0  0  0
  142.1820   78.6810  219.2990 C   0  0  0  0  0  0  0  0  0  0  0  0
  142.1780   79.8070  218.8690 C   0  0  0  0  0  0  0  0  0  0  0  0
  142.1740   81.1510  218.3540 C   0  0  0  0  0  0  0  0  0  0  0  0
  141.3630   82.1280  218.9460 C   0  0  0  0  0  0  0  0  0  0  0  0
  141.3610   83.4340  218.4450 C   0  0  0  0  0  0  0  0  0  0  0  0
  142.1690   83.7650  217.3510 C   0  0  0  0  0  0  0  0  0  0  0  0
  142.9780   82.7910  216.7590 C   0  0  0  0  0  0  0  0  0  0  0  0
  142.9830   81.4840  217.2580 C   0  0  0  0  0  0  0  0  0  0  0  0
  143.2650   76.4860  219.5470 C   0  0  0  0  0  0  0  0  0  0  0  0
  143.2750   75.1680  220.0330 C   0  0  0  0  0  0  0  0  0  0  0  0
  144.4410   74.3610  219.8220 N   0  0  0  0  0  0  0  0  0  0  0  0
  144.4410   72.9600  219.5110 C   0  0  0  0  0  0  0  0  0  0  0  0
  145.5010   72.4450  219.0660 O   0  0  0  0  0  0  0  0  0  0  0  0
  143.2580   72.0840  219.6310 C   0  0  0  0  0  0  0  0  0  0  0  0
  140.5800   70.9470  221.8810 C   0  0  0  0  0  0  0  0  0  0  0  0
  140.0790   71.3160  224.8210 C   0  0  0  0  0  0  0  0  0  0  0  0
  141.3290   71.2560  225.7090 C   0  0  0  0  0  0  0  0  0  0  0  0
  140.6602   70.7394  228.9166 H   0  0  0  0  0  0  0  0  0  0  0  0
  140.3031   72.1007  227.8003 H   0  0  0  0  0  0  0  0  0  0  0  0
  139.2563   70.6409  227.8003 H   0  0  0  0  0  0  0  0  0  0  0  0
  141.5069   68.5347  225.9633 H   0  0  0  0  0  0  0  0  0  0  0  0
  140.4584   68.4958  227.4514 H   0  0  0  0  0  0  0  0  0  0  0  0
  139.2517   68.0251  225.2657 H   0  0  0  0  0  0  0  0  0  0  0  0
  138.5798   69.3672  226.2601 H   0  0  0  0  0  0  0  0  0  0  0  0
  138.4018   68.4930  220.9104 H   0  0  0  0  0  0  0  0  0  0  0  0
  139.4717   68.9718  218.7127 H   0  0  0  0  0  0  0  0  0  0  0  0
  141.2431   70.7118  218.5300 H   0  0  0  0  0  0  0  0  0  0  0  0
  141.7130   73.2730  222.2880 H   0  0  0  0  0  0  0  0  0  0  0  0
  140.2945   75.2302  221.7224 H   0  0  0  0  0  0  0  0  0  0  0  0
  140.2677   77.5468  220.8040 H   0  0  0  0  0  0  0  0  0  0  0  0
  140.7274   81.8679  219.8053 H   0  0  0  0  0  0  0  0  0  0  0  0
  140.7245   84.2008  218.9107 H   0  0  0  0  0  0  0  0  0  0  0  0
  142.1673   84.7920  216.9570 H   0  0  0  0  0  0  0  0  0  0  0  0
  143.6120   83.0526  215.8990 H   0  0  0  0  0  0  0  0  0  0  0  0
  143.6206   80.7187  216.7913 H   0  0  0  0  0  0  0  0  0  0  0  0
  144.1138   76.8530  218.9513 H   0  0  0  0  0  0  0  0  0  0  0  0
  145.3470   74.8640  219.6810 H   0  0  0  0  0  0  0  0  0  0  0  0
  143.1891   71.2297  218.9415 H   0  0  0  0  0  0  0  0  0  0  0  0
  140.8961   71.5014  222.7769 H   0  0  0  0  0  0  0  0  0  0  0  0
  140.3258   71.8278  223.8791 H   0  0  0  0  0  0  0  0  0  0  0  0
  139.2874   71.8673  225.3496 H   0  0  0  0  0  0  0  0  0  0  0  0
  142.1662   70.8645  225.1125 H   0  0  0  0  0  0  0  0  0  0  0  0
  141.5294   72.2754  226.0706 H   0  0  0  0  0  0  0  0  0  0  0  0
  1  2  1  0
  2  3  1  0
  3  4  1  0
  4  5  1  0
  5  6  1  0
  6  7  2  0
  6  8  1  0
  8  9  2  0
  9 10  1  0
 10 11  2  0
 11 12  1  0
 12 13  1  0
 13 14  1  0
 14 15  1  0
 15 16  2  0
 16 17  1  0
 17 18  2  0
 18 19  1  0
 19 20  3  0
 20 21  1  0
 21 22  2  0
 22 23  1  0
 23 24  2  0
 24 25  1  0
 25 26  2  0
 18 27  1  0
 27 28  2  0
 28 29  1  0
 29 30  1  0
 30 31  2  0
 30 32  1  0
 12 33  2  0
  5 34  1  0
 34 35  1  0
 35  2  1  0
 33  8  1  0
 32 13  2  0
 28 15  1  0
 26 21  1  0
  1 36  1  0
  1 37  1  0
  1 38  1  0
  3 39  1  0
  3 40  1  0
  4 41  1  0
  4 42  1  0
  9 43  1  0
 10 44  1  0
 11 45  1  0
 14 46  1  0
 16 47  1  0
 17 48  1  0
 22 49  1  0
 23 50  1  0
 24 51  1  0
 25 52  1  0
 26 53  1  0
 27 54  1  0
 29 55  1  0
 32 56  1  0
 33 57  1  0
 34 58  1  0
 34 59  1  0
 35 60  1  0
 35 61  1  0
M  END
>  <UniqueID>  (65) 
38

>  <SMILES>  (65) 
CN1CCN(C(=O)c2cccc(C3=CC(=O)Nc4cc(C#Cc5ccccc5)ccc4N3)c2)CC1

>  <Energy>  (65) 
89.2893860797716

>  <Genealogy>  (65) 
CN1CCN(C(=O)c2cccc(C3=CC(=O)Nc4cc(C#Cc5ccccc5)ccc4N3)c2)CC1 (tautomer)
CN1CCN(C(=O)c2cccc(C3=CC(=O)Nc4cc(C#Cc5ccccc5)ccc4N3)c2)CC1 (3D coordinates assigned)
CN1CCN(C(=O)c2cccc(C3=CC(=O)Nc4cc(C#Cc5ccccc5)ccc4N3)c2)CC1 (nonaromatic ring conformer: 89.2893860797716 kcal/mol)

>  <smiles>  (65) 
CN1CCN(C(=O)c2cccc(C3=Nc4ccc(C#Cc5ccccc5)cc4NC(=O)C3)c2)CC1

>  <score_type>  (65) 
oracle

>  <origin>  (65) 
autodockgpu

>  <m_score__min__energy>  (65) 
-6.7800000000000002

>  <m_primary>  (65) 
energy

>  <meeko>  (65) 
{"free_energy": -6.44, "intermolecular_energy": -9.12, "internal_energy": -1.15, "cluster_size": 2, "cluster_id": 2, "rank_in_cluster": 1}

>  <energy>  (65) 
-6.45

>  <cluster_rmsd>  (65) 
0.94

>  <rmsd>  (65) 
272.27

>  <cluster>  (65) 
1

$$$$
XUWAGCJCFKXBCU-VJSLDGLSNA-N
     RDKit          3D

 61 65  0  0  0  0  0  0  0  0999 V2000
  142.6990   66.6870  217.0690 C   0  0  0  0  0  0  0  0  0  0  0  0
  142.4790   67.3440  218.3690 N   0  0  0  0  0  0  0  0  0  0  0  0
  143.5720   67.0810  219.3290 C   0  0  0  0  0  0  0  0  0  0  0  0
  144.8520   67.8610  218.9990 C   0  0  0  0  0  0  0  0  0  0  0  0
  144.5380   69.2760  218.7930 N   0  0  0  0  0  0  0  0  0  0  0  0
  145.5280   70.2700  219.1040 C   0  0  0  0  0  0  0  0  0  0  0  0
  146.7440   70.0230  218.8800 O   0  0  0  0  0  0  0  0  0  0  0  0
  145.1450   71.5710  219.7040 C   0  0  0  0  0  0  0  0  0  0  0  0
  146.1260   72.5300  220.0020 C   0  0  0  0  0  0  0  0  0  0  0  0
  145.7670   73.7560  220.5650 C   0  0  0  0  0  0  0  0  0  0  0  0
  144.4290   74.0360  220.8460 C   0  0  0  0  0  0  0  0  0  0  0  0
  143.4320   73.0830  220.5790 C   0  0  0  0  0  0  0  0  0  0  0  0
  142.0110   73.4030  220.8820 C   0  0  0  0  0  0  0  0  0  0  0  0
  141.3990   74.4910  220.1820 N   0  0  0  0  0  0  0  0  0  0  0  0
  140.7840   75.5640  220.8960 C   0  0  0  0  0  0  0  0  0  0  0  0
  141.2300   76.8770  220.6740 C   0  0  0  0  0  0  0  0  0  0  0  0
  140.6360   77.9500  221.3400 C   0  0  0  0  0  0  0  0  0  0  0  0
  139.5730   77.7230  222.2210 C   0  0  0  0  0  0  0  0  0  0  0  0
  138.9520   78.8280  222.9000 C   0  0  0  0  0  0  0  0  0  0  0  0
  138.4310   79.7540  223.4710 C   0  0  0  0  0  0  0  0  0  0  0  0
  137.8090   80.8580  224.1520 C   0  0  0  0  0  0  0  0  0  0  0  0
  137.3020   81.9410  223.4210 C   0  0  0  0  0  0  0  0  0  0  0  0
  136.6980   83.0130  224.0850 C   0  0  0  0  0  0  0  0  0  0  0  0
  136.5990   83.0060  225.4810 C   0  0  0  0  0  0  0  0  0  0  0  0
  137.1040   81.9270  226.2130 C   0  0  0  0  0  0  0  0  0  0  0  0
  137.7090   80.8520  225.5510 C   0  0  0  0  0  0  0  0  0  0  0  0
  139.1100   76.4190  222.4280 C   0  0  0  0  0  0  0  0  0  0  0  0
  139.7160   75.3310  221.7800 C   0  0  0  0  0  0  0  0  0  0  0  0
  139.1490   74.0230  221.9430 N   0  0  0  0  0  0  0  0  0  0  0  0
  139.8920   72.8020  222.0710 C   0  0  0  0  0  0  0  0  0  0  0  0
  139.2930   71.7790  222.4980 O   0  0  0  0  0  0  0  0  0  0  0  0
  141.3340   72.6750  221.7810 C   0  0  0  0  0  0  0  0  0  0  0  0
  143.8000   71.8520  220.0040 C   0  0  0  0  0  0  0  0  0  0  0  0
  143.4420   69.6050  217.8780 C   0  0  0  0  0  0  0  0  0  0  0  0
  142.1930   68.7870  218.2350 C   0  0  0  0  0  0  0  0  0  0  0  0
  143.0444   65.6556  217.2332 H   0  0  0  0  0  0  0  0  0  0  0  0
  141.7568   66.6722  216.5015 H   0  0  0  0  0  0  0  0  0  0  0  0
  143.4601   67.2426  216.5015 H   0  0  0  0  0  0  0  0  0  0  0  0
  143.2336   67.3698  220.3350 H   0  0  0  0  0  0  0  0  0  0  0  0
  143.8127   66.0091  219.2723 H   0  0  0  0  0  0  0  0  0  0  0  0
  145.5630   67.7634  219.8326 H   0  0  0  0  0  0  0  0  0  0  0  0
  145.2964   67.4525  218.0794 H   0  0  0  0  0  0  0  0  0  0  0  0
  147.1837   72.3141  219.7907 H   0  0  0  0  0  0  0  0  0  0  0  0
  146.5418   74.5043  220.7880 H   0  0  0  0  0  0  0  0  0  0  0  0
  144.1534   75.0088  221.2792 H   0  0  0  0  0  0  0  0  0  0  0  0
  141.7710   74.7080  219.2290 H   0  0  0  0  0  0  0  0  0  0  0  0
  142.0543   77.0613  219.9694 H   0  0  0  0  0  0  0  0  0  0  0  0
  141.0032   78.9733  221.1725 H   0  0  0  0  0  0  0  0  0  0  0  0
  137.3794   81.9476  222.3237 H   0  0  0  0  0  0  0  0  0  0  0  0
  136.3004   83.8623  223.5099 H   0  0  0  0  0  0  0  0  0  0  0  0
  136.1237   83.8498  226.0026 H   0  0  0  0  0  0  0  0  0  0  0  0
  137.0258   81.9228  227.3102 H   0  0  0  0  0  0  0  0  0  0  0  0
  138.1056   80.0033  226.1276 H   0  0  0  0  0  0  0  0  0  0  0  0
  138.2616   76.2443  223.1061 H   0  0  0  0  0  0  0  0  0  0  0  0
  138.1340   73.9740  222.1920 H   0  0  0  0  0  0  0  0  0  0  0  0
  141.8990   71.9213  222.3492 H   0  0  0  0  0  0  0  0  0  0  0  0
  143.0264   71.1008  219.7867 H   0  0  0  0  0  0  0  0  0  0  0  0
  143.2100   70.6772  217.9589 H   0  0  0  0  0  0  0  0  0  0  0  0
  143.7477   69.3647  216.8490 H   0  0  0  0  0  0  0  0  0  0  0  0
  141.7906   69.1567  219.1897 H   0  0  0  0  0  0  0  0  0  0  0  0
  141.4692   68.9088  217.4157 H   0  0  0  0  0  0  0  0  0  0  0  0
  1  2  1  0
  2  3  1  0
  3  4  1  0
  4  5  1  0
  5  6  1  0
  6  7  2  0
  6  8  1  0
  8  9  2  0
  9 10  1  0
 10 11  2  0
 11 12  1  0
 12 13  1  0
 13 14  1  0
 14 15  1  0
 15 16  2  0
 16 17  1  0
 17 18  2  0
 18 19  1  0
 19 20  3  0
 20 21  1  0
 21 22  2  0
 22 23  1  0
 23 24  2  0
 24 25  1  0
 25 26  2  0
 18 27  1  0
 27 28  2  0
 28 29  1  0
 29 30  1  0
 30 31  2  0
 30 32  1  0
 12 33  2  0
  5 34  1  0
 34 35  1  0
 35  2  1  0
 33  8  1  0
 32 13  2  0
 28 15  1  0
 26 21  1  0
  1 36  1  0
  1 37  1  0
  1 38  1  0
  3 39  1  0
  3 40  1  0
  4 41  1  0
  4 42  1  0
  9 43  1  0
 10 44  1  0
 11 45  1  0
 14 46  1  0
 16 47  1  0
 17 48  1  0
 22 49  1  0
 23 50  1  0
 24 51  1  0
 25 52  1  0
 26 53  1  0
 27 54  1  0
 29 55  1  0
 32 56  1  0
 33 57  1  0
 34 58  1  0
 34 59  1  0
 35 60  1  0
 35 61  1  0
M  END
>  <UniqueID>  (66) 
38

>  <SMILES>  (66) 
CN1CCN(C(=O)c2cccc(C3=CC(=O)Nc4cc(C#Cc5ccccc5)ccc4N3)c2)CC1

>  <Energy>  (66) 
89.2893860797716

>  <Genealogy>  (66) 
CN1CCN(C(=O)c2cccc(C3=CC(=O)Nc4cc(C#Cc5ccccc5)ccc4N3)c2)CC1 (tautomer)
CN1CCN(C(=O)c2cccc(C3=CC(=O)Nc4cc(C#Cc5ccccc5)ccc4N3)c2)CC1 (3D coordinates assigned)
CN1CCN(C(=O)c2cccc(C3=CC(=O)Nc4cc(C#Cc5ccccc5)ccc4N3)c2)CC1 (nonaromatic ring conformer: 89.2893860797716 kcal/mol)

>  <smiles>  (66) 
CN1CCN(C(=O)c2cccc(C3=Nc4ccc(C#Cc5ccccc5)cc4NC(=O)C3)c2)CC1

>  <score_type>  (66) 
oracle

>  <origin>  (66) 
autodockgpu

>  <m_score__min__energy>  (66) 
-6.7800000000000002

>  <m_primary>  (66) 
energy

>  <meeko>  (66) 
{"free_energy": -5.73, "intermolecular_energy": -8.41, "internal_energy": -1.22, "cluster_size": 1, "cluster_id": 4, "rank_in_cluster": 1}

>  <energy>  (66) 
-6.29

>  <cluster_rmsd>  (66) 
0.27

>  <rmsd>  (66) 
272.59

>  <cluster>  (66) 
1

$$$$
XUWAGCJCFKXBCU-VJSLDGLSNA-N
     RDKit          3D

 61 65  0  0  0  0  0  0  0  0999 V2000
  136.3800   83.8020  226.2240 C   0  0  0  0  0  0  0  0  0  0  0  0
  136.4770   82.4190  226.7210 N   0  0  0  0  0  0  0  0  0  0  0  0
  135.1510   81.8130  226.9700 C   0  0  0  0  0  0  0  0  0  0  0  0
  134.4180   81.4390  225.6740 C   0  0  0  0  0  0  0  0  0  0  0  0
  135.3020   80.6590  224.8050 N   0  0  0  0  0  0  0  0  0  0  0  0
  134.7330   79.6890  223.9090 C   0  0  0  0  0  0  0  0  0  0  0  0
  133.6270   79.9340  223.3540 O   0  0  0  0  0  0  0  0  0  0  0  0
  135.4140   78.3990  223.6450 C   0  0  0  0  0  0  0  0  0  0  0  0
  134.7940   77.1880  223.9910 C   0  0  0  0  0  0  0  0  0  0  0  0
  135.4330   75.9720  223.7410 C   0  0  0  0  0  0  0  0  0  0  0  0
  136.6980   75.9490  223.1540 C   0  0  0  0  0  0  0  0  0  0  0  0
  137.3490   77.1490  222.8210 C   0  0  0  0  0  0  0  0  0  0  0  0
  138.6950   77.1040  222.1910 C   0  0  0  0  0  0  0  0  0  0  0  0
  138.8270   76.4580  220.9210 N   0  0  0  0  0  0  0  0  0  0  0  0
  139.7720   75.4050  220.7320 C   0  0  0  0  0  0  0  0  0  0  0  0
  139.3190   74.1500  220.2920 C   0  0  0  0  0  0  0  0  0  0  0  0
  140.2210   73.1060  220.0780 C   0  0  0  0  0  0  0  0  0  0  0  0
  141.5890   73.3120  220.2810 C   0  0  0  0  0  0  0  0  0  0  0  0
  142.5210   72.2410  220.0500 C   0  0  0  0  0  0  0  0  0  0  0  0
  143.3020   71.3430  219.8560 C   0  0  0  0  0  0  0  0  0  0  0  0
  144.2330   70.2710  219.6250 C   0  0  0  0  0  0  0  0  0  0  0  0
  145.4470   70.5220  218.9710 C   0  0  0  0  0  0  0  0  0  0  0  0
  146.3510   69.4790  218.7480 C   0  0  0  0  0  0  0  0  0  0  0  0
  146.0450   68.1830  219.1750 C   0  0  0  0  0  0  0  0  0  0  0  0
  144.8340   67.9290  219.8270 C   0  0  0  0  0  0  0  0  0  0  0  0
  143.9270   68.9710  220.0530 C   0  0  0  0  0  0  0  0  0  0  0  0
  142.0480   74.5670  220.6960 C   0  0  0  0  0  0  0  0  0  0  0  0
  141.1470   75.6170  220.9360 C   0  0  0  0  0  0  0  0  0  0  0  0
  141.6650   76.9130  221.2660 N   0  0  0  0  0  0  0  0  0  0  0  0
  141.0950   77.8210  222.2200 C   0  0  0  0  0  0  0  0  0  0  0  0
  141.8000   78.7840  222.6260 O   0  0  0  0  0  0  0  0  0  0  0  0
  139.7460   77.6740  222.8020 C   0  0  0  0  0  0  0  0  0  0  0  0
  136.6960   78.3720  223.0680 C   0  0  0  0  0  0  0  0  0  0  0  0
  136.6430   81.1870  224.5450 C   0  0  0  0  0  0  0  0  0  0  0  0
  137.3260   81.5650  225.8670 C   0  0  0  0  0  0  0  0  0  0  0  0
  136.3314   84.4954  227.0765 H   0  0  0  0  0  0  0  0  0  0  0  0
  137.2640   84.0346  225.6121 H   0  0  0  0  0  0  0  0  0  0  0  0
  135.4722   83.9089  225.6121 H   0  0  0  0  0  0  0  0  0  0  0  0
  135.2875   80.9028  227.5724 H   0  0  0  0  0  0  0  0  0  0  0  0
  134.5375   82.5599  227.4951 H   0  0  0  0  0  0  0  0  0  0  0  0
  133.5277   80.8411  225.9187 H   0  0  0  0  0  0  0  0  0  0  0  0
  134.1178   82.3589  225.1509 H   0  0  0  0  0  0  0  0  0  0  0  0
  133.7997   77.1971  224.4615 H   0  0  0  0  0  0  0  0  0  0  0  0
  134.9364   75.0276  224.0083 H   0  0  0  0  0  0  0  0  0  0  0  0
  137.1889   74.9859  222.9505 H   0  0  0  0  0  0  0  0  0  0  0  0
  137.9810   76.4510  220.3060 H   0  0  0  0  0  0  0  0  0  0  0  0
  138.2454   73.9887  220.1148 H   0  0  0  0  0  0  0  0  0  0  0  0
  139.8556   72.1218  219.7498 H   0  0  0  0  0  0  0  0  0  0  0  0
  145.6887   71.5405  218.6329 H   0  0  0  0  0  0  0  0  0  0  0  0
  147.3040   69.6781  218.2361 H   0  0  0  0  0  0  0  0  0  0  0  0
  146.7568   67.3632  218.9981 H   0  0  0  0  0  0  0  0  0  0  0  0
  144.5940   66.9093  220.1626 H   0  0  0  0  0  0  0  0  0  0  0  0
  142.9749   68.7703  220.5660 H   0  0  0  0  0  0  0  0  0  0  0  0
  143.1264   74.7329  220.8358 H   0  0  0  0  0  0  0  0  0  0  0  0
  142.6360   77.1320  220.9440 H   0  0  0  0  0  0  0  0  0  0  0  0
  139.5893   78.0631  223.8189 H   0  0  0  0  0  0  0  0  0  0  0  0
  137.1945   79.3170  222.8065 H   0  0  0  0  0  0  0  0  0  0  0  0
  137.2426   80.4208  224.0317 H   0  0  0  0  0  0  0  0  0  0  0  0
  136.5609   82.0834  223.9127 H   0  0  0  0  0  0  0  0  0  0  0  0
  137.5638   80.6425  226.4170 H   0  0  0  0  0  0  0  0  0  0  0  0
  138.2333   82.1366  225.6216 H   0  0  0  0  0  0  0  0  0  0  0  0
  1  2  1  0
  2  3  1  0
  3  4  1  0
  4  5  1  0
  5  6  1  0
  6  7  2  0
  6  8  1  0
  8  9  2  0
  9 10  1  0
 10 11  2  0
 11 12  1  0
 12 13  1  0
 13 14  1  0
 14 15  1  0
 15 16  2  0
 16 17  1  0
 17 18  2  0
 18 19  1  0
 19 20  3  0
 20 21  1  0
 21 22  2  0
 22 23  1  0
 23 24  2  0
 24 25  1  0
 25 26  2  0
 18 27  1  0
 27 28  2  0
 28 29  1  0
 29 30  1  0
 30 31  2  0
 30 32  1  0
 12 33  2  0
  5 34  1  0
 34 35  1  0
 35  2  1  0
 33  8  1  0
 32 13  2  0
 28 15  1  0
 26 21  1  0
  1 36  1  0
  1 37  1  0
  1 38  1  0
  3 39  1  0
  3 40  1  0
  4 41  1  0
  4 42  1  0
  9 43  1  0
 10 44  1  0
 11 45  1  0
 14 46  1  0
 16 47  1  0
 17 48  1  0
 22 49  1  0
 23 50  1  0
 24 51  1  0
 25 52  1  0
 26 53  1  0
 27 54  1  0
 29 55  1  0
 32 56  1  0
 33 57  1  0
 34 58  1  0
 34 59  1  0
 35 60  1  0
 35 61  1  0
M  END
>  <UniqueID>  (67) 
38

>  <SMILES>  (67) 
CN1CCN(C(=O)c2cccc(C3=CC(=O)Nc4cc(C#Cc5ccccc5)ccc4N3)c2)CC1

>  <Energy>  (67) 
89.2893860797716

>  <Genealogy>  (67) 
CN1CCN(C(=O)c2cccc(C3=CC(=O)Nc4cc(C#Cc5ccccc5)ccc4N3)c2)CC1 (tautomer)
CN1CCN(C(=O)c2cccc(C3=CC(=O)Nc4cc(C#Cc5ccccc5)ccc4N3)c2)CC1 (3D coordinates assigned)
CN1CCN(C(=O)c2cccc(C3=CC(=O)Nc4cc(C#Cc5ccccc5)ccc4N3)c2)CC1 (nonaromatic ring conformer: 89.2893860797716 kcal/mol)

>  <smiles>  (67) 
CN1CCN(C(=O)c2cccc(C3=Nc4ccc(C#Cc5ccccc5)cc4NC(=O)C3)c2)CC1

>  <score_type>  (67) 
oracle

>  <origin>  (67) 
autodockgpu

>  <m_score__min__energy>  (67) 
-6.7800000000000002

>  <m_primary>  (67) 
energy

>  <meeko>  (67) 
{"free_energy": -4.92, "intermolecular_energy": -7.6, "internal_energy": -1.21, "cluster_size": 1, "cluster_id": 8, "rank_in_cluster": 1}

>  <energy>  (67) 
-6.1

>  <cluster_rmsd>  (67) 
1.49

>  <rmsd>  (67) 
272.66

>  <cluster>  (67) 
1

$$$$
XUWAGCJCFKXBCU-VJSLDGLSNA-N
     RDKit          3D

 61 65  0  0  0  0  0  0  0  0999 V2000
  146.0270   74.1390  213.5230 C   0  0  0  0  0  0  0  0  0  0  0  0
  144.8050   73.5890  214.1340 N   0  0  0  0  0  0  0  0  0  0  0  0
  145.0490   72.3060  214.8290 C   0  0  0  0  0  0  0  0  0  0  0  0
  145.7970   72.4850  216.1580 C   0  0  0  0  0  0  0  0  0  0  0  0
  145.1410   73.5120  216.9680 N   0  0  0  0  0  0  0  0  0  0  0  0
  145.2090   73.4290  218.4020 C   0  0  0  0  0  0  0  0  0  0  0  0
  146.2640   73.0050  218.9470 O   0  0  0  0  0  0  0  0  0  0  0  0
  144.0520   73.8120  219.2470 C   0  0  0  0  0  0  0  0  0  0  0  0
  143.4810   72.8810  220.1290 C   0  0  0  0  0  0  0  0  0  0  0  0
  142.3930   73.2410  220.9270 C   0  0  0  0  0  0  0  0  0  0  0  0
  141.8560   74.5270  220.8470 C   0  0  0  0  0  0  0  0  0  0  0  0
  142.3950   75.4680  219.9550 C   0  0  0  0  0  0  0  0  0  0  0  0
  141.8120   76.8340  219.8870 C   0  0  0  0  0  0  0  0  0  0  0  0
  142.2710   77.8120  220.8270 N   0  0  0  0  0  0  0  0  0  0  0  0
  141.3490   78.5040  221.6690 C   0  0  0  0  0  0  0  0  0  0  0  0
  141.5060   78.4290  223.0630 C   0  0  0  0  0  0  0  0  0  0  0  0
  140.6340   79.1110  223.9120 C   0  0  0  0  0  0  0  0  0  0  0  0
  139.6060   79.8940  223.3760 C   0  0  0  0  0  0  0  0  0  0  0  0
  138.7130   80.6070  224.2500 C   0  0  0  0  0  0  0  0  0  0  0  0
  137.9640   81.2040  224.9820 C   0  0  0  0  0  0  0  0  0  0  0  0
  137.0710   81.9170  225.8570 C   0  0  0  0  0  0  0  0  0  0  0  0
  136.7400   83.2520  225.5870 C   0  0  0  0  0  0  0  0  0  0  0  0
  135.8710   83.9430  226.4380 C   0  0  0  0  0  0  0  0  0  0  0  0
  135.3330   83.3030  227.5590 C   0  0  0  0  0  0  0  0  0  0  0  0
  135.6620   81.9710  227.8310 C   0  0  0  0  0  0  0  0  0  0  0  0
  136.5300   81.2770  226.9810 C   0  0  0  0  0  0  0  0  0  0  0  0
  139.4590   79.9910  221.9880 C   0  0  0  0  0  0  0  0  0  0  0  0
  140.3170   79.2900  221.1250 C   0  0  0  0  0  0  0  0  0  0  0  0
  140.1950   79.4930  219.7110 N   0  0  0  0  0  0  0  0  0  0  0  0
  140.3340   78.4770  218.7070 C   0  0  0  0  0  0  0  0  0  0  0  0
  139.9170   78.7230  217.5440 O   0  0  0  0  0  0  0  0  0  0  0  0
  140.8900   77.1330  218.9600 C   0  0  0  0  0  0  0  0  0  0  0  0
  143.4980   75.1010  219.1580 C   0  0  0  0  0  0  0  0  0  0  0  0
  144.8400   74.7960  216.3300 C   0  0  0  0  0  0  0  0  0  0  0  0
  144.1120   74.5650  214.9990 C   0  0  0  0  0  0  0  0  0  0  0  0
  146.7236   74.4525  214.3145 H   0  0  0  0  0  0  0  0  0  0  0  0
  146.5037   73.3686  212.8991 H   0  0  0  0  0  0  0  0  0  0  0  0
  145.7664   75.0066  212.8991 H   0  0  0  0  0  0  0  0  0  0  0  0
  144.0803   71.8261  215.0322 H   0  0  0  0  0  0  0  0  0  0  0  0
  145.6797   71.6876  214.1734 H   0  0  0  0  0  0  0  0  0  0  0  0
  145.7960   71.5321  216.7076 H   0  0  0  0  0  0  0  0  0  0  0  0
  146.8317   72.7955  215.9506 H   0  0  0  0  0  0  0  0  0  0  0  0
  143.8926   71.8629  220.1918 H   0  0  0  0  0  0  0  0  0  0  0  0
  141.9572   72.5079  221.6217 H   0  0  0  0  0  0  0  0  0  0  0  0
  141.0054   74.8049  221.4867 H   0  0  0  0  0  0  0  0  0  0  0  0
  143.2470   77.7000  221.1850 H   0  0  0  0  0  0  0  0  0  0  0  0
  142.3230   77.8278  223.4885 H   0  0  0  0  0  0  0  0  0  0  0  0
  140.7547   79.0331  225.0026 H   0  0  0  0  0  0  0  0  0  0  0  0
  137.1636   83.7563  224.7060 H   0  0  0  0  0  0  0  0  0  0  0  0
  135.6107   84.9904  226.2253 H   0  0  0  0  0  0  0  0  0  0  0  0
  134.6503   83.8478  228.2277 H   0  0  0  0  0  0  0  0  0  0  0  0
  135.2383   81.4690  228.7133 H   0  0  0  0  0  0  0  0  0  0  0  0
  136.7880   80.2292  227.1946 H   0  0  0  0  0  0  0  0  0  0  0  0
  138.6627   80.6232  221.5681 H   0  0  0  0  0  0  0  0  0  0  0  0
  139.7740   80.3980  219.3960 H   0  0  0  0  0  0  0  0  0  0  0  0
  140.5168   76.3076  218.3359 H   0  0  0  0  0  0  0  0  0  0  0  0
  143.9303   75.8315  218.4584 H   0  0  0  0  0  0  0  0  0  0  0  0
  144.1994   75.3922  216.9965 H   0  0  0  0  0  0  0  0  0  0  0  0
  145.7811   75.3321  216.1376 H   0  0  0  0  0  0  0  0  0  0  0  0
  143.0997   74.1908  215.2116 H   0  0  0  0  0  0  0  0  0  0  0  0
  144.0856   75.5252  214.4629 H   0  0  0  0  0  0  0  0  0  0  0  0
  1  2  1  0
  2  3  1  0
  3  4  1  0
  4  5  1  0
  5  6  1  0
  6  7  2  0
  6  8  1  0
  8  9  2  0
  9 10  1  0
 10 11  2  0
 11 12  1  0
 12 13  1  0
 13 14  1  0
 14 15  1  0
 15 16  2  0
 16 17  1  0
 17 18  2  0
 18 19  1  0
 19 20  3  0
 20 21  1  0
 21 22  2  0
 22 23  1  0
 23 24  2  0
 24 25  1  0
 25 26  2  0
 18 27  1  0
 27 28  2  0
 28 29  1  0
 29 30  1  0
 30 31  2  0
 30 32  1  0
 12 33  2  0
  5 34  1  0
 34 35  1  0
 35  2  1  0
 33  8  1  0
 32 13  2  0
 28 15  1  0
 26 21  1  0
  1 36  1  0
  1 37  1  0
  1 38  1  0
  3 39  1  0
  3 40  1  0
  4 41  1  0
  4 42  1  0
  9 43  1  0
 10 44  1  0
 11 45  1  0
 14 46  1  0
 16 47  1  0
 17 48  1  0
 22 49  1  0
 23 50  1  0
 24 51  1  0
 25 52  1  0
 26 53  1  0
 27 54  1  0
 29 55  1  0
 32 56  1  0
 33 57  1  0
 34 58  1  0
 34 59  1  0
 35 60  1  0
 35 61  1  0
M  END
>  <UniqueID>  (68) 
38

>  <SMILES>  (68) 
CN1CCN(C(=O)c2cccc(C3=CC(=O)Nc4cc(C#Cc5ccccc5)ccc4N3)c2)CC1

>  <Energy>  (68) 
89.2893860797716

>  <Genealogy>  (68) 
CN1CCN(C(=O)c2cccc(C3=CC(=O)Nc4cc(C#Cc5ccccc5)ccc4N3)c2)CC1 (tautomer)
CN1CCN(C(=O)c2cccc(C3=CC(=O)Nc4cc(C#Cc5ccccc5)ccc4N3)c2)CC1 (3D coordinates assigned)
CN1CCN(C(=O)c2cccc(C3=CC(=O)Nc4cc(C#Cc5ccccc5)ccc4N3)c2)CC1 (nonaromatic ring conformer: 89.2893860797716 kcal/mol)

>  <smiles>  (68) 
CN1CCN(C(=O)c2cccc(C3=Nc4ccc(C#Cc5ccccc5)cc4NC(=O)C3)c2)CC1

>  <score_type>  (68) 
oracle

>  <origin>  (68) 
autodockgpu

>  <m_score__min__energy>  (68) 
-6.7800000000000002

>  <m_primary>  (68) 
energy

>  <meeko>  (68) 
{"free_energy": -5.45, "intermolecular_energy": -8.13, "internal_energy": -1.19, "cluster_size": 1, "cluster_id": 6, "rank_in_cluster": 1}

>  <energy>  (68) 
-6.06

>  <cluster_rmsd>  (68) 
1.12

>  <rmsd>  (68) 
272.49

>  <cluster>  (68) 
1

$$$$
XUWAGCJCFKXBCU-VJSLDGLSNA-N
     RDKit          3D

 61 65  0  0  0  0  0  0  0  0999 V2000
  142.1830   81.4920  224.3950 C   0  0  0  0  0  0  0  0  0  0  0  0
  142.1760   80.0980  223.9190 N   0  0  0  0  0  0  0  0  0  0  0  0
  140.8090   79.5930  223.6680 C   0  0  0  0  0  0  0  0  0  0  0  0
  140.1870   80.1750  222.3920 C   0  0  0  0  0  0  0  0  0  0  0  0
  141.1150   80.0300  221.2690 N   0  0  0  0  0  0  0  0  0  0  0  0
  140.5940   79.8860  219.9370 C   0  0  0  0  0  0  0  0  0  0  0  0
  139.5560   80.5220  219.6070 O   0  0  0  0  0  0  0  0  0  0  0  0
  141.2430   78.9850  218.9540 C   0  0  0  0  0  0  0  0  0  0  0  0
  141.5760   79.4570  217.6740 C   0  0  0  0  0  0  0  0  0  0  0  0
  142.1900   78.6120  216.7480 C   0  0  0  0  0  0  0  0  0  0  0  0
  142.4680   77.2860  217.0820 C   0  0  0  0  0  0  0  0  0  0  0  0
  142.1220   76.7840  218.3480 C   0  0  0  0  0  0  0  0  0  0  0  0
  142.4320   75.3690  218.6860 C   0  0  0  0  0  0  0  0  0  0  0  0
  141.3400   74.4540  218.8330 N   0  0  0  0  0  0  0  0  0  0  0  0
  141.1890   73.6840  220.0250 C   0  0  0  0  0  0  0  0  0  0  0  0
  139.9970   73.7890  220.7610 C   0  0  0  0  0  0  0  0  0  0  0  0
  139.8090   73.0330  221.9190 C   0  0  0  0  0  0  0  0  0  0  0  0
  140.8050   72.1470  222.3430 C   0  0  0  0  0  0  0  0  0  0  0  0
  140.6090   71.3590  223.5310 C   0  0  0  0  0  0  0  0  0  0  0  0
  140.4460   70.6980  224.5260 C   0  0  0  0  0  0  0  0  0  0  0  0
  140.2500   69.9100  225.7140 C   0  0  0  0  0  0  0  0  0  0  0  0
  140.3410   70.5080  226.9780 C   0  0  0  0  0  0  0  0  0  0  0  0
  140.1500   69.7400  228.1310 C   0  0  0  0  0  0  0  0  0  0  0  0
  139.8680   68.3750  228.0240 C   0  0  0  0  0  0  0  0  0  0  0  0
  139.7760   67.7750  226.7640 C   0  0  0  0  0  0  0  0  0  0  0  0
  139.9670   68.5400  225.6080 C   0  0  0  0  0  0  0  0  0  0  0  0
  141.9840   72.0210  221.6010 C   0  0  0  0  0  0  0  0  0  0  0  0
  142.1920   72.7940  220.4470 C   0  0  0  0  0  0  0  0  0  0  0  0
  143.3700   72.5640  219.6620 N   0  0  0  0  0  0  0  0  0  0  0  0
  144.1510   73.5790  219.0140 C   0  0  0  0  0  0  0  0  0  0  0  0
  145.3070   73.2790  218.6120 O   0  0  0  0  0  0  0  0  0  0  0  0
  143.7090   74.9750  218.8310 C   0  0  0  0  0  0  0  0  0  0  0  0
  141.5110   77.6440  219.2810 C   0  0  0  0  0  0  0  0  0  0  0  0
  142.4950   80.4810  221.4630 C   0  0  0  0  0  0  0  0  0  0  0  0
  143.0660   79.8900  222.7590 C   0  0  0  0  0  0  0  0  0  0  0  0
  142.1831   81.5039  225.4949 H   0  0  0  0  0  0  0  0  0  0  0  0
  143.0837   82.0020  224.0228 H   0  0  0  0  0  0  0  0  0  0  0  0
  141.2875   82.0111  224.0228 H   0  0  0  0  0  0  0  0  0  0  0  0
  140.8508   78.4981  223.5712 H   0  0  0  0  0  0  0  0  0  0  0  0
  140.1798   79.9032  224.5153 H   0  0  0  0  0  0  0  0  0  0  0  0
  139.2540   79.6386  222.1646 H   0  0  0  0  0  0  0  0  0  0  0  0
  139.9757   81.2430  222.5491 H   0  0  0  0  0  0  0  0  0  0  0  0
  141.3518   80.4983  217.3996 H   0  0  0  0  0  0  0  0  0  0  0  0
  142.4558   78.9930  215.7509 H   0  0  0  0  0  0  0  0  0  0  0  0
  142.9610   76.6297  216.3498 H   0  0  0  0  0  0  0  0  0  0  0  0
  140.4700   74.6690  218.2940 H   0  0  0  0  0  0  0  0  0  0  0  0
  139.2051   74.4729  220.4217 H   0  0  0  0  0  0  0  0  0  0  0  0
  138.8789   73.1337  222.4975 H   0  0  0  0  0  0  0  0  0  0  0  0
  140.5628   71.5820  227.0634 H   0  0  0  0  0  0  0  0  0  0  0  0
  140.2217   70.2103  229.1228 H   0  0  0  0  0  0  0  0  0  0  0  0
  139.7183   67.7721  228.9318 H   0  0  0  0  0  0  0  0  0  0  0  0
  139.5533   66.7009  226.6817 H   0  0  0  0  0  0  0  0  0  0  0  0
  139.8953   68.0677  224.6172 H   0  0  0  0  0  0  0  0  0  0  0  0
  142.7569   71.3085  221.9249 H   0  0  0  0  0  0  0  0  0  0  0  0
  143.8100   71.6180  219.7330 H   0  0  0  0  0  0  0  0  0  0  0  0
  144.4852   75.7541  218.8117 H   0  0  0  0  0  0  0  0  0  0  0  0
  141.2404   77.2624  220.2766 H   0  0  0  0  0  0  0  0  0  0  0  0
  143.1085   80.1513  220.6116 H   0  0  0  0  0  0  0  0  0  0  0  0
  142.5086   81.5788  221.5315 H   0  0  0  0  0  0  0  0  0  0  0  0
  143.2140   78.8092  222.6180 H   0  0  0  0  0  0  0  0  0  0  0  0
  144.0145   80.4055  222.9704 H   0  0  0  0  0  0  0  0  0  0  0  0
  1  2  1  0
  2  3  1  0
  3  4  1  0
  4  5  1  0
  5  6  1  0
  6  7  2  0
  6  8  1  0
  8  9  2  0
  9 10  1  0
 10 11  2  0
 11 12  1  0
 12 13  1  0
 13 14  1  0
 14 15  1  0
 15 16  2  0
 16 17  1  0
 17 18  2  0
 18 19  1  0
 19 20  3  0
 20 21  1  0
 21 22  2  0
 22 23  1  0
 23 24  2  0
 24 25  1  0
 25 26  2  0
 18 27  1  0
 27 28  2  0
 28 29  1  0
 29 30  1  0
 30 31  2  0
 30 32  1  0
 12 33  2  0
  5 34  1  0
 34 35  1  0
 35  2  1  0
 33  8  1  0
 32 13  2  0
 28 15  1  0
 26 21  1  0
  1 36  1  0
  1 37  1  0
  1 38  1  0
  3 39  1  0
  3 40  1  0
  4 41  1  0
  4 42  1  0
  9 43  1  0
 10 44  1  0
 11 45  1  0
 14 46  1  0
 16 47  1  0
 17 48  1  0
 22 49  1  0
 23 50  1  0
 24 51  1  0
 25 52  1  0
 26 53  1  0
 27 54  1  0
 29 55  1  0
 32 56  1  0
 33 57  1  0
 34 58  1  0
 34 59  1  0
 35 60  1  0
 35 61  1  0
M  END
>  <UniqueID>  (69) 
38

>  <SMILES>  (69) 
CN1CCN(C(=O)c2cccc(C3=CC(=O)Nc4cc(C#Cc5ccccc5)ccc4N3)c2)CC1

>  <Energy>  (69) 
89.2893860797716

>  <Genealogy>  (69) 
CN1CCN(C(=O)c2cccc(C3=CC(=O)Nc4cc(C#Cc5ccccc5)ccc4N3)c2)CC1 (tautomer)
CN1CCN(C(=O)c2cccc(C3=CC(=O)Nc4cc(C#Cc5ccccc5)ccc4N3)c2)CC1 (3D coordinates assigned)
CN1CCN(C(=O)c2cccc(C3=CC(=O)Nc4cc(C#Cc5ccccc5)ccc4N3)c2)CC1 (nonaromatic ring conformer: 89.2893860797716 kcal/mol)

>  <smiles>  (69) 
CN1CCN(C(=O)c2cccc(C3=Nc4ccc(C#Cc5ccccc5)cc4NC(=O)C3)c2)CC1

>  <score_type>  (69) 
oracle

>  <origin>  (69) 
autodockgpu

>  <m_score__min__energy>  (69) 
-6.7800000000000002

>  <m_primary>  (69) 
energy

>  <meeko>  (69) 
{"free_energy": -6.29, "intermolecular_energy": -8.97, "internal_energy": -1.27, "cluster_size": 9, "cluster_id": 1, "rank_in_cluster": 6}

>  <energy>  (69) 
-5.99

>  <cluster_rmsd>  (69) 
1.31

>  <rmsd>  (69) 
272.44

>  <cluster>  (69) 
1

$$$$
XUWAGCJCFKXBCU-VJSLDGLSNA-N
     RDKit          3D

 61 65  0  0  0  0  0  0  0  0999 V2000
  134.1430   78.2220  222.7370 C   0  0  0  0  0  0  0  0  0  0  0  0
  135.1640   78.6460  221.7640 N   0  0  0  0  0  0  0  0  0  0  0  0
  135.4540   80.0940  221.8440 C   0  0  0  0  0  0  0  0  0  0  0  0
  136.2840   80.4650  223.0810 C   0  0  0  0  0  0  0  0  0  0  0  0
  137.4560   79.5930  223.1790 N   0  0  0  0  0  0  0  0  0  0  0  0
  138.6560   80.0920  223.7940 C   0  0  0  0  0  0  0  0  0  0  0  0
  138.5670   80.8710  224.7820 O   0  0  0  0  0  0  0  0  0  0  0  0
  139.9930   79.7240  223.2710 C   0  0  0  0  0  0  0  0  0  0  0  0
  141.1550   80.2240  223.8830 C   0  0  0  0  0  0  0  0  0  0  0  0
  142.4150   79.8770  223.3930 C   0  0  0  0  0  0  0  0  0  0  0  0
  142.5330   79.0380  222.2840 C   0  0  0  0  0  0  0  0  0  0  0  0
  141.3860   78.5450  221.6410 C   0  0  0  0  0  0  0  0  0  0  0  0
  141.5320   77.6490  220.4630 C   0  0  0  0  0  0  0  0  0  0  0  0
  140.7770   76.4330  220.4410 N   0  0  0  0  0  0  0  0  0  0  0  0
  141.4250   75.1740  220.2540 C   0  0  0  0  0  0  0  0  0  0  0  0
  141.2710   74.1750  221.2290 C   0  0  0  0  0  0  0  0  0  0  0  0
  141.8740   72.9270  221.0660 C   0  0  0  0  0  0  0  0  0  0  0  0
  142.6220   72.6580  219.9150 C   0  0  0  0  0  0  0  0  0  0  0  0
  143.2360   71.3680  219.7400 C   0  0  0  0  0  0  0  0  0  0  0  0
  143.7500   70.2870  219.5930 C   0  0  0  0  0  0  0  0  0  0  0  0
  144.3630   68.9980  219.4160 C   0  0  0  0  0  0  0  0  0  0  0  0
  143.5720   67.8410  219.3830 C   0  0  0  0  0  0  0  0  0  0  0  0
  144.1700   66.5890  219.2090 C   0  0  0  0  0  0  0  0  0  0  0  0
  145.5590   66.4890  219.0700 C   0  0  0  0  0  0  0  0  0  0  0  0
  146.3500   67.6420  219.1040 C   0  0  0  0  0  0  0  0  0  0  0  0
  145.7550   68.8960  219.2760 C   0  0  0  0  0  0  0  0  0  0  0  0
  142.7600   73.6420  218.9300 C   0  0  0  0  0  0  0  0  0  0  0  0
  142.1750   74.9080  219.0950 C   0  0  0  0  0  0  0  0  0  0  0  0
  142.2570   75.8550  218.0210 N   0  0  0  0  0  0  0  0  0  0  0  0
  142.4600   77.2680  218.1680 C   0  0  0  0  0  0  0  0  0  0  0  0
  142.8030   77.9320  217.1530 O   0  0  0  0  0  0  0  0  0  0  0  0
  142.3420   77.9940  219.4470 C   0  0  0  0  0  0  0  0  0  0  0  0
  140.1170   78.8920  222.1440 C   0  0  0  0  0  0  0  0  0  0  0  0
  137.2420   78.1480  223.0740 C   0  0  0  0  0  0  0  0  0  0  0  0
  136.3920   77.8290  221.8360 C   0  0  0  0  0  0  0  0  0  0  0  0
  134.5216   78.3792  223.7578 H   0  0  0  0  0  0  0  0  0  0  0  0
  133.2280   78.8145  222.5900 H   0  0  0  0  0  0  0  0  0  0  0  0
  133.9169   77.1556  222.5900 H   0  0  0  0  0  0  0  0  0  0  0  0
  136.0119   80.3913  220.9438 H   0  0  0  0  0  0  0  0  0  0  0  0
  134.4918   80.6217  221.9193 H   0  0  0  0  0  0  0  0  0  0  0  0
  136.6144   81.5109  222.9975 H   0  0  0  0  0  0  0  0  0  0  0  0
  135.6649   80.3395  223.9815 H   0  0  0  0  0  0  0  0  0  0  0  0
  141.0711   80.8923  224.7527 H   0  0  0  0  0  0  0  0  0  0  0  0
  143.3193   80.2667  223.8833 H   0  0  0  0  0  0  0  0  0  0  0  0
  143.5303   78.7613  221.9114 H   0  0  0  0  0  0  0  0  0  0  0  0
  139.8760   76.4270  220.9720 H   0  0  0  0  0  0  0  0  0  0  0  0
  140.6705   74.3778  222.1280 H   0  0  0  0  0  0  0  0  0  0  0  0
  141.7612   72.1555  221.8420 H   0  0  0  0  0  0  0  0  0  0  0  0
  142.4803   67.9181  219.4940 H   0  0  0  0  0  0  0  0  0  0  0  0
  143.5482   65.6820  219.1814 H   0  0  0  0  0  0  0  0  0  0  0  0
  146.0286   65.5036  218.9340 H   0  0  0  0  0  0  0  0  0  0  0  0
  147.4417   67.5624  218.9953 H   0  0  0  0  0  0  0  0  0  0  0  0
  146.3784   69.8019  219.3015 H   0  0  0  0  0  0  0  0  0  0  0  0
  143.3326   73.4217  218.0170 H   0  0  0  0  0  0  0  0  0  0  0  0
  142.3830   75.4680  217.0570 H   0  0  0  0  0  0  0  0  0  0  0  0
  142.9669   78.8894  219.5799 H   0  0  0  0  0  0  0  0  0  0  0  0
  139.2126   78.5078  221.6496 H   0  0  0  0  0  0  0  0  0  0  0  0
  138.2147   77.6415  222.9878 H   0  0  0  0  0  0  0  0  0  0  0  0
  136.7149   77.7959  223.9730 H   0  0  0  0  0  0  0  0  0  0  0  0
  136.9951   78.0195  220.9360 H   0  0  0  0  0  0  0  0  0  0  0  0
  136.0868   76.7744  221.9043 H   0  0  0  0  0  0  0  0  0  0  0  0
  1  2  1  0
  2  3  1  0
  3  4  1  0
  4  5  1  0
  5  6  1  0
  6  7  2  0
  6  8  1  0
  8  9  2  0
  9 10  1  0
 10 11  2  0
 11 12  1  0
 12 13  1  0
 13 14  1  0
 14 15  1  0
 15 16  2  0
 16 17  1  0
 17 18  2  0
 18 19  1  0
 19 20  3  0
 20 21  1  0
 21 22  2  0
 22 23  1  0
 23 24  2  0
 24 25  1  0
 25 26  2  0
 18 27  1  0
 27 28  2  0
 28 29  1  0
 29 30  1  0
 30 31  2  0
 30 32  1  0
 12 33  2  0
  5 34  1  0
 34 35  1  0
 35  2  1  0
 33  8  1  0
 32 13  2  0
 28 15  1  0
 26 21  1  0
  1 36  1  0
  1 37  1  0
  1 38  1  0
  3 39  1  0
  3 40  1  0
  4 41  1  0
  4 42  1  0
  9 43  1  0
 10 44  1  0
 11 45  1  0
 14 46  1  0
 16 47  1  0
 17 48  1  0
 22 49  1  0
 23 50  1  0
 24 51  1  0
 25 52  1  0
 26 53  1  0
 27 54  1  0
 29 55  1  0
 32 56  1  0
 33 57  1  0
 34 58  1  0
 34 59  1  0
 35 60  1  0
 35 61  1  0
M  END
>  <UniqueID>  (70) 
38

>  <SMILES>  (70) 
CN1CCN(C(=O)c2cccc(C3=CC(=O)Nc4cc(C#Cc5ccccc5)ccc4N3)c2)CC1

>  <Energy>  (70) 
89.2893860797716

>  <Genealogy>  (70) 
CN1CCN(C(=O)c2cccc(C3=CC(=O)Nc4cc(C#Cc5ccccc5)ccc4N3)c2)CC1 (tautomer)
CN1CCN(C(=O)c2cccc(C3=CC(=O)Nc4cc(C#Cc5ccccc5)ccc4N3)c2)CC1 (3D coordinates assigned)
CN1CCN(C(=O)c2cccc(C3=CC(=O)Nc4cc(C#Cc5ccccc5)ccc4N3)c2)CC1 (nonaromatic ring conformer: 89.2893860797716 kcal/mol)

>  <smiles>  (70) 
CN1CCN(C(=O)c2cccc(C3=Nc4ccc(C#Cc5ccccc5)cc4NC(=O)C3)c2)CC1

>  <score_type>  (70) 
oracle

>  <origin>  (70) 
autodockgpu

>  <m_score__min__energy>  (70) 
-6.7800000000000002

>  <m_primary>  (70) 
energy

>  <meeko>  (70) 
{"free_energy": -5.49, "intermolecular_energy": -8.18, "internal_energy": -1.21, "cluster_size": 3, "cluster_id": 5, "rank_in_cluster": 2}

>  <energy>  (70) 
-6.44

>  <cluster_rmsd>  (70) 
0.0

>  <rmsd>  (70) 
272.14

>  <cluster>  (70) 
2

$$$$
XUWAGCJCFKXBCU-VJSLDGLSNA-N
     RDKit          3D

 61 65  0  0  0  0  0  0  0  0999 V2000
  140.2380   79.5080  223.9320 C   0  0  0  0  0  0  0  0  0  0  0  0
  139.8550   78.5190  222.9100 N   0  0  0  0  0  0  0  0  0  0  0  0
  138.9810   79.0940  221.8660 C   0  0  0  0  0  0  0  0  0  0  0  0
  139.7410   80.0060  220.8930 C   0  0  0  0  0  0  0  0  0  0  0  0
  140.9340   79.3210  220.3920 N   0  0  0  0  0  0  0  0  0  0  0  0
  141.4290   79.6370  219.0800 C   0  0  0  0  0  0  0  0  0  0  0  0
  141.3600   80.8250  218.6620 O   0  0  0  0  0  0  0  0  0  0  0  0
  141.9970   78.5850  218.2030 C   0  0  0  0  0  0  0  0  0  0  0  0
  142.3510   78.8830  216.8770 C   0  0  0  0  0  0  0  0  0  0  0  0
  142.8880   77.8940  216.0510 C   0  0  0  0  0  0  0  0  0  0  0  0
  143.0690   76.5970  216.5320 C   0  0  0  0  0  0  0  0  0  0  0  0
  142.7000   76.2680  217.8470 C   0  0  0  0  0  0  0  0  0  0  0  0
  142.9050   74.8810  218.3420 C   0  0  0  0  0  0  0  0  0  0  0  0
  141.7500   74.0690  218.5770 N   0  0  0  0  0  0  0  0  0  0  0  0
  141.5350   73.4540  219.8470 C   0  0  0  0  0  0  0  0  0  0  0  0
  140.3500   73.7300  220.5490 C   0  0  0  0  0  0  0  0  0  0  0  0
  140.1010   73.1290  221.7830 C   0  0  0  0  0  0  0  0  0  0  0  0
  141.0250   72.2290  222.3210 C   0  0  0  0  0  0  0  0  0  0  0  0
  140.7660   71.5990  223.5890 C   0  0  0  0  0  0  0  0  0  0  0  0
  140.5480   71.0720  224.6510 C   0  0  0  0  0  0  0  0  0  0  0  0
  140.2870   70.4420  225.9180 C   0  0  0  0  0  0  0  0  0  0  0  0
  140.5230   71.1380  227.1110 C   0  0  0  0  0  0  0  0  0  0  0  0
  140.2690   70.5240  228.3420 C   0  0  0  0  0  0  0  0  0  0  0  0
  139.7790   69.2140  228.3830 C   0  0  0  0  0  0  0  0  0  0  0  0
  139.5430   68.5180  227.1930 C   0  0  0  0  0  0  0  0  0  0  0  0
  139.7960   69.1290  225.9610 C   0  0  0  0  0  0  0  0  0  0  0  0
  142.1970   71.9320  221.6160 C   0  0  0  0  0  0  0  0  0  0  0  0
  142.4670   72.5490  220.3830 C   0  0  0  0  0  0  0  0  0  0  0  0
  143.6300   72.1450  219.6460 N   0  0  0  0  0  0  0  0  0  0  0  0
  144.4850   73.0180  218.8940 C   0  0  0  0  0  0  0  0  0  0  0  0
  145.6180   72.5910  218.5450 O   0  0  0  0  0  0  0  0  0  0  0  0
  144.1450   74.4100  218.5410 C   0  0  0  0  0  0  0  0  0  0  0  0
  142.1660   77.2720  218.6780 C   0  0  0  0  0  0  0  0  0  0  0  0
  141.8260   78.7000  221.3740 C   0  0  0  0  0  0  0  0  0  0  0  0
  141.0190   77.8160  222.3350 C   0  0  0  0  0  0  0  0  0  0  0  0
  140.0735   79.0831  224.9332 H   0  0  0  0  0  0  0  0  0  0  0  0
  141.3008   79.7654  223.8130 H   0  0  0  0  0  0  0  0  0  0  0  0
  139.6258   80.4141  223.8130 H   0  0  0  0  0  0  0  0  0  0  0  0
  138.5268   78.2709  221.2948 H   0  0  0  0  0  0  0  0  0  0  0  0
  138.2202   79.7075  222.3707 H   0  0  0  0  0  0  0  0  0  0  0  0
  139.0861   80.2623  220.0472 H   0  0  0  0  0  0  0  0  0  0  0  0
  140.0456   80.9220  221.4203 H   0  0  0  0  0  0  0  0  0  0  0  0
  142.2043   79.9011  216.4872 H   0  0  0  0  0  0  0  0  0  0  0  0
  143.1697   78.1384  215.0162 H   0  0  0  0  0  0  0  0  0  0  0  0
  143.5034   75.8270  215.8774 H   0  0  0  0  0  0  0  0  0  0  0  0
  140.9010   74.2800  218.0030 H   0  0  0  0  0  0  0  0  0  0  0  0
  139.6125   74.4256  220.1222 H   0  0  0  0  0  0  0  0  0  0  0  0
  139.1774   73.3634  222.3326 H   0  0  0  0  0  0  0  0  0  0  0  0
  140.9082   72.1679  227.0795 H   0  0  0  0  0  0  0  0  0  0  0  0
  140.4545   71.0712  229.2780 H   0  0  0  0  0  0  0  0  0  0  0  0
  139.5794   68.7315  229.3512 H   0  0  0  0  0  0  0  0  0  0  0  0
  139.1577   67.4882  227.2263 H   0  0  0  0  0  0  0  0  0  0  0  0
  139.6100   68.5801  225.0260 H   0  0  0  0  0  0  0  0  0  0  0  0
  142.9138   71.2084  222.0314 H   0  0  0  0  0  0  0  0  0  0  0  0
  144.0010   71.1850  219.8350 H   0  0  0  0  0  0  0  0  0  0  0  0
  144.9778   75.1204  218.4320 H   0  0  0  0  0  0  0  0  0  0  0  0
  141.8777   77.0263  219.7107 H   0  0  0  0  0  0  0  0  0  0  0  0
  142.5704   78.0825  220.8500 H   0  0  0  0  0  0  0  0  0  0  0  0
  142.3324   79.4887  221.9497 H   0  0  0  0  0  0  0  0  0  0  0  0
  140.6611   76.9330  221.7852 H   0  0  0  0  0  0  0  0  0  0  0  0
  141.6825   77.5346  223.1660 H   0  0  0  0  0  0  0  0  0  0  0  0
  1  2  1  0
  2  3  1  0
  3  4  1  0
  4  5  1  0
  5  6  1  0
  6  7  2  0
  6  8  1  0
  8  9  2  0
  9 10  1  0
 10 11  2  0
 11 12  1  0
 12 13  1  0
 13 14  1  0
 14 15  1  0
 15 16  2  0
 16 17  1  0
 17 18  2  0
 18 19  1  0
 19 20  3  0
 20 21  1  0
 21 22  2  0
 22 23  1  0
 23 24  2  0
 24 25  1  0
 25 26  2  0
 18 27  1  0
 27 28  2  0
 28 29  1  0
 29 30  1  0
 30 31  2  0
 30 32  1  0
 12 33  2  0
  5 34  1  0
 34 35  1  0
 35  2  1  0
 33  8  1  0
 32 13  2  0
 28 15  1  0
 26 21  1  0
  1 36  1  0
  1 37  1  0
  1 38  1  0
  3 39  1  0
  3 40  1  0
  4 41  1  0
  4 42  1  0
  9 43  1  0
 10 44  1  0
 11 45  1  0
 14 46  1  0
 16 47  1  0
 17 48  1  0
 22 49  1  0
 23 50  1  0
 24 51  1  0
 25 52  1  0
 26 53  1  0
 27 54  1  0
 29 55  1  0
 32 56  1  0
 33 57  1  0
 34 58  1  0
 34 59  1  0
 35 60  1  0
 35 61  1  0
M  END
>  <UniqueID>  (71) 
38

>  <SMILES>  (71) 
CN1CCN(C(=O)c2cccc(C3=CC(=O)Nc4cc(C#Cc5ccccc5)ccc4N3)c2)CC1

>  <Energy>  (71) 
89.2893860797716

>  <Genealogy>  (71) 
CN1CCN(C(=O)c2cccc(C3=CC(=O)Nc4cc(C#Cc5ccccc5)ccc4N3)c2)CC1 (tautomer)
CN1CCN(C(=O)c2cccc(C3=CC(=O)Nc4cc(C#Cc5ccccc5)ccc4N3)c2)CC1 (3D coordinates assigned)
CN1CCN(C(=O)c2cccc(C3=CC(=O)Nc4cc(C#Cc5ccccc5)ccc4N3)c2)CC1 (nonaromatic ring conformer: 89.2893860797716 kcal/mol)

>  <smiles>  (71) 
CN1CCN(C(=O)c2cccc(C3=Nc4ccc(C#Cc5ccccc5)cc4NC(=O)C3)c2)CC1

>  <score_type>  (71) 
oracle

>  <origin>  (71) 
autodockgpu

>  <m_score__min__energy>  (71) 
-6.7800000000000002

>  <m_primary>  (71) 
energy

>  <meeko>  (71) 
{"free_energy": -6.45, "intermolecular_energy": -9.14, "internal_energy": -1.35, "cluster_size": 9, "cluster_id": 1, "rank_in_cluster": 5}

>  <energy>  (71) 
-6.43

>  <cluster_rmsd>  (71) 
0.73

>  <rmsd>  (71) 
271.96

>  <cluster>  (71) 
2

$$$$
XUWAGCJCFKXBCU-VJSLDGLSNA-N
     RDKit          3D

 61 65  0  0  0  0  0  0  0  0999 V2000
  142.1180   81.5510  224.2880 C   0  0  0  0  0  0  0  0  0  0  0  0
  142.0720   80.1590  223.8100 N   0  0  0  0  0  0  0  0  0  0  0  0
  140.6940   79.7030  223.5260 C   0  0  0  0  0  0  0  0  0  0  0  0
  140.1250   80.3080  222.2350 C   0  0  0  0  0  0  0  0  0  0  0  0
  141.0740   80.1290  221.1350 N   0  0  0  0  0  0  0  0  0  0  0  0
  140.5800   80.0040  219.7910 C   0  0  0  0  0  0  0  0  0  0  0  0
  139.5750   80.6770  219.4360 O   0  0  0  0  0  0  0  0  0  0  0  0
  141.2210   79.0810  218.8230 C   0  0  0  0  0  0  0  0  0  0  0  0
  141.5420   79.5230  217.5300 C   0  0  0  0  0  0  0  0  0  0  0  0
  142.1460   78.6560  216.6170 C   0  0  0  0  0  0  0  0  0  0  0  0
  142.4280   77.3380  216.9800 C   0  0  0  0  0  0  0  0  0  0  0  0
  142.0940   76.8660  218.2600 C   0  0  0  0  0  0  0  0  0  0  0  0
  142.4070   75.4600  218.6290 C   0  0  0  0  0  0  0  0  0  0  0  0
  141.3180   74.5460  218.7970 N   0  0  0  0  0  0  0  0  0  0  0  0
  141.1700   73.8000  220.0050 C   0  0  0  0  0  0  0  0  0  0  0  0
  139.9800   73.9190  220.7410 C   0  0  0  0  0  0  0  0  0  0  0  0
  139.7970   73.1870  221.9150 C   0  0  0  0  0  0  0  0  0  0  0  0
  140.7940   72.3110  222.3550 C   0  0  0  0  0  0  0  0  0  0  0  0
  140.6020   71.5470  223.5590 C   0  0  0  0  0  0  0  0  0  0  0  0
  140.4420   70.9070  224.5680 C   0  0  0  0  0  0  0  0  0  0  0  0
  140.2490   70.1440  225.7720 C   0  0  0  0  0  0  0  0  0  0  0  0
  139.9520   68.7760  225.6990 C   0  0  0  0  0  0  0  0  0  0  0  0
  139.7660   68.0360  226.8710 C   0  0  0  0  0  0  0  0  0  0  0  0
  139.8760   68.6600  228.1180 C   0  0  0  0  0  0  0  0  0  0  0  0
  140.1720   70.0240  228.1940 C   0  0  0  0  0  0  0  0  0  0  0  0
  140.3590   70.7680  227.0240 C   0  0  0  0  0  0  0  0  0  0  0  0
  141.9720   72.1700  221.6130 C   0  0  0  0  0  0  0  0  0  0  0  0
  142.1750   72.9190  220.4420 C   0  0  0  0  0  0  0  0  0  0  0  0
  143.3520   72.6750  219.6580 N   0  0  0  0  0  0  0  0  0  0  0  0
  144.1290   73.6760  218.9870 C   0  0  0  0  0  0  0  0  0  0  0  0
  145.2840   73.3690  218.5880 O   0  0  0  0  0  0  0  0  0  0  0  0
  143.6850   75.0680  218.7760 C   0  0  0  0  0  0  0  0  0  0  0  0
  141.4920   77.7480  219.1780 C   0  0  0  0  0  0  0  0  0  0  0  0
  142.4650   80.5300  221.3630 C   0  0  0  0  0  0  0  0  0  0  0  0
  142.9820   79.9190  222.6720 C   0  0  0  0  0  0  0  0  0  0  0  0
  142.1183   81.5611  225.3879 H   0  0  0  0  0  0  0  0  0  0  0  0
  143.0327   82.0362  223.9166 H   0  0  0  0  0  0  0  0  0  0  0  0
  141.2374   82.0955  223.9166 H   0  0  0  0  0  0  0  0  0  0  0  0
  140.6987   78.6073  223.4291 H   0  0  0  0  0  0  0  0  0  0  0  0
  140.0557   80.0346  224.3583 H   0  0  0  0  0  0  0  0  0  0  0  0
  139.1786   79.8064  221.9844 H   0  0  0  0  0  0  0  0  0  0  0  0
  139.9496   81.3831  222.3879 H   0  0  0  0  0  0  0  0  0  0  0  0
  141.3165   80.5582  217.2342 H   0  0  0  0  0  0  0  0  0  0  0  0
  142.4005   79.0130  215.6081 H   0  0  0  0  0  0  0  0  0  0  0  0
  142.9149   76.6648  216.2591 H   0  0  0  0  0  0  0  0  0  0  0  0
  140.4460   74.7470  218.2550 H   0  0  0  0  0  0  0  0  0  0  0  0
  139.1860   74.5943  220.3895 H   0  0  0  0  0  0  0  0  0  0  0  0
  138.8685   73.2992  222.4941 H   0  0  0  0  0  0  0  0  0  0  0  0
  139.8651   68.2841  224.7190 H   0  0  0  0  0  0  0  0  0  0  0  0
  139.5331   66.9626  226.8122 H   0  0  0  0  0  0  0  0  0  0  0  0
  139.7295   68.0771  229.0393 H   0  0  0  0  0  0  0  0  0  0  0  0
  140.2581   70.5133  229.1754 H   0  0  0  0  0  0  0  0  0  0  0  0
  140.5921   71.8413  227.0855 H   0  0  0  0  0  0  0  0  0  0  0  0
  142.7468   71.4656  221.9500 H   0  0  0  0  0  0  0  0  0  0  0  0
  143.7930   71.7310  219.7480 H   0  0  0  0  0  0  0  0  0  0  0  0
  144.4612   75.8464  218.7358 H   0  0  0  0  0  0  0  0  0  0  0  0
  141.2308   77.3897  220.1847 H   0  0  0  0  0  0  0  0  0  0  0  0
  143.0869   80.1781  220.5267 H   0  0  0  0  0  0  0  0  0  0  0  0
  142.5168   81.6266  221.4324 H   0  0  0  0  0  0  0  0  0  0  0  0
  143.0943   78.8335  222.5337 H   0  0  0  0  0  0  0  0  0  0  0  0
  143.9429   80.4000  222.9071 H   0  0  0  0  0  0  0  0  0  0  0  0
  1  2  1  0
  2  3  1  0
  3  4  1  0
  4  5  1  0
  5  6  1  0
  6  7  2  0
  6  8  1  0
  8  9  2  0
  9 10  1  0
 10 11  2  0
 11 12  1  0
 12 13  1  0
 13 14  1  0
 14 15  1  0
 15 16  2  0
 16 17  1  0
 17 18  2  0
 18 19  1  0
 19 20  3  0
 20 21  1  0
 21 22  2  0
 22 23  1  0
 23 24  2  0
 24 25  1  0
 25 26  2  0
 18 27  1  0
 27 28  2  0
 28 29  1  0
 29 30  1  0
 30 31  2  0
 30 32  1  0
 12 33  2  0
  5 34  1  0
 34 35  1  0
 35  2  1  0
 33  8  1  0
 32 13  2  0
 28 15  1  0
 26 21  1  0
  1 36  1  0
  1 37  1  0
  1 38  1  0
  3 39  1  0
  3 40  1  0
  4 41  1  0
  4 42  1  0
  9 43  1  0
 10 44  1  0
 11 45  1  0
 14 46  1  0
 16 47  1  0
 17 48  1  0
 22 49  1  0
 23 50  1  0
 24 51  1  0
 25 52  1  0
 26 53  1  0
 27 54  1  0
 29 55  1  0
 32 56  1  0
 33 57  1  0
 34 58  1  0
 34 59  1  0
 35 60  1  0
 35 61  1  0
M  END
>  <UniqueID>  (72) 
38

>  <SMILES>  (72) 
CN1CCN(C(=O)c2cccc(C3=CC(=O)Nc4cc(C#Cc5ccccc5)ccc4N3)c2)CC1

>  <Energy>  (72) 
89.2893860797716

>  <Genealogy>  (72) 
CN1CCN(C(=O)c2cccc(C3=CC(=O)Nc4cc(C#Cc5ccccc5)ccc4N3)c2)CC1 (tautomer)
CN1CCN(C(=O)c2cccc(C3=CC(=O)Nc4cc(C#Cc5ccccc5)ccc4N3)c2)CC1 (3D coordinates assigned)
CN1CCN(C(=O)c2cccc(C3=CC(=O)Nc4cc(C#Cc5ccccc5)ccc4N3)c2)CC1 (nonaromatic ring conformer: 89.2893860797716 kcal/mol)

>  <smiles>  (72) 
CN1CCN(C(=O)c2cccc(C3=Nc4ccc(C#Cc5ccccc5)cc4NC(=O)C3)c2)CC1

>  <score_type>  (72) 
oracle

>  <origin>  (72) 
autodockgpu

>  <m_score__min__energy>  (72) 
-6.7800000000000002

>  <m_primary>  (72) 
energy

>  <meeko>  (72) 
{"free_energy": -6.73, "intermolecular_energy": -9.41, "internal_energy": -1.28, "cluster_size": 9, "cluster_id": 1, "rank_in_cluster": 2}

>  <energy>  (72) 
-5.83

>  <cluster_rmsd>  (72) 
0.0

>  <rmsd>  (72) 
273.03

>  <cluster>  (72) 
3

$$$$
XUWAGCJCFKXBCU-VJSLDGLSNA-N
     RDKit          3D

 61 65  0  0  0  0  0  0  0  0999 V2000
  142.5790   81.3370  224.1300 C   0  0  0  0  0  0  0  0  0  0  0  0
  141.6980   80.1870  223.8670 N   0  0  0  0  0  0  0  0  0  0  0  0
  140.2800   80.5810  223.7250 C   0  0  0  0  0  0  0  0  0  0  0  0
  139.9890   81.2810  222.3910 C   0  0  0  0  0  0  0  0  0  0  0  0
  140.5250   80.4890  221.2820 N   0  0  0  0  0  0  0  0  0  0  0  0
  139.8800   80.5480  219.9980 C   0  0  0  0  0  0  0  0  0  0  0  0
  139.3910   81.6410  219.6010 O   0  0  0  0  0  0  0  0  0  0  0  0
  139.7610   79.3410  219.1460 C   0  0  0  0  0  0  0  0  0  0  0  0
  138.9730   79.3690  217.9840 C   0  0  0  0  0  0  0  0  0  0  0  0
  138.8610   78.2340  217.1790 C   0  0  0  0  0  0  0  0  0  0  0  0
  139.5230   77.0560  217.5280 C   0  0  0  0  0  0  0  0  0  0  0  0
  140.2990   76.9960  218.6980 C   0  0  0  0  0  0  0  0  0  0  0  0
  141.0010   75.7330  219.0490 C   0  0  0  0  0  0  0  0  0  0  0  0
  140.2260   74.5340  219.1530 N   0  0  0  0  0  0  0  0  0  0  0  0
  140.2600   73.7430  220.3410 C   0  0  0  0  0  0  0  0  0  0  0  0
  139.0620   73.4850  221.0270 C   0  0  0  0  0  0  0  0  0  0  0  0
  139.0590   72.6990  222.1790 C   0  0  0  0  0  0  0  0  0  0  0  0
  140.2540   72.1430  222.6470 C   0  0  0  0  0  0  0  0  0  0  0  0
  140.2520   71.3220  223.8290 C   0  0  0  0  0  0  0  0  0  0  0  0
  140.2510   70.6340  224.8200 C   0  0  0  0  0  0  0  0  0  0  0  0
  140.2500   69.8130  226.0010 C   0  0  0  0  0  0  0  0  0  0  0  0
  140.9390   70.2290  227.1480 C   0  0  0  0  0  0  0  0  0  0  0  0
  140.9360   69.4290  228.2950 C   0  0  0  0  0  0  0  0  0  0  0  0
  140.2450   68.2130  228.2990 C   0  0  0  0  0  0  0  0  0  0  0  0
  139.5570   67.7950  227.1560 C   0  0  0  0  0  0  0  0  0  0  0  0
  139.5580   68.5930  226.0070 C   0  0  0  0  0  0  0  0  0  0  0  0
  141.4480   72.3770  221.9560 C   0  0  0  0  0  0  0  0  0  0  0  0
  141.4640   73.1860  220.8080 C   0  0  0  0  0  0  0  0  0  0  0  0
  142.6880   73.3210  220.0730 N   0  0  0  0  0  0  0  0  0  0  0  0
  143.1590   74.5260  219.4520 C   0  0  0  0  0  0  0  0  0  0  0  0
  144.3670   74.5850  219.0980 O   0  0  0  0  0  0  0  0  0  0  0  0
  142.3300   75.7300  219.2420 C   0  0  0  0  0  0  0  0  0  0  0  0
  140.4140   78.1470  219.5010 C   0  0  0  0  0  0  0  0  0  0  0  0
  141.9150   80.0380  221.3750 C   0  0  0  0  0  0  0  0  0  0  0  0
  142.1610   79.3640  222.7310 C   0  0  0  0  0  0  0  0  0  0  0  0
  142.6857   81.4763  225.2159 H   0  0  0  0  0  0  0  0  0  0  0  0
  143.5677   81.1507  223.6853 H   0  0  0  0  0  0  0  0  0  0  0  0
  142.1417   82.2431  223.6853 H   0  0  0  0  0  0  0  0  0  0  0  0
  139.6557   79.6778  223.7916 H   0  0  0  0  0  0  0  0  0  0  0  0
  140.0519   81.2945  224.5305 H   0  0  0  0  0  0  0  0  0  0  0  0
  138.9016   81.3916  222.2674 H   0  0  0  0  0  0  0  0  0  0  0  0
  140.4673   82.2716  222.3913 H   0  0  0  0  0  0  0  0  0  0  0  0
  138.4408   80.2908  217.7064 H   0  0  0  0  0  0  0  0  0  0  0  0
  138.2485   78.2683  216.2659 H   0  0  0  0  0  0  0  0  0  0  0  0
  139.4368   76.1690  216.8832 H   0  0  0  0  0  0  0  0  0  0  0  0
  139.3540   74.4850  218.5770 H   0  0  0  0  0  0  0  0  0  0  0  0
  138.1176   73.9066  220.6523 H   0  0  0  0  0  0  0  0  0  0  0  0
  138.1181   72.5166  222.7188 H   0  0  0  0  0  0  0  0  0  0  0  0
  141.4825   71.1853  227.1462 H   0  0  0  0  0  0  0  0  0  0  0  0
  141.4775   69.7563  229.1948 H   0  0  0  0  0  0  0  0  0  0  0  0
  140.2429   67.5851  229.2021 H   0  0  0  0  0  0  0  0  0  0  0  0
  139.0146   66.8380  227.1602 H   0  0  0  0  0  0  0  0  0  0  0  0
  139.0161   68.2637  225.1082 H   0  0  0  0  0  0  0  0  0  0  0  0
  142.3832   71.9229  222.3154 H   0  0  0  0  0  0  0  0  0  0  0  0
  143.3860   72.5480  220.1670 H   0  0  0  0  0  0  0  0  0  0  0  0
  142.8427   76.7032  219.2438 H   0  0  0  0  0  0  0  0  0  0  0  0
  141.0219   78.1119  220.4171 H   0  0  0  0  0  0  0  0  0  0  0  0
  142.1186   79.3181  220.5686 H   0  0  0  0  0  0  0  0  0  0  0  0
  142.5826   80.9069  221.2785 H   0  0  0  0  0  0  0  0  0  0  0  0
  141.6243   78.4040  222.7497 H   0  0  0  0  0  0  0  0  0  0  0  0
  143.2465   79.2243  222.8415 H   0  0  0  0  0  0  0  0  0  0  0  0
  1  2  1  0
  2  3  1  0
  3  4  1  0
  4  5  1  0
  5  6  1  0
  6  7  2  0
  6  8  1  0
  8  9  2  0
  9 10  1  0
 10 11  2  0
 11 12  1  0
 12 13  1  0
 13 14  1  0
 14 15  1  0
 15 16  2  0
 16 17  1  0
 17 18  2  0
 18 19  1  0
 19 20  3  0
 20 21  1  0
 21 22  2  0
 22 23  1  0
 23 24  2  0
 24 25  1  0
 25 26  2  0
 18 27  1  0
 27 28  2  0
 28 29  1  0
 29 30  1  0
 30 31  2  0
 30 32  1  0
 12 33  2  0
  5 34  1  0
 34 35  1  0
 35  2  1  0
 33  8  1  0
 32 13  2  0
 28 15  1  0
 26 21  1  0
  1 36  1  0
  1 37  1  0
  1 38  1  0
  3 39  1  0
  3 40  1  0
  4 41  1  0
  4 42  1  0
  9 43  1  0
 10 44  1  0
 11 45  1  0
 14 46  1  0
 16 47  1  0
 17 48  1  0
 22 49  1  0
 23 50  1  0
 24 51  1  0
 25 52  1  0
 26 53  1  0
 27 54  1  0
 29 55  1  0
 32 56  1  0
 33 57  1  0
 34 58  1  0
 34 59  1  0
 35 60  1  0
 35 61  1  0
M  END
>  <UniqueID>  (73) 
38

>  <SMILES>  (73) 
CN1CCN(C(=O)c2cccc(C3=CC(=O)Nc4cc(C#Cc5ccccc5)ccc4N3)c2)CC1

>  <Energy>  (73) 
89.2893860797716

>  <Genealogy>  (73) 
CN1CCN(C(=O)c2cccc(C3=CC(=O)Nc4cc(C#Cc5ccccc5)ccc4N3)c2)CC1 (tautomer)
CN1CCN(C(=O)c2cccc(C3=CC(=O)Nc4cc(C#Cc5ccccc5)ccc4N3)c2)CC1 (3D coordinates assigned)
CN1CCN(C(=O)c2cccc(C3=CC(=O)Nc4cc(C#Cc5ccccc5)ccc4N3)c2)CC1 (nonaromatic ring conformer: 89.2893860797716 kcal/mol)

>  <smiles>  (73) 
CN1CCN(C(=O)c2cccc(C3=Nc4ccc(C#Cc5ccccc5)cc4NC(=O)C3)c2)CC1

>  <score_type>  (73) 
oracle

>  <origin>  (73) 
autodockgpu

>  <m_score__min__energy>  (73) 
-6.7800000000000002

>  <m_primary>  (73) 
energy

>  <meeko>  (73) 
{"free_energy": -5.99, "intermolecular_energy": -8.68, "internal_energy": -1.21, "cluster_size": 9, "cluster_id": 1, "rank_in_cluster": 9}

>  <energy>  (73) 
-5.73

>  <cluster_rmsd>  (73) 
0.0

>  <rmsd>  (73) 
272.1

>  <cluster>  (73) 
4

$$$$
XUWAGCJCFKXBCU-VJSLDGLSNA-N
     RDKit          3D

 61 65  0  0  0  0  0  0  0  0999 V2000
  137.3770   84.8710  221.3470 C   0  0  0  0  0  0  0  0  0  0  0  0
  138.1470   84.4940  220.1500 N   0  0  0  0  0  0  0  0  0  0  0  0
  139.5560   84.9360  220.2200 C   0  0  0  0  0  0  0  0  0  0  0  0
  140.3940   84.0920  221.1910 C   0  0  0  0  0  0  0  0  0  0  0  0
  140.2060   82.6680  220.9070 N   0  0  0  0  0  0  0  0  0  0  0  0
  141.2750   81.7470  221.1840 C   0  0  0  0  0  0  0  0  0  0  0  0
  142.0030   81.9310  222.1970 O   0  0  0  0  0  0  0  0  0  0  0  0
  141.5480   80.5990  220.2850 C   0  0  0  0  0  0  0  0  0  0  0  0
  142.2800   80.7850  219.1020 C   0  0  0  0  0  0  0  0  0  0  0  0
  142.5400   79.7060  218.2550 C   0  0  0  0  0  0  0  0  0  0  0  0
  142.0650   78.4320  218.5730 C   0  0  0  0  0  0  0  0  0  0  0  0
  141.3100   78.2260  219.7400 C   0  0  0  0  0  0  0  0  0  0  0  0
  140.8170   76.8610  220.0640 C   0  0  0  0  0  0  0  0  0  0  0  0
  141.5370   76.0950  221.0360 N   0  0  0  0  0  0  0  0  0  0  0  0
  142.0240   74.7900  220.7230 C   0  0  0  0  0  0  0  0  0  0  0  0
  143.3980   74.5250  220.8460 C   0  0  0  0  0  0  0  0  0  0  0  0
  143.9020   73.2550  220.5670 C   0  0  0  0  0  0  0  0  0  0  0  0
  143.0350   72.2280  220.1820 C   0  0  0  0  0  0  0  0  0  0  0  0
  143.5510   70.9130  219.9050 C   0  0  0  0  0  0  0  0  0  0  0  0
  143.9850   69.8120  219.6720 C   0  0  0  0  0  0  0  0  0  0  0  0
  144.5000   68.4980  219.3950 C   0  0  0  0  0  0  0  0  0  0  0  0
  143.6410   67.4850  218.9480 C   0  0  0  0  0  0  0  0  0  0  0  0
  144.1450   66.2090  218.6790 C   0  0  0  0  0  0  0  0  0  0  0  0
  145.5070   65.9410  218.8550 C   0  0  0  0  0  0  0  0  0  0  0  0
  146.3660   66.9500  219.3010 C   0  0  0  0  0  0  0  0  0  0  0  0
  145.8650   68.2290  219.5710 C   0  0  0  0  0  0  0  0  0  0  0  0
  141.6620   72.4790  220.0800 C   0  0  0  0  0  0  0  0  0  0  0  0
  141.1480   73.7610  220.3370 C   0  0  0  0  0  0  0  0  0  0  0  0
  139.7260   73.9530  220.3170 N   0  0  0  0  0  0  0  0  0  0  0  0
  139.0490   75.1080  219.8000 C   0  0  0  0  0  0  0  0  0  0  0  0
  137.8110   75.0240  219.5750 O   0  0  0  0  0  0  0  0  0  0  0  0
  139.7170   76.3800  219.4620 C   0  0  0  0  0  0  0  0  0  0  0  0
  141.0590   79.3180  220.5930 C   0  0  0  0  0  0  0  0  0  0  0  0
  138.8330   82.1710  220.7910 C   0  0  0  0  0  0  0  0  0  0  0  0
  138.0310   83.0570  219.8280 C   0  0  0  0  0  0  0  0  0  0  0  0
  137.9425   84.5941  222.2490 H   0  0  0  0  0  0  0  0  0  0  0  0
  137.2016   85.9569  221.3432 H   0  0  0  0  0  0  0  0  0  0  0  0
  136.4117   84.3436  221.3432 H   0  0  0  0  0  0  0  0  0  0  0  0
  139.9988   84.8607  219.2159 H   0  0  0  0  0  0  0  0  0  0  0  0
  139.5614   85.9718  220.5902 H   0  0  0  0  0  0  0  0  0  0  0  0
  141.4569   84.3497  221.0737 H   0  0  0  0  0  0  0  0  0  0  0  0
  140.0713   84.3004  222.2217 H   0  0  0  0  0  0  0  0  0  0  0  0
  142.6511   81.7870  218.8406 H   0  0  0  0  0  0  0  0  0  0  0  0
  143.1211   79.8600  217.3338 H   0  0  0  0  0  0  0  0  0  0  0  0
  142.2831   77.5848  217.9061 H   0  0  0  0  0  0  0  0  0  0  0  0
  142.0570   76.6310  221.7680 H   0  0  0  0  0  0  0  0  0  0  0  0
  144.0817   75.3255  221.1649 H   0  0  0  0  0  0  0  0  0  0  0  0
  144.9816   73.0613  220.6498 H   0  0  0  0  0  0  0  0  0  0  0  0
  142.5700   67.6939  218.8088 H   0  0  0  0  0  0  0  0  0  0  0  0
  143.4698   65.4145  218.3285 H   0  0  0  0  0  0  0  0  0  0  0  0
  145.9019   64.9366  218.6425 H   0  0  0  0  0  0  0  0  0  0  0  0
  147.4365   66.7386  219.4399 H   0  0  0  0  0  0  0  0  0  0  0  0
  146.5416   69.0225  219.9210 H   0  0  0  0  0  0  0  0  0  0  0  0
  140.9789   71.6649  219.7960 H   0  0  0  0  0  0  0  0  0  0  0  0
  139.1310   73.1130  220.5020 H   0  0  0  0  0  0  0  0  0  0  0  0
  139.2789   76.9821  218.6524 H   0  0  0  0  0  0  0  0  0  0  0  0
  140.4731   79.1665  221.5115 H   0  0  0  0  0  0  0  0  0  0  0  0
  138.8504   81.1400  220.4078 H   0  0  0  0  0  0  0  0  0  0  0  0
  138.3569   82.1938  221.7824 H   0  0  0  0  0  0  0  0  0  0  0  0
  138.4032   82.8936  218.8059 H   0  0  0  0  0  0  0  0  0  0  0  0
  136.9711   82.7784  219.9225 H   0  0  0  0  0  0  0  0  0  0  0  0
  1  2  1  0
  2  3  1  0
  3  4  1  0
  4  5  1  0
  5  6  1  0
  6  7  2  0
  6  8  1  0
  8  9  2  0
  9 10  1  0
 10 11  2  0
 11 12  1  0
 12 13  1  0
 13 14  1  0
 14 15  1  0
 15 16  2  0
 16 17  1  0
 17 18  2  0
 18 19  1  0
 19 20  3  0
 20 21  1  0
 21 22  2  0
 22 23  1  0
 23 24  2  0
 24 25  1  0
 25 26  2  0
 18 27  1  0
 27 28  2  0
 28 29  1  0
 29 30  1  0
 30 31  2  0
 30 32  1  0
 12 33  2  0
  5 34  1  0
 34 35  1  0
 35  2  1  0
 33  8  1  0
 32 13  2  0
 28 15  1  0
 26 21  1  0
  1 36  1  0
  1 37  1  0
  1 38  1  0
  3 39  1  0
  3 40  1  0
  4 41  1  0
  4 42  1  0
  9 43  1  0
 10 44  1  0
 11 45  1  0
 14 46  1  0
 16 47  1  0
 17 48  1  0
 22 49  1  0
 23 50  1  0
 24 51  1  0
 25 52  1  0
 26 53  1  0
 27 54  1  0
 29 55  1  0
 32 56  1  0
 33 57  1  0
 34 58  1  0
 34 59  1  0
 35 60  1  0
 35 61  1  0
M  END
>  <UniqueID>  (74) 
38

>  <SMILES>  (74) 
CN1CCN(C(=O)c2cccc(C3=CC(=O)Nc4cc(C#Cc5ccccc5)ccc4N3)c2)CC1

>  <Energy>  (74) 
89.2893860797716

>  <Genealogy>  (74) 
CN1CCN(C(=O)c2cccc(C3=CC(=O)Nc4cc(C#Cc5ccccc5)ccc4N3)c2)CC1 (tautomer)
CN1CCN(C(=O)c2cccc(C3=CC(=O)Nc4cc(C#Cc5ccccc5)ccc4N3)c2)CC1 (3D coordinates assigned)
CN1CCN(C(=O)c2cccc(C3=CC(=O)Nc4cc(C#Cc5ccccc5)ccc4N3)c2)CC1 (nonaromatic ring conformer: 89.2893860797716 kcal/mol)

>  <smiles>  (74) 
CN1CCN(C(=O)c2cccc(C3=Nc4ccc(C#Cc5ccccc5)cc4NC(=O)C3)c2)CC1

>  <score_type>  (74) 
oracle

>  <origin>  (74) 
autodockgpu

>  <m_score__min__energy>  (74) 
-6.7800000000000002

>  <m_primary>  (74) 
energy

>  <meeko>  (74) 
{"free_energy": -5.09, "intermolecular_energy": -7.78, "internal_energy": -1.21, "cluster_size": 2, "cluster_id": 7, "rank_in_cluster": 2}

>  <energy>  (74) 
-5.6

>  <cluster_rmsd>  (74) 
0.0

>  <rmsd>  (74) 
271.97

>  <cluster>  (74) 
5

$$$$
XUWAGCJCFKXBCU-VJSLDGLSNA-N
     RDKit          3D

 61 65  0  0  0  0  0  0  0  0999 V2000
  137.4820   80.4990  224.2780 C   0  0  0  0  0  0  0  0  0  0  0  0
  137.5200   80.5680  222.8080 N   0  0  0  0  0  0  0  0  0  0  0  0
  138.1990   81.7860  222.3160 C   0  0  0  0  0  0  0  0  0  0  0  0
  139.7230   81.7250  222.4880 C   0  0  0  0  0  0  0  0  0  0  0  0
  140.2400   80.4670  221.9450 N   0  0  0  0  0  0  0  0  0  0  0  0
  141.5720   80.4260  221.4080 C   0  0  0  0  0  0  0  0  0  0  0  0
  142.4810   81.1090  221.9540 O   0  0  0  0  0  0  0  0  0  0  0  0
  141.8890   79.6130  220.2090 C   0  0  0  0  0  0  0  0  0  0  0  0
  142.0470   80.2280  218.9570 C   0  0  0  0  0  0  0  0  0  0  0  0
  142.3470   79.4640  217.8280 C   0  0  0  0  0  0  0  0  0  0  0  0
  142.4840   78.0790  217.9320 C   0  0  0  0  0  0  0  0  0  0  0  0
  142.3070   77.4380  219.1690 C   0  0  0  0  0  0  0  0  0  0  0  0
  142.4620   75.9620  219.2600 C   0  0  0  0  0  0  0  0  0  0  0  0
  141.2780   75.1620  219.3500 N   0  0  0  0  0  0  0  0  0  0  0  0
  141.1010   74.2370  220.4230 C   0  0  0  0  0  0  0  0  0  0  0  0
  139.9760   74.3610  221.2540 C   0  0  0  0  0  0  0  0  0  0  0  0
  139.7640   73.4610  222.2990 C   0  0  0  0  0  0  0  0  0  0  0  0
  140.6640   72.4130  222.5110 C   0  0  0  0  0  0  0  0  0  0  0  0
  140.4420   71.4760  223.5810 C   0  0  0  0  0  0  0  0  0  0  0  0
  140.2550   70.6910  224.4770 C   0  0  0  0  0  0  0  0  0  0  0  0
  140.0310   69.7540  225.5460 C   0  0  0  0  0  0  0  0  0  0  0  0
  140.3050   70.1190  226.8710 C   0  0  0  0  0  0  0  0  0  0  0  0
  140.0860   69.2070  227.9080 C   0  0  0  0  0  0  0  0  0  0  0  0
  139.5940   67.9290  227.6240 C   0  0  0  0  0  0  0  0  0  0  0  0
  139.3210   67.5620  226.3020 C   0  0  0  0  0  0  0  0  0  0  0  0
  139.5380   68.4720  225.2620 C   0  0  0  0  0  0  0  0  0  0  0  0
  141.7750   72.2700  221.6720 C   0  0  0  0  0  0  0  0  0  0  0  0
  142.0090   73.1840  220.6320 C   0  0  0  0  0  0  0  0  0  0  0  0
  143.1030   72.9480  219.7340 N   0  0  0  0  0  0  0  0  0  0  0  0
  143.9620   73.9560  219.1830 C   0  0  0  0  0  0  0  0  0  0  0  0
  145.0470   73.5940  218.6540 O   0  0  0  0  0  0  0  0  0  0  0  0
  143.6830   75.4040  219.2380 C   0  0  0  0  0  0  0  0  0  0  0  0
  142.0120   78.2150  220.3060 C   0  0  0  0  0  0  0  0  0  0  0  0
  139.5890   79.2240  222.3670 C   0  0  0  0  0  0  0  0  0  0  0  0
  138.0680   79.3410  222.1950 C   0  0  0  0  0  0  0  0  0  0  0  0
  137.9722   81.3889  224.6996 H   0  0  0  0  0  0  0  0  0  0  0  0
  136.4360   80.4616  224.6164 H   0  0  0  0  0  0  0  0  0  0  0  0
  138.0094   79.5949  224.6164 H   0  0  0  0  0  0  0  0  0  0  0  0
  137.9701   81.9091  221.2471 H   0  0  0  0  0  0  0  0  0  0  0  0
  137.8312   82.6348  222.9111 H   0  0  0  0  0  0  0  0  0  0  0  0
  140.1837   82.5688  221.9534 H   0  0  0  0  0  0  0  0  0  0  0  0
  139.9674   81.7827  223.5590 H   0  0  0  0  0  0  0  0  0  0  0  0
  141.9337   81.3183  218.8651 H   0  0  0  0  0  0  0  0  0  0  0  0
  142.4760   79.9555  216.8524 H   0  0  0  0  0  0  0  0  0  0  0  0
  142.7321   77.4858  217.0395 H   0  0  0  0  0  0  0  0  0  0  0  0
  140.4110   75.5520  218.9140 H   0  0  0  0  0  0  0  0  0  0  0  0
  139.2560   75.1742  221.0798 H   0  0  0  0  0  0  0  0  0  0  0  0
  138.8890   73.5763  222.9556 H   0  0  0  0  0  0  0  0  0  0  0  0
  140.6926   71.1237  227.0954 H   0  0  0  0  0  0  0  0  0  0  0  0
  140.3008   69.4948  228.9477 H   0  0  0  0  0  0  0  0  0  0  0  0
  139.4216   67.2122  228.4404 H   0  0  0  0  0  0  0  0  0  0  0  0
  138.9351   66.5562  226.0799 H   0  0  0  0  0  0  0  0  0  0  0  0
  139.3223   68.1826  224.2229 H   0  0  0  0  0  0  0  0  0  0  0  0
  142.4717   71.4334  221.8288 H   0  0  0  0  0  0  0  0  0  0  0  0
  143.4280   71.9590  219.6340 H   0  0  0  0  0  0  0  0  0  0  0  0
  144.5479   76.0832  219.2631 H   0  0  0  0  0  0  0  0  0  0  0  0
  141.8763   77.7233  221.2806 H   0  0  0  0  0  0  0  0  0  0  0  0
  139.9617   78.3912  221.7526 H   0  0  0  0  0  0  0  0  0  0  0  0
  139.8185   79.0389  223.4267 H   0  0  0  0  0  0  0  0  0  0  0  0
  137.8346   79.3496  221.1201 H   0  0  0  0  0  0  0  0  0  0  0  0
  137.6080   78.4806  222.7030 H   0  0  0  0  0  0  0  0  0  0  0  0
  1  2  1  0
  2  3  1  0
  3  4  1  0
  4  5  1  0
  5  6  1  0
  6  7  2  0
  6  8  1  0
  8  9  2  0
  9 10  1  0
 10 11  2  0
 11 12  1  0
 12 13  1  0
 13 14  1  0
 14 15  1  0
 15 16  2  0
 16 17  1  0
 17 18  2  0
 18 19  1  0
 19 20  3  0
 20 21  1  0
 21 22  2  0
 22 23  1  0
 23 24  2  0
 24 25  1  0
 25 26  2  0
 18 27  1  0
 27 28  2  0
 28 29  1  0
 29 30  1  0
 30 31  2  0
 30 32  1  0
 12 33  2  0
  5 34  1  0
 34 35  1  0
 35  2  1  0
 33  8  1  0
 32 13  2  0
 28 15  1  0
 26 21  1  0
  1 36  1  0
  1 37  1  0
  1 38  1  0
  3 39  1  0
  3 40  1  0
  4 41  1  0
  4 42  1  0
  9 43  1  0
 10 44  1  0
 11 45  1  0
 14 46  1  0
 16 47  1  0
 17 48  1  0
 22 49  1  0
 23 50  1  0
 24 51  1  0
 25 52  1  0
 26 53  1  0
 27 54  1  0
 29 55  1  0
 32 56  1  0
 33 57  1  0
 34 58  1  0
 34 59  1  0
 35 60  1  0
 35 61  1  0
M  END
>  <UniqueID>  (75) 
38

>  <SMILES>  (75) 
CN1CCN(C(=O)c2cccc(C3=CC(=O)Nc4cc(C#Cc5ccccc5)ccc4N3)c2)CC1

>  <Energy>  (75) 
89.2893860797716

>  <Genealogy>  (75) 
CN1CCN(C(=O)c2cccc(C3=CC(=O)Nc4cc(C#Cc5ccccc5)ccc4N3)c2)CC1 (tautomer)
CN1CCN(C(=O)c2cccc(C3=CC(=O)Nc4cc(C#Cc5ccccc5)ccc4N3)c2)CC1 (3D coordinates assigned)
CN1CCN(C(=O)c2cccc(C3=CC(=O)Nc4cc(C#Cc5ccccc5)ccc4N3)c2)CC1 (nonaromatic ring conformer: 89.2893860797716 kcal/mol)

>  <smiles>  (75) 
CN1CCN(C(=O)c2cccc(C3=Nc4ccc(C#Cc5ccccc5)cc4NC(=O)C3)c2)CC1

>  <score_type>  (75) 
oracle

>  <origin>  (75) 
autodockgpu

>  <m_score__min__energy>  (75) 
-6.7800000000000002

>  <m_primary>  (75) 
energy

>  <meeko>  (75) 
{"free_energy": -6.58, "intermolecular_energy": -9.26, "internal_energy": -1.27, "cluster_size": 9, "cluster_id": 1, "rank_in_cluster": 4}

>  <energy>  (75) 
-5.49

>  <cluster_rmsd>  (75) 
0.18

>  <rmsd>  (75) 
272.08

>  <cluster>  (75) 
5

$$$$
XUWAGCJCFKXBCU-VJSLDGLSNA-N
     RDKit          3D

 61 65  0  0  0  0  0  0  0  0999 V2000
  138.4300   81.0460  224.5470 C   0  0  0  0  0  0  0  0  0  0  0  0
  138.8690   79.7450  224.0130 N   0  0  0  0  0  0  0  0  0  0  0  0
  137.9120   79.1830  223.0350 C   0  0  0  0  0  0  0  0  0  0  0  0
  137.9540   79.9060  221.6820 C   0  0  0  0  0  0  0  0  0  0  0  0
  139.3360   80.0040  221.2080 N   0  0  0  0  0  0  0  0  0  0  0  0
  139.5960   80.0280  219.7950 C   0  0  0  0  0  0  0  0  0  0  0  0
  138.7940   80.6270  219.0280 O   0  0  0  0  0  0  0  0  0  0  0  0
  140.7790   79.3400  219.2230 C   0  0  0  0  0  0  0  0  0  0  0  0
  141.7280   80.0620  218.4810 C   0  0  0  0  0  0  0  0  0  0  0  0
  142.8430   79.4160  217.9440 C   0  0  0  0  0  0  0  0  0  0  0  0
  143.0200   78.0450  218.1300 C   0  0  0  0  0  0  0  0  0  0  0  0
  142.0720   77.2960  218.8480 C   0  0  0  0  0  0  0  0  0  0  0  0
  142.2810   75.8370  219.0400 C   0  0  0  0  0  0  0  0  0  0  0  0
  141.1280   75.0050  219.2130 N   0  0  0  0  0  0  0  0  0  0  0  0
  141.0110   74.1470  220.3480 C   0  0  0  0  0  0  0  0  0  0  0  0
  139.9030   74.2850  221.1990 C   0  0  0  0  0  0  0  0  0  0  0  0
  139.7490   73.4480  222.3050 C   0  0  0  0  0  0  0  0  0  0  0  0
  140.6920   72.4470  222.5590 C   0  0  0  0  0  0  0  0  0  0  0  0
  140.5300   71.5750  223.6920 C   0  0  0  0  0  0  0  0  0  0  0  0
  140.3940   70.8430  224.6410 C   0  0  0  0  0  0  0  0  0  0  0  0
  140.2320   69.9720  225.7740 C   0  0  0  0  0  0  0  0  0  0  0  0
  140.4460   70.4570  227.0710 C   0  0  0  0  0  0  0  0  0  0  0  0
  140.2870   69.6080  228.1710 C   0  0  0  0  0  0  0  0  0  0  0  0
  139.9150   68.2740  227.9780 C   0  0  0  0  0  0  0  0  0  0  0  0
  139.7010   67.7870  226.6850 C   0  0  0  0  0  0  0  0  0  0  0  0
  139.8580   68.6340  225.5820 C   0  0  0  0  0  0  0  0  0  0  0  0
  141.7860   72.2890  221.7010 C   0  0  0  0  0  0  0  0  0  0  0  0
  141.9620   73.1420  220.5990 C   0  0  0  0  0  0  0  0  0  0  0  0
  143.0410   72.8850  219.6890 N   0  0  0  0  0  0  0  0  0  0  0  0
  143.8500   73.8850  219.0520 C   0  0  0  0  0  0  0  0  0  0  0  0
  144.9340   73.5270  218.5190 O   0  0  0  0  0  0  0  0  0  0  0  0
  143.5210   75.3230  219.0230 C   0  0  0  0  0  0  0  0  0  0  0  0
  140.9530   77.9550  219.3950 C   0  0  0  0  0  0  0  0  0  0  0  0
  140.3410   80.5220  222.1400 C   0  0  0  0  0  0  0  0  0  0  0  0
  140.2460   79.7840  223.4820 C   0  0  0  0  0  0  0  0  0  0  0  0
  138.4409   81.0136  225.6465 H   0  0  0  0  0  0  0  0  0  0  0  0
  139.1116   81.8350  224.1966 H   0  0  0  0  0  0  0  0  0  0  0  0
  137.4096   81.2607  224.1966 H   0  0  0  0  0  0  0  0  0  0  0  0
  138.1549   78.1222  222.8747 H   0  0  0  0  0  0  0  0  0  0  0  0
  136.9008   79.3110  223.4487 H   0  0  0  0  0  0  0  0  0  0  0  0
  137.3570   79.3428  220.9496 H   0  0  0  0  0  0  0  0  0  0  0  0
  137.5410   80.9185  221.8012 H   0  0  0  0  0  0  0  0  0  0  0  0
  141.5920   81.1419  218.3222 H   0  0  0  0  0  0  0  0  0  0  0  0
  143.5856   79.9910  217.3714 H   0  0  0  0  0  0  0  0  0  0  0  0
  143.9072   77.5468  217.7121 H   0  0  0  0  0  0  0  0  0  0  0  0
  140.2370   75.3380  218.7770 H   0  0  0  0  0  0  0  0  0  0  0  0
  139.1498   75.0595  220.9922 H   0  0  0  0  0  0  0  0  0  0  0  0
  138.8869   73.5754  222.9762 H   0  0  0  0  0  0  0  0  0  0  0  0
  140.7392   71.5061  227.2242 H   0  0  0  0  0  0  0  0  0  0  0  0
  140.4547   69.9900  229.1888 H   0  0  0  0  0  0  0  0  0  0  0  0
  139.7906   67.6073  228.8440 H   0  0  0  0  0  0  0  0  0  0  0  0
  139.4090   66.7372  226.5345 H   0  0  0  0  0  0  0  0  0  0  0  0
  139.6882   68.2505  224.5651 H   0  0  0  0  0  0  0  0  0  0  0  0
  142.5159   71.4884  221.8915 H   0  0  0  0  0  0  0  0  0  0  0  0
  143.3990   71.9030  219.6430 H   0  0  0  0  0  0  0  0  0  0  0  0
  144.3609   76.0323  218.9843 H   0  0  0  0  0  0  0  0  0  0  0  0
  140.2071   77.3797  219.9630 H   0  0  0  0  0  0  0  0  0  0  0  0
  141.3439   80.3732  221.7132 H   0  0  0  0  0  0  0  0  0  0  0  0
  140.1598   81.5943  222.3053 H   0  0  0  0  0  0  0  0  0  0  0  0
  140.5988   78.7516  223.3419 H   0  0  0  0  0  0  0  0  0  0  0  0
  140.8670   80.3304  224.2071 H   0  0  0  0  0  0  0  0  0  0  0  0
  1  2  1  0
  2  3  1  0
  3  4  1  0
  4  5  1  0
  5  6  1  0
  6  7  2  0
  6  8  1  0
  8  9  2  0
  9 10  1  0
 10 11  2  0
 11 12  1  0
 12 13  1  0
 13 14  1  0
 14 15  1  0
 15 16  2  0
 16 17  1  0
 17 18  2  0
 18 19  1  0
 19 20  3  0
 20 21  1  0
 21 22  2  0
 22 23  1  0
 23 24  2  0
 24 25  1  0
 25 26  2  0
 18 27  1  0
 27 28  2  0
 28 29  1  0
 29 30  1  0
 30 31  2  0
 30 32  1  0
 12 33  2  0
  5 34  1  0
 34 35  1  0
 35  2  1  0
 33  8  1  0
 32 13  2  0
 28 15  1  0
 26 21  1  0
  1 36  1  0
  1 37  1  0
  1 38  1  0
  3 39  1  0
  3 40  1  0
  4 41  1  0
  4 42  1  0
  9 43  1  0
 10 44  1  0
 11 45  1  0
 14 46  1  0
 16 47  1  0
 17 48  1  0
 22 49  1  0
 23 50  1  0
 24 51  1  0
 25 52  1  0
 26 53  1  0
 27 54  1  0
 29 55  1  0
 32 56  1  0
 33 57  1  0
 34 58  1  0
 34 59  1  0
 35 60  1  0
 35 61  1  0
M  END
>  <UniqueID>  (76) 
38

>  <SMILES>  (76) 
CN1CCN(C(=O)c2cccc(C3=CC(=O)Nc4cc(C#Cc5ccccc5)ccc4N3)c2)CC1

>  <Energy>  (76) 
89.2893860797716

>  <Genealogy>  (76) 
CN1CCN(C(=O)c2cccc(C3=CC(=O)Nc4cc(C#Cc5ccccc5)ccc4N3)c2)CC1 (tautomer)
CN1CCN(C(=O)c2cccc(C3=CC(=O)Nc4cc(C#Cc5ccccc5)ccc4N3)c2)CC1 (3D coordinates assigned)
CN1CCN(C(=O)c2cccc(C3=CC(=O)Nc4cc(C#Cc5ccccc5)ccc4N3)c2)CC1 (nonaromatic ring conformer: 89.2893860797716 kcal/mol)

>  <smiles>  (76) 
CN1CCN(C(=O)c2cccc(C3=Nc4ccc(C#Cc5ccccc5)cc4NC(=O)C3)c2)CC1

>  <score_type>  (76) 
oracle

>  <origin>  (76) 
autodockgpu

>  <m_score__min__energy>  (76) 
-6.7800000000000002

>  <m_primary>  (76) 
energy

>  <meeko>  (76) 
{"free_energy": -6.06, "intermolecular_energy": -8.75, "internal_energy": -1.29, "cluster_size": 9, "cluster_id": 1, "rank_in_cluster": 8}

>  <energy>  (76) 
-5.49

>  <cluster_rmsd>  (76) 
0.12

>  <rmsd>  (76) 
272.03

>  <cluster>  (76) 
5

$$$$
XUWAGCJCFKXBCU-VJSLDGLSNA-N
     RDKit          3D

 61 65  0  0  0  0  0  0  0  0999 V2000
  137.4290   80.4470  224.1870 C   0  0  0  0  0  0  0  0  0  0  0  0
  137.4630   80.5040  222.7160 N   0  0  0  0  0  0  0  0  0  0  0  0
  138.1040   81.7380  222.2120 C   0  0  0  0  0  0  0  0  0  0  0  0
  139.6290   81.7240  222.3820 C   0  0  0  0  0  0  0  0  0  0  0  0
  140.1820   80.4780  221.8490 N   0  0  0  0  0  0  0  0  0  0  0  0
  141.5150   80.4720  221.3090 C   0  0  0  0  0  0  0  0  0  0  0  0
  142.4040   81.1860  221.8470 O   0  0  0  0  0  0  0  0  0  0  0  0
  141.8540   79.6580  220.1170 C   0  0  0  0  0  0  0  0  0  0  0  0
  142.0450   80.2740  218.8700 C   0  0  0  0  0  0  0  0  0  0  0  0
  142.3660   79.5090  217.7470 C   0  0  0  0  0  0  0  0  0  0  0  0
  142.4900   78.1230  217.8510 C   0  0  0  0  0  0  0  0  0  0  0  0
  142.2800   77.4810  219.0830 C   0  0  0  0  0  0  0  0  0  0  0  0
  142.4220   76.0040  219.1750 C   0  0  0  0  0  0  0  0  0  0  0  0
  141.2330   75.2170  219.3040 N   0  0  0  0  0  0  0  0  0  0  0  0
  141.0730   74.3090  220.3940 C   0  0  0  0  0  0  0  0  0  0  0  0
  139.9700   74.4570  221.2510 C   0  0  0  0  0  0  0  0  0  0  0  0
  139.7740   73.5730  222.3130 C   0  0  0  0  0  0  0  0  0  0  0  0
  140.6680   72.5180  222.5180 C   0  0  0  0  0  0  0  0  0  0  0  0
  140.4620   71.5990  223.6060 C   0  0  0  0  0  0  0  0  0  0  0  0
  140.2900   70.8280  224.5170 C   0  0  0  0  0  0  0  0  0  0  0  0
  140.0840   69.9100  225.6050 C   0  0  0  0  0  0  0  0  0  0  0  0
  140.2970   70.3250  226.9260 C   0  0  0  0  0  0  0  0  0  0  0  0
  140.0940   69.4310  227.9830 C   0  0  0  0  0  0  0  0  0  0  0  0
  139.6810   68.1210  227.7210 C   0  0  0  0  0  0  0  0  0  0  0  0
  139.4680   67.7030  226.4040 C   0  0  0  0  0  0  0  0  0  0  0  0
  139.6690   68.5960  225.3450 C   0  0  0  0  0  0  0  0  0  0  0  0
  141.7560   72.3520  221.6540 C   0  0  0  0  0  0  0  0  0  0  0  0
  141.9750   73.2490  220.5960 C   0  0  0  0  0  0  0  0  0  0  0  0
  143.0430   72.9890  219.6750 N   0  0  0  0  0  0  0  0  0  0  0  0
  143.8990   73.9800  219.0880 C   0  0  0  0  0  0  0  0  0  0  0  0
  144.9670   73.5990  218.5390 O   0  0  0  0  0  0  0  0  0  0  0  0
  143.6360   75.4320  219.1300 C   0  0  0  0  0  0  0  0  0  0  0  0
  141.9640   78.2590  220.2140 C   0  0  0  0  0  0  0  0  0  0  0  0
  139.5700   79.2200  222.2820 C   0  0  0  0  0  0  0  0  0  0  0  0
  138.0460   79.2890  222.1130 C   0  0  0  0  0  0  0  0  0  0  0  0
  137.9512   81.3226  224.6000 H   0  0  0  0  0  0  0  0  0  0  0  0
  136.3838   80.4480  224.5299 H   0  0  0  0  0  0  0  0  0  0  0  0
  137.9265   79.5278  224.5299 H   0  0  0  0  0  0  0  0  0  0  0  0
  137.8699   81.8448  221.1425 H   0  0  0  0  0  0  0  0  0  0  0  0
  137.7115   82.5807  222.8000 H   0  0  0  0  0  0  0  0  0  0  0  0
  140.0636   82.5766  221.8395 H   0  0  0  0  0  0  0  0  0  0  0  0
  139.8732   81.7981  223.4520 H   0  0  0  0  0  0  0  0  0  0  0  0
  141.9412   81.3652  218.7772 H   0  0  0  0  0  0  0  0  0  0  0  0
  142.5219   80.0012  216.7757 H   0  0  0  0  0  0  0  0  0  0  0  0
  142.7537   77.5295  216.9632 H   0  0  0  0  0  0  0  0  0  0  0  0
  140.3600   75.6100  218.8830 H   0  0  0  0  0  0  0  0  0  0  0  0
  139.2551   75.2761  221.0838 H   0  0  0  0  0  0  0  0  0  0  0  0
  138.9162   73.7064  222.9886 H   0  0  0  0  0  0  0  0  0  0  0  0
  140.6242   71.3547  227.1324 H   0  0  0  0  0  0  0  0  0  0  0  0
  140.2593   69.7586  229.0200 H   0  0  0  0  0  0  0  0  0  0  0  0
  139.5234   67.4182  228.5524 H   0  0  0  0  0  0  0  0  0  0  0  0
  139.1424   66.6723  226.2000 H   0  0  0  0  0  0  0  0  0  0  0  0
  139.5014   68.2670  224.3088 H   0  0  0  0  0  0  0  0  0  0  0  0
  142.4472   71.5098  221.8052 H   0  0  0  0  0  0  0  0  0  0  0  0
  143.3560   71.9950  219.5810 H   0  0  0  0  0  0  0  0  0  0  0  0
  144.5084   76.1021  219.1239 H   0  0  0  0  0  0  0  0  0  0  0  0
  141.8014   77.7669  221.1842 H   0  0  0  0  0  0  0  0  0  0  0  0
  139.9665   78.3941  221.6732 H   0  0  0  0  0  0  0  0  0  0  0  0
  139.8072   79.0507  223.3427 H   0  0  0  0  0  0  0  0  0  0  0  0
  137.8098   79.2806  221.0387 H   0  0  0  0  0  0  0  0  0  0  0  0
  137.6135   78.4197  222.6300 H   0  0  0  0  0  0  0  0  0  0  0  0
  1  2  1  0
  2  3  1  0
  3  4  1  0
  4  5  1  0
  5  6  1  0
  6  7  2  0
  6  8  1  0
  8  9  2  0
  9 10  1  0
 10 11  2  0
 11 12  1  0
 12 13  1  0
 13 14  1  0
 14 15  1  0
 15 16  2  0
 16 17  1  0
 17 18  2  0
 18 19  1  0
 19 20  3  0
 20 21  1  0
 21 22  2  0
 22 23  1  0
 23 24  2  0
 24 25  1  0
 25 26  2  0
 18 27  1  0
 27 28  2  0
 28 29  1  0
 29 30  1  0
 30 31  2  0
 30 32  1  0
 12 33  2  0
  5 34  1  0
 34 35  1  0
 35  2  1  0
 33  8  1  0
 32 13  2  0
 28 15  1  0
 26 21  1  0
  1 36  1  0
  1 37  1  0
  1 38  1  0
  3 39  1  0
  3 40  1  0
  4 41  1  0
  4 42  1  0
  9 43  1  0
 10 44  1  0
 11 45  1  0
 14 46  1  0
 16 47  1  0
 17 48  1  0
 22 49  1  0
 23 50  1  0
 24 51  1  0
 25 52  1  0
 26 53  1  0
 27 54  1  0
 29 55  1  0
 32 56  1  0
 33 57  1  0
 34 58  1  0
 34 59  1  0
 35 60  1  0
 35 61  1  0
M  END
>  <UniqueID>  (77) 
38

>  <SMILES>  (77) 
CN1CCN(C(=O)c2cccc(C3=CC(=O)Nc4cc(C#Cc5ccccc5)ccc4N3)c2)CC1

>  <Energy>  (77) 
89.2893860797716

>  <Genealogy>  (77) 
CN1CCN(C(=O)c2cccc(C3=CC(=O)Nc4cc(C#Cc5ccccc5)ccc4N3)c2)CC1 (tautomer)
CN1CCN(C(=O)c2cccc(C3=CC(=O)Nc4cc(C#Cc5ccccc5)ccc4N3)c2)CC1 (3D coordinates assigned)
CN1CCN(C(=O)c2cccc(C3=CC(=O)Nc4cc(C#Cc5ccccc5)ccc4N3)c2)CC1 (nonaromatic ring conformer: 89.2893860797716 kcal/mol)

>  <smiles>  (77) 
CN1CCN(C(=O)c2cccc(C3=Nc4ccc(C#Cc5ccccc5)cc4NC(=O)C3)c2)CC1

>  <score_type>  (77) 
oracle

>  <origin>  (77) 
autodockgpu

>  <m_score__min__energy>  (77) 
-6.7800000000000002

>  <m_primary>  (77) 
energy

>  <meeko>  (77) 
{"free_energy": -6.1, "intermolecular_energy": -8.78, "internal_energy": -1.28, "cluster_size": 9, "cluster_id": 1, "rank_in_cluster": 7}

>  <energy>  (77) 
-5.45

>  <cluster_rmsd>  (77) 
0.0

>  <rmsd>  (77) 
272.53

>  <cluster>  (77) 
6

$$$$
XUWAGCJCFKXBCU-VJSLDGLSNA-N
     RDKit          3D

 61 65  0  0  0  0  0  0  0  0999 V2000
  138.9170   70.8610  220.7850 C   0  0  0  0  0  0  0  0  0  0  0  0
  138.7830   72.3240  220.8820 N   0  0  0  0  0  0  0  0  0  0  0  0
  139.5610   72.8900  222.0050 C   0  0  0  0  0  0  0  0  0  0  0  0
  141.0700   72.9110  221.7280 C   0  0  0  0  0  0  0  0  0  0  0  0
  141.3330   73.5220  220.4240 N   0  0  0  0  0  0  0  0  0  0  0  0
  142.5700   74.2230  220.2100 C   0  0  0  0  0  0  0  0  0  0  0  0
  143.6270   73.7910  220.7460 O   0  0  0  0  0  0  0  0  0  0  0  0
  142.6180   75.4560  219.3880 C   0  0  0  0  0  0  0  0  0  0  0  0
  143.0620   75.4030  218.0570 C   0  0  0  0  0  0  0  0  0  0  0  0
  143.1070   76.5630  217.2820 C   0  0  0  0  0  0  0  0  0  0  0  0
  142.7200   77.7890  217.8260 C   0  0  0  0  0  0  0  0  0  0  0  0
  142.2960   77.8710  219.1620 C   0  0  0  0  0  0  0  0  0  0  0  0
  141.8840   79.1860  219.7220 C   0  0  0  0  0  0  0  0  0  0  0  0
  142.1390   79.4410  221.1080 N   0  0  0  0  0  0  0  0  0  0  0  0
  141.0820   79.8330  221.9840 C   0  0  0  0  0  0  0  0  0  0  0  0
  140.8130   79.0550  223.1220 C   0  0  0  0  0  0  0  0  0  0  0  0
  139.8010   79.4230  224.0090 C   0  0  0  0  0  0  0  0  0  0  0  0
  139.0600   80.5860  223.7800 C   0  0  0  0  0  0  0  0  0  0  0  0
  138.0230   80.9740  224.6990 C   0  0  0  0  0  0  0  0  0  0  0  0
  137.1550   81.2990  225.4700 C   0  0  0  0  0  0  0  0  0  0  0  0
  136.1190   81.6860  226.3900 C   0  0  0  0  0  0  0  0  0  0  0  0
  134.9750   80.8900  226.5380 C   0  0  0  0  0  0  0  0  0  0  0  0
  133.9700   81.2680  227.4340 C   0  0  0  0  0  0  0  0  0  0  0  0
  134.1050   82.4410  228.1840 C   0  0  0  0  0  0  0  0  0  0  0  0
  135.2450   83.2370  228.0380 C   0  0  0  0  0  0  0  0  0  0  0  0
  136.2530   82.8620  227.1430 C   0  0  0  0  0  0  0  0  0  0  0  0
  139.3390   81.3780  222.6600 C   0  0  0  0  0  0  0  0  0  0  0  0
  140.3400   81.0040  221.7490 C   0  0  0  0  0  0  0  0  0  0  0  0
  140.6620   81.8910  220.6690 N   0  0  0  0  0  0  0  0  0  0  0  0
  140.9870   81.4910  219.3300 C   0  0  0  0  0  0  0  0  0  0  0  0
  140.9580   82.3640  218.4210 O   0  0  0  0  0  0  0  0  0  0  0  0
  141.3060   80.1060  218.9320 C   0  0  0  0  0  0  0  0  0  0  0  0
  142.2450   76.6960  219.9370 C   0  0  0  0  0  0  0  0  0  0  0  0
  140.5700   73.0290  219.2740 C   0  0  0  0  0  0  0  0  0  0  0  0
  139.0720   73.0080  219.6050 C   0  0  0  0  0  0  0  0  0  0  0  0
  138.9566   70.4286  221.7957 H   0  0  0  0  0  0  0  0  0  0  0  0
  138.0529   70.4488  220.2434 H   0  0  0  0  0  0  0  0  0  0  0  0
  139.8417   70.6126  220.2434 H   0  0  0  0  0  0  0  0  0  0  0  0
  139.2216   73.9209  222.1841 H   0  0  0  0  0  0  0  0  0  0  0  0
  139.3930   72.2485  222.8826 H   0  0  0  0  0  0  0  0  0  0  0  0
  141.5758   73.4940  222.5117 H   0  0  0  0  0  0  0  0  0  0  0  0
  141.4503   71.8788  221.7255 H   0  0  0  0  0  0  0  0  0  0  0  0
  143.3760   74.4423  217.6228 H   0  0  0  0  0  0  0  0  0  0  0  0
  143.4490   76.5109  216.2378 H   0  0  0  0  0  0  0  0  0  0  0  0
  142.7474   78.6961  217.2044 H   0  0  0  0  0  0  0  0  0  0  0  0
  142.9490   78.9390  221.5380 H   0  0  0  0  0  0  0  0  0  0  0  0
  141.4050   78.1483  223.3154 H   0  0  0  0  0  0  0  0  0  0  0  0
  139.5862   78.7981  224.8884 H   0  0  0  0  0  0  0  0  0  0  0  0
  134.8675   79.9672  225.9489 H   0  0  0  0  0  0  0  0  0  0  0  0
  133.0726   80.6424  227.5491 H   0  0  0  0  0  0  0  0  0  0  0  0
  133.3141   82.7372  228.8888 H   0  0  0  0  0  0  0  0  0  0  0  0
  135.3497   84.1596  228.6277 H   0  0  0  0  0  0  0  0  0  0  0  0
  137.1498   83.4888  227.0299 H   0  0  0  0  0  0  0  0  0  0  0  0
  138.7681   82.3031  222.4918 H   0  0  0  0  0  0  0  0  0  0  0  0
  140.4460   82.9050  220.8080 H   0  0  0  0  0  0  0  0  0  0  0  0
  141.0499   79.8028  217.9061 H   0  0  0  0  0  0  0  0  0  0  0  0
  141.9097   76.7487  220.9833 H   0  0  0  0  0  0  0  0  0  0  0  0
  140.7429   73.6903  218.4121 H   0  0  0  0  0  0  0  0  0  0  0  0
  140.9001   72.0075  219.0341 H   0  0  0  0  0  0  0  0  0  0  0  0
  138.7110   74.0450  219.6710 H   0  0  0  0  0  0  0  0  0  0  0  0
  138.5614   72.4514  218.8053 H   0  0  0  0  0  0  0  0  0  0  0  0
  1  2  1  0
  2  3  1  0
  3  4  1  0
  4  5  1  0
  5  6  1  0
  6  7  2  0
  6  8  1  0
  8  9  2  0
  9 10  1  0
 10 11  2  0
 11 12  1  0
 12 13  1  0
 13 14  1  0
 14 15  1  0
 15 16  2  0
 16 17  1  0
 17 18  2  0
 18 19  1  0
 19 20  3  0
 20 21  1  0
 21 22  2  0
 22 23  1  0
 23 24  2  0
 24 25  1  0
 25 26  2  0
 18 27  1  0
 27 28  2  0
 28 29  1  0
 29 30  1  0
 30 31  2  0
 30 32  1  0
 12 33  2  0
  5 34  1  0
 34 35  1  0
 35  2  1  0
 33  8  1  0
 32 13  2  0
 28 15  1  0
 26 21  1  0
  1 36  1  0
  1 37  1  0
  1 38  1  0
  3 39  1  0
  3 40  1  0
  4 41  1  0
  4 42  1  0
  9 43  1  0
 10 44  1  0
 11 45  1  0
 14 46  1  0
 16 47  1  0
 17 48  1  0
 22 49  1  0
 23 50  1  0
 24 51  1  0
 25 52  1  0
 26 53  1  0
 27 54  1  0
 29 55  1  0
 32 56  1  0
 33 57  1  0
 34 58  1  0
 34 59  1  0
 35 60  1  0
 35 61  1  0
M  END
>  <UniqueID>  (78) 
38

>  <SMILES>  (78) 
CN1CCN(C(=O)c2cccc(C3=CC(=O)Nc4cc(C#Cc5ccccc5)ccc4N3)c2)CC1

>  <Energy>  (78) 
89.2893860797716

>  <Genealogy>  (78) 
CN1CCN(C(=O)c2cccc(C3=CC(=O)Nc4cc(C#Cc5ccccc5)ccc4N3)c2)CC1 (tautomer)
CN1CCN(C(=O)c2cccc(C3=CC(=O)Nc4cc(C#Cc5ccccc5)ccc4N3)c2)CC1 (3D coordinates assigned)
CN1CCN(C(=O)c2cccc(C3=CC(=O)Nc4cc(C#Cc5ccccc5)ccc4N3)c2)CC1 (nonaromatic ring conformer: 89.2893860797716 kcal/mol)

>  <smiles>  (78) 
CN1CCN(C(=O)c2cccc(C3=Nc4ccc(C#Cc5ccccc5)cc4NC(=O)C3)c2)CC1

>  <score_type>  (78) 
oracle

>  <origin>  (78) 
autodockgpu

>  <m_score__min__energy>  (78) 
-6.7800000000000002

>  <m_primary>  (78) 
energy

>  <meeko>  (78) 
{"free_energy": -5.83, "intermolecular_energy": -8.51, "internal_energy": -1.24, "cluster_size": 1, "cluster_id": 3, "rank_in_cluster": 1}

>  <energy>  (78) 
-5.29

>  <cluster_rmsd>  (78) 
0.0

>  <rmsd>  (78) 
272.04

>  <cluster>  (78) 
7

$$$$
XUWAGCJCFKXBCU-VJSLDGLSNA-N
     RDKit          3D

 61 65  0  0  0  0  0  0  0  0999 V2000
  134.0680   78.1800  222.5100 C   0  0  0  0  0  0  0  0  0  0  0  0
  135.1030   78.6690  221.5830 N   0  0  0  0  0  0  0  0  0  0  0  0
  135.3880   80.1090  221.7630 C   0  0  0  0  0  0  0  0  0  0  0  0
  136.1970   80.3990  223.0350 C   0  0  0  0  0  0  0  0  0  0  0  0
  137.3700   79.5250  223.0940 N   0  0  0  0  0  0  0  0  0  0  0  0
  138.5580   79.9840  223.7590 C   0  0  0  0  0  0  0  0  0  0  0  0
  138.4520   80.6960  224.7950 O   0  0  0  0  0  0  0  0  0  0  0  0
  139.9050   79.6540  223.2340 C   0  0  0  0  0  0  0  0  0  0  0  0
  141.0520   80.1920  223.8390 C   0  0  0  0  0  0  0  0  0  0  0  0
  142.3210   79.8810  223.3480 C   0  0  0  0  0  0  0  0  0  0  0  0
  142.4610   79.0390  222.2440 C   0  0  0  0  0  0  0  0  0  0  0  0
  141.3280   78.5080  221.6070 C   0  0  0  0  0  0  0  0  0  0  0  0
  141.4980   77.6090  220.4340 C   0  0  0  0  0  0  0  0  0  0  0  0
  140.7510   76.3880  220.4030 N   0  0  0  0  0  0  0  0  0  0  0  0
  141.4090   75.1330  220.2310 C   0  0  0  0  0  0  0  0  0  0  0  0
  141.2450   74.1350  221.2060 C   0  0  0  0  0  0  0  0  0  0  0  0
  141.8590   72.8910  221.0560 C   0  0  0  0  0  0  0  0  0  0  0  0
  142.6270   72.6230  219.9180 C   0  0  0  0  0  0  0  0  0  0  0  0
  143.2510   71.3370  219.7570 C   0  0  0  0  0  0  0  0  0  0  0  0
  143.7750   70.2590  219.6210 C   0  0  0  0  0  0  0  0  0  0  0  0
  144.4010   68.9740  219.4600 C   0  0  0  0  0  0  0  0  0  0  0  0
  145.7950   68.8780  219.3560 C   0  0  0  0  0  0  0  0  0  0  0  0
  146.4010   67.6270  219.2000 C   0  0  0  0  0  0  0  0  0  0  0  0
  145.6160   66.4700  219.1460 C   0  0  0  0  0  0  0  0  0  0  0  0
  144.2250   66.5630  219.2490 C   0  0  0  0  0  0  0  0  0  0  0  0
  143.6150   67.8130  219.4060 C   0  0  0  0  0  0  0  0  0  0  0  0
  142.7750   73.6050  218.9330 C   0  0  0  0  0  0  0  0  0  0  0  0
  142.1800   74.8680  219.0850 C   0  0  0  0  0  0  0  0  0  0  0  0
  142.2740   75.8130  218.0100 N   0  0  0  0  0  0  0  0  0  0  0  0
  142.4650   77.2270  218.1560 C   0  0  0  0  0  0  0  0  0  0  0  0
  142.8210   77.8910  217.1460 O   0  0  0  0  0  0  0  0  0  0  0  0
  142.3200   77.9560  219.4320 C   0  0  0  0  0  0  0  0  0  0  0  0
  140.0510   78.8190  222.1120 C   0  0  0  0  0  0  0  0  0  0  0  0
  137.1610   78.0890  222.8900 C   0  0  0  0  0  0  0  0  0  0  0  0
  136.3320   77.8510  221.6210 C   0  0  0  0  0  0  0  0  0  0  0  0
  134.4005   78.3371  223.5467 H   0  0  0  0  0  0  0  0  0  0  0  0
  133.1316   78.7309  222.3378 H   0  0  0  0  0  0  0  0  0  0  0  0
  133.8990   77.1068  222.3378 H   0  0  0  0  0  0  0  0  0  0  0  0
  135.9596   80.4659  220.8936 H   0  0  0  0  0  0  0  0  0  0  0  0
  134.4233   80.6291  221.8574 H   0  0  0  0  0  0  0  0  0  0  0  0
  136.5253   81.4488  223.0262 H   0  0  0  0  0  0  0  0  0  0  0  0
  135.5640   80.2128  223.9152 H   0  0  0  0  0  0  0  0  0  0  0  0
  140.9500   80.8625  224.7050 H   0  0  0  0  0  0  0  0  0  0  0  0
  143.2143   80.3013  223.8332 H   0  0  0  0  0  0  0  0  0  0  0  0
  143.4652   78.7898  221.8705 H   0  0  0  0  0  0  0  0  0  0  0  0
  139.8420   76.3790  220.9210 H   0  0  0  0  0  0  0  0  0  0  0  0
  140.6280   74.3357  222.0943 H   0  0  0  0  0  0  0  0  0  0  0  0
  141.7391   72.1212  221.8325 H   0  0  0  0  0  0  0  0  0  0  0  0
  146.4132   69.7869  219.3971 H   0  0  0  0  0  0  0  0  0  0  0  0
  147.4956   67.5527  219.1197 H   0  0  0  0  0  0  0  0  0  0  0  0
  146.0936   65.4868  219.0224 H   0  0  0  0  0  0  0  0  0  0  0  0
  143.6090   65.6527  219.2066 H   0  0  0  0  0  0  0  0  0  0  0  0
  142.5204   67.8851  219.4870 H   0  0  0  0  0  0  0  0  0  0  0  0
  143.3635   73.3857  218.0299 H   0  0  0  0  0  0  0  0  0  0  0  0
  142.4190   75.4250  217.0490 H   0  0  0  0  0  0  0  0  0  0  0  0
  142.9359   78.8566  219.5724 H   0  0  0  0  0  0  0  0  0  0  0  0
  139.1572   78.4040  221.6232 H   0  0  0  0  0  0  0  0  0  0  0  0
  138.1361   77.5907  222.7861 H   0  0  0  0  0  0  0  0  0  0  0  0
  136.6203   77.6777  223.7552 H   0  0  0  0  0  0  0  0  0  0  0  0
  136.9488   78.1013  220.7453 H   0  0  0  0  0  0  0  0  0  0  0  0
  136.0285   76.7937  221.6151 H   0  0  0  0  0  0  0  0  0  0  0  0
  1  2  1  0
  2  3  1  0
  3  4  1  0
  4  5  1  0
  5  6  1  0
  6  7  2  0
  6  8  1  0
  8  9  2  0
  9 10  1  0
 10 11  2  0
 11 12  1  0
 12 13  1  0
 13 14  1  0
 14 15  1  0
 15 16  2  0
 16 17  1  0
 17 18  2  0
 18 19  1  0
 19 20  3  0
 20 21  1  0
 21 22  2  0
 22 23  1  0
 23 24  2  0
 24 25  1  0
 25 26  2  0
 18 27  1  0
 27 28  2  0
 28 29  1  0
 29 30  1  0
 30 31  2  0
 30 32  1  0
 12 33  2  0
  5 34  1  0
 34 35  1  0
 35  2  1  0
 33  8  1  0
 32 13  2  0
 28 15  1  0
 26 21  1  0
  1 36  1  0
  1 37  1  0
  1 38  1  0
  3 39  1  0
  3 40  1  0
  4 41  1  0
  4 42  1  0
  9 43  1  0
 10 44  1  0
 11 45  1  0
 14 46  1  0
 16 47  1  0
 17 48  1  0
 22 49  1  0
 23 50  1  0
 24 51  1  0
 25 52  1  0
 26 53  1  0
 27 54  1  0
 29 55  1  0
 32 56  1  0
 33 57  1  0
 34 58  1  0
 34 59  1  0
 35 60  1  0
 35 61  1  0
M  END
>  <UniqueID>  (79) 
38

>  <SMILES>  (79) 
CN1CCN(C(=O)c2cccc(C3=CC(=O)Nc4cc(C#Cc5ccccc5)ccc4N3)c2)CC1

>  <Energy>  (79) 
89.2893860797716

>  <Genealogy>  (79) 
CN1CCN(C(=O)c2cccc(C3=CC(=O)Nc4cc(C#Cc5ccccc5)ccc4N3)c2)CC1 (tautomer)
CN1CCN(C(=O)c2cccc(C3=CC(=O)Nc4cc(C#Cc5ccccc5)ccc4N3)c2)CC1 (3D coordinates assigned)
CN1CCN(C(=O)c2cccc(C3=CC(=O)Nc4cc(C#Cc5ccccc5)ccc4N3)c2)CC1 (nonaromatic ring conformer: 89.2893860797716 kcal/mol)

>  <smiles>  (79) 
CN1CCN(C(=O)c2cccc(C3=Nc4ccc(C#Cc5ccccc5)cc4NC(=O)C3)c2)CC1

>  <score_type>  (79) 
oracle

>  <origin>  (79) 
autodockgpu

>  <m_score__min__energy>  (79) 
-6.7800000000000002

>  <m_primary>  (79) 
energy

>  <meeko>  (79) 
{"free_energy": -5.49, "intermolecular_energy": -8.17, "internal_energy": -1.19, "cluster_size": 3, "cluster_id": 5, "rank_in_cluster": 3}

>  <energy>  (79) 
-5.09

>  <cluster_rmsd>  (79) 
1.53

>  <rmsd>  (79) 
271.88

>  <cluster>  (79) 
7

$$$$
XUWAGCJCFKXBCU-VJSLDGLSNA-N
     RDKit          3D

 61 65  0  0  0  0  0  0  0  0999 V2000
  141.9640   81.6520  224.2140 C   0  0  0  0  0  0  0  0  0  0  0  0
  142.0510   80.2400  223.8050 N   0  0  0  0  0  0  0  0  0  0  0  0
  140.7270   79.6540  223.5060 C   0  0  0  0  0  0  0  0  0  0  0  0
  140.1480   80.1460  222.1730 C   0  0  0  0  0  0  0  0  0  0  0  0
  141.1430   79.9990  221.1090 N   0  0  0  0  0  0  0  0  0  0  0  0
  140.7040   79.7690  219.7600 C   0  0  0  0  0  0  0  0  0  0  0  0
  139.6560   80.3350  219.3450 O   0  0  0  0  0  0  0  0  0  0  0  0
  141.4500   78.8600  218.8560 C   0  0  0  0  0  0  0  0  0  0  0  0
  142.0050   79.3480  217.6620 C   0  0  0  0  0  0  0  0  0  0  0  0
  142.7090   78.4940  216.8110 C   0  0  0  0  0  0  0  0  0  0  0  0
  142.8590   77.1450  217.1340 C   0  0  0  0  0  0  0  0  0  0  0  0
  142.2930   76.6280  218.3120 C   0  0  0  0  0  0  0  0  0  0  0  0
  142.4680   75.1890  218.6410 C   0  0  0  0  0  0  0  0  0  0  0  0
  141.2970   74.4040  218.8910 N   0  0  0  0  0  0  0  0  0  0  0  0
  141.1610   73.6630  220.1040 C   0  0  0  0  0  0  0  0  0  0  0  0
  140.0550   73.9080  220.9350 C   0  0  0  0  0  0  0  0  0  0  0  0
  139.8820   73.1860  222.1160 C   0  0  0  0  0  0  0  0  0  0  0  0
  140.8020   72.1940  222.4690 C   0  0  0  0  0  0  0  0  0  0  0  0
  140.6200   71.4390  223.6800 C   0  0  0  0  0  0  0  0  0  0  0  0
  140.4680   70.8070  224.6960 C   0  0  0  0  0  0  0  0  0  0  0  0
  140.2870   70.0540  225.9080 C   0  0  0  0  0  0  0  0  0  0  0  0
  140.3140   70.7030  227.1500 C   0  0  0  0  0  0  0  0  0  0  0  0
  140.1370   69.9690  228.3280 C   0  0  0  0  0  0  0  0  0  0  0  0
  139.9330   68.5860  228.2670 C   0  0  0  0  0  0  0  0  0  0  0  0
  139.9060   67.9370  227.0290 C   0  0  0  0  0  0  0  0  0  0  0  0
  140.0820   68.6680  225.8490 C   0  0  0  0  0  0  0  0  0  0  0  0
  141.8930   71.9290  221.6330 C   0  0  0  0  0  0  0  0  0  0  0  0
  142.0880   72.6660  220.4540 C   0  0  0  0  0  0  0  0  0  0  0  0
  143.1620   72.2990  219.5760 N   0  0  0  0  0  0  0  0  0  0  0  0
  143.9930   73.2130  218.8470 C   0  0  0  0  0  0  0  0  0  0  0  0
  145.0690   72.7810  218.3540 O   0  0  0  0  0  0  0  0  0  0  0  0
  143.6950   74.6490  218.6770 C   0  0  0  0  0  0  0  0  0  0  0  0
  141.5900   77.4960  219.1700 C   0  0  0  0  0  0  0  0  0  0  0  0
  142.4870   80.5280  221.3540 C   0  0  0  0  0  0  0  0  0  0  0  0
  143.0140   80.0260  222.7050 C   0  0  0  0  0  0  0  0  0  0  0  0
  141.9601   81.7161  225.3121 H   0  0  0  0  0  0  0  0  0  0  0  0
  142.8299   82.2026  223.8177 H   0  0  0  0  0  0  0  0  0  0  0  0
  141.0370   82.0921  223.8177 H   0  0  0  0  0  0  0  0  0  0  0  0
  140.8284   78.5595  223.4628 H   0  0  0  0  0  0  0  0  0  0  0  0
  140.0374   79.9680  224.3034 H   0  0  0  0  0  0  0  0  0  0  0  0
  139.2564   79.5526  221.9222 H   0  0  0  0  0  0  0  0  0  0  0  0
  139.8757   81.2075  222.2680 H   0  0  0  0  0  0  0  0  0  0  0  0
  141.8845   80.4085  217.3958 H   0  0  0  0  0  0  0  0  0  0  0  0
  143.1474   78.8865  215.8816 H   0  0  0  0  0  0  0  0  0  0  0  0
  143.4239   76.4818  216.4624 H   0  0  0  0  0  0  0  0  0  0  0  0
  140.4140   74.7130  218.4230 H   0  0  0  0  0  0  0  0  0  0  0  0
  139.3194   74.6754  220.6521 H   0  0  0  0  0  0  0  0  0  0  0  0
  139.0224   73.3969  222.7691 H   0  0  0  0  0  0  0  0  0  0  0  0
  140.4744   71.7901  227.1987 H   0  0  0  0  0  0  0  0  0  0  0  0
  140.1582   70.4793  229.3023 H   0  0  0  0  0  0  0  0  0  0  0  0
  139.7938   68.0093  229.1933 H   0  0  0  0  0  0  0  0  0  0  0  0
  139.7461   66.8497  226.9825 H   0  0  0  0  0  0  0  0  0  0  0  0
  140.0596   68.1559  224.8757 H   0  0  0  0  0  0  0  0  0  0  0  0
  142.6050   71.1350  221.9026 H   0  0  0  0  0  0  0  0  0  0  0  0
  143.4980   71.3100  219.6270 H   0  0  0  0  0  0  0  0  0  0  0  0
  144.5503   75.3326  218.5711 H   0  0  0  0  0  0  0  0  0  0  0  0
  141.1454   77.1028  220.0961 H   0  0  0  0  0  0  0  0  0  0  0  0
  143.1617   80.1920  220.5529 H   0  0  0  0  0  0  0  0  0  0  0  0
  142.4434   81.6270  221.3708 H   0  0  0  0  0  0  0  0  0  0  0  0
  143.2226   78.9490  222.6238 H   0  0  0  0  0  0  0  0  0  0  0  0
  143.9231   80.5983  222.9417 H   0  0  0  0  0  0  0  0  0  0  0  0
  1  2  1  0
  2  3  1  0
  3  4  1  0
  4  5  1  0
  5  6  1  0
  6  7  2  0
  6  8  1  0
  8  9  2  0
  9 10  1  0
 10 11  2  0
 11 12  1  0
 12 13  1  0
 13 14  1  0
 14 15  1  0
 15 16  2  0
 16 17  1  0
 17 18  2  0
 18 19  1  0
 19 20  3  0
 20 21  1  0
 21 22  2  0
 22 23  1  0
 23 24  2  0
 24 25  1  0
 25 26  2  0
 18 27  1  0
 27 28  2  0
 28 29  1  0
 29 30  1  0
 30 31  2  0
 30 32  1  0
 12 33  2  0
  5 34  1  0
 34 35  1  0
 35  2  1  0
 33  8  1  0
 32 13  2  0
 28 15  1  0
 26 21  1  0
  1 36  1  0
  1 37  1  0
  1 38  1  0
  3 39  1  0
  3 40  1  0
  4 41  1  0
  4 42  1  0
  9 43  1  0
 10 44  1  0
 11 45  1  0
 14 46  1  0
 16 47  1  0
 17 48  1  0
 22 49  1  0
 23 50  1  0
 24 51  1  0
 25 52  1  0
 26 53  1  0
 27 54  1  0
 29 55  1  0
 32 56  1  0
 33 57  1  0
 34 58  1  0
 34 59  1  0
 35 60  1  0
 35 61  1  0
M  END
>  <UniqueID>  (80) 
38

>  <SMILES>  (80) 
CN1CCN(C(=O)c2cccc(C3=CC(=O)Nc4cc(C#Cc5ccccc5)ccc4N3)c2)CC1

>  <Energy>  (80) 
89.2893860797716

>  <Genealogy>  (80) 
CN1CCN(C(=O)c2cccc(C3=CC(=O)Nc4cc(C#Cc5ccccc5)ccc4N3)c2)CC1 (tautomer)
CN1CCN(C(=O)c2cccc(C3=CC(=O)Nc4cc(C#Cc5ccccc5)ccc4N3)c2)CC1 (3D coordinates assigned)
CN1CCN(C(=O)c2cccc(C3=CC(=O)Nc4cc(C#Cc5ccccc5)ccc4N3)c2)CC1 (nonaromatic ring conformer: 89.2893860797716 kcal/mol)

>  <smiles>  (80) 
CN1CCN(C(=O)c2cccc(C3=Nc4ccc(C#Cc5ccccc5)cc4NC(=O)C3)c2)CC1

>  <score_type>  (80) 
oracle

>  <origin>  (80) 
autodockgpu

>  <m_score__min__energy>  (80) 
-6.7800000000000002

>  <m_primary>  (80) 
energy

>  <meeko>  (80) 
{"free_energy": -6.64, "intermolecular_energy": -9.33, "internal_energy": -1.27, "cluster_size": 9, "cluster_id": 1, "rank_in_cluster": 3}

>  <energy>  (80) 
-4.92

>  <cluster_rmsd>  (80) 
0.0

>  <rmsd>  (80) 
272.56

>  <cluster>  (80) 
8

$$$$
