OOSPKVZPLIIQRF-ZMYHIABLNA-N
     RDKit          3D

 44 47  0  0  0  0  0  0  0  0999 V2000
  139.2750   73.8800  223.0830 H   0  0  0  0  0  0  0  0  0  0  0  0
  139.5840   74.2800  222.1710 N   0  0  0  0  0  0  0  0  0  0  0  0
  140.7210   74.0230  221.5970 C   0  0  0  0  0  0  0  0  0  0  0  0
  141.5480   75.0520  221.0730 C   0  0  0  0  0  0  0  0  0  0  0  0
  141.2410   76.4900  221.2360 C   0  0  0  0  0  0  0  0  0  0  0  0
  141.9560   77.3480  220.6520 O   0  0  0  0  0  0  0  0  0  0  0  0
  140.1050   76.9010  222.0170 N   0  0  0  0  0  0  0  0  0  0  0  0
  139.5640   76.1670  222.5280 H   0  0  0  0  0  0  0  0  0  0  0  0
  139.6340   78.2860  222.1260 C   0  0  2  0  0  0  0  0  0  0  0  0
  139.3648   78.6688  221.1305 H   0  0  0  0  0  0  0  0  0  0  0  0
  140.7510   79.1960  222.6120 C   0  0  0  0  0  0  0  0  0  0  0  0
  141.1640   80.2520  221.7800 C   0  0  0  0  0  0  0  0  0  0  0  0
  140.6591   80.4159  220.8166 H   0  0  0  0  0  0  0  0  0  0  0  0
  142.2110   81.0960  222.1660 C   0  0  0  0  0  0  0  0  0  0  0  0
  142.5203   81.9233  221.5103 H   0  0  0  0  0  0  0  0  0  0  0  0
  142.8630   80.8890  223.3820 C   0  0  0  0  0  0  0  0  0  0  0  0
  143.6833   81.5558  223.6863 H   0  0  0  0  0  0  0  0  0  0  0  0
  142.4750   79.8360  224.2130 C   0  0  0  0  0  0  0  0  0  0  0  0
  142.9927   79.6721  225.1696 H   0  0  0  0  0  0  0  0  0  0  0  0
  141.4290   78.9890  223.8310 C   0  0  0  0  0  0  0  0  0  0  0  0
  141.1335   78.1561  224.4859 H   0  0  0  0  0  0  0  0  0  0  0  0
  138.3350   78.3580  222.9430 C   0  0  0  0  0  0  0  0  0  0  0  0
  138.5757   78.3447  224.0163 H   0  0  0  0  0  0  0  0  0  0  0  0
  137.7993   79.2872  222.6989 H   0  0  0  0  0  0  0  0  0  0  0  0
  137.6999   77.4937  222.6989 H   0  0  0  0  0  0  0  0  0  0  0  0
  142.7250   74.6920  220.4010 C   0  0  0  0  0  0  0  0  0  0  0  0
  143.3694   75.4737  219.9724 H   0  0  0  0  0  0  0  0  0  0  0  0
  143.0870   73.3440  220.2710 C   0  0  0  0  0  0  0  0  0  0  0  0
  144.2610   72.9340  219.6130 C   0  0  0  0  0  0  0  0  0  0  0  0
  145.0280   73.8030  219.1090 O   0  0  0  0  0  0  0  0  0  0  0  0
  144.5680   71.5980  219.5210 N   0  0  0  0  0  0  0  0  0  0  0  0
  145.7110   71.1840  218.8820 C   0  0  0  0  0  0  0  0  0  0  0  0
  146.3870   71.9309  218.4402 H   0  0  0  0  0  0  0  0  0  0  0  0
  146.0260   69.8270  218.7860 C   0  0  0  0  0  0  0  0  0  0  0  0
  146.9442   69.5075  218.2713 H   0  0  0  0  0  0  0  0  0  0  0  0
  145.1720   68.8810  219.3450 C   0  0  0  0  0  0  0  0  0  0  0  0
  145.4114   67.8097  219.2745 H   0  0  0  0  0  0  0  0  0  0  0  0
  144.0130   69.2980  219.9940 C   0  0  0  0  0  0  0  0  0  0  0  0
  143.3316   68.5580  220.4390 H   0  0  0  0  0  0  0  0  0  0  0  0
  143.7200   70.6630  220.0770 C   0  0  0  0  0  0  0  0  0  0  0  0
  142.5850   71.0550  220.7130 N   0  0  0  0  0  0  0  0  0  0  0  0
  142.2520   72.3630  220.8240 C   0  0  0  0  0  0  0  0  0  0  0  0
  141.1050   72.7200  221.4660 N   0  0  0  0  0  0  0  0  0  0  0  0
  140.4940   71.9670  221.8570 H   0  0  0  0  0  0  0  0  0  0  0  0
  1  2  1  0
  2  3  2  0
  3  4  1  0
  4  5  1  0
  5  6  2  0
  5  7  1  0
  7  8  1  0
  7  9  1  0
  9 10  1  6
  9 11  1  0
 11 12  2  0
 12 13  1  0
 12 14  1  0
 14 15  1  0
 14 16  2  0
 16 17  1  0
 16 18  1  0
 18 19  1  0
 18 20  2  0
 20 21  1  0
  9 22  1  0
 22 23  1  0
 22 24  1  0
 22 25  1  0
  4 26  2  0
 26 27  1  0
 26 28  1  0
 28 29  1  0
 29 30  2  0
 29 31  1  0
 31 32  1  0
 32 33  1  0
 32 34  2  0
 34 35  1  0
 34 36  1  0
 36 37  1  0
 36 38  2  0
 38 39  1  0
 38 40  1  0
 40 41  2  0
 41 42  1  0
 42 43  1  0
 43 44  1  0
 43  3  1  0
 20 11  1  0
 42 28  2  0
 40 31  1  0
M  END
>  <UniqueID>  (1) 
31

>  <SMILES>  (1) 
[H]/N=c1/[nH]c2nc3ccccn3c(=O)c2cc1C(=O)N[C@@H](C)c1ccccc1

>  <Energy>  (1) 
65.80136345137069

>  <Genealogy>  (1) 
[H]/N=c1/[nH]c2nc3ccccn3c(=O)c2cc1C(=O)N[C@@H](C)c1ccccc1 (cis-trans isomerization)
[H]/N=c1/[nH]c2nc3ccccn3c(=O)c2cc1C(=O)N[C@@H](C)c1ccccc1 (3D coordinates assigned)
[H]/N=c1/[nH]c2nc3ccccn3c(=O)c2cc1C(=O)N[C@@H](C)c1ccccc1 (optimized conformer: 65.80136345137069 kcal/mol)

>  <smiles>  (1) 
C[C@H](NC(=O)c1cc2c(=O)n3ccccc3nc2[nH]c1=N)c1ccccc1

>  <score_type>  (1) 
oracle

>  <origin>  (1) 
autodockgpu

>  <m_score__min__energy>  (1) 
-8.1799999999999997

>  <m_primary>  (1) 
energy

>  <meeko>  (1) 
{"free_energy": -6.95, "intermolecular_energy": -8.14, "internal_energy": -0.94, "cluster_size": 2, "cluster_id": 3, "rank_in_cluster": 2}

>  <energy>  (1) 
-8.18

>  <cluster_rmsd>  (1) 
0.0

>  <rmsd>  (1) 
270.98

>  <cluster>  (1) 
1

$$$$
OOSPKVZPLIIQRF-ZMYHIABLNA-N
     RDKit          3D

 44 47  0  0  0  0  0  0  0  0999 V2000
  143.6750   77.7240  219.7900 H   0  0  0  0  0  0  0  0  0  0  0  0
  143.3480   76.9890  219.1260 N   0  0  0  0  0  0  0  0  0  0  0  0
  143.2350   75.7270  219.4170 C   0  0  0  0  0  0  0  0  0  0  0  0
  142.3010   75.2590  220.3780 C   0  0  0  0  0  0  0  0  0  0  0  0
  141.3140   76.1420  221.0370 C   0  0  0  0  0  0  0  0  0  0  0  0
  140.8330   75.8120  222.1540 O   0  0  0  0  0  0  0  0  0  0  0  0
  140.9460   77.3920  220.4280 N   0  0  0  0  0  0  0  0  0  0  0  0
  141.3260   77.6120  219.4790 H   0  0  0  0  0  0  0  0  0  0  0  0
  140.0890   78.4010  221.0620 C   0  0  2  0  0  0  0  0  0  0  0  0
  139.7322   79.1172  220.3072 H   0  0  0  0  0  0  0  0  0  0  0  0
  140.8860   79.2330  222.0540 C   0  0  0  0  0  0  0  0  0  0  0  0
  140.1920   80.1290  222.8870 C   0  0  0  0  0  0  0  0  0  0  0  0
  139.0955   80.1916  222.8260 H   0  0  0  0  0  0  0  0  0  0  0  0
  140.8830   80.9410  223.7920 C   0  0  0  0  0  0  0  0  0  0  0  0
  140.3286   81.6327  224.4433 H   0  0  0  0  0  0  0  0  0  0  0  0
  142.2750   80.8750  223.8700 C   0  0  0  0  0  0  0  0  0  0  0  0
  142.8166   81.5114  224.5852 H   0  0  0  0  0  0  0  0  0  0  0  0
  142.9800   80.0010  223.0400 C   0  0  0  0  0  0  0  0  0  0  0  0
  144.0773   79.9532  223.0994 H   0  0  0  0  0  0  0  0  0  0  0  0
  142.2940   79.1860  222.1330 C   0  0  0  0  0  0  0  0  0  0  0  0
  142.8558   78.5044  221.4774 H   0  0  0  0  0  0  0  0  0  0  0  0
  138.8160   77.7570  221.6290 C   0  0  0  0  0  0  0  0  0  0  0  0
  138.8537   77.7761  222.7282 H   0  0  0  0  0  0  0  0  0  0  0  0
  137.9356   78.3182  221.2825 H   0  0  0  0  0  0  0  0  0  0  0  0
  138.7465   76.7153  221.2825 H   0  0  0  0  0  0  0  0  0  0  0  0
  142.2890   73.8920  220.6930 C   0  0  0  0  0  0  0  0  0  0  0  0
  141.5858   73.5124  221.4489 H   0  0  0  0  0  0  0  0  0  0  0  0
  143.1660   73.0060  220.0520 C   0  0  0  0  0  0  0  0  0  0  0  0
  143.1870   71.6260  220.3290 C   0  0  0  0  0  0  0  0  0  0  0  0
  142.3910   71.1520  221.1890 O   0  0  0  0  0  0  0  0  0  0  0  0
  144.0650   70.8040  219.6650 N   0  0  0  0  0  0  0  0  0  0  0  0
  144.0950   69.4560  219.9250 C   0  0  0  0  0  0  0  0  0  0  0  0
  143.4075   69.0316  220.6715 H   0  0  0  0  0  0  0  0  0  0  0  0
  144.9870   68.6170  219.2540 C   0  0  0  0  0  0  0  0  0  0  0  0
  145.0025   67.5388  219.4713 H   0  0  0  0  0  0  0  0  0  0  0  0
  145.8560   69.1530  218.3090 C   0  0  0  0  0  0  0  0  0  0  0  0
  146.5619   68.5004  217.7744 H   0  0  0  0  0  0  0  0  0  0  0  0
  145.8280   70.5200  218.0430 C   0  0  0  0  0  0  0  0  0  0  0  0
  146.5115   70.9527  217.2976 H   0  0  0  0  0  0  0  0  0  0  0  0
  144.9260   71.3390  218.7290 C   0  0  0  0  0  0  0  0  0  0  0  0
  144.9090   72.6700  218.4610 N   0  0  0  0  0  0  0  0  0  0  0  0
  144.0560   73.5100  219.0940 C   0  0  0  0  0  0  0  0  0  0  0  0
  144.0690   74.8400  218.8010 N   0  0  0  0  0  0  0  0  0  0  0  0
  144.7520   75.1900  218.0900 H   0  0  0  0  0  0  0  0  0  0  0  0
  1  2  1  0
  2  3  2  0
  3  4  1  0
  4  5  1  0
  5  6  2  0
  5  7  1  0
  7  8  1  0
  7  9  1  0
  9 10  1  6
  9 11  1  0
 11 12  2  0
 12 13  1  0
 12 14  1  0
 14 15  1  0
 14 16  2  0
 16 17  1  0
 16 18  1  0
 18 19  1  0
 18 20  2  0
 20 21  1  0
  9 22  1  0
 22 23  1  0
 22 24  1  0
 22 25  1  0
  4 26  2  0
 26 27  1  0
 26 28  1  0
 28 29  1  0
 29 30  2  0
 29 31  1  0
 31 32  1  0
 32 33  1  0
 32 34  2  0
 34 35  1  0
 34 36  1  0
 36 37  1  0
 36 38  2  0
 38 39  1  0
 38 40  1  0
 40 41  2  0
 41 42  1  0
 42 43  1  0
 43 44  1  0
 43  3  1  0
 20 11  1  0
 42 28  2  0
 40 31  1  0
M  END
>  <UniqueID>  (2) 
31

>  <SMILES>  (2) 
[H]/N=c1/[nH]c2nc3ccccn3c(=O)c2cc1C(=O)N[C@@H](C)c1ccccc1

>  <Energy>  (2) 
65.80136345137069

>  <Genealogy>  (2) 
[H]/N=c1/[nH]c2nc3ccccn3c(=O)c2cc1C(=O)N[C@@H](C)c1ccccc1 (cis-trans isomerization)
[H]/N=c1/[nH]c2nc3ccccn3c(=O)c2cc1C(=O)N[C@@H](C)c1ccccc1 (3D coordinates assigned)
[H]/N=c1/[nH]c2nc3ccccn3c(=O)c2cc1C(=O)N[C@@H](C)c1ccccc1 (optimized conformer: 65.80136345137069 kcal/mol)

>  <smiles>  (2) 
C[C@H](NC(=O)c1cc2c(=O)n3ccccc3nc2[nH]c1=N)c1ccccc1

>  <score_type>  (2) 
oracle

>  <origin>  (2) 
autodockgpu

>  <m_score__min__energy>  (2) 
-8.1799999999999997

>  <m_primary>  (2) 
energy

>  <meeko>  (2) 
{"free_energy": -6.98, "intermolecular_energy": -8.17, "internal_energy": -0.98, "cluster_size": 16, "cluster_id": 1, "rank_in_cluster": 16}

>  <energy>  (2) 
-8.18

>  <cluster_rmsd>  (2) 
0.04

>  <rmsd>  (2) 
271.0

>  <cluster>  (2) 
1

$$$$
OOSPKVZPLIIQRF-ZMYHIABLNA-N
     RDKit          3D

 44 47  0  0  0  0  0  0  0  0999 V2000
  144.0610   76.9590  220.7540 H   0  0  0  0  0  0  0  0  0  0  0  0
  144.0570   76.3460  219.9100 N   0  0  0  0  0  0  0  0  0  0  0  0
  143.7520   75.0830  219.9140 C   0  0  0  0  0  0  0  0  0  0  0  0
  142.4590   74.6230  220.2770 C   0  0  0  0  0  0  0  0  0  0  0  0
  141.3330   75.5380  220.5670 C   0  0  0  0  0  0  0  0  0  0  0  0
  140.1530   75.1680  220.3240 O   0  0  0  0  0  0  0  0  0  0  0  0
  141.5830   76.8210  221.1670 N   0  0  0  0  0  0  0  0  0  0  0  0
  142.5760   77.1160  221.3100 H   0  0  0  0  0  0  0  0  0  0  0  0
  140.5330   77.7400  221.6230 C   0  0  2  0  0  0  0  0  0  0  0  0
  140.0297   78.1943  220.7568 H   0  0  0  0  0  0  0  0  0  0  0  0
  141.1390   78.9060  222.3880 C   0  0  0  0  0  0  0  0  0  0  0  0
  140.2750   79.7720  223.0830 C   0  0  0  0  0  0  0  0  0  0  0  0
  139.1925   79.5764  223.0836 H   0  0  0  0  0  0  0  0  0  0  0  0
  140.7790   80.8790  223.7730 C   0  0  0  0  0  0  0  0  0  0  0  0
  140.0944   81.5445  224.3193 H   0  0  0  0  0  0  0  0  0  0  0  0
  142.1500   81.1400  223.7690 C   0  0  0  0  0  0  0  0  0  0  0  0
  142.5459   82.0094  224.3144 H   0  0  0  0  0  0  0  0  0  0  0  0
  143.0190   80.2980  223.0730 C   0  0  0  0  0  0  0  0  0  0  0  0
  144.0990   80.5066  223.0689 H   0  0  0  0  0  0  0  0  0  0  0  0
  142.5200   79.1900  222.3810 C   0  0  0  0  0  0  0  0  0  0  0  0
  143.2095   78.5356  221.8275 H   0  0  0  0  0  0  0  0  0  0  0  0
  139.4270   76.9780  222.3680 C   0  0  0  0  0  0  0  0  0  0  0  0
  139.5772   77.0815  223.4528 H   0  0  0  0  0  0  0  0  0  0  0  0
  138.4463   77.3930  222.0924 H   0  0  0  0  0  0  0  0  0  0  0  0
  139.4654   75.9138  222.0924 H   0  0  0  0  0  0  0  0  0  0  0  0
  142.2270   73.2410  220.3290 C   0  0  0  0  0  0  0  0  0  0  0  0
  141.2366   72.8648  220.6249 H   0  0  0  0  0  0  0  0  0  0  0  0
  143.2470   72.3350  220.0070 C   0  0  0  0  0  0  0  0  0  0  0  0
  143.0610   70.9410  220.0380 C   0  0  0  0  0  0  0  0  0  0  0  0
  141.9360   70.4710  220.3710 O   0  0  0  0  0  0  0  0  0  0  0  0
  144.0960   70.1000  219.7050 N   0  0  0  0  0  0  0  0  0  0  0  0
  143.9270   68.7380  219.7310 C   0  0  0  0  0  0  0  0  0  0  0  0
  142.9527   68.3169  220.0200 H   0  0  0  0  0  0  0  0  0  0  0  0
  144.9770   67.8800  219.3950 C   0  0  0  0  0  0  0  0  0  0  0  0
  144.8305   66.7901  219.4195 H   0  0  0  0  0  0  0  0  0  0  0  0
  146.2100   68.4130  219.0290 C   0  0  0  0  0  0  0  0  0  0  0  0
  147.0431   67.7463  218.7618 H   0  0  0  0  0  0  0  0  0  0  0  0
  146.3830   69.7940  219.0030 C   0  0  0  0  0  0  0  0  0  0  0  0
  147.3539   70.2244  218.7165 H   0  0  0  0  0  0  0  0  0  0  0  0
  145.3160   70.6310  219.3430 C   0  0  0  0  0  0  0  0  0  0  0  0
  145.4990   71.9760  219.3130 N   0  0  0  0  0  0  0  0  0  0  0  0
  144.5020   72.8350  219.6320 C   0  0  0  0  0  0  0  0  0  0  0  0
  144.7220   74.1780  219.5930 N   0  0  0  0  0  0  0  0  0  0  0  0
  145.6720   74.5230  219.3230 H   0  0  0  0  0  0  0  0  0  0  0  0
  1  2  1  0
  2  3  2  0
  3  4  1  0
  4  5  1  0
  5  6  2  0
  5  7  1  0
  7  8  1  0
  7  9  1  0
  9 10  1  6
  9 11  1  0
 11 12  2  0
 12 13  1  0
 12 14  1  0
 14 15  1  0
 14 16  2  0
 16 17  1  0
 16 18  1  0
 18 19  1  0
 18 20  2  0
 20 21  1  0
  9 22  1  0
 22 23  1  0
 22 24  1  0
 22 25  1  0
  4 26  2  0
 26 27  1  0
 26 28  1  0
 28 29  1  0
 29 30  2  0
 29 31  1  0
 31 32  1  0
 32 33  1  0
 32 34  2  0
 34 35  1  0
 34 36  1  0
 36 37  1  0
 36 38  2  0
 38 39  1  0
 38 40  1  0
 40 41  2  0
 41 42  1  0
 42 43  1  0
 43 44  1  0
 43  3  1  0
 20 11  1  0
 42 28  2  0
 40 31  1  0
M  END
>  <UniqueID>  (3) 
31

>  <SMILES>  (3) 
[H]/N=c1/[nH]c2nc3ccccn3c(=O)c2cc1C(=O)N[C@@H](C)c1ccccc1

>  <Energy>  (3) 
65.80136345137069

>  <Genealogy>  (3) 
[H]/N=c1/[nH]c2nc3ccccn3c(=O)c2cc1C(=O)N[C@@H](C)c1ccccc1 (cis-trans isomerization)
[H]/N=c1/[nH]c2nc3ccccn3c(=O)c2cc1C(=O)N[C@@H](C)c1ccccc1 (3D coordinates assigned)
[H]/N=c1/[nH]c2nc3ccccn3c(=O)c2cc1C(=O)N[C@@H](C)c1ccccc1 (optimized conformer: 65.80136345137069 kcal/mol)

>  <smiles>  (3) 
C[C@H](NC(=O)c1cc2c(=O)n3ccccc3nc2[nH]c1=N)c1ccccc1

>  <score_type>  (3) 
oracle

>  <origin>  (3) 
autodockgpu

>  <m_score__min__energy>  (3) 
-8.1799999999999997

>  <m_primary>  (3) 
energy

>  <meeko>  (3) 
{"free_energy": -8.17, "intermolecular_energy": -9.36, "internal_energy": -0.77, "cluster_size": 16, "cluster_id": 1, "rank_in_cluster": 5}

>  <energy>  (3) 
-8.17

>  <cluster_rmsd>  (3) 
0.07

>  <rmsd>  (3) 
270.99

>  <cluster>  (3) 
1

$$$$
OOSPKVZPLIIQRF-ZMYHIABLNA-N
     RDKit          3D

 44 47  0  0  0  0  0  0  0  0999 V2000
  144.4160   76.8530  220.6380 H   0  0  0  0  0  0  0  0  0  0  0  0
  144.0160   76.3170  219.8390 N   0  0  0  0  0  0  0  0  0  0  0  0
  143.7280   75.0500  219.8670 C   0  0  0  0  0  0  0  0  0  0  0  0
  142.4510   74.5800  220.2710 C   0  0  0  0  0  0  0  0  0  0  0  0
  141.3210   75.4840  220.5790 C   0  0  0  0  0  0  0  0  0  0  0  0
  140.1390   75.0940  220.3810 O   0  0  0  0  0  0  0  0  0  0  0  0
  141.5720   76.7820  221.1470 N   0  0  0  0  0  0  0  0  0  0  0  0
  142.5640   77.0930  221.2530 H   0  0  0  0  0  0  0  0  0  0  0  0
  140.5240   77.6950  221.6180 C   0  0  2  0  0  0  0  0  0  0  0  0
  140.0218   78.1633  220.7586 H   0  0  0  0  0  0  0  0  0  0  0  0
  141.1320   78.8480  222.4020 C   0  0  0  0  0  0  0  0  0  0  0  0
  140.2700   79.7020  223.1140 C   0  0  0  0  0  0  0  0  0  0  0  0
  139.1873   79.5076  223.1131 H   0  0  0  0  0  0  0  0  0  0  0  0
  140.7770   80.7960  223.8230 C   0  0  0  0  0  0  0  0  0  0  0  0
  140.0943   81.4514  224.3836 H   0  0  0  0  0  0  0  0  0  0  0  0
  142.1480   81.0570  223.8200 C   0  0  0  0  0  0  0  0  0  0  0  0
  142.5454   81.9167  224.3794 H   0  0  0  0  0  0  0  0  0  0  0  0
  143.0150   80.2270  223.1070 C   0  0  0  0  0  0  0  0  0  0  0  0
  144.0950   80.4355  223.1036 H   0  0  0  0  0  0  0  0  0  0  0  0
  142.5140   79.1310  222.3970 C   0  0  0  0  0  0  0  0  0  0  0  0
  143.2020   78.4856  221.8312 H   0  0  0  0  0  0  0  0  0  0  0  0
  139.4160   76.9240  222.3510 C   0  0  0  0  0  0  0  0  0  0  0  0
  139.5577   77.0226  223.4374 H   0  0  0  0  0  0  0  0  0  0  0  0
  138.4354   77.3358  222.0703 H   0  0  0  0  0  0  0  0  0  0  0  0
  139.4614   75.8614  222.0703 H   0  0  0  0  0  0  0  0  0  0  0  0
  142.2370   73.1960  220.3490 C   0  0  0  0  0  0  0  0  0  0  0  0
  141.2599   72.8124  220.6779 H   0  0  0  0  0  0  0  0  0  0  0  0
  143.2590   72.2980  220.0110 C   0  0  0  0  0  0  0  0  0  0  0  0
  143.0920   70.9020  220.0660 C   0  0  0  0  0  0  0  0  0  0  0  0
  141.9820   70.4230  220.4360 O   0  0  0  0  0  0  0  0  0  0  0  0
  144.1280   70.0700  219.7170 N   0  0  0  0  0  0  0  0  0  0  0  0
  143.9770   68.7050  219.7660 C   0  0  0  0  0  0  0  0  0  0  0  0
  143.0165   68.2757  220.0870 H   0  0  0  0  0  0  0  0  0  0  0  0
  145.0290   67.8560  219.4130 C   0  0  0  0  0  0  0  0  0  0  0  0
  144.8971   66.7648  219.4559 H   0  0  0  0  0  0  0  0  0  0  0  0
  146.2440   68.3980  219.0070 C   0  0  0  0  0  0  0  0  0  0  0  0
  147.0777   67.7374  218.7268 H   0  0  0  0  0  0  0  0  0  0  0  0
  146.4000   69.7810  218.9570 C   0  0  0  0  0  0  0  0  0  0  0  0
  147.3574   70.2187  218.6379 H   0  0  0  0  0  0  0  0  0  0  0  0
  145.3320   70.6100  219.3150 C   0  0  0  0  0  0  0  0  0  0  0  0
  145.4970   71.9570  219.2620 N   0  0  0  0  0  0  0  0  0  0  0  0
  144.4970   72.8080  219.5960 C   0  0  0  0  0  0  0  0  0  0  0  0
  144.7000   74.1530  219.5330 N   0  0  0  0  0  0  0  0  0  0  0  0
  145.6380   74.5050  219.2320 H   0  0  0  0  0  0  0  0  0  0  0  0
  1  2  1  0
  2  3  2  0
  3  4  1  0
  4  5  1  0
  5  6  2  0
  5  7  1  0
  7  8  1  0
  7  9  1  0
  9 10  1  6
  9 11  1  0
 11 12  2  0
 12 13  1  0
 12 14  1  0
 14 15  1  0
 14 16  2  0
 16 17  1  0
 16 18  1  0
 18 19  1  0
 18 20  2  0
 20 21  1  0
  9 22  1  0
 22 23  1  0
 22 24  1  0
 22 25  1  0
  4 26  2  0
 26 27  1  0
 26 28  1  0
 28 29  1  0
 29 30  2  0
 29 31  1  0
 31 32  1  0
 32 33  1  0
 32 34  2  0
 34 35  1  0
 34 36  1  0
 36 37  1  0
 36 38  2  0
 38 39  1  0
 38 40  1  0
 40 41  2  0
 41 42  1  0
 42 43  1  0
 43 44  1  0
 43  3  1  0
 20 11  1  0
 42 28  2  0
 40 31  1  0
M  END
>  <UniqueID>  (4) 
31

>  <SMILES>  (4) 
[H]/N=c1/[nH]c2nc3ccccn3c(=O)c2cc1C(=O)N[C@@H](C)c1ccccc1

>  <Energy>  (4) 
65.80136345137069

>  <Genealogy>  (4) 
[H]/N=c1/[nH]c2nc3ccccn3c(=O)c2cc1C(=O)N[C@@H](C)c1ccccc1 (cis-trans isomerization)
[H]/N=c1/[nH]c2nc3ccccn3c(=O)c2cc1C(=O)N[C@@H](C)c1ccccc1 (3D coordinates assigned)
[H]/N=c1/[nH]c2nc3ccccn3c(=O)c2cc1C(=O)N[C@@H](C)c1ccccc1 (optimized conformer: 65.80136345137069 kcal/mol)

>  <smiles>  (4) 
C[C@H](NC(=O)c1cc2c(=O)n3ccccc3nc2[nH]c1=N)c1ccccc1

>  <score_type>  (4) 
oracle

>  <origin>  (4) 
autodockgpu

>  <m_score__min__energy>  (4) 
-8.1799999999999997

>  <m_primary>  (4) 
energy

>  <meeko>  (4) 
{"free_energy": -8.17, "intermolecular_energy": -9.37, "internal_energy": -0.77, "cluster_size": 16, "cluster_id": 1, "rank_in_cluster": 3}

>  <energy>  (4) 
-8.17

>  <cluster_rmsd>  (4) 
0.04

>  <rmsd>  (4) 
270.99

>  <cluster>  (4) 
1

$$$$
OOSPKVZPLIIQRF-ZMYHIABLNA-N
     RDKit          3D

 44 47  0  0  0  0  0  0  0  0999 V2000
  140.0440   73.7330  221.9620 H   0  0  0  0  0  0  0  0  0  0  0  0
  140.8160   74.2990  221.5470 N   0  0  0  0  0  0  0  0  0  0  0  0
  141.8520   73.8050  220.9380 C   0  0  0  0  0  0  0  0  0  0  0  0
  142.7370   74.6170  220.1820 C   0  0  0  0  0  0  0  0  0  0  0  0
  142.6200   76.0910  220.1190 C   0  0  0  0  0  0  0  0  0  0  0  0
  143.5360   76.7650  219.5760 O   0  0  0  0  0  0  0  0  0  0  0  0
  141.4440   76.7430  220.6300 N   0  0  0  0  0  0  0  0  0  0  0  0
  140.7260   76.1590  221.1170 H   0  0  0  0  0  0  0  0  0  0  0  0
  141.1660   78.1770  220.4900 C   0  0  2  0  0  0  0  0  0  0  0  0
  141.7562   78.5942  219.6608 H   0  0  0  0  0  0  0  0  0  0  0  0
  141.6260   78.9340  221.7250 C   0  0  0  0  0  0  0  0  0  0  0  0
  141.4240   78.3450  222.9870 C   0  0  0  0  0  0  0  0  0  0  0  0
  140.9669   77.3468  223.0555 H   0  0  0  0  0  0  0  0  0  0  0  0
  141.7990   79.0170  224.1550 C   0  0  0  0  0  0  0  0  0  0  0  0
  141.6427   78.5435  225.1355 H   0  0  0  0  0  0  0  0  0  0  0  0
  142.3710   80.2870  224.0780 C   0  0  0  0  0  0  0  0  0  0  0  0
  142.6685   80.8126  224.9974 H   0  0  0  0  0  0  0  0  0  0  0  0
  142.5660   80.8910  222.8350 C   0  0  0  0  0  0  0  0  0  0  0  0
  143.0144   81.8938  222.7767 H   0  0  0  0  0  0  0  0  0  0  0  0
  142.1930   80.2250  221.6640 C   0  0  0  0  0  0  0  0  0  0  0  0
  142.3424   80.7104  220.6883 H   0  0  0  0  0  0  0  0  0  0  0  0
  139.7020   78.4120  220.0910 C   0  0  0  0  0  0  0  0  0  0  0  0
  139.0863   78.5108  220.9972 H   0  0  0  0  0  0  0  0  0  0  0  0
  139.6278   79.3336  219.4950 H   0  0  0  0  0  0  0  0  0  0  0  0
  139.3431   77.5600  219.4950 H   0  0  0  0  0  0  0  0  0  0  0  0
  143.7910   74.0020  219.4920 C   0  0  0  0  0  0  0  0  0  0  0  0
  144.4767   74.6127  218.8863 H   0  0  0  0  0  0  0  0  0  0  0  0
  143.9780   72.6140  219.5680 C   0  0  0  0  0  0  0  0  0  0  0  0
  145.0240   71.9520  218.9000 C   0  0  0  0  0  0  0  0  0  0  0  0
  145.8340   72.6190  218.1950 O   0  0  0  0  0  0  0  0  0  0  0  0
  145.1610   70.5890  219.0160 N   0  0  0  0  0  0  0  0  0  0  0  0
  146.1780   69.9310  218.3690 C   0  0  0  0  0  0  0  0  0  0  0  0
  146.8890   70.5011  217.7531 H   0  0  0  0  0  0  0  0  0  0  0  0
  146.3200   68.5460  218.4840 C   0  0  0  0  0  0  0  0  0  0  0  0
  147.1380   68.0290  217.9610 H   0  0  0  0  0  0  0  0  0  0  0  0
  145.4220   67.8240  219.2630 C   0  0  0  0  0  0  0  0  0  0  0  0
  145.5264   66.7333  219.3603 H   0  0  0  0  0  0  0  0  0  0  0  0
  144.3900   68.4900  219.9190 C   0  0  0  0  0  0  0  0  0  0  0  0
  143.6737   67.9280  220.5363 H   0  0  0  0  0  0  0  0  0  0  0  0
  144.2690   69.8770  219.7890 C   0  0  0  0  0  0  0  0  0  0  0  0
  143.2570   70.5130  220.4350 N   0  0  0  0  0  0  0  0  0  0  0  0
  143.0920   71.8550  220.3450 C   0  0  0  0  0  0  0  0  0  0  0  0
  142.0650   72.4580  221.0040 N   0  0  0  0  0  0  0  0  0  0  0  0
  141.4120   71.8660  221.5660 H   0  0  0  0  0  0  0  0  0  0  0  0
  1  2  1  0
  2  3  2  0
  3  4  1  0
  4  5  1  0
  5  6  2  0
  5  7  1  0
  7  8  1  0
  7  9  1  0
  9 10  1  6
  9 11  1  0
 11 12  2  0
 12 13  1  0
 12 14  1  0
 14 15  1  0
 14 16  2  0
 16 17  1  0
 16 18  1  0
 18 19  1  0
 18 20  2  0
 20 21  1  0
  9 22  1  0
 22 23  1  0
 22 24  1  0
 22 25  1  0
  4 26  2  0
 26 27  1  0
 26 28  1  0
 28 29  1  0
 29 30  2  0
 29 31  1  0
 31 32  1  0
 32 33  1  0
 32 34  2  0
 34 35  1  0
 34 36  1  0
 36 37  1  0
 36 38  2  0
 38 39  1  0
 38 40  1  0
 40 41  2  0
 41 42  1  0
 42 43  1  0
 43 44  1  0
 43  3  1  0
 20 11  1  0
 42 28  2  0
 40 31  1  0
M  END
>  <UniqueID>  (5) 
31

>  <SMILES>  (5) 
[H]/N=c1/[nH]c2nc3ccccn3c(=O)c2cc1C(=O)N[C@@H](C)c1ccccc1

>  <Energy>  (5) 
65.80136345137069

>  <Genealogy>  (5) 
[H]/N=c1/[nH]c2nc3ccccn3c(=O)c2cc1C(=O)N[C@@H](C)c1ccccc1 (cis-trans isomerization)
[H]/N=c1/[nH]c2nc3ccccn3c(=O)c2cc1C(=O)N[C@@H](C)c1ccccc1 (3D coordinates assigned)
[H]/N=c1/[nH]c2nc3ccccn3c(=O)c2cc1C(=O)N[C@@H](C)c1ccccc1 (optimized conformer: 65.80136345137069 kcal/mol)

>  <smiles>  (5) 
C[C@H](NC(=O)c1cc2c(=O)n3ccccc3nc2[nH]c1=N)c1ccccc1

>  <score_type>  (5) 
oracle

>  <origin>  (5) 
autodockgpu

>  <m_score__min__energy>  (5) 
-8.1799999999999997

>  <m_primary>  (5) 
energy

>  <meeko>  (5) 
{"free_energy": -7.08, "intermolecular_energy": -8.27, "internal_energy": -0.9, "cluster_size": 2, "cluster_id": 3, "rank_in_cluster": 1}

>  <energy>  (5) 
-8.17

>  <cluster_rmsd>  (5) 
0.05

>  <rmsd>  (5) 
271.0

>  <cluster>  (5) 
1

$$$$
OOSPKVZPLIIQRF-ZMYHIABLNA-N
     RDKit          3D

 44 47  0  0  0  0  0  0  0  0999 V2000
  138.8710   71.4260  219.9390 H   0  0  0  0  0  0  0  0  0  0  0  0
  138.7090   70.7720  220.7350 N   0  0  0  0  0  0  0  0  0  0  0  0
  139.1690   70.9430  221.9390 C   0  0  0  0  0  0  0  0  0  0  0  0
  139.7240   72.1790  222.3620 C   0  0  0  0  0  0  0  0  0  0  0  0
  139.7220   73.3930  221.5160 C   0  0  0  0  0  0  0  0  0  0  0  0
  139.9410   73.2900  220.2800 O   0  0  0  0  0  0  0  0  0  0  0  0
  139.4230   74.6750  222.0970 N   0  0  0  0  0  0  0  0  0  0  0  0
  139.2940   74.7320  223.1320 H   0  0  0  0  0  0  0  0  0  0  0  0
  139.2570   75.9130  221.3260 C   0  0  2  0  0  0  0  0  0  0  0  0
  139.9209   75.9002  220.4490 H   0  0  0  0  0  0  0  0  0  0  0  0
  139.7010   77.1160  222.1440 C   0  0  0  0  0  0  0  0  0  0  0  0
  141.0660   77.2440  222.4600 C   0  0  0  0  0  0  0  0  0  0  0  0
  141.7834   76.4961  222.0913 H   0  0  0  0  0  0  0  0  0  0  0  0
  141.5190   78.3140  223.2390 C   0  0  0  0  0  0  0  0  0  0  0  0
  142.5895   78.4080  223.4738 H   0  0  0  0  0  0  0  0  0  0  0  0
  140.6140   79.2630  223.7190 C   0  0  0  0  0  0  0  0  0  0  0  0
  140.9724   80.1060  224.3281 H   0  0  0  0  0  0  0  0  0  0  0  0
  139.2550   79.1420  223.4260 C   0  0  0  0  0  0  0  0  0  0  0  0
  138.5429   79.8884  223.8078 H   0  0  0  0  0  0  0  0  0  0  0  0
  138.7960   78.0740  222.6480 C   0  0  0  0  0  0  0  0  0  0  0  0
  137.7224   77.9804  222.4276 H   0  0  0  0  0  0  0  0  0  0  0  0
  137.8380   76.0090  220.7460 C   0  0  0  0  0  0  0  0  0  0  0  0
  137.1085   76.0584  221.5679 H   0  0  0  0  0  0  0  0  0  0  0  0
  137.7552   76.9148  220.1274 H   0  0  0  0  0  0  0  0  0  0  0  0
  137.6340   75.1226  220.1274 H   0  0  0  0  0  0  0  0  0  0  0  0
  140.2670   72.2650  223.6520 C   0  0  0  0  0  0  0  0  0  0  0  0
  140.7171   73.2092  223.9925 H   0  0  0  0  0  0  0  0  0  0  0  0
  140.2410   71.1580  224.5110 C   0  0  0  0  0  0  0  0  0  0  0  0
  140.7670   71.1970  225.8160 C   0  0  0  0  0  0  0  0  0  0  0  0
  141.2910   72.2650  226.2430 O   0  0  0  0  0  0  0  0  0  0  0  0
  140.7070   70.0820  226.6160 N   0  0  0  0  0  0  0  0  0  0  0  0
  141.2160   70.1070  227.8910 C   0  0  0  0  0  0  0  0  0  0  0  0
  141.6743   71.0303  228.2749 H   0  0  0  0  0  0  0  0  0  0  0  0
  141.1590   68.9740  228.7070 C   0  0  0  0  0  0  0  0  0  0  0  0
  141.5713   69.0051  229.7263 H   0  0  0  0  0  0  0  0  0  0  0  0
  140.5780   67.8070  228.2230 C   0  0  0  0  0  0  0  0  0  0  0  0
  140.5269   66.9106  228.8586 H   0  0  0  0  0  0  0  0  0  0  0  0
  140.0610   67.7780  226.9300 C   0  0  0  0  0  0  0  0  0  0  0  0
  139.6007   66.8589  226.5383 H   0  0  0  0  0  0  0  0  0  0  0  0
  140.1310   68.9250  226.1330 C   0  0  0  0  0  0  0  0  0  0  0  0
  139.6230   68.8840  224.8740 N   0  0  0  0  0  0  0  0  0  0  0  0
  139.6620   69.9640  224.0580 C   0  0  0  0  0  0  0  0  0  0  0  0
  139.1450   69.8850  222.8010 N   0  0  0  0  0  0  0  0  0  0  0  0
  138.7310   68.9790  222.4840 H   0  0  0  0  0  0  0  0  0  0  0  0
  1  2  1  0
  2  3  2  0
  3  4  1  0
  4  5  1  0
  5  6  2  0
  5  7  1  0
  7  8  1  0
  7  9  1  0
  9 10  1  6
  9 11  1  0
 11 12  2  0
 12 13  1  0
 12 14  1  0
 14 15  1  0
 14 16  2  0
 16 17  1  0
 16 18  1  0
 18 19  1  0
 18 20  2  0
 20 21  1  0
  9 22  1  0
 22 23  1  0
 22 24  1  0
 22 25  1  0
  4 26  2  0
 26 27  1  0
 26 28  1  0
 28 29  1  0
 29 30  2  0
 29 31  1  0
 31 32  1  0
 32 33  1  0
 32 34  2  0
 34 35  1  0
 34 36  1  0
 36 37  1  0
 36 38  2  0
 38 39  1  0
 38 40  1  0
 40 41  2  0
 41 42  1  0
 42 43  1  0
 43 44  1  0
 43  3  1  0
 20 11  1  0
 42 28  2  0
 40 31  1  0
M  END
>  <UniqueID>  (6) 
31

>  <SMILES>  (6) 
[H]/N=c1/[nH]c2nc3ccccn3c(=O)c2cc1C(=O)N[C@@H](C)c1ccccc1

>  <Energy>  (6) 
65.80136345137069

>  <Genealogy>  (6) 
[H]/N=c1/[nH]c2nc3ccccn3c(=O)c2cc1C(=O)N[C@@H](C)c1ccccc1 (cis-trans isomerization)
[H]/N=c1/[nH]c2nc3ccccn3c(=O)c2cc1C(=O)N[C@@H](C)c1ccccc1 (3D coordinates assigned)
[H]/N=c1/[nH]c2nc3ccccn3c(=O)c2cc1C(=O)N[C@@H](C)c1ccccc1 (optimized conformer: 65.80136345137069 kcal/mol)

>  <smiles>  (6) 
C[C@H](NC(=O)c1cc2c(=O)n3ccccc3nc2[nH]c1=N)c1ccccc1

>  <score_type>  (6) 
oracle

>  <origin>  (6) 
autodockgpu

>  <m_score__min__energy>  (6) 
-8.1799999999999997

>  <m_primary>  (6) 
energy

>  <meeko>  (6) 
{"free_energy": -7.43, "intermolecular_energy": -8.62, "internal_energy": -0.92, "cluster_size": 1, "cluster_id": 2, "rank_in_cluster": 1}

>  <energy>  (6) 
-8.17

>  <cluster_rmsd>  (6) 
0.07

>  <rmsd>  (6) 
271.02

>  <cluster>  (6) 
1

$$$$
OOSPKVZPLIIQRF-ZMYHIABLNA-N
     RDKit          3D

 44 47  0  0  0  0  0  0  0  0999 V2000
  144.1080   76.9260  220.7600 H   0  0  0  0  0  0  0  0  0  0  0  0
  144.0460   76.3270  219.9080 N   0  0  0  0  0  0  0  0  0  0  0  0
  143.7460   75.0620  219.9130 C   0  0  0  0  0  0  0  0  0  0  0  0
  142.4580   74.5970  220.2850 C   0  0  0  0  0  0  0  0  0  0  0  0
  141.3300   75.5070  220.5860 C   0  0  0  0  0  0  0  0  0  0  0  0
  140.1500   75.1340  220.3480 O   0  0  0  0  0  0  0  0  0  0  0  0
  141.5790   76.7880  221.1910 N   0  0  0  0  0  0  0  0  0  0  0  0
  142.5720   77.0860  221.3300 H   0  0  0  0  0  0  0  0  0  0  0  0
  140.5290   77.7010  221.6570 C   0  0  2  0  0  0  0  0  0  0  0  0
  140.0231   78.1607  220.7952 H   0  0  0  0  0  0  0  0  0  0  0  0
  141.1340   78.8630  222.4290 C   0  0  0  0  0  0  0  0  0  0  0  0
  140.2710   79.7220  223.1320 C   0  0  0  0  0  0  0  0  0  0  0  0
  139.1888   79.5247  223.1339 H   0  0  0  0  0  0  0  0  0  0  0  0
  140.7750   80.8250  223.8290 C   0  0  0  0  0  0  0  0  0  0  0  0
  140.0904   81.4859  224.3808 H   0  0  0  0  0  0  0  0  0  0  0  0
  142.1460   81.0880  223.8250 C   0  0  0  0  0  0  0  0  0  0  0  0
  142.5415   81.9535  224.3768 H   0  0  0  0  0  0  0  0  0  0  0  0
  143.0150   80.2530  223.1210 C   0  0  0  0  0  0  0  0  0  0  0  0
  144.0946   80.4636  223.1159 H   0  0  0  0  0  0  0  0  0  0  0  0
  142.5160   79.1490  222.4220 C   0  0  0  0  0  0  0  0  0  0  0  0
  143.2055   78.4993  221.8630 H   0  0  0  0  0  0  0  0  0  0  0  0
  139.4260   76.9320  222.3980 C   0  0  0  0  0  0  0  0  0  0  0  0
  139.5732   77.0346  223.4833 H   0  0  0  0  0  0  0  0  0  0  0  0
  138.4436   77.3420  222.1208 H   0  0  0  0  0  0  0  0  0  0  0  0
  139.4709   75.8684  222.1208 H   0  0  0  0  0  0  0  0  0  0  0  0
  142.2320   73.2140  220.3380 C   0  0  0  0  0  0  0  0  0  0  0  0
  141.2459   72.8334  220.6425 H   0  0  0  0  0  0  0  0  0  0  0  0
  143.2530   72.3130  220.0060 C   0  0  0  0  0  0  0  0  0  0  0  0
  143.0730   70.9170  220.0370 C   0  0  0  0  0  0  0  0  0  0  0  0
  141.9520   70.4420  220.3790 O   0  0  0  0  0  0  0  0  0  0  0  0
  144.1080   70.0820  219.6960 N   0  0  0  0  0  0  0  0  0  0  0  0
  143.9460   68.7180  219.7210 C   0  0  0  0  0  0  0  0  0  0  0  0
  142.9760   68.2917  220.0165 H   0  0  0  0  0  0  0  0  0  0  0  0
  144.9970   67.8660  219.3760 C   0  0  0  0  0  0  0  0  0  0  0  0
  144.8555   66.7754  219.4014 H   0  0  0  0  0  0  0  0  0  0  0  0
  146.2240   68.4030  219.0000 C   0  0  0  0  0  0  0  0  0  0  0  0
  147.0570   67.7394  218.7247 H   0  0  0  0  0  0  0  0  0  0  0  0
  146.3920   69.7850  218.9740 C   0  0  0  0  0  0  0  0  0  0  0  0
  147.3589   70.2193  218.6799 H   0  0  0  0  0  0  0  0  0  0  0  0
  145.3240   70.6180  219.3240 C   0  0  0  0  0  0  0  0  0  0  0  0
  145.5010   71.9640  219.2940 N   0  0  0  0  0  0  0  0  0  0  0  0
  144.5020   72.8180  219.6220 C   0  0  0  0  0  0  0  0  0  0  0  0
  144.7170   74.1620  219.5840 N   0  0  0  0  0  0  0  0  0  0  0  0
  145.6630   74.5110  219.3060 H   0  0  0  0  0  0  0  0  0  0  0  0
  1  2  1  0
  2  3  2  0
  3  4  1  0
  4  5  1  0
  5  6  2  0
  5  7  1  0
  7  8  1  0
  7  9  1  0
  9 10  1  6
  9 11  1  0
 11 12  2  0
 12 13  1  0
 12 14  1  0
 14 15  1  0
 14 16  2  0
 16 17  1  0
 16 18  1  0
 18 19  1  0
 18 20  2  0
 20 21  1  0
  9 22  1  0
 22 23  1  0
 22 24  1  0
 22 25  1  0
  4 26  2  0
 26 27  1  0
 26 28  1  0
 28 29  1  0
 29 30  2  0
 29 31  1  0
 31 32  1  0
 32 33  1  0
 32 34  2  0
 34 35  1  0
 34 36  1  0
 36 37  1  0
 36 38  2  0
 38 39  1  0
 38 40  1  0
 40 41  2  0
 41 42  1  0
 42 43  1  0
 43 44  1  0
 43  3  1  0
 20 11  1  0
 42 28  2  0
 40 31  1  0
M  END
>  <UniqueID>  (7) 
31

>  <SMILES>  (7) 
[H]/N=c1/[nH]c2nc3ccccn3c(=O)c2cc1C(=O)N[C@@H](C)c1ccccc1

>  <Energy>  (7) 
65.80136345137069

>  <Genealogy>  (7) 
[H]/N=c1/[nH]c2nc3ccccn3c(=O)c2cc1C(=O)N[C@@H](C)c1ccccc1 (cis-trans isomerization)
[H]/N=c1/[nH]c2nc3ccccn3c(=O)c2cc1C(=O)N[C@@H](C)c1ccccc1 (3D coordinates assigned)
[H]/N=c1/[nH]c2nc3ccccn3c(=O)c2cc1C(=O)N[C@@H](C)c1ccccc1 (optimized conformer: 65.80136345137069 kcal/mol)

>  <smiles>  (7) 
C[C@H](NC(=O)c1cc2c(=O)n3ccccc3nc2[nH]c1=N)c1ccccc1

>  <score_type>  (7) 
oracle

>  <origin>  (7) 
autodockgpu

>  <m_score__min__energy>  (7) 
-8.1799999999999997

>  <m_primary>  (7) 
energy

>  <meeko>  (7) 
{"free_energy": -8.18, "intermolecular_energy": -9.37, "internal_energy": -0.77, "cluster_size": 16, "cluster_id": 1, "rank_in_cluster": 2}

>  <energy>  (7) 
-8.16

>  <cluster_rmsd>  (7) 
0.07

>  <rmsd>  (7) 
270.99

>  <cluster>  (7) 
1

$$$$
OOSPKVZPLIIQRF-ZMYHIABLNA-N
     RDKit          3D

 44 47  0  0  0  0  0  0  0  0999 V2000
  144.1350   76.9290  220.6260 H   0  0  0  0  0  0  0  0  0  0  0  0
  144.0740   76.3080  219.7900 N   0  0  0  0  0  0  0  0  0  0  0  0
  143.7870   75.0410  219.8280 C   0  0  0  0  0  0  0  0  0  0  0  0
  142.5090   74.5720  220.2300 C   0  0  0  0  0  0  0  0  0  0  0  0
  141.3770   75.4780  220.5260 C   0  0  0  0  0  0  0  0  0  0  0  0
  140.1960   75.0820  220.3320 O   0  0  0  0  0  0  0  0  0  0  0  0
  141.6240   76.7840  221.0770 N   0  0  0  0  0  0  0  0  0  0  0  0
  142.6150   77.0990  221.1790 H   0  0  0  0  0  0  0  0  0  0  0  0
  140.5730   77.7000  221.5360 C   0  0  2  0  0  0  0  0  0  0  0  0
  140.0401   78.1221  220.6712 H   0  0  0  0  0  0  0  0  0  0  0  0
  141.1810   78.8960  222.2510 C   0  0  0  0  0  0  0  0  0  0  0  0
  141.2360   80.1260  221.5720 C   0  0  0  0  0  0  0  0  0  0  0  0
  140.8187   80.2072  220.5575 H   0  0  0  0  0  0  0  0  0  0  0  0
  141.8160   81.2470  222.1740 C   0  0  0  0  0  0  0  0  0  0  0  0
  141.8459   82.2058  221.6356 H   0  0  0  0  0  0  0  0  0  0  0  0
  142.3570   81.1510  223.4570 C   0  0  0  0  0  0  0  0  0  0  0  0
  142.8101   82.0345  223.9305 H   0  0  0  0  0  0  0  0  0  0  0  0
  142.3230   79.9340  224.1390 C   0  0  0  0  0  0  0  0  0  0  0  0
  142.7527   79.8590  225.1488 H   0  0  0  0  0  0  0  0  0  0  0  0
  141.7440   78.8090  223.5420 C   0  0  0  0  0  0  0  0  0  0  0  0
  141.7275   77.8509  224.0822 H   0  0  0  0  0  0  0  0  0  0  0  0
  139.4980   76.9440  222.3310 C   0  0  0  0  0  0  0  0  0  0  0  0
  139.6805   77.0723  223.4081 H   0  0  0  0  0  0  0  0  0  0  0  0
  138.5052   77.3438  222.0771 H   0  0  0  0  0  0  0  0  0  0  0  0
  139.5385   75.8745  222.0771 H   0  0  0  0  0  0  0  0  0  0  0  0
  142.2970   73.1890  220.3180 C   0  0  0  0  0  0  0  0  0  0  0  0
  141.3190   72.8064  220.6453 H   0  0  0  0  0  0  0  0  0  0  0  0
  143.3220   72.2900  219.9920 C   0  0  0  0  0  0  0  0  0  0  0  0
  143.1570   70.8940  220.0580 C   0  0  0  0  0  0  0  0  0  0  0  0
  142.0460   70.4160  220.4270 O   0  0  0  0  0  0  0  0  0  0  0  0
  144.1960   70.0610  219.7200 N   0  0  0  0  0  0  0  0  0  0  0  0
  144.0470   68.6970  219.7800 C   0  0  0  0  0  0  0  0  0  0  0  0
  143.0860   68.2689  220.1013 H   0  0  0  0  0  0  0  0  0  0  0  0
  145.1010   67.8470  219.4380 C   0  0  0  0  0  0  0  0  0  0  0  0
  144.9701   66.7560  219.4887 H   0  0  0  0  0  0  0  0  0  0  0  0
  146.3170   68.3870  219.0330 C   0  0  0  0  0  0  0  0  0  0  0  0
  147.1528   67.7253  218.7615 H   0  0  0  0  0  0  0  0  0  0  0  0
  146.4710   69.7700  218.9730 C   0  0  0  0  0  0  0  0  0  0  0  0
  147.4293   70.2067  218.6554 H   0  0  0  0  0  0  0  0  0  0  0  0
  145.4000   70.6000  219.3190 C   0  0  0  0  0  0  0  0  0  0  0  0
  145.5640   71.9460  219.2550 N   0  0  0  0  0  0  0  0  0  0  0  0
  144.5620   72.7980  219.5780 C   0  0  0  0  0  0  0  0  0  0  0  0
  144.7630   74.1430  219.5050 N   0  0  0  0  0  0  0  0  0  0  0  0
  145.7010   74.4950  219.2060 H   0  0  0  0  0  0  0  0  0  0  0  0
  1  2  1  0
  2  3  2  0
  3  4  1  0
  4  5  1  0
  5  6  2  0
  5  7  1  0
  7  8  1  0
  7  9  1  0
  9 10  1  6
  9 11  1  0
 11 12  2  0
 12 13  1  0
 12 14  1  0
 14 15  1  0
 14 16  2  0
 16 17  1  0
 16 18  1  0
 18 19  1  0
 18 20  2  0
 20 21  1  0
  9 22  1  0
 22 23  1  0
 22 24  1  0
 22 25  1  0
  4 26  2  0
 26 27  1  0
 26 28  1  0
 28 29  1  0
 29 30  2  0
 29 31  1  0
 31 32  1  0
 32 33  1  0
 32 34  2  0
 34 35  1  0
 34 36  1  0
 36 37  1  0
 36 38  2  0
 38 39  1  0
 38 40  1  0
 40 41  2  0
 41 42  1  0
 42 43  1  0
 43 44  1  0
 43  3  1  0
 20 11  1  0
 42 28  2  0
 40 31  1  0
M  END
>  <UniqueID>  (8) 
31

>  <SMILES>  (8) 
[H]/N=c1/[nH]c2nc3ccccn3c(=O)c2cc1C(=O)N[C@@H](C)c1ccccc1

>  <Energy>  (8) 
65.80136345137069

>  <Genealogy>  (8) 
[H]/N=c1/[nH]c2nc3ccccn3c(=O)c2cc1C(=O)N[C@@H](C)c1ccccc1 (cis-trans isomerization)
[H]/N=c1/[nH]c2nc3ccccn3c(=O)c2cc1C(=O)N[C@@H](C)c1ccccc1 (3D coordinates assigned)
[H]/N=c1/[nH]c2nc3ccccn3c(=O)c2cc1C(=O)N[C@@H](C)c1ccccc1 (optimized conformer: 65.80136345137069 kcal/mol)

>  <smiles>  (8) 
C[C@H](NC(=O)c1cc2c(=O)n3ccccc3nc2[nH]c1=N)c1ccccc1

>  <score_type>  (8) 
oracle

>  <origin>  (8) 
autodockgpu

>  <m_score__min__energy>  (8) 
-8.1799999999999997

>  <m_primary>  (8) 
energy

>  <meeko>  (8) 
{"free_energy": -8.14, "intermolecular_energy": -9.33, "internal_energy": -0.77, "cluster_size": 16, "cluster_id": 1, "rank_in_cluster": 8}

>  <energy>  (8) 
-8.14

>  <cluster_rmsd>  (8) 
0.54

>  <rmsd>  (8) 
270.97

>  <cluster>  (8) 
1

$$$$
OOSPKVZPLIIQRF-ZMYHIABLNA-N
     RDKit          3D

 44 47  0  0  0  0  0  0  0  0999 V2000
  144.4290   76.8540  220.6650 H   0  0  0  0  0  0  0  0  0  0  0  0
  144.0440   76.3210  219.8560 N   0  0  0  0  0  0  0  0  0  0  0  0
  143.7530   75.0550  219.8730 C   0  0  0  0  0  0  0  0  0  0  0  0
  142.4720   74.5840  220.2620 C   0  0  0  0  0  0  0  0  0  0  0  0
  141.3410   75.4880  220.5660 C   0  0  0  0  0  0  0  0  0  0  0  0
  140.1610   75.1040  220.3470 O   0  0  0  0  0  0  0  0  0  0  0  0
  141.5870   76.7770  221.1540 N   0  0  0  0  0  0  0  0  0  0  0  0
  142.5790   77.0840  221.2780 H   0  0  0  0  0  0  0  0  0  0  0  0
  140.5360   77.6880  221.6220 C   0  0  2  0  0  0  0  0  0  0  0  0
  140.0315   78.1512  220.7613 H   0  0  0  0  0  0  0  0  0  0  0  0
  141.1390   78.8470  222.4000 C   0  0  0  0  0  0  0  0  0  0  0  0
  140.2740   79.6970  223.1140 C   0  0  0  0  0  0  0  0  0  0  0  0
  139.1928   79.4947  223.1194 H   0  0  0  0  0  0  0  0  0  0  0  0
  140.7770   80.7970  223.8170 C   0  0  0  0  0  0  0  0  0  0  0  0
  140.0922   81.4501  224.3778 H   0  0  0  0  0  0  0  0  0  0  0  0
  142.1460   81.0670  223.8080 C   0  0  0  0  0  0  0  0  0  0  0  0
  142.5399   81.9305  224.3641 H   0  0  0  0  0  0  0  0  0  0  0  0
  143.0160   80.2410  223.0930 C   0  0  0  0  0  0  0  0  0  0  0  0
  144.0946   80.4568  223.0843 H   0  0  0  0  0  0  0  0  0  0  0  0
  142.5190   79.1400  222.3880 C   0  0  0  0  0  0  0  0  0  0  0  0
  143.2088   78.4982  221.8203 H   0  0  0  0  0  0  0  0  0  0  0  0
  139.4330   76.9150  222.3590 C   0  0  0  0  0  0  0  0  0  0  0  0
  139.5773   77.0161  223.4448 H   0  0  0  0  0  0  0  0  0  0  0  0
  138.4503   77.3230  222.0801 H   0  0  0  0  0  0  0  0  0  0  0  0
  139.4812   75.8520  222.0801 H   0  0  0  0  0  0  0  0  0  0  0  0
  142.2550   73.2000  220.3280 C   0  0  0  0  0  0  0  0  0  0  0  0
  141.2741   72.8156  220.6442 H   0  0  0  0  0  0  0  0  0  0  0  0
  143.2790   72.3030  219.9940 C   0  0  0  0  0  0  0  0  0  0  0  0
  143.1090   70.9060  220.0370 C   0  0  0  0  0  0  0  0  0  0  0  0
  141.9960   70.4260  220.3940 O   0  0  0  0  0  0  0  0  0  0  0  0
  144.1470   70.0750  219.6920 N   0  0  0  0  0  0  0  0  0  0  0  0
  143.9940   68.7110  219.7300 C   0  0  0  0  0  0  0  0  0  0  0  0
  143.0299   68.2808  220.0389 H   0  0  0  0  0  0  0  0  0  0  0  0
  145.0480   67.8630  219.3810 C   0  0  0  0  0  0  0  0  0  0  0  0
  144.9141   66.7717  219.4151 H   0  0  0  0  0  0  0  0  0  0  0  0
  146.2680   68.4060  218.9900 C   0  0  0  0  0  0  0  0  0  0  0  0
  147.1034   67.7461  218.7131 H   0  0  0  0  0  0  0  0  0  0  0  0
  146.4260   69.7880  218.9510 C   0  0  0  0  0  0  0  0  0  0  0  0
  147.3868   70.2266  218.6436 H   0  0  0  0  0  0  0  0  0  0  0  0
  145.3560   70.6160  219.3050 C   0  0  0  0  0  0  0  0  0  0  0  0
  145.5230   71.9630  219.2630 N   0  0  0  0  0  0  0  0  0  0  0  0
  144.5220   72.8130  219.5930 C   0  0  0  0  0  0  0  0  0  0  0  0
  144.7270   74.1580  219.5420 N   0  0  0  0  0  0  0  0  0  0  0  0
  145.6680   74.5120  219.2520 H   0  0  0  0  0  0  0  0  0  0  0  0
  1  2  1  0
  2  3  2  0
  3  4  1  0
  4  5  1  0
  5  6  2  0
  5  7  1  0
  7  8  1  0
  7  9  1  0
  9 10  1  6
  9 11  1  0
 11 12  2  0
 12 13  1  0
 12 14  1  0
 14 15  1  0
 14 16  2  0
 16 17  1  0
 16 18  1  0
 18 19  1  0
 18 20  2  0
 20 21  1  0
  9 22  1  0
 22 23  1  0
 22 24  1  0
 22 25  1  0
  4 26  2  0
 26 27  1  0
 26 28  1  0
 28 29  1  0
 29 30  2  0
 29 31  1  0
 31 32  1  0
 32 33  1  0
 32 34  2  0
 34 35  1  0
 34 36  1  0
 36 37  1  0
 36 38  2  0
 38 39  1  0
 38 40  1  0
 40 41  2  0
 41 42  1  0
 42 43  1  0
 43 44  1  0
 43  3  1  0
 20 11  1  0
 42 28  2  0
 40 31  1  0
M  END
>  <UniqueID>  (9) 
31

>  <SMILES>  (9) 
[H]/N=c1/[nH]c2nc3ccccn3c(=O)c2cc1C(=O)N[C@@H](C)c1ccccc1

>  <Energy>  (9) 
65.80136345137069

>  <Genealogy>  (9) 
[H]/N=c1/[nH]c2nc3ccccn3c(=O)c2cc1C(=O)N[C@@H](C)c1ccccc1 (cis-trans isomerization)
[H]/N=c1/[nH]c2nc3ccccn3c(=O)c2cc1C(=O)N[C@@H](C)c1ccccc1 (3D coordinates assigned)
[H]/N=c1/[nH]c2nc3ccccn3c(=O)c2cc1C(=O)N[C@@H](C)c1ccccc1 (optimized conformer: 65.80136345137069 kcal/mol)

>  <smiles>  (9) 
C[C@H](NC(=O)c1cc2c(=O)n3ccccc3nc2[nH]c1=N)c1ccccc1

>  <score_type>  (9) 
oracle

>  <origin>  (9) 
autodockgpu

>  <m_score__min__energy>  (9) 
-8.1799999999999997

>  <m_primary>  (9) 
energy

>  <meeko>  (9) 
{"free_energy": -8.16, "intermolecular_energy": -9.36, "internal_energy": -0.78, "cluster_size": 16, "cluster_id": 1, "rank_in_cluster": 7}

>  <energy>  (9) 
-8.14

>  <cluster_rmsd>  (9) 
0.54

>  <rmsd>  (9) 
270.95

>  <cluster>  (9) 
1

$$$$
OOSPKVZPLIIQRF-ZMYHIABLNA-N
     RDKit          3D

 44 47  0  0  0  0  0  0  0  0999 V2000
  144.4450   76.8530  220.5560 H   0  0  0  0  0  0  0  0  0  0  0  0
  144.0730   76.2980  219.7550 N   0  0  0  0  0  0  0  0  0  0  0  0
  143.7890   75.0310  219.8010 C   0  0  0  0  0  0  0  0  0  0  0  0
  142.5140   74.5610  220.2130 C   0  0  0  0  0  0  0  0  0  0  0  0
  141.3820   75.4660  220.5120 C   0  0  0  0  0  0  0  0  0  0  0  0
  140.2010   75.0680  220.3240 O   0  0  0  0  0  0  0  0  0  0  0  0
  141.6300   76.7730  221.0600 N   0  0  0  0  0  0  0  0  0  0  0  0
  142.6210   77.0900  221.1570 H   0  0  0  0  0  0  0  0  0  0  0  0
  140.5800   77.6890  221.5210 C   0  0  2  0  0  0  0  0  0  0  0  0
  140.0244   78.0865  220.6589 H   0  0  0  0  0  0  0  0  0  0  0  0
  141.1920   78.9070  222.1970 C   0  0  0  0  0  0  0  0  0  0  0  0
  141.6870   78.7680  223.5060 C   0  0  0  0  0  0  0  0  0  0  0  0
  141.6484   77.7869  224.0020 H   0  0  0  0  0  0  0  0  0  0  0  0
  142.2280   79.8660  224.1830 C   0  0  0  0  0  0  0  0  0  0  0  0
  142.6193   79.7436  225.2037 H   0  0  0  0  0  0  0  0  0  0  0  0
  142.2720   81.1170  223.5650 C   0  0  0  0  0  0  0  0  0  0  0  0
  142.7012   81.9788  224.0972 H   0  0  0  0  0  0  0  0  0  0  0  0
  141.7710   81.2740  222.2710 C   0  0  0  0  0  0  0  0  0  0  0  0
  141.8018   82.2612  221.7868 H   0  0  0  0  0  0  0  0  0  0  0  0
  141.2300   80.1790  221.5890 C   0  0  0  0  0  0  0  0  0  0  0  0
  140.8317   80.3109  220.5722 H   0  0  0  0  0  0  0  0  0  0  0  0
  139.5310   76.9410  222.3560 C   0  0  0  0  0  0  0  0  0  0  0  0
  139.7397   77.0898  223.4257 H   0  0  0  0  0  0  0  0  0  0  0  0
  138.5294   77.3299  222.1203 H   0  0  0  0  0  0  0  0  0  0  0  0
  139.5723   75.8673  222.1203 H   0  0  0  0  0  0  0  0  0  0  0  0
  142.3060   73.1780  220.3080 C   0  0  0  0  0  0  0  0  0  0  0  0
  141.3310   72.7949  220.6436 H   0  0  0  0  0  0  0  0  0  0  0  0
  143.3300   72.2790  219.9790 C   0  0  0  0  0  0  0  0  0  0  0  0
  143.1670   70.8840  220.0520 C   0  0  0  0  0  0  0  0  0  0  0  0
  142.0600   70.4050  220.4310 O   0  0  0  0  0  0  0  0  0  0  0  0
  144.2050   70.0510  219.7120 N   0  0  0  0  0  0  0  0  0  0  0  0
  144.0590   68.6860  219.7780 C   0  0  0  0  0  0  0  0  0  0  0  0
  143.1005   68.2572  220.1057 H   0  0  0  0  0  0  0  0  0  0  0  0
  145.1130   67.8370  219.4340 C   0  0  0  0  0  0  0  0  0  0  0  0
  144.9852   66.7460  219.4915 H   0  0  0  0  0  0  0  0  0  0  0  0
  146.3260   68.3780  219.0180 C   0  0  0  0  0  0  0  0  0  0  0  0
  147.1611   67.7167  218.7436 H   0  0  0  0  0  0  0  0  0  0  0  0
  146.4770   69.7600  218.9510 C   0  0  0  0  0  0  0  0  0  0  0  0
  147.4326   70.1969  218.6254 H   0  0  0  0  0  0  0  0  0  0  0  0
  145.4070   70.5900  219.3000 C   0  0  0  0  0  0  0  0  0  0  0  0
  145.5670   71.9370  219.2300 N   0  0  0  0  0  0  0  0  0  0  0  0
  144.5660   72.7880  219.5560 C   0  0  0  0  0  0  0  0  0  0  0  0
  144.7640   74.1330  219.4760 N   0  0  0  0  0  0  0  0  0  0  0  0
  145.6990   74.4850  219.1690 H   0  0  0  0  0  0  0  0  0  0  0  0
  1  2  1  0
  2  3  2  0
  3  4  1  0
  4  5  1  0
  5  6  2  0
  5  7  1  0
  7  8  1  0
  7  9  1  0
  9 10  1  6
  9 11  1  0
 11 12  2  0
 12 13  1  0
 12 14  1  0
 14 15  1  0
 14 16  2  0
 16 17  1  0
 16 18  1  0
 18 19  1  0
 18 20  2  0
 20 21  1  0
  9 22  1  0
 22 23  1  0
 22 24  1  0
 22 25  1  0
  4 26  2  0
 26 27  1  0
 26 28  1  0
 28 29  1  0
 29 30  2  0
 29 31  1  0
 31 32  1  0
 32 33  1  0
 32 34  2  0
 34 35  1  0
 34 36  1  0
 36 37  1  0
 36 38  2  0
 38 39  1  0
 38 40  1  0
 40 41  2  0
 41 42  1  0
 42 43  1  0
 43 44  1  0
 43  3  1  0
 20 11  1  0
 42 28  2  0
 40 31  1  0
M  END
>  <UniqueID>  (10) 
31

>  <SMILES>  (10) 
[H]/N=c1/[nH]c2nc3ccccn3c(=O)c2cc1C(=O)N[C@@H](C)c1ccccc1

>  <Energy>  (10) 
65.80136345137069

>  <Genealogy>  (10) 
[H]/N=c1/[nH]c2nc3ccccn3c(=O)c2cc1C(=O)N[C@@H](C)c1ccccc1 (cis-trans isomerization)
[H]/N=c1/[nH]c2nc3ccccn3c(=O)c2cc1C(=O)N[C@@H](C)c1ccccc1 (3D coordinates assigned)
[H]/N=c1/[nH]c2nc3ccccn3c(=O)c2cc1C(=O)N[C@@H](C)c1ccccc1 (optimized conformer: 65.80136345137069 kcal/mol)

>  <smiles>  (10) 
C[C@H](NC(=O)c1cc2c(=O)n3ccccc3nc2[nH]c1=N)c1ccccc1

>  <score_type>  (10) 
oracle

>  <origin>  (10) 
autodockgpu

>  <m_score__min__energy>  (10) 
-8.1799999999999997

>  <m_primary>  (10) 
energy

>  <meeko>  (10) 
{"free_energy": -8.14, "intermolecular_energy": -9.33, "internal_energy": -0.79, "cluster_size": 16, "cluster_id": 1, "rank_in_cluster": 10}

>  <energy>  (10) 
-8.14

>  <cluster_rmsd>  (10) 
0.54

>  <rmsd>  (10) 
270.96

>  <cluster>  (10) 
1

$$$$
OOSPKVZPLIIQRF-ZMYHIABLNA-N
     RDKit          3D

 44 47  0  0  0  0  0  0  0  0999 V2000
  144.1610   76.9240  220.6970 H   0  0  0  0  0  0  0  0  0  0  0  0
  144.0320   76.3330  219.8480 N   0  0  0  0  0  0  0  0  0  0  0  0
  143.7300   75.0680  219.8640 C   0  0  0  0  0  0  0  0  0  0  0  0
  142.4450   74.6080  220.2530 C   0  0  0  0  0  0  0  0  0  0  0  0
  141.3220   75.5220  220.5580 C   0  0  0  0  0  0  0  0  0  0  0  0
  140.1390   75.1510  220.3310 O   0  0  0  0  0  0  0  0  0  0  0  0
  141.5790   76.8060  221.1540 N   0  0  0  0  0  0  0  0  0  0  0  0
  142.5730   77.1020  221.2830 H   0  0  0  0  0  0  0  0  0  0  0  0
  140.5350   77.7240  221.6230 C   0  0  2  0  0  0  0  0  0  0  0  0
  140.0363   78.1938  220.7624 H   0  0  0  0  0  0  0  0  0  0  0  0
  141.1460   78.8750  222.4060 C   0  0  0  0  0  0  0  0  0  0  0  0
  140.2880   79.7340  223.1170 C   0  0  0  0  0  0  0  0  0  0  0  0
  139.2045   79.5440  223.1168 H   0  0  0  0  0  0  0  0  0  0  0  0
  140.7990   80.8270  223.8240 C   0  0  0  0  0  0  0  0  0  0  0  0
  140.1187   81.4871  224.3822 H   0  0  0  0  0  0  0  0  0  0  0  0
  142.1710   81.0810  223.8220 C   0  0  0  0  0  0  0  0  0  0  0  0
  142.5721   81.9388  224.3817 H   0  0  0  0  0  0  0  0  0  0  0  0
  143.0350   80.2470  223.1100 C   0  0  0  0  0  0  0  0  0  0  0  0
  144.1159   80.4512  223.1068 H   0  0  0  0  0  0  0  0  0  0  0  0
  142.5300   79.1530  222.4010 C   0  0  0  0  0  0  0  0  0  0  0  0
  143.2155   78.5047  221.8356 H   0  0  0  0  0  0  0  0  0  0  0  0
  139.4230   76.9580  222.3560 C   0  0  0  0  0  0  0  0  0  0  0  0
  139.5651   77.0559  223.4424 H   0  0  0  0  0  0  0  0  0  0  0  0
  138.4444   77.3745  222.0752 H   0  0  0  0  0  0  0  0  0  0  0  0
  139.4634   75.8952  222.0752 H   0  0  0  0  0  0  0  0  0  0  0  0
  142.2170   73.2260  220.3180 C   0  0  0  0  0  0  0  0  0  0  0  0
  141.2331   72.8494  220.6343 H   0  0  0  0  0  0  0  0  0  0  0  0
  143.2330   72.3210  219.9830 C   0  0  0  0  0  0  0  0  0  0  0  0
  143.0510   70.9260  220.0260 C   0  0  0  0  0  0  0  0  0  0  0  0
  141.9330   70.4550  220.3820 O   0  0  0  0  0  0  0  0  0  0  0  0
  144.0820   70.0860  219.6800 N   0  0  0  0  0  0  0  0  0  0  0  0
  143.9170   68.7230  219.7170 C   0  0  0  0  0  0  0  0  0  0  0  0
  142.9490   68.3012  220.0253 H   0  0  0  0  0  0  0  0  0  0  0  0
  144.9630   67.8660  219.3680 C   0  0  0  0  0  0  0  0  0  0  0  0
  144.8198   66.7759  219.4021 H   0  0  0  0  0  0  0  0  0  0  0  0
  146.1870   68.3990  218.9770 C   0  0  0  0  0  0  0  0  0  0  0  0
  147.0166   67.7323  218.6992 H   0  0  0  0  0  0  0  0  0  0  0  0
  146.3570   69.7800  218.9390 C   0  0  0  0  0  0  0  0  0  0  0  0
  147.3217   70.2105  218.6323 H   0  0  0  0  0  0  0  0  0  0  0  0
  145.2940   70.6170  219.2930 C   0  0  0  0  0  0  0  0  0  0  0  0
  145.4740   71.9630  219.2520 N   0  0  0  0  0  0  0  0  0  0  0  0
  144.4800   72.8210  219.5830 C   0  0  0  0  0  0  0  0  0  0  0  0
  144.6970   74.1640  219.5320 N   0  0  0  0  0  0  0  0  0  0  0  0
  145.6400   74.5100  219.2430 H   0  0  0  0  0  0  0  0  0  0  0  0
  1  2  1  0
  2  3  2  0
  3  4  1  0
  4  5  1  0
  5  6  2  0
  5  7  1  0
  7  8  1  0
  7  9  1  0
  9 10  1  6
  9 11  1  0
 11 12  2  0
 12 13  1  0
 12 14  1  0
 14 15  1  0
 14 16  2  0
 16 17  1  0
 16 18  1  0
 18 19  1  0
 18 20  2  0
 20 21  1  0
  9 22  1  0
 22 23  1  0
 22 24  1  0
 22 25  1  0
  4 26  2  0
 26 27  1  0
 26 28  1  0
 28 29  1  0
 29 30  2  0
 29 31  1  0
 31 32  1  0
 32 33  1  0
 32 34  2  0
 34 35  1  0
 34 36  1  0
 36 37  1  0
 36 38  2  0
 38 39  1  0
 38 40  1  0
 40 41  2  0
 41 42  1  0
 42 43  1  0
 43 44  1  0
 43  3  1  0
 20 11  1  0
 42 28  2  0
 40 31  1  0
M  END
>  <UniqueID>  (11) 
31

>  <SMILES>  (11) 
[H]/N=c1/[nH]c2nc3ccccn3c(=O)c2cc1C(=O)N[C@@H](C)c1ccccc1

>  <Energy>  (11) 
65.80136345137069

>  <Genealogy>  (11) 
[H]/N=c1/[nH]c2nc3ccccn3c(=O)c2cc1C(=O)N[C@@H](C)c1ccccc1 (cis-trans isomerization)
[H]/N=c1/[nH]c2nc3ccccn3c(=O)c2cc1C(=O)N[C@@H](C)c1ccccc1 (3D coordinates assigned)
[H]/N=c1/[nH]c2nc3ccccn3c(=O)c2cc1C(=O)N[C@@H](C)c1ccccc1 (optimized conformer: 65.80136345137069 kcal/mol)

>  <smiles>  (11) 
C[C@H](NC(=O)c1cc2c(=O)n3ccccc3nc2[nH]c1=N)c1ccccc1

>  <score_type>  (11) 
oracle

>  <origin>  (11) 
autodockgpu

>  <m_score__min__energy>  (11) 
-8.1799999999999997

>  <m_primary>  (11) 
energy

>  <meeko>  (11) 
{"free_energy": -8.18, "intermolecular_energy": -9.37, "internal_energy": -0.77, "cluster_size": 16, "cluster_id": 1, "rank_in_cluster": 1}

>  <energy>  (11) 
-8.14

>  <cluster_rmsd>  (11) 
0.54

>  <rmsd>  (11) 
270.96

>  <cluster>  (11) 
1

$$$$
OOSPKVZPLIIQRF-ZMYHIABLNA-N
     RDKit          3D

 44 47  0  0  0  0  0  0  0  0999 V2000
  144.1380   76.9260  220.6280 H   0  0  0  0  0  0  0  0  0  0  0  0
  144.0690   76.3090  219.7900 N   0  0  0  0  0  0  0  0  0  0  0  0
  143.7820   75.0420  219.8240 C   0  0  0  0  0  0  0  0  0  0  0  0
  142.5030   74.5730  220.2220 C   0  0  0  0  0  0  0  0  0  0  0  0
  141.3700   75.4780  220.5170 C   0  0  0  0  0  0  0  0  0  0  0  0
  140.1900   75.0860  220.3080 O   0  0  0  0  0  0  0  0  0  0  0  0
  141.6140   76.7770  221.0840 N   0  0  0  0  0  0  0  0  0  0  0  0
  142.6050   77.0890  221.1990 H   0  0  0  0  0  0  0  0  0  0  0  0
  140.5620   77.6910  221.5430 C   0  0  2  0  0  0  0  0  0  0  0  0
  140.0258   78.1085  220.6780 H   0  0  0  0  0  0  0  0  0  0  0  0
  141.1670   78.8920  222.2520 C   0  0  0  0  0  0  0  0  0  0  0  0
  141.2690   80.1050  221.5470 C   0  0  0  0  0  0  0  0  0  0  0  0
  140.8885   80.1704  220.5170 H   0  0  0  0  0  0  0  0  0  0  0  0
  141.8500   81.2290  222.1440 C   0  0  0  0  0  0  0  0  0  0  0  0
  141.9182   82.1741  221.5853 H   0  0  0  0  0  0  0  0  0  0  0  0
  142.3430   81.1530  223.4470 C   0  0  0  0  0  0  0  0  0  0  0  0
  142.7954   82.0389  223.9165 H   0  0  0  0  0  0  0  0  0  0  0  0
  142.2620   79.9520  224.1550 C   0  0  0  0  0  0  0  0  0  0  0  0
  142.6546   79.8923  225.1808 H   0  0  0  0  0  0  0  0  0  0  0  0
  141.6830   78.8250  223.5630 C   0  0  0  0  0  0  0  0  0  0  0  0
  141.6296   77.8800  224.1235 H   0  0  0  0  0  0  0  0  0  0  0  0
  139.4920   76.9340  222.3440 C   0  0  0  0  0  0  0  0  0  0  0  0
  139.6781   77.0656  223.4201 H   0  0  0  0  0  0  0  0  0  0  0  0
  138.4971   77.3303  222.0927 H   0  0  0  0  0  0  0  0  0  0  0  0
  139.5346   75.8639  222.0927 H   0  0  0  0  0  0  0  0  0  0  0  0
  142.2910   73.1890  220.3060 C   0  0  0  0  0  0  0  0  0  0  0  0
  141.3121   72.8057  220.6297 H   0  0  0  0  0  0  0  0  0  0  0  0
  143.3160   72.2910  219.9810 C   0  0  0  0  0  0  0  0  0  0  0  0
  143.1500   70.8950  220.0430 C   0  0  0  0  0  0  0  0  0  0  0  0
  142.0390   70.4160  220.4080 O   0  0  0  0  0  0  0  0  0  0  0  0
  144.1900   70.0620  219.7060 N   0  0  0  0  0  0  0  0  0  0  0  0
  144.0410   68.6980  219.7620 C   0  0  0  0  0  0  0  0  0  0  0  0
  143.0787   68.2694  220.0786 H   0  0  0  0  0  0  0  0  0  0  0  0
  145.0960   67.8480  219.4220 C   0  0  0  0  0  0  0  0  0  0  0  0
  144.9654   66.7569  219.4710 H   0  0  0  0  0  0  0  0  0  0  0  0
  146.3130   68.3900  219.0210 C   0  0  0  0  0  0  0  0  0  0  0  0
  147.1497   67.7292  218.7502 H   0  0  0  0  0  0  0  0  0  0  0  0
  146.4670   69.7720  218.9640 C   0  0  0  0  0  0  0  0  0  0  0  0
  147.4261   70.2090  218.6492 H   0  0  0  0  0  0  0  0  0  0  0  0
  145.3960   70.6020  219.3090 C   0  0  0  0  0  0  0  0  0  0  0  0
  145.5600   71.9480  219.2490 N   0  0  0  0  0  0  0  0  0  0  0  0
  144.5560   72.8000  219.5720 C   0  0  0  0  0  0  0  0  0  0  0  0
  144.7580   74.1450  219.5020 N   0  0  0  0  0  0  0  0  0  0  0  0
  145.6970   74.4970  219.2060 H   0  0  0  0  0  0  0  0  0  0  0  0
  1  2  1  0
  2  3  2  0
  3  4  1  0
  4  5  1  0
  5  6  2  0
  5  7  1  0
  7  8  1  0
  7  9  1  0
  9 10  1  6
  9 11  1  0
 11 12  2  0
 12 13  1  0
 12 14  1  0
 14 15  1  0
 14 16  2  0
 16 17  1  0
 16 18  1  0
 18 19  1  0
 18 20  2  0
 20 21  1  0
  9 22  1  0
 22 23  1  0
 22 24  1  0
 22 25  1  0
  4 26  2  0
 26 27  1  0
 26 28  1  0
 28 29  1  0
 29 30  2  0
 29 31  1  0
 31 32  1  0
 32 33  1  0
 32 34  2  0
 34 35  1  0
 34 36  1  0
 36 37  1  0
 36 38  2  0
 38 39  1  0
 38 40  1  0
 40 41  2  0
 41 42  1  0
 42 43  1  0
 43 44  1  0
 43  3  1  0
 20 11  1  0
 42 28  2  0
 40 31  1  0
M  END
>  <UniqueID>  (12) 
31

>  <SMILES>  (12) 
[H]/N=c1/[nH]c2nc3ccccn3c(=O)c2cc1C(=O)N[C@@H](C)c1ccccc1

>  <Energy>  (12) 
65.80136345137069

>  <Genealogy>  (12) 
[H]/N=c1/[nH]c2nc3ccccn3c(=O)c2cc1C(=O)N[C@@H](C)c1ccccc1 (cis-trans isomerization)
[H]/N=c1/[nH]c2nc3ccccn3c(=O)c2cc1C(=O)N[C@@H](C)c1ccccc1 (3D coordinates assigned)
[H]/N=c1/[nH]c2nc3ccccn3c(=O)c2cc1C(=O)N[C@@H](C)c1ccccc1 (optimized conformer: 65.80136345137069 kcal/mol)

>  <smiles>  (12) 
C[C@H](NC(=O)c1cc2c(=O)n3ccccc3nc2[nH]c1=N)c1ccccc1

>  <score_type>  (12) 
oracle

>  <origin>  (12) 
autodockgpu

>  <m_score__min__energy>  (12) 
-8.1799999999999997

>  <m_primary>  (12) 
energy

>  <meeko>  (12) 
{"free_energy": -8.14, "intermolecular_energy": -9.33, "internal_energy": -0.77, "cluster_size": 16, "cluster_id": 1, "rank_in_cluster": 11}

>  <energy>  (12) 
-8.14

>  <cluster_rmsd>  (12) 
0.54

>  <rmsd>  (12) 
270.95

>  <cluster>  (12) 
1

$$$$
OOSPKVZPLIIQRF-ZMYHIABLNA-N
     RDKit          3D

 44 47  0  0  0  0  0  0  0  0999 V2000
  144.0950   76.9260  220.8080 H   0  0  0  0  0  0  0  0  0  0  0  0
  144.0590   76.3270  219.9550 N   0  0  0  0  0  0  0  0  0  0  0  0
  143.7560   75.0630  219.9500 C   0  0  0  0  0  0  0  0  0  0  0  0
  142.4630   74.6000  220.3080 C   0  0  0  0  0  0  0  0  0  0  0  0
  141.3360   75.5110  220.6040 C   0  0  0  0  0  0  0  0  0  0  0  0
  140.1570   75.1430  220.3530 O   0  0  0  0  0  0  0  0  0  0  0  0
  141.5830   76.7880  221.2170 N   0  0  0  0  0  0  0  0  0  0  0  0
  142.5750   77.0830  221.3660 H   0  0  0  0  0  0  0  0  0  0  0  0
  140.5320   77.7020  221.6780 C   0  0  2  0  0  0  0  0  0  0  0  0
  140.0299   78.1607  220.8134 H   0  0  0  0  0  0  0  0  0  0  0  0
  141.1340   78.8650  222.4510 C   0  0  0  0  0  0  0  0  0  0  0  0
  140.2680   79.7290  223.1450 C   0  0  0  0  0  0  0  0  0  0  0  0
  139.1853   79.5347  223.1396 H   0  0  0  0  0  0  0  0  0  0  0  0
  140.7700   80.8330  223.8420 C   0  0  0  0  0  0  0  0  0  0  0  0
  140.0833   81.4976  224.3867 H   0  0  0  0  0  0  0  0  0  0  0  0
  142.1410   81.0920  223.8470 C   0  0  0  0  0  0  0  0  0  0  0  0
  142.5351   81.9579  224.3992 H   0  0  0  0  0  0  0  0  0  0  0  0
  143.0130   80.2520  223.1510 C   0  0  0  0  0  0  0  0  0  0  0  0
  144.0933   80.4595  223.1528 H   0  0  0  0  0  0  0  0  0  0  0  0
  142.5160   79.1480  222.4520 C   0  0  0  0  0  0  0  0  0  0  0  0
  143.2075   78.4954  221.8989 H   0  0  0  0  0  0  0  0  0  0  0  0
  139.4260   76.9340  222.4170 C   0  0  0  0  0  0  0  0  0  0  0  0
  139.5718   77.0353  223.5026 H   0  0  0  0  0  0  0  0  0  0  0  0
  138.4448   77.3461  222.1388 H   0  0  0  0  0  0  0  0  0  0  0  0
  139.4693   75.8706  222.1388 H   0  0  0  0  0  0  0  0  0  0  0  0
  142.2330   73.2180  220.3510 C   0  0  0  0  0  0  0  0  0  0  0  0
  141.2431   72.8388  220.6446 H   0  0  0  0  0  0  0  0  0  0  0  0
  143.2540   72.3150  220.0230 C   0  0  0  0  0  0  0  0  0  0  0  0
  143.0700   70.9200  220.0450 C   0  0  0  0  0  0  0  0  0  0  0  0
  141.9450   70.4460  220.3740 O   0  0  0  0  0  0  0  0  0  0  0  0
  144.1060   70.0830  219.7080 N   0  0  0  0  0  0  0  0  0  0  0  0
  143.9390   68.7200  219.7240 C   0  0  0  0  0  0  0  0  0  0  0  0
  142.9652   68.2951  220.0088 H   0  0  0  0  0  0  0  0  0  0  0  0
  144.9910   67.8670  219.3830 C   0  0  0  0  0  0  0  0  0  0  0  0
  144.8461   66.7767  219.3998 H   0  0  0  0  0  0  0  0  0  0  0  0
  146.2230   68.4030  219.0220 C   0  0  0  0  0  0  0  0  0  0  0  0
  147.0570   67.7387  218.7514 H   0  0  0  0  0  0  0  0  0  0  0  0
  146.3950   69.7840  219.0050 C   0  0  0  0  0  0  0  0  0  0  0  0
  147.3657   70.2170  218.7217 H   0  0  0  0  0  0  0  0  0  0  0  0
  145.3270   70.6180  219.3500 C   0  0  0  0  0  0  0  0  0  0  0  0
  145.5080   71.9640  219.3300 N   0  0  0  0  0  0  0  0  0  0  0  0
  144.5090   72.8190  219.6540 C   0  0  0  0  0  0  0  0  0  0  0  0
  144.7280   74.1620  219.6240 N   0  0  0  0  0  0  0  0  0  0  0  0
  145.6770   74.5100  219.3570 H   0  0  0  0  0  0  0  0  0  0  0  0
  1  2  1  0
  2  3  2  0
  3  4  1  0
  4  5  1  0
  5  6  2  0
  5  7  1  0
  7  8  1  0
  7  9  1  0
  9 10  1  6
  9 11  1  0
 11 12  2  0
 12 13  1  0
 12 14  1  0
 14 15  1  0
 14 16  2  0
 16 17  1  0
 16 18  1  0
 18 19  1  0
 18 20  2  0
 20 21  1  0
  9 22  1  0
 22 23  1  0
 22 24  1  0
 22 25  1  0
  4 26  2  0
 26 27  1  0
 26 28  1  0
 28 29  1  0
 29 30  2  0
 29 31  1  0
 31 32  1  0
 32 33  1  0
 32 34  2  0
 34 35  1  0
 34 36  1  0
 36 37  1  0
 36 38  2  0
 38 39  1  0
 38 40  1  0
 40 41  2  0
 41 42  1  0
 42 43  1  0
 43 44  1  0
 43  3  1  0
 20 11  1  0
 42 28  2  0
 40 31  1  0
M  END
>  <UniqueID>  (13) 
31

>  <SMILES>  (13) 
[H]/N=c1/[nH]c2nc3ccccn3c(=O)c2cc1C(=O)N[C@@H](C)c1ccccc1

>  <Energy>  (13) 
65.80136345137069

>  <Genealogy>  (13) 
[H]/N=c1/[nH]c2nc3ccccn3c(=O)c2cc1C(=O)N[C@@H](C)c1ccccc1 (cis-trans isomerization)
[H]/N=c1/[nH]c2nc3ccccn3c(=O)c2cc1C(=O)N[C@@H](C)c1ccccc1 (3D coordinates assigned)
[H]/N=c1/[nH]c2nc3ccccn3c(=O)c2cc1C(=O)N[C@@H](C)c1ccccc1 (optimized conformer: 65.80136345137069 kcal/mol)

>  <smiles>  (13) 
C[C@H](NC(=O)c1cc2c(=O)n3ccccc3nc2[nH]c1=N)c1ccccc1

>  <score_type>  (13) 
oracle

>  <origin>  (13) 
autodockgpu

>  <m_score__min__energy>  (13) 
-8.1799999999999997

>  <m_primary>  (13) 
energy

>  <meeko>  (13) 
{"free_energy": -8.17, "intermolecular_energy": -9.36, "internal_energy": -0.78, "cluster_size": 16, "cluster_id": 1, "rank_in_cluster": 6}

>  <energy>  (13) 
-7.96

>  <cluster_rmsd>  (13) 
0.78

>  <rmsd>  (13) 
270.91

>  <cluster>  (13) 
1

$$$$
OOSPKVZPLIIQRF-ZMYHIABLNA-N
     RDKit          3D

 44 47  0  0  0  0  0  0  0  0999 V2000
  144.0420   77.2930  220.1880 H   0  0  0  0  0  0  0  0  0  0  0  0
  143.7390   76.6410  219.4330 N   0  0  0  0  0  0  0  0  0  0  0  0
  143.5120   75.3710  219.5970 C   0  0  0  0  0  0  0  0  0  0  0  0
  142.4170   74.8980  220.3660 C   0  0  0  0  0  0  0  0  0  0  0  0
  141.3920   75.7950  220.9430 C   0  0  0  0  0  0  0  0  0  0  0  0
  140.7450   75.4280  221.9600 O   0  0  0  0  0  0  0  0  0  0  0  0
  141.1710   77.0970  220.3730 N   0  0  0  0  0  0  0  0  0  0  0  0
  141.6890   77.3510  219.5020 H   0  0  0  0  0  0  0  0  0  0  0  0
  140.2840   78.1140  220.9510 C   0  0  2  0  0  0  0  0  0  0  0  0
  139.9486   78.8082  220.1664 H   0  0  0  0  0  0  0  0  0  0  0  0
  141.0380   78.9780  221.9490 C   0  0  0  0  0  0  0  0  0  0  0  0
  141.2060   78.4970  223.2600 C   0  0  0  0  0  0  0  0  0  0  0  0
  140.8170   77.5041  223.5299 H   0  0  0  0  0  0  0  0  0  0  0  0
  141.8630   79.2690  224.2240 C   0  0  0  0  0  0  0  0  0  0  0  0
  141.9949   78.8788  225.2440 H   0  0  0  0  0  0  0  0  0  0  0  0
  142.3510   80.5330  223.8930 C   0  0  0  0  0  0  0  0  0  0  0  0
  142.8701   81.1377  224.6512 H   0  0  0  0  0  0  0  0  0  0  0  0
  142.1810   81.0310  222.6000 C   0  0  0  0  0  0  0  0  0  0  0  0
  142.5640   82.0293  222.3419 H   0  0  0  0  0  0  0  0  0  0  0  0
  141.5250   80.2640  221.6320 C   0  0  0  0  0  0  0  0  0  0  0  0
  141.3877   80.6656  220.6172 H   0  0  0  0  0  0  0  0  0  0  0  0
  138.9970   77.4720  221.4890 C   0  0  0  0  0  0  0  0  0  0  0  0
  139.0148   77.4809  222.5888 H   0  0  0  0  0  0  0  0  0  0  0  0
  138.1262   78.0413  221.1318 H   0  0  0  0  0  0  0  0  0  0  0  0
  138.9280   76.4339  221.1318 H   0  0  0  0  0  0  0  0  0  0  0  0
  142.2800   73.5160  220.5610 C   0  0  0  0  0  0  0  0  0  0  0  0
  141.4485   73.1306  221.1694 H   0  0  0  0  0  0  0  0  0  0  0  0
  143.1940   72.6220  219.9870 C   0  0  0  0  0  0  0  0  0  0  0  0
  143.0950   71.2270  220.1470 C   0  0  0  0  0  0  0  0  0  0  0  0
  142.1510   70.7460  220.8370 O   0  0  0  0  0  0  0  0  0  0  0  0
  144.0170   70.3990  219.5550 N   0  0  0  0  0  0  0  0  0  0  0  0
  143.9320   69.0360  219.7030 C   0  0  0  0  0  0  0  0  0  0  0  0
  143.1159   68.6048  220.3013 H   0  0  0  0  0  0  0  0  0  0  0  0
  144.8680   68.1910  219.1040 C   0  0  0  0  0  0  0  0  0  0  0  0
  144.7893   67.1011  219.2298 H   0  0  0  0  0  0  0  0  0  0  0  0
  145.9010   68.7350  218.3470 C   0  0  0  0  0  0  0  0  0  0  0  0
  146.6434   68.0774  217.8712 H   0  0  0  0  0  0  0  0  0  0  0  0
  145.9900   70.1160  218.1950 C   0  0  0  0  0  0  0  0  0  0  0  0
  146.8030   70.5556  217.5985 H   0  0  0  0  0  0  0  0  0  0  0  0
  145.0400   70.9410  218.8050 C   0  0  0  0  0  0  0  0  0  0  0  0
  145.1390   72.2870  218.6490 N   0  0  0  0  0  0  0  0  0  0  0  0
  144.2470   73.1340  219.2160 C   0  0  0  0  0  0  0  0  0  0  0  0
  144.3800   74.4780  219.0400 N   0  0  0  0  0  0  0  0  0  0  0  0
  145.1820   74.8330  218.4710 H   0  0  0  0  0  0  0  0  0  0  0  0
  1  2  1  0
  2  3  2  0
  3  4  1  0
  4  5  1  0
  5  6  2  0
  5  7  1  0
  7  8  1  0
  7  9  1  0
  9 10  1  6
  9 11  1  0
 11 12  2  0
 12 13  1  0
 12 14  1  0
 14 15  1  0
 14 16  2  0
 16 17  1  0
 16 18  1  0
 18 19  1  0
 18 20  2  0
 20 21  1  0
  9 22  1  0
 22 23  1  0
 22 24  1  0
 22 25  1  0
  4 26  2  0
 26 27  1  0
 26 28  1  0
 28 29  1  0
 29 30  2  0
 29 31  1  0
 31 32  1  0
 32 33  1  0
 32 34  2  0
 34 35  1  0
 34 36  1  0
 36 37  1  0
 36 38  2  0
 38 39  1  0
 38 40  1  0
 40 41  2  0
 41 42  1  0
 42 43  1  0
 43 44  1  0
 43  3  1  0
 20 11  1  0
 42 28  2  0
 40 31  1  0
M  END
>  <UniqueID>  (14) 
31

>  <SMILES>  (14) 
[H]/N=c1/[nH]c2nc3ccccn3c(=O)c2cc1C(=O)N[C@@H](C)c1ccccc1

>  <Energy>  (14) 
65.80136345137069

>  <Genealogy>  (14) 
[H]/N=c1/[nH]c2nc3ccccn3c(=O)c2cc1C(=O)N[C@@H](C)c1ccccc1 (cis-trans isomerization)
[H]/N=c1/[nH]c2nc3ccccn3c(=O)c2cc1C(=O)N[C@@H](C)c1ccccc1 (3D coordinates assigned)
[H]/N=c1/[nH]c2nc3ccccn3c(=O)c2cc1C(=O)N[C@@H](C)c1ccccc1 (optimized conformer: 65.80136345137069 kcal/mol)

>  <smiles>  (14) 
C[C@H](NC(=O)c1cc2c(=O)n3ccccc3nc2[nH]c1=N)c1ccccc1

>  <score_type>  (14) 
oracle

>  <origin>  (14) 
autodockgpu

>  <m_score__min__energy>  (14) 
-8.1799999999999997

>  <m_primary>  (14) 
energy

>  <meeko>  (14) 
{"free_energy": -7.44, "intermolecular_energy": -8.64, "internal_energy": -0.88, "cluster_size": 16, "cluster_id": 1, "rank_in_cluster": 15}

>  <energy>  (14) 
-7.85

>  <cluster_rmsd>  (14) 
0.79

>  <rmsd>  (14) 
270.8

>  <cluster>  (14) 
1

$$$$
OOSPKVZPLIIQRF-ZMYHIABLNA-N
     RDKit          3D

 44 47  0  0  0  0  0  0  0  0999 V2000
  144.4380   76.8470  220.5290 H   0  0  0  0  0  0  0  0  0  0  0  0
  144.0670   76.2900  219.7290 N   0  0  0  0  0  0  0  0  0  0  0  0
  143.7790   75.0230  219.7800 C   0  0  0  0  0  0  0  0  0  0  0  0
  142.5050   74.5590  220.1980 C   0  0  0  0  0  0  0  0  0  0  0  0
  141.3760   75.4680  220.4980 C   0  0  0  0  0  0  0  0  0  0  0  0
  140.1940   75.0720  220.3130 O   0  0  0  0  0  0  0  0  0  0  0  0
  141.6290   76.7750  221.0420 N   0  0  0  0  0  0  0  0  0  0  0  0
  142.6220   77.0890  221.1370 H   0  0  0  0  0  0  0  0  0  0  0  0
  140.5830   77.6950  221.5040 C   0  0  2  0  0  0  0  0  0  0  0  0
  140.0255   78.0914  220.6426 H   0  0  0  0  0  0  0  0  0  0  0  0
  141.2000   78.9130  222.1740 C   0  0  0  0  0  0  0  0  0  0  0  0
  141.6870   78.7800  223.4870 C   0  0  0  0  0  0  0  0  0  0  0  0
  141.6390   77.8029  223.9899 H   0  0  0  0  0  0  0  0  0  0  0  0
  142.2320   79.8800  224.1590 C   0  0  0  0  0  0  0  0  0  0  0  0
  142.6160   79.7628  225.1831 H   0  0  0  0  0  0  0  0  0  0  0  0
  142.2890   81.1250  223.5320 C   0  0  0  0  0  0  0  0  0  0  0  0
  142.7215   81.9876  224.0601 H   0  0  0  0  0  0  0  0  0  0  0  0
  141.7970   81.2760  222.2340 C   0  0  0  0  0  0  0  0  0  0  0  0
  141.8388   82.2592  221.7424 H   0  0  0  0  0  0  0  0  0  0  0  0
  141.2510   80.1800  221.5570 C   0  0  0  0  0  0  0  0  0  0  0  0
  140.8591   80.3075  220.5371 H   0  0  0  0  0  0  0  0  0  0  0  0
  139.5350   76.9520  222.3450 C   0  0  0  0  0  0  0  0  0  0  0  0
  139.7481   77.1031  223.4135 H   0  0  0  0  0  0  0  0  0  0  0  0
  138.5336   77.3430  222.1120 H   0  0  0  0  0  0  0  0  0  0  0  0
  139.5725   75.8776  222.1120 H   0  0  0  0  0  0  0  0  0  0  0  0
  142.2930   73.1760  220.2990 C   0  0  0  0  0  0  0  0  0  0  0  0
  141.3180   72.7969  220.6390 H   0  0  0  0  0  0  0  0  0  0  0  0
  143.3140   72.2730  219.9700 C   0  0  0  0  0  0  0  0  0  0  0  0
  143.1470   70.8780  220.0480 C   0  0  0  0  0  0  0  0  0  0  0  0
  142.0400   70.4040  220.4320 O   0  0  0  0  0  0  0  0  0  0  0  0
  144.1820   70.0410  219.7070 N   0  0  0  0  0  0  0  0  0  0  0  0
  144.0330   68.6780  219.7780 C   0  0  0  0  0  0  0  0  0  0  0  0
  143.0742   68.2532  220.1101 H   0  0  0  0  0  0  0  0  0  0  0  0
  145.0830   67.8240  219.4340 C   0  0  0  0  0  0  0  0  0  0  0  0
  144.9520   66.7336  219.4963 H   0  0  0  0  0  0  0  0  0  0  0  0
  146.2960   68.3600  219.0120 C   0  0  0  0  0  0  0  0  0  0  0  0
  147.1286   67.6955  218.7376 H   0  0  0  0  0  0  0  0  0  0  0  0
  146.4500   69.7420  218.9390 C   0  0  0  0  0  0  0  0  0  0  0  0
  147.4050   70.1752  218.6070 H   0  0  0  0  0  0  0  0  0  0  0  0
  145.3840   70.5760  219.2900 C   0  0  0  0  0  0  0  0  0  0  0  0
  145.5480   71.9220  219.2140 N   0  0  0  0  0  0  0  0  0  0  0  0
  144.5490   72.7770  219.5400 C   0  0  0  0  0  0  0  0  0  0  0  0
  144.7510   74.1210  219.4550 N   0  0  0  0  0  0  0  0  0  0  0  0
  145.6860   74.4700  219.1430 H   0  0  0  0  0  0  0  0  0  0  0  0
  1  2  1  0
  2  3  2  0
  3  4  1  0
  4  5  1  0
  5  6  2  0
  5  7  1  0
  7  8  1  0
  7  9  1  0
  9 10  1  6
  9 11  1  0
 11 12  2  0
 12 13  1  0
 12 14  1  0
 14 15  1  0
 14 16  2  0
 16 17  1  0
 16 18  1  0
 18 19  1  0
 18 20  2  0
 20 21  1  0
  9 22  1  0
 22 23  1  0
 22 24  1  0
 22 25  1  0
  4 26  2  0
 26 27  1  0
 26 28  1  0
 28 29  1  0
 29 30  2  0
 29 31  1  0
 31 32  1  0
 32 33  1  0
 32 34  2  0
 34 35  1  0
 34 36  1  0
 36 37  1  0
 36 38  2  0
 38 39  1  0
 38 40  1  0
 40 41  2  0
 41 42  1  0
 42 43  1  0
 43 44  1  0
 43  3  1  0
 20 11  1  0
 42 28  2  0
 40 31  1  0
M  END
>  <UniqueID>  (15) 
31

>  <SMILES>  (15) 
[H]/N=c1/[nH]c2nc3ccccn3c(=O)c2cc1C(=O)N[C@@H](C)c1ccccc1

>  <Energy>  (15) 
65.80136345137069

>  <Genealogy>  (15) 
[H]/N=c1/[nH]c2nc3ccccn3c(=O)c2cc1C(=O)N[C@@H](C)c1ccccc1 (cis-trans isomerization)
[H]/N=c1/[nH]c2nc3ccccn3c(=O)c2cc1C(=O)N[C@@H](C)c1ccccc1 (3D coordinates assigned)
[H]/N=c1/[nH]c2nc3ccccn3c(=O)c2cc1C(=O)N[C@@H](C)c1ccccc1 (optimized conformer: 65.80136345137069 kcal/mol)

>  <smiles>  (15) 
C[C@H](NC(=O)c1cc2c(=O)n3ccccc3nc2[nH]c1=N)c1ccccc1

>  <score_type>  (15) 
oracle

>  <origin>  (15) 
autodockgpu

>  <m_score__min__energy>  (15) 
-8.1799999999999997

>  <m_primary>  (15) 
energy

>  <meeko>  (15) 
{"free_energy": -8.14, "intermolecular_energy": -9.33, "internal_energy": -0.79, "cluster_size": 16, "cluster_id": 1, "rank_in_cluster": 9}

>  <energy>  (15) 
-7.44

>  <cluster_rmsd>  (15) 
0.92

>  <rmsd>  (15) 
270.75

>  <cluster>  (15) 
1

$$$$
OOSPKVZPLIIQRF-ZMYHIABLNA-N
     RDKit          3D

 44 47  0  0  0  0  0  0  0  0999 V2000
  144.3440   76.8430  220.7470 H   0  0  0  0  0  0  0  0  0  0  0  0
  144.1410   76.2740  219.8960 N   0  0  0  0  0  0  0  0  0  0  0  0
  143.8390   75.0100  219.9050 C   0  0  0  0  0  0  0  0  0  0  0  0
  142.6060   74.5360  220.4230 C   0  0  0  0  0  0  0  0  0  0  0  0
  141.5280   75.4380  220.8850 C   0  0  0  0  0  0  0  0  0  0  0  0
  140.7360   75.0500  221.7850 O   0  0  0  0  0  0  0  0  0  0  0  0
  141.4180   76.7660  220.3430 N   0  0  0  0  0  0  0  0  0  0  0  0
  142.0600   77.0380  219.5640 H   0  0  0  0  0  0  0  0  0  0  0  0
  140.4790   77.7830  220.8300 C   0  0  2  0  0  0  0  0  0  0  0  0
  140.1876   78.4490  220.0045 H   0  0  0  0  0  0  0  0  0  0  0  0
  141.1510   78.6860  221.8520 C   0  0  0  0  0  0  0  0  0  0  0  0
  141.2370   78.2430  223.1850 C   0  0  0  0  0  0  0  0  0  0  0  0
  140.8450   77.2515  223.4557 H   0  0  0  0  0  0  0  0  0  0  0  0
  141.8160   79.0510  224.1690 C   0  0  0  0  0  0  0  0  0  0  0  0
  141.8846   78.6904  225.2060 H   0  0  0  0  0  0  0  0  0  0  0  0
  142.3070   80.3150  223.8360 C   0  0  0  0  0  0  0  0  0  0  0  0
  142.7656   80.9482  224.6098 H   0  0  0  0  0  0  0  0  0  0  0  0
  142.2160   80.7750  222.5220 C   0  0  0  0  0  0  0  0  0  0  0  0
  142.5992   81.7729  222.2625 H   0  0  0  0  0  0  0  0  0  0  0  0
  141.6390   79.9710  221.5340 C   0  0  0  0  0  0  0  0  0  0  0  0
  141.5651   80.3431  220.5015 H   0  0  0  0  0  0  0  0  0  0  0  0
  139.1670   77.1360  221.2980 C   0  0  0  0  0  0  0  0  0  0  0  0
  139.1372   77.1213  222.3975 H   0  0  0  0  0  0  0  0  0  0  0  0
  138.3148   77.7172  220.9158 H   0  0  0  0  0  0  0  0  0  0  0  0
  139.1093   76.1061  220.9158 H   0  0  0  0  0  0  0  0  0  0  0  0
  142.3830   73.1520  220.4680 C   0  0  0  0  0  0  0  0  0  0  0  0
  141.4411   72.7643  220.8832 H   0  0  0  0  0  0  0  0  0  0  0  0
  143.3510   72.2590  219.9880 C   0  0  0  0  0  0  0  0  0  0  0  0
  143.1710   70.8640  220.0050 C   0  0  0  0  0  0  0  0  0  0  0  0
  142.1000   70.3800  220.4720 O   0  0  0  0  0  0  0  0  0  0  0  0
  144.1530   70.0370  219.5160 N   0  0  0  0  0  0  0  0  0  0  0  0
  143.9900   68.6730  219.5260 C   0  0  0  0  0  0  0  0  0  0  0  0
  143.0627   68.2401  219.9293 H   0  0  0  0  0  0  0  0  0  0  0  0
  144.9860   67.8290  219.0310 C   0  0  0  0  0  0  0  0  0  0  0  0
  144.8443   66.7383  219.0449 H   0  0  0  0  0  0  0  0  0  0  0  0
  146.1590   68.3760  218.5200 C   0  0  0  0  0  0  0  0  0  0  0  0
  146.9491   67.7196  218.1265 H   0  0  0  0  0  0  0  0  0  0  0  0
  146.3280   69.7580  218.5090 C   0  0  0  0  0  0  0  0  0  0  0  0
  147.2527   70.1991  218.1087 H   0  0  0  0  0  0  0  0  0  0  0  0
  145.3150   70.5820  219.0100 C   0  0  0  0  0  0  0  0  0  0  0  0
  145.4920   71.9280  218.9930 N   0  0  0  0  0  0  0  0  0  0  0  0
  144.5450   72.7740  219.4650 C   0  0  0  0  0  0  0  0  0  0  0  0
  144.7590   74.1180  219.4340 N   0  0  0  0  0  0  0  0  0  0  0  0
  145.6640   74.4740  219.0500 H   0  0  0  0  0  0  0  0  0  0  0  0
  1  2  1  0
  2  3  2  0
  3  4  1  0
  4  5  1  0
  5  6  2  0
  5  7  1  0
  7  8  1  0
  7  9  1  0
  9 10  1  6
  9 11  1  0
 11 12  2  0
 12 13  1  0
 12 14  1  0
 14 15  1  0
 14 16  2  0
 16 17  1  0
 16 18  1  0
 18 19  1  0
 18 20  2  0
 20 21  1  0
  9 22  1  0
 22 23  1  0
 22 24  1  0
 22 25  1  0
  4 26  2  0
 26 27  1  0
 26 28  1  0
 28 29  1  0
 29 30  2  0
 29 31  1  0
 31 32  1  0
 32 33  1  0
 32 34  2  0
 34 35  1  0
 34 36  1  0
 36 37  1  0
 36 38  2  0
 38 39  1  0
 38 40  1  0
 40 41  2  0
 41 42  1  0
 42 43  1  0
 43 44  1  0
 43  3  1  0
 20 11  1  0
 42 28  2  0
 40 31  1  0
M  END
>  <UniqueID>  (16) 
31

>  <SMILES>  (16) 
[H]/N=c1/[nH]c2nc3ccccn3c(=O)c2cc1C(=O)N[C@@H](C)c1ccccc1

>  <Energy>  (16) 
65.80136345137069

>  <Genealogy>  (16) 
[H]/N=c1/[nH]c2nc3ccccn3c(=O)c2cc1C(=O)N[C@@H](C)c1ccccc1 (cis-trans isomerization)
[H]/N=c1/[nH]c2nc3ccccn3c(=O)c2cc1C(=O)N[C@@H](C)c1ccccc1 (3D coordinates assigned)
[H]/N=c1/[nH]c2nc3ccccn3c(=O)c2cc1C(=O)N[C@@H](C)c1ccccc1 (optimized conformer: 65.80136345137069 kcal/mol)

>  <smiles>  (16) 
C[C@H](NC(=O)c1cc2c(=O)n3ccccc3nc2[nH]c1=N)c1ccccc1

>  <score_type>  (16) 
oracle

>  <origin>  (16) 
autodockgpu

>  <m_score__min__energy>  (16) 
-8.1799999999999997

>  <m_primary>  (16) 
energy

>  <meeko>  (16) 
{"free_energy": -7.85, "intermolecular_energy": -9.04, "internal_energy": -0.75, "cluster_size": 16, "cluster_id": 1, "rank_in_cluster": 14}

>  <energy>  (16) 
-6.98

>  <cluster_rmsd>  (16) 
1.06

>  <rmsd>  (16) 
270.78

>  <cluster>  (16) 
1

$$$$
OOSPKVZPLIIQRF-ZMYHIABLNA-N
     RDKit          3D

 44 47  0  0  0  0  0  0  0  0999 V2000
  144.4450   76.8520  220.5430 H   0  0  0  0  0  0  0  0  0  0  0  0
  144.0750   76.2980  219.7400 N   0  0  0  0  0  0  0  0  0  0  0  0
  143.7880   75.0310  219.7840 C   0  0  0  0  0  0  0  0  0  0  0  0
  142.5130   74.5630  220.1950 C   0  0  0  0  0  0  0  0  0  0  0  0
  141.3830   75.4700  220.4970 C   0  0  0  0  0  0  0  0  0  0  0  0
  140.2010   75.0730  220.3110 O   0  0  0  0  0  0  0  0  0  0  0  0
  141.6330   76.7760  221.0440 N   0  0  0  0  0  0  0  0  0  0  0  0
  142.6250   77.0920  221.1400 H   0  0  0  0  0  0  0  0  0  0  0  0
  140.5860   77.6940  221.5070 C   0  0  2  0  0  0  0  0  0  0  0  0
  140.0289   78.0920  220.6461 H   0  0  0  0  0  0  0  0  0  0  0  0
  141.2000   78.9110  222.1790 C   0  0  0  0  0  0  0  0  0  0  0  0
  141.7060   78.7720  223.4850 C   0  0  0  0  0  0  0  0  0  0  0  0
  141.6742   77.7903  223.9802 H   0  0  0  0  0  0  0  0  0  0  0  0
  142.2490   79.8710  224.1590 C   0  0  0  0  0  0  0  0  0  0  0  0
  142.6474   79.7488  225.1770 H   0  0  0  0  0  0  0  0  0  0  0  0
  142.2860   81.1220  223.5420 C   0  0  0  0  0  0  0  0  0  0  0  0
  142.7171   81.9840  224.0722 H   0  0  0  0  0  0  0  0  0  0  0  0
  141.7760   81.2800  222.2520 C   0  0  0  0  0  0  0  0  0  0  0  0
  141.8028   82.2677  221.7684 H   0  0  0  0  0  0  0  0  0  0  0  0
  141.2310   80.1850  221.5730 C   0  0  0  0  0  0  0  0  0  0  0  0
  140.8239   80.3180  220.5598 H   0  0  0  0  0  0  0  0  0  0  0  0
  139.5380   76.9470  222.3460 C   0  0  0  0  0  0  0  0  0  0  0  0
  139.7491   77.0974  223.4150 H   0  0  0  0  0  0  0  0  0  0  0  0
  138.5360   77.3357  222.1118 H   0  0  0  0  0  0  0  0  0  0  0  0
  139.5786   75.8730  222.1118 H   0  0  0  0  0  0  0  0  0  0  0  0
  142.3020   73.1800  220.2880 C   0  0  0  0  0  0  0  0  0  0  0  0
  141.3261   72.7982  220.6225 H   0  0  0  0  0  0  0  0  0  0  0  0
  143.3250   72.2800  219.9580 C   0  0  0  0  0  0  0  0  0  0  0  0
  143.1590   70.8850  220.0280 C   0  0  0  0  0  0  0  0  0  0  0  0
  142.0520   70.4080  220.4060 O   0  0  0  0  0  0  0  0  0  0  0  0
  144.1960   70.0500  219.6860 N   0  0  0  0  0  0  0  0  0  0  0  0
  144.0480   68.6860  219.7500 C   0  0  0  0  0  0  0  0  0  0  0  0
  143.0890   68.2585  220.0778 H   0  0  0  0  0  0  0  0  0  0  0  0
  145.1000   67.8350  219.4040 C   0  0  0  0  0  0  0  0  0  0  0  0
  144.9702   66.7441  219.4593 H   0  0  0  0  0  0  0  0  0  0  0  0
  146.3130   68.3750  218.9890 C   0  0  0  0  0  0  0  0  0  0  0  0
  147.1469   67.7128  218.7134 H   0  0  0  0  0  0  0  0  0  0  0  0
  146.4670   69.7570  218.9240 C   0  0  0  0  0  0  0  0  0  0  0  0
  147.4232   70.1927  218.5987 H   0  0  0  0  0  0  0  0  0  0  0  0
  145.3980   70.5880  219.2750 C   0  0  0  0  0  0  0  0  0  0  0  0
  145.5610   71.9350  219.2070 N   0  0  0  0  0  0  0  0  0  0  0  0
  144.5610   72.7880  219.5350 C   0  0  0  0  0  0  0  0  0  0  0  0
  144.7620   74.1320  219.4570 N   0  0  0  0  0  0  0  0  0  0  0  0
  145.6980   74.4830  219.1500 H   0  0  0  0  0  0  0  0  0  0  0  0
  1  2  1  0
  2  3  2  0
  3  4  1  0
  4  5  1  0
  5  6  2  0
  5  7  1  0
  7  8  1  0
  7  9  1  0
  9 10  1  6
  9 11  1  0
 11 12  2  0
 12 13  1  0
 12 14  1  0
 14 15  1  0
 14 16  2  0
 16 17  1  0
 16 18  1  0
 18 19  1  0
 18 20  2  0
 20 21  1  0
  9 22  1  0
 22 23  1  0
 22 24  1  0
 22 25  1  0
  4 26  2  0
 26 27  1  0
 26 28  1  0
 28 29  1  0
 29 30  2  0
 29 31  1  0
 31 32  1  0
 32 33  1  0
 32 34  2  0
 34 35  1  0
 34 36  1  0
 36 37  1  0
 36 38  2  0
 38 39  1  0
 38 40  1  0
 40 41  2  0
 41 42  1  0
 42 43  1  0
 43 44  1  0
 43  3  1  0
 20 11  1  0
 42 28  2  0
 40 31  1  0
M  END
>  <UniqueID>  (17) 
31

>  <SMILES>  (17) 
[H]/N=c1/[nH]c2nc3ccccn3c(=O)c2cc1C(=O)N[C@@H](C)c1ccccc1

>  <Energy>  (17) 
65.80136345137069

>  <Genealogy>  (17) 
[H]/N=c1/[nH]c2nc3ccccn3c(=O)c2cc1C(=O)N[C@@H](C)c1ccccc1 (cis-trans isomerization)
[H]/N=c1/[nH]c2nc3ccccn3c(=O)c2cc1C(=O)N[C@@H](C)c1ccccc1 (3D coordinates assigned)
[H]/N=c1/[nH]c2nc3ccccn3c(=O)c2cc1C(=O)N[C@@H](C)c1ccccc1 (optimized conformer: 65.80136345137069 kcal/mol)

>  <smiles>  (17) 
C[C@H](NC(=O)c1cc2c(=O)n3ccccc3nc2[nH]c1=N)c1ccccc1

>  <score_type>  (17) 
oracle

>  <origin>  (17) 
autodockgpu

>  <m_score__min__energy>  (17) 
-8.1799999999999997

>  <m_primary>  (17) 
energy

>  <meeko>  (17) 
{"free_energy": -8.14, "intermolecular_energy": -9.33, "internal_energy": -0.8, "cluster_size": 16, "cluster_id": 1, "rank_in_cluster": 12}

>  <energy>  (17) 
-7.43

>  <cluster_rmsd>  (17) 
0.0

>  <rmsd>  (17) 
271.28

>  <cluster>  (17) 
2

$$$$
OOSPKVZPLIIQRF-ZMYHIABLNA-N
     RDKit          3D

 44 47  0  0  0  0  0  0  0  0999 V2000
  143.8900   76.9380  220.7070 H   0  0  0  0  0  0  0  0  0  0  0  0
  144.3230   76.2130  220.0950 N   0  0  0  0  0  0  0  0  0  0  0  0
  143.9790   74.9590  220.0760 C   0  0  0  0  0  0  0  0  0  0  0  0
  142.7020   74.5240  220.5170 C   0  0  0  0  0  0  0  0  0  0  0  0
  141.6290   75.4600  220.9210 C   0  0  0  0  0  0  0  0  0  0  0  0
  140.7850   75.1010  221.7860 O   0  0  0  0  0  0  0  0  0  0  0  0
  141.5830   76.7860  220.3670 N   0  0  0  0  0  0  0  0  0  0  0  0
  142.2680   77.0340  219.6180 H   0  0  0  0  0  0  0  0  0  0  0  0
  140.6510   77.8330  220.8030 C   0  0  2  0  0  0  0  0  0  0  0  0
  140.4255   78.5072  219.9636 H   0  0  0  0  0  0  0  0  0  0  0  0
  141.2950   78.7160  221.8600 C   0  0  0  0  0  0  0  0  0  0  0  0
  141.2810   78.2790  223.1980 C   0  0  0  0  0  0  0  0  0  0  0  0
  140.8338   77.3058  223.4486 H   0  0  0  0  0  0  0  0  0  0  0  0
  141.8300   79.0700  224.2110 C   0  0  0  0  0  0  0  0  0  0  0  0
  141.8207   78.7140  225.2517 H   0  0  0  0  0  0  0  0  0  0  0  0
  142.3900   80.3110  223.9040 C   0  0  0  0  0  0  0  0  0  0  0  0
  142.8235   80.9314  224.7023 H   0  0  0  0  0  0  0  0  0  0  0  0
  142.4000   80.7650  222.5840 C   0  0  0  0  0  0  0  0  0  0  0  0
  142.8400   81.7442  222.3439 H   0  0  0  0  0  0  0  0  0  0  0  0
  141.8520   79.9780  221.5660 C   0  0  0  0  0  0  0  0  0  0  0  0
  141.8554   80.3456  220.5293 H   0  0  0  0  0  0  0  0  0  0  0  0
  139.2960   77.2280  221.1980 C   0  0  0  0  0  0  0  0  0  0  0  0
  139.2161   77.1923  222.2945 H   0  0  0  0  0  0  0  0  0  0  0  0
  138.4845   77.8493  220.7912 H   0  0  0  0  0  0  0  0  0  0  0  0
  139.2168   76.2090  220.7912 H   0  0  0  0  0  0  0  0  0  0  0  0
  142.4300   73.1490  220.5370 C   0  0  0  0  0  0  0  0  0  0  0  0
  141.4522   72.7912  220.8919 H   0  0  0  0  0  0  0  0  0  0  0  0
  143.3950   72.2260  220.1080 C   0  0  0  0  0  0  0  0  0  0  0  0
  143.1670   70.8380  220.1040 C   0  0  0  0  0  0  0  0  0  0  0  0
  142.0550   70.3880  220.5020 O   0  0  0  0  0  0  0  0  0  0  0  0
  144.1480   69.9810  219.6660 N   0  0  0  0  0  0  0  0  0  0  0  0
  143.9390   68.6230  219.6560 C   0  0  0  0  0  0  0  0  0  0  0  0
  142.9758   68.2192  220.0013 H   0  0  0  0  0  0  0  0  0  0  0  0
  144.9340   67.7490  219.2130 C   0  0  0  0  0  0  0  0  0  0  0  0
  144.7551   66.6636  219.2087 H   0  0  0  0  0  0  0  0  0  0  0  0
  146.1530   68.2590  218.7770 C   0  0  0  0  0  0  0  0  0  0  0  0
  146.9429   67.5787  218.4261 H   0  0  0  0  0  0  0  0  0  0  0  0
  146.3680   69.6340  218.7870 C   0  0  0  0  0  0  0  0  0  0  0  0
  147.3289   70.0459  218.4451 H   0  0  0  0  0  0  0  0  0  0  0  0
  145.3560   70.4890  219.2340 C   0  0  0  0  0  0  0  0  0  0  0  0
  145.5790   71.8290  219.2380 N   0  0  0  0  0  0  0  0  0  0  0  0
  144.6340   72.7030  219.6600 C   0  0  0  0  0  0  0  0  0  0  0  0
  144.8940   74.0400  219.6530 N   0  0  0  0  0  0  0  0  0  0  0  0
  145.8320   74.3670  219.3260 H   0  0  0  0  0  0  0  0  0  0  0  0
  1  2  1  0
  2  3  2  0
  3  4  1  0
  4  5  1  0
  5  6  2  0
  5  7  1  0
  7  8  1  0
  7  9  1  0
  9 10  1  6
  9 11  1  0
 11 12  2  0
 12 13  1  0
 12 14  1  0
 14 15  1  0
 14 16  2  0
 16 17  1  0
 16 18  1  0
 18 19  1  0
 18 20  2  0
 20 21  1  0
  9 22  1  0
 22 23  1  0
 22 24  1  0
 22 25  1  0
  4 26  2  0
 26 27  1  0
 26 28  1  0
 28 29  1  0
 29 30  2  0
 29 31  1  0
 31 32  1  0
 32 33  1  0
 32 34  2  0
 34 35  1  0
 34 36  1  0
 36 37  1  0
 36 38  2  0
 38 39  1  0
 38 40  1  0
 40 41  2  0
 41 42  1  0
 42 43  1  0
 43 44  1  0
 43  3  1  0
 20 11  1  0
 42 28  2  0
 40 31  1  0
M  END
>  <UniqueID>  (18) 
31

>  <SMILES>  (18) 
[H]/N=c1/[nH]c2nc3ccccn3c(=O)c2cc1C(=O)N[C@@H](C)c1ccccc1

>  <Energy>  (18) 
65.80136345137069

>  <Genealogy>  (18) 
[H]/N=c1/[nH]c2nc3ccccn3c(=O)c2cc1C(=O)N[C@@H](C)c1ccccc1 (cis-trans isomerization)
[H]/N=c1/[nH]c2nc3ccccn3c(=O)c2cc1C(=O)N[C@@H](C)c1ccccc1 (3D coordinates assigned)
[H]/N=c1/[nH]c2nc3ccccn3c(=O)c2cc1C(=O)N[C@@H](C)c1ccccc1 (optimized conformer: 65.80136345137069 kcal/mol)

>  <smiles>  (18) 
C[C@H](NC(=O)c1cc2c(=O)n3ccccc3nc2[nH]c1=N)c1ccccc1

>  <score_type>  (18) 
oracle

>  <origin>  (18) 
autodockgpu

>  <m_score__min__energy>  (18) 
-8.1799999999999997

>  <m_primary>  (18) 
energy

>  <meeko>  (18) 
{"free_energy": -7.96, "intermolecular_energy": -9.15, "internal_energy": -0.76, "cluster_size": 16, "cluster_id": 1, "rank_in_cluster": 13}

>  <energy>  (18) 
-7.08

>  <cluster_rmsd>  (18) 
0.0

>  <rmsd>  (18) 
270.75

>  <cluster>  (18) 
3

$$$$
OOSPKVZPLIIQRF-ZMYHIABLNA-N
     RDKit          3D

 44 47  0  0  0  0  0  0  0  0999 V2000
  142.0520   72.4410  220.5720 H   0  0  0  0  0  0  0  0  0  0  0  0
  142.3000   73.4300  220.7930 N   0  0  0  0  0  0  0  0  0  0  0  0
  141.4760   74.3080  221.2840 C   0  0  0  0  0  0  0  0  0  0  0  0
  140.2170   73.9360  221.8230 C   0  0  0  0  0  0  0  0  0  0  0  0
  139.7910   72.5270  221.9730 C   0  0  0  0  0  0  0  0  0  0  0  0
  140.3690   71.6280  221.3060 O   0  0  0  0  0  0  0  0  0  0  0  0
  138.7560   72.1830  222.9120 N   0  0  0  0  0  0  0  0  0  0  0  0
  138.2640   72.9570  223.4130 H   0  0  0  0  0  0  0  0  0  0  0  0
  138.3590   70.8080  223.2380 C   0  0  2  0  0  0  0  0  0  0  0  0
  137.3201   70.7940  223.5994 H   0  0  0  0  0  0  0  0  0  0  0  0
  139.1900   70.2710  224.3930 C   0  0  0  0  0  0  0  0  0  0  0  0
  140.0960   71.1410  225.0280 C   0  0  0  0  0  0  0  0  0  0  0  0
  140.1667   72.1887  224.7003 H   0  0  0  0  0  0  0  0  0  0  0  0
  140.9070   70.6850  226.0720 C   0  0  0  0  0  0  0  0  0  0  0  0
  141.6069   71.3755  226.5653 H   0  0  0  0  0  0  0  0  0  0  0  0
  140.8300   69.3560  226.4890 C   0  0  0  0  0  0  0  0  0  0  0  0
  141.4662   69.0006  227.3130 H   0  0  0  0  0  0  0  0  0  0  0  0
  139.9460   68.4770  225.8610 C   0  0  0  0  0  0  0  0  0  0  0  0
  139.8885   67.4286  226.1891 H   0  0  0  0  0  0  0  0  0  0  0  0
  139.1330   68.9270  224.8150 C   0  0  0  0  0  0  0  0  0  0  0  0
  138.4446   68.2273  224.3185 H   0  0  0  0  0  0  0  0  0  0  0  0
  138.3510   69.9290  221.9800 C   0  0  0  0  0  0  0  0  0  0  0  0
  138.3414   68.8689  222.2735 H   0  0  0  0  0  0  0  0  0  0  0  0
  137.4548   70.1522  221.3824 H   0  0  0  0  0  0  0  0  0  0  0  0
  139.2511   70.1359  221.3824 H   0  0  0  0  0  0  0  0  0  0  0  0
  139.3510   74.9460  222.2660 C   0  0  0  0  0  0  0  0  0  0  0  0
  138.3635   74.6790  222.6703 H   0  0  0  0  0  0  0  0  0  0  0  0
  139.7330   76.2930  222.1980 C   0  0  0  0  0  0  0  0  0  0  0  0
  138.9030   77.3410  222.6360 C   0  0  0  0  0  0  0  0  0  0  0  0
  137.7610   77.0740  223.1090 O   0  0  0  0  0  0  0  0  0  0  0  0
  139.3340   78.6420  222.5500 N   0  0  0  0  0  0  0  0  0  0  0  0
  138.5330   79.6750  222.9750 C   0  0  0  0  0  0  0  0  0  0  0  0
  137.5377   79.4557  223.3888 H   0  0  0  0  0  0  0  0  0  0  0  0
  138.9670   80.9990  222.8880 C   0  0  0  0  0  0  0  0  0  0  0  0
  138.3168   81.8175  223.2305 H   0  0  0  0  0  0  0  0  0  0  0  0
  140.2260   81.2780  222.3660 C   0  0  0  0  0  0  0  0  0  0  0  0
  140.5769   82.3181  222.2947 H   0  0  0  0  0  0  0  0  0  0  0  0
  141.0400   80.2330  221.9340 C   0  0  0  0  0  0  0  0  0  0  0  0
  142.0364   80.4434  221.5183 H   0  0  0  0  0  0  0  0  0  0  0  0
  140.5830   78.9160  222.0320 C   0  0  0  0  0  0  0  0  0  0  0  0
  141.3860   77.9060  221.6070 N   0  0  0  0  0  0  0  0  0  0  0  0
  140.9960   76.6110  221.6790 C   0  0  0  0  0  0  0  0  0  0  0  0
  141.8270   75.6260  221.2410 N   0  0  0  0  0  0  0  0  0  0  0  0
  142.7580   75.8930  220.8460 H   0  0  0  0  0  0  0  0  0  0  0  0
  1  2  1  0
  2  3  2  0
  3  4  1  0
  4  5  1  0
  5  6  2  0
  5  7  1  0
  7  8  1  0
  7  9  1  0
  9 10  1  1
  9 11  1  0
 11 12  2  0
 12 13  1  0
 12 14  1  0
 14 15  1  0
 14 16  2  0
 16 17  1  0
 16 18  1  0
 18 19  1  0
 18 20  2  0
 20 21  1  0
  9 22  1  0
 22 23  1  0
 22 24  1  0
 22 25  1  0
  4 26  2  0
 26 27  1  0
 26 28  1  0
 28 29  1  0
 29 30  2  0
 29 31  1  0
 31 32  1  0
 32 33  1  0
 32 34  2  0
 34 35  1  0
 34 36  1  0
 36 37  1  0
 36 38  2  0
 38 39  1  0
 38 40  1  0
 40 41  2  0
 41 42  1  0
 42 43  1  0
 43 44  1  0
 43  3  1  0
 20 11  1  0
 42 28  2  0
 40 31  1  0
M  END
>  <UniqueID>  (19) 
31

>  <SMILES>  (19) 
[H]/N=c1/[nH]c2nc3ccccn3c(=O)c2cc1C(=O)N[C@@H](C)c1ccccc1

>  <Energy>  (19) 
65.80136345137069

>  <Genealogy>  (19) 
[H]/N=c1/[nH]c2nc3ccccn3c(=O)c2cc1C(=O)N[C@@H](C)c1ccccc1 (cis-trans isomerization)
[H]/N=c1/[nH]c2nc3ccccn3c(=O)c2cc1C(=O)N[C@@H](C)c1ccccc1 (3D coordinates assigned)
[H]/N=c1/[nH]c2nc3ccccn3c(=O)c2cc1C(=O)N[C@@H](C)c1ccccc1 (optimized conformer: 65.80136345137069 kcal/mol)

>  <smiles>  (19) 
C[C@H](NC(=O)c1cc2c(=O)n3ccccc3nc2[nH]c1=N)c1ccccc1

>  <score_type>  (19) 
oracle

>  <origin>  (19) 
autodockgpu

>  <m_score__min__energy>  (19) 
-8.1799999999999997

>  <m_primary>  (19) 
energy

>  <meeko>  (19) 
{"free_energy": -6.98, "intermolecular_energy": -8.18, "internal_energy": -0.88, "cluster_size": 1, "cluster_id": 4, "rank_in_cluster": 1}

>  <energy>  (19) 
-6.95

>  <cluster_rmsd>  (19) 
1.34

>  <rmsd>  (19) 
271.03

>  <cluster>  (19) 
3

$$$$
OOSPKVZPLIIQRF-ZMYHIABLNA-N
     RDKit          3D

 44 47  0  0  0  0  0  0  0  0999 V2000
  144.0880   76.9260  220.7590 H   0  0  0  0  0  0  0  0  0  0  0  0
  144.0350   76.3260  219.9080 N   0  0  0  0  0  0  0  0  0  0  0  0
  143.7340   75.0620  219.9100 C   0  0  0  0  0  0  0  0  0  0  0  0
  142.4430   74.5980  220.2750 C   0  0  0  0  0  0  0  0  0  0  0  0
  141.3140   75.5090  220.5680 C   0  0  0  0  0  0  0  0  0  0  0  0
  140.1350   75.1370  220.3240 O   0  0  0  0  0  0  0  0  0  0  0  0
  141.5610   76.7900  221.1740 N   0  0  0  0  0  0  0  0  0  0  0  0
  142.5530   77.0870  221.3180 H   0  0  0  0  0  0  0  0  0  0  0  0
  140.5100   77.7050  221.6330 C   0  0  2  0  0  0  0  0  0  0  0  0
  140.0089   78.1646  220.7683 H   0  0  0  0  0  0  0  0  0  0  0  0
  141.1120   78.8680  222.4060 C   0  0  0  0  0  0  0  0  0  0  0  0
  140.2440   79.7330  223.0980 C   0  0  0  0  0  0  0  0  0  0  0  0
  139.1612   79.5396  223.0904 H   0  0  0  0  0  0  0  0  0  0  0  0
  140.7460   80.8360  223.7950 C   0  0  0  0  0  0  0  0  0  0  0  0
  140.0589   81.5010  224.3388 H   0  0  0  0  0  0  0  0  0  0  0  0
  142.1180   81.0950  223.8020 C   0  0  0  0  0  0  0  0  0  0  0  0
  142.5117   81.9612  224.3540 H   0  0  0  0  0  0  0  0  0  0  0  0
  142.9900   80.2540  223.1080 C   0  0  0  0  0  0  0  0  0  0  0  0
  144.0703   80.4612  223.1111 H   0  0  0  0  0  0  0  0  0  0  0  0
  142.4940   79.1490  222.4090 C   0  0  0  0  0  0  0  0  0  0  0  0
  143.1860   78.4950  221.8581 H   0  0  0  0  0  0  0  0  0  0  0  0
  139.4030   76.9370  222.3700 C   0  0  0  0  0  0  0  0  0  0  0  0
  139.5476   77.0373  223.4558 H   0  0  0  0  0  0  0  0  0  0  0  0
  138.4223   77.3497  222.0910 H   0  0  0  0  0  0  0  0  0  0  0  0
  139.4462   75.8738  222.0910 H   0  0  0  0  0  0  0  0  0  0  0  0
  142.2150   73.2150  220.3260 C   0  0  0  0  0  0  0  0  0  0  0  0
  141.2266   72.8354  220.6241 H   0  0  0  0  0  0  0  0  0  0  0  0
  143.2370   72.3130  220.0000 C   0  0  0  0  0  0  0  0  0  0  0  0
  143.0550   70.9180  220.0300 C   0  0  0  0  0  0  0  0  0  0  0  0
  141.9320   70.4440  220.3650 O   0  0  0  0  0  0  0  0  0  0  0  0
  144.0920   70.0810  219.6940 N   0  0  0  0  0  0  0  0  0  0  0  0
  143.9280   68.7180  219.7190 C   0  0  0  0  0  0  0  0  0  0  0  0
  142.9558   68.2933  220.0097 H   0  0  0  0  0  0  0  0  0  0  0  0
  144.9800   67.8640  219.3800 C   0  0  0  0  0  0  0  0  0  0  0  0
  144.8368   66.7736  219.4039 H   0  0  0  0  0  0  0  0  0  0  0  0
  146.2100   68.4000  219.0120 C   0  0  0  0  0  0  0  0  0  0  0  0
  147.0443   67.7358  218.7423 H   0  0  0  0  0  0  0  0  0  0  0  0
  146.3790   69.7820  218.9870 C   0  0  0  0  0  0  0  0  0  0  0  0
  147.3479   70.2153  218.6981 H   0  0  0  0  0  0  0  0  0  0  0  0
  145.3110   70.6160  219.3310 C   0  0  0  0  0  0  0  0  0  0  0  0
  145.4890   71.9620  219.3020 N   0  0  0  0  0  0  0  0  0  0  0  0
  144.4900   72.8170  219.6240 C   0  0  0  0  0  0  0  0  0  0  0  0
  144.7060   74.1610  219.5870 N   0  0  0  0  0  0  0  0  0  0  0  0
  145.6540   74.5090  219.3150 H   0  0  0  0  0  0  0  0  0  0  0  0
  1  2  1  0
  2  3  2  0
  3  4  1  0
  4  5  1  0
  5  6  2  0
  5  7  1  0
  7  8  1  0
  7  9  1  0
  9 10  1  6
  9 11  1  0
 11 12  2  0
 12 13  1  0
 12 14  1  0
 14 15  1  0
 14 16  2  0
 16 17  1  0
 16 18  1  0
 18 19  1  0
 18 20  2  0
 20 21  1  0
  9 22  1  0
 22 23  1  0
 22 24  1  0
 22 25  1  0
  4 26  2  0
 26 27  1  0
 26 28  1  0
 28 29  1  0
 29 30  2  0
 29 31  1  0
 31 32  1  0
 32 33  1  0
 32 34  2  0
 34 35  1  0
 34 36  1  0
 36 37  1  0
 36 38  2  0
 38 39  1  0
 38 40  1  0
 40 41  2  0
 41 42  1  0
 42 43  1  0
 43 44  1  0
 43  3  1  0
 20 11  1  0
 42 28  2  0
 40 31  1  0
M  END
>  <UniqueID>  (20) 
31

>  <SMILES>  (20) 
[H]/N=c1/[nH]c2nc3ccccn3c(=O)c2cc1C(=O)N[C@@H](C)c1ccccc1

>  <Energy>  (20) 
65.80136345137069

>  <Genealogy>  (20) 
[H]/N=c1/[nH]c2nc3ccccn3c(=O)c2cc1C(=O)N[C@@H](C)c1ccccc1 (cis-trans isomerization)
[H]/N=c1/[nH]c2nc3ccccn3c(=O)c2cc1C(=O)N[C@@H](C)c1ccccc1 (3D coordinates assigned)
[H]/N=c1/[nH]c2nc3ccccn3c(=O)c2cc1C(=O)N[C@@H](C)c1ccccc1 (optimized conformer: 65.80136345137069 kcal/mol)

>  <smiles>  (20) 
C[C@H](NC(=O)c1cc2c(=O)n3ccccc3nc2[nH]c1=N)c1ccccc1

>  <score_type>  (20) 
oracle

>  <origin>  (20) 
autodockgpu

>  <m_score__min__energy>  (20) 
-8.1799999999999997

>  <m_primary>  (20) 
energy

>  <meeko>  (20) 
{"free_energy": -8.17, "intermolecular_energy": -9.36, "internal_energy": -0.77, "cluster_size": 16, "cluster_id": 1, "rank_in_cluster": 4}

>  <energy>  (20) 
-6.98

>  <cluster_rmsd>  (20) 
0.0

>  <rmsd>  (20) 
271.08

>  <cluster>  (20) 
4

$$$$
HDANWICVGDYKAH-BQAWMTLJNA-M
     RDKit          3D

 43 46  0  0  0  0  0  0  0  0999 V2000
  140.2730   73.7760  222.2570 H   0  0  0  0  0  0  0  0  0  0  0  0
  140.7750   74.2350  221.4670 N   0  0  0  0  0  0  0  0  0  0  0  0
  141.8290   73.7510  220.8830 C   0  0  0  0  0  0  0  0  0  0  0  0
  142.0370   72.4090  220.9410 N   0  0  0  0  0  0  0  0  0  0  0  0
  143.0740   71.8030  220.3080 C   0  0  0  0  0  0  0  0  0  0  0  0
  143.2310   70.4630  220.4040 N   0  0  0  0  0  0  0  0  0  0  0  0
  144.2520   69.8230  219.7770 C   0  0  0  0  0  0  0  0  0  0  0  0
  144.3670   68.4350  219.9110 C   0  0  0  0  0  0  0  0  0  0  0  0
  143.6398   67.8754  220.5177 H   0  0  0  0  0  0  0  0  0  0  0  0
  145.4070   67.7670  219.2720 C   0  0  0  0  0  0  0  0  0  0  0  0
  145.5055   66.6759  219.3712 H   0  0  0  0  0  0  0  0  0  0  0  0
  146.3220   68.4840  218.5070 C   0  0  0  0  0  0  0  0  0  0  0  0
  147.1469   67.9634  217.9986 H   0  0  0  0  0  0  0  0  0  0  0  0
  146.1860   69.8690  218.3890 C   0  0  0  0  0  0  0  0  0  0  0  0
  146.9099   70.4362  217.7854 H   0  0  0  0  0  0  0  0  0  0  0  0
  145.1600   70.5320  219.0170 N   0  0  0  0  0  0  0  0  0  0  0  0
  145.0300   71.8960  218.8970 C   0  0  0  0  0  0  0  0  0  0  0  0
  145.8540   72.5600  218.2070 O   0  0  0  0  0  0  0  0  0  0  0  0
  143.9750   72.5610  219.5460 C   0  0  0  0  0  0  0  0  0  0  0  0
  143.7920   73.9510  219.4710 C   0  0  0  0  0  0  0  0  0  0  0  0
  144.4844   74.5619  218.8732 H   0  0  0  0  0  0  0  0  0  0  0  0
  142.7310   74.5660  220.1540 C   0  0  0  0  0  0  0  0  0  0  0  0
  142.6190   76.0400  220.0970 C   0  0  0  0  0  0  0  0  0  0  0  0
  143.6050   76.7200  219.7020 O   0  0  0  0  0  0  0  0  0  0  0  0
  141.4260   76.6980  220.5520 N   0  0  0  0  0  0  0  0  0  0  0  0
  140.7070   76.1190  221.0430 H   0  0  0  0  0  0  0  0  0  0  0  0
  141.2130   78.1400  220.3860 C   0  0  2  0  0  0  0  0  0  0  0  0
  141.8400   78.4898  219.5526 H   0  0  0  0  0  0  0  0  0  0  0  0
  141.6280   78.8910  221.6370 C   0  0  0  0  0  0  0  0  0  0  0  0
  142.2050   80.1730  221.5510 C   0  0  0  0  0  0  0  0  0  0  0  0
  142.3538   80.6407  220.5665 H   0  0  0  0  0  0  0  0  0  0  0  0
  142.5900   80.8550  222.7100 C   0  0  0  0  0  0  0  0  0  0  0  0
  143.0389   81.8564  222.6348 H   0  0  0  0  0  0  0  0  0  0  0  0
  142.4050   80.2660  223.9620 C   0  0  0  0  0  0  0  0  0  0  0  0
  142.7079   80.8040  224.8724 H   0  0  0  0  0  0  0  0  0  0  0  0
  141.8360   78.9950  224.0600 C   0  0  0  0  0  0  0  0  0  0  0  0
  141.6917   78.5329  225.0478 H   0  0  0  0  0  0  0  0  0  0  0  0
  141.4490   78.3080  222.9050 C   0  0  0  0  0  0  0  0  0  0  0  0
  141.0022   77.3063  222.9883 H   0  0  0  0  0  0  0  0  0  0  0  0
  139.7460   78.4280  220.0440 C   0  0  0  0  0  0  0  0  0  0  0  0
  139.1683   78.5414  220.9732 H   0  0  0  0  0  0  0  0  0  0  0  0
  139.6818   79.3559  219.4568 H   0  0  0  0  0  0  0  0  0  0  0  0
  139.3357   77.5933  219.4568 H   0  0  0  0  0  0  0  0  0  0  0  0
  1  2  1  0
  2  3  2  0
  3  4  1  0
  4  5  1  0
  5  6  1  0
  6  7  2  0
  7  8  1  0
  8  9  1  0
  8 10  2  0
 10 11  1  0
 10 12  1  0
 12 13  1  0
 12 14  2  0
 14 15  1  0
 14 16  1  0
 16 17  1  0
 17 18  2  0
 17 19  1  0
 19 20  1  0
 20 21  1  0
 20 22  2  0
 22 23  1  0
 23 24  2  0
 23 25  1  0
 25 26  1  0
 25 27  1  0
 27 28  1  6
 27 29  1  0
 29 30  2  0
 30 31  1  0
 30 32  1  0
 32 33  1  0
 32 34  2  0
 34 35  1  0
 34 36  1  0
 36 37  1  0
 36 38  2  0
 38 39  1  0
 27 40  1  0
 40 41  1  0
 40 42  1  0
 40 43  1  0
 22  3  1  0
 38 29  1  0
 19  5  2  0
 16  7  1  0
M  CHG  1   4  -1
M  END
>  <UniqueID>  (21) 
32

>  <SMILES>  (21) 
[H]/N=c1/[n-]c2nc3ccccn3c(=O)c2cc1C(=O)N[C@@H](C)c1ccccc1

>  <Energy>  (21) 
62.68123368203247

>  <Genealogy>  (21) 
C[C@H](NC(=O)c1cc2c(=O)n3ccccc3nc2[n-]c1=N)c1ccccc1 (protonated)
[H]/N=c1/[n-]c2nc3ccccn3c(=O)c2cc1C(=O)N[C@@H](C)c1ccccc1 (cis-trans isomerization)
[H]/N=c1/[n-]c2nc3ccccn3c(=O)c2cc1C(=O)N[C@@H](C)c1ccccc1 (3D coordinates assigned)
[H]/N=c1/[n-]c2nc3ccccn3c(=O)c2cc1C(=O)N[C@@H](C)c1ccccc1 (optimized conformer: 62.68123368203247 kcal/mol)

>  <smiles>  (21) 
C[C@H](NC(=O)c1cc2c(=O)n3ccccc3nc2[nH]c1=N)c1ccccc1

>  <score_type>  (21) 
oracle

>  <origin>  (21) 
autodockgpu

>  <m_score__min__energy>  (21) 
-7.5499999999999998

>  <m_primary>  (21) 
energy

>  <meeko>  (21) 
{"free_energy": -7.11, "intermolecular_energy": -8.3, "internal_energy": -1.03, "cluster_size": 8, "cluster_id": 2, "rank_in_cluster": 7}

>  <energy>  (21) 
-7.55

>  <cluster_rmsd>  (21) 
0.0

>  <rmsd>  (21) 
270.69

>  <cluster>  (21) 
1

$$$$
HDANWICVGDYKAH-BQAWMTLJNA-M
     RDKit          3D

 43 46  0  0  0  0  0  0  0  0999 V2000
  139.4040   73.8490  223.1010 H   0  0  0  0  0  0  0  0  0  0  0  0
  139.7520   74.4040  222.2900 N   0  0  0  0  0  0  0  0  0  0  0  0
  140.8330   74.1360  221.6230 C   0  0  0  0  0  0  0  0  0  0  0  0
  141.2410   72.8410  221.5520 N   0  0  0  0  0  0  0  0  0  0  0  0
  142.3210   72.4540  220.8270 C   0  0  0  0  0  0  0  0  0  0  0  0
  142.6790   71.1500  220.7960 N   0  0  0  0  0  0  0  0  0  0  0  0
  143.7480   70.7260  220.0730 C   0  0  0  0  0  0  0  0  0  0  0  0
  144.0750   69.3660  220.0780 C   0  0  0  0  0  0  0  0  0  0  0  0
  143.4726   68.6545  220.6618 H   0  0  0  0  0  0  0  0  0  0  0  0
  145.1670   68.9180  219.3400 C   0  0  0  0  0  0  0  0  0  0  0  0
  145.4312   67.8502  219.3370 H   0  0  0  0  0  0  0  0  0  0  0  0
  145.9230   69.8270  218.6060 C   0  0  0  0  0  0  0  0  0  0  0  0
  146.7873   69.4817  218.0198 H   0  0  0  0  0  0  0  0  0  0  0  0
  145.5780   71.1800  218.6180 C   0  0  0  0  0  0  0  0  0  0  0  0
  146.1768   71.8984  218.0390 H   0  0  0  0  0  0  0  0  0  0  0  0
  144.5000   71.6250  219.3440 N   0  0  0  0  0  0  0  0  0  0  0  0
  144.1630   72.9580  219.3520 C   0  0  0  0  0  0  0  0  0  0  0  0
  144.8420   73.7950  218.6910 O   0  0  0  0  0  0  0  0  0  0  0  0
  143.0580   73.4000  220.1000 C   0  0  0  0  0  0  0  0  0  0  0  0
  142.6670   74.7470  220.1560 C   0  0  0  0  0  0  0  0  0  0  0  0
  143.2275   75.5027  219.5861 H   0  0  0  0  0  0  0  0  0  0  0  0
  141.5660   75.1360  220.9340 C   0  0  0  0  0  0  0  0  0  0  0  0
  141.2340   76.5750  221.0140 C   0  0  0  0  0  0  0  0  0  0  0  0
  141.7270   77.3710  220.1700 O   0  0  0  0  0  0  0  0  0  0  0  0
  140.4130   77.0750  222.0820 N   0  0  0  0  0  0  0  0  0  0  0  0
  140.1770   76.4220  222.8630 H   0  0  0  0  0  0  0  0  0  0  0  0
  139.9430   78.4650  222.1260 C   0  0  2  0  0  0  0  0  0  0  0  0
  139.7603   78.8023  221.0951 H   0  0  0  0  0  0  0  0  0  0  0  0
  140.9950   79.3690  222.7370 C   0  0  0  0  0  0  0  0  0  0  0  0
  140.6270   80.4790  223.5220 C   0  0  0  0  0  0  0  0  0  0  0  0
  139.5629   80.6934  223.7003 H   0  0  0  0  0  0  0  0  0  0  0  0
  141.6050   81.3100  224.0760 C   0  0  0  0  0  0  0  0  0  0  0  0
  141.3085   82.1741  224.6887 H   0  0  0  0  0  0  0  0  0  0  0  0
  142.9580   81.0450  223.8530 C   0  0  0  0  0  0  0  0  0  0  0  0
  143.7260   81.7001  224.2900 H   0  0  0  0  0  0  0  0  0  0  0  0
  143.3360   79.9480  223.0750 C   0  0  0  0  0  0  0  0  0  0  0  0
  144.4019   79.7400  222.9003 H   0  0  0  0  0  0  0  0  0  0  0  0
  142.3620   79.1140  222.5180 C   0  0  0  0  0  0  0  0  0  0  0  0
  142.6658   78.2529  221.9046 H   0  0  0  0  0  0  0  0  0  0  0  0
  138.6280   78.5590  222.9090 C   0  0  0  0  0  0  0  0  0  0  0  0
  138.8418   78.5437  223.9879 H   0  0  0  0  0  0  0  0  0  0  0  0
  138.1135   79.4962  222.6504 H   0  0  0  0  0  0  0  0  0  0  0  0
  137.9854   77.7045  222.6504 H   0  0  0  0  0  0  0  0  0  0  0  0
  1  2  1  0
  2  3  2  0
  3  4  1  0
  4  5  1  0
  5  6  1  0
  6  7  2  0
  7  8  1  0
  8  9  1  0
  8 10  2  0
 10 11  1  0
 10 12  1  0
 12 13  1  0
 12 14  2  0
 14 15  1  0
 14 16  1  0
 16 17  1  0
 17 18  2  0
 17 19  1  0
 19 20  1  0
 20 21  1  0
 20 22  2  0
 22 23  1  0
 23 24  2  0
 23 25  1  0
 25 26  1  0
 25 27  1  0
 27 28  1  6
 27 29  1  0
 29 30  2  0
 30 31  1  0
 30 32  1  0
 32 33  1  0
 32 34  2  0
 34 35  1  0
 34 36  1  0
 36 37  1  0
 36 38  2  0
 38 39  1  0
 27 40  1  0
 40 41  1  0
 40 42  1  0
 40 43  1  0
 22  3  1  0
 38 29  1  0
 19  5  2  0
 16  7  1  0
M  CHG  1   4  -1
M  END
>  <UniqueID>  (22) 
32

>  <SMILES>  (22) 
[H]/N=c1/[n-]c2nc3ccccn3c(=O)c2cc1C(=O)N[C@@H](C)c1ccccc1

>  <Energy>  (22) 
62.68123368203247

>  <Genealogy>  (22) 
C[C@H](NC(=O)c1cc2c(=O)n3ccccc3nc2[n-]c1=N)c1ccccc1 (protonated)
[H]/N=c1/[n-]c2nc3ccccn3c(=O)c2cc1C(=O)N[C@@H](C)c1ccccc1 (cis-trans isomerization)
[H]/N=c1/[n-]c2nc3ccccn3c(=O)c2cc1C(=O)N[C@@H](C)c1ccccc1 (3D coordinates assigned)
[H]/N=c1/[n-]c2nc3ccccn3c(=O)c2cc1C(=O)N[C@@H](C)c1ccccc1 (optimized conformer: 62.68123368203247 kcal/mol)

>  <smiles>  (22) 
C[C@H](NC(=O)c1cc2c(=O)n3ccccc3nc2[nH]c1=N)c1ccccc1

>  <score_type>  (22) 
oracle

>  <origin>  (22) 
autodockgpu

>  <m_score__min__energy>  (22) 
-7.5499999999999998

>  <m_primary>  (22) 
energy

>  <meeko>  (22) 
{"free_energy": -7.15, "intermolecular_energy": -8.34, "internal_energy": -0.96, "cluster_size": 8, "cluster_id": 2, "rank_in_cluster": 1}

>  <energy>  (22) 
-7.55

>  <cluster_rmsd>  (22) 
0.05

>  <rmsd>  (22) 
270.69

>  <cluster>  (22) 
1

$$$$
HDANWICVGDYKAH-BQAWMTLJNA-M
     RDKit          3D

 43 46  0  0  0  0  0  0  0  0999 V2000
  139.4000   73.8720  223.1010 H   0  0  0  0  0  0  0  0  0  0  0  0
  139.7300   74.4040  222.2660 N   0  0  0  0  0  0  0  0  0  0  0  0
  140.8170   74.1410  221.6080 C   0  0  0  0  0  0  0  0  0  0  0  0
  141.2260   72.8460  221.5320 N   0  0  0  0  0  0  0  0  0  0  0  0
  142.3130   72.4650  220.8140 C   0  0  0  0  0  0  0  0  0  0  0  0
  142.6720   71.1610  220.7780 N   0  0  0  0  0  0  0  0  0  0  0  0
  143.7480   70.7420  220.0620 C   0  0  0  0  0  0  0  0  0  0  0  0
  144.0750   69.3820  220.0610 C   0  0  0  0  0  0  0  0  0  0  0  0
  143.4670   68.6663  220.6338 H   0  0  0  0  0  0  0  0  0  0  0  0
  145.1740   68.9400  219.3310 C   0  0  0  0  0  0  0  0  0  0  0  0
  145.4388   67.8724  219.3237 H   0  0  0  0  0  0  0  0  0  0  0  0
  145.9370   69.8540  218.6100 C   0  0  0  0  0  0  0  0  0  0  0  0
  146.8073   69.5127  218.0303 H   0  0  0  0  0  0  0  0  0  0  0  0
  145.5910   71.2070  218.6270 C   0  0  0  0  0  0  0  0  0  0  0  0
  146.1948   71.9294  218.0582 H   0  0  0  0  0  0  0  0  0  0  0  0
  144.5050   71.6470  219.3460 N   0  0  0  0  0  0  0  0  0  0  0  0
  144.1680   72.9800  219.3590 C   0  0  0  0  0  0  0  0  0  0  0  0
  144.8530   73.8210  218.7100 O   0  0  0  0  0  0  0  0  0  0  0  0
  143.0560   73.4160  220.1000 C   0  0  0  0  0  0  0  0  0  0  0  0
  142.6640   74.7620  220.1620 C   0  0  0  0  0  0  0  0  0  0  0  0
  143.2300   75.5218  219.6031 H   0  0  0  0  0  0  0  0  0  0  0  0
  141.5550   75.1460  220.9320 C   0  0  0  0  0  0  0  0  0  0  0  0
  141.2220   76.5840  221.0180 C   0  0  0  0  0  0  0  0  0  0  0  0
  141.7300   77.3870  220.1900 O   0  0  0  0  0  0  0  0  0  0  0  0
  140.3820   77.0750  222.0750 N   0  0  0  0  0  0  0  0  0  0  0  0
  140.1320   76.4150  222.8470 H   0  0  0  0  0  0  0  0  0  0  0  0
  139.9100   78.4640  222.1230 C   0  0  2  0  0  0  0  0  0  0  0  0
  139.7252   78.8041  221.0934 H   0  0  0  0  0  0  0  0  0  0  0  0
  140.9630   79.3670  222.7360 C   0  0  0  0  0  0  0  0  0  0  0  0
  140.5940   80.4920  223.5000 C   0  0  0  0  0  0  0  0  0  0  0  0
  139.5296   80.7186  223.6600 H   0  0  0  0  0  0  0  0  0  0  0  0
  141.5720   81.3220  224.0560 C   0  0  0  0  0  0  0  0  0  0  0  0
  141.2751   82.1970  224.6528 H   0  0  0  0  0  0  0  0  0  0  0  0
  142.9250   81.0420  223.8550 C   0  0  0  0  0  0  0  0  0  0  0  0
  143.6929   81.6963  224.2935 H   0  0  0  0  0  0  0  0  0  0  0  0
  143.3040   79.9310  223.0970 C   0  0  0  0  0  0  0  0  0  0  0  0
  144.3703   79.7120  222.9389 H   0  0  0  0  0  0  0  0  0  0  0  0
  142.3300   79.0970  222.5390 C   0  0  0  0  0  0  0  0  0  0  0  0
  142.6343   78.2244  221.9423 H   0  0  0  0  0  0  0  0  0  0  0  0
  138.5960   78.5550  222.9060 C   0  0  0  0  0  0  0  0  0  0  0  0
  138.8102   78.5402  223.9848 H   0  0  0  0  0  0  0  0  0  0  0  0
  138.0793   79.4911  222.6476 H   0  0  0  0  0  0  0  0  0  0  0  0
  137.9552   77.6991  222.6476 H   0  0  0  0  0  0  0  0  0  0  0  0
  1  2  1  0
  2  3  2  0
  3  4  1  0
  4  5  1  0
  5  6  1  0
  6  7  2  0
  7  8  1  0
  8  9  1  0
  8 10  2  0
 10 11  1  0
 10 12  1  0
 12 13  1  0
 12 14  2  0
 14 15  1  0
 14 16  1  0
 16 17  1  0
 17 18  2  0
 17 19  1  0
 19 20  1  0
 20 21  1  0
 20 22  2  0
 22 23  1  0
 23 24  2  0
 23 25  1  0
 25 26  1  0
 25 27  1  0
 27 28  1  6
 27 29  1  0
 29 30  2  0
 30 31  1  0
 30 32  1  0
 32 33  1  0
 32 34  2  0
 34 35  1  0
 34 36  1  0
 36 37  1  0
 36 38  2  0
 38 39  1  0
 27 40  1  0
 40 41  1  0
 40 42  1  0
 40 43  1  0
 22  3  1  0
 38 29  1  0
 19  5  2  0
 16  7  1  0
M  CHG  1   4  -1
M  END
>  <UniqueID>  (23) 
32

>  <SMILES>  (23) 
[H]/N=c1/[n-]c2nc3ccccn3c(=O)c2cc1C(=O)N[C@@H](C)c1ccccc1

>  <Energy>  (23) 
62.68123368203247

>  <Genealogy>  (23) 
C[C@H](NC(=O)c1cc2c(=O)n3ccccc3nc2[n-]c1=N)c1ccccc1 (protonated)
[H]/N=c1/[n-]c2nc3ccccn3c(=O)c2cc1C(=O)N[C@@H](C)c1ccccc1 (cis-trans isomerization)
[H]/N=c1/[n-]c2nc3ccccn3c(=O)c2cc1C(=O)N[C@@H](C)c1ccccc1 (3D coordinates assigned)
[H]/N=c1/[n-]c2nc3ccccn3c(=O)c2cc1C(=O)N[C@@H](C)c1ccccc1 (optimized conformer: 62.68123368203247 kcal/mol)

>  <smiles>  (23) 
C[C@H](NC(=O)c1cc2c(=O)n3ccccc3nc2[nH]c1=N)c1ccccc1

>  <score_type>  (23) 
oracle

>  <origin>  (23) 
autodockgpu

>  <m_score__min__energy>  (23) 
-7.5499999999999998

>  <m_primary>  (23) 
energy

>  <meeko>  (23) 
{"free_energy": -7.14, "intermolecular_energy": -8.34, "internal_energy": -0.95, "cluster_size": 8, "cluster_id": 2, "rank_in_cluster": 2}

>  <energy>  (23) 
-7.55

>  <cluster_rmsd>  (23) 
0.08

>  <rmsd>  (23) 
270.69

>  <cluster>  (23) 
1

$$$$
HDANWICVGDYKAH-BQAWMTLJNA-M
     RDKit          3D

 43 46  0  0  0  0  0  0  0  0999 V2000
  139.8650   74.1150  221.2090 H   0  0  0  0  0  0  0  0  0  0  0  0
  140.8520   74.2690  221.5100 N   0  0  0  0  0  0  0  0  0  0  0  0
  141.8910   73.7700  220.9120 C   0  0  0  0  0  0  0  0  0  0  0  0
  142.0870   72.4260  220.9760 N   0  0  0  0  0  0  0  0  0  0  0  0
  143.1070   71.8060  220.3300 C   0  0  0  0  0  0  0  0  0  0  0  0
  143.2530   70.4650  220.4340 N   0  0  0  0  0  0  0  0  0  0  0  0
  144.2560   69.8100  219.7940 C   0  0  0  0  0  0  0  0  0  0  0  0
  144.3600   68.4220  219.9370 C   0  0  0  0  0  0  0  0  0  0  0  0
  143.6382   67.8741  220.5605 H   0  0  0  0  0  0  0  0  0  0  0  0
  145.3830   67.7390  219.2850 C   0  0  0  0  0  0  0  0  0  0  0  0
  145.4732   66.6478  219.3907 H   0  0  0  0  0  0  0  0  0  0  0  0
  146.2910   68.4420  218.4990 C   0  0  0  0  0  0  0  0  0  0  0  0
  147.1024   67.9099  217.9808 H   0  0  0  0  0  0  0  0  0  0  0  0
  146.1660   69.8270  218.3720 C   0  0  0  0  0  0  0  0  0  0  0  0
  146.8843   70.3824  217.7510 H   0  0  0  0  0  0  0  0  0  0  0  0
  145.1570   70.5050  219.0130 N   0  0  0  0  0  0  0  0  0  0  0  0
  145.0380   71.8690  218.8850 C   0  0  0  0  0  0  0  0  0  0  0  0
  145.8570   72.5200  218.1750 O   0  0  0  0  0  0  0  0  0  0  0  0
  144.0020   72.5490  219.5470 C   0  0  0  0  0  0  0  0  0  0  0  0
  143.8310   73.9400  219.4640 C   0  0  0  0  0  0  0  0  0  0  0  0
  144.5189   74.5394  218.8495 H   0  0  0  0  0  0  0  0  0  0  0  0
  142.7880   74.5710  220.1600 C   0  0  0  0  0  0  0  0  0  0  0  0
  142.6890   76.0450  220.0950 C   0  0  0  0  0  0  0  0  0  0  0  0
  143.6620   76.7100  219.6460 O   0  0  0  0  0  0  0  0  0  0  0  0
  141.5270   76.7210  220.6000 N   0  0  0  0  0  0  0  0  0  0  0  0
  140.8260   76.1550  221.1310 H   0  0  0  0  0  0  0  0  0  0  0  0
  141.3210   78.1640  220.4300 C   0  0  2  0  0  0  0  0  0  0  0  0
  141.9824   78.5172  219.6251 H   0  0  0  0  0  0  0  0  0  0  0  0
  141.6830   78.9100  221.7000 C   0  0  0  0  0  0  0  0  0  0  0  0
  141.4650   78.3310  222.9650 C   0  0  0  0  0  0  0  0  0  0  0  0
  141.0316   77.3226  223.0372 H   0  0  0  0  0  0  0  0  0  0  0  0
  141.7960   79.0300  224.1300 C   0  0  0  0  0  0  0  0  0  0  0  0
  141.6236   78.5699  225.1142 H   0  0  0  0  0  0  0  0  0  0  0  0
  142.3450   80.3110  224.0460 C   0  0  0  0  0  0  0  0  0  0  0  0
  142.6052   80.8590  224.9636 H   0  0  0  0  0  0  0  0  0  0  0  0
  142.5640   80.8970  222.7970 C   0  0  0  0  0  0  0  0  0  0  0  0
  142.9968   81.9062  222.7323 H   0  0  0  0  0  0  0  0  0  0  0  0
  142.2340   80.2030  221.6290 C   0  0  0  0  0  0  0  0  0  0  0  0
  142.4061   80.6706  220.6483 H   0  0  0  0  0  0  0  0  0  0  0  0
  139.8710   78.4530  220.0270 C   0  0  0  0  0  0  0  0  0  0  0  0
  139.2566   78.5755  220.9312 H   0  0  0  0  0  0  0  0  0  0  0  0
  139.8334   79.3763  219.4303 H   0  0  0  0  0  0  0  0  0  0  0  0
  139.4822   77.6147  219.4303 H   0  0  0  0  0  0  0  0  0  0  0  0
  1  2  1  0
  2  3  2  0
  3  4  1  0
  4  5  1  0
  5  6  1  0
  6  7  2  0
  7  8  1  0
  8  9  1  0
  8 10  2  0
 10 11  1  0
 10 12  1  0
 12 13  1  0
 12 14  2  0
 14 15  1  0
 14 16  1  0
 16 17  1  0
 17 18  2  0
 17 19  1  0
 19 20  1  0
 20 21  1  0
 20 22  2  0
 22 23  1  0
 23 24  2  0
 23 25  1  0
 25 26  1  0
 25 27  1  0
 27 28  1  6
 27 29  1  0
 29 30  2  0
 30 31  1  0
 30 32  1  0
 32 33  1  0
 32 34  2  0
 34 35  1  0
 34 36  1  0
 36 37  1  0
 36 38  2  0
 38 39  1  0
 27 40  1  0
 40 41  1  0
 40 42  1  0
 40 43  1  0
 22  3  1  0
 38 29  1  0
 19  5  2  0
 16  7  1  0
M  CHG  1   4  -1
M  END
>  <UniqueID>  (24) 
32

>  <SMILES>  (24) 
[H]/N=c1/[n-]c2nc3ccccn3c(=O)c2cc1C(=O)N[C@@H](C)c1ccccc1

>  <Energy>  (24) 
62.68123368203247

>  <Genealogy>  (24) 
C[C@H](NC(=O)c1cc2c(=O)n3ccccc3nc2[n-]c1=N)c1ccccc1 (protonated)
[H]/N=c1/[n-]c2nc3ccccn3c(=O)c2cc1C(=O)N[C@@H](C)c1ccccc1 (cis-trans isomerization)
[H]/N=c1/[n-]c2nc3ccccn3c(=O)c2cc1C(=O)N[C@@H](C)c1ccccc1 (3D coordinates assigned)
[H]/N=c1/[n-]c2nc3ccccn3c(=O)c2cc1C(=O)N[C@@H](C)c1ccccc1 (optimized conformer: 62.68123368203247 kcal/mol)

>  <smiles>  (24) 
C[C@H](NC(=O)c1cc2c(=O)n3ccccc3nc2[nH]c1=N)c1ccccc1

>  <score_type>  (24) 
oracle

>  <origin>  (24) 
autodockgpu

>  <m_score__min__energy>  (24) 
-7.5499999999999998

>  <m_primary>  (24) 
energy

>  <meeko>  (24) 
{"free_energy": -7.09, "intermolecular_energy": -8.29, "internal_energy": -1.02, "cluster_size": 8, "cluster_id": 2, "rank_in_cluster": 8}

>  <energy>  (24) 
-7.54

>  <cluster_rmsd>  (24) 
0.05

>  <rmsd>  (24) 
270.71

>  <cluster>  (24) 
1

$$$$
HDANWICVGDYKAH-BQAWMTLJNA-M
     RDKit          3D

 43 46  0  0  0  0  0  0  0  0999 V2000
  144.1590   76.9280  220.6080 H   0  0  0  0  0  0  0  0  0  0  0  0
  144.0720   76.3140  219.7700 N   0  0  0  0  0  0  0  0  0  0  0  0
  143.7610   75.0540  219.8100 C   0  0  0  0  0  0  0  0  0  0  0  0
  144.7190   74.1450  219.4850 N   0  0  0  0  0  0  0  0  0  0  0  0
  144.5090   72.8060  219.5590 C   0  0  0  0  0  0  0  0  0  0  0  0
  145.5010   71.9490  219.2200 N   0  0  0  0  0  0  0  0  0  0  0  0
  145.3290   70.6040  219.2910 C   0  0  0  0  0  0  0  0  0  0  0  0
  146.3880   69.7650  218.9280 C   0  0  0  0  0  0  0  0  0  0  0  0
  147.3429   70.1939  218.5901 H   0  0  0  0  0  0  0  0  0  0  0  0
  146.2260   68.3840  218.9970 C   0  0  0  0  0  0  0  0  0  0  0  0
  147.0528   67.7160  218.7138 H   0  0  0  0  0  0  0  0  0  0  0  0
  145.0130   67.8520  219.4260 C   0  0  0  0  0  0  0  0  0  0  0  0
  144.8763   66.7621  219.4842 H   0  0  0  0  0  0  0  0  0  0  0  0
  143.9710   68.7110  219.7820 C   0  0  0  0  0  0  0  0  0  0  0  0
  143.0120   68.2905  220.1189 H   0  0  0  0  0  0  0  0  0  0  0  0
  144.1280   70.0740  219.7170 N   0  0  0  0  0  0  0  0  0  0  0  0
  143.0990   70.9150  220.0690 C   0  0  0  0  0  0  0  0  0  0  0  0
  141.9920   70.4460  220.4590 O   0  0  0  0  0  0  0  0  0  0  0  0
  143.2740   72.3080  219.9960 C   0  0  0  0  0  0  0  0  0  0  0  0
  142.2610   73.2200  220.3340 C   0  0  0  0  0  0  0  0  0  0  0  0
  141.2872   72.8491  220.6865 H   0  0  0  0  0  0  0  0  0  0  0  0
  142.4830   74.6020  220.2250 C   0  0  0  0  0  0  0  0  0  0  0  0
  141.3650   75.5200  220.5280 C   0  0  0  0  0  0  0  0  0  0  0  0
  140.1870   75.1780  220.2350 O   0  0  0  0  0  0  0  0  0  0  0  0
  141.6190   76.8180  221.0890 N   0  0  0  0  0  0  0  0  0  0  0  0
  142.6120   77.1390  221.1450 H   0  0  0  0  0  0  0  0  0  0  0  0
  140.5390   77.7060  221.5360 C   0  0  2  0  0  0  0  0  0  0  0  0
  140.0238   78.1011  220.6481 H   0  0  0  0  0  0  0  0  0  0  0  0
  141.0980   78.8790  222.3170 C   0  0  0  0  0  0  0  0  0  0  0  0
  142.4840   79.1220  222.3630 C   0  0  0  0  0  0  0  0  0  0  0  0
  143.1735   78.4572  221.8220 H   0  0  0  0  0  0  0  0  0  0  0  0
  142.9900   80.2030  223.0920 C   0  0  0  0  0  0  0  0  0  0  0  0
  144.0743   80.3860  223.1217 H   0  0  0  0  0  0  0  0  0  0  0  0
  142.1210   81.0500  223.7820 C   0  0  0  0  0  0  0  0  0  0  0  0
  142.5210   81.8999  224.3544 H   0  0  0  0  0  0  0  0  0  0  0  0
  140.7440   80.8190  223.7460 C   0  0  0  0  0  0  0  0  0  0  0  0
  140.0605   81.4874  224.2902 H   0  0  0  0  0  0  0  0  0  0  0  0
  140.2330   79.7390  223.0190 C   0  0  0  0  0  0  0  0  0  0  0  0
  139.1478   79.5606  222.9957 H   0  0  0  0  0  0  0  0  0  0  0  0
  139.5230   76.9280  222.3800 C   0  0  0  0  0  0  0  0  0  0  0  0
  139.7333   77.0891  223.4476 H   0  0  0  0  0  0  0  0  0  0  0  0
  138.5073   77.2814  222.1490 H   0  0  0  0  0  0  0  0  0  0  0  0
  139.5993   75.8552  222.1490 H   0  0  0  0  0  0  0  0  0  0  0  0
  1  2  1  0
  2  3  2  0
  3  4  1  0
  4  5  1  0
  5  6  1  0
  6  7  2  0
  7  8  1  0
  8  9  1  0
  8 10  2  0
 10 11  1  0
 10 12  1  0
 12 13  1  0
 12 14  2  0
 14 15  1  0
 14 16  1  0
 16 17  1  0
 17 18  2  0
 17 19  1  0
 19 20  1  0
 20 21  1  0
 20 22  2  0
 22 23  1  0
 23 24  2  0
 23 25  1  0
 25 26  1  0
 25 27  1  0
 27 28  1  6
 27 29  1  0
 29 30  2  0
 30 31  1  0
 30 32  1  0
 32 33  1  0
 32 34  2  0
 34 35  1  0
 34 36  1  0
 36 37  1  0
 36 38  2  0
 38 39  1  0
 27 40  1  0
 40 41  1  0
 40 42  1  0
 40 43  1  0
 22  3  1  0
 38 29  1  0
 19  5  2  0
 16  7  1  0
M  CHG  1   4  -1
M  END
>  <UniqueID>  (25) 
32

>  <SMILES>  (25) 
[H]/N=c1/[n-]c2nc3ccccn3c(=O)c2cc1C(=O)N[C@@H](C)c1ccccc1

>  <Energy>  (25) 
62.68123368203247

>  <Genealogy>  (25) 
C[C@H](NC(=O)c1cc2c(=O)n3ccccc3nc2[n-]c1=N)c1ccccc1 (protonated)
[H]/N=c1/[n-]c2nc3ccccn3c(=O)c2cc1C(=O)N[C@@H](C)c1ccccc1 (cis-trans isomerization)
[H]/N=c1/[n-]c2nc3ccccn3c(=O)c2cc1C(=O)N[C@@H](C)c1ccccc1 (3D coordinates assigned)
[H]/N=c1/[n-]c2nc3ccccn3c(=O)c2cc1C(=O)N[C@@H](C)c1ccccc1 (optimized conformer: 62.68123368203247 kcal/mol)

>  <smiles>  (25) 
C[C@H](NC(=O)c1cc2c(=O)n3ccccc3nc2[nH]c1=N)c1ccccc1

>  <score_type>  (25) 
oracle

>  <origin>  (25) 
autodockgpu

>  <m_score__min__energy>  (25) 
-7.5499999999999998

>  <m_primary>  (25) 
energy

>  <meeko>  (25) 
{"free_energy": -7.53, "intermolecular_energy": -8.73, "internal_energy": -0.9, "cluster_size": 11, "cluster_id": 1, "rank_in_cluster": 7}

>  <energy>  (25) 
-7.54

>  <cluster_rmsd>  (25) 
0.02

>  <rmsd>  (25) 
270.7

>  <cluster>  (25) 
1

$$$$
HDANWICVGDYKAH-BQAWMTLJNA-M
     RDKit          3D

 43 46  0  0  0  0  0  0  0  0999 V2000
  140.3410   75.2580  221.0240 H   0  0  0  0  0  0  0  0  0  0  0  0
  141.0710   74.6540  221.4590 N   0  0  0  0  0  0  0  0  0  0  0  0
  142.0480   74.0980  220.8100 C   0  0  0  0  0  0  0  0  0  0  0  0
  142.2560   72.7650  220.9790 N   0  0  0  0  0  0  0  0  0  0  0  0
  143.2110   72.0830  220.2960 C   0  0  0  0  0  0  0  0  0  0  0  0
  143.3720   70.7560  220.5080 N   0  0  0  0  0  0  0  0  0  0  0  0
  144.3110   70.0410  219.8360 C   0  0  0  0  0  0  0  0  0  0  0  0
  144.4350   68.6720  220.0950 C   0  0  0  0  0  0  0  0  0  0  0  0
  143.7802   68.1871  220.8340 H   0  0  0  0  0  0  0  0  0  0  0  0
  145.3920   67.9270  219.4120 C   0  0  0  0  0  0  0  0  0  0  0  0
  145.4968   66.8498  219.6088 H   0  0  0  0  0  0  0  0  0  0  0  0
  146.2160   68.5500  218.4790 C   0  0  0  0  0  0  0  0  0  0  0  0
  146.9748   67.9684  217.9349 H   0  0  0  0  0  0  0  0  0  0  0  0
  146.0730   69.9190  218.2380 C   0  0  0  0  0  0  0  0  0  0  0  0
  146.7246   70.4120  217.5016 H   0  0  0  0  0  0  0  0  0  0  0  0
  145.1280   70.6570  218.9100 N   0  0  0  0  0  0  0  0  0  0  0  0
  144.9910   72.0040  218.6690 C   0  0  0  0  0  0  0  0  0  0  0  0
  145.7330   72.5830  217.8250 O   0  0  0  0  0  0  0  0  0  0  0  0
  144.0210   72.7470  219.3640 C   0  0  0  0  0  0  0  0  0  0  0  0
  143.8360   74.1250  219.1700 C   0  0  0  0  0  0  0  0  0  0  0  0
  144.4570   74.6619  218.4378 H   0  0  0  0  0  0  0  0  0  0  0  0
  142.8640   74.8220  219.9040 C   0  0  0  0  0  0  0  0  0  0  0  0
  142.7530   76.2840  219.7130 C   0  0  0  0  0  0  0  0  0  0  0  0
  143.3100   76.8220  218.7180 O   0  0  0  0  0  0  0  0  0  0  0  0
  142.0760   77.0970  220.6860 N   0  0  0  0  0  0  0  0  0  0  0  0
  141.7910   76.6460  221.5850 H   0  0  0  0  0  0  0  0  0  0  0  0
  141.8180   78.5250  220.4720 C   0  0  2  0  0  0  0  0  0  0  0  0
  142.5964   78.9223  219.8039 H   0  0  0  0  0  0  0  0  0  0  0  0
  141.8880   79.2850  221.7830 C   0  0  0  0  0  0  0  0  0  0  0  0
  142.0960   80.6780  221.8010 C   0  0  0  0  0  0  0  0  0  0  0  0
  142.2048   81.2265  220.8537 H   0  0  0  0  0  0  0  0  0  0  0  0
  142.1650   81.3680  223.0150 C   0  0  0  0  0  0  0  0  0  0  0  0
  142.3268   82.4560  223.0196 H   0  0  0  0  0  0  0  0  0  0  0  0
  142.0290   80.6790  224.2210 C   0  0  0  0  0  0  0  0  0  0  0  0
  142.0832   81.2241  225.1749 H   0  0  0  0  0  0  0  0  0  0  0  0
  141.8240   79.2970  224.2170 C   0  0  0  0  0  0  0  0  0  0  0  0
  141.7175   78.7549  225.1682 H   0  0  0  0  0  0  0  0  0  0  0  0
  141.7540   78.6020  223.0060 C   0  0  0  0  0  0  0  0  0  0  0  0
  141.5931   77.5138  223.0092 H   0  0  0  0  0  0  0  0  0  0  0  0
  140.4540   78.7270  219.8020 C   0  0  0  0  0  0  0  0  0  0  0  0
  139.6794   78.8417  220.5746 H   0  0  0  0  0  0  0  0  0  0  0  0
  140.4835   79.6306  219.1754 H   0  0  0  0  0  0  0  0  0  0  0  0
  140.2204   77.8537  219.1754 H   0  0  0  0  0  0  0  0  0  0  0  0
  1  2  1  0
  2  3  2  0
  3  4  1  0
  4  5  1  0
  5  6  1  0
  6  7  2  0
  7  8  1  0
  8  9  1  0
  8 10  2  0
 10 11  1  0
 10 12  1  0
 12 13  1  0
 12 14  2  0
 14 15  1  0
 14 16  1  0
 16 17  1  0
 17 18  2  0
 17 19  1  0
 19 20  1  0
 20 21  1  0
 20 22  2  0
 22 23  1  0
 23 24  2  0
 23 25  1  0
 25 26  1  0
 25 27  1  0
 27 28  1  6
 27 29  1  0
 29 30  2  0
 30 31  1  0
 30 32  1  0
 32 33  1  0
 32 34  2  0
 34 35  1  0
 34 36  1  0
 36 37  1  0
 36 38  2  0
 38 39  1  0
 27 40  1  0
 40 41  1  0
 40 42  1  0
 40 43  1  0
 22  3  1  0
 38 29  1  0
 19  5  2  0
 16  7  1  0
M  CHG  1   4  -1
M  END
>  <UniqueID>  (26) 
32

>  <SMILES>  (26) 
[H]/N=c1/[n-]c2nc3ccccn3c(=O)c2cc1C(=O)N[C@@H](C)c1ccccc1

>  <Energy>  (26) 
62.68123368203247

>  <Genealogy>  (26) 
C[C@H](NC(=O)c1cc2c(=O)n3ccccc3nc2[n-]c1=N)c1ccccc1 (protonated)
[H]/N=c1/[n-]c2nc3ccccn3c(=O)c2cc1C(=O)N[C@@H](C)c1ccccc1 (cis-trans isomerization)
[H]/N=c1/[n-]c2nc3ccccn3c(=O)c2cc1C(=O)N[C@@H](C)c1ccccc1 (3D coordinates assigned)
[H]/N=c1/[n-]c2nc3ccccn3c(=O)c2cc1C(=O)N[C@@H](C)c1ccccc1 (optimized conformer: 62.68123368203247 kcal/mol)

>  <smiles>  (26) 
C[C@H](NC(=O)c1cc2c(=O)n3ccccc3nc2[nH]c1=N)c1ccccc1

>  <score_type>  (26) 
oracle

>  <origin>  (26) 
autodockgpu

>  <m_score__min__energy>  (26) 
-7.5499999999999998

>  <m_primary>  (26) 
energy

>  <meeko>  (26) 
{"free_energy": -7.17, "intermolecular_energy": -8.37, "internal_energy": -0.97, "cluster_size": 11, "cluster_id": 1, "rank_in_cluster": 10}

>  <energy>  (26) 
-7.54

>  <cluster_rmsd>  (26) 
0.08

>  <rmsd>  (26) 
270.69

>  <cluster>  (26) 
1

$$$$
HDANWICVGDYKAH-BQAWMTLJNA-M
     RDKit          3D

 43 46  0  0  0  0  0  0  0  0999 V2000
  140.4210   73.8080  222.3460 H   0  0  0  0  0  0  0  0  0  0  0  0
  140.8850   74.2290  221.5130 N   0  0  0  0  0  0  0  0  0  0  0  0
  141.9250   73.7290  220.9180 C   0  0  0  0  0  0  0  0  0  0  0  0
  142.1210   72.3850  220.9870 N   0  0  0  0  0  0  0  0  0  0  0  0
  143.1430   71.7630  220.3440 C   0  0  0  0  0  0  0  0  0  0  0  0
  143.2880   70.4220  220.4520 N   0  0  0  0  0  0  0  0  0  0  0  0
  144.2920   69.7660  219.8160 C   0  0  0  0  0  0  0  0  0  0  0  0
  144.3960   68.3780  219.9620 C   0  0  0  0  0  0  0  0  0  0  0  0
  143.6728   67.8316  220.5852 H   0  0  0  0  0  0  0  0  0  0  0  0
  145.4200   67.6930  219.3140 C   0  0  0  0  0  0  0  0  0  0  0  0
  145.5093   66.6020  219.4221 H   0  0  0  0  0  0  0  0  0  0  0  0
  146.3300   68.3940  218.5290 C   0  0  0  0  0  0  0  0  0  0  0  0
  147.1427   67.8604  218.0144 H   0  0  0  0  0  0  0  0  0  0  0  0
  146.2060   69.7790  218.3980 C   0  0  0  0  0  0  0  0  0  0  0  0
  146.9258   70.3327  217.7772 H   0  0  0  0  0  0  0  0  0  0  0  0
  145.1960   70.4580  219.0350 N   0  0  0  0  0  0  0  0  0  0  0  0
  145.0770   71.8220  218.9030 C   0  0  0  0  0  0  0  0  0  0  0  0
  145.8980   72.4710  218.1940 O   0  0  0  0  0  0  0  0  0  0  0  0
  144.0390   72.5040  219.5620 C   0  0  0  0  0  0  0  0  0  0  0  0
  143.8690   73.8950  219.4740 C   0  0  0  0  0  0  0  0  0  0  0  0
  144.5578   74.4922  218.8585 H   0  0  0  0  0  0  0  0  0  0  0  0
  142.8250   74.5280  220.1670 C   0  0  0  0  0  0  0  0  0  0  0  0
  142.7260   76.0010  220.0980 C   0  0  0  0  0  0  0  0  0  0  0  0
  143.6990   76.6650  219.6450 O   0  0  0  0  0  0  0  0  0  0  0  0
  141.5650   76.6790  220.6030 N   0  0  0  0  0  0  0  0  0  0  0  0
  140.8640   76.1150  221.1360 H   0  0  0  0  0  0  0  0  0  0  0  0
  141.3600   78.1220  220.4290 C   0  0  2  0  0  0  0  0  0  0  0  0
  142.0476   78.4786  219.6479 H   0  0  0  0  0  0  0  0  0  0  0  0
  141.6750   78.8670  221.7120 C   0  0  0  0  0  0  0  0  0  0  0  0
  141.4490   78.2710  222.9680 C   0  0  0  0  0  0  0  0  0  0  0  0
  141.0424   77.2504  223.0232 H   0  0  0  0  0  0  0  0  0  0  0  0
  141.7380   78.9680  224.1450 C   0  0  0  0  0  0  0  0  0  0  0  0
  141.5600   78.4941  225.1216 H   0  0  0  0  0  0  0  0  0  0  0  0
  142.2520   80.2640  224.0830 C   0  0  0  0  0  0  0  0  0  0  0  0
  142.4784   80.8108  225.0102 H   0  0  0  0  0  0  0  0  0  0  0  0
  142.4790   80.8670  222.8430 C   0  0  0  0  0  0  0  0  0  0  0  0
  142.8842   81.8885  222.7952 H   0  0  0  0  0  0  0  0  0  0  0  0
  142.1920   80.1740  221.6630 C   0  0  0  0  0  0  0  0  0  0  0  0
  142.3718   80.6543  220.6898 H   0  0  0  0  0  0  0  0  0  0  0  0
  139.9220   78.4070  219.9780 C   0  0  0  0  0  0  0  0  0  0  0  0
  139.2791   78.5344  220.8614 H   0  0  0  0  0  0  0  0  0  0  0  0
  139.9024   79.3265  219.3746 H   0  0  0  0  0  0  0  0  0  0  0  0
  139.5532   77.5645  219.3746 H   0  0  0  0  0  0  0  0  0  0  0  0
  1  2  1  0
  2  3  2  0
  3  4  1  0
  4  5  1  0
  5  6  1  0
  6  7  2  0
  7  8  1  0
  8  9  1  0
  8 10  2  0
 10 11  1  0
 10 12  1  0
 12 13  1  0
 12 14  2  0
 14 15  1  0
 14 16  1  0
 16 17  1  0
 17 18  2  0
 17 19  1  0
 19 20  1  0
 20 21  1  0
 20 22  2  0
 22 23  1  0
 23 24  2  0
 23 25  1  0
 25 26  1  0
 25 27  1  0
 27 28  1  6
 27 29  1  0
 29 30  2  0
 30 31  1  0
 30 32  1  0
 32 33  1  0
 32 34  2  0
 34 35  1  0
 34 36  1  0
 36 37  1  0
 36 38  2  0
 38 39  1  0
 27 40  1  0
 40 41  1  0
 40 42  1  0
 40 43  1  0
 22  3  1  0
 38 29  1  0
 19  5  2  0
 16  7  1  0
M  CHG  1   4  -1
M  END
>  <UniqueID>  (27) 
32

>  <SMILES>  (27) 
[H]/N=c1/[n-]c2nc3ccccn3c(=O)c2cc1C(=O)N[C@@H](C)c1ccccc1

>  <Energy>  (27) 
62.68123368203247

>  <Genealogy>  (27) 
C[C@H](NC(=O)c1cc2c(=O)n3ccccc3nc2[n-]c1=N)c1ccccc1 (protonated)
[H]/N=c1/[n-]c2nc3ccccn3c(=O)c2cc1C(=O)N[C@@H](C)c1ccccc1 (cis-trans isomerization)
[H]/N=c1/[n-]c2nc3ccccn3c(=O)c2cc1C(=O)N[C@@H](C)c1ccccc1 (3D coordinates assigned)
[H]/N=c1/[n-]c2nc3ccccn3c(=O)c2cc1C(=O)N[C@@H](C)c1ccccc1 (optimized conformer: 62.68123368203247 kcal/mol)

>  <smiles>  (27) 
C[C@H](NC(=O)c1cc2c(=O)n3ccccc3nc2[nH]c1=N)c1ccccc1

>  <score_type>  (27) 
oracle

>  <origin>  (27) 
autodockgpu

>  <m_score__min__energy>  (27) 
-7.5499999999999998

>  <m_primary>  (27) 
energy

>  <meeko>  (27) 
{"free_energy": -7.13, "intermolecular_energy": -8.32, "internal_energy": -1.01, "cluster_size": 8, "cluster_id": 2, "rank_in_cluster": 4}

>  <energy>  (27) 
-7.53

>  <cluster_rmsd>  (27) 
0.09

>  <rmsd>  (27) 
270.69

>  <cluster>  (27) 
1

$$$$
HDANWICVGDYKAH-BQAWMTLJNA-M
     RDKit          3D

 43 46  0  0  0  0  0  0  0  0999 V2000
  144.4750   76.8210  220.5810 H   0  0  0  0  0  0  0  0  0  0  0  0
  144.0740   76.2860  219.7800 N   0  0  0  0  0  0  0  0  0  0  0  0
  143.7740   75.0230  219.8150 C   0  0  0  0  0  0  0  0  0  0  0  0
  144.7420   74.1230  219.4940 N   0  0  0  0  0  0  0  0  0  0  0  0
  144.5430   72.7820  219.5640 C   0  0  0  0  0  0  0  0  0  0  0  0
  145.5440   71.9350  219.2290 N   0  0  0  0  0  0  0  0  0  0  0  0
  145.3830   70.5880  219.2960 C   0  0  0  0  0  0  0  0  0  0  0  0
  146.4510   69.7590  218.9370 C   0  0  0  0  0  0  0  0  0  0  0  0
  147.4042   70.1967  218.6054 H   0  0  0  0  0  0  0  0  0  0  0  0
  146.3000   68.3760  219.0020 C   0  0  0  0  0  0  0  0  0  0  0  0
  147.1341   67.7156  218.7226 H   0  0  0  0  0  0  0  0  0  0  0  0
  145.0890   67.8330  219.4220 C   0  0  0  0  0  0  0  0  0  0  0  0
  144.9609   66.7418  219.4762 H   0  0  0  0  0  0  0  0  0  0  0  0
  144.0380   68.6820  219.7740 C   0  0  0  0  0  0  0  0  0  0  0  0
  143.0809   68.2528  220.1052 H   0  0  0  0  0  0  0  0  0  0  0  0
  144.1840   70.0470  219.7120 N   0  0  0  0  0  0  0  0  0  0  0  0
  143.1460   70.8790  220.0610 C   0  0  0  0  0  0  0  0  0  0  0  0
  142.0400   70.3990  220.4430 O   0  0  0  0  0  0  0  0  0  0  0  0
  143.3090   72.2730  219.9920 C   0  0  0  0  0  0  0  0  0  0  0  0
  142.2860   73.1760  220.3250 C   0  0  0  0  0  0  0  0  0  0  0  0
  141.3129   72.7962  220.6696 H   0  0  0  0  0  0  0  0  0  0  0  0
  142.4970   74.5590  220.2210 C   0  0  0  0  0  0  0  0  0  0  0  0
  141.3690   75.4680  220.5200 C   0  0  0  0  0  0  0  0  0  0  0  0
  140.1970   75.1180  220.2140 O   0  0  0  0  0  0  0  0  0  0  0  0
  141.6090   76.7650  221.0890 N   0  0  0  0  0  0  0  0  0  0  0  0
  142.5990   77.0930  221.1560 H   0  0  0  0  0  0  0  0  0  0  0  0
  140.5180   77.6420  221.5320 C   0  0  2  0  0  0  0  0  0  0  0  0
  140.0155   78.0486  220.6420 H   0  0  0  0  0  0  0  0  0  0  0  0
  141.0600   78.8050  222.3400 C   0  0  0  0  0  0  0  0  0  0  0  0
  140.1950   79.6390  223.0740 C   0  0  0  0  0  0  0  0  0  0  0  0
  139.1123   79.4449  223.0671 H   0  0  0  0  0  0  0  0  0  0  0  0
  140.7040   80.7130  223.8120 C   0  0  0  0  0  0  0  0  0  0  0  0
  140.0217   81.3587  224.3843 H   0  0  0  0  0  0  0  0  0  0  0  0
  142.0760   80.9660  223.8230 C   0  0  0  0  0  0  0  0  0  0  0  0
  142.4740   81.8109  224.4042 H   0  0  0  0  0  0  0  0  0  0  0  0
  142.9450   80.1480  223.0970 C   0  0  0  0  0  0  0  0  0  0  0  0
  144.0263   80.3495  223.1066 H   0  0  0  0  0  0  0  0  0  0  0  0
  142.4410   79.0730  222.3580 C   0  0  0  0  0  0  0  0  0  0  0  0
  143.1291   78.4325  221.7868 H   0  0  0  0  0  0  0  0  0  0  0  0
  139.4920   76.8480  222.3470 C   0  0  0  0  0  0  0  0  0  0  0  0
  139.6828   76.9956  223.4202 H   0  0  0  0  0  0  0  0  0  0  0  0
  138.4786   77.1995  222.1030 H   0  0  0  0  0  0  0  0  0  0  0  0
  139.5780   75.7789  222.1030 H   0  0  0  0  0  0  0  0  0  0  0  0
  1  2  1  0
  2  3  2  0
  3  4  1  0
  4  5  1  0
  5  6  1  0
  6  7  2  0
  7  8  1  0
  8  9  1  0
  8 10  2  0
 10 11  1  0
 10 12  1  0
 12 13  1  0
 12 14  2  0
 14 15  1  0
 14 16  1  0
 16 17  1  0
 17 18  2  0
 17 19  1  0
 19 20  1  0
 20 21  1  0
 20 22  2  0
 22 23  1  0
 23 24  2  0
 23 25  1  0
 25 26  1  0
 25 27  1  0
 27 28  1  6
 27 29  1  0
 29 30  2  0
 30 31  1  0
 30 32  1  0
 32 33  1  0
 32 34  2  0
 34 35  1  0
 34 36  1  0
 36 37  1  0
 36 38  2  0
 38 39  1  0
 27 40  1  0
 40 41  1  0
 40 42  1  0
 40 43  1  0
 22  3  1  0
 38 29  1  0
 19  5  2  0
 16  7  1  0
M  CHG  1   4  -1
M  END
>  <UniqueID>  (28) 
32

>  <SMILES>  (28) 
[H]/N=c1/[n-]c2nc3ccccn3c(=O)c2cc1C(=O)N[C@@H](C)c1ccccc1

>  <Energy>  (28) 
62.68123368203247

>  <Genealogy>  (28) 
C[C@H](NC(=O)c1cc2c(=O)n3ccccc3nc2[n-]c1=N)c1ccccc1 (protonated)
[H]/N=c1/[n-]c2nc3ccccn3c(=O)c2cc1C(=O)N[C@@H](C)c1ccccc1 (cis-trans isomerization)
[H]/N=c1/[n-]c2nc3ccccn3c(=O)c2cc1C(=O)N[C@@H](C)c1ccccc1 (3D coordinates assigned)
[H]/N=c1/[n-]c2nc3ccccn3c(=O)c2cc1C(=O)N[C@@H](C)c1ccccc1 (optimized conformer: 62.68123368203247 kcal/mol)

>  <smiles>  (28) 
C[C@H](NC(=O)c1cc2c(=O)n3ccccc3nc2[nH]c1=N)c1ccccc1

>  <score_type>  (28) 
oracle

>  <origin>  (28) 
autodockgpu

>  <m_score__min__energy>  (28) 
-7.5499999999999998

>  <m_primary>  (28) 
energy

>  <meeko>  (28) 
{"free_energy": -7.55, "intermolecular_energy": -8.75, "internal_energy": -0.9, "cluster_size": 11, "cluster_id": 1, "rank_in_cluster": 1}

>  <energy>  (28) 
-7.48

>  <cluster_rmsd>  (28) 
0.55

>  <rmsd>  (28) 
270.65

>  <cluster>  (28) 
1

$$$$
HDANWICVGDYKAH-BQAWMTLJNA-M
     RDKit          3D

 43 46  0  0  0  0  0  0  0  0999 V2000
  144.4600   76.8440  220.5310 H   0  0  0  0  0  0  0  0  0  0  0  0
  144.0800   76.2960  219.7300 N   0  0  0  0  0  0  0  0  0  0  0  0
  143.7810   75.0330  219.7780 C   0  0  0  0  0  0  0  0  0  0  0  0
  144.7470   74.1310  219.4600 N   0  0  0  0  0  0  0  0  0  0  0  0
  144.5490   72.7900  219.5420 C   0  0  0  0  0  0  0  0  0  0  0  0
  145.5480   71.9410  219.2100 N   0  0  0  0  0  0  0  0  0  0  0  0
  145.3880   70.5940  219.2890 C   0  0  0  0  0  0  0  0  0  0  0  0
  146.4540   69.7620  218.9320 C   0  0  0  0  0  0  0  0  0  0  0  0
  147.4051   70.1968  218.5909 H   0  0  0  0  0  0  0  0  0  0  0  0
  146.3040   68.3800  219.0110 C   0  0  0  0  0  0  0  0  0  0  0  0
  147.1367   67.7173  218.7329 H   0  0  0  0  0  0  0  0  0  0  0  0
  145.0970   67.8410  219.4430 C   0  0  0  0  0  0  0  0  0  0  0  0
  144.9701   66.7503  219.5078 H   0  0  0  0  0  0  0  0  0  0  0  0
  144.0470   68.6920  219.7940 C   0  0  0  0  0  0  0  0  0  0  0  0
  143.0922   68.2650  220.1347 H   0  0  0  0  0  0  0  0  0  0  0  0
  144.1920   70.0570  219.7190 N   0  0  0  0  0  0  0  0  0  0  0  0
  143.1550   70.8910  220.0660 C   0  0  0  0  0  0  0  0  0  0  0  0
  142.0530   70.4150  220.4590 O   0  0  0  0  0  0  0  0  0  0  0  0
  143.3180   72.2850  219.9830 C   0  0  0  0  0  0  0  0  0  0  0  0
  142.2970   73.1900  220.3150 C   0  0  0  0  0  0  0  0  0  0  0  0
  141.3265   72.8129  220.6698 H   0  0  0  0  0  0  0  0  0  0  0  0
  142.5070   74.5730  220.1970 C   0  0  0  0  0  0  0  0  0  0  0  0
  141.3800   75.4830  220.4940 C   0  0  0  0  0  0  0  0  0  0  0  0
  140.2030   75.1150  220.2320 O   0  0  0  0  0  0  0  0  0  0  0  0
  141.6250   76.8010  221.0110 N   0  0  0  0  0  0  0  0  0  0  0  0
  142.6140   77.1380  221.0390 H   0  0  0  0  0  0  0  0  0  0  0  0
  140.5400   77.6850  221.4520 C   0  0  2  0  0  0  0  0  0  0  0  0
  139.9776   78.0132  220.5654 H   0  0  0  0  0  0  0  0  0  0  0  0
  141.0980   78.9170  222.1400 C   0  0  0  0  0  0  0  0  0  0  0  0
  140.9480   80.1950  221.5680 C   0  0  0  0  0  0  0  0  0  0  0  0
  140.4162   80.3063  220.6115 H   0  0  0  0  0  0  0  0  0  0  0  0
  141.4700   81.3230  222.2070 C   0  0  0  0  0  0  0  0  0  0  0  0
  141.3465   82.3176  221.7537 H   0  0  0  0  0  0  0  0  0  0  0  0
  142.1480   81.1890  223.4200 C   0  0  0  0  0  0  0  0  0  0  0  0
  142.5582   82.0780  223.9214 H   0  0  0  0  0  0  0  0  0  0  0  0
  142.3060   79.9260  223.9980 C   0  0  0  0  0  0  0  0  0  0  0  0
  142.8411   79.8217  224.9534 H   0  0  0  0  0  0  0  0  0  0  0  0
  141.7840   78.7950  223.3620 C   0  0  0  0  0  0  0  0  0  0  0  0
  141.9108   77.8032  223.8206 H   0  0  0  0  0  0  0  0  0  0  0  0
  139.5820   76.9330  222.3820 C   0  0  0  0  0  0  0  0  0  0  0  0
  139.8479   77.1417  223.4288 H   0  0  0  0  0  0  0  0  0  0  0  0
  138.5507   77.2652  222.1924 H   0  0  0  0  0  0  0  0  0  0  0  0
  139.6598   75.8523  222.1924 H   0  0  0  0  0  0  0  0  0  0  0  0
  1  2  1  0
  2  3  2  0
  3  4  1  0
  4  5  1  0
  5  6  1  0
  6  7  2  0
  7  8  1  0
  8  9  1  0
  8 10  2  0
 10 11  1  0
 10 12  1  0
 12 13  1  0
 12 14  2  0
 14 15  1  0
 14 16  1  0
 16 17  1  0
 17 18  2  0
 17 19  1  0
 19 20  1  0
 20 21  1  0
 20 22  2  0
 22 23  1  0
 23 24  2  0
 23 25  1  0
 25 26  1  0
 25 27  1  0
 27 28  1  6
 27 29  1  0
 29 30  2  0
 30 31  1  0
 30 32  1  0
 32 33  1  0
 32 34  2  0
 34 35  1  0
 34 36  1  0
 36 37  1  0
 36 38  2  0
 38 39  1  0
 27 40  1  0
 40 41  1  0
 40 42  1  0
 40 43  1  0
 22  3  1  0
 38 29  1  0
 19  5  2  0
 16  7  1  0
M  CHG  1   4  -1
M  END
>  <UniqueID>  (29) 
32

>  <SMILES>  (29) 
[H]/N=c1/[n-]c2nc3ccccn3c(=O)c2cc1C(=O)N[C@@H](C)c1ccccc1

>  <Energy>  (29) 
62.68123368203247

>  <Genealogy>  (29) 
C[C@H](NC(=O)c1cc2c(=O)n3ccccc3nc2[n-]c1=N)c1ccccc1 (protonated)
[H]/N=c1/[n-]c2nc3ccccn3c(=O)c2cc1C(=O)N[C@@H](C)c1ccccc1 (cis-trans isomerization)
[H]/N=c1/[n-]c2nc3ccccn3c(=O)c2cc1C(=O)N[C@@H](C)c1ccccc1 (3D coordinates assigned)
[H]/N=c1/[n-]c2nc3ccccn3c(=O)c2cc1C(=O)N[C@@H](C)c1ccccc1 (optimized conformer: 62.68123368203247 kcal/mol)

>  <smiles>  (29) 
C[C@H](NC(=O)c1cc2c(=O)n3ccccc3nc2[nH]c1=N)c1ccccc1

>  <score_type>  (29) 
oracle

>  <origin>  (29) 
autodockgpu

>  <m_score__min__energy>  (29) 
-7.5499999999999998

>  <m_primary>  (29) 
energy

>  <meeko>  (29) 
{"free_energy": -7.48, "intermolecular_energy": -8.67, "internal_energy": -0.91, "cluster_size": 11, "cluster_id": 1, "rank_in_cluster": 8}

>  <energy>  (29) 
-7.47

>  <cluster_rmsd>  (29) 
0.54

>  <rmsd>  (29) 
270.63

>  <cluster>  (29) 
1

$$$$
HDANWICVGDYKAH-BQAWMTLJNA-M
     RDKit          3D

 43 46  0  0  0  0  0  0  0  0999 V2000
  139.3280   73.7930  223.0950 H   0  0  0  0  0  0  0  0  0  0  0  0
  139.6850   74.3630  222.2980 N   0  0  0  0  0  0  0  0  0  0  0  0
  140.7760   74.1090  221.6420 C   0  0  0  0  0  0  0  0  0  0  0  0
  141.1960   72.8180  221.5660 N   0  0  0  0  0  0  0  0  0  0  0  0
  142.2880   72.4470  220.8510 C   0  0  0  0  0  0  0  0  0  0  0  0
  142.6580   71.1460  220.8140 N   0  0  0  0  0  0  0  0  0  0  0  0
  143.7390   70.7370  220.1010 C   0  0  0  0  0  0  0  0  0  0  0  0
  144.0780   69.3800  220.0990 C   0  0  0  0  0  0  0  0  0  0  0  0
  143.4747   68.6586  220.6696 H   0  0  0  0  0  0  0  0  0  0  0  0
  145.1830   68.9470  219.3710 C   0  0  0  0  0  0  0  0  0  0  0  0
  145.4565   67.8816  219.3634 H   0  0  0  0  0  0  0  0  0  0  0  0
  145.9400   69.8680  218.6530 C   0  0  0  0  0  0  0  0  0  0  0  0
  146.8147   69.5349  218.0750 H   0  0  0  0  0  0  0  0  0  0  0  0
  145.5820   71.2180  218.6710 C   0  0  0  0  0  0  0  0  0  0  0  0
  146.1805   71.9461  218.1038 H   0  0  0  0  0  0  0  0  0  0  0  0
  144.4920   71.6480  219.3880 N   0  0  0  0  0  0  0  0  0  0  0  0
  144.1430   72.9790  219.4020 C   0  0  0  0  0  0  0  0  0  0  0  0
  144.8230   73.8260  218.7550 O   0  0  0  0  0  0  0  0  0  0  0  0
  143.0250   73.4040  220.1400 C   0  0  0  0  0  0  0  0  0  0  0  0
  142.6220   74.7480  220.2020 C   0  0  0  0  0  0  0  0  0  0  0  0
  143.1834   75.5131  219.6456 H   0  0  0  0  0  0  0  0  0  0  0  0
  141.5080   75.1210  220.9690 C   0  0  0  0  0  0  0  0  0  0  0  0
  141.1620   76.5560  221.0570 C   0  0  0  0  0  0  0  0  0  0  0  0
  141.6350   77.3590  220.2070 O   0  0  0  0  0  0  0  0  0  0  0  0
  140.3530   77.0460  222.1380 N   0  0  0  0  0  0  0  0  0  0  0  0
  140.1350   76.3890  222.9210 H   0  0  0  0  0  0  0  0  0  0  0  0
  139.8680   78.4310  222.1910 C   0  0  2  0  0  0  0  0  0  0  0  0
  139.6554   78.7648  221.1647 H   0  0  0  0  0  0  0  0  0  0  0  0
  140.9260   79.3470  222.7750 C   0  0  0  0  0  0  0  0  0  0  0  0
  140.5630   80.4990  223.5000 C   0  0  0  0  0  0  0  0  0  0  0  0
  139.4998   80.7378  223.6502 H   0  0  0  0  0  0  0  0  0  0  0  0
  141.5460   81.3410  224.0300 C   0  0  0  0  0  0  0  0  0  0  0  0
  141.2539   82.2379  224.5959 H   0  0  0  0  0  0  0  0  0  0  0  0
  142.8970   81.0450  223.8420 C   0  0  0  0  0  0  0  0  0  0  0  0
  143.6684   81.7083  224.2603 H   0  0  0  0  0  0  0  0  0  0  0  0
  143.2700   79.9070  223.1230 C   0  0  0  0  0  0  0  0  0  0  0  0
  144.3352   79.6757  222.9749 H   0  0  0  0  0  0  0  0  0  0  0  0
  142.2910   79.0610  222.5910 C   0  0  0  0  0  0  0  0  0  0  0  0
  142.5905   78.1665  222.0252 H   0  0  0  0  0  0  0  0  0  0  0  0
  138.5720   78.5120  223.0050 C   0  0  0  0  0  0  0  0  0  0  0  0
  138.8117   78.4970  224.0785 H   0  0  0  0  0  0  0  0  0  0  0  0
  138.0431   79.4450  222.7604 H   0  0  0  0  0  0  0  0  0  0  0  0
  137.9310   77.6522  222.7604 H   0  0  0  0  0  0  0  0  0  0  0  0
  1  2  1  0
  2  3  2  0
  3  4  1  0
  4  5  1  0
  5  6  1  0
  6  7  2  0
  7  8  1  0
  8  9  1  0
  8 10  2  0
 10 11  1  0
 10 12  1  0
 12 13  1  0
 12 14  2  0
 14 15  1  0
 14 16  1  0
 16 17  1  0
 17 18  2  0
 17 19  1  0
 19 20  1  0
 20 21  1  0
 20 22  2  0
 22 23  1  0
 23 24  2  0
 23 25  1  0
 25 26  1  0
 25 27  1  0
 27 28  1  6
 27 29  1  0
 29 30  2  0
 30 31  1  0
 30 32  1  0
 32 33  1  0
 32 34  2  0
 34 35  1  0
 34 36  1  0
 36 37  1  0
 36 38  2  0
 38 39  1  0
 27 40  1  0
 40 41  1  0
 40 42  1  0
 40 43  1  0
 22  3  1  0
 38 29  1  0
 19  5  2  0
 16  7  1  0
M  CHG  1   4  -1
M  END
>  <UniqueID>  (30) 
32

>  <SMILES>  (30) 
[H]/N=c1/[n-]c2nc3ccccn3c(=O)c2cc1C(=O)N[C@@H](C)c1ccccc1

>  <Energy>  (30) 
62.68123368203247

>  <Genealogy>  (30) 
C[C@H](NC(=O)c1cc2c(=O)n3ccccc3nc2[n-]c1=N)c1ccccc1 (protonated)
[H]/N=c1/[n-]c2nc3ccccn3c(=O)c2cc1C(=O)N[C@@H](C)c1ccccc1 (cis-trans isomerization)
[H]/N=c1/[n-]c2nc3ccccn3c(=O)c2cc1C(=O)N[C@@H](C)c1ccccc1 (3D coordinates assigned)
[H]/N=c1/[n-]c2nc3ccccn3c(=O)c2cc1C(=O)N[C@@H](C)c1ccccc1 (optimized conformer: 62.68123368203247 kcal/mol)

>  <smiles>  (30) 
C[C@H](NC(=O)c1cc2c(=O)n3ccccc3nc2[nH]c1=N)c1ccccc1

>  <score_type>  (30) 
oracle

>  <origin>  (30) 
autodockgpu

>  <m_score__min__energy>  (30) 
-7.5499999999999998

>  <m_primary>  (30) 
energy

>  <meeko>  (30) 
{"free_energy": -7.12, "intermolecular_energy": -8.31, "internal_energy": -0.96, "cluster_size": 8, "cluster_id": 2, "rank_in_cluster": 5}

>  <energy>  (30) 
-7.17

>  <cluster_rmsd>  (30) 
1.96

>  <rmsd>  (30) 
270.57

>  <cluster>  (30) 
1

$$$$
HDANWICVGDYKAH-BQAWMTLJNA-M
     RDKit          3D

 43 46  0  0  0  0  0  0  0  0999 V2000
  134.0870   68.3960  226.2070 H   0  0  0  0  0  0  0  0  0  0  0  0
  133.4040   69.1640  226.3840 N   0  0  0  0  0  0  0  0  0  0  0  0
  133.6310   70.4200  226.1470 C   0  0  0  0  0  0  0  0  0  0  0  0
  132.7440   71.3340  226.6240 N   0  0  0  0  0  0  0  0  0  0  0  0
  132.9280   72.6710  226.4830 C   0  0  0  0  0  0  0  0  0  0  0  0
  132.0100   73.5330  226.9770 N   0  0  0  0  0  0  0  0  0  0  0  0
  132.1660   74.8770  226.8630 C   0  0  0  0  0  0  0  0  0  0  0  0
  131.1840   75.7230  227.3910 C   0  0  0  0  0  0  0  0  0  0  0  0
  130.2990   75.3003  227.8891 H   0  0  0  0  0  0  0  0  0  0  0  0
  131.3340   77.1020  227.2820 C   0  0  0  0  0  0  0  0  0  0  0  0
  130.5680   77.7748  227.6950 H   0  0  0  0  0  0  0  0  0  0  0  0
  132.4560   77.6270  226.6490 C   0  0  0  0  0  0  0  0  0  0  0  0
  132.5811   78.7161  226.5584 H   0  0  0  0  0  0  0  0  0  0  0  0
  133.4230   76.7630  226.1290 C   0  0  0  0  0  0  0  0  0  0  0  0
  134.3100   77.1782  225.6281 H   0  0  0  0  0  0  0  0  0  0  0  0
  133.2790   75.4010  226.2360 N   0  0  0  0  0  0  0  0  0  0  0  0
  134.2340   74.5540  225.7230 C   0  0  0  0  0  0  0  0  0  0  0  0
  135.2580   75.0170  225.1450 O   0  0  0  0  0  0  0  0  0  0  0  0
  134.0730   73.1620  225.8390 C   0  0  0  0  0  0  0  0  0  0  0  0
  135.0060   72.2440  225.3310 C   0  0  0  0  0  0  0  0  0  0  0  0
  135.9144   72.6095  224.8298 H   0  0  0  0  0  0  0  0  0  0  0  0
  134.7880   70.8640  225.4580 C   0  0  0  0  0  0  0  0  0  0  0  0
  135.7650   69.9370  224.8480 C   0  0  0  0  0  0  0  0  0  0  0  0
  135.4240   68.7460  224.6140 O   0  0  0  0  0  0  0  0  0  0  0  0
  137.1110   70.3660  224.5850 N   0  0  0  0  0  0  0  0  0  0  0  0
  137.4090   71.2950  224.9610 H   0  0  0  0  0  0  0  0  0  0  0  0
  138.0730   69.5320  223.8550 C   0  0  2  0  0  0  0  0  0  0  0  0
  137.5512   68.6332  223.4946 H   0  0  0  0  0  0  0  0  0  0  0  0
  139.1990   69.0880  224.7680 C   0  0  0  0  0  0  0  0  0  0  0  0
  139.2160   67.7920  225.3180 C   0  0  0  0  0  0  0  0  0  0  0  0
  138.4049   67.0876  225.0814 H   0  0  0  0  0  0  0  0  0  0  0  0
  140.2570   67.3940  226.1630 C   0  0  0  0  0  0  0  0  0  0  0  0
  140.2635   66.3787  226.5862 H   0  0  0  0  0  0  0  0  0  0  0  0
  141.2880   68.2840  226.4700 C   0  0  0  0  0  0  0  0  0  0  0  0
  142.1056   67.9696  227.1354 H   0  0  0  0  0  0  0  0  0  0  0  0
  141.2820   69.5730  225.9330 C   0  0  0  0  0  0  0  0  0  0  0  0
  142.0953   70.2727  226.1759 H   0  0  0  0  0  0  0  0  0  0  0  0
  140.2440   69.9760  225.0870 C   0  0  0  0  0  0  0  0  0  0  0  0
  140.2439   70.9931  224.6682 H   0  0  0  0  0  0  0  0  0  0  0  0
  138.6250   70.2910  222.6430 C   0  0  0  0  0  0  0  0  0  0  0  0
  139.2393   71.1357  222.9881 H   0  0  0  0  0  0  0  0  0  0  0  0
  139.2423   69.6127  222.0356 H   0  0  0  0  0  0  0  0  0  0  0  0
  137.7895   70.6692  222.0356 H   0  0  0  0  0  0  0  0  0  0  0  0
  1  2  1  0
  2  3  2  0
  3  4  1  0
  4  5  1  0
  5  6  1  0
  6  7  2  0
  7  8  1  0
  8  9  1  0
  8 10  2  0
 10 11  1  0
 10 12  1  0
 12 13  1  0
 12 14  2  0
 14 15  1  0
 14 16  1  0
 16 17  1  0
 17 18  2  0
 17 19  1  0
 19 20  1  0
 20 21  1  0
 20 22  2  0
 22 23  1  0
 23 24  2  0
 23 25  1  0
 25 26  1  0
 25 27  1  0
 27 28  1  6
 27 29  1  0
 29 30  2  0
 30 31  1  0
 30 32  1  0
 32 33  1  0
 32 34  2  0
 34 35  1  0
 34 36  1  0
 36 37  1  0
 36 38  2  0
 38 39  1  0
 27 40  1  0
 40 41  1  0
 40 42  1  0
 40 43  1  0
 22  3  1  0
 38 29  1  0
 19  5  2  0
 16  7  1  0
M  CHG  1   4  -1
M  END
>  <UniqueID>  (31) 
32

>  <SMILES>  (31) 
[H]/N=c1/[n-]c2nc3ccccn3c(=O)c2cc1C(=O)N[C@@H](C)c1ccccc1

>  <Energy>  (31) 
62.68123368203247

>  <Genealogy>  (31) 
C[C@H](NC(=O)c1cc2c(=O)n3ccccc3nc2[n-]c1=N)c1ccccc1 (protonated)
[H]/N=c1/[n-]c2nc3ccccn3c(=O)c2cc1C(=O)N[C@@H](C)c1ccccc1 (cis-trans isomerization)
[H]/N=c1/[n-]c2nc3ccccn3c(=O)c2cc1C(=O)N[C@@H](C)c1ccccc1 (3D coordinates assigned)
[H]/N=c1/[n-]c2nc3ccccn3c(=O)c2cc1C(=O)N[C@@H](C)c1ccccc1 (optimized conformer: 62.68123368203247 kcal/mol)

>  <smiles>  (31) 
C[C@H](NC(=O)c1cc2c(=O)n3ccccc3nc2[nH]c1=N)c1ccccc1

>  <score_type>  (31) 
oracle

>  <origin>  (31) 
autodockgpu

>  <m_score__min__energy>  (31) 
-7.5499999999999998

>  <m_primary>  (31) 
energy

>  <meeko>  (31) 
{"free_energy": -6.95, "intermolecular_energy": -8.14, "internal_energy": -0.86, "cluster_size": 1, "cluster_id": 3, "rank_in_cluster": 1}

>  <energy>  (31) 
-7.12

>  <cluster_rmsd>  (31) 
1.99

>  <rmsd>  (31) 
270.58

>  <cluster>  (31) 
1

$$$$
HDANWICVGDYKAH-BQAWMTLJNA-M
     RDKit          3D

 43 46  0  0  0  0  0  0  0  0999 V2000
  140.2470   73.7230  222.1420 H   0  0  0  0  0  0  0  0  0  0  0  0
  140.8680   74.2450  221.4860 N   0  0  0  0  0  0  0  0  0  0  0  0
  141.9120   73.7420  220.9020 C   0  0  0  0  0  0  0  0  0  0  0  0
  142.1030   72.3980  220.9730 N   0  0  0  0  0  0  0  0  0  0  0  0
  143.1290   71.7730  220.3410 C   0  0  0  0  0  0  0  0  0  0  0  0
  143.2700   70.4320  220.4500 N   0  0  0  0  0  0  0  0  0  0  0  0
  144.2790   69.7720  219.8240 C   0  0  0  0  0  0  0  0  0  0  0  0
  144.3780   68.3850  219.9720 C   0  0  0  0  0  0  0  0  0  0  0  0
  143.6476   67.8412  220.5891 H   0  0  0  0  0  0  0  0  0  0  0  0
  145.4060   67.6960  219.3340 C   0  0  0  0  0  0  0  0  0  0  0  0
  145.4912   66.6048  219.4438 H   0  0  0  0  0  0  0  0  0  0  0  0
  146.3250   68.3940  218.5570 C   0  0  0  0  0  0  0  0  0  0  0  0
  147.1405   67.8580  218.0495 H   0  0  0  0  0  0  0  0  0  0  0  0
  146.2060   69.7800  218.4250 C   0  0  0  0  0  0  0  0  0  0  0  0
  146.9334   70.3317  217.8114 H   0  0  0  0  0  0  0  0  0  0  0  0
  145.1920   70.4620  219.0520 N   0  0  0  0  0  0  0  0  0  0  0  0
  145.0780   71.8260  218.9180 C   0  0  0  0  0  0  0  0  0  0  0  0
  145.9070   72.4730  218.2160 O   0  0  0  0  0  0  0  0  0  0  0  0
  144.0350   72.5110  219.5660 C   0  0  0  0  0  0  0  0  0  0  0  0
  143.8690   73.9020  219.4770 C   0  0  0  0  0  0  0  0  0  0  0  0
  144.5654   74.4974  218.8683 H   0  0  0  0  0  0  0  0  0  0  0  0
  142.8210   74.5380  220.1590 C   0  0  0  0  0  0  0  0  0  0  0  0
  142.7270   76.0120  220.0880 C   0  0  0  0  0  0  0  0  0  0  0  0
  143.6820   76.6690  219.5910 O   0  0  0  0  0  0  0  0  0  0  0  0
  141.5910   76.6980  220.6400 N   0  0  0  0  0  0  0  0  0  0  0  0
  140.9120   76.1400  221.2070 H   0  0  0  0  0  0  0  0  0  0  0  0
  141.3860   78.1410  220.4700 C   0  0  2  0  0  0  0  0  0  0  0  0
  142.0716   78.4996  219.6882 H   0  0  0  0  0  0  0  0  0  0  0  0
  141.7050   78.8830  221.7540 C   0  0  0  0  0  0  0  0  0  0  0  0
  141.4730   78.2880  223.0090 C   0  0  0  0  0  0  0  0  0  0  0  0
  141.0595   77.2701  223.0632 H   0  0  0  0  0  0  0  0  0  0  0  0
  141.7650   78.9830  224.1870 C   0  0  0  0  0  0  0  0  0  0  0  0
  141.5824   78.5104  225.1634 H   0  0  0  0  0  0  0  0  0  0  0  0
  142.2880   80.2760  224.1250 C   0  0  0  0  0  0  0  0  0  0  0  0
  142.5168   80.8212  225.0525 H   0  0  0  0  0  0  0  0  0  0  0  0
  142.5210   80.8780  222.8860 C   0  0  0  0  0  0  0  0  0  0  0  0
  142.9334   81.8967  222.8393 H   0  0  0  0  0  0  0  0  0  0  0  0
  142.2310   80.1880  221.7060 C   0  0  0  0  0  0  0  0  0  0  0  0
  142.4149   80.6676  220.7333 H   0  0  0  0  0  0  0  0  0  0  0  0
  139.9480   78.4270  220.0230 C   0  0  0  0  0  0  0  0  0  0  0  0
  139.3074   78.5544  220.9081 H   0  0  0  0  0  0  0  0  0  0  0  0
  139.9275   79.3468  219.4201 H   0  0  0  0  0  0  0  0  0  0  0  0
  139.5771   77.5850  219.4201 H   0  0  0  0  0  0  0  0  0  0  0  0
  1  2  1  0
  2  3  2  0
  3  4  1  0
  4  5  1  0
  5  6  1  0
  6  7  2  0
  7  8  1  0
  8  9  1  0
  8 10  2  0
 10 11  1  0
 10 12  1  0
 12 13  1  0
 12 14  2  0
 14 15  1  0
 14 16  1  0
 16 17  1  0
 17 18  2  0
 17 19  1  0
 19 20  1  0
 20 21  1  0
 20 22  2  0
 22 23  1  0
 23 24  2  0
 23 25  1  0
 25 26  1  0
 25 27  1  0
 27 28  1  6
 27 29  1  0
 29 30  2  0
 30 31  1  0
 30 32  1  0
 32 33  1  0
 32 34  2  0
 34 35  1  0
 34 36  1  0
 36 37  1  0
 36 38  2  0
 38 39  1  0
 27 40  1  0
 40 41  1  0
 40 42  1  0
 40 43  1  0
 22  3  1  0
 38 29  1  0
 19  5  2  0
 16  7  1  0
M  CHG  1   4  -1
M  END
>  <UniqueID>  (32) 
32

>  <SMILES>  (32) 
[H]/N=c1/[n-]c2nc3ccccn3c(=O)c2cc1C(=O)N[C@@H](C)c1ccccc1

>  <Energy>  (32) 
62.68123368203247

>  <Genealogy>  (32) 
C[C@H](NC(=O)c1cc2c(=O)n3ccccc3nc2[n-]c1=N)c1ccccc1 (protonated)
[H]/N=c1/[n-]c2nc3ccccn3c(=O)c2cc1C(=O)N[C@@H](C)c1ccccc1 (cis-trans isomerization)
[H]/N=c1/[n-]c2nc3ccccn3c(=O)c2cc1C(=O)N[C@@H](C)c1ccccc1 (3D coordinates assigned)
[H]/N=c1/[n-]c2nc3ccccn3c(=O)c2cc1C(=O)N[C@@H](C)c1ccccc1 (optimized conformer: 62.68123368203247 kcal/mol)

>  <smiles>  (32) 
C[C@H](NC(=O)c1cc2c(=O)n3ccccc3nc2[nH]c1=N)c1ccccc1

>  <score_type>  (32) 
oracle

>  <origin>  (32) 
autodockgpu

>  <m_score__min__energy>  (32) 
-7.5499999999999998

>  <m_primary>  (32) 
energy

>  <meeko>  (32) 
{"free_energy": -7.14, "intermolecular_energy": -8.33, "internal_energy": -1.0, "cluster_size": 8, "cluster_id": 2, "rank_in_cluster": 3}

>  <energy>  (32) 
-7.15

>  <cluster_rmsd>  (32) 
0.0

>  <rmsd>  (32) 
270.86

>  <cluster>  (32) 
2

$$$$
HDANWICVGDYKAH-BQAWMTLJNA-M
     RDKit          3D

 43 46  0  0  0  0  0  0  0  0999 V2000
  144.1680   76.9070  220.5630 H   0  0  0  0  0  0  0  0  0  0  0  0
  144.0750   76.2910  219.7270 N   0  0  0  0  0  0  0  0  0  0  0  0
  143.7770   75.0280  219.7730 C   0  0  0  0  0  0  0  0  0  0  0  0
  144.7460   74.1270  219.4610 N   0  0  0  0  0  0  0  0  0  0  0  0
  144.5480   72.7860  219.5420 C   0  0  0  0  0  0  0  0  0  0  0  0
  145.5500   71.9370  219.2160 N   0  0  0  0  0  0  0  0  0  0  0  0
  145.3900   70.5910  219.2940 C   0  0  0  0  0  0  0  0  0  0  0  0
  146.4600   69.7590  218.9430 C   0  0  0  0  0  0  0  0  0  0  0  0
  147.4129   70.1944  218.6078 H   0  0  0  0  0  0  0  0  0  0  0  0
  146.3100   68.3770  219.0210 C   0  0  0  0  0  0  0  0  0  0  0  0
  147.1452   67.7146  218.7494 H   0  0  0  0  0  0  0  0  0  0  0  0
  145.0990   67.8370  219.4440 C   0  0  0  0  0  0  0  0  0  0  0  0
  144.9722   66.7462  219.5077 H   0  0  0  0  0  0  0  0  0  0  0  0
  144.0460   68.6870  219.7870 C   0  0  0  0  0  0  0  0  0  0  0  0
  143.0887   68.2593  220.1197 H   0  0  0  0  0  0  0  0  0  0  0  0
  144.1910   70.0520  219.7140 N   0  0  0  0  0  0  0  0  0  0  0  0
  143.1520   70.8860  220.0540 C   0  0  0  0  0  0  0  0  0  0  0  0
  142.0460   70.4080  220.4390 O   0  0  0  0  0  0  0  0  0  0  0  0
  143.3140   72.2800  219.9730 C   0  0  0  0  0  0  0  0  0  0  0  0
  142.2900   73.1840  220.2970 C   0  0  0  0  0  0  0  0  0  0  0  0
  141.3169   72.8062  220.6439 H   0  0  0  0  0  0  0  0  0  0  0  0
  142.5000   74.5670  220.1810 C   0  0  0  0  0  0  0  0  0  0  0  0
  141.3700   75.4760  220.4710 C   0  0  0  0  0  0  0  0  0  0  0  0
  140.1960   75.1140  220.1860 O   0  0  0  0  0  0  0  0  0  0  0  0
  141.6090   76.7870  221.0080 N   0  0  0  0  0  0  0  0  0  0  0  0
  142.5990   77.1220  221.0560 H   0  0  0  0  0  0  0  0  0  0  0  0
  140.5190   77.6690  221.4410 C   0  0  2  0  0  0  0  0  0  0  0  0
  139.9620   77.9954  220.5504 H   0  0  0  0  0  0  0  0  0  0  0  0
  141.0690   78.9020  222.1320 C   0  0  0  0  0  0  0  0  0  0  0  0
  140.8320   80.1890  221.6100 C   0  0  0  0  0  0  0  0  0  0  0  0
  140.2375   80.3056  220.6919 H   0  0  0  0  0  0  0  0  0  0  0  0
  141.3480   81.3190  222.2520 C   0  0  0  0  0  0  0  0  0  0  0  0
  141.1564   82.3205  221.8393 H   0  0  0  0  0  0  0  0  0  0  0  0
  142.1060   81.1780  223.4160 C   0  0  0  0  0  0  0  0  0  0  0  0
  142.5113   82.0682  223.9192 H   0  0  0  0  0  0  0  0  0  0  0  0
  142.3500   79.9070  223.9420 C   0  0  0  0  0  0  0  0  0  0  0  0
  142.9476   79.7977  224.8590 H   0  0  0  0  0  0  0  0  0  0  0  0
  141.8360   78.7740  223.3050 C   0  0  0  0  0  0  0  0  0  0  0  0
  142.0323   77.7757  223.7233 H   0  0  0  0  0  0  0  0  0  0  0  0
  139.5570   76.9150  222.3660 C   0  0  0  0  0  0  0  0  0  0  0  0
  139.8195   77.1207  223.4142 H   0  0  0  0  0  0  0  0  0  0  0  0
  138.5266   77.2485  222.1738 H   0  0  0  0  0  0  0  0  0  0  0  0
  139.6347   75.8347  222.1738 H   0  0  0  0  0  0  0  0  0  0  0  0
  1  2  1  0
  2  3  2  0
  3  4  1  0
  4  5  1  0
  5  6  1  0
  6  7  2  0
  7  8  1  0
  8  9  1  0
  8 10  2  0
 10 11  1  0
 10 12  1  0
 12 13  1  0
 12 14  2  0
 14 15  1  0
 14 16  1  0
 16 17  1  0
 17 18  2  0
 17 19  1  0
 19 20  1  0
 20 21  1  0
 20 22  2  0
 22 23  1  0
 23 24  2  0
 23 25  1  0
 25 26  1  0
 25 27  1  0
 27 28  1  6
 27 29  1  0
 29 30  2  0
 30 31  1  0
 30 32  1  0
 32 33  1  0
 32 34  2  0
 34 35  1  0
 34 36  1  0
 36 37  1  0
 36 38  2  0
 38 39  1  0
 27 40  1  0
 40 41  1  0
 40 42  1  0
 40 43  1  0
 22  3  1  0
 38 29  1  0
 19  5  2  0
 16  7  1  0
M  CHG  1   4  -1
M  END
>  <UniqueID>  (33) 
32

>  <SMILES>  (33) 
[H]/N=c1/[n-]c2nc3ccccn3c(=O)c2cc1C(=O)N[C@@H](C)c1ccccc1

>  <Energy>  (33) 
62.68123368203247

>  <Genealogy>  (33) 
C[C@H](NC(=O)c1cc2c(=O)n3ccccc3nc2[n-]c1=N)c1ccccc1 (protonated)
[H]/N=c1/[n-]c2nc3ccccn3c(=O)c2cc1C(=O)N[C@@H](C)c1ccccc1 (cis-trans isomerization)
[H]/N=c1/[n-]c2nc3ccccn3c(=O)c2cc1C(=O)N[C@@H](C)c1ccccc1 (3D coordinates assigned)
[H]/N=c1/[n-]c2nc3ccccn3c(=O)c2cc1C(=O)N[C@@H](C)c1ccccc1 (optimized conformer: 62.68123368203247 kcal/mol)

>  <smiles>  (33) 
C[C@H](NC(=O)c1cc2c(=O)n3ccccc3nc2[nH]c1=N)c1ccccc1

>  <score_type>  (33) 
oracle

>  <origin>  (33) 
autodockgpu

>  <m_score__min__energy>  (33) 
-7.5499999999999998

>  <m_primary>  (33) 
energy

>  <meeko>  (33) 
{"free_energy": -7.47, "intermolecular_energy": -8.66, "internal_energy": -0.91, "cluster_size": 11, "cluster_id": 1, "rank_in_cluster": 9}

>  <energy>  (33) 
-7.14

>  <cluster_rmsd>  (33) 
0.03

>  <rmsd>  (33) 
270.85

>  <cluster>  (33) 
2

$$$$
HDANWICVGDYKAH-BQAWMTLJNA-M
     RDKit          3D

 43 46  0  0  0  0  0  0  0  0999 V2000
  144.4610   76.8540  220.5510 H   0  0  0  0  0  0  0  0  0  0  0  0
  144.0690   76.3120  219.7510 N   0  0  0  0  0  0  0  0  0  0  0  0
  143.7650   75.0500  219.7950 C   0  0  0  0  0  0  0  0  0  0  0  0
  144.7260   74.1460  219.4660 N   0  0  0  0  0  0  0  0  0  0  0  0
  144.5240   72.8060  219.5430 C   0  0  0  0  0  0  0  0  0  0  0  0
  145.5180   71.9540  219.2000 N   0  0  0  0  0  0  0  0  0  0  0  0
  145.3540   70.6080  219.2740 C   0  0  0  0  0  0  0  0  0  0  0  0
  146.4140   69.7740  218.9050 C   0  0  0  0  0  0  0  0  0  0  0  0
  147.3641   70.2072  218.5590 H   0  0  0  0  0  0  0  0  0  0  0  0
  146.2600   68.3920  218.9780 C   0  0  0  0  0  0  0  0  0  0  0  0
  147.0884   67.7278  218.6908 H   0  0  0  0  0  0  0  0  0  0  0  0
  145.0530   67.8550  219.4160 C   0  0  0  0  0  0  0  0  0  0  0  0
  144.9221   66.7645  219.4767 H   0  0  0  0  0  0  0  0  0  0  0  0
  144.0090   68.7090  219.7780 C   0  0  0  0  0  0  0  0  0  0  0  0
  143.0549   68.2840  220.1229 H   0  0  0  0  0  0  0  0  0  0  0  0
  144.1580   70.0730  219.7090 N   0  0  0  0  0  0  0  0  0  0  0  0
  143.1270   70.9090  220.0670 C   0  0  0  0  0  0  0  0  0  0  0  0
  142.0250   70.4340  220.4650 O   0  0  0  0  0  0  0  0  0  0  0  0
  143.2940   72.3030  219.9900 C   0  0  0  0  0  0  0  0  0  0  0  0
  142.2780   73.2100  220.3320 C   0  0  0  0  0  0  0  0  0  0  0  0
  141.3080   72.8345  220.6900 H   0  0  0  0  0  0  0  0  0  0  0  0
  142.4920   74.5920  220.2200 C   0  0  0  0  0  0  0  0  0  0  0  0
  141.3710   75.5050  220.5280 C   0  0  0  0  0  0  0  0  0  0  0  0
  140.1930   75.1540  220.2470 O   0  0  0  0  0  0  0  0  0  0  0  0
  141.6220   76.8080  221.0800 N   0  0  0  0  0  0  0  0  0  0  0  0
  142.6140   77.1350  221.1260 H   0  0  0  0  0  0  0  0  0  0  0  0
  140.5410   77.6910  221.5330 C   0  0  2  0  0  0  0  0  0  0  0  0
  140.0279   78.0943  220.6476 H   0  0  0  0  0  0  0  0  0  0  0  0
  141.0980   78.8570  222.3270 C   0  0  0  0  0  0  0  0  0  0  0  0
  142.4810   79.1180  222.3530 C   0  0  0  0  0  0  0  0  0  0  0  0
  143.1697   78.4727  221.7880 H   0  0  0  0  0  0  0  0  0  0  0  0
  142.9850   80.1930  223.0930 C   0  0  0  0  0  0  0  0  0  0  0  0
  144.0669   80.3910  223.1071 H   0  0  0  0  0  0  0  0  0  0  0  0
  142.1170   81.0140  223.8130 C   0  0  0  0  0  0  0  0  0  0  0  0
  142.5154   81.8587  224.3942 H   0  0  0  0  0  0  0  0  0  0  0  0
  140.7430   80.7650  223.7970 C   0  0  0  0  0  0  0  0  0  0  0  0
  140.0607   81.4138  224.3657 H   0  0  0  0  0  0  0  0  0  0  0  0
  140.2330   79.6920  223.0590 C   0  0  0  0  0  0  0  0  0  0  0  0
  139.1500   79.4996  223.0506 H   0  0  0  0  0  0  0  0  0  0  0  0
  139.5230   76.9050  222.3670 C   0  0  0  0  0  0  0  0  0  0  0  0
  139.7261   77.0618  223.4367 H   0  0  0  0  0  0  0  0  0  0  0  0
  138.5073   77.2555  222.1314 H   0  0  0  0  0  0  0  0  0  0  0  0
  139.6051   75.8337  222.1314 H   0  0  0  0  0  0  0  0  0  0  0  0
  1  2  1  0
  2  3  2  0
  3  4  1  0
  4  5  1  0
  5  6  1  0
  6  7  2  0
  7  8  1  0
  8  9  1  0
  8 10  2  0
 10 11  1  0
 10 12  1  0
 12 13  1  0
 12 14  2  0
 14 15  1  0
 14 16  1  0
 16 17  1  0
 17 18  2  0
 17 19  1  0
 19 20  1  0
 20 21  1  0
 20 22  2  0
 22 23  1  0
 23 24  2  0
 23 25  1  0
 25 26  1  0
 25 27  1  0
 27 28  1  6
 27 29  1  0
 29 30  2  0
 30 31  1  0
 30 32  1  0
 32 33  1  0
 32 34  2  0
 34 35  1  0
 34 36  1  0
 36 37  1  0
 36 38  2  0
 38 39  1  0
 27 40  1  0
 40 41  1  0
 40 42  1  0
 40 43  1  0
 22  3  1  0
 38 29  1  0
 19  5  2  0
 16  7  1  0
M  CHG  1   4  -1
M  END
>  <UniqueID>  (34) 
32

>  <SMILES>  (34) 
[H]/N=c1/[n-]c2nc3ccccn3c(=O)c2cc1C(=O)N[C@@H](C)c1ccccc1

>  <Energy>  (34) 
62.68123368203247

>  <Genealogy>  (34) 
C[C@H](NC(=O)c1cc2c(=O)n3ccccc3nc2[n-]c1=N)c1ccccc1 (protonated)
[H]/N=c1/[n-]c2nc3ccccn3c(=O)c2cc1C(=O)N[C@@H](C)c1ccccc1 (cis-trans isomerization)
[H]/N=c1/[n-]c2nc3ccccn3c(=O)c2cc1C(=O)N[C@@H](C)c1ccccc1 (3D coordinates assigned)
[H]/N=c1/[n-]c2nc3ccccn3c(=O)c2cc1C(=O)N[C@@H](C)c1ccccc1 (optimized conformer: 62.68123368203247 kcal/mol)

>  <smiles>  (34) 
C[C@H](NC(=O)c1cc2c(=O)n3ccccc3nc2[nH]c1=N)c1ccccc1

>  <score_type>  (34) 
oracle

>  <origin>  (34) 
autodockgpu

>  <m_score__min__energy>  (34) 
-7.5499999999999998

>  <m_primary>  (34) 
energy

>  <meeko>  (34) 
{"free_energy": -7.55, "intermolecular_energy": -8.74, "internal_energy": -0.9, "cluster_size": 11, "cluster_id": 1, "rank_in_cluster": 2}

>  <energy>  (34) 
-7.14

>  <cluster_rmsd>  (34) 
1.35

>  <rmsd>  (34) 
270.54

>  <cluster>  (34) 
2

$$$$
HDANWICVGDYKAH-BQAWMTLJNA-M
     RDKit          3D

 43 46  0  0  0  0  0  0  0  0999 V2000
  140.9530   74.9560  222.2990 H   0  0  0  0  0  0  0  0  0  0  0  0
  140.9080   74.2930  221.4950 N   0  0  0  0  0  0  0  0  0  0  0  0
  141.9450   73.7860  220.9000 C   0  0  0  0  0  0  0  0  0  0  0  0
  142.1350   72.4420  220.9720 N   0  0  0  0  0  0  0  0  0  0  0  0
  143.1520   71.8130  220.3300 C   0  0  0  0  0  0  0  0  0  0  0  0
  143.2920   70.4720  220.4400 N   0  0  0  0  0  0  0  0  0  0  0  0
  144.2920   69.8090  219.8050 C   0  0  0  0  0  0  0  0  0  0  0  0
  144.3900   68.4220  219.9550 C   0  0  0  0  0  0  0  0  0  0  0  0
  143.6657   67.8810  220.5817 H   0  0  0  0  0  0  0  0  0  0  0  0
  145.4090   67.7300  219.3070 C   0  0  0  0  0  0  0  0  0  0  0  0
  145.4932   66.6389  219.4179 H   0  0  0  0  0  0  0  0  0  0  0  0
  146.3210   68.4250  218.5180 C   0  0  0  0  0  0  0  0  0  0  0  0
  147.1297   67.8860  218.0027 H   0  0  0  0  0  0  0  0  0  0  0  0
  146.2040   69.8100  218.3840 C   0  0  0  0  0  0  0  0  0  0  0  0
  146.9259   70.3590  217.7616 H   0  0  0  0  0  0  0  0  0  0  0  0
  145.1970   70.4950  219.0210 N   0  0  0  0  0  0  0  0  0  0  0  0
  145.0850   71.8590  218.8860 C   0  0  0  0  0  0  0  0  0  0  0  0
  145.9070   72.5030  218.1730 O   0  0  0  0  0  0  0  0  0  0  0  0
  144.0510   72.5480  219.5430 C   0  0  0  0  0  0  0  0  0  0  0  0
  143.8870   73.9390  219.4530 C   0  0  0  0  0  0  0  0  0  0  0  0
  144.5778   74.5317  218.8354 H   0  0  0  0  0  0  0  0  0  0  0  0
  142.8470   74.5790  220.1460 C   0  0  0  0  0  0  0  0  0  0  0  0
  142.7550   76.0530  220.0720 C   0  0  0  0  0  0  0  0  0  0  0  0
  143.7060   76.7070  219.5630 O   0  0  0  0  0  0  0  0  0  0  0  0
  141.6280   76.7420  220.6360 N   0  0  0  0  0  0  0  0  0  0  0  0
  140.9540   76.1860  221.2110 H   0  0  0  0  0  0  0  0  0  0  0  0
  141.4240   78.1850  220.4650 C   0  0  2  0  0  0  0  0  0  0  0  0
  142.1246   78.5459  219.6976 H   0  0  0  0  0  0  0  0  0  0  0  0
  141.7160   78.9250  221.7560 C   0  0  0  0  0  0  0  0  0  0  0  0
  141.4570   78.3280  223.0050 C   0  0  0  0  0  0  0  0  0  0  0  0
  141.0414   77.3105  223.0489 H   0  0  0  0  0  0  0  0  0  0  0  0
  141.7250   79.0210  224.1900 C   0  0  0  0  0  0  0  0  0  0  0  0
  141.5219   78.5466  225.1614 H   0  0  0  0  0  0  0  0  0  0  0  0
  142.2500   80.3140  224.1420 C   0  0  0  0  0  0  0  0  0  0  0  0
  142.4589   80.8578  225.0751 H   0  0  0  0  0  0  0  0  0  0  0  0
  142.5100   80.9170  222.9090 C   0  0  0  0  0  0  0  0  0  0  0  0
  142.9248   81.9351  222.8725 H   0  0  0  0  0  0  0  0  0  0  0  0
  142.2440   80.2290  221.7210 C   0  0  0  0  0  0  0  0  0  0  0  0
  142.4487   80.7100  220.7532 H   0  0  0  0  0  0  0  0  0  0  0  0
  139.9940   78.4700  219.9900 C   0  0  0  0  0  0  0  0  0  0  0  0
  139.3371   78.6009  220.8625 H   0  0  0  0  0  0  0  0  0  0  0  0
  139.9852   79.3876  219.3834 H   0  0  0  0  0  0  0  0  0  0  0  0
  139.6341   77.6259  219.3834 H   0  0  0  0  0  0  0  0  0  0  0  0
  1  2  1  0
  2  3  2  0
  3  4  1  0
  4  5  1  0
  5  6  1  0
  6  7  2  0
  7  8  1  0
  8  9  1  0
  8 10  2  0
 10 11  1  0
 10 12  1  0
 12 13  1  0
 12 14  2  0
 14 15  1  0
 14 16  1  0
 16 17  1  0
 17 18  2  0
 17 19  1  0
 19 20  1  0
 20 21  1  0
 20 22  2  0
 22 23  1  0
 23 24  2  0
 23 25  1  0
 25 26  1  0
 25 27  1  0
 27 28  1  6
 27 29  1  0
 29 30  2  0
 30 31  1  0
 30 32  1  0
 32 33  1  0
 32 34  2  0
 34 35  1  0
 34 36  1  0
 36 37  1  0
 36 38  2  0
 38 39  1  0
 27 40  1  0
 40 41  1  0
 40 42  1  0
 40 43  1  0
 22  3  1  0
 38 29  1  0
 19  5  2  0
 16  7  1  0
M  CHG  1   4  -1
M  END
>  <UniqueID>  (35) 
32

>  <SMILES>  (35) 
[H]/N=c1/[n-]c2nc3ccccn3c(=O)c2cc1C(=O)N[C@@H](C)c1ccccc1

>  <Energy>  (35) 
62.68123368203247

>  <Genealogy>  (35) 
C[C@H](NC(=O)c1cc2c(=O)n3ccccc3nc2[n-]c1=N)c1ccccc1 (protonated)
[H]/N=c1/[n-]c2nc3ccccn3c(=O)c2cc1C(=O)N[C@@H](C)c1ccccc1 (cis-trans isomerization)
[H]/N=c1/[n-]c2nc3ccccn3c(=O)c2cc1C(=O)N[C@@H](C)c1ccccc1 (3D coordinates assigned)
[H]/N=c1/[n-]c2nc3ccccn3c(=O)c2cc1C(=O)N[C@@H](C)c1ccccc1 (optimized conformer: 62.68123368203247 kcal/mol)

>  <smiles>  (35) 
C[C@H](NC(=O)c1cc2c(=O)n3ccccc3nc2[nH]c1=N)c1ccccc1

>  <score_type>  (35) 
oracle

>  <origin>  (35) 
autodockgpu

>  <m_score__min__energy>  (35) 
-7.5499999999999998

>  <m_primary>  (35) 
energy

>  <meeko>  (35) 
{"free_energy": -7.12, "intermolecular_energy": -8.32, "internal_energy": -1.0, "cluster_size": 11, "cluster_id": 1, "rank_in_cluster": 11}

>  <energy>  (35) 
-7.13

>  <cluster_rmsd>  (35) 
1.36

>  <rmsd>  (35) 
270.53

>  <cluster>  (35) 
2

$$$$
HDANWICVGDYKAH-BQAWMTLJNA-M
     RDKit          3D

 43 46  0  0  0  0  0  0  0  0999 V2000
  140.1030   73.7080  221.9420 H   0  0  0  0  0  0  0  0  0  0  0  0
  140.8680   74.2740  221.5150 N   0  0  0  0  0  0  0  0  0  0  0  0
  141.9050   73.7760  220.9140 C   0  0  0  0  0  0  0  0  0  0  0  0
  142.1040   72.4320  220.9820 N   0  0  0  0  0  0  0  0  0  0  0  0
  143.1220   71.8120  220.3330 C   0  0  0  0  0  0  0  0  0  0  0  0
  143.2710   70.4710  220.4400 N   0  0  0  0  0  0  0  0  0  0  0  0
  144.2720   69.8160  219.7980 C   0  0  0  0  0  0  0  0  0  0  0  0
  144.3800   68.4290  219.9430 C   0  0  0  0  0  0  0  0  0  0  0  0
  143.6618   67.8810  220.5706 H   0  0  0  0  0  0  0  0  0  0  0  0
  145.4010   67.7460  219.2890 C   0  0  0  0  0  0  0  0  0  0  0  0
  145.4930   66.6552  219.3970 H   0  0  0  0  0  0  0  0  0  0  0  0
  146.3050   68.4480  218.4980 C   0  0  0  0  0  0  0  0  0  0  0  0
  147.1147   67.9156  217.9774 H   0  0  0  0  0  0  0  0  0  0  0  0
  146.1780   69.8330  218.3690 C   0  0  0  0  0  0  0  0  0  0  0  0
  146.8937   70.3885  217.7451 H   0  0  0  0  0  0  0  0  0  0  0  0
  145.1700   70.5100  219.0120 N   0  0  0  0  0  0  0  0  0  0  0  0
  145.0480   71.8740  218.8810 C   0  0  0  0  0  0  0  0  0  0  0  0
  145.8630   72.5250  218.1660 O   0  0  0  0  0  0  0  0  0  0  0  0
  144.0130   72.5540  219.5450 C   0  0  0  0  0  0  0  0  0  0  0  0
  143.8390   73.9450  219.4590 C   0  0  0  0  0  0  0  0  0  0  0  0
  144.5228   74.5438  218.8394 H   0  0  0  0  0  0  0  0  0  0  0  0
  142.7990   74.5760  220.1580 C   0  0  0  0  0  0  0  0  0  0  0  0
  142.6970   76.0490  220.0890 C   0  0  0  0  0  0  0  0  0  0  0  0
  143.6850   76.7190  219.6810 O   0  0  0  0  0  0  0  0  0  0  0  0
  141.5120   76.7210  220.5460 N   0  0  0  0  0  0  0  0  0  0  0  0
  140.7920   76.1520  221.0470 H   0  0  0  0  0  0  0  0  0  0  0  0
  141.3090   78.1630  220.3680 C   0  0  2  0  0  0  0  0  0  0  0  0
  141.9797   78.5126  219.5692 H   0  0  0  0  0  0  0  0  0  0  0  0
  141.6570   78.9140  221.6390 C   0  0  0  0  0  0  0  0  0  0  0  0
  142.2040   80.2110  221.5850 C   0  0  0  0  0  0  0  0  0  0  0  0
  142.3789   80.6902  220.6104 H   0  0  0  0  0  0  0  0  0  0  0  0
  142.5260   80.8930  222.7620 C   0  0  0  0  0  0  0  0  0  0  0  0
  142.9503   81.9066  222.7108 H   0  0  0  0  0  0  0  0  0  0  0  0
  142.3100   80.2900  224.0020 C   0  0  0  0  0  0  0  0  0  0  0  0
  142.5651   80.8284  224.9267 H   0  0  0  0  0  0  0  0  0  0  0  0
  141.7700   79.0030  224.0700 C   0  0  0  0  0  0  0  0  0  0  0  0
  141.6004   78.5290  225.0481 H   0  0  0  0  0  0  0  0  0  0  0  0
  141.4450   78.3170  222.8950 C   0  0  0  0  0  0  0  0  0  0  0  0
  141.0208   77.3038  222.9536 H   0  0  0  0  0  0  0  0  0  0  0  0
  139.8630   78.4510  219.9480 C   0  0  0  0  0  0  0  0  0  0  0  0
  139.2385   78.5754  220.8450 H   0  0  0  0  0  0  0  0  0  0  0  0
  139.8319   79.3730  219.3488 H   0  0  0  0  0  0  0  0  0  0  0  0
  139.4810   77.6113  219.3488 H   0  0  0  0  0  0  0  0  0  0  0  0
  1  2  1  0
  2  3  2  0
  3  4  1  0
  4  5  1  0
  5  6  1  0
  6  7  2  0
  7  8  1  0
  8  9  1  0
  8 10  2  0
 10 11  1  0
 10 12  1  0
 12 13  1  0
 12 14  2  0
 14 15  1  0
 14 16  1  0
 16 17  1  0
 17 18  2  0
 17 19  1  0
 19 20  1  0
 20 21  1  0
 20 22  2  0
 22 23  1  0
 23 24  2  0
 23 25  1  0
 25 26  1  0
 25 27  1  0
 27 28  1  6
 27 29  1  0
 29 30  2  0
 30 31  1  0
 30 32  1  0
 32 33  1  0
 32 34  2  0
 34 35  1  0
 34 36  1  0
 36 37  1  0
 36 38  2  0
 38 39  1  0
 27 40  1  0
 40 41  1  0
 40 42  1  0
 40 43  1  0
 22  3  1  0
 38 29  1  0
 19  5  2  0
 16  7  1  0
M  CHG  1   4  -1
M  END
>  <UniqueID>  (36) 
32

>  <SMILES>  (36) 
[H]/N=c1/[n-]c2nc3ccccn3c(=O)c2cc1C(=O)N[C@@H](C)c1ccccc1

>  <Energy>  (36) 
62.68123368203247

>  <Genealogy>  (36) 
C[C@H](NC(=O)c1cc2c(=O)n3ccccc3nc2[n-]c1=N)c1ccccc1 (protonated)
[H]/N=c1/[n-]c2nc3ccccn3c(=O)c2cc1C(=O)N[C@@H](C)c1ccccc1 (cis-trans isomerization)
[H]/N=c1/[n-]c2nc3ccccn3c(=O)c2cc1C(=O)N[C@@H](C)c1ccccc1 (3D coordinates assigned)
[H]/N=c1/[n-]c2nc3ccccn3c(=O)c2cc1C(=O)N[C@@H](C)c1ccccc1 (optimized conformer: 62.68123368203247 kcal/mol)

>  <smiles>  (36) 
C[C@H](NC(=O)c1cc2c(=O)n3ccccc3nc2[nH]c1=N)c1ccccc1

>  <score_type>  (36) 
oracle

>  <origin>  (36) 
autodockgpu

>  <m_score__min__energy>  (36) 
-7.5499999999999998

>  <m_primary>  (36) 
energy

>  <meeko>  (36) 
{"free_energy": -7.11, "intermolecular_energy": -8.31, "internal_energy": -1.02, "cluster_size": 8, "cluster_id": 2, "rank_in_cluster": 6}

>  <energy>  (36) 
-7.12

>  <cluster_rmsd>  (36) 
0.07

>  <rmsd>  (36) 
270.86

>  <cluster>  (36) 
2

$$$$
HDANWICVGDYKAH-BQAWMTLJNA-M
     RDKit          3D

 43 46  0  0  0  0  0  0  0  0999 V2000
  144.4070   76.8680  220.6200 H   0  0  0  0  0  0  0  0  0  0  0  0
  144.0740   76.3160  219.8000 N   0  0  0  0  0  0  0  0  0  0  0  0
  143.7680   75.0550  219.8350 C   0  0  0  0  0  0  0  0  0  0  0  0
  144.7310   74.1510  219.5120 N   0  0  0  0  0  0  0  0  0  0  0  0
  144.5250   72.8100  219.5820 C   0  0  0  0  0  0  0  0  0  0  0  0
  145.5210   71.9580  219.2450 N   0  0  0  0  0  0  0  0  0  0  0  0
  145.3540   70.6120  219.3110 C   0  0  0  0  0  0  0  0  0  0  0  0
  146.4170   69.7780  218.9500 C   0  0  0  0  0  0  0  0  0  0  0  0
  147.3714   70.2111  218.6159 H   0  0  0  0  0  0  0  0  0  0  0  0
  146.2600   68.3960  219.0160 C   0  0  0  0  0  0  0  0  0  0  0  0
  147.0905   67.7317  218.7350 H   0  0  0  0  0  0  0  0  0  0  0  0
  145.0480   67.8590  219.4390 C   0  0  0  0  0  0  0  0  0  0  0  0
  144.9151   66.7684  219.4935 H   0  0  0  0  0  0  0  0  0  0  0  0
  144.0010   68.7130  219.7940 C   0  0  0  0  0  0  0  0  0  0  0  0
  143.0426   68.2883  220.1272 H   0  0  0  0  0  0  0  0  0  0  0  0
  144.1540   70.0770  219.7320 N   0  0  0  0  0  0  0  0  0  0  0  0
  143.1200   70.9140  220.0830 C   0  0  0  0  0  0  0  0  0  0  0  0
  142.0130   70.4390  220.4680 O   0  0  0  0  0  0  0  0  0  0  0  0
  143.2900   72.3070  220.0130 C   0  0  0  0  0  0  0  0  0  0  0  0
  142.2730   73.2150  220.3500 C   0  0  0  0  0  0  0  0  0  0  0  0
  141.2995   72.8399  220.6987 H   0  0  0  0  0  0  0  0  0  0  0  0
  142.4900   74.5970  220.2450 C   0  0  0  0  0  0  0  0  0  0  0  0
  141.3670   75.5110  220.5460 C   0  0  0  0  0  0  0  0  0  0  0  0
  140.1920   75.1650  220.2490 O   0  0  0  0  0  0  0  0  0  0  0  0
  141.6150   76.8090  221.1100 N   0  0  0  0  0  0  0  0  0  0  0  0
  142.6070   77.1340  221.1700 H   0  0  0  0  0  0  0  0  0  0  0  0
  140.5300   77.6920  221.5550 C   0  0  2  0  0  0  0  0  0  0  0  0
  140.0232   78.0955  220.6660 H   0  0  0  0  0  0  0  0  0  0  0  0
  141.0810   78.8580  222.3540 C   0  0  0  0  0  0  0  0  0  0  0  0
  140.2230   79.7050  223.0800 C   0  0  0  0  0  0  0  0  0  0  0  0
  139.1388   79.5196  223.0741 H   0  0  0  0  0  0  0  0  0  0  0  0
  140.7400   80.7810  223.8090 C   0  0  0  0  0  0  0  0  0  0  0  0
  140.0625   81.4372  224.3750 H   0  0  0  0  0  0  0  0  0  0  0  0
  142.1150   81.0230  223.8190 C   0  0  0  0  0  0  0  0  0  0  0  0
  142.5200   81.8693  224.3933 H   0  0  0  0  0  0  0  0  0  0  0  0
  142.9770   80.1910  223.1000 C   0  0  0  0  0  0  0  0  0  0  0  0
  144.0600   80.3836  223.1083 H   0  0  0  0  0  0  0  0  0  0  0  0
  142.4650   79.1140  222.3700 C   0  0  0  0  0  0  0  0  0  0  0  0
  143.1479   78.4628  221.8047 H   0  0  0  0  0  0  0  0  0  0  0  0
  139.5070   76.9050  222.3820 C   0  0  0  0  0  0  0  0  0  0  0  0
  139.7058   77.0579  223.4530 H   0  0  0  0  0  0  0  0  0  0  0  0
  138.4929   77.2580  222.1432 H   0  0  0  0  0  0  0  0  0  0  0  0
  139.5882   75.8343  222.1432 H   0  0  0  0  0  0  0  0  0  0  0  0
  1  2  1  0
  2  3  2  0
  3  4  1  0
  4  5  1  0
  5  6  1  0
  6  7  2  0
  7  8  1  0
  8  9  1  0
  8 10  2  0
 10 11  1  0
 10 12  1  0
 12 13  1  0
 12 14  2  0
 14 15  1  0
 14 16  1  0
 16 17  1  0
 17 18  2  0
 17 19  1  0
 19 20  1  0
 20 21  1  0
 20 22  2  0
 22 23  1  0
 23 24  2  0
 23 25  1  0
 25 26  1  0
 25 27  1  0
 27 28  1  6
 27 29  1  0
 29 30  2  0
 30 31  1  0
 30 32  1  0
 32 33  1  0
 32 34  2  0
 34 35  1  0
 34 36  1  0
 36 37  1  0
 36 38  2  0
 38 39  1  0
 27 40  1  0
 40 41  1  0
 40 42  1  0
 40 43  1  0
 22  3  1  0
 38 29  1  0
 19  5  2  0
 16  7  1  0
M  CHG  1   4  -1
M  END
>  <UniqueID>  (37) 
32

>  <SMILES>  (37) 
[H]/N=c1/[n-]c2nc3ccccn3c(=O)c2cc1C(=O)N[C@@H](C)c1ccccc1

>  <Energy>  (37) 
62.68123368203247

>  <Genealogy>  (37) 
C[C@H](NC(=O)c1cc2c(=O)n3ccccc3nc2[n-]c1=N)c1ccccc1 (protonated)
[H]/N=c1/[n-]c2nc3ccccn3c(=O)c2cc1C(=O)N[C@@H](C)c1ccccc1 (cis-trans isomerization)
[H]/N=c1/[n-]c2nc3ccccn3c(=O)c2cc1C(=O)N[C@@H](C)c1ccccc1 (3D coordinates assigned)
[H]/N=c1/[n-]c2nc3ccccn3c(=O)c2cc1C(=O)N[C@@H](C)c1ccccc1 (optimized conformer: 62.68123368203247 kcal/mol)

>  <smiles>  (37) 
C[C@H](NC(=O)c1cc2c(=O)n3ccccc3nc2[nH]c1=N)c1ccccc1

>  <score_type>  (37) 
oracle

>  <origin>  (37) 
autodockgpu

>  <m_score__min__energy>  (37) 
-7.5499999999999998

>  <m_primary>  (37) 
energy

>  <meeko>  (37) 
{"free_energy": -7.54, "intermolecular_energy": -8.74, "internal_energy": -0.9, "cluster_size": 11, "cluster_id": 1, "rank_in_cluster": 4}

>  <energy>  (37) 
-7.11

>  <cluster_rmsd>  (37) 
1.36

>  <rmsd>  (37) 
270.49

>  <cluster>  (37) 
2

$$$$
HDANWICVGDYKAH-BQAWMTLJNA-M
     RDKit          3D

 43 46  0  0  0  0  0  0  0  0999 V2000
  144.4660   76.8160  220.5910 H   0  0  0  0  0  0  0  0  0  0  0  0
  144.0720   76.2770  219.7900 N   0  0  0  0  0  0  0  0  0  0  0  0
  143.7770   75.0140  219.8270 C   0  0  0  0  0  0  0  0  0  0  0  0
  144.7460   74.1170  219.5020 N   0  0  0  0  0  0  0  0  0  0  0  0
  144.5520   72.7760  219.5720 C   0  0  0  0  0  0  0  0  0  0  0  0
  145.5550   71.9320  219.2330 N   0  0  0  0  0  0  0  0  0  0  0  0
  145.3990   70.5850  219.3010 C   0  0  0  0  0  0  0  0  0  0  0  0
  146.4690   69.7590  218.9380 C   0  0  0  0  0  0  0  0  0  0  0  0
  147.4194   70.1998  218.6027 H   0  0  0  0  0  0  0  0  0  0  0  0
  146.3230   68.3760  219.0040 C   0  0  0  0  0  0  0  0  0  0  0  0
  147.1580   67.7185  218.7204 H   0  0  0  0  0  0  0  0  0  0  0  0
  145.1170   67.8290  219.4300 C   0  0  0  0  0  0  0  0  0  0  0  0
  144.9938   66.7373  219.4855 H   0  0  0  0  0  0  0  0  0  0  0  0
  144.0630   68.6740  219.7870 C   0  0  0  0  0  0  0  0  0  0  0  0
  143.1091   68.2411  220.1225 H   0  0  0  0  0  0  0  0  0  0  0  0
  144.2040   70.0390  219.7240 N   0  0  0  0  0  0  0  0  0  0  0  0
  143.1640   70.8670  220.0770 C   0  0  0  0  0  0  0  0  0  0  0  0
  142.0620   70.3840  220.4640 O   0  0  0  0  0  0  0  0  0  0  0  0
  143.3220   72.2620  220.0070 C   0  0  0  0  0  0  0  0  0  0  0  0
  142.2980   73.1610  220.3450 C   0  0  0  0  0  0  0  0  0  0  0  0
  141.3283   72.7777  220.6953 H   0  0  0  0  0  0  0  0  0  0  0  0
  142.5030   74.5450  220.2390 C   0  0  0  0  0  0  0  0  0  0  0  0
  141.3740   75.4500  220.5430 C   0  0  0  0  0  0  0  0  0  0  0  0
  140.2000   75.0930  220.2490 O   0  0  0  0  0  0  0  0  0  0  0  0
  141.6110   76.7510  221.1030 N   0  0  0  0  0  0  0  0  0  0  0  0
  142.6010   77.0840  221.1590 H   0  0  0  0  0  0  0  0  0  0  0  0
  140.5200   77.6250  221.5500 C   0  0  2  0  0  0  0  0  0  0  0  0
  140.0061   78.0209  220.6617 H   0  0  0  0  0  0  0  0  0  0  0  0
  141.0630   78.7980  222.3430 C   0  0  0  0  0  0  0  0  0  0  0  0
  142.4440   79.0740  222.3710 C   0  0  0  0  0  0  0  0  0  0  0  0
  143.1403   78.4351  221.8079 H   0  0  0  0  0  0  0  0  0  0  0  0
  142.9360   80.1550  223.1100 C   0  0  0  0  0  0  0  0  0  0  0  0
  144.0158   80.3644  223.1252 H   0  0  0  0  0  0  0  0  0  0  0  0
  142.0580   80.9680  223.8280 C   0  0  0  0  0  0  0  0  0  0  0  0
  142.4466   81.8179  224.4082 H   0  0  0  0  0  0  0  0  0  0  0  0
  140.6860   80.7040  223.8110 C   0  0  0  0  0  0  0  0  0  0  0  0
  139.9959   81.3462  224.3779 H   0  0  0  0  0  0  0  0  0  0  0  0
  140.1890   79.6240  223.0740 C   0  0  0  0  0  0  0  0  0  0  0  0
  139.1083   79.4190  223.0658 H   0  0  0  0  0  0  0  0  0  0  0  0
  139.5070   76.8310  222.3840 C   0  0  0  0  0  0  0  0  0  0  0  0
  139.7087   76.9891  223.4537 H   0  0  0  0  0  0  0  0  0  0  0  0
  138.4888   77.1741  222.1482 H   0  0  0  0  0  0  0  0  0  0  0  0
  139.5969   75.7603  222.1482 H   0  0  0  0  0  0  0  0  0  0  0  0
  1  2  1  0
  2  3  2  0
  3  4  1  0
  4  5  1  0
  5  6  1  0
  6  7  2  0
  7  8  1  0
  8  9  1  0
  8 10  2  0
 10 11  1  0
 10 12  1  0
 12 13  1  0
 12 14  2  0
 14 15  1  0
 14 16  1  0
 16 17  1  0
 17 18  2  0
 17 19  1  0
 19 20  1  0
 20 21  1  0
 20 22  2  0
 22 23  1  0
 23 24  2  0
 23 25  1  0
 25 26  1  0
 25 27  1  0
 27 28  1  6
 27 29  1  0
 29 30  2  0
 30 31  1  0
 30 32  1  0
 32 33  1  0
 32 34  2  0
 34 35  1  0
 34 36  1  0
 36 37  1  0
 36 38  2  0
 38 39  1  0
 27 40  1  0
 40 41  1  0
 40 42  1  0
 40 43  1  0
 22  3  1  0
 38 29  1  0
 19  5  2  0
 16  7  1  0
M  CHG  1   4  -1
M  END
>  <UniqueID>  (38) 
32

>  <SMILES>  (38) 
[H]/N=c1/[n-]c2nc3ccccn3c(=O)c2cc1C(=O)N[C@@H](C)c1ccccc1

>  <Energy>  (38) 
62.68123368203247

>  <Genealogy>  (38) 
C[C@H](NC(=O)c1cc2c(=O)n3ccccc3nc2[n-]c1=N)c1ccccc1 (protonated)
[H]/N=c1/[n-]c2nc3ccccn3c(=O)c2cc1C(=O)N[C@@H](C)c1ccccc1 (cis-trans isomerization)
[H]/N=c1/[n-]c2nc3ccccn3c(=O)c2cc1C(=O)N[C@@H](C)c1ccccc1 (3D coordinates assigned)
[H]/N=c1/[n-]c2nc3ccccn3c(=O)c2cc1C(=O)N[C@@H](C)c1ccccc1 (optimized conformer: 62.68123368203247 kcal/mol)

>  <smiles>  (38) 
C[C@H](NC(=O)c1cc2c(=O)n3ccccc3nc2[nH]c1=N)c1ccccc1

>  <score_type>  (38) 
oracle

>  <origin>  (38) 
autodockgpu

>  <m_score__min__energy>  (38) 
-7.5499999999999998

>  <m_primary>  (38) 
energy

>  <meeko>  (38) 
{"free_energy": -7.54, "intermolecular_energy": -8.74, "internal_energy": -0.9, "cluster_size": 11, "cluster_id": 1, "rank_in_cluster": 5}

>  <energy>  (38) 
-7.11

>  <cluster_rmsd>  (38) 
1.33

>  <rmsd>  (38) 
270.48

>  <cluster>  (38) 
2

$$$$
HDANWICVGDYKAH-BQAWMTLJNA-M
     RDKit          3D

 43 46  0  0  0  0  0  0  0  0999 V2000
  144.1570   76.9210  220.6320 H   0  0  0  0  0  0  0  0  0  0  0  0
  144.0740   76.3100  219.7910 N   0  0  0  0  0  0  0  0  0  0  0  0
  143.7640   75.0490  219.8260 C   0  0  0  0  0  0  0  0  0  0  0  0
  144.7230   74.1420  219.5030 N   0  0  0  0  0  0  0  0  0  0  0  0
  144.5140   72.8020  219.5720 C   0  0  0  0  0  0  0  0  0  0  0  0
  145.5070   71.9470  219.2360 N   0  0  0  0  0  0  0  0  0  0  0  0
  145.3360   70.6020  219.3020 C   0  0  0  0  0  0  0  0  0  0  0  0
  146.3960   69.7640  218.9410 C   0  0  0  0  0  0  0  0  0  0  0  0
  147.3521   70.1937  218.6076 H   0  0  0  0  0  0  0  0  0  0  0  0
  146.2340   68.3830  219.0060 C   0  0  0  0  0  0  0  0  0  0  0  0
  147.0625   67.7159  218.7256 H   0  0  0  0  0  0  0  0  0  0  0  0
  145.0200   67.8500  219.4270 C   0  0  0  0  0  0  0  0  0  0  0  0
  144.8831   66.7598  219.4800 H   0  0  0  0  0  0  0  0  0  0  0  0
  143.9760   68.7070  219.7820 C   0  0  0  0  0  0  0  0  0  0  0  0
  143.0163   68.2852  220.1153 H   0  0  0  0  0  0  0  0  0  0  0  0
  144.1330   70.0700  219.7200 N   0  0  0  0  0  0  0  0  0  0  0  0
  143.1020   70.9100  220.0710 C   0  0  0  0  0  0  0  0  0  0  0  0
  141.9930   70.4390  220.4550 O   0  0  0  0  0  0  0  0  0  0  0  0
  143.2760   72.3030  220.0020 C   0  0  0  0  0  0  0  0  0  0  0  0
  142.2620   73.2140  220.3380 C   0  0  0  0  0  0  0  0  0  0  0  0
  141.2867   72.8421  220.6852 H   0  0  0  0  0  0  0  0  0  0  0  0
  142.4840   74.5960  220.2340 C   0  0  0  0  0  0  0  0  0  0  0  0
  141.3630   75.5130  220.5350 C   0  0  0  0  0  0  0  0  0  0  0  0
  140.1860   75.1670  220.2430 O   0  0  0  0  0  0  0  0  0  0  0  0
  141.6150   76.8130  221.0910 N   0  0  0  0  0  0  0  0  0  0  0  0
  142.6080   77.1360  221.1460 H   0  0  0  0  0  0  0  0  0  0  0  0
  140.5340   77.7000  221.5360 C   0  0  2  0  0  0  0  0  0  0  0  0
  140.0336   78.1098  220.6463 H   0  0  0  0  0  0  0  0  0  0  0  0
  141.0880   78.8590  222.3420 C   0  0  0  0  0  0  0  0  0  0  0  0
  142.4730   79.1100  222.3880 C   0  0  0  0  0  0  0  0  0  0  0  0
  143.1650   78.4614  221.8307 H   0  0  0  0  0  0  0  0  0  0  0  0
  142.9740   80.1790  223.1380 C   0  0  0  0  0  0  0  0  0  0  0  0
  144.0570   80.3694  223.1670 H   0  0  0  0  0  0  0  0  0  0  0  0
  142.1020   81.0050  223.8500 C   0  0  0  0  0  0  0  0  0  0  0  0
  142.4983   81.8446  224.4400 H   0  0  0  0  0  0  0  0  0  0  0  0
  140.7260   80.7650  223.8130 C   0  0  0  0  0  0  0  0  0  0  0  0
  140.0400   81.4166  224.3741 H   0  0  0  0  0  0  0  0  0  0  0  0
  140.2190   79.6980  223.0640 C   0  0  0  0  0  0  0  0  0  0  0  0
  139.1348   79.5137  223.0392 H   0  0  0  0  0  0  0  0  0  0  0  0
  139.5020   76.9160  222.3560 C   0  0  0  0  0  0  0  0  0  0  0  0
  139.6968   77.0640  223.4284 H   0  0  0  0  0  0  0  0  0  0  0  0
  138.4912   77.2760  222.1139 H   0  0  0  0  0  0  0  0  0  0  0  0
  139.5778   75.8457  222.1139 H   0  0  0  0  0  0  0  0  0  0  0  0
  1  2  1  0
  2  3  2  0
  3  4  1  0
  4  5  1  0
  5  6  1  0
  6  7  2  0
  7  8  1  0
  8  9  1  0
  8 10  2  0
 10 11  1  0
 10 12  1  0
 12 13  1  0
 12 14  2  0
 14 15  1  0
 14 16  1  0
 16 17  1  0
 17 18  2  0
 17 19  1  0
 19 20  1  0
 20 21  1  0
 20 22  2  0
 22 23  1  0
 23 24  2  0
 23 25  1  0
 25 26  1  0
 25 27  1  0
 27 28  1  6
 27 29  1  0
 29 30  2  0
 30 31  1  0
 30 32  1  0
 32 33  1  0
 32 34  2  0
 34 35  1  0
 34 36  1  0
 36 37  1  0
 36 38  2  0
 38 39  1  0
 27 40  1  0
 40 41  1  0
 40 42  1  0
 40 43  1  0
 22  3  1  0
 38 29  1  0
 19  5  2  0
 16  7  1  0
M  CHG  1   4  -1
M  END
>  <UniqueID>  (39) 
32

>  <SMILES>  (39) 
[H]/N=c1/[n-]c2nc3ccccn3c(=O)c2cc1C(=O)N[C@@H](C)c1ccccc1

>  <Energy>  (39) 
62.68123368203247

>  <Genealogy>  (39) 
C[C@H](NC(=O)c1cc2c(=O)n3ccccc3nc2[n-]c1=N)c1ccccc1 (protonated)
[H]/N=c1/[n-]c2nc3ccccn3c(=O)c2cc1C(=O)N[C@@H](C)c1ccccc1 (cis-trans isomerization)
[H]/N=c1/[n-]c2nc3ccccn3c(=O)c2cc1C(=O)N[C@@H](C)c1ccccc1 (3D coordinates assigned)
[H]/N=c1/[n-]c2nc3ccccn3c(=O)c2cc1C(=O)N[C@@H](C)c1ccccc1 (optimized conformer: 62.68123368203247 kcal/mol)

>  <smiles>  (39) 
C[C@H](NC(=O)c1cc2c(=O)n3ccccc3nc2[nH]c1=N)c1ccccc1

>  <score_type>  (39) 
oracle

>  <origin>  (39) 
autodockgpu

>  <m_score__min__energy>  (39) 
-7.5499999999999998

>  <m_primary>  (39) 
energy

>  <meeko>  (39) 
{"free_energy": -7.55, "intermolecular_energy": -8.74, "internal_energy": -0.89, "cluster_size": 11, "cluster_id": 1, "rank_in_cluster": 3}

>  <energy>  (39) 
-7.09

>  <cluster_rmsd>  (39) 
1.37

>  <rmsd>  (39) 
270.48

>  <cluster>  (39) 
2

$$$$
HDANWICVGDYKAH-BQAWMTLJNA-M
     RDKit          3D

 43 46  0  0  0  0  0  0  0  0999 V2000
  144.1190   76.9230  220.6310 H   0  0  0  0  0  0  0  0  0  0  0  0
  144.0770   76.3030  219.7930 N   0  0  0  0  0  0  0  0  0  0  0  0
  143.7730   75.0420  219.8240 C   0  0  0  0  0  0  0  0  0  0  0  0
  144.7380   74.1400  219.4990 N   0  0  0  0  0  0  0  0  0  0  0  0
  144.5350   72.7990  219.5650 C   0  0  0  0  0  0  0  0  0  0  0  0
  145.5320   71.9500  219.2270 N   0  0  0  0  0  0  0  0  0  0  0  0
  145.3670   70.6030  219.2900 C   0  0  0  0  0  0  0  0  0  0  0  0
  146.4320   69.7710  218.9270 C   0  0  0  0  0  0  0  0  0  0  0  0
  147.3859   70.2064  218.5947 H   0  0  0  0  0  0  0  0  0  0  0  0
  146.2770   68.3890  218.9890 C   0  0  0  0  0  0  0  0  0  0  0  0
  147.1091   67.7267  218.7079 H   0  0  0  0  0  0  0  0  0  0  0  0
  145.0650   67.8490  219.4080 C   0  0  0  0  0  0  0  0  0  0  0  0
  144.9333   66.7581  219.4585 H   0  0  0  0  0  0  0  0  0  0  0  0
  144.0170   68.7000  219.7640 C   0  0  0  0  0  0  0  0  0  0  0  0
  143.0590   68.2726  220.0951 H   0  0  0  0  0  0  0  0  0  0  0  0
  144.1670   70.0650  219.7060 N   0  0  0  0  0  0  0  0  0  0  0  0
  143.1320   70.8980  220.0580 C   0  0  0  0  0  0  0  0  0  0  0  0
  142.0250   70.4210  220.4400 O   0  0  0  0  0  0  0  0  0  0  0  0
  143.2990   72.2930  219.9930 C   0  0  0  0  0  0  0  0  0  0  0  0
  142.2800   73.1970  220.3310 C   0  0  0  0  0  0  0  0  0  0  0  0
  141.3067   72.8190  220.6772 H   0  0  0  0  0  0  0  0  0  0  0  0
  142.4950   74.5810  220.2300 C   0  0  0  0  0  0  0  0  0  0  0  0
  141.3710   75.4920  220.5330 C   0  0  0  0  0  0  0  0  0  0  0  0
  140.1950   75.1420  220.2380 O   0  0  0  0  0  0  0  0  0  0  0  0
  141.6150   76.7910  221.0950 N   0  0  0  0  0  0  0  0  0  0  0  0
  142.6070   77.1180  221.1530 H   0  0  0  0  0  0  0  0  0  0  0  0
  140.5290   77.6710  221.5410 C   0  0  2  0  0  0  0  0  0  0  0  0
  140.0181   78.0709  220.6527 H   0  0  0  0  0  0  0  0  0  0  0  0
  141.0790   78.8400  222.3350 C   0  0  0  0  0  0  0  0  0  0  0  0
  142.4620   79.1000  222.3760 C   0  0  0  0  0  0  0  0  0  0  0  0
  143.1564   78.4512  221.8220 H   0  0  0  0  0  0  0  0  0  0  0  0
  142.9590   80.1770  223.1160 C   0  0  0  0  0  0  0  0  0  0  0  0
  144.0411   80.3732  223.1413 H   0  0  0  0  0  0  0  0  0  0  0  0
  142.0840   81.0040  223.8230 C   0  0  0  0  0  0  0  0  0  0  0  0
  142.4770   81.8510  224.4045 H   0  0  0  0  0  0  0  0  0  0  0  0
  140.7090   80.7560  223.7920 C   0  0  0  0  0  0  0  0  0  0  0  0
  140.0206   81.4085  224.3492 H   0  0  0  0  0  0  0  0  0  0  0  0
  140.2070   79.6800  223.0540 C   0  0  0  0  0  0  0  0  0  0  0  0
  139.1240   79.4883  223.0348 H   0  0  0  0  0  0  0  0  0  0  0  0
  139.5100   76.8830  222.3720 C   0  0  0  0  0  0  0  0  0  0  0  0
  139.7110   77.0384  223.4422 H   0  0  0  0  0  0  0  0  0  0  0  0
  138.4945   77.2331  222.1350 H   0  0  0  0  0  0  0  0  0  0  0  0
  139.5933   75.8121  222.1350 H   0  0  0  0  0  0  0  0  0  0  0  0
  1  2  1  0
  2  3  2  0
  3  4  1  0
  4  5  1  0
  5  6  1  0
  6  7  2  0
  7  8  1  0
  8  9  1  0
  8 10  2  0
 10 11  1  0
 10 12  1  0
 12 13  1  0
 12 14  2  0
 14 15  1  0
 14 16  1  0
 16 17  1  0
 17 18  2  0
 17 19  1  0
 19 20  1  0
 20 21  1  0
 20 22  2  0
 22 23  1  0
 23 24  2  0
 23 25  1  0
 25 26  1  0
 25 27  1  0
 27 28  1  6
 27 29  1  0
 29 30  2  0
 30 31  1  0
 30 32  1  0
 32 33  1  0
 32 34  2  0
 34 35  1  0
 34 36  1  0
 36 37  1  0
 36 38  2  0
 38 39  1  0
 27 40  1  0
 40 41  1  0
 40 42  1  0
 40 43  1  0
 22  3  1  0
 38 29  1  0
 19  5  2  0
 16  7  1  0
M  CHG  1   4  -1
M  END
>  <UniqueID>  (40) 
32

>  <SMILES>  (40) 
[H]/N=c1/[n-]c2nc3ccccn3c(=O)c2cc1C(=O)N[C@@H](C)c1ccccc1

>  <Energy>  (40) 
62.68123368203247

>  <Genealogy>  (40) 
C[C@H](NC(=O)c1cc2c(=O)n3ccccc3nc2[n-]c1=N)c1ccccc1 (protonated)
[H]/N=c1/[n-]c2nc3ccccn3c(=O)c2cc1C(=O)N[C@@H](C)c1ccccc1 (cis-trans isomerization)
[H]/N=c1/[n-]c2nc3ccccn3c(=O)c2cc1C(=O)N[C@@H](C)c1ccccc1 (3D coordinates assigned)
[H]/N=c1/[n-]c2nc3ccccn3c(=O)c2cc1C(=O)N[C@@H](C)c1ccccc1 (optimized conformer: 62.68123368203247 kcal/mol)

>  <smiles>  (40) 
C[C@H](NC(=O)c1cc2c(=O)n3ccccc3nc2[nH]c1=N)c1ccccc1

>  <score_type>  (40) 
oracle

>  <origin>  (40) 
autodockgpu

>  <m_score__min__energy>  (40) 
-7.5499999999999998

>  <m_primary>  (40) 
energy

>  <meeko>  (40) 
{"free_energy": -7.54, "intermolecular_energy": -8.73, "internal_energy": -0.89, "cluster_size": 11, "cluster_id": 1, "rank_in_cluster": 6}

>  <energy>  (40) 
-6.95

>  <cluster_rmsd>  (40) 
0.0

>  <rmsd>  (40) 
270.25

>  <cluster>  (40) 
3

$$$$
HDANWICVGDYKAH-YCNVAKSKNA-M
     RDKit          3D

 43 46  0  0  0  0  0  0  0  0999 V2000
  138.0530   80.5080  224.5930 C   0  0  0  0  0  0  0  0  0  0  0  0
  138.6300   80.2920  223.1950 C   0  0  2  0  0  0  0  0  0  0  0  0
  138.1060   79.0480  222.6380 N   0  0  0  0  0  0  0  0  0  0  0  0
  138.6080   78.4430  221.4400 C   0  0  0  0  0  0  0  0  0  0  0  0
  138.4140   79.0010  220.3260 O   0  0  0  0  0  0  0  0  0  0  0  0
  139.4010   77.1980  221.5250 C   0  0  0  0  0  0  0  0  0  0  0  0
  140.6100   77.1210  220.8120 C   0  0  0  0  0  0  0  0  0  0  0  0
  141.3550   75.9310  220.8020 C   0  0  0  0  0  0  0  0  0  0  0  0
  142.5620   75.7950  220.0930 C   0  0  0  0  0  0  0  0  0  0  0  0
  143.0150   76.7780  219.4390 O   0  0  0  0  0  0  0  0  0  0  0  0
  143.2400   74.6000  220.1130 N   0  0  0  0  0  0  0  0  0  0  0  0
  144.4200   74.4530  219.4240 C   0  0  0  0  0  0  0  0  0  0  0  0
  145.1110   73.2390  219.4410 C   0  0  0  0  0  0  0  0  0  0  0  0
  144.6000   72.1670  220.1620 C   0  0  0  0  0  0  0  0  0  0  0  0
  143.4060   72.3120  220.8630 C   0  0  0  0  0  0  0  0  0  0  0  0
  142.7310   73.5380  220.8310 C   0  0  0  0  0  0  0  0  0  0  0  0
  141.5670   73.6660  221.5180 N   0  0  0  0  0  0  0  0  0  0  0  0
  140.8720   74.8280  221.5180 C   0  0  0  0  0  0  0  0  0  0  0  0
  139.7160   74.9230  222.2210 N   0  0  0  0  0  0  0  0  0  0  0  0
  138.9740   76.0630  222.2560 C   0  0  0  0  0  0  0  0  0  0  0  0
  137.8070   76.0890  223.0850 N   0  0  0  0  0  0  0  0  0  0  0  0
  140.1430   80.2540  223.2480 C   0  0  0  0  0  0  0  0  0  0  0  0
  140.8010   79.1410  223.8010 C   0  0  0  0  0  0  0  0  0  0  0  0
  142.1980   79.0940  223.8390 C   0  0  0  0  0  0  0  0  0  0  0  0
  142.9490   80.1520  223.3200 C   0  0  0  0  0  0  0  0  0  0  0  0
  142.3050   81.2570  222.7580 C   0  0  0  0  0  0  0  0  0  0  0  0
  140.9090   81.3080  222.7180 C   0  0  0  0  0  0  0  0  0  0  0  0
  138.8033   80.2271  225.3468 H   0  0  0  0  0  0  0  0  0  0  0  0
  137.7850   81.5673  224.7194 H   0  0  0  0  0  0  0  0  0  0  0  0
  137.1552   79.8851  224.7194 H   0  0  0  0  0  0  0  0  0  0  0  0
  138.3311   81.1295  222.5476 H   0  0  0  0  0  0  0  0  0  0  0  0
  140.9747   77.9987  220.2583 H   0  0  0  0  0  0  0  0  0  0  0  0
  144.8251   75.3011  218.8525 H   0  0  0  0  0  0  0  0  0  0  0  0
  146.0549   73.1324  218.8863 H   0  0  0  0  0  0  0  0  0  0  0  0
  145.1369   71.2071  220.1789 H   0  0  0  0  0  0  0  0  0  0  0  0
  142.9957   71.4689  221.4382 H   0  0  0  0  0  0  0  0  0  0  0  0
  137.3160   76.9960  223.2560 H   0  0  0  0  0  0  0  0  0  0  0  0
  137.3440   75.2210  223.4280 H   0  0  0  0  0  0  0  0  0  0  0  0
  140.2139   78.3034  224.2056 H   0  0  0  0  0  0  0  0  0  0  0  0
  142.7065   78.2230  224.2781 H   0  0  0  0  0  0  0  0  0  0  0  0
  144.0478   80.1147  223.3540 H   0  0  0  0  0  0  0  0  0  0  0  0
  142.8972   82.0877  222.3466 H   0  0  0  0  0  0  0  0  0  0  0  0
  140.4062   82.1775  222.2694 H   0  0  0  0  0  0  0  0  0  0  0  0
  1  2  1  0
  2  3  1  0
  3  4  1  0
  4  5  2  0
  4  6  1  0
  6  7  2  0
  7  8  1  0
  8  9  1  0
  9 10  2  0
  9 11  1  0
 11 12  1  0
 12 13  2  0
 13 14  1  0
 14 15  2  0
 15 16  1  0
 16 17  2  0
 17 18  1  0
 18 19  1  0
 19 20  2  0
 20 21  1  0
  2 22  1  0
 22 23  2  0
 23 24  1  0
 24 25  2  0
 25 26  1  0
 26 27  2  0
 20  6  1  0
 27 22  1  0
 18  8  2  0
 16 11  1  0
  1 28  1  0
  1 29  1  0
  1 30  1  0
  2 31  1  6
  7 32  1  0
 12 33  1  0
 13 34  1  0
 14 35  1  0
 15 36  1  0
 21 37  1  0
 21 38  1  0
 23 39  1  0
 24 40  1  0
 25 41  1  0
 26 42  1  0
 27 43  1  0
M  CHG  1   3  -1
M  END
>  <UniqueID>  (41) 
33

>  <SMILES>  (41) 
C[C@H]([N-]C(=O)c1cc2c(=O)n3ccccc3nc2nc1N)c1ccccc1

>  <Energy>  (41) 
58.123080534553395

>  <Genealogy>  (41) 
C[C@H]([N-]C(=O)c1cc2c(=O)n3ccccc3nc2[nH]c1=N)c1ccccc1 (protonated)
C[C@H]([N-]C(=O)c1cc2c(=O)n3ccccc3nc2nc1N)c1ccccc1 (tautomer)
C[C@H]([N-]C(=O)c1cc2c(=O)n3ccccc3nc2nc1N)c1ccccc1 (3D coordinates assigned)
C[C@H]([N-]C(=O)c1cc2c(=O)n3ccccc3nc2nc1N)c1ccccc1 (optimized conformer: 58.123080534553395 kcal/mol)

>  <smiles>  (41) 
C[C@H](NC(=O)c1cc2c(=O)n3ccccc3nc2[nH]c1=N)c1ccccc1

>  <score_type>  (41) 
oracle

>  <origin>  (41) 
autodockgpu

>  <m_score__min__energy>  (41) 
-7.1100000000000003

>  <m_primary>  (41) 
energy

>  <meeko>  (41) 
{"free_energy": -6.82, "intermolecular_energy": -8.31, "internal_energy": -1.42, "cluster_size": 17, "cluster_id": 2, "rank_in_cluster": 1}

>  <energy>  (41) 
-7.11

>  <cluster_rmsd>  (41) 
0.0

>  <rmsd>  (41) 
270.87

>  <cluster>  (41) 
1

$$$$
HDANWICVGDYKAH-YCNVAKSKNA-M
     RDKit          3D

 43 46  0  0  0  0  0  0  0  0999 V2000
  138.0910   80.5480  224.3220 C   0  0  0  0  0  0  0  0  0  0  0  0
  138.7290   80.7680  222.9520 C   0  0  2  0  0  0  0  0  0  0  0  0
  138.0340   79.9580  221.9550 N   0  0  0  0  0  0  0  0  0  0  0  0
  137.5120   78.6510  222.2220 C   0  0  0  0  0  0  0  0  0  0  0  0
  136.2860   78.5050  222.4810 O   0  0  0  0  0  0  0  0  0  0  0  0
  138.4030   77.4740  222.1340 C   0  0  0  0  0  0  0  0  0  0  0  0
  139.6240   77.6040  221.4500 C   0  0  0  0  0  0  0  0  0  0  0  0
  140.4640   76.4930  221.2760 C   0  0  0  0  0  0  0  0  0  0  0  0
  141.6880   76.5650  220.5860 C   0  0  0  0  0  0  0  0  0  0  0  0
  142.0670   77.6700  220.1040 O   0  0  0  0  0  0  0  0  0  0  0  0
  142.4610   75.4380  220.4390 N   0  0  0  0  0  0  0  0  0  0  0  0
  143.6580   75.4930  219.7670 C   0  0  0  0  0  0  0  0  0  0  0  0
  144.4460   74.3510  219.6150 C   0  0  0  0  0  0  0  0  0  0  0  0
  144.0140   73.1420  220.1490 C   0  0  0  0  0  0  0  0  0  0  0  0
  142.8030   73.0820  220.8320 C   0  0  0  0  0  0  0  0  0  0  0  0
  142.0300   74.2400  220.9710 C   0  0  0  0  0  0  0  0  0  0  0  0
  140.8500   74.1680  221.6390 N   0  0  0  0  0  0  0  0  0  0  0  0
  140.0630   75.2570  221.8000 C   0  0  0  0  0  0  0  0  0  0  0  0
  138.8940   75.1500  222.4790 N   0  0  0  0  0  0  0  0  0  0  0  0
  138.0600   76.2090  222.6700 C   0  0  0  0  0  0  0  0  0  0  0  0
  136.8840   76.0140  223.4630 N   0  0  0  0  0  0  0  0  0  0  0  0
  140.2000   80.4120  222.9910 C   0  0  0  0  0  0  0  0  0  0  0  0
  141.1180   81.1140  222.1900 C   0  0  0  0  0  0  0  0  0  0  0  0
  142.4800   80.7980  222.2340 C   0  0  0  0  0  0  0  0  0  0  0  0
  142.9370   79.7860  223.0820 C   0  0  0  0  0  0  0  0  0  0  0  0
  142.0350   79.0900  223.8910 C   0  0  0  0  0  0  0  0  0  0  0  0
  140.6730   79.4020  223.8490 C   0  0  0  0  0  0  0  0  0  0  0  0
  138.8173   80.7985  225.1092 H   0  0  0  0  0  0  0  0  0  0  0  0
  137.2053   81.1926  224.4218 H   0  0  0  0  0  0  0  0  0  0  0  0
  137.7909   79.4945  224.4218 H   0  0  0  0  0  0  0  0  0  0  0  0
  138.6403   81.8298  222.6789 H   0  0  0  0  0  0  0  0  0  0  0  0
  139.9234   78.5833  221.0482 H   0  0  0  0  0  0  0  0  0  0  0  0
  143.9997   76.4490  219.3434 H   0  0  0  0  0  0  0  0  0  0  0  0
  145.4032   74.4071  219.0759 H   0  0  0  0  0  0  0  0  0  0  0  0
  144.6272   72.2363  220.0320 H   0  0  0  0  0  0  0  0  0  0  0  0
  142.4556   72.1301  221.2600 H   0  0  0  0  0  0  0  0  0  0  0  0
  136.1460   76.7530  223.4810 H   0  0  0  0  0  0  0  0  0  0  0  0
  136.6660   75.1070  223.9270 H   0  0  0  0  0  0  0  0  0  0  0  0
  140.7634   81.9157  221.5255 H   0  0  0  0  0  0  0  0  0  0  0  0
  143.1920   81.3469  221.6002 H   0  0  0  0  0  0  0  0  0  0  0  0
  144.0080   79.5369  223.1128 H   0  0  0  0  0  0  0  0  0  0  0  0
  142.3968   78.2963  224.5612 H   0  0  0  0  0  0  0  0  0  0  0  0
  139.9667   78.8546  224.4906 H   0  0  0  0  0  0  0  0  0  0  0  0
  1  2  1  0
  2  3  1  0
  3  4  1  0
  4  5  2  0
  4  6  1  0
  6  7  2  0
  7  8  1  0
  8  9  1  0
  9 10  2  0
  9 11  1  0
 11 12  1  0
 12 13  2  0
 13 14  1  0
 14 15  2  0
 15 16  1  0
 16 17  2  0
 17 18  1  0
 18 19  1  0
 19 20  2  0
 20 21  1  0
  2 22  1  0
 22 23  2  0
 23 24  1  0
 24 25  2  0
 25 26  1  0
 26 27  2  0
 20  6  1  0
 27 22  1  0
 18  8  2  0
 16 11  1  0
  1 28  1  0
  1 29  1  0
  1 30  1  0
  2 31  1  6
  7 32  1  0
 12 33  1  0
 13 34  1  0
 14 35  1  0
 15 36  1  0
 21 37  1  0
 21 38  1  0
 23 39  1  0
 24 40  1  0
 25 41  1  0
 26 42  1  0
 27 43  1  0
M  CHG  1   3  -1
M  END
>  <UniqueID>  (42) 
33

>  <SMILES>  (42) 
C[C@H]([N-]C(=O)c1cc2c(=O)n3ccccc3nc2nc1N)c1ccccc1

>  <Energy>  (42) 
58.123080534553395

>  <Genealogy>  (42) 
C[C@H]([N-]C(=O)c1cc2c(=O)n3ccccc3nc2[nH]c1=N)c1ccccc1 (protonated)
C[C@H]([N-]C(=O)c1cc2c(=O)n3ccccc3nc2nc1N)c1ccccc1 (tautomer)
C[C@H]([N-]C(=O)c1cc2c(=O)n3ccccc3nc2nc1N)c1ccccc1 (3D coordinates assigned)
C[C@H]([N-]C(=O)c1cc2c(=O)n3ccccc3nc2nc1N)c1ccccc1 (optimized conformer: 58.123080534553395 kcal/mol)

>  <smiles>  (42) 
C[C@H](NC(=O)c1cc2c(=O)n3ccccc3nc2[nH]c1=N)c1ccccc1

>  <score_type>  (42) 
oracle

>  <origin>  (42) 
autodockgpu

>  <m_score__min__energy>  (42) 
-7.1100000000000003

>  <m_primary>  (42) 
energy

>  <meeko>  (42) 
{"free_energy": -6.54, "intermolecular_energy": -8.03, "internal_energy": -1.74, "cluster_size": 17, "cluster_id": 2, "rank_in_cluster": 14}

>  <energy>  (42) 
-7.1

>  <cluster_rmsd>  (42) 
0.04

>  <rmsd>  (42) 
270.87

>  <cluster>  (42) 
1

$$$$
HDANWICVGDYKAH-YCNVAKSKNA-M
     RDKit          3D

 43 46  0  0  0  0  0  0  0  0999 V2000
  140.4220   67.3810  226.5190 C   0  0  0  0  0  0  0  0  0  0  0  0
  139.5360   68.5420  226.0730 C   0  0  2  0  0  0  0  0  0  0  0  0
  139.4440   68.5530  224.6160 N   0  0  0  0  0  0  0  0  0  0  0  0
  138.3780   69.1840  223.8950 C   0  0  0  0  0  0  0  0  0  0  0  0
  137.2440   68.6350  223.8410 O   0  0  0  0  0  0  0  0  0  0  0  0
  138.5990   70.5060  223.2680 C   0  0  0  0  0  0  0  0  0  0  0  0
  139.8610   70.7860  222.7180 C   0  0  0  0  0  0  0  0  0  0  0  0
  140.1390   72.0550  222.1830 C   0  0  0  0  0  0  0  0  0  0  0  0
  141.3890   72.3930  221.6350 C   0  0  0  0  0  0  0  0  0  0  0  0
  142.3110   71.5280  221.6060 O   0  0  0  0  0  0  0  0  0  0  0  0
  141.6020   73.6560  221.1370 N   0  0  0  0  0  0  0  0  0  0  0  0
  142.8180   74.0000  220.5990 C   0  0  0  0  0  0  0  0  0  0  0  0
  143.0390   75.2830  220.0930 C   0  0  0  0  0  0  0  0  0  0  0  0
  142.0160   76.2240  220.1340 C   0  0  0  0  0  0  0  0  0  0  0  0
  140.7820   75.8780  220.6760 C   0  0  0  0  0  0  0  0  0  0  0  0
  140.5840   74.5870  221.1780 C   0  0  0  0  0  0  0  0  0  0  0  0
  139.3760   74.2630  221.7050 N   0  0  0  0  0  0  0  0  0  0  0  0
  139.1330   73.0290  222.2060 C   0  0  0  0  0  0  0  0  0  0  0  0
  137.9110   72.7380  222.7190 N   0  0  0  0  0  0  0  0  0  0  0  0
  137.6090   71.5170  223.2390 C   0  0  0  0  0  0  0  0  0  0  0  0
  136.2700   71.2830  223.6900 N   0  0  0  0  0  0  0  0  0  0  0  0
  140.0930   69.8560  226.5800 C   0  0  0  0  0  0  0  0  0  0  0  0
  139.8140   70.2820  227.8900 C   0  0  0  0  0  0  0  0  0  0  0  0
  140.3390   71.4880  228.3670 C   0  0  0  0  0  0  0  0  0  0  0  0
  141.1510   72.2730  227.5440 C   0  0  0  0  0  0  0  0  0  0  0  0
  141.4440   71.8530  226.2440 C   0  0  0  0  0  0  0  0  0  0  0  0
  140.9210   70.6480  225.7630 C   0  0  0  0  0  0  0  0  0  0  0  0
  140.4510   67.3430  227.6180 H   0  0  0  0  0  0  0  0  0  0  0  0
  140.0126   66.4370  226.1302 H   0  0  0  0  0  0  0  0  0  0  0  0
  141.4406   67.5267  226.1302 H   0  0  0  0  0  0  0  0  0  0  0  0
  138.5288   68.4113  226.4954 H   0  0  0  0  0  0  0  0  0  0  0  0
  140.6368   70.0063  222.7061 H   0  0  0  0  0  0  0  0  0  0  0  0
  143.6276   73.2561  220.5662 H   0  0  0  0  0  0  0  0  0  0  0  0
  144.0169   75.5476  219.6644 H   0  0  0  0  0  0  0  0  0  0  0  0
  142.1816   77.2375  219.7397 H   0  0  0  0  0  0  0  0  0  0  0  0
  139.9665   76.6154  220.7096 H   0  0  0  0  0  0  0  0  0  0  0  0
  135.5460   72.0240  223.5620 H   0  0  0  0  0  0  0  0  0  0  0  0
  135.9490   70.3510  224.0290 H   0  0  0  0  0  0  0  0  0  0  0  0
  139.1800   69.6644  228.5432 H   0  0  0  0  0  0  0  0  0  0  0  0
  140.1123   71.8187  229.3913 H   0  0  0  0  0  0  0  0  0  0  0  0
  141.5599   73.2225  227.9200 H   0  0  0  0  0  0  0  0  0  0  0  0
  142.0862   72.4701  225.5985 H   0  0  0  0  0  0  0  0  0  0  0  0
  141.1582   70.3179  224.7409 H   0  0  0  0  0  0  0  0  0  0  0  0
  1  2  1  0
  2  3  1  0
  3  4  1  0
  4  5  2  0
  4  6  1  0
  6  7  2  0
  7  8  1  0
  8  9  1  0
  9 10  2  0
  9 11  1  0
 11 12  1  0
 12 13  2  0
 13 14  1  0
 14 15  2  0
 15 16  1  0
 16 17  2  0
 17 18  1  0
 18 19  1  0
 19 20  2  0
 20 21  1  0
  2 22  1  0
 22 23  2  0
 23 24  1  0
 24 25  2  0
 25 26  1  0
 26 27  2  0
 20  6  1  0
 27 22  1  0
 18  8  2  0
 16 11  1  0
  1 28  1  0
  1 29  1  0
  1 30  1  0
  2 31  1  1
  7 32  1  0
 12 33  1  0
 13 34  1  0
 14 35  1  0
 15 36  1  0
 21 37  1  0
 21 38  1  0
 23 39  1  0
 24 40  1  0
 25 41  1  0
 26 42  1  0
 27 43  1  0
M  CHG  1   3  -1
M  END
>  <UniqueID>  (43) 
33

>  <SMILES>  (43) 
C[C@H]([N-]C(=O)c1cc2c(=O)n3ccccc3nc2nc1N)c1ccccc1

>  <Energy>  (43) 
58.123080534553395

>  <Genealogy>  (43) 
C[C@H]([N-]C(=O)c1cc2c(=O)n3ccccc3nc2[nH]c1=N)c1ccccc1 (protonated)
C[C@H]([N-]C(=O)c1cc2c(=O)n3ccccc3nc2nc1N)c1ccccc1 (tautomer)
C[C@H]([N-]C(=O)c1cc2c(=O)n3ccccc3nc2nc1N)c1ccccc1 (3D coordinates assigned)
C[C@H]([N-]C(=O)c1cc2c(=O)n3ccccc3nc2nc1N)c1ccccc1 (optimized conformer: 58.123080534553395 kcal/mol)

>  <smiles>  (43) 
C[C@H](NC(=O)c1cc2c(=O)n3ccccc3nc2[nH]c1=N)c1ccccc1

>  <score_type>  (43) 
oracle

>  <origin>  (43) 
autodockgpu

>  <m_score__min__energy>  (43) 
-7.1100000000000003

>  <m_primary>  (43) 
energy

>  <meeko>  (43) 
{"free_energy": -6.87, "intermolecular_energy": -8.36, "internal_energy": -1.43, "cluster_size": 3, "cluster_id": 1, "rank_in_cluster": 3}

>  <energy>  (43) 
-6.87

>  <cluster_rmsd>  (43) 
0.86

>  <rmsd>  (43) 
270.82

>  <cluster>  (43) 
1

$$$$
HDANWICVGDYKAH-YCNVAKSKNA-M
     RDKit          3D

 43 46  0  0  0  0  0  0  0  0999 V2000
  138.0690   80.5090  224.6070 C   0  0  0  0  0  0  0  0  0  0  0  0
  138.6150   80.2970  223.1960 C   0  0  2  0  0  0  0  0  0  0  0  0
  138.0770   79.0550  222.6470 N   0  0  0  0  0  0  0  0  0  0  0  0
  138.5700   78.4400  221.4510 C   0  0  0  0  0  0  0  0  0  0  0  0
  138.3650   78.9850  220.3330 O   0  0  0  0  0  0  0  0  0  0  0  0
  139.3680   77.1970  221.5420 C   0  0  0  0  0  0  0  0  0  0  0  0
  140.5730   77.1180  220.8240 C   0  0  0  0  0  0  0  0  0  0  0  0
  141.3230   75.9310  220.8190 C   0  0  0  0  0  0  0  0  0  0  0  0
  142.5260   75.7930  220.1040 C   0  0  0  0  0  0  0  0  0  0  0  0
  142.9720   76.7720  219.4400 O   0  0  0  0  0  0  0  0  0  0  0  0
  143.2080   74.5990  220.1310 N   0  0  0  0  0  0  0  0  0  0  0  0
  144.3850   74.4500  219.4370 C   0  0  0  0  0  0  0  0  0  0  0  0
  145.0800   73.2400  219.4600 C   0  0  0  0  0  0  0  0  0  0  0  0
  144.5760   72.1710  220.1940 C   0  0  0  0  0  0  0  0  0  0  0  0
  143.3850   72.3190  220.8990 C   0  0  0  0  0  0  0  0  0  0  0  0
  142.7060   73.5420  220.8610 C   0  0  0  0  0  0  0  0  0  0  0  0
  141.5450   73.6720  221.5530 N   0  0  0  0  0  0  0  0  0  0  0  0
  140.8470   74.8320  221.5470 C   0  0  0  0  0  0  0  0  0  0  0  0
  139.6940   74.9300  222.2550 N   0  0  0  0  0  0  0  0  0  0  0  0
  138.9480   76.0680  222.2850 C   0  0  0  0  0  0  0  0  0  0  0  0
  137.7860   76.0970  223.1200 N   0  0  0  0  0  0  0  0  0  0  0  0
  140.1290   80.2560  223.2160 C   0  0  0  0  0  0  0  0  0  0  0  0
  140.7970   79.1800  223.8260 C   0  0  0  0  0  0  0  0  0  0  0  0
  142.1950   79.1310  223.8340 C   0  0  0  0  0  0  0  0  0  0  0  0
  142.9360   80.1490  223.2280 C   0  0  0  0  0  0  0  0  0  0  0  0
  142.2810   81.2170  222.6090 C   0  0  0  0  0  0  0  0  0  0  0  0
  140.8840   81.2710  222.5990 C   0  0  0  0  0  0  0  0  0  0  0  0
  138.8309   80.2132  225.3433 H   0  0  0  0  0  0  0  0  0  0  0  0
  137.8166   81.5705  224.7468 H   0  0  0  0  0  0  0  0  0  0  0  0
  137.1664   79.8960  224.7468 H   0  0  0  0  0  0  0  0  0  0  0  0
  138.3036   81.1372  222.5579 H   0  0  0  0  0  0  0  0  0  0  0  0
  140.9316   77.9926  220.2615 H   0  0  0  0  0  0  0  0  0  0  0  0
  144.7840   75.2948  218.8564 H   0  0  0  0  0  0  0  0  0  0  0  0
  146.0211   73.1321  218.9009 H   0  0  0  0  0  0  0  0  0  0  0  0
  145.1163   71.2131  220.2171 H   0  0  0  0  0  0  0  0  0  0  0  0
  142.9798   71.4793  221.4827 H   0  0  0  0  0  0  0  0  0  0  0  0
  137.2920   77.0030  223.2850 H   0  0  0  0  0  0  0  0  0  0  0  0
  137.3290   75.2300  223.4730 H   0  0  0  0  0  0  0  0  0  0  0  0
  140.2180   78.3732  224.2990 H   0  0  0  0  0  0  0  0  0  0  0  0
  142.7120   78.2895  224.3183 H   0  0  0  0  0  0  0  0  0  0  0  0
  144.0353   80.1097  223.2382 H   0  0  0  0  0  0  0  0  0  0  0  0
  142.8652   82.0160  222.1291 H   0  0  0  0  0  0  0  0  0  0  0  0
  140.3723   82.1110  222.1064 H   0  0  0  0  0  0  0  0  0  0  0  0
  1  2  1  0
  2  3  1  0
  3  4  1  0
  4  5  2  0
  4  6  1  0
  6  7  2  0
  7  8  1  0
  8  9  1  0
  9 10  2  0
  9 11  1  0
 11 12  1  0
 12 13  2  0
 13 14  1  0
 14 15  2  0
 15 16  1  0
 16 17  2  0
 17 18  1  0
 18 19  1  0
 19 20  2  0
 20 21  1  0
  2 22  1  0
 22 23  2  0
 23 24  1  0
 24 25  2  0
 25 26  1  0
 26 27  2  0
 20  6  1  0
 27 22  1  0
 18  8  2  0
 16 11  1  0
  1 28  1  0
  1 29  1  0
  1 30  1  0
  2 31  1  6
  7 32  1  0
 12 33  1  0
 13 34  1  0
 14 35  1  0
 15 36  1  0
 21 37  1  0
 21 38  1  0
 23 39  1  0
 24 40  1  0
 25 41  1  0
 26 42  1  0
 27 43  1  0
M  CHG  1   3  -1
M  END
>  <UniqueID>  (44) 
33

>  <SMILES>  (44) 
C[C@H]([N-]C(=O)c1cc2c(=O)n3ccccc3nc2nc1N)c1ccccc1

>  <Energy>  (44) 
58.123080534553395

>  <Genealogy>  (44) 
C[C@H]([N-]C(=O)c1cc2c(=O)n3ccccc3nc2[nH]c1=N)c1ccccc1 (protonated)
C[C@H]([N-]C(=O)c1cc2c(=O)n3ccccc3nc2nc1N)c1ccccc1 (tautomer)
C[C@H]([N-]C(=O)c1cc2c(=O)n3ccccc3nc2nc1N)c1ccccc1 (3D coordinates assigned)
C[C@H]([N-]C(=O)c1cc2c(=O)n3ccccc3nc2nc1N)c1ccccc1 (optimized conformer: 58.123080534553395 kcal/mol)

>  <smiles>  (44) 
C[C@H](NC(=O)c1cc2c(=O)n3ccccc3nc2[nH]c1=N)c1ccccc1

>  <score_type>  (44) 
oracle

>  <origin>  (44) 
autodockgpu

>  <m_score__min__energy>  (44) 
-7.1100000000000003

>  <m_primary>  (44) 
energy

>  <meeko>  (44) 
{"free_energy": -6.78, "intermolecular_energy": -8.27, "internal_energy": -1.43, "cluster_size": 17, "cluster_id": 2, "rank_in_cluster": 3}

>  <energy>  (44) 
-6.82

>  <cluster_rmsd>  (44) 
0.0

>  <rmsd>  (44) 
271.31

>  <cluster>  (44) 
2

$$$$
HDANWICVGDYKAH-YCNVAKSKNA-M
     RDKit          3D

 43 46  0  0  0  0  0  0  0  0999 V2000
  138.0820   80.5140  224.3470 C   0  0  0  0  0  0  0  0  0  0  0  0
  138.7150   80.7620  222.9790 C   0  0  2  0  0  0  0  0  0  0  0  0
  138.0110   79.9790  221.9680 N   0  0  0  0  0  0  0  0  0  0  0  0
  137.4880   78.6660  222.2060 C   0  0  0  0  0  0  0  0  0  0  0  0
  136.2580   78.5130  222.4370 O   0  0  0  0  0  0  0  0  0  0  0  0
  138.3850   77.4940  222.1220 C   0  0  0  0  0  0  0  0  0  0  0  0
  139.6020   77.6260  221.4320 C   0  0  0  0  0  0  0  0  0  0  0  0
  140.4470   76.5180  221.2600 C   0  0  0  0  0  0  0  0  0  0  0  0
  141.6670   76.5920  220.5650 C   0  0  0  0  0  0  0  0  0  0  0  0
  142.0390   77.6960  220.0740 O   0  0  0  0  0  0  0  0  0  0  0  0
  142.4460   75.4680  220.4220 N   0  0  0  0  0  0  0  0  0  0  0  0
  143.6400   75.5250  219.7440 C   0  0  0  0  0  0  0  0  0  0  0  0
  144.4330   74.3860  219.5960 C   0  0  0  0  0  0  0  0  0  0  0  0
  144.0100   73.1780  220.1400 C   0  0  0  0  0  0  0  0  0  0  0  0
  142.8030   73.1160  220.8280 C   0  0  0  0  0  0  0  0  0  0  0  0
  142.0240   74.2710  220.9640 C   0  0  0  0  0  0  0  0  0  0  0  0
  140.8470   74.1970  221.6370 N   0  0  0  0  0  0  0  0  0  0  0  0
  140.0550   75.2830  221.7950 C   0  0  0  0  0  0  0  0  0  0  0  0
  138.8890   75.1750  222.4800 N   0  0  0  0  0  0  0  0  0  0  0  0
  138.0510   76.2310  222.6670 C   0  0  0  0  0  0  0  0  0  0  0  0
  136.8790   76.0340  223.4670 N   0  0  0  0  0  0  0  0  0  0  0  0
  140.1850   80.3980  223.0040 C   0  0  0  0  0  0  0  0  0  0  0  0
  140.6490   79.3970  223.8750 C   0  0  0  0  0  0  0  0  0  0  0  0
  142.0030   79.0470  223.8910 C   0  0  0  0  0  0  0  0  0  0  0  0
  142.9020   79.6870  223.0330 C   0  0  0  0  0  0  0  0  0  0  0  0
  142.4490   80.6750  222.1550 C   0  0  0  0  0  0  0  0  0  0  0  0
  141.0960   81.0280  222.1370 C   0  0  0  0  0  0  0  0  0  0  0  0
  138.7948   80.7933  225.1369 H   0  0  0  0  0  0  0  0  0  0  0  0
  137.1701   81.1213  224.4446 H   0  0  0  0  0  0  0  0  0  0  0  0
  137.8253   79.4488  224.4446 H   0  0  0  0  0  0  0  0  0  0  0  0
  138.6309   81.8300  222.7295 H   0  0  0  0  0  0  0  0  0  0  0  0
  139.8948   78.6045  221.0237 H   0  0  0  0  0  0  0  0  0  0  0  0
  143.9748   76.4799  219.3127 H   0  0  0  0  0  0  0  0  0  0  0  0
  145.3874   74.4435  219.0520 H   0  0  0  0  0  0  0  0  0  0  0  0
  144.6278   72.2750  220.0265 H   0  0  0  0  0  0  0  0  0  0  0  0
  142.4624   72.1647  221.2628 H   0  0  0  0  0  0  0  0  0  0  0  0
  136.7480   75.1310  223.9760 H   0  0  0  0  0  0  0  0  0  0  0  0
  136.2050   76.8020  223.6690 H   0  0  0  0  0  0  0  0  0  0  0  0
  139.9437   78.8865  224.5473 H   0  0  0  0  0  0  0  0  0  0  0  0
  142.3609   78.2673  224.5795 H   0  0  0  0  0  0  0  0  0  0  0  0
  143.9671   79.4125  223.0491 H   0  0  0  0  0  0  0  0  0  0  0  0
  143.1569   81.1753  221.4778 H   0  0  0  0  0  0  0  0  0  0  0  0
  140.7421   81.8027  221.4409 H   0  0  0  0  0  0  0  0  0  0  0  0
  1  2  1  0
  2  3  1  0
  3  4  1  0
  4  5  2  0
  4  6  1  0
  6  7  2  0
  7  8  1  0
  8  9  1  0
  9 10  2  0
  9 11  1  0
 11 12  1  0
 12 13  2  0
 13 14  1  0
 14 15  2  0
 15 16  1  0
 16 17  2  0
 17 18  1  0
 18 19  1  0
 19 20  2  0
 20 21  1  0
  2 22  1  0
 22 23  2  0
 23 24  1  0
 24 25  2  0
 25 26  1  0
 26 27  2  0
 20  6  1  0
 27 22  1  0
 18  8  2  0
 16 11  1  0
  1 28  1  0
  1 29  1  0
  1 30  1  0
  2 31  1  6
  7 32  1  0
 12 33  1  0
 13 34  1  0
 14 35  1  0
 15 36  1  0
 21 37  1  0
 21 38  1  0
 23 39  1  0
 24 40  1  0
 25 41  1  0
 26 42  1  0
 27 43  1  0
M  CHG  1   3  -1
M  END
>  <UniqueID>  (45) 
33

>  <SMILES>  (45) 
C[C@H]([N-]C(=O)c1cc2c(=O)n3ccccc3nc2nc1N)c1ccccc1

>  <Energy>  (45) 
58.123080534553395

>  <Genealogy>  (45) 
C[C@H]([N-]C(=O)c1cc2c(=O)n3ccccc3nc2[nH]c1=N)c1ccccc1 (protonated)
C[C@H]([N-]C(=O)c1cc2c(=O)n3ccccc3nc2nc1N)c1ccccc1 (tautomer)
C[C@H]([N-]C(=O)c1cc2c(=O)n3ccccc3nc2nc1N)c1ccccc1 (3D coordinates assigned)
C[C@H]([N-]C(=O)c1cc2c(=O)n3ccccc3nc2nc1N)c1ccccc1 (optimized conformer: 58.123080534553395 kcal/mol)

>  <smiles>  (45) 
C[C@H](NC(=O)c1cc2c(=O)n3ccccc3nc2[nH]c1=N)c1ccccc1

>  <score_type>  (45) 
oracle

>  <origin>  (45) 
autodockgpu

>  <m_score__min__energy>  (45) 
-7.1100000000000003

>  <m_primary>  (45) 
energy

>  <meeko>  (45) 
{"free_energy": -6.5, "intermolecular_energy": -7.99, "internal_energy": -1.78, "cluster_size": 17, "cluster_id": 2, "rank_in_cluster": 17}

>  <energy>  (45) 
-6.8

>  <cluster_rmsd>  (45) 
0.11

>  <rmsd>  (45) 
271.27

>  <cluster>  (45) 
2

$$$$
HDANWICVGDYKAH-YCNVAKSKNA-M
     RDKit          3D

 43 46  0  0  0  0  0  0  0  0999 V2000
  138.1230   80.5430  224.3170 C   0  0  0  0  0  0  0  0  0  0  0  0
  138.7590   80.7560  222.9440 C   0  0  2  0  0  0  0  0  0  0  0  0
  138.0570   79.9450  221.9520 N   0  0  0  0  0  0  0  0  0  0  0  0
  137.5330   78.6400  222.2250 C   0  0  0  0  0  0  0  0  0  0  0  0
  136.3090   78.4980  222.4930 O   0  0  0  0  0  0  0  0  0  0  0  0
  138.4200   77.4600  222.1320 C   0  0  0  0  0  0  0  0  0  0  0  0
  139.6400   77.5870  221.4460 C   0  0  0  0  0  0  0  0  0  0  0  0
  140.4750   76.4740  221.2670 C   0  0  0  0  0  0  0  0  0  0  0  0
  141.6970   76.5420  220.5740 C   0  0  0  0  0  0  0  0  0  0  0  0
  142.0800   77.6470  220.0940 O   0  0  0  0  0  0  0  0  0  0  0  0
  142.4660   75.4130  220.4240 N   0  0  0  0  0  0  0  0  0  0  0  0
  143.6620   75.4650  219.7490 C   0  0  0  0  0  0  0  0  0  0  0  0
  144.4450   74.3200  219.5920 C   0  0  0  0  0  0  0  0  0  0  0  0
  144.0100   73.1110  220.1240 C   0  0  0  0  0  0  0  0  0  0  0  0
  142.8010   73.0540  220.8100 C   0  0  0  0  0  0  0  0  0  0  0  0
  142.0320   74.2150  220.9540 C   0  0  0  0  0  0  0  0  0  0  0  0
  140.8540   74.1460  221.6240 N   0  0  0  0  0  0  0  0  0  0  0  0
  140.0710   75.2380  221.7890 C   0  0  0  0  0  0  0  0  0  0  0  0
  138.9020   75.1340  222.4710 N   0  0  0  0  0  0  0  0  0  0  0  0
  138.0730   76.1960  222.6660 C   0  0  0  0  0  0  0  0  0  0  0  0
  136.8980   76.0030  223.4610 N   0  0  0  0  0  0  0  0  0  0  0  0
  140.2290   80.3950  222.9810 C   0  0  0  0  0  0  0  0  0  0  0  0
  141.1460   81.0890  222.1730 C   0  0  0  0  0  0  0  0  0  0  0  0
  142.5070   80.7680  222.2140 C   0  0  0  0  0  0  0  0  0  0  0  0
  142.9640   79.7590  223.0670 C   0  0  0  0  0  0  0  0  0  0  0  0
  142.0620   79.0710  223.8820 C   0  0  0  0  0  0  0  0  0  0  0  0
  140.7000   79.3880  223.8430 C   0  0  0  0  0  0  0  0  0  0  0  0
  138.8540   80.7878  225.1017 H   0  0  0  0  0  0  0  0  0  0  0  0
  137.2434   81.1956  224.4189 H   0  0  0  0  0  0  0  0  0  0  0  0
  137.8138   79.4923  224.4189 H   0  0  0  0  0  0  0  0  0  0  0  0
  138.6747   81.8171  222.6665 H   0  0  0  0  0  0  0  0  0  0  0  0
  139.9424   78.5663  221.0465 H   0  0  0  0  0  0  0  0  0  0  0  0
  144.0066   76.4207  219.3272 H   0  0  0  0  0  0  0  0  0  0  0  0
  145.4009   74.3738  219.0504 H   0  0  0  0  0  0  0  0  0  0  0  0
  144.6194   72.2033  220.0029 H   0  0  0  0  0  0  0  0  0  0  0  0
  142.4514   72.1023  221.2367 H   0  0  0  0  0  0  0  0  0  0  0  0
  136.1550   76.7370  223.4680 H   0  0  0  0  0  0  0  0  0  0  0  0
  136.6880   75.1010  223.9390 H   0  0  0  0  0  0  0  0  0  0  0  0
  140.7919   81.8882  221.5053 H   0  0  0  0  0  0  0  0  0  0  0  0
  143.2187   81.3103  221.5741 H   0  0  0  0  0  0  0  0  0  0  0  0
  144.0343   79.5068  223.0964 H   0  0  0  0  0  0  0  0  0  0  0  0
  142.4229   78.2793  224.5550 H   0  0  0  0  0  0  0  0  0  0  0  0
  139.9936   78.8470  224.4898 H   0  0  0  0  0  0  0  0  0  0  0  0
  1  2  1  0
  2  3  1  0
  3  4  1  0
  4  5  2  0
  4  6  1  0
  6  7  2  0
  7  8  1  0
  8  9  1  0
  9 10  2  0
  9 11  1  0
 11 12  1  0
 12 13  2  0
 13 14  1  0
 14 15  2  0
 15 16  1  0
 16 17  2  0
 17 18  1  0
 18 19  1  0
 19 20  2  0
 20 21  1  0
  2 22  1  0
 22 23  2  0
 23 24  1  0
 24 25  2  0
 25 26  1  0
 26 27  2  0
 20  6  1  0
 27 22  1  0
 18  8  2  0
 16 11  1  0
  1 28  1  0
  1 29  1  0
  1 30  1  0
  2 31  1  6
  7 32  1  0
 12 33  1  0
 13 34  1  0
 14 35  1  0
 15 36  1  0
 21 37  1  0
 21 38  1  0
 23 39  1  0
 24 40  1  0
 25 41  1  0
 26 42  1  0
 27 43  1  0
M  CHG  1   3  -1
M  END
>  <UniqueID>  (46) 
33

>  <SMILES>  (46) 
C[C@H]([N-]C(=O)c1cc2c(=O)n3ccccc3nc2nc1N)c1ccccc1

>  <Energy>  (46) 
58.123080534553395

>  <Genealogy>  (46) 
C[C@H]([N-]C(=O)c1cc2c(=O)n3ccccc3nc2[nH]c1=N)c1ccccc1 (protonated)
C[C@H]([N-]C(=O)c1cc2c(=O)n3ccccc3nc2nc1N)c1ccccc1 (tautomer)
C[C@H]([N-]C(=O)c1cc2c(=O)n3ccccc3nc2nc1N)c1ccccc1 (3D coordinates assigned)
C[C@H]([N-]C(=O)c1cc2c(=O)n3ccccc3nc2nc1N)c1ccccc1 (optimized conformer: 58.123080534553395 kcal/mol)

>  <smiles>  (46) 
C[C@H](NC(=O)c1cc2c(=O)n3ccccc3nc2[nH]c1=N)c1ccccc1

>  <score_type>  (46) 
oracle

>  <origin>  (46) 
autodockgpu

>  <m_score__min__energy>  (46) 
-7.1100000000000003

>  <m_primary>  (46) 
energy

>  <meeko>  (46) 
{"free_energy": -6.54, "intermolecular_energy": -8.03, "internal_energy": -1.74, "cluster_size": 17, "cluster_id": 2, "rank_in_cluster": 15}

>  <energy>  (46) 
-6.78

>  <cluster_rmsd>  (46) 
0.06

>  <rmsd>  (46) 
271.3

>  <cluster>  (46) 
2

$$$$
HDANWICVGDYKAH-YCNVAKSKNA-M
     RDKit          3D

 43 46  0  0  0  0  0  0  0  0999 V2000
  138.1260   80.4930  224.3800 C   0  0  0  0  0  0  0  0  0  0  0  0
  138.7440   80.7490  223.0060 C   0  0  2  0  0  0  0  0  0  0  0  0
  138.0320   79.9680  221.9990 N   0  0  0  0  0  0  0  0  0  0  0  0
  137.5120   78.6550  222.2380 C   0  0  0  0  0  0  0  0  0  0  0  0
  136.2860   78.5000  222.4870 O   0  0  0  0  0  0  0  0  0  0  0  0
  138.4070   77.4820  222.1330 C   0  0  0  0  0  0  0  0  0  0  0  0
  139.6270   77.6250  221.4500 C   0  0  0  0  0  0  0  0  0  0  0  0
  140.4700   76.5190  221.2600 C   0  0  0  0  0  0  0  0  0  0  0  0
  141.6930   76.6040  220.5700 C   0  0  0  0  0  0  0  0  0  0  0  0
  142.0680   77.7170  220.1020 O   0  0  0  0  0  0  0  0  0  0  0  0
  142.4700   75.4820  220.4070 N   0  0  0  0  0  0  0  0  0  0  0  0
  143.6660   75.5500  219.7350 C   0  0  0  0  0  0  0  0  0  0  0  0
  144.4570   74.4120  219.5660 C   0  0  0  0  0  0  0  0  0  0  0  0
  144.0300   73.1940  220.0840 C   0  0  0  0  0  0  0  0  0  0  0  0
  142.8200   73.1220  220.7670 C   0  0  0  0  0  0  0  0  0  0  0  0
  142.0430   74.2760  220.9230 C   0  0  0  0  0  0  0  0  0  0  0  0
  140.8640   74.1900  221.5910 N   0  0  0  0  0  0  0  0  0  0  0  0
  140.0740   75.2750  221.7680 C   0  0  0  0  0  0  0  0  0  0  0  0
  138.9050   75.1550  222.4470 N   0  0  0  0  0  0  0  0  0  0  0  0
  138.0690   76.2090  222.6530 C   0  0  0  0  0  0  0  0  0  0  0  0
  136.8940   75.9990  223.4440 N   0  0  0  0  0  0  0  0  0  0  0  0
  140.2150   80.3900  223.0140 C   0  0  0  0  0  0  0  0  0  0  0  0
  141.1220   81.1130  222.2200 C   0  0  0  0  0  0  0  0  0  0  0  0
  142.4840   80.7940  222.2340 C   0  0  0  0  0  0  0  0  0  0  0  0
  142.9520   79.7580  223.0470 C   0  0  0  0  0  0  0  0  0  0  0  0
  142.0610   79.0410  223.8490 C   0  0  0  0  0  0  0  0  0  0  0  0
  140.6990   79.3560  223.8370 C   0  0  0  0  0  0  0  0  0  0  0  0
  138.8392   80.7884  225.1636 H   0  0  0  0  0  0  0  0  0  0  0  0
  137.2033   81.0829  224.4827 H   0  0  0  0  0  0  0  0  0  0  0  0
  137.8907   79.4234  224.4827 H   0  0  0  0  0  0  0  0  0  0  0  0
  138.6538   81.8178  222.7619 H   0  0  0  0  0  0  0  0  0  0  0  0
  139.9232   78.6106  221.0616 H   0  0  0  0  0  0  0  0  0  0  0  0
  144.0048   76.5129  219.3250 H   0  0  0  0  0  0  0  0  0  0  0  0
  145.4130   74.4784  219.0259 H   0  0  0  0  0  0  0  0  0  0  0  0
  144.6459   72.2919  219.9543 H   0  0  0  0  0  0  0  0  0  0  0  0
  142.4757   72.1633  221.1822 H   0  0  0  0  0  0  0  0  0  0  0  0
  136.7600   75.0870  223.9370 H   0  0  0  0  0  0  0  0  0  0  0  0
  136.2190   76.7630  223.6570 H   0  0  0  0  0  0  0  0  0  0  0  0
  140.7589   81.9340  221.5843 H   0  0  0  0  0  0  0  0  0  0  0  0
  143.1872   81.3591  221.6046 H   0  0  0  0  0  0  0  0  0  0  0  0
  144.0229   79.5070  223.0553 H   0  0  0  0  0  0  0  0  0  0  0  0
  142.4313   78.2278  224.4906 H   0  0  0  0  0  0  0  0  0  0  0  0
  140.0017   78.7925  224.4744 H   0  0  0  0  0  0  0  0  0  0  0  0
  1  2  1  0
  2  3  1  0
  3  4  1  0
  4  5  2  0
  4  6  1  0
  6  7  2  0
  7  8  1  0
  8  9  1  0
  9 10  2  0
  9 11  1  0
 11 12  1  0
 12 13  2  0
 13 14  1  0
 14 15  2  0
 15 16  1  0
 16 17  2  0
 17 18  1  0
 18 19  1  0
 19 20  2  0
 20 21  1  0
  2 22  1  0
 22 23  2  0
 23 24  1  0
 24 25  2  0
 25 26  1  0
 26 27  2  0
 20  6  1  0
 27 22  1  0
 18  8  2  0
 16 11  1  0
  1 28  1  0
  1 29  1  0
  1 30  1  0
  2 31  1  6
  7 32  1  0
 12 33  1  0
 13 34  1  0
 14 35  1  0
 15 36  1  0
 21 37  1  0
 21 38  1  0
 23 39  1  0
 24 40  1  0
 25 41  1  0
 26 42  1  0
 27 43  1  0
M  CHG  1   3  -1
M  END
>  <UniqueID>  (47) 
33

>  <SMILES>  (47) 
C[C@H]([N-]C(=O)c1cc2c(=O)n3ccccc3nc2nc1N)c1ccccc1

>  <Energy>  (47) 
58.123080534553395

>  <Genealogy>  (47) 
C[C@H]([N-]C(=O)c1cc2c(=O)n3ccccc3nc2[nH]c1=N)c1ccccc1 (protonated)
C[C@H]([N-]C(=O)c1cc2c(=O)n3ccccc3nc2nc1N)c1ccccc1 (tautomer)
C[C@H]([N-]C(=O)c1cc2c(=O)n3ccccc3nc2nc1N)c1ccccc1 (3D coordinates assigned)
C[C@H]([N-]C(=O)c1cc2c(=O)n3ccccc3nc2nc1N)c1ccccc1 (optimized conformer: 58.123080534553395 kcal/mol)

>  <smiles>  (47) 
C[C@H](NC(=O)c1cc2c(=O)n3ccccc3nc2[nH]c1=N)c1ccccc1

>  <score_type>  (47) 
oracle

>  <origin>  (47) 
autodockgpu

>  <m_score__min__energy>  (47) 
-7.1100000000000003

>  <m_primary>  (47) 
energy

>  <meeko>  (47) 
{"free_energy": -6.55, "intermolecular_energy": -8.04, "internal_energy": -1.73, "cluster_size": 17, "cluster_id": 2, "rank_in_cluster": 9}

>  <energy>  (47) 
-6.73

>  <cluster_rmsd>  (47) 
0.09

>  <rmsd>  (47) 
271.27

>  <cluster>  (47) 
2

$$$$
HDANWICVGDYKAH-YCNVAKSKNA-M
     RDKit          3D

 43 46  0  0  0  0  0  0  0  0999 V2000
  138.1160   80.5230  224.3480 C   0  0  0  0  0  0  0  0  0  0  0  0
  138.7550   80.7640  222.9810 C   0  0  2  0  0  0  0  0  0  0  0  0
  138.0720   79.9560  221.9750 N   0  0  0  0  0  0  0  0  0  0  0  0
  137.5520   78.6460  222.2310 C   0  0  0  0  0  0  0  0  0  0  0  0
  136.3250   78.4940  222.4810 O   0  0  0  0  0  0  0  0  0  0  0  0
  138.4490   77.4720  222.1440 C   0  0  0  0  0  0  0  0  0  0  0  0
  139.6670   77.6060  221.4570 C   0  0  0  0  0  0  0  0  0  0  0  0
  140.5110   76.4980  221.2830 C   0  0  0  0  0  0  0  0  0  0  0  0
  141.7330   76.5730  220.5900 C   0  0  0  0  0  0  0  0  0  0  0  0
  142.1060   77.6780  220.1040 O   0  0  0  0  0  0  0  0  0  0  0  0
  142.5100   75.4480  220.4450 N   0  0  0  0  0  0  0  0  0  0  0  0
  143.7050   75.5070  219.7690 C   0  0  0  0  0  0  0  0  0  0  0  0
  144.4980   74.3670  219.6180 C   0  0  0  0  0  0  0  0  0  0  0  0
  144.0730   73.1580  220.1560 C   0  0  0  0  0  0  0  0  0  0  0  0
  142.8640   73.0950  220.8430 C   0  0  0  0  0  0  0  0  0  0  0  0
  142.0860   74.2500  220.9810 C   0  0  0  0  0  0  0  0  0  0  0  0
  140.9080   74.1750  221.6520 N   0  0  0  0  0  0  0  0  0  0  0  0
  140.1170   75.2620  221.8120 C   0  0  0  0  0  0  0  0  0  0  0  0
  138.9500   75.1520  222.4950 N   0  0  0  0  0  0  0  0  0  0  0  0
  138.1120   76.2080  222.6850 C   0  0  0  0  0  0  0  0  0  0  0  0
  136.9390   76.0090  223.4810 N   0  0  0  0  0  0  0  0  0  0  0  0
  140.2300   80.4250  223.0220 C   0  0  0  0  0  0  0  0  0  0  0  0
  140.6930   79.3890  223.8520 C   0  0  0  0  0  0  0  0  0  0  0  0
  142.0530   79.0620  223.8820 C   0  0  0  0  0  0  0  0  0  0  0  0
  142.9590   79.7600  223.0790 C   0  0  0  0  0  0  0  0  0  0  0  0
  142.5080   80.7830  222.2420 C   0  0  0  0  0  0  0  0  0  0  0  0
  141.1490   81.1130  222.2090 C   0  0  0  0  0  0  0  0  0  0  0  0
  138.8307   80.7926  225.1395 H   0  0  0  0  0  0  0  0  0  0  0  0
  137.2117   81.1418  224.4443 H   0  0  0  0  0  0  0  0  0  0  0  0
  137.8456   79.4611  224.4443 H   0  0  0  0  0  0  0  0  0  0  0  0
  138.6547   81.8270  222.7166 H   0  0  0  0  0  0  0  0  0  0  0  0
  139.9613   78.5858  221.0527 H   0  0  0  0  0  0  0  0  0  0  0  0
  144.0411   76.4633  219.3417 H   0  0  0  0  0  0  0  0  0  0  0  0
  145.4536   74.4258  219.0763 H   0  0  0  0  0  0  0  0  0  0  0  0
  144.6896   72.2545  220.0394 H   0  0  0  0  0  0  0  0  0  0  0  0
  142.5221   72.1429  221.2749 H   0  0  0  0  0  0  0  0  0  0  0  0
  136.1880   76.7360  223.4820 H   0  0  0  0  0  0  0  0  0  0  0  0
  136.7370   75.1100  223.9660 H   0  0  0  0  0  0  0  0  0  0  0  0
  139.9824   78.8327  224.4810 H   0  0  0  0  0  0  0  0  0  0  0  0
  142.4095   78.2545  224.5384 H   0  0  0  0  0  0  0  0  0  0  0  0
  144.0283   79.5035  223.1062 H   0  0  0  0  0  0  0  0  0  0  0  0
  143.2219   81.3296  221.6083 H   0  0  0  0  0  0  0  0  0  0  0  0
  140.7970   81.9150  221.5435 H   0  0  0  0  0  0  0  0  0  0  0  0
  1  2  1  0
  2  3  1  0
  3  4  1  0
  4  5  2  0
  4  6  1  0
  6  7  2  0
  7  8  1  0
  8  9  1  0
  9 10  2  0
  9 11  1  0
 11 12  1  0
 12 13  2  0
 13 14  1  0
 14 15  2  0
 15 16  1  0
 16 17  2  0
 17 18  1  0
 18 19  1  0
 19 20  2  0
 20 21  1  0
  2 22  1  0
 22 23  2  0
 23 24  1  0
 24 25  2  0
 25 26  1  0
 26 27  2  0
 20  6  1  0
 27 22  1  0
 18  8  2  0
 16 11  1  0
  1 28  1  0
  1 29  1  0
  1 30  1  0
  2 31  1  6
  7 32  1  0
 12 33  1  0
 13 34  1  0
 14 35  1  0
 15 36  1  0
 21 37  1  0
 21 38  1  0
 23 39  1  0
 24 40  1  0
 25 41  1  0
 26 42  1  0
 27 43  1  0
M  CHG  1   3  -1
M  END
>  <UniqueID>  (48) 
33

>  <SMILES>  (48) 
C[C@H]([N-]C(=O)c1cc2c(=O)n3ccccc3nc2nc1N)c1ccccc1

>  <Energy>  (48) 
58.123080534553395

>  <Genealogy>  (48) 
C[C@H]([N-]C(=O)c1cc2c(=O)n3ccccc3nc2[nH]c1=N)c1ccccc1 (protonated)
C[C@H]([N-]C(=O)c1cc2c(=O)n3ccccc3nc2nc1N)c1ccccc1 (tautomer)
C[C@H]([N-]C(=O)c1cc2c(=O)n3ccccc3nc2nc1N)c1ccccc1 (3D coordinates assigned)
C[C@H]([N-]C(=O)c1cc2c(=O)n3ccccc3nc2nc1N)c1ccccc1 (optimized conformer: 58.123080534553395 kcal/mol)

>  <smiles>  (48) 
C[C@H](NC(=O)c1cc2c(=O)n3ccccc3nc2[nH]c1=N)c1ccccc1

>  <score_type>  (48) 
oracle

>  <origin>  (48) 
autodockgpu

>  <m_score__min__energy>  (48) 
-7.1100000000000003

>  <m_primary>  (48) 
energy

>  <meeko>  (48) 
{"free_energy": -6.54, "intermolecular_energy": -8.03, "internal_energy": -1.75, "cluster_size": 17, "cluster_id": 2, "rank_in_cluster": 13}

>  <energy>  (48) 
-6.58

>  <cluster_rmsd>  (48) 
1.0

>  <rmsd>  (48) 
271.24

>  <cluster>  (48) 
2

$$$$
HDANWICVGDYKAH-YCNVAKSKNA-M
     RDKit          3D

 43 46  0  0  0  0  0  0  0  0999 V2000
  138.1170   80.5060  224.3350 C   0  0  0  0  0  0  0  0  0  0  0  0
  138.7530   80.7550  222.9690 C   0  0  2  0  0  0  0  0  0  0  0  0
  138.0710   79.9490  221.9600 N   0  0  0  0  0  0  0  0  0  0  0  0
  137.5390   78.6440  222.2170 C   0  0  0  0  0  0  0  0  0  0  0  0
  136.3110   78.5050  222.4680 O   0  0  0  0  0  0  0  0  0  0  0  0
  138.4230   77.4620  222.1300 C   0  0  0  0  0  0  0  0  0  0  0  0
  139.6440   77.5830  221.4450 C   0  0  0  0  0  0  0  0  0  0  0  0
  140.4770   76.4670  221.2710 C   0  0  0  0  0  0  0  0  0  0  0  0
  141.7010   76.5310  220.5810 C   0  0  0  0  0  0  0  0  0  0  0  0
  142.0860   77.6330  220.0970 O   0  0  0  0  0  0  0  0  0  0  0  0
  142.4670   75.3980  220.4350 N   0  0  0  0  0  0  0  0  0  0  0  0
  143.6640   75.4460  219.7620 C   0  0  0  0  0  0  0  0  0  0  0  0
  144.4440   74.2980  219.6100 C   0  0  0  0  0  0  0  0  0  0  0  0
  144.0060   73.0920  220.1460 C   0  0  0  0  0  0  0  0  0  0  0  0
  142.7950   73.0410  220.8300 C   0  0  0  0  0  0  0  0  0  0  0  0
  142.0290   74.2040  220.9680 C   0  0  0  0  0  0  0  0  0  0  0  0
  140.8490   74.1390  221.6370 N   0  0  0  0  0  0  0  0  0  0  0  0
  140.0690   75.2340  221.7970 C   0  0  0  0  0  0  0  0  0  0  0  0
  138.8990   75.1350  222.4770 N   0  0  0  0  0  0  0  0  0  0  0  0
  138.0720   76.2000  222.6680 C   0  0  0  0  0  0  0  0  0  0  0  0
  136.8950   76.0120  223.4610 N   0  0  0  0  0  0  0  0  0  0  0  0
  140.2300   80.4210  223.0050 C   0  0  0  0  0  0  0  0  0  0  0  0
  140.6990   79.3900  223.8380 C   0  0  0  0  0  0  0  0  0  0  0  0
  142.0600   79.0680  223.8650 C   0  0  0  0  0  0  0  0  0  0  0  0
  142.9610   79.7660  223.0560 C   0  0  0  0  0  0  0  0  0  0  0  0
  142.5030   80.7840  222.2160 C   0  0  0  0  0  0  0  0  0  0  0  0
  141.1440   81.1100  222.1870 C   0  0  0  0  0  0  0  0  0  0  0  0
  138.8281   80.7844  225.1268 H   0  0  0  0  0  0  0  0  0  0  0  0
  137.2050   81.1135  224.4311 H   0  0  0  0  0  0  0  0  0  0  0  0
  137.8599   79.4408  224.4311 H   0  0  0  0  0  0  0  0  0  0  0  0
  138.6487   81.8191  222.7104 H   0  0  0  0  0  0  0  0  0  0  0  0
  139.9492   78.5600  221.0421 H   0  0  0  0  0  0  0  0  0  0  0  0
  144.0117   76.3997  219.3382 H   0  0  0  0  0  0  0  0  0  0  0  0
  145.4004   74.3473  219.0688 H   0  0  0  0  0  0  0  0  0  0  0  0
  144.6138   72.1825  220.0299 H   0  0  0  0  0  0  0  0  0  0  0  0
  142.4420   72.0919  221.2597 H   0  0  0  0  0  0  0  0  0  0  0  0
  136.1270   76.7190  223.4180 H   0  0  0  0  0  0  0  0  0  0  0  0
  136.7100   75.1330  223.9890 H   0  0  0  0  0  0  0  0  0  0  0  0
  139.9923   78.8339  224.4715 H   0  0  0  0  0  0  0  0  0  0  0  0
  142.4215   78.2646  224.5237 H   0  0  0  0  0  0  0  0  0  0  0  0
  144.0314   79.5136  223.0807 H   0  0  0  0  0  0  0  0  0  0  0  0
  143.2126   81.3296  221.5767 H   0  0  0  0  0  0  0  0  0  0  0  0
  140.7873   81.9095  221.5210 H   0  0  0  0  0  0  0  0  0  0  0  0
  1  2  1  0
  2  3  1  0
  3  4  1  0
  4  5  2  0
  4  6  1  0
  6  7  2  0
  7  8  1  0
  8  9  1  0
  9 10  2  0
  9 11  1  0
 11 12  1  0
 12 13  2  0
 13 14  1  0
 14 15  2  0
 15 16  1  0
 16 17  2  0
 17 18  1  0
 18 19  1  0
 19 20  2  0
 20 21  1  0
  2 22  1  0
 22 23  2  0
 23 24  1  0
 24 25  2  0
 25 26  1  0
 26 27  2  0
 20  6  1  0
 27 22  1  0
 18  8  2  0
 16 11  1  0
  1 28  1  0
  1 29  1  0
  1 30  1  0
  2 31  1  6
  7 32  1  0
 12 33  1  0
 13 34  1  0
 14 35  1  0
 15 36  1  0
 21 37  1  0
 21 38  1  0
 23 39  1  0
 24 40  1  0
 25 41  1  0
 26 42  1  0
 27 43  1  0
M  CHG  1   3  -1
M  END
>  <UniqueID>  (49) 
33

>  <SMILES>  (49) 
C[C@H]([N-]C(=O)c1cc2c(=O)n3ccccc3nc2nc1N)c1ccccc1

>  <Energy>  (49) 
58.123080534553395

>  <Genealogy>  (49) 
C[C@H]([N-]C(=O)c1cc2c(=O)n3ccccc3nc2[nH]c1=N)c1ccccc1 (protonated)
C[C@H]([N-]C(=O)c1cc2c(=O)n3ccccc3nc2nc1N)c1ccccc1 (tautomer)
C[C@H]([N-]C(=O)c1cc2c(=O)n3ccccc3nc2nc1N)c1ccccc1 (3D coordinates assigned)
C[C@H]([N-]C(=O)c1cc2c(=O)n3ccccc3nc2nc1N)c1ccccc1 (optimized conformer: 58.123080534553395 kcal/mol)

>  <smiles>  (49) 
C[C@H](NC(=O)c1cc2c(=O)n3ccccc3nc2[nH]c1=N)c1ccccc1

>  <score_type>  (49) 
oracle

>  <origin>  (49) 
autodockgpu

>  <m_score__min__energy>  (49) 
-7.1100000000000003

>  <m_primary>  (49) 
energy

>  <meeko>  (49) 
{"free_energy": -6.55, "intermolecular_energy": -8.04, "internal_energy": -1.74, "cluster_size": 17, "cluster_id": 2, "rank_in_cluster": 10}

>  <energy>  (49) 
-6.55

>  <cluster_rmsd>  (49) 
1.04

>  <rmsd>  (49) 
271.28

>  <cluster>  (49) 
2

$$$$
HDANWICVGDYKAH-YCNVAKSKNA-M
     RDKit          3D

 43 46  0  0  0  0  0  0  0  0999 V2000
  138.0710   80.5240  224.1690 C   0  0  0  0  0  0  0  0  0  0  0  0
  138.7450   80.6560  222.8040 C   0  0  2  0  0  0  0  0  0  0  0  0
  138.1060   79.7470  221.8560 N   0  0  0  0  0  0  0  0  0  0  0  0
  137.6060   78.4540  222.2140 C   0  0  0  0  0  0  0  0  0  0  0  0
  136.4040   78.3210  222.5700 O   0  0  0  0  0  0  0  0  0  0  0  0
  138.4890   77.2710  222.1060 C   0  0  0  0  0  0  0  0  0  0  0  0
  139.7360   77.4180  221.4770 C   0  0  0  0  0  0  0  0  0  0  0  0
  140.5720   76.3070  221.2840 C   0  0  0  0  0  0  0  0  0  0  0  0
  141.8220   76.3960  220.6460 C   0  0  0  0  0  0  0  0  0  0  0  0
  142.2310   77.5170  220.2310 O   0  0  0  0  0  0  0  0  0  0  0  0
  142.5900   75.2680  220.4780 N   0  0  0  0  0  0  0  0  0  0  0  0
  143.8130   75.3400  219.8560 C   0  0  0  0  0  0  0  0  0  0  0  0
  144.5940   74.1960  219.6820 C   0  0  0  0  0  0  0  0  0  0  0  0
  144.1300   72.9690  220.1420 C   0  0  0  0  0  0  0  0  0  0  0  0
  142.8930   72.8920  220.7750 C   0  0  0  0  0  0  0  0  0  0  0  0
  142.1270   74.0520  220.9370 C   0  0  0  0  0  0  0  0  0  0  0  0
  140.9210   73.9630  221.5550 N   0  0  0  0  0  0  0  0  0  0  0  0
  140.1390   75.0530  221.7350 C   0  0  0  0  0  0  0  0  0  0  0  0
  138.9420   74.9290  222.3630 N   0  0  0  0  0  0  0  0  0  0  0  0
  138.1120   75.9880  222.5700 C   0  0  0  0  0  0  0  0  0  0  0  0
  136.9040   75.7700  223.3070 N   0  0  0  0  0  0  0  0  0  0  0  0
  140.2240   80.3530  222.9150 C   0  0  0  0  0  0  0  0  0  0  0  0
  140.6810   79.3960  223.8400 C   0  0  0  0  0  0  0  0  0  0  0  0
  142.0450   79.1030  223.9360 C   0  0  0  0  0  0  0  0  0  0  0  0
  142.9620   79.7530  223.1060 C   0  0  0  0  0  0  0  0  0  0  0  0
  142.5170   80.6960  222.1760 C   0  0  0  0  0  0  0  0  0  0  0  0
  141.1550   80.9940  222.0780 C   0  0  0  0  0  0  0  0  0  0  0  0
  138.8184   80.6704  224.9627 H   0  0  0  0  0  0  0  0  0  0  0  0
  137.2821   81.2847  224.2635 H   0  0  0  0  0  0  0  0  0  0  0  0
  137.6273   79.5219  224.2635 H   0  0  0  0  0  0  0  0  0  0  0  0
  138.6331   81.6891  222.4431 H   0  0  0  0  0  0  0  0  0  0  0  0
  140.0601   78.4113  221.1330 H   0  0  0  0  0  0  0  0  0  0  0  0
  144.1810   76.3102  219.4909 H   0  0  0  0  0  0  0  0  0  0  0  0
  145.5720   74.2652  219.1832 H   0  0  0  0  0  0  0  0  0  0  0  0
  144.7382   72.0625  220.0062 H   0  0  0  0  0  0  0  0  0  0  0  0
  142.5198   71.9258  221.1455 H   0  0  0  0  0  0  0  0  0  0  0  0
  136.7610   74.8630  223.8060 H   0  0  0  0  0  0  0  0  0  0  0  0
  136.2080   76.5260  223.4760 H   0  0  0  0  0  0  0  0  0  0  0  0
  139.9621   78.8761  224.4904 H   0  0  0  0  0  0  0  0  0  0  0  0
  142.3967   78.3594  224.6663 H   0  0  0  0  0  0  0  0  0  0  0  0
  144.0346   79.5222  223.1848 H   0  0  0  0  0  0  0  0  0  0  0  0
  143.2393   81.2043  221.5203 H   0  0  0  0  0  0  0  0  0  0  0  0
  140.8091   81.7344  221.3417 H   0  0  0  0  0  0  0  0  0  0  0  0
  1  2  1  0
  2  3  1  0
  3  4  1  0
  4  5  2  0
  4  6  1  0
  6  7  2  0
  7  8  1  0
  8  9  1  0
  9 10  2  0
  9 11  1  0
 11 12  1  0
 12 13  2  0
 13 14  1  0
 14 15  2  0
 15 16  1  0
 16 17  2  0
 17 18  1  0
 18 19  1  0
 19 20  2  0
 20 21  1  0
  2 22  1  0
 22 23  2  0
 23 24  1  0
 24 25  2  0
 25 26  1  0
 26 27  2  0
 20  6  1  0
 27 22  1  0
 18  8  2  0
 16 11  1  0
  1 28  1  0
  1 29  1  0
  1 30  1  0
  2 31  1  6
  7 32  1  0
 12 33  1  0
 13 34  1  0
 14 35  1  0
 15 36  1  0
 21 37  1  0
 21 38  1  0
 23 39  1  0
 24 40  1  0
 25 41  1  0
 26 42  1  0
 27 43  1  0
M  CHG  1   3  -1
M  END
>  <UniqueID>  (50) 
33

>  <SMILES>  (50) 
C[C@H]([N-]C(=O)c1cc2c(=O)n3ccccc3nc2nc1N)c1ccccc1

>  <Energy>  (50) 
58.123080534553395

>  <Genealogy>  (50) 
C[C@H]([N-]C(=O)c1cc2c(=O)n3ccccc3nc2[nH]c1=N)c1ccccc1 (protonated)
C[C@H]([N-]C(=O)c1cc2c(=O)n3ccccc3nc2nc1N)c1ccccc1 (tautomer)
C[C@H]([N-]C(=O)c1cc2c(=O)n3ccccc3nc2nc1N)c1ccccc1 (3D coordinates assigned)
C[C@H]([N-]C(=O)c1cc2c(=O)n3ccccc3nc2nc1N)c1ccccc1 (optimized conformer: 58.123080534553395 kcal/mol)

>  <smiles>  (50) 
C[C@H](NC(=O)c1cc2c(=O)n3ccccc3nc2[nH]c1=N)c1ccccc1

>  <score_type>  (50) 
oracle

>  <origin>  (50) 
autodockgpu

>  <m_score__min__energy>  (50) 
-7.1100000000000003

>  <m_primary>  (50) 
energy

>  <meeko>  (50) 
{"free_energy": -6.58, "intermolecular_energy": -8.07, "internal_energy": -1.7, "cluster_size": 17, "cluster_id": 2, "rank_in_cluster": 5}

>  <energy>  (50) 
-6.55

>  <cluster_rmsd>  (50) 
1.04

>  <rmsd>  (50) 
271.29

>  <cluster>  (50) 
2

$$$$
HDANWICVGDYKAH-YCNVAKSKNA-M
     RDKit          3D

 43 46  0  0  0  0  0  0  0  0999 V2000
  138.1350   80.5710  224.2960 C   0  0  0  0  0  0  0  0  0  0  0  0
  138.7710   80.7790  222.9230 C   0  0  2  0  0  0  0  0  0  0  0  0
  138.0840   79.9490  221.9370 N   0  0  0  0  0  0  0  0  0  0  0  0
  137.5620   78.6470  222.2260 C   0  0  0  0  0  0  0  0  0  0  0  0
  136.3410   78.5070  222.5070 O   0  0  0  0  0  0  0  0  0  0  0  0
  138.4490   77.4660  222.1340 C   0  0  0  0  0  0  0  0  0  0  0  0
  139.6700   77.5920  221.4510 C   0  0  0  0  0  0  0  0  0  0  0  0
  140.5050   76.4780  221.2730 C   0  0  0  0  0  0  0  0  0  0  0  0
  141.7280   76.5460  220.5830 C   0  0  0  0  0  0  0  0  0  0  0  0
  142.1120   77.6510  220.1040 O   0  0  0  0  0  0  0  0  0  0  0  0
  142.4960   75.4160  220.4330 N   0  0  0  0  0  0  0  0  0  0  0  0
  143.6930   75.4670  219.7610 C   0  0  0  0  0  0  0  0  0  0  0  0
  144.4760   74.3220  219.6050 C   0  0  0  0  0  0  0  0  0  0  0  0
  144.0390   73.1130  220.1350 C   0  0  0  0  0  0  0  0  0  0  0  0
  142.8280   73.0570  220.8190 C   0  0  0  0  0  0  0  0  0  0  0  0
  142.0600   74.2180  220.9620 C   0  0  0  0  0  0  0  0  0  0  0  0
  140.8800   74.1490  221.6300 N   0  0  0  0  0  0  0  0  0  0  0  0
  140.0980   75.2420  221.7940 C   0  0  0  0  0  0  0  0  0  0  0  0
  138.9280   75.1390  222.4730 N   0  0  0  0  0  0  0  0  0  0  0  0
  138.1000   76.2010  222.6670 C   0  0  0  0  0  0  0  0  0  0  0  0
  136.9230   76.0090  223.4600 N   0  0  0  0  0  0  0  0  0  0  0  0
  140.2460   80.4390  222.9680 C   0  0  0  0  0  0  0  0  0  0  0  0
  140.7110   79.4280  223.8280 C   0  0  0  0  0  0  0  0  0  0  0  0
  142.0700   79.1000  223.8620 C   0  0  0  0  0  0  0  0  0  0  0  0
  142.9740   79.7710  223.0330 C   0  0  0  0  0  0  0  0  0  0  0  0
  142.5200   80.7690  222.1670 C   0  0  0  0  0  0  0  0  0  0  0  0
  141.1630   81.1000  222.1300 C   0  0  0  0  0  0  0  0  0  0  0  0
  138.8684   80.8109  225.0800 H   0  0  0  0  0  0  0  0  0  0  0  0
  137.2601   81.2298  224.3984 H   0  0  0  0  0  0  0  0  0  0  0  0
  137.8185   79.5225  224.3984 H   0  0  0  0  0  0  0  0  0  0  0  0
  138.6718   81.8359  222.6346 H   0  0  0  0  0  0  0  0  0  0  0  0
  139.9740   78.5712  221.0526 H   0  0  0  0  0  0  0  0  0  0  0  0
  144.0390   76.4227  219.3403 H   0  0  0  0  0  0  0  0  0  0  0  0
  145.4333   74.3758  219.0658 H   0  0  0  0  0  0  0  0  0  0  0  0
  144.6477   72.2048  220.0142 H   0  0  0  0  0  0  0  0  0  0  0  0
  142.4767   72.1055  221.2447 H   0  0  0  0  0  0  0  0  0  0  0  0
  136.7730   75.0970  223.9480 H   0  0  0  0  0  0  0  0  0  0  0  0
  136.2630   76.7850  223.6780 H   0  0  0  0  0  0  0  0  0  0  0  0
  140.0023   78.8927  224.4770 H   0  0  0  0  0  0  0  0  0  0  0  0
  142.4282   78.3130  224.5419 H   0  0  0  0  0  0  0  0  0  0  0  0
  144.0429   79.5131  223.0626 H   0  0  0  0  0  0  0  0  0  0  0  0
  143.2317   81.2948  221.5135 H   0  0  0  0  0  0  0  0  0  0  0  0
  140.8095   81.8819  221.4418 H   0  0  0  0  0  0  0  0  0  0  0  0
  1  2  1  0
  2  3  1  0
  3  4  1  0
  4  5  2  0
  4  6  1  0
  6  7  2  0
  7  8  1  0
  8  9  1  0
  9 10  2  0
  9 11  1  0
 11 12  1  0
 12 13  2  0
 13 14  1  0
 14 15  2  0
 15 16  1  0
 16 17  2  0
 17 18  1  0
 18 19  1  0
 19 20  2  0
 20 21  1  0
  2 22  1  0
 22 23  2  0
 23 24  1  0
 24 25  2  0
 25 26  1  0
 26 27  2  0
 20  6  1  0
 27 22  1  0
 18  8  2  0
 16 11  1  0
  1 28  1  0
  1 29  1  0
  1 30  1  0
  2 31  1  6
  7 32  1  0
 12 33  1  0
 13 34  1  0
 14 35  1  0
 15 36  1  0
 21 37  1  0
 21 38  1  0
 23 39  1  0
 24 40  1  0
 25 41  1  0
 26 42  1  0
 27 43  1  0
M  CHG  1   3  -1
M  END
>  <UniqueID>  (51) 
33

>  <SMILES>  (51) 
C[C@H]([N-]C(=O)c1cc2c(=O)n3ccccc3nc2nc1N)c1ccccc1

>  <Energy>  (51) 
58.123080534553395

>  <Genealogy>  (51) 
C[C@H]([N-]C(=O)c1cc2c(=O)n3ccccc3nc2[nH]c1=N)c1ccccc1 (protonated)
C[C@H]([N-]C(=O)c1cc2c(=O)n3ccccc3nc2nc1N)c1ccccc1 (tautomer)
C[C@H]([N-]C(=O)c1cc2c(=O)n3ccccc3nc2nc1N)c1ccccc1 (3D coordinates assigned)
C[C@H]([N-]C(=O)c1cc2c(=O)n3ccccc3nc2nc1N)c1ccccc1 (optimized conformer: 58.123080534553395 kcal/mol)

>  <smiles>  (51) 
C[C@H](NC(=O)c1cc2c(=O)n3ccccc3nc2[nH]c1=N)c1ccccc1

>  <score_type>  (51) 
oracle

>  <origin>  (51) 
autodockgpu

>  <m_score__min__energy>  (51) 
-7.1100000000000003

>  <m_primary>  (51) 
energy

>  <meeko>  (51) 
{"free_energy": -6.55, "intermolecular_energy": -8.04, "internal_energy": -1.73, "cluster_size": 17, "cluster_id": 2, "rank_in_cluster": 8}

>  <energy>  (51) 
-6.55

>  <cluster_rmsd>  (51) 
1.03

>  <rmsd>  (51) 
271.29

>  <cluster>  (51) 
2

$$$$
HDANWICVGDYKAH-YCNVAKSKNA-M
     RDKit          3D

 43 46  0  0  0  0  0  0  0  0999 V2000
  138.1110   80.5390  224.3530 C   0  0  0  0  0  0  0  0  0  0  0  0
  138.7370   80.7820  222.9810 C   0  0  2  0  0  0  0  0  0  0  0  0
  138.0330   79.9880  221.9780 N   0  0  0  0  0  0  0  0  0  0  0  0
  137.5160   78.6750  222.2270 C   0  0  0  0  0  0  0  0  0  0  0  0
  136.2900   78.5200  222.4770 O   0  0  0  0  0  0  0  0  0  0  0  0
  138.4150   77.5040  222.1330 C   0  0  0  0  0  0  0  0  0  0  0  0
  139.6320   77.6440  221.4450 C   0  0  0  0  0  0  0  0  0  0  0  0
  140.4780   76.5380  221.2640 C   0  0  0  0  0  0  0  0  0  0  0  0
  141.6990   76.6200  220.5710 C   0  0  0  0  0  0  0  0  0  0  0  0
  142.0700   77.7290  220.0910 O   0  0  0  0  0  0  0  0  0  0  0  0
  142.4790   75.4980  220.4180 N   0  0  0  0  0  0  0  0  0  0  0  0
  143.6730   75.5630  219.7420 C   0  0  0  0  0  0  0  0  0  0  0  0
  144.4670   74.4250  219.5830 C   0  0  0  0  0  0  0  0  0  0  0  0
  144.0450   73.2120  220.1150 C   0  0  0  0  0  0  0  0  0  0  0  0
  142.8370   73.1420  220.8010 C   0  0  0  0  0  0  0  0  0  0  0  0
  142.0570   74.2960  220.9470 C   0  0  0  0  0  0  0  0  0  0  0  0
  140.8800   74.2140  221.6190 N   0  0  0  0  0  0  0  0  0  0  0  0
  140.0870   75.2980  221.7860 C   0  0  0  0  0  0  0  0  0  0  0  0
  138.9200   75.1820  222.4680 N   0  0  0  0  0  0  0  0  0  0  0  0
  138.0810   76.2350  222.6660 C   0  0  0  0  0  0  0  0  0  0  0  0
  136.9080   76.0300  223.4610 N   0  0  0  0  0  0  0  0  0  0  0  0
  140.2090   80.4260  223.0020 C   0  0  0  0  0  0  0  0  0  0  0  0
  141.1200   81.1480  222.2110 C   0  0  0  0  0  0  0  0  0  0  0  0
  142.4820   80.8320  222.2380 C   0  0  0  0  0  0  0  0  0  0  0  0
  142.9470   79.8010  223.0590 C   0  0  0  0  0  0  0  0  0  0  0  0
  142.0510   79.0860  223.8570 C   0  0  0  0  0  0  0  0  0  0  0  0
  140.6880   79.3970  223.8330 C   0  0  0  0  0  0  0  0  0  0  0  0
  138.8291   80.8177  225.1382 H   0  0  0  0  0  0  0  0  0  0  0  0
  137.2015   81.1494  224.4544 H   0  0  0  0  0  0  0  0  0  0  0  0
  137.8515   79.4749  224.4544 H   0  0  0  0  0  0  0  0  0  0  0  0
  138.6462   81.8480  222.7251 H   0  0  0  0  0  0  0  0  0  0  0  0
  139.9240   78.6264  221.0456 H   0  0  0  0  0  0  0  0  0  0  0  0
  144.0077   76.5225  219.3210 H   0  0  0  0  0  0  0  0  0  0  0  0
  145.4213   74.4882  219.0396 H   0  0  0  0  0  0  0  0  0  0  0  0
  144.6641   72.3109  219.9939 H   0  0  0  0  0  0  0  0  0  0  0  0
  142.4965   72.1863  221.2261 H   0  0  0  0  0  0  0  0  0  0  0  0
  136.7720   75.1190  223.9540 H   0  0  0  0  0  0  0  0  0  0  0  0
  136.2380   76.7980  223.6780 H   0  0  0  0  0  0  0  0  0  0  0  0
  140.7599   81.9648  221.5682 H   0  0  0  0  0  0  0  0  0  0  0  0
  143.1888   81.3961  221.6117 H   0  0  0  0  0  0  0  0  0  0  0  0
  144.0185   79.5527  223.0767 H   0  0  0  0  0  0  0  0  0  0  0  0
  142.4182   78.2769  224.5054 H   0  0  0  0  0  0  0  0  0  0  0  0
  139.9869   78.8343  224.4670 H   0  0  0  0  0  0  0  0  0  0  0  0
  1  2  1  0
  2  3  1  0
  3  4  1  0
  4  5  2  0
  4  6  1  0
  6  7  2  0
  7  8  1  0
  8  9  1  0
  9 10  2  0
  9 11  1  0
 11 12  1  0
 12 13  2  0
 13 14  1  0
 14 15  2  0
 15 16  1  0
 16 17  2  0
 17 18  1  0
 18 19  1  0
 19 20  2  0
 20 21  1  0
  2 22  1  0
 22 23  2  0
 23 24  1  0
 24 25  2  0
 25 26  1  0
 26 27  2  0
 20  6  1  0
 27 22  1  0
 18  8  2  0
 16 11  1  0
  1 28  1  0
  1 29  1  0
  1 30  1  0
  2 31  1  6
  7 32  1  0
 12 33  1  0
 13 34  1  0
 14 35  1  0
 15 36  1  0
 21 37  1  0
 21 38  1  0
 23 39  1  0
 24 40  1  0
 25 41  1  0
 26 42  1  0
 27 43  1  0
M  CHG  1   3  -1
M  END
>  <UniqueID>  (52) 
33

>  <SMILES>  (52) 
C[C@H]([N-]C(=O)c1cc2c(=O)n3ccccc3nc2nc1N)c1ccccc1

>  <Energy>  (52) 
58.123080534553395

>  <Genealogy>  (52) 
C[C@H]([N-]C(=O)c1cc2c(=O)n3ccccc3nc2[nH]c1=N)c1ccccc1 (protonated)
C[C@H]([N-]C(=O)c1cc2c(=O)n3ccccc3nc2nc1N)c1ccccc1 (tautomer)
C[C@H]([N-]C(=O)c1cc2c(=O)n3ccccc3nc2nc1N)c1ccccc1 (3D coordinates assigned)
C[C@H]([N-]C(=O)c1cc2c(=O)n3ccccc3nc2nc1N)c1ccccc1 (optimized conformer: 58.123080534553395 kcal/mol)

>  <smiles>  (52) 
C[C@H](NC(=O)c1cc2c(=O)n3ccccc3nc2[nH]c1=N)c1ccccc1

>  <score_type>  (52) 
oracle

>  <origin>  (52) 
autodockgpu

>  <m_score__min__energy>  (52) 
-7.1100000000000003

>  <m_primary>  (52) 
energy

>  <meeko>  (52) 
{"free_energy": -6.55, "intermolecular_energy": -8.04, "internal_energy": -1.73, "cluster_size": 17, "cluster_id": 2, "rank_in_cluster": 7}

>  <energy>  (52) 
-6.55

>  <cluster_rmsd>  (52) 
1.04

>  <rmsd>  (52) 
271.28

>  <cluster>  (52) 
2

$$$$
HDANWICVGDYKAH-YCNVAKSKNA-M
     RDKit          3D

 43 46  0  0  0  0  0  0  0  0999 V2000
  138.0550   80.4670  224.5960 C   0  0  0  0  0  0  0  0  0  0  0  0
  138.6010   80.3120  223.1770 C   0  0  2  0  0  0  0  0  0  0  0  0
  138.0540   79.0990  222.5750 N   0  0  0  0  0  0  0  0  0  0  0  0
  138.5790   78.5010  221.3840 C   0  0  0  0  0  0  0  0  0  0  0  0
  138.4160   79.0700  220.2700 O   0  0  0  0  0  0  0  0  0  0  0  0
  139.3610   77.2490  221.4770 C   0  0  0  0  0  0  0  0  0  0  0  0
  140.5710   77.1570  220.7680 C   0  0  0  0  0  0  0  0  0  0  0  0
  141.3050   75.9600  220.7650 C   0  0  0  0  0  0  0  0  0  0  0  0
  142.5120   75.8100  220.0600 C   0  0  0  0  0  0  0  0  0  0  0  0
  142.9760   76.7850  219.4030 O   0  0  0  0  0  0  0  0  0  0  0  0
  143.1790   74.6070  220.0870 N   0  0  0  0  0  0  0  0  0  0  0  0
  144.3590   74.4460  219.4030 C   0  0  0  0  0  0  0  0  0  0  0  0
  145.0390   73.2270  219.4270 C   0  0  0  0  0  0  0  0  0  0  0  0
  144.5150   72.1620  220.1520 C   0  0  0  0  0  0  0  0  0  0  0  0
  143.3210   72.3220  220.8490 C   0  0  0  0  0  0  0  0  0  0  0  0
  142.6570   73.5540  220.8090 C   0  0  0  0  0  0  0  0  0  0  0  0
  141.4930   73.6960  221.4920 N   0  0  0  0  0  0  0  0  0  0  0  0
  140.8090   74.8650  221.4840 C   0  0  0  0  0  0  0  0  0  0  0  0
  139.6520   74.9740  222.1840 N   0  0  0  0  0  0  0  0  0  0  0  0
  138.9210   76.1220  222.2120 C   0  0  0  0  0  0  0  0  0  0  0  0
  137.7510   76.1620  223.0380 N   0  0  0  0  0  0  0  0  0  0  0  0
  140.1150   80.2580  223.1980 C   0  0  0  0  0  0  0  0  0  0  0  0
  140.7740   79.1870  223.8280 C   0  0  0  0  0  0  0  0  0  0  0  0
  142.1710   79.1250  223.8370 C   0  0  0  0  0  0  0  0  0  0  0  0
  142.9210   80.1250  223.2100 C   0  0  0  0  0  0  0  0  0  0  0  0
  142.2750   81.1860  222.5710 C   0  0  0  0  0  0  0  0  0  0  0  0
  140.8790   81.2520  222.5610 C   0  0  0  0  0  0  0  0  0  0  0  0
  138.8503   80.2412  225.3216 H   0  0  0  0  0  0  0  0  0  0  0  0
  137.7061   81.4997  224.7439 H   0  0  0  0  0  0  0  0  0  0  0  0
  137.2156   79.7717  224.7439 H   0  0  0  0  0  0  0  0  0  0  0  0
  138.2971   81.1808  222.5747 H   0  0  0  0  0  0  0  0  0  0  0  0
  140.9456   78.0288  220.2116 H   0  0  0  0  0  0  0  0  0  0  0  0
  144.7734   75.2880  218.8291 H   0  0  0  0  0  0  0  0  0  0  0  0
  145.9836   73.1095  218.8758 H   0  0  0  0  0  0  0  0  0  0  0  0
  145.0423   71.1969  220.1744 H   0  0  0  0  0  0  0  0  0  0  0  0
  142.9016   71.4858  221.4277 H   0  0  0  0  0  0  0  0  0  0  0  0
  137.4260   75.2910  223.5130 H   0  0  0  0  0  0  0  0  0  0  0  0
  137.2770   77.0540  223.2920 H   0  0  0  0  0  0  0  0  0  0  0  0
  140.1877   78.3944  224.3159 H   0  0  0  0  0  0  0  0  0  0  0  0
  142.6806   78.2886  224.3379 H   0  0  0  0  0  0  0  0  0  0  0  0
  144.0199   80.0761  223.2200 H   0  0  0  0  0  0  0  0  0  0  0  0
  142.8657   81.9704  222.0752 H   0  0  0  0  0  0  0  0  0  0  0  0
  140.3748   82.0866  222.0518 H   0  0  0  0  0  0  0  0  0  0  0  0
  1  2  1  0
  2  3  1  0
  3  4  1  0
  4  5  2  0
  4  6  1  0
  6  7  2  0
  7  8  1  0
  8  9  1  0
  9 10  2  0
  9 11  1  0
 11 12  1  0
 12 13  2  0
 13 14  1  0
 14 15  2  0
 15 16  1  0
 16 17  2  0
 17 18  1  0
 18 19  1  0
 19 20  2  0
 20 21  1  0
  2 22  1  0
 22 23  2  0
 23 24  1  0
 24 25  2  0
 25 26  1  0
 26 27  2  0
 20  6  1  0
 27 22  1  0
 18  8  2  0
 16 11  1  0
  1 28  1  0
  1 29  1  0
  1 30  1  0
  2 31  1  6
  7 32  1  0
 12 33  1  0
 13 34  1  0
 14 35  1  0
 15 36  1  0
 21 37  1  0
 21 38  1  0
 23 39  1  0
 24 40  1  0
 25 41  1  0
 26 42  1  0
 27 43  1  0
M  CHG  1   3  -1
M  END
>  <UniqueID>  (53) 
33

>  <SMILES>  (53) 
C[C@H]([N-]C(=O)c1cc2c(=O)n3ccccc3nc2nc1N)c1ccccc1

>  <Energy>  (53) 
58.123080534553395

>  <Genealogy>  (53) 
C[C@H]([N-]C(=O)c1cc2c(=O)n3ccccc3nc2[nH]c1=N)c1ccccc1 (protonated)
C[C@H]([N-]C(=O)c1cc2c(=O)n3ccccc3nc2nc1N)c1ccccc1 (tautomer)
C[C@H]([N-]C(=O)c1cc2c(=O)n3ccccc3nc2nc1N)c1ccccc1 (3D coordinates assigned)
C[C@H]([N-]C(=O)c1cc2c(=O)n3ccccc3nc2nc1N)c1ccccc1 (optimized conformer: 58.123080534553395 kcal/mol)

>  <smiles>  (53) 
C[C@H](NC(=O)c1cc2c(=O)n3ccccc3nc2[nH]c1=N)c1ccccc1

>  <score_type>  (53) 
oracle

>  <origin>  (53) 
autodockgpu

>  <m_score__min__energy>  (53) 
-7.1100000000000003

>  <m_primary>  (53) 
energy

>  <meeko>  (53) 
{"free_energy": -6.73, "intermolecular_energy": -8.23, "internal_energy": -1.43, "cluster_size": 17, "cluster_id": 2, "rank_in_cluster": 4}

>  <energy>  (53) 
-6.55

>  <cluster_rmsd>  (53) 
1.03

>  <rmsd>  (53) 
271.27

>  <cluster>  (53) 
2

$$$$
HDANWICVGDYKAH-YCNVAKSKNA-M
     RDKit          3D

 43 46  0  0  0  0  0  0  0  0999 V2000
  138.0850   80.4880  224.1800 C   0  0  0  0  0  0  0  0  0  0  0  0
  138.7590   80.6480  222.8190 C   0  0  2  0  0  0  0  0  0  0  0  0
  138.1120   79.7680  221.8490 N   0  0  0  0  0  0  0  0  0  0  0  0
  137.6020   78.4700  222.1750 C   0  0  0  0  0  0  0  0  0  0  0  0
  136.3880   78.3330  222.4890 O   0  0  0  0  0  0  0  0  0  0  0  0
  138.4890   77.2900  222.0860 C   0  0  0  0  0  0  0  0  0  0  0  0
  139.7310   77.4300  221.4420 C   0  0  0  0  0  0  0  0  0  0  0  0
  140.5700   76.3180  221.2660 C   0  0  0  0  0  0  0  0  0  0  0  0
  141.8140   76.3990  220.6150 C   0  0  0  0  0  0  0  0  0  0  0  0
  142.2140   77.5140  220.1720 O   0  0  0  0  0  0  0  0  0  0  0  0
  142.5850   75.2710  220.4650 N   0  0  0  0  0  0  0  0  0  0  0  0
  143.8030   75.3360  219.8300 C   0  0  0  0  0  0  0  0  0  0  0  0
  144.5890   74.1920  219.6740 C   0  0  0  0  0  0  0  0  0  0  0  0
  144.1350   72.9730  220.1650 C   0  0  0  0  0  0  0  0  0  0  0  0
  142.9030   72.9040  220.8090 C   0  0  0  0  0  0  0  0  0  0  0  0
  142.1320   74.0640  220.9540 C   0  0  0  0  0  0  0  0  0  0  0  0
  140.9320   73.9820  221.5840 N   0  0  0  0  0  0  0  0  0  0  0  0
  140.1470   75.0720  221.7470 C   0  0  0  0  0  0  0  0  0  0  0  0
  138.9560   74.9560  222.3880 N   0  0  0  0  0  0  0  0  0  0  0  0
  138.1230   76.0150  222.5800 C   0  0  0  0  0  0  0  0  0  0  0  0
  136.9220   75.8070  223.3320 N   0  0  0  0  0  0  0  0  0  0  0  0
  140.2360   80.3290  222.9200 C   0  0  0  0  0  0  0  0  0  0  0  0
  140.6890   79.3680  223.8420 C   0  0  0  0  0  0  0  0  0  0  0  0
  142.0500   79.0610  223.9300 C   0  0  0  0  0  0  0  0  0  0  0  0
  142.9690   79.7020  223.0940 C   0  0  0  0  0  0  0  0  0  0  0  0
  142.5280   80.6500  222.1670 C   0  0  0  0  0  0  0  0  0  0  0  0
  141.1680   80.9610  222.0770 C   0  0  0  0  0  0  0  0  0  0  0  0
  138.8224   80.6631  224.9772 H   0  0  0  0  0  0  0  0  0  0  0  0
  137.2661   81.2167  224.2716 H   0  0  0  0  0  0  0  0  0  0  0  0
  137.6810   79.4690  224.2716 H   0  0  0  0  0  0  0  0  0  0  0  0
  138.6556   81.6910  222.4851 H   0  0  0  0  0  0  0  0  0  0  0  0
  140.0474   78.4170  221.0737 H   0  0  0  0  0  0  0  0  0  0  0  0
  144.1624   76.2999  219.4405 H   0  0  0  0  0  0  0  0  0  0  0  0
  145.5623   74.2551  219.1653 H   0  0  0  0  0  0  0  0  0  0  0  0
  144.7469   72.0668  220.0450 H   0  0  0  0  0  0  0  0  0  0  0  0
  142.5371   71.9439  221.2018 H   0  0  0  0  0  0  0  0  0  0  0  0
  136.1540   76.5140  223.2820 H   0  0  0  0  0  0  0  0  0  0  0  0
  136.7230   74.9160  223.8320 H   0  0  0  0  0  0  0  0  0  0  0  0
  139.9689   78.8556  224.4969 H   0  0  0  0  0  0  0  0  0  0  0  0
  142.3984   78.3138  224.6582 H   0  0  0  0  0  0  0  0  0  0  0  0
  144.0396   79.4600  223.1660 H   0  0  0  0  0  0  0  0  0  0  0  0
  143.2514   81.1519  221.5076 H   0  0  0  0  0  0  0  0  0  0  0  0
  140.8247   81.7044  221.3425 H   0  0  0  0  0  0  0  0  0  0  0  0
  1  2  1  0
  2  3  1  0
  3  4  1  0
  4  5  2  0
  4  6  1  0
  6  7  2  0
  7  8  1  0
  8  9  1  0
  9 10  2  0
  9 11  1  0
 11 12  1  0
 12 13  2  0
 13 14  1  0
 14 15  2  0
 15 16  1  0
 16 17  2  0
 17 18  1  0
 18 19  1  0
 19 20  2  0
 20 21  1  0
  2 22  1  0
 22 23  2  0
 23 24  1  0
 24 25  2  0
 25 26  1  0
 26 27  2  0
 20  6  1  0
 27 22  1  0
 18  8  2  0
 16 11  1  0
  1 28  1  0
  1 29  1  0
  1 30  1  0
  2 31  1  6
  7 32  1  0
 12 33  1  0
 13 34  1  0
 14 35  1  0
 15 36  1  0
 21 37  1  0
 21 38  1  0
 23 39  1  0
 24 40  1  0
 25 41  1  0
 26 42  1  0
 27 43  1  0
M  CHG  1   3  -1
M  END
>  <UniqueID>  (54) 
33

>  <SMILES>  (54) 
C[C@H]([N-]C(=O)c1cc2c(=O)n3ccccc3nc2nc1N)c1ccccc1

>  <Energy>  (54) 
58.123080534553395

>  <Genealogy>  (54) 
C[C@H]([N-]C(=O)c1cc2c(=O)n3ccccc3nc2[nH]c1=N)c1ccccc1 (protonated)
C[C@H]([N-]C(=O)c1cc2c(=O)n3ccccc3nc2nc1N)c1ccccc1 (tautomer)
C[C@H]([N-]C(=O)c1cc2c(=O)n3ccccc3nc2nc1N)c1ccccc1 (3D coordinates assigned)
C[C@H]([N-]C(=O)c1cc2c(=O)n3ccccc3nc2nc1N)c1ccccc1 (optimized conformer: 58.123080534553395 kcal/mol)

>  <smiles>  (54) 
C[C@H](NC(=O)c1cc2c(=O)n3ccccc3nc2[nH]c1=N)c1ccccc1

>  <score_type>  (54) 
oracle

>  <origin>  (54) 
autodockgpu

>  <m_score__min__energy>  (54) 
-7.1100000000000003

>  <m_primary>  (54) 
energy

>  <meeko>  (54) 
{"free_energy": -6.55, "intermolecular_energy": -8.04, "internal_energy": -1.73, "cluster_size": 17, "cluster_id": 2, "rank_in_cluster": 12}

>  <energy>  (54) 
-6.55

>  <cluster_rmsd>  (54) 
1.03

>  <rmsd>  (54) 
271.3

>  <cluster>  (54) 
2

$$$$
HDANWICVGDYKAH-YCNVAKSKNA-M
     RDKit          3D

 43 46  0  0  0  0  0  0  0  0999 V2000
  140.2600   67.4410  226.0730 C   0  0  0  0  0  0  0  0  0  0  0  0
  139.4630   68.6840  225.6810 C   0  0  2  0  0  0  0  0  0  0  0  0
  139.4760   68.8330  224.2280 N   0  0  0  0  0  0  0  0  0  0  0  0
  138.5600   69.6680  223.5100 C   0  0  0  0  0  0  0  0  0  0  0  0
  137.3380   69.3620  223.4600 O   0  0  0  0  0  0  0  0  0  0  0  0
  139.0450   70.9160  222.8820 C   0  0  0  0  0  0  0  0  0  0  0  0
  140.3300   70.9290  222.3140 C   0  0  0  0  0  0  0  0  0  0  0  0
  140.8600   72.1120  221.7770 C   0  0  0  0  0  0  0  0  0  0  0  0
  142.1460   72.1830  221.2130 C   0  0  0  0  0  0  0  0  0  0  0  0
  142.8660   71.1450  221.1700 O   0  0  0  0  0  0  0  0  0  0  0  0
  142.6120   73.3760  220.7130 N   0  0  0  0  0  0  0  0  0  0  0  0
  143.8670   73.4600  220.1590 C   0  0  0  0  0  0  0  0  0  0  0  0
  144.3450   74.6700  219.6510 C   0  0  0  0  0  0  0  0  0  0  0  0
  143.5420   75.8040  219.7070 C   0  0  0  0  0  0  0  0  0  0  0  0
  142.2700   75.7230  220.2650 C   0  0  0  0  0  0  0  0  0  0  0  0
  141.8130   74.4990  220.7690 C   0  0  0  0  0  0  0  0  0  0  0  0
  140.5700   74.4340  221.3120 N   0  0  0  0  0  0  0  0  0  0  0  0
  140.0810   73.2760  221.8150 C   0  0  0  0  0  0  0  0  0  0  0  0
  138.8320   73.2450  222.3440 N   0  0  0  0  0  0  0  0  0  0  0  0
  138.2880   72.1130  222.8670 C   0  0  0  0  0  0  0  0  0  0  0  0
  136.9350   72.1620  223.3360 N   0  0  0  0  0  0  0  0  0  0  0  0
  140.0430   69.9140  226.3460 C   0  0  0  0  0  0  0  0  0  0  0  0
  139.7240   70.2120  227.6820 C   0  0  0  0  0  0  0  0  0  0  0  0
  140.2690   71.3390  228.3050 C   0  0  0  0  0  0  0  0  0  0  0  0
  141.1430   72.1740  227.6020 C   0  0  0  0  0  0  0  0  0  0  0  0
  141.4760   71.8810  226.2780 C   0  0  0  0  0  0  0  0  0  0  0  0
  140.9320   70.7550  225.6510 C   0  0  0  0  0  0  0  0  0  0  0  0
  140.3076   67.3667  227.1695 H   0  0  0  0  0  0  0  0  0  0  0  0
  139.7670   66.5459  225.6659 H   0  0  0  0  0  0  0  0  0  0  0  0
  141.2792   67.5154  225.6659 H   0  0  0  0  0  0  0  0  0  0  0  0
  138.4232   68.5692  226.0211 H   0  0  0  0  0  0  0  0  0  0  0  0
  140.9253   70.0043  222.2901 H   0  0  0  0  0  0  0  0  0  0  0  0
  144.5027   72.5633  220.1152 H   0  0  0  0  0  0  0  0  0  0  0  0
  145.3508   74.7257  219.2092 H   0  0  0  0  0  0  0  0  0  0  0  0
  143.9112   76.7617  219.3115 H   0  0  0  0  0  0  0  0  0  0  0  0
  141.6275   76.6147  220.3100 H   0  0  0  0  0  0  0  0  0  0  0  0
  136.3450   71.3010  223.2980 H   0  0  0  0  0  0  0  0  0  0  0  0
  136.5460   72.9890  223.8350 H   0  0  0  0  0  0  0  0  0  0  0  0
  139.0416   69.5547  228.2408 H   0  0  0  0  0  0  0  0  0  0  0  0
  140.0099   71.5689  229.3490 H   0  0  0  0  0  0  0  0  0  0  0  0
  141.5684   73.0621  228.0922 H   0  0  0  0  0  0  0  0  0  0  0  0
  142.1669   72.5363  225.7274 H   0  0  0  0  0  0  0  0  0  0  0  0
  141.2005   70.5257  224.6092 H   0  0  0  0  0  0  0  0  0  0  0  0
  1  2  1  0
  2  3  1  0
  3  4  1  0
  4  5  2  0
  4  6  1  0
  6  7  2  0
  7  8  1  0
  8  9  1  0
  9 10  2  0
  9 11  1  0
 11 12  1  0
 12 13  2  0
 13 14  1  0
 14 15  2  0
 15 16  1  0
 16 17  2  0
 17 18  1  0
 18 19  1  0
 19 20  2  0
 20 21  1  0
  2 22  1  0
 22 23  2  0
 23 24  1  0
 24 25  2  0
 25 26  1  0
 26 27  2  0
 20  6  1  0
 27 22  1  0
 18  8  2  0
 16 11  1  0
  1 28  1  0
  1 29  1  0
  1 30  1  0
  2 31  1  1
  7 32  1  0
 12 33  1  0
 13 34  1  0
 14 35  1  0
 15 36  1  0
 21 37  1  0
 21 38  1  0
 23 39  1  0
 24 40  1  0
 25 41  1  0
 26 42  1  0
 27 43  1  0
M  CHG  1   3  -1
M  END
>  <UniqueID>  (55) 
33

>  <SMILES>  (55) 
C[C@H]([N-]C(=O)c1cc2c(=O)n3ccccc3nc2nc1N)c1ccccc1

>  <Energy>  (55) 
58.123080534553395

>  <Genealogy>  (55) 
C[C@H]([N-]C(=O)c1cc2c(=O)n3ccccc3nc2[nH]c1=N)c1ccccc1 (protonated)
C[C@H]([N-]C(=O)c1cc2c(=O)n3ccccc3nc2nc1N)c1ccccc1 (tautomer)
C[C@H]([N-]C(=O)c1cc2c(=O)n3ccccc3nc2nc1N)c1ccccc1 (3D coordinates assigned)
C[C@H]([N-]C(=O)c1cc2c(=O)n3ccccc3nc2nc1N)c1ccccc1 (optimized conformer: 58.123080534553395 kcal/mol)

>  <smiles>  (55) 
C[C@H](NC(=O)c1cc2c(=O)n3ccccc3nc2[nH]c1=N)c1ccccc1

>  <score_type>  (55) 
oracle

>  <origin>  (55) 
autodockgpu

>  <m_score__min__energy>  (55) 
-7.1100000000000003

>  <m_primary>  (55) 
energy

>  <meeko>  (55) 
{"free_energy": -7.1, "intermolecular_energy": -8.59, "internal_energy": -1.36, "cluster_size": 3, "cluster_id": 1, "rank_in_cluster": 2}

>  <energy>  (55) 
-6.55

>  <cluster_rmsd>  (55) 
1.0

>  <rmsd>  (55) 
271.23

>  <cluster>  (55) 
2

$$$$
HDANWICVGDYKAH-YCNVAKSKNA-M
     RDKit          3D

 43 46  0  0  0  0  0  0  0  0999 V2000
  138.1330   80.5340  224.3410 C   0  0  0  0  0  0  0  0  0  0  0  0
  138.7600   80.7530  222.9650 C   0  0  2  0  0  0  0  0  0  0  0  0
  138.0650   79.9310  221.9770 N   0  0  0  0  0  0  0  0  0  0  0  0
  137.5410   78.6280  222.2610 C   0  0  0  0  0  0  0  0  0  0  0  0
  136.3200   78.4900  222.5470 O   0  0  0  0  0  0  0  0  0  0  0  0
  138.4230   77.4450  222.1590 C   0  0  0  0  0  0  0  0  0  0  0  0
  139.6450   77.5740  221.4780 C   0  0  0  0  0  0  0  0  0  0  0  0
  140.4770   76.4580  221.2900 C   0  0  0  0  0  0  0  0  0  0  0  0
  141.7010   76.5290  220.6020 C   0  0  0  0  0  0  0  0  0  0  0  0
  142.0900   77.6370  220.1340 O   0  0  0  0  0  0  0  0  0  0  0  0
  142.4660   75.3970  220.4420 N   0  0  0  0  0  0  0  0  0  0  0  0
  143.6640   75.4520  219.7720 C   0  0  0  0  0  0  0  0  0  0  0  0
  144.4430   74.3050  219.6050 C   0  0  0  0  0  0  0  0  0  0  0  0
  144.0010   73.0920  220.1240 C   0  0  0  0  0  0  0  0  0  0  0  0
  142.7890   73.0340  220.8060 C   0  0  0  0  0  0  0  0  0  0  0  0
  142.0250   74.1970  220.9590 C   0  0  0  0  0  0  0  0  0  0  0  0
  140.8440   74.1250  221.6250 N   0  0  0  0  0  0  0  0  0  0  0  0
  140.0660   75.2190  221.7990 C   0  0  0  0  0  0  0  0  0  0  0  0
  138.8950   75.1140  222.4760 N   0  0  0  0  0  0  0  0  0  0  0  0
  138.0700   76.1770  222.6800 C   0  0  0  0  0  0  0  0  0  0  0  0
  136.8910   75.9810  223.4690 N   0  0  0  0  0  0  0  0  0  0  0  0
  140.2350   80.4110  222.9960 C   0  0  0  0  0  0  0  0  0  0  0  0
  140.7050   79.3960  223.8470 C   0  0  0  0  0  0  0  0  0  0  0  0
  142.0640   79.0670  223.8690 C   0  0  0  0  0  0  0  0  0  0  0  0
  142.9620   79.7420  223.0380 C   0  0  0  0  0  0  0  0  0  0  0  0
  142.5030   80.7450  222.1810 C   0  0  0  0  0  0  0  0  0  0  0  0
  141.1450   81.0770  222.1560 C   0  0  0  0  0  0  0  0  0  0  0  0
  138.8643   80.7894  225.1220 H   0  0  0  0  0  0  0  0  0  0  0  0
  137.2455   81.1754  224.4458 H   0  0  0  0  0  0  0  0  0  0  0  0
  137.8378   79.4795  224.4458 H   0  0  0  0  0  0  0  0  0  0  0  0
  138.6600   81.8125  222.6866 H   0  0  0  0  0  0  0  0  0  0  0  0
  139.9525   78.5560  221.0892 H   0  0  0  0  0  0  0  0  0  0  0  0
  144.0139   76.4110  219.3622 H   0  0  0  0  0  0  0  0  0  0  0  0
  145.4005   74.3602  219.0663 H   0  0  0  0  0  0  0  0  0  0  0  0
  144.6068   72.1828  219.9959 H   0  0  0  0  0  0  0  0  0  0  0  0
  142.4336   72.0799  221.2223 H   0  0  0  0  0  0  0  0  0  0  0  0
  136.7370   75.0650  223.9470 H   0  0  0  0  0  0  0  0  0  0  0  0
  136.2340   76.7570  223.6960 H   0  0  0  0  0  0  0  0  0  0  0  0
  140.0008   78.8580  224.4986 H   0  0  0  0  0  0  0  0  0  0  0  0
  142.4266   78.2756  224.5415 H   0  0  0  0  0  0  0  0  0  0  0  0
  144.0310   79.4833  223.0587 H   0  0  0  0  0  0  0  0  0  0  0  0
  143.2103   81.2740  221.5254 H   0  0  0  0  0  0  0  0  0  0  0  0
  140.7866   81.8635  221.4755 H   0  0  0  0  0  0  0  0  0  0  0  0
  1  2  1  0
  2  3  1  0
  3  4  1  0
  4  5  2  0
  4  6  1  0
  6  7  2  0
  7  8  1  0
  8  9  1  0
  9 10  2  0
  9 11  1  0
 11 12  1  0
 12 13  2  0
 13 14  1  0
 14 15  2  0
 15 16  1  0
 16 17  2  0
 17 18  1  0
 18 19  1  0
 19 20  2  0
 20 21  1  0
  2 22  1  0
 22 23  2  0
 23 24  1  0
 24 25  2  0
 25 26  1  0
 26 27  2  0
 20  6  1  0
 27 22  1  0
 18  8  2  0
 16 11  1  0
  1 28  1  0
  1 29  1  0
  1 30  1  0
  2 31  1  6
  7 32  1  0
 12 33  1  0
 13 34  1  0
 14 35  1  0
 15 36  1  0
 21 37  1  0
 21 38  1  0
 23 39  1  0
 24 40  1  0
 25 41  1  0
 26 42  1  0
 27 43  1  0
M  CHG  1   3  -1
M  END
>  <UniqueID>  (56) 
33

>  <SMILES>  (56) 
C[C@H]([N-]C(=O)c1cc2c(=O)n3ccccc3nc2nc1N)c1ccccc1

>  <Energy>  (56) 
58.123080534553395

>  <Genealogy>  (56) 
C[C@H]([N-]C(=O)c1cc2c(=O)n3ccccc3nc2[nH]c1=N)c1ccccc1 (protonated)
C[C@H]([N-]C(=O)c1cc2c(=O)n3ccccc3nc2nc1N)c1ccccc1 (tautomer)
C[C@H]([N-]C(=O)c1cc2c(=O)n3ccccc3nc2nc1N)c1ccccc1 (3D coordinates assigned)
C[C@H]([N-]C(=O)c1cc2c(=O)n3ccccc3nc2nc1N)c1ccccc1 (optimized conformer: 58.123080534553395 kcal/mol)

>  <smiles>  (56) 
C[C@H](NC(=O)c1cc2c(=O)n3ccccc3nc2[nH]c1=N)c1ccccc1

>  <score_type>  (56) 
oracle

>  <origin>  (56) 
autodockgpu

>  <m_score__min__energy>  (56) 
-7.1100000000000003

>  <m_primary>  (56) 
energy

>  <meeko>  (56) 
{"free_energy": -6.55, "intermolecular_energy": -8.04, "internal_energy": -1.73, "cluster_size": 17, "cluster_id": 2, "rank_in_cluster": 6}

>  <energy>  (56) 
-6.54

>  <cluster_rmsd>  (56) 
1.02

>  <rmsd>  (56) 
271.3

>  <cluster>  (56) 
2

$$$$
HDANWICVGDYKAH-YCNVAKSKNA-M
     RDKit          3D

 43 46  0  0  0  0  0  0  0  0999 V2000
  140.1470   67.4380  226.1100 C   0  0  0  0  0  0  0  0  0  0  0  0
  139.3960   68.7010  225.6910 C   0  0  2  0  0  0  0  0  0  0  0  0
  139.4510   68.8390  224.2380 N   0  0  0  0  0  0  0  0  0  0  0  0
  138.5470   69.6600  223.4880 C   0  0  0  0  0  0  0  0  0  0  0  0
  137.3310   69.3380  223.4000 O   0  0  0  0  0  0  0  0  0  0  0  0
  139.0360   70.9120  222.8700 C   0  0  0  0  0  0  0  0  0  0  0  0
  140.3200   70.9250  222.3010 C   0  0  0  0  0  0  0  0  0  0  0  0
  140.8540   72.1110  221.7740 C   0  0  0  0  0  0  0  0  0  0  0  0
  142.1390   72.1820  221.2080 C   0  0  0  0  0  0  0  0  0  0  0  0
  142.8550   71.1420  221.1550 O   0  0  0  0  0  0  0  0  0  0  0  0
  142.6090   73.3780  220.7180 N   0  0  0  0  0  0  0  0  0  0  0  0
  143.8630   73.4620  220.1630 C   0  0  0  0  0  0  0  0  0  0  0  0
  144.3450   74.6750  219.6650 C   0  0  0  0  0  0  0  0  0  0  0  0
  143.5470   75.8110  219.7320 C   0  0  0  0  0  0  0  0  0  0  0  0
  142.2750   75.7300  220.2920 C   0  0  0  0  0  0  0  0  0  0  0  0
  141.8140   74.5030  220.7850 C   0  0  0  0  0  0  0  0  0  0  0  0
  140.5720   74.4380  221.3290 N   0  0  0  0  0  0  0  0  0  0  0  0
  140.0790   73.2780  221.8230 C   0  0  0  0  0  0  0  0  0  0  0  0
  138.8310   73.2460  222.3530 N   0  0  0  0  0  0  0  0  0  0  0  0
  138.2830   72.1110  222.8670 C   0  0  0  0  0  0  0  0  0  0  0  0
  136.9320   72.1610  223.3380 N   0  0  0  0  0  0  0  0  0  0  0  0
  139.9960   69.9180  226.3630 C   0  0  0  0  0  0  0  0  0  0  0  0
  139.6870   70.2070  227.7040 C   0  0  0  0  0  0  0  0  0  0  0  0
  140.2490   71.3230  228.3330 C   0  0  0  0  0  0  0  0  0  0  0  0
  141.1290   72.1530  227.6330 C   0  0  0  0  0  0  0  0  0  0  0  0
  141.4520   71.8680  226.3040 C   0  0  0  0  0  0  0  0  0  0  0  0
  140.8910   70.7540  225.6710 C   0  0  0  0  0  0  0  0  0  0  0  0
  140.1819   67.3794  227.2079 H   0  0  0  0  0  0  0  0  0  0  0  0
  139.6279   66.5537  225.7119 H   0  0  0  0  0  0  0  0  0  0  0  0
  141.1719   67.4717  225.7119 H   0  0  0  0  0  0  0  0  0  0  0  0
  138.3450   68.6196  226.0053 H   0  0  0  0  0  0  0  0  0  0  0  0
  140.9117   69.9983  222.2682 H   0  0  0  0  0  0  0  0  0  0  0  0
  144.4951   72.5633  220.1101 H   0  0  0  0  0  0  0  0  0  0  0  0
  145.3505   74.7307  219.2223 H   0  0  0  0  0  0  0  0  0  0  0  0
  143.9191   76.7706  219.3439 H   0  0  0  0  0  0  0  0  0  0  0  0
  141.6363   76.6239  220.3469 H   0  0  0  0  0  0  0  0  0  0  0  0
  136.3440   71.2980  223.3120 H   0  0  0  0  0  0  0  0  0  0  0  0
  136.5410   72.9940  223.8280 H   0  0  0  0  0  0  0  0  0  0  0  0
  139.0003   69.5526  228.2609 H   0  0  0  0  0  0  0  0  0  0  0  0
  139.9979   71.5476  229.3801 H   0  0  0  0  0  0  0  0  0  0  0  0
  141.5677   73.0314  228.1289 H   0  0  0  0  0  0  0  0  0  0  0  0
  142.1477   72.5199  225.7553 H   0  0  0  0  0  0  0  0  0  0  0  0
  141.1512   70.5303  224.6259 H   0  0  0  0  0  0  0  0  0  0  0  0
  1  2  1  0
  2  3  1  0
  3  4  1  0
  4  5  2  0
  4  6  1  0
  6  7  2  0
  7  8  1  0
  8  9  1  0
  9 10  2  0
  9 11  1  0
 11 12  1  0
 12 13  2  0
 13 14  1  0
 14 15  2  0
 15 16  1  0
 16 17  2  0
 17 18  1  0
 18 19  1  0
 19 20  2  0
 20 21  1  0
  2 22  1  0
 22 23  2  0
 23 24  1  0
 24 25  2  0
 25 26  1  0
 26 27  2  0
 20  6  1  0
 27 22  1  0
 18  8  2  0
 16 11  1  0
  1 28  1  0
  1 29  1  0
  1 30  1  0
  2 31  1  1
  7 32  1  0
 12 33  1  0
 13 34  1  0
 14 35  1  0
 15 36  1  0
 21 37  1  0
 21 38  1  0
 23 39  1  0
 24 40  1  0
 25 41  1  0
 26 42  1  0
 27 43  1  0
M  CHG  1   3  -1
M  END
>  <UniqueID>  (57) 
33

>  <SMILES>  (57) 
C[C@H]([N-]C(=O)c1cc2c(=O)n3ccccc3nc2nc1N)c1ccccc1

>  <Energy>  (57) 
58.123080534553395

>  <Genealogy>  (57) 
C[C@H]([N-]C(=O)c1cc2c(=O)n3ccccc3nc2[nH]c1=N)c1ccccc1 (protonated)
C[C@H]([N-]C(=O)c1cc2c(=O)n3ccccc3nc2nc1N)c1ccccc1 (tautomer)
C[C@H]([N-]C(=O)c1cc2c(=O)n3ccccc3nc2nc1N)c1ccccc1 (3D coordinates assigned)
C[C@H]([N-]C(=O)c1cc2c(=O)n3ccccc3nc2nc1N)c1ccccc1 (optimized conformer: 58.123080534553395 kcal/mol)

>  <smiles>  (57) 
C[C@H](NC(=O)c1cc2c(=O)n3ccccc3nc2[nH]c1=N)c1ccccc1

>  <score_type>  (57) 
oracle

>  <origin>  (57) 
autodockgpu

>  <m_score__min__energy>  (57) 
-7.1100000000000003

>  <m_primary>  (57) 
energy

>  <meeko>  (57) 
{"free_energy": -7.11, "intermolecular_energy": -8.61, "internal_energy": -1.35, "cluster_size": 3, "cluster_id": 1, "rank_in_cluster": 1}

>  <energy>  (57) 
-6.54

>  <cluster_rmsd>  (57) 
1.04

>  <rmsd>  (57) 
271.27

>  <cluster>  (57) 
2

$$$$
HDANWICVGDYKAH-YCNVAKSKNA-M
     RDKit          3D

 43 46  0  0  0  0  0  0  0  0999 V2000
  138.0600   80.5350  224.5990 C   0  0  0  0  0  0  0  0  0  0  0  0
  138.6030   80.3210  223.1870 C   0  0  2  0  0  0  0  0  0  0  0  0
  138.0330   79.0990  222.6270 N   0  0  0  0  0  0  0  0  0  0  0  0
  138.5160   78.4780  221.4290 C   0  0  0  0  0  0  0  0  0  0  0  0
  138.3150   79.0270  220.3120 O   0  0  0  0  0  0  0  0  0  0  0  0
  139.2970   77.2250  221.5180 C   0  0  0  0  0  0  0  0  0  0  0  0
  140.5090   77.1370  220.8110 C   0  0  0  0  0  0  0  0  0  0  0  0
  141.2430   75.9400  220.8040 C   0  0  0  0  0  0  0  0  0  0  0  0
  142.4520   75.7930  220.1000 C   0  0  0  0  0  0  0  0  0  0  0  0
  142.9160   76.7720  219.4490 O   0  0  0  0  0  0  0  0  0  0  0  0
  143.1190   74.5910  220.1240 N   0  0  0  0  0  0  0  0  0  0  0  0
  144.3000   74.4330  219.4400 C   0  0  0  0  0  0  0  0  0  0  0  0
  144.9800   73.2140  219.4600 C   0  0  0  0  0  0  0  0  0  0  0  0
  144.4550   72.1460  220.1790 C   0  0  0  0  0  0  0  0  0  0  0  0
  143.2600   72.3020  220.8740 C   0  0  0  0  0  0  0  0  0  0  0  0
  142.5960   73.5340  220.8390 C   0  0  0  0  0  0  0  0  0  0  0  0
  141.4300   73.6730  221.5200 N   0  0  0  0  0  0  0  0  0  0  0  0
  140.7460   74.8410  221.5170 C   0  0  0  0  0  0  0  0  0  0  0  0
  139.5870   74.9470  222.2150 N   0  0  0  0  0  0  0  0  0  0  0  0
  138.8560   76.0940  222.2470 C   0  0  0  0  0  0  0  0  0  0  0  0
  137.6850   76.1310  223.0700 N   0  0  0  0  0  0  0  0  0  0  0  0
  140.1150   80.2400  223.2100 C   0  0  0  0  0  0  0  0  0  0  0  0
  140.8860   81.2870  222.6740 C   0  0  0  0  0  0  0  0  0  0  0  0
  142.2820   81.2220  222.7050 C   0  0  0  0  0  0  0  0  0  0  0  0
  142.9200   80.1190  223.2780 C   0  0  0  0  0  0  0  0  0  0  0  0
  142.1640   79.0790  223.8240 C   0  0  0  0  0  0  0  0  0  0  0  0
  140.7670   79.1390  223.7940 C   0  0  0  0  0  0  0  0  0  0  0  0
  138.8214   80.2349  225.3340 H   0  0  0  0  0  0  0  0  0  0  0  0
  137.8132   81.5977  224.7398 H   0  0  0  0  0  0  0  0  0  0  0  0
  137.1545   79.9265  224.7398 H   0  0  0  0  0  0  0  0  0  0  0  0
  138.3157   81.1742  222.5550 H   0  0  0  0  0  0  0  0  0  0  0  0
  140.8847   78.0116  220.2597 H   0  0  0  0  0  0  0  0  0  0  0  0
  144.7148   75.2772  218.8697 H   0  0  0  0  0  0  0  0  0  0  0  0
  145.9257   73.0991  218.9101 H   0  0  0  0  0  0  0  0  0  0  0  0
  144.9827   71.1810  220.1982 H   0  0  0  0  0  0  0  0  0  0  0  0
  142.8395   71.4627  221.4474 H   0  0  0  0  0  0  0  0  0  0  0  0
  137.3460   75.2530  223.5240 H   0  0  0  0  0  0  0  0  0  0  0  0
  137.2220   77.0230  223.3450 H   0  0  0  0  0  0  0  0  0  0  0  0
  140.3883   82.1609  222.2284 H   0  0  0  0  0  0  0  0  0  0  0  0
  142.8793   82.0408  222.2775 H   0  0  0  0  0  0  0  0  0  0  0  0
  144.0187   80.0695  223.2992 H   0  0  0  0  0  0  0  0  0  0  0  0
  142.6675   78.2126  224.2777 H   0  0  0  0  0  0  0  0  0  0  0  0
  140.1749   78.3206  224.2295 H   0  0  0  0  0  0  0  0  0  0  0  0
  1  2  1  0
  2  3  1  0
  3  4  1  0
  4  5  2  0
  4  6  1  0
  6  7  2  0
  7  8  1  0
  8  9  1  0
  9 10  2  0
  9 11  1  0
 11 12  1  0
 12 13  2  0
 13 14  1  0
 14 15  2  0
 15 16  1  0
 16 17  2  0
 17 18  1  0
 18 19  1  0
 19 20  2  0
 20 21  1  0
  2 22  1  0
 22 23  2  0
 23 24  1  0
 24 25  2  0
 25 26  1  0
 26 27  2  0
 20  6  1  0
 27 22  1  0
 18  8  2  0
 16 11  1  0
  1 28  1  0
  1 29  1  0
  1 30  1  0
  2 31  1  6
  7 32  1  0
 12 33  1  0
 13 34  1  0
 14 35  1  0
 15 36  1  0
 21 37  1  0
 21 38  1  0
 23 39  1  0
 24 40  1  0
 25 41  1  0
 26 42  1  0
 27 43  1  0
M  CHG  1   3  -1
M  END
>  <UniqueID>  (58) 
33

>  <SMILES>  (58) 
C[C@H]([N-]C(=O)c1cc2c(=O)n3ccccc3nc2nc1N)c1ccccc1

>  <Energy>  (58) 
58.123080534553395

>  <Genealogy>  (58) 
C[C@H]([N-]C(=O)c1cc2c(=O)n3ccccc3nc2[nH]c1=N)c1ccccc1 (protonated)
C[C@H]([N-]C(=O)c1cc2c(=O)n3ccccc3nc2nc1N)c1ccccc1 (tautomer)
C[C@H]([N-]C(=O)c1cc2c(=O)n3ccccc3nc2nc1N)c1ccccc1 (3D coordinates assigned)
C[C@H]([N-]C(=O)c1cc2c(=O)n3ccccc3nc2nc1N)c1ccccc1 (optimized conformer: 58.123080534553395 kcal/mol)

>  <smiles>  (58) 
C[C@H](NC(=O)c1cc2c(=O)n3ccccc3nc2[nH]c1=N)c1ccccc1

>  <score_type>  (58) 
oracle

>  <origin>  (58) 
autodockgpu

>  <m_score__min__energy>  (58) 
-7.1100000000000003

>  <m_primary>  (58) 
energy

>  <meeko>  (58) 
{"free_energy": -6.8, "intermolecular_energy": -8.29, "internal_energy": -1.35, "cluster_size": 17, "cluster_id": 2, "rank_in_cluster": 2}

>  <energy>  (58) 
-6.54

>  <cluster_rmsd>  (58) 
1.03

>  <rmsd>  (58) 
271.27

>  <cluster>  (58) 
2

$$$$
HDANWICVGDYKAH-YCNVAKSKNA-M
     RDKit          3D

 43 46  0  0  0  0  0  0  0  0999 V2000
  138.1290   80.4960  224.3660 C   0  0  0  0  0  0  0  0  0  0  0  0
  138.7550   80.7500  222.9960 C   0  0  2  0  0  0  0  0  0  0  0  0
  138.0570   79.9560  221.9870 N   0  0  0  0  0  0  0  0  0  0  0  0
  137.5360   78.6440  222.2340 C   0  0  0  0  0  0  0  0  0  0  0  0
  136.3100   78.4920  222.4850 O   0  0  0  0  0  0  0  0  0  0  0  0
  138.4310   77.4700  222.1360 C   0  0  0  0  0  0  0  0  0  0  0  0
  139.6490   77.6080  221.4500 C   0  0  0  0  0  0  0  0  0  0  0  0
  140.4910   76.5000  221.2650 C   0  0  0  0  0  0  0  0  0  0  0  0
  141.7130   76.5800  220.5730 C   0  0  0  0  0  0  0  0  0  0  0  0
  142.0880   77.6900  220.0970 O   0  0  0  0  0  0  0  0  0  0  0  0
  142.4890   75.4560  220.4160 N   0  0  0  0  0  0  0  0  0  0  0  0
  143.6840   75.5190  219.7410 C   0  0  0  0  0  0  0  0  0  0  0  0
  144.4740   74.3790  219.5790 C   0  0  0  0  0  0  0  0  0  0  0  0
  144.0470   73.1650  220.1060 C   0  0  0  0  0  0  0  0  0  0  0  0
  142.8380   73.0980  220.7920 C   0  0  0  0  0  0  0  0  0  0  0  0
  142.0620   74.2530  220.9410 C   0  0  0  0  0  0  0  0  0  0  0  0
  140.8840   74.1730  221.6120 N   0  0  0  0  0  0  0  0  0  0  0  0
  140.0950   75.2600  221.7820 C   0  0  0  0  0  0  0  0  0  0  0  0
  138.9280   75.1460  222.4640 N   0  0  0  0  0  0  0  0  0  0  0  0
  138.0920   76.2010  222.6640 C   0  0  0  0  0  0  0  0  0  0  0  0
  136.9180   75.9970  223.4590 N   0  0  0  0  0  0  0  0  0  0  0  0
  140.2290   80.4030  223.0170 C   0  0  0  0  0  0  0  0  0  0  0  0
  140.7010   79.3770  223.8550 C   0  0  0  0  0  0  0  0  0  0  0  0
  142.0590   79.0440  223.8670 C   0  0  0  0  0  0  0  0  0  0  0  0
  142.9550   79.7250  223.0380 C   0  0  0  0  0  0  0  0  0  0  0  0
  142.4950   80.7380  222.1930 C   0  0  0  0  0  0  0  0  0  0  0  0
  141.1380   81.0750  222.1790 C   0  0  0  0  0  0  0  0  0  0  0  0
  138.8406   80.7847  225.1535 H   0  0  0  0  0  0  0  0  0  0  0  0
  137.2101   81.0924  224.4655 H   0  0  0  0  0  0  0  0  0  0  0  0
  137.8855   79.4279  224.4655 H   0  0  0  0  0  0  0  0  0  0  0  0
  138.6574   81.8167  222.7457 H   0  0  0  0  0  0  0  0  0  0  0  0
  139.9451   78.5910  221.0550 H   0  0  0  0  0  0  0  0  0  0  0  0
  144.0224   76.4787  219.3233 H   0  0  0  0  0  0  0  0  0  0  0  0
  145.4293   74.4409  219.0372 H   0  0  0  0  0  0  0  0  0  0  0  0
  144.6621   72.2617  219.9812 H   0  0  0  0  0  0  0  0  0  0  0  0
  142.4943   72.1424  221.2148 H   0  0  0  0  0  0  0  0  0  0  0  0
  136.7800   75.0860  223.9500 H   0  0  0  0  0  0  0  0  0  0  0  0
  136.2490   76.7660  223.6760 H   0  0  0  0  0  0  0  0  0  0  0  0
  139.9985   78.8338  224.5042 H   0  0  0  0  0  0  0  0  0  0  0  0
  142.4227   78.2450  224.5298 H   0  0  0  0  0  0  0  0  0  0  0  0
  144.0233   79.4631  223.0509 H   0  0  0  0  0  0  0  0  0  0  0  0
  143.2006   81.2707  221.5385 H   0  0  0  0  0  0  0  0  0  0  0  0
  140.7790   81.8701  221.5090 H   0  0  0  0  0  0  0  0  0  0  0  0
  1  2  1  0
  2  3  1  0
  3  4  1  0
  4  5  2  0
  4  6  1  0
  6  7  2  0
  7  8  1  0
  8  9  1  0
  9 10  2  0
  9 11  1  0
 11 12  1  0
 12 13  2  0
 13 14  1  0
 14 15  2  0
 15 16  1  0
 16 17  2  0
 17 18  1  0
 18 19  1  0
 19 20  2  0
 20 21  1  0
  2 22  1  0
 22 23  2  0
 23 24  1  0
 24 25  2  0
 25 26  1  0
 26 27  2  0
 20  6  1  0
 27 22  1  0
 18  8  2  0
 16 11  1  0
  1 28  1  0
  1 29  1  0
  1 30  1  0
  2 31  1  6
  7 32  1  0
 12 33  1  0
 13 34  1  0
 14 35  1  0
 15 36  1  0
 21 37  1  0
 21 38  1  0
 23 39  1  0
 24 40  1  0
 25 41  1  0
 26 42  1  0
 27 43  1  0
M  CHG  1   3  -1
M  END
>  <UniqueID>  (59) 
33

>  <SMILES>  (59) 
C[C@H]([N-]C(=O)c1cc2c(=O)n3ccccc3nc2nc1N)c1ccccc1

>  <Energy>  (59) 
58.123080534553395

>  <Genealogy>  (59) 
C[C@H]([N-]C(=O)c1cc2c(=O)n3ccccc3nc2[nH]c1=N)c1ccccc1 (protonated)
C[C@H]([N-]C(=O)c1cc2c(=O)n3ccccc3nc2nc1N)c1ccccc1 (tautomer)
C[C@H]([N-]C(=O)c1cc2c(=O)n3ccccc3nc2nc1N)c1ccccc1 (3D coordinates assigned)
C[C@H]([N-]C(=O)c1cc2c(=O)n3ccccc3nc2nc1N)c1ccccc1 (optimized conformer: 58.123080534553395 kcal/mol)

>  <smiles>  (59) 
C[C@H](NC(=O)c1cc2c(=O)n3ccccc3nc2[nH]c1=N)c1ccccc1

>  <score_type>  (59) 
oracle

>  <origin>  (59) 
autodockgpu

>  <m_score__min__energy>  (59) 
-7.1100000000000003

>  <m_primary>  (59) 
energy

>  <meeko>  (59) 
{"free_energy": -6.54, "intermolecular_energy": -8.03, "internal_energy": -1.75, "cluster_size": 17, "cluster_id": 2, "rank_in_cluster": 16}

>  <energy>  (59) 
-6.54

>  <cluster_rmsd>  (59) 
1.03

>  <rmsd>  (59) 
271.29

>  <cluster>  (59) 
2

$$$$
HDANWICVGDYKAH-YCNVAKSKNA-M
     RDKit          3D

 43 46  0  0  0  0  0  0  0  0999 V2000
  138.0930   80.5750  224.3120 C   0  0  0  0  0  0  0  0  0  0  0  0
  138.7420   80.7820  222.9440 C   0  0  2  0  0  0  0  0  0  0  0  0
  138.0650   79.9490  221.9530 N   0  0  0  0  0  0  0  0  0  0  0  0
  137.5440   78.6450  222.2390 C   0  0  0  0  0  0  0  0  0  0  0  0
  136.3220   78.5030  222.5150 O   0  0  0  0  0  0  0  0  0  0  0  0
  138.4330   77.4660  222.1500 C   0  0  0  0  0  0  0  0  0  0  0  0
  139.6550   77.5940  221.4690 C   0  0  0  0  0  0  0  0  0  0  0  0
  140.4930   76.4810  221.2940 C   0  0  0  0  0  0  0  0  0  0  0  0
  141.7180   76.5510  220.6070 C   0  0  0  0  0  0  0  0  0  0  0  0
  142.1010   77.6560  220.1290 O   0  0  0  0  0  0  0  0  0  0  0  0
  142.4880   75.4220  220.4600 N   0  0  0  0  0  0  0  0  0  0  0  0
  143.6870   75.4750  219.7910 C   0  0  0  0  0  0  0  0  0  0  0  0
  144.4720   74.3310  219.6370 C   0  0  0  0  0  0  0  0  0  0  0  0
  144.0360   73.1220  220.1680 C   0  0  0  0  0  0  0  0  0  0  0  0
  142.8230   73.0640  220.8480 C   0  0  0  0  0  0  0  0  0  0  0  0
  142.0530   74.2240  220.9880 C   0  0  0  0  0  0  0  0  0  0  0  0
  140.8710   74.1540  221.6540 N   0  0  0  0  0  0  0  0  0  0  0  0
  140.0870   75.2450  221.8150 C   0  0  0  0  0  0  0  0  0  0  0  0
  138.9160   75.1400  222.4910 N   0  0  0  0  0  0  0  0  0  0  0  0
  138.0850   76.2010  222.6830 C   0  0  0  0  0  0  0  0  0  0  0  0
  136.9060   76.0070  223.4730 N   0  0  0  0  0  0  0  0  0  0  0  0
  140.2160   80.4430  223.0030 C   0  0  0  0  0  0  0  0  0  0  0  0
  140.6740   79.4340  223.8690 C   0  0  0  0  0  0  0  0  0  0  0  0
  142.0330   79.1080  223.9170 C   0  0  0  0  0  0  0  0  0  0  0  0
  142.9440   79.7780  223.0970 C   0  0  0  0  0  0  0  0  0  0  0  0
  142.4980   80.7740  222.2240 C   0  0  0  0  0  0  0  0  0  0  0  0
  141.1400   81.1040  222.1740 C   0  0  0  0  0  0  0  0  0  0  0  0
  138.8217   80.8074  225.1025 H   0  0  0  0  0  0  0  0  0  0  0  0
  137.2221   81.2400  224.4091 H   0  0  0  0  0  0  0  0  0  0  0  0
  137.7680   79.5286  224.4091 H   0  0  0  0  0  0  0  0  0  0  0  0
  138.6446   81.8384  222.6533 H   0  0  0  0  0  0  0  0  0  0  0  0
  139.9576   78.5734  221.0699 H   0  0  0  0  0  0  0  0  0  0  0  0
  144.0327   76.4312  219.3714 H   0  0  0  0  0  0  0  0  0  0  0  0
  145.4298   74.3856  219.0988 H   0  0  0  0  0  0  0  0  0  0  0  0
  144.6474   72.2151  220.0511 H   0  0  0  0  0  0  0  0  0  0  0  0
  142.4718   72.1121  221.2728 H   0  0  0  0  0  0  0  0  0  0  0  0
  136.7320   75.0790  223.9190 H   0  0  0  0  0  0  0  0  0  0  0  0
  136.2700   76.7910  223.7300 H   0  0  0  0  0  0  0  0  0  0  0  0
  139.9597   78.8986  224.5118 H   0  0  0  0  0  0  0  0  0  0  0  0
  142.3853   78.3225  224.6018 H   0  0  0  0  0  0  0  0  0  0  0  0
  144.0129   79.5215  223.1384 H   0  0  0  0  0  0  0  0  0  0  0  0
  143.2155   81.2986  221.5759 H   0  0  0  0  0  0  0  0  0  0  0  0
  140.7924   81.8853  221.4821 H   0  0  0  0  0  0  0  0  0  0  0  0
  1  2  1  0
  2  3  1  0
  3  4  1  0
  4  5  2  0
  4  6  1  0
  6  7  2  0
  7  8  1  0
  8  9  1  0
  9 10  2  0
  9 11  1  0
 11 12  1  0
 12 13  2  0
 13 14  1  0
 14 15  2  0
 15 16  1  0
 16 17  2  0
 17 18  1  0
 18 19  1  0
 19 20  2  0
 20 21  1  0
  2 22  1  0
 22 23  2  0
 23 24  1  0
 24 25  2  0
 25 26  1  0
 26 27  2  0
 20  6  1  0
 27 22  1  0
 18  8  2  0
 16 11  1  0
  1 28  1  0
  1 29  1  0
  1 30  1  0
  2 31  1  6
  7 32  1  0
 12 33  1  0
 13 34  1  0
 14 35  1  0
 15 36  1  0
 21 37  1  0
 21 38  1  0
 23 39  1  0
 24 40  1  0
 25 41  1  0
 26 42  1  0
 27 43  1  0
M  CHG  1   3  -1
M  END
>  <UniqueID>  (60) 
33

>  <SMILES>  (60) 
C[C@H]([N-]C(=O)c1cc2c(=O)n3ccccc3nc2nc1N)c1ccccc1

>  <Energy>  (60) 
58.123080534553395

>  <Genealogy>  (60) 
C[C@H]([N-]C(=O)c1cc2c(=O)n3ccccc3nc2[nH]c1=N)c1ccccc1 (protonated)
C[C@H]([N-]C(=O)c1cc2c(=O)n3ccccc3nc2nc1N)c1ccccc1 (tautomer)
C[C@H]([N-]C(=O)c1cc2c(=O)n3ccccc3nc2nc1N)c1ccccc1 (3D coordinates assigned)
C[C@H]([N-]C(=O)c1cc2c(=O)n3ccccc3nc2nc1N)c1ccccc1 (optimized conformer: 58.123080534553395 kcal/mol)

>  <smiles>  (60) 
C[C@H](NC(=O)c1cc2c(=O)n3ccccc3nc2[nH]c1=N)c1ccccc1

>  <score_type>  (60) 
oracle

>  <origin>  (60) 
autodockgpu

>  <m_score__min__energy>  (60) 
-7.1100000000000003

>  <m_primary>  (60) 
energy

>  <meeko>  (60) 
{"free_energy": -6.55, "intermolecular_energy": -8.04, "internal_energy": -1.73, "cluster_size": 17, "cluster_id": 2, "rank_in_cluster": 11}

>  <energy>  (60) 
-6.5

>  <cluster_rmsd>  (60) 
1.05

>  <rmsd>  (60) 
271.27

>  <cluster>  (60) 
2

$$$$
OOSPKVZPLIIQRF-CYJIZFNKNA-N
     RDKit          3D

 44 47  0  0  0  0  0  0  0  0999 V2000
  139.4940   76.9540  222.3530 C   0  0  0  0  0  0  0  0  0  0  0  0
  140.5640   77.6380  221.4960 C   0  0  2  0  0  0  0  0  0  0  0  0
  141.6140   76.6770  221.1410 N   0  0  0  0  0  0  0  0  0  0  0  0
  141.3410   75.4780  220.3980 C   0  0  0  0  0  0  0  0  0  0  0  0
  140.1660   75.2280  220.0150 O   0  0  0  0  0  0  0  0  0  0  0  0
  142.4410   74.5520  220.0460 C   0  0  0  0  0  0  0  0  0  0  0  0
  142.2190   73.1680  220.1310 C   0  0  0  0  0  0  0  0  0  0  0  0
  143.2590   72.2640  219.8670 C   0  0  0  0  0  0  0  0  0  0  0  0
  143.0920   70.8690  219.9450 C   0  0  0  0  0  0  0  0  0  0  0  0
  141.9640   70.3930  220.2590 O   0  0  0  0  0  0  0  0  0  0  0  0
  144.1530   70.0350  219.6820 N   0  0  0  0  0  0  0  0  0  0  0  0
  144.0050   68.6710  219.7540 C   0  0  0  0  0  0  0  0  0  0  0  0
  145.0800   67.8200  219.4880 C   0  0  0  0  0  0  0  0  0  0  0  0
  146.3160   68.3590  219.1460 C   0  0  0  0  0  0  0  0  0  0  0  0
  146.4690   69.7410  219.0710 C   0  0  0  0  0  0  0  0  0  0  0  0
  145.3770   70.5730  219.3420 C   0  0  0  0  0  0  0  0  0  0  0  0
  145.5410   71.9190  219.2650 N   0  0  0  0  0  0  0  0  0  0  0  0
  144.5180   72.7690  219.5190 C   0  0  0  0  0  0  0  0  0  0  0  0
  144.7160   74.1080  219.4260 N   0  0  0  0  0  0  0  0  0  0  0  0
  143.7260   75.0100  219.6700 C   0  0  0  0  0  0  0  0  0  0  0  0
  144.0100   76.4010  219.4820 N   0  0  0  0  0  0  0  0  0  0  0  0
  141.1610   78.8350  222.2120 C   0  0  0  0  0  0  0  0  0  0  0  0
  141.2330   80.0810  221.5630 C   0  0  0  0  0  0  0  0  0  0  0  0
  141.7830   81.1880  222.2150 C   0  0  0  0  0  0  0  0  0  0  0  0
  142.2680   81.0650  223.5190 C   0  0  0  0  0  0  0  0  0  0  0  0
  142.2040   79.8340  224.1740 C   0  0  0  0  0  0  0  0  0  0  0  0
  141.6550   78.7230  223.5270 C   0  0  0  0  0  0  0  0  0  0  0  0
  139.7267   77.1028  223.4178 H   0  0  0  0  0  0  0  0  0  0  0  0
  138.5098   77.3908  222.1283 H   0  0  0  0  0  0  0  0  0  0  0  0
  139.4773   75.8773  222.1283 H   0  0  0  0  0  0  0  0  0  0  0  0
  140.0848   78.0026  220.5754 H   0  0  0  0  0  0  0  0  0  0  0  0
  142.5650   76.7880  221.5610 H   0  0  0  0  0  0  0  0  0  0  0  0
  141.2233   72.7902  220.4063 H   0  0  0  0  0  0  0  0  0  0  0  0
  143.0280   68.2440  220.0244 H   0  0  0  0  0  0  0  0  0  0  0  0
  144.9500   66.7294  219.5486 H   0  0  0  0  0  0  0  0  0  0  0  0
  147.1686   67.6965  218.9358 H   0  0  0  0  0  0  0  0  0  0  0  0
  147.4424   70.1761  218.8004 H   0  0  0  0  0  0  0  0  0  0  0  0
  143.7000   77.1310  220.1600 H   0  0  0  0  0  0  0  0  0  0  0  0
  144.4420   76.7240  218.5880 H   0  0  0  0  0  0  0  0  0  0  0  0
  140.8539   80.1847  220.5356 H   0  0  0  0  0  0  0  0  0  0  0  0
  141.8341   82.1586  221.6999 H   0  0  0  0  0  0  0  0  0  0  0  0
  142.7003   81.9381  224.0297 H   0  0  0  0  0  0  0  0  0  0  0  0
  142.5862   79.7380  225.2010 H   0  0  0  0  0  0  0  0  0  0  0  0
  141.6083   77.7552  224.0477 H   0  0  0  0  0  0  0  0  0  0  0  0
  1  2  1  0
  2  3  1  0
  3  4  1  0
  4  5  2  0
  4  6  1  0
  6  7  2  0
  7  8  1  0
  8  9  1  0
  9 10  2  0
  9 11  1  0
 11 12  1  0
 12 13  2  0
 13 14  1  0
 14 15  2  0
 15 16  1  0
 16 17  2  0
 17 18  1  0
 18 19  1  0
 19 20  2  0
 20 21  1  0
  2 22  1  0
 22 23  2  0
 23 24  1  0
 24 25  2  0
 25 26  1  0
 26 27  2  0
 20  6  1  0
 27 22  1  0
 18  8  2  0
 16 11  1  0
  1 28  1  0
  1 29  1  0
  1 30  1  0
  2 31  1  6
  3 32  1  0
  7 33  1  0
 12 34  1  0
 13 35  1  0
 14 36  1  0
 15 37  1  0
 21 38  1  0
 21 39  1  0
 23 40  1  0
 24 41  1  0
 25 42  1  0
 26 43  1  0
 27 44  1  0
M  END
>  <UniqueID>  (61) 
34

>  <SMILES>  (61) 
C[C@H](NC(=O)c1cc2c(=O)n3ccccc3nc2nc1N)c1ccccc1

>  <Energy>  (61) 
61.31071048783789

>  <Genealogy>  (61) 
C[C@H](NC(=O)c1cc2c(=O)n3ccccc3nc2nc1N)c1ccccc1 (tautomer)
C[C@H](NC(=O)c1cc2c(=O)n3ccccc3nc2nc1N)c1ccccc1 (3D coordinates assigned)
C[C@H](NC(=O)c1cc2c(=O)n3ccccc3nc2nc1N)c1ccccc1 (optimized conformer: 61.31071048783789 kcal/mol)

>  <smiles>  (61) 
C[C@H](NC(=O)c1cc2c(=O)n3ccccc3nc2[nH]c1=N)c1ccccc1

>  <score_type>  (61) 
oracle

>  <origin>  (61) 
autodockgpu

>  <m_score__min__energy>  (61) 
-7.8399999999999999

>  <m_primary>  (61) 
energy

>  <meeko>  (61) 
{"free_energy": -7.77, "intermolecular_energy": -8.96, "internal_energy": -0.25, "cluster_size": 7, "cluster_id": 1, "rank_in_cluster": 3}

>  <energy>  (61) 
-7.84

>  <cluster_rmsd>  (61) 
0.0

>  <rmsd>  (61) 
270.73

>  <cluster>  (61) 
1

$$$$
OOSPKVZPLIIQRF-CYJIZFNKNA-N
     RDKit          3D

 44 47  0  0  0  0  0  0  0  0999 V2000
  139.4590   76.9060  222.3620 C   0  0  0  0  0  0  0  0  0  0  0  0
  140.5130   77.5930  221.4890 C   0  0  2  0  0  0  0  0  0  0  0  0
  141.5640   76.6370  221.1210 N   0  0  0  0  0  0  0  0  0  0  0  0
  141.2990   75.4720  220.3230 C   0  0  0  0  0  0  0  0  0  0  0  0
  140.1320   75.2490  219.9010 O   0  0  0  0  0  0  0  0  0  0  0  0
  142.4000   74.5500  219.9630 C   0  0  0  0  0  0  0  0  0  0  0  0
  142.1940   73.1670  220.0800 C   0  0  0  0  0  0  0  0  0  0  0  0
  143.2370   72.2670  219.8080 C   0  0  0  0  0  0  0  0  0  0  0  0
  143.0870   70.8730  219.9170 C   0  0  0  0  0  0  0  0  0  0  0  0
  141.9720   70.3920  220.2680 O   0  0  0  0  0  0  0  0  0  0  0  0
  144.1500   70.0440  219.6440 N   0  0  0  0  0  0  0  0  0  0  0  0
  144.0180   68.6810  219.7460 C   0  0  0  0  0  0  0  0  0  0  0  0
  145.0950   67.8350  219.4700 C   0  0  0  0  0  0  0  0  0  0  0  0
  146.3160   68.3800  219.0870 C   0  0  0  0  0  0  0  0  0  0  0  0
  146.4530   69.7610  218.9820 C   0  0  0  0  0  0  0  0  0  0  0  0
  145.3600   70.5880  219.2630 C   0  0  0  0  0  0  0  0  0  0  0  0
  145.5070   71.9330  219.1560 N   0  0  0  0  0  0  0  0  0  0  0  0
  144.4820   72.7780  219.4190 C   0  0  0  0  0  0  0  0  0  0  0  0
  144.6630   74.1170  219.2950 N   0  0  0  0  0  0  0  0  0  0  0  0
  143.6710   75.0140  219.5460 C   0  0  0  0  0  0  0  0  0  0  0  0
  143.9350   76.4030  219.3240 N   0  0  0  0  0  0  0  0  0  0  0  0
  141.1130   78.7950  222.1930 C   0  0  0  0  0  0  0  0  0  0  0  0
  141.1460   80.0460  221.5490 C   0  0  0  0  0  0  0  0  0  0  0  0
  141.6980   81.1590  222.1900 C   0  0  0  0  0  0  0  0  0  0  0  0
  142.2250   81.0360  223.4790 C   0  0  0  0  0  0  0  0  0  0  0  0
  142.2000   79.8000  224.1280 C   0  0  0  0  0  0  0  0  0  0  0  0
  141.6490   78.6840  223.4910 C   0  0  0  0  0  0  0  0  0  0  0  0
  139.7019   77.0643  223.4231 H   0  0  0  0  0  0  0  0  0  0  0  0
  138.4685   77.3325  222.1450 H   0  0  0  0  0  0  0  0  0  0  0  0
  139.4494   75.8277  222.1450 H   0  0  0  0  0  0  0  0  0  0  0  0
  140.0187   77.9520  220.5743 H   0  0  0  0  0  0  0  0  0  0  0  0
  142.5040   76.7220  221.5700 H   0  0  0  0  0  0  0  0  0  0  0  0
  141.2090   72.7853  220.3868 H   0  0  0  0  0  0  0  0  0  0  0  0
  143.0523   68.2499  220.0488 H   0  0  0  0  0  0  0  0  0  0  0  0
  144.9781   66.7445  219.5551 H   0  0  0  0  0  0  0  0  0  0  0  0
  147.1700   67.7221  218.8680 H   0  0  0  0  0  0  0  0  0  0  0  0
  147.4153   70.1999  218.6797 H   0  0  0  0  0  0  0  0  0  0  0  0
  144.4300   76.7490  218.4730 H   0  0  0  0  0  0  0  0  0  0  0  0
  143.7330   77.0950  220.0800 H   0  0  0  0  0  0  0  0  0  0  0  0
  140.7345   80.1487  220.5340 H   0  0  0  0  0  0  0  0  0  0  0  0
  141.7177   82.1331  221.6793 H   0  0  0  0  0  0  0  0  0  0  0  0
  142.6593   81.9127  223.9818 H   0  0  0  0  0  0  0  0  0  0  0  0
  142.6146   79.7041  225.1424 H   0  0  0  0  0  0  0  0  0  0  0  0
  141.6339   77.7126  224.0069 H   0  0  0  0  0  0  0  0  0  0  0  0
  1  2  1  0
  2  3  1  0
  3  4  1  0
  4  5  2  0
  4  6  1  0
  6  7  2  0
  7  8  1  0
  8  9  1  0
  9 10  2  0
  9 11  1  0
 11 12  1  0
 12 13  2  0
 13 14  1  0
 14 15  2  0
 15 16  1  0
 16 17  2  0
 17 18  1  0
 18 19  1  0
 19 20  2  0
 20 21  1  0
  2 22  1  0
 22 23  2  0
 23 24  1  0
 24 25  2  0
 25 26  1  0
 26 27  2  0
 20  6  1  0
 27 22  1  0
 18  8  2  0
 16 11  1  0
  1 28  1  0
  1 29  1  0
  1 30  1  0
  2 31  1  6
  3 32  1  0
  7 33  1  0
 12 34  1  0
 13 35  1  0
 14 36  1  0
 15 37  1  0
 21 38  1  0
 21 39  1  0
 23 40  1  0
 24 41  1  0
 25 42  1  0
 26 43  1  0
 27 44  1  0
M  END
>  <UniqueID>  (62) 
34

>  <SMILES>  (62) 
C[C@H](NC(=O)c1cc2c(=O)n3ccccc3nc2nc1N)c1ccccc1

>  <Energy>  (62) 
61.31071048783789

>  <Genealogy>  (62) 
C[C@H](NC(=O)c1cc2c(=O)n3ccccc3nc2nc1N)c1ccccc1 (tautomer)
C[C@H](NC(=O)c1cc2c(=O)n3ccccc3nc2nc1N)c1ccccc1 (3D coordinates assigned)
C[C@H](NC(=O)c1cc2c(=O)n3ccccc3nc2nc1N)c1ccccc1 (optimized conformer: 61.31071048783789 kcal/mol)

>  <smiles>  (62) 
C[C@H](NC(=O)c1cc2c(=O)n3ccccc3nc2[nH]c1=N)c1ccccc1

>  <score_type>  (62) 
oracle

>  <origin>  (62) 
autodockgpu

>  <m_score__min__energy>  (62) 
-7.8399999999999999

>  <m_primary>  (62) 
energy

>  <meeko>  (62) 
{"free_energy": -7.7, "intermolecular_energy": -8.9, "internal_energy": -0.26, "cluster_size": 7, "cluster_id": 1, "rank_in_cluster": 4}

>  <energy>  (62) 
-7.78

>  <cluster_rmsd>  (62) 
0.53

>  <rmsd>  (62) 
270.68

>  <cluster>  (62) 
1

$$$$
OOSPKVZPLIIQRF-CYJIZFNKNA-N
     RDKit          3D

 44 47  0  0  0  0  0  0  0  0999 V2000
  139.4260   76.9460  222.3690 C   0  0  0  0  0  0  0  0  0  0  0  0
  140.5190   77.6630  221.5710 C   0  0  2  0  0  0  0  0  0  0  0  0
  141.5760   76.7150  221.2020 N   0  0  0  0  0  0  0  0  0  0  0  0
  141.2990   75.4780  220.5250 C   0  0  0  0  0  0  0  0  0  0  0  0
  140.1140   75.1810  220.2150 O   0  0  0  0  0  0  0  0  0  0  0  0
  142.4060   74.5670  220.1560 C   0  0  0  0  0  0  0  0  0  0  0  0
  142.1830   73.1810  220.1820 C   0  0  0  0  0  0  0  0  0  0  0  0
  143.2280   72.2870  219.9000 C   0  0  0  0  0  0  0  0  0  0  0  0
  143.0610   70.8910  219.9210 C   0  0  0  0  0  0  0  0  0  0  0  0
  141.9280   70.4030  220.1960 O   0  0  0  0  0  0  0  0  0  0  0  0
  144.1270   70.0680  219.6420 N   0  0  0  0  0  0  0  0  0  0  0  0
  143.9790   68.7020  219.6580 C   0  0  0  0  0  0  0  0  0  0  0  0
  145.0580   67.8620  219.3770 C   0  0  0  0  0  0  0  0  0  0  0  0
  146.2990   68.4140  219.0760 C   0  0  0  0  0  0  0  0  0  0  0  0
  146.4520   69.7980  219.0580 C   0  0  0  0  0  0  0  0  0  0  0  0
  145.3560   70.6190  219.3440 C   0  0  0  0  0  0  0  0  0  0  0  0
  145.5200   71.9660  219.3230 N   0  0  0  0  0  0  0  0  0  0  0  0
  144.4930   72.8050  219.5930 C   0  0  0  0  0  0  0  0  0  0  0  0
  144.6910   74.1480  219.5550 N   0  0  0  0  0  0  0  0  0  0  0  0
  143.6970   75.0400  219.8190 C   0  0  0  0  0  0  0  0  0  0  0  0
  143.9830   76.4370  219.6910 N   0  0  0  0  0  0  0  0  0  0  0  0
  141.1000   78.8250  222.3540 C   0  0  0  0  0  0  0  0  0  0  0  0
  142.4880   79.0520  222.3540 C   0  0  0  0  0  0  0  0  0  0  0  0
  143.0320   80.1200  223.0740 C   0  0  0  0  0  0  0  0  0  0  0  0
  142.1970   80.9720  223.8020 C   0  0  0  0  0  0  0  0  0  0  0  0
  140.8180   80.7560  223.8130 C   0  0  0  0  0  0  0  0  0  0  0  0
  140.2690   79.6890  223.0950 C   0  0  0  0  0  0  0  0  0  0  0  0
  139.6162   77.0707  223.4452 H   0  0  0  0  0  0  0  0  0  0  0  0
  138.4458   77.3771  222.1175 H   0  0  0  0  0  0  0  0  0  0  0  0
  139.4310   75.8752  222.1175 H   0  0  0  0  0  0  0  0  0  0  0  0
  140.0646   78.0690  220.6552 H   0  0  0  0  0  0  0  0  0  0  0  0
  142.5440   76.8690  221.5670 H   0  0  0  0  0  0  0  0  0  0  0  0
  141.1828   72.7931  220.4250 H   0  0  0  0  0  0  0  0  0  0  0  0
  142.9979   68.2648  219.8952 H   0  0  0  0  0  0  0  0  0  0  0  0
  144.9277   66.7699  219.3935 H   0  0  0  0  0  0  0  0  0  0  0  0
  147.1553   67.7604  218.8533 H   0  0  0  0  0  0  0  0  0  0  0  0
  147.4293   70.2433  218.8202 H   0  0  0  0  0  0  0  0  0  0  0  0
  143.7080   77.1320  220.4180 H   0  0  0  0  0  0  0  0  0  0  0  0
  144.3780   76.8030  218.7970 H   0  0  0  0  0  0  0  0  0  0  0  0
  143.1504   78.3845  221.7834 H   0  0  0  0  0  0  0  0  0  0  0  0
  144.1188   80.2899  223.0674 H   0  0  0  0  0  0  0  0  0  0  0  0
  142.6265   81.8129  224.3664 H   0  0  0  0  0  0  0  0  0  0  0  0
  140.1619   81.4264  224.3876 H   0  0  0  0  0  0  0  0  0  0  0  0
  139.1817   79.5230  223.1086 H   0  0  0  0  0  0  0  0  0  0  0  0
  1  2  1  0
  2  3  1  0
  3  4  1  0
  4  5  2  0
  4  6  1  0
  6  7  2  0
  7  8  1  0
  8  9  1  0
  9 10  2  0
  9 11  1  0
 11 12  1  0
 12 13  2  0
 13 14  1  0
 14 15  2  0
 15 16  1  0
 16 17  2  0
 17 18  1  0
 18 19  1  0
 19 20  2  0
 20 21  1  0
  2 22  1  0
 22 23  2  0
 23 24  1  0
 24 25  2  0
 25 26  1  0
 26 27  2  0
 20  6  1  0
 27 22  1  0
 18  8  2  0
 16 11  1  0
  1 28  1  0
  1 29  1  0
  1 30  1  0
  2 31  1  6
  3 32  1  0
  7 33  1  0
 12 34  1  0
 13 35  1  0
 14 36  1  0
 15 37  1  0
 21 38  1  0
 21 39  1  0
 23 40  1  0
 24 41  1  0
 25 42  1  0
 26 43  1  0
 27 44  1  0
M  END
>  <UniqueID>  (63) 
34

>  <SMILES>  (63) 
C[C@H](NC(=O)c1cc2c(=O)n3ccccc3nc2nc1N)c1ccccc1

>  <Energy>  (63) 
61.31071048783789

>  <Genealogy>  (63) 
C[C@H](NC(=O)c1cc2c(=O)n3ccccc3nc2nc1N)c1ccccc1 (tautomer)
C[C@H](NC(=O)c1cc2c(=O)n3ccccc3nc2nc1N)c1ccccc1 (3D coordinates assigned)
C[C@H](NC(=O)c1cc2c(=O)n3ccccc3nc2nc1N)c1ccccc1 (optimized conformer: 61.31071048783789 kcal/mol)

>  <smiles>  (63) 
C[C@H](NC(=O)c1cc2c(=O)n3ccccc3nc2[nH]c1=N)c1ccccc1

>  <score_type>  (63) 
oracle

>  <origin>  (63) 
autodockgpu

>  <m_score__min__energy>  (63) 
-7.8399999999999999

>  <m_primary>  (63) 
energy

>  <meeko>  (63) 
{"free_energy": -7.84, "intermolecular_energy": -9.03, "internal_energy": -0.21, "cluster_size": 7, "cluster_id": 1, "rank_in_cluster": 1}

>  <energy>  (63) 
-7.77

>  <cluster_rmsd>  (63) 
0.53

>  <rmsd>  (63) 
270.68

>  <cluster>  (63) 
1

$$$$
OOSPKVZPLIIQRF-CYJIZFNKNA-N
     RDKit          3D

 44 47  0  0  0  0  0  0  0  0999 V2000
  139.2350   76.8020  222.6730 C   0  0  0  0  0  0  0  0  0  0  0  0
  140.2780   77.4950  221.7910 C   0  0  2  0  0  0  0  0  0  0  0  0
  141.3490   76.5540  221.4430 N   0  0  0  0  0  0  0  0  0  0  0  0
  141.1920   75.5520  220.4250 C   0  0  0  0  0  0  0  0  0  0  0  0
  140.1090   75.4690  219.7840 O   0  0  0  0  0  0  0  0  0  0  0  0
  142.3120   74.6410  220.0980 C   0  0  0  0  0  0  0  0  0  0  0  0
  142.0850   73.2550  220.1050 C   0  0  0  0  0  0  0  0  0  0  0  0
  143.1390   72.3610  219.8630 C   0  0  0  0  0  0  0  0  0  0  0  0
  142.9690   70.9650  219.8680 C   0  0  0  0  0  0  0  0  0  0  0  0
  141.8250   70.4780  220.0910 O   0  0  0  0  0  0  0  0  0  0  0  0
  144.0440   70.1410  219.6300 N   0  0  0  0  0  0  0  0  0  0  0  0
  143.8930   68.7760  219.6320 C   0  0  0  0  0  0  0  0  0  0  0  0
  144.9820   67.9350  219.3920 C   0  0  0  0  0  0  0  0  0  0  0  0
  146.2350   68.4860  219.1480 C   0  0  0  0  0  0  0  0  0  0  0  0
  146.3920   69.8700  219.1460 C   0  0  0  0  0  0  0  0  0  0  0  0
  145.2860   70.6910  219.3890 C   0  0  0  0  0  0  0  0  0  0  0  0
  145.4540   72.0380  219.3840 N   0  0  0  0  0  0  0  0  0  0  0  0
  144.4170   72.8780  219.6140 C   0  0  0  0  0  0  0  0  0  0  0  0
  144.6190   74.2210  219.5940 N   0  0  0  0  0  0  0  0  0  0  0  0
  143.6170   75.1130  219.8200 C   0  0  0  0  0  0  0  0  0  0  0  0
  143.9110   76.5100  219.7130 N   0  0  0  0  0  0  0  0  0  0  0  0
  140.8530   78.7210  222.4760 C   0  0  0  0  0  0  0  0  0  0  0  0
  142.2330   78.9830  222.4100 C   0  0  0  0  0  0  0  0  0  0  0  0
  142.7710   80.1100  223.0400 C   0  0  0  0  0  0  0  0  0  0  0  0
  141.9390   80.9850  223.7410 C   0  0  0  0  0  0  0  0  0  0  0  0
  140.5670   80.7350  223.8160 C   0  0  0  0  0  0  0  0  0  0  0  0
  140.0240   79.6100  223.1880 C   0  0  0  0  0  0  0  0  0  0  0  0
  139.4827   76.9666  223.7320 H   0  0  0  0  0  0  0  0  0  0  0  0
  138.2396   77.2189  222.4602 H   0  0  0  0  0  0  0  0  0  0  0  0
  139.2337   75.7228  222.4602 H   0  0  0  0  0  0  0  0  0  0  0  0
  139.7789   77.8284  220.8692 H   0  0  0  0  0  0  0  0  0  0  0  0
  142.2000   76.5100  222.0480 H   0  0  0  0  0  0  0  0  0  0  0  0
  141.0743   72.8678  220.3015 H   0  0  0  0  0  0  0  0  0  0  0  0
  142.9019   68.3395  219.8251 H   0  0  0  0  0  0  0  0  0  0  0  0
  144.8491   66.8431  219.3960 H   0  0  0  0  0  0  0  0  0  0  0  0
  147.0985   67.8318  218.9574 H   0  0  0  0  0  0  0  0  0  0  0  0
  147.3798   70.3146  218.9545 H   0  0  0  0  0  0  0  0  0  0  0  0
  144.4030   76.9150  218.8880 H   0  0  0  0  0  0  0  0  0  0  0  0
  143.7330   77.1390  220.5270 H   0  0  0  0  0  0  0  0  0  0  0  0
  142.8937   78.2972  221.8594 H   0  0  0  0  0  0  0  0  0  0  0  0
  143.8517   80.3073  222.9830 H   0  0  0  0  0  0  0  0  0  0  0  0
  142.3642   81.8715  224.2343 H   0  0  0  0  0  0  0  0  0  0  0  0
  139.9126   81.4242  224.3699 H   0  0  0  0  0  0  0  0  0  0  0  0
  138.9427   79.4179  223.2503 H   0  0  0  0  0  0  0  0  0  0  0  0
  1  2  1  0
  2  3  1  0
  3  4  1  0
  4  5  2  0
  4  6  1  0
  6  7  2  0
  7  8  1  0
  8  9  1  0
  9 10  2  0
  9 11  1  0
 11 12  1  0
 12 13  2  0
 13 14  1  0
 14 15  2  0
 15 16  1  0
 16 17  2  0
 17 18  1  0
 18 19  1  0
 19 20  2  0
 20 21  1  0
  2 22  1  0
 22 23  2  0
 23 24  1  0
 24 25  2  0
 25 26  1  0
 26 27  2  0
 20  6  1  0
 27 22  1  0
 18  8  2  0
 16 11  1  0
  1 28  1  0
  1 29  1  0
  1 30  1  0
  2 31  1  6
  3 32  1  0
  7 33  1  0
 12 34  1  0
 13 35  1  0
 14 36  1  0
 15 37  1  0
 21 38  1  0
 21 39  1  0
 23 40  1  0
 24 41  1  0
 25 42  1  0
 26 43  1  0
 27 44  1  0
M  END
>  <UniqueID>  (64) 
34

>  <SMILES>  (64) 
C[C@H](NC(=O)c1cc2c(=O)n3ccccc3nc2nc1N)c1ccccc1

>  <Energy>  (64) 
61.31071048783789

>  <Genealogy>  (64) 
C[C@H](NC(=O)c1cc2c(=O)n3ccccc3nc2nc1N)c1ccccc1 (tautomer)
C[C@H](NC(=O)c1cc2c(=O)n3ccccc3nc2nc1N)c1ccccc1 (3D coordinates assigned)
C[C@H](NC(=O)c1cc2c(=O)n3ccccc3nc2nc1N)c1ccccc1 (optimized conformer: 61.31071048783789 kcal/mol)

>  <smiles>  (64) 
C[C@H](NC(=O)c1cc2c(=O)n3ccccc3nc2[nH]c1=N)c1ccccc1

>  <score_type>  (64) 
oracle

>  <origin>  (64) 
autodockgpu

>  <m_score__min__energy>  (64) 
-7.8399999999999999

>  <m_primary>  (64) 
energy

>  <meeko>  (64) 
{"free_energy": -7.7, "intermolecular_energy": -8.89, "internal_energy": -0.32, "cluster_size": 7, "cluster_id": 1, "rank_in_cluster": 6}

>  <energy>  (64) 
-7.7

>  <cluster_rmsd>  (64) 
0.55

>  <rmsd>  (64) 
270.62

>  <cluster>  (64) 
1

$$$$
OOSPKVZPLIIQRF-CYJIZFNKNA-N
     RDKit          3D

 44 47  0  0  0  0  0  0  0  0999 V2000
  138.3230   69.3810  222.9570 C   0  0  0  0  0  0  0  0  0  0  0  0
  137.8390   68.9370  224.3410 C   0  0  2  0  0  0  0  0  0  0  0  0
  136.8520   69.8910  224.8590 N   0  0  0  0  0  0  0  0  0  0  0  0
  135.4430   69.6130  224.8660 C   0  0  0  0  0  0  0  0  0  0  0  0
  135.0160   68.5100  224.4280 O   0  0  0  0  0  0  0  0  0  0  0  0
  134.4910   70.6010  225.4210 C   0  0  0  0  0  0  0  0  0  0  0  0
  134.8120   71.9660  225.3540 C   0  0  0  0  0  0  0  0  0  0  0  0
  133.9630   72.9250  225.9270 C   0  0  0  0  0  0  0  0  0  0  0  0
  134.2410   74.3040  225.8960 C   0  0  0  0  0  0  0  0  0  0  0  0
  135.2920   74.7140  225.3270 O   0  0  0  0  0  0  0  0  0  0  0  0
  133.3720   75.1930  226.4830 N   0  0  0  0  0  0  0  0  0  0  0  0
  133.6310   76.5420  226.4600 C   0  0  0  0  0  0  0  0  0  0  0  0
  132.7520   77.4500  227.0550 C   0  0  0  0  0  0  0  0  0  0  0  0
  131.6000   76.9820  227.6790 C   0  0  0  0  0  0  0  0  0  0  0  0
  131.3350   75.6160  227.7040 C   0  0  0  0  0  0  0  0  0  0  0  0
  132.2300   74.7260  227.1000 C   0  0  0  0  0  0  0  0  0  0  0  0
  131.9590   73.3970  227.1320 N   0  0  0  0  0  0  0  0  0  0  0  0
  132.7930   72.4940  226.5650 C   0  0  0  0  0  0  0  0  0  0  0  0
  132.4860   71.1720  226.6090 N   0  0  0  0  0  0  0  0  0  0  0  0
  133.2860   70.2190  226.0580 C   0  0  0  0  0  0  0  0  0  0  0  0
  132.8480   68.8560  226.0950 N   0  0  0  0  0  0  0  0  0  0  0  0
  138.9980   68.7940  225.3100 C   0  0  0  0  0  0  0  0  0  0  0  0
  139.5230   69.9300  225.9530 C   0  0  0  0  0  0  0  0  0  0  0  0
  140.5910   69.8070  226.8460 C   0  0  0  0  0  0  0  0  0  0  0  0
  141.1490   68.5520  227.1050 C   0  0  0  0  0  0  0  0  0  0  0  0
  140.6390   67.4180  226.4710 C   0  0  0  0  0  0  0  0  0  0  0  0
  139.5700   67.5350  225.5770 C   0  0  0  0  0  0  0  0  0  0  0  0
  139.1293   70.1206  223.0704 H   0  0  0  0  0  0  0  0  0  0  0  0
  138.7008   68.5087  222.4034 H   0  0  0  0  0  0  0  0  0  0  0  0
  137.4865   69.8324  222.4034 H   0  0  0  0  0  0  0  0  0  0  0  0
  137.3641   67.9501  224.2381 H   0  0  0  0  0  0  0  0  0  0  0  0
  137.1630   70.8600  225.0980 H   0  0  0  0  0  0  0  0  0  0  0  0
  135.7353   72.2859  224.8489 H   0  0  0  0  0  0  0  0  0  0  0  0
  134.5421   76.9117  225.9668 H   0  0  0  0  0  0  0  0  0  0  0  0
  132.9692   78.5281  227.0303 H   0  0  0  0  0  0  0  0  0  0  0  0
  130.9015   77.6888  228.1507 H   0  0  0  0  0  0  0  0  0  0  0  0
  130.4267   75.2379  228.1960 H   0  0  0  0  0  0  0  0  0  0  0  0
  133.4190   68.0750  225.7050 H   0  0  0  0  0  0  0  0  0  0  0  0
  131.8810   68.6330  226.4190 H   0  0  0  0  0  0  0  0  0  0  0  0
  139.0902   70.9210  225.7516 H   0  0  0  0  0  0  0  0  0  0  0  0
  140.9935   70.7002  227.3463 H   0  0  0  0  0  0  0  0  0  0  0  0
  141.9897   68.4581  227.8082 H   0  0  0  0  0  0  0  0  0  0  0  0
  141.0787   66.4305  226.6749 H   0  0  0  0  0  0  0  0  0  0  0  0
  139.1733   66.6379  225.0791 H   0  0  0  0  0  0  0  0  0  0  0  0
  1  2  1  0
  2  3  1  0
  3  4  1  0
  4  5  2  0
  4  6  1  0
  6  7  2  0
  7  8  1  0
  8  9  1  0
  9 10  2  0
  9 11  1  0
 11 12  1  0
 12 13  2  0
 13 14  1  0
 14 15  2  0
 15 16  1  0
 16 17  2  0
 17 18  1  0
 18 19  1  0
 19 20  2  0
 20 21  1  0
  2 22  1  0
 22 23  2  0
 23 24  1  0
 24 25  2  0
 25 26  1  0
 26 27  2  0
 20  6  1  0
 27 22  1  0
 18  8  2  0
 16 11  1  0
  1 28  1  0
  1 29  1  0
  1 30  1  0
  2 31  1  6
  3 32  1  0
  7 33  1  0
 12 34  1  0
 13 35  1  0
 14 36  1  0
 15 37  1  0
 21 38  1  0
 21 39  1  0
 23 40  1  0
 24 41  1  0
 25 42  1  0
 26 43  1  0
 27 44  1  0
M  END
>  <UniqueID>  (65) 
34

>  <SMILES>  (65) 
C[C@H](NC(=O)c1cc2c(=O)n3ccccc3nc2nc1N)c1ccccc1

>  <Energy>  (65) 
61.31071048783789

>  <Genealogy>  (65) 
C[C@H](NC(=O)c1cc2c(=O)n3ccccc3nc2nc1N)c1ccccc1 (tautomer)
C[C@H](NC(=O)c1cc2c(=O)n3ccccc3nc2nc1N)c1ccccc1 (3D coordinates assigned)
C[C@H](NC(=O)c1cc2c(=O)n3ccccc3nc2nc1N)c1ccccc1 (optimized conformer: 61.31071048783789 kcal/mol)

>  <smiles>  (65) 
C[C@H](NC(=O)c1cc2c(=O)n3ccccc3nc2[nH]c1=N)c1ccccc1

>  <score_type>  (65) 
oracle

>  <origin>  (65) 
autodockgpu

>  <m_score__min__energy>  (65) 
-7.8399999999999999

>  <m_primary>  (65) 
energy

>  <meeko>  (65) 
{"free_energy": -7.01, "intermolecular_energy": -8.2, "internal_energy": -0.88, "cluster_size": 6, "cluster_id": 3, "rank_in_cluster": 3}

>  <energy>  (65) 
-7.7

>  <cluster_rmsd>  (65) 
0.28

>  <rmsd>  (65) 
270.63

>  <cluster>  (65) 
1

$$$$
OOSPKVZPLIIQRF-CYJIZFNKNA-N
     RDKit          3D

 44 47  0  0  0  0  0  0  0  0999 V2000
  139.4210   77.0700  221.9990 C   0  0  0  0  0  0  0  0  0  0  0  0
  139.7670   75.8130  221.1950 C   0  0  2  0  0  0  0  0  0  0  0  0
  139.6910   74.6270  222.0550 N   0  0  0  0  0  0  0  0  0  0  0  0
  139.5790   73.2970  221.5250 C   0  0  0  0  0  0  0  0  0  0  0  0
  139.5580   73.1150  220.2780 O   0  0  0  0  0  0  0  0  0  0  0  0
  139.5270   72.1330  222.4380 C   0  0  0  0  0  0  0  0  0  0  0  0
  140.1180   72.2370  223.7070 C   0  0  0  0  0  0  0  0  0  0  0  0
  140.1430   71.1330  224.5730 C   0  0  0  0  0  0  0  0  0  0  0  0
  140.7290   71.1810  225.8510 C   0  0  0  0  0  0  0  0  0  0  0  0
  141.2530   72.2570  226.2560 O   0  0  0  0  0  0  0  0  0  0  0  0
  140.7280   70.0610  226.6500 N   0  0  0  0  0  0  0  0  0  0  0  0
  141.2960   70.0940  227.9000 C   0  0  0  0  0  0  0  0  0  0  0  0
  141.2980   68.9600  228.7140 C   0  0  0  0  0  0  0  0  0  0  0  0
  140.7180   67.7820  228.2540 C   0  0  0  0  0  0  0  0  0  0  0  0
  140.1410   67.7460  226.9880 C   0  0  0  0  0  0  0  0  0  0  0  0
  140.1510   68.8950  226.1900 C   0  0  0  0  0  0  0  0  0  0  0  0
  139.5850   68.8460  224.9570 N   0  0  0  0  0  0  0  0  0  0  0  0
  139.5690   69.9290  224.1450 C   0  0  0  0  0  0  0  0  0  0  0  0
  138.9880   69.8450  222.9210 N   0  0  0  0  0  0  0  0  0  0  0  0
  138.9430   70.9000  222.0620 C   0  0  0  0  0  0  0  0  0  0  0  0
  138.2500   70.7370  220.8190 N   0  0  0  0  0  0  0  0  0  0  0  0
  141.1430   75.9230  220.5640 C   0  0  0  0  0  0  0  0  0  0  0  0
  142.0840   74.8920  220.7420 C   0  0  0  0  0  0  0  0  0  0  0  0
  143.3540   74.9860  220.1660 C   0  0  0  0  0  0  0  0  0  0  0  0
  143.7000   76.1080  219.4090 C   0  0  0  0  0  0  0  0  0  0  0  0
  142.7750   77.1390  219.2270 C   0  0  0  0  0  0  0  0  0  0  0  0
  141.5040   77.0500  219.8000 C   0  0  0  0  0  0  0  0  0  0  0  0
  139.4826   76.8461  223.0742 H   0  0  0  0  0  0  0  0  0  0  0  0
  140.1319   77.8717  221.7501 H   0  0  0  0  0  0  0  0  0  0  0  0
  138.4000   77.3950  221.7501 H   0  0  0  0  0  0  0  0  0  0  0  0
  139.0322   75.7141  220.3825 H   0  0  0  0  0  0  0  0  0  0  0  0
  139.5660   74.7580  223.0850 H   0  0  0  0  0  0  0  0  0  0  0  0
  140.5647   73.1906  224.0249 H   0  0  0  0  0  0  0  0  0  0  0  0
  141.7548   71.0251  228.2640 H   0  0  0  0  0  0  0  0  0  0  0  0
  141.7556   68.9975  229.7136 H   0  0  0  0  0  0  0  0  0  0  0  0
  140.7155   66.8831  228.8881 H   0  0  0  0  0  0  0  0  0  0  0  0
  139.6796   66.8190  226.6168 H   0  0  0  0  0  0  0  0  0  0  0  0
  138.1440   71.5150  220.1330 H   0  0  0  0  0  0  0  0  0  0  0  0
  137.7330   69.8500  220.6280 H   0  0  0  0  0  0  0  0  0  0  0  0
  141.8184   74.0065  221.3382 H   0  0  0  0  0  0  0  0  0  0  0  0
  144.0828   74.1746  220.3091 H   0  0  0  0  0  0  0  0  0  0  0  0
  144.7001   76.1796  218.9565 H   0  0  0  0  0  0  0  0  0  0  0  0
  143.0480   78.0226  218.6314 H   0  0  0  0  0  0  0  0  0  0  0  0
  140.7804   77.8654  219.6536 H   0  0  0  0  0  0  0  0  0  0  0  0
  1  2  1  0
  2  3  1  0
  3  4  1  0
  4  5  2  0
  4  6  1  0
  6  7  2  0
  7  8  1  0
  8  9  1  0
  9 10  2  0
  9 11  1  0
 11 12  1  0
 12 13  2  0
 13 14  1  0
 14 15  2  0
 15 16  1  0
 16 17  2  0
 17 18  1  0
 18 19  1  0
 19 20  2  0
 20 21  1  0
  2 22  1  0
 22 23  2  0
 23 24  1  0
 24 25  2  0
 25 26  1  0
 26 27  2  0
 20  6  1  0
 27 22  1  0
 18  8  2  0
 16 11  1  0
  1 28  1  0
  1 29  1  0
  1 30  1  0
  2 31  1  6
  3 32  1  0
  7 33  1  0
 12 34  1  0
 13 35  1  0
 14 36  1  0
 15 37  1  0
 21 38  1  0
 21 39  1  0
 23 40  1  0
 24 41  1  0
 25 42  1  0
 26 43  1  0
 27 44  1  0
M  END
>  <UniqueID>  (66) 
34

>  <SMILES>  (66) 
C[C@H](NC(=O)c1cc2c(=O)n3ccccc3nc2nc1N)c1ccccc1

>  <Energy>  (66) 
61.31071048783789

>  <Genealogy>  (66) 
C[C@H](NC(=O)c1cc2c(=O)n3ccccc3nc2nc1N)c1ccccc1 (tautomer)
C[C@H](NC(=O)c1cc2c(=O)n3ccccc3nc2nc1N)c1ccccc1 (3D coordinates assigned)
C[C@H](NC(=O)c1cc2c(=O)n3ccccc3nc2nc1N)c1ccccc1 (optimized conformer: 61.31071048783789 kcal/mol)

>  <smiles>  (66) 
C[C@H](NC(=O)c1cc2c(=O)n3ccccc3nc2[nH]c1=N)c1ccccc1

>  <score_type>  (66) 
oracle

>  <origin>  (66) 
autodockgpu

>  <m_score__min__energy>  (66) 
-7.8399999999999999

>  <m_primary>  (66) 
energy

>  <meeko>  (66) 
{"free_energy": -7.01, "intermolecular_energy": -8.21, "internal_energy": -0.9, "cluster_size": 7, "cluster_id": 2, "rank_in_cluster": 4}

>  <energy>  (66) 
-7.7

>  <cluster_rmsd>  (66) 
0.25

>  <rmsd>  (66) 
270.7

>  <cluster>  (66) 
1

$$$$
OOSPKVZPLIIQRF-CYJIZFNKNA-N
     RDKit          3D

 44 47  0  0  0  0  0  0  0  0999 V2000
  139.3830   77.0130  221.9480 C   0  0  0  0  0  0  0  0  0  0  0  0
  139.7550   75.7530  221.1600 C   0  0  2  0  0  0  0  0  0  0  0  0
  139.6830   74.5750  222.0310 N   0  0  0  0  0  0  0  0  0  0  0  0
  139.6050   73.2370  221.5110 C   0  0  0  0  0  0  0  0  0  0  0  0
  139.6110   73.0440  220.2660 O   0  0  0  0  0  0  0  0  0  0  0  0
  139.5560   72.0810  222.4340 C   0  0  0  0  0  0  0  0  0  0  0  0
  140.1580   72.1930  223.6970 C   0  0  0  0  0  0  0  0  0  0  0  0
  140.1860   71.0960  224.5720 C   0  0  0  0  0  0  0  0  0  0  0  0
  140.7840   71.1510  225.8440 C   0  0  0  0  0  0  0  0  0  0  0  0
  141.3180   72.2280  226.2350 O   0  0  0  0  0  0  0  0  0  0  0  0
  140.7850   70.0390  226.6520 N   0  0  0  0  0  0  0  0  0  0  0  0
  141.3650   70.0780  227.8970 C   0  0  0  0  0  0  0  0  0  0  0  0
  141.3690   68.9510  228.7200 C   0  0  0  0  0  0  0  0  0  0  0  0
  140.7780   67.7730  228.2750 C   0  0  0  0  0  0  0  0  0  0  0  0
  140.1890   67.7290  227.0150 C   0  0  0  0  0  0  0  0  0  0  0  0
  140.1980   68.8720  226.2080 C   0  0  0  0  0  0  0  0  0  0  0  0
  139.6200   68.8150  224.9810 N   0  0  0  0  0  0  0  0  0  0  0  0
  139.6020   69.8910  224.1600 C   0  0  0  0  0  0  0  0  0  0  0  0
  139.0080   69.8010  222.9420 N   0  0  0  0  0  0  0  0  0  0  0  0
  138.9610   70.8480  222.0740 C   0  0  0  0  0  0  0  0  0  0  0  0
  138.2560   70.6790  220.8400 N   0  0  0  0  0  0  0  0  0  0  0  0
  141.1380   75.8750  220.5470 C   0  0  0  0  0  0  0  0  0  0  0  0
  141.4780   77.0160  219.7980 C   0  0  0  0  0  0  0  0  0  0  0  0
  142.7490   77.1360  219.2280 C   0  0  0  0  0  0  0  0  0  0  0  0
  143.6920   76.1200  219.3980 C   0  0  0  0  0  0  0  0  0  0  0  0
  143.3660   74.9800  220.1360 C   0  0  0  0  0  0  0  0  0  0  0  0
  142.0960   74.8560  220.7080 C   0  0  0  0  0  0  0  0  0  0  0  0
  139.4450   76.8030  223.0260 H   0  0  0  0  0  0  0  0  0  0  0  0
  140.0798   77.8247  221.6919 H   0  0  0  0  0  0  0  0  0  0  0  0
  138.3570   77.3161  221.6919 H   0  0  0  0  0  0  0  0  0  0  0  0
  139.0327   75.6367  220.3386 H   0  0  0  0  0  0  0  0  0  0  0  0
  139.5360   74.7120  223.0570 H   0  0  0  0  0  0  0  0  0  0  0  0
  140.6111   73.1474  224.0032 H   0  0  0  0  0  0  0  0  0  0  0  0
  141.8321   71.0094  228.2495 H   0  0  0  0  0  0  0  0  0  0  0  0
  141.8367   68.9939  229.7147 H   0  0  0  0  0  0  0  0  0  0  0  0
  140.7762   66.8796  228.9167 H   0  0  0  0  0  0  0  0  0  0  0  0
  139.7193   66.8015  226.6557 H   0  0  0  0  0  0  0  0  0  0  0  0
  138.3670   71.3370  220.0380 H   0  0  0  0  0  0  0  0  0  0  0  0
  137.5190   69.9430  220.7620 H   0  0  0  0  0  0  0  0  0  0  0  0
  140.7391   77.8191  219.6598 H   0  0  0  0  0  0  0  0  0  0  0  0
  143.0067   78.0322  218.6446 H   0  0  0  0  0  0  0  0  0  0  0  0
  144.6921   76.2177  218.9504 H   0  0  0  0  0  0  0  0  0  0  0  0
  144.1086   74.1792  220.2674 H   0  0  0  0  0  0  0  0  0  0  0  0
  141.8437   73.9559  221.2878 H   0  0  0  0  0  0  0  0  0  0  0  0
  1  2  1  0
  2  3  1  0
  3  4  1  0
  4  5  2  0
  4  6  1  0
  6  7  2  0
  7  8  1  0
  8  9  1  0
  9 10  2  0
  9 11  1  0
 11 12  1  0
 12 13  2  0
 13 14  1  0
 14 15  2  0
 15 16  1  0
 16 17  2  0
 17 18  1  0
 18 19  1  0
 19 20  2  0
 20 21  1  0
  2 22  1  0
 22 23  2  0
 23 24  1  0
 24 25  2  0
 25 26  1  0
 26 27  2  0
 20  6  1  0
 27 22  1  0
 18  8  2  0
 16 11  1  0
  1 28  1  0
  1 29  1  0
  1 30  1  0
  2 31  1  6
  3 32  1  0
  7 33  1  0
 12 34  1  0
 13 35  1  0
 14 36  1  0
 15 37  1  0
 21 38  1  0
 21 39  1  0
 23 40  1  0
 24 41  1  0
 25 42  1  0
 26 43  1  0
 27 44  1  0
M  END
>  <UniqueID>  (67) 
34

>  <SMILES>  (67) 
C[C@H](NC(=O)c1cc2c(=O)n3ccccc3nc2nc1N)c1ccccc1

>  <Energy>  (67) 
61.31071048783789

>  <Genealogy>  (67) 
C[C@H](NC(=O)c1cc2c(=O)n3ccccc3nc2nc1N)c1ccccc1 (tautomer)
C[C@H](NC(=O)c1cc2c(=O)n3ccccc3nc2nc1N)c1ccccc1 (3D coordinates assigned)
C[C@H](NC(=O)c1cc2c(=O)n3ccccc3nc2nc1N)c1ccccc1 (optimized conformer: 61.31071048783789 kcal/mol)

>  <smiles>  (67) 
C[C@H](NC(=O)c1cc2c(=O)n3ccccc3nc2[nH]c1=N)c1ccccc1

>  <score_type>  (67) 
oracle

>  <origin>  (67) 
autodockgpu

>  <m_score__min__energy>  (67) 
-7.8399999999999999

>  <m_primary>  (67) 
energy

>  <meeko>  (67) 
{"free_energy": -6.99, "intermolecular_energy": -8.18, "internal_energy": -0.91, "cluster_size": 7, "cluster_id": 2, "rank_in_cluster": 7}

>  <energy>  (67) 
-7.69

>  <cluster_rmsd>  (67) 
0.61

>  <rmsd>  (67) 
270.8

>  <cluster>  (67) 
1

$$$$
OOSPKVZPLIIQRF-CYJIZFNKNA-N
     RDKit          3D

 44 47  0  0  0  0  0  0  0  0999 V2000
  138.3250   69.4720  222.9100 C   0  0  0  0  0  0  0  0  0  0  0  0
  137.8160   69.0160  224.2800 C   0  0  2  0  0  0  0  0  0  0  0  0
  136.8260   69.9700  224.7920 N   0  0  0  0  0  0  0  0  0  0  0  0
  135.4260   69.6570  224.8740 C   0  0  0  0  0  0  0  0  0  0  0  0
  135.0110   68.5230  224.5110 O   0  0  0  0  0  0  0  0  0  0  0  0
  134.4720   70.6490  225.4190 C   0  0  0  0  0  0  0  0  0  0  0  0
  134.7940   72.0130  225.3480 C   0  0  0  0  0  0  0  0  0  0  0  0
  133.9430   72.9760  225.9120 C   0  0  0  0  0  0  0  0  0  0  0  0
  134.2220   74.3540  225.8770 C   0  0  0  0  0  0  0  0  0  0  0  0
  135.2770   74.7610  225.3120 O   0  0  0  0  0  0  0  0  0  0  0  0
  133.3500   75.2470  226.4550 N   0  0  0  0  0  0  0  0  0  0  0  0
  133.6110   76.5950  226.4280 C   0  0  0  0  0  0  0  0  0  0  0  0
  132.7290   77.5060  227.0140 C   0  0  0  0  0  0  0  0  0  0  0  0
  131.5730   77.0420  227.6330 C   0  0  0  0  0  0  0  0  0  0  0  0
  131.3060   75.6760  227.6620 C   0  0  0  0  0  0  0  0  0  0  0  0
  132.2040   74.7830  227.0670 C   0  0  0  0  0  0  0  0  0  0  0  0
  131.9320   73.4540  227.1030 N   0  0  0  0  0  0  0  0  0  0  0  0
  132.7680   72.5480  226.5450 C   0  0  0  0  0  0  0  0  0  0  0  0
  132.4600   71.2260  226.5930 N   0  0  0  0  0  0  0  0  0  0  0  0
  133.2630   70.2700  226.0510 C   0  0  0  0  0  0  0  0  0  0  0  0
  132.8240   68.9080  226.0920 N   0  0  0  0  0  0  0  0  0  0  0  0
  138.9570   68.8550  225.2670 C   0  0  0  0  0  0  0  0  0  0  0  0
  139.4570   67.5740  225.5640 C   0  0  0  0  0  0  0  0  0  0  0  0
  140.5080   67.4170  226.4730 C   0  0  0  0  0  0  0  0  0  0  0  0
  141.0690   68.5340  227.0960 C   0  0  0  0  0  0  0  0  0  0  0  0
  140.5810   69.8110  226.8110 C   0  0  0  0  0  0  0  0  0  0  0  0
  139.5300   69.9740  225.9030 C   0  0  0  0  0  0  0  0  0  0  0  0
  139.1381   70.2005  223.0448 H   0  0  0  0  0  0  0  0  0  0  0  0
  138.7006   68.6026  222.3504 H   0  0  0  0  0  0  0  0  0  0  0  0
  137.5020   69.9405  222.3504 H   0  0  0  0  0  0  0  0  0  0  0  0
  137.3377   68.0330  224.1578 H   0  0  0  0  0  0  0  0  0  0  0  0
  137.1200   70.9580  224.9680 H   0  0  0  0  0  0  0  0  0  0  0  0
  135.7204   72.3298  224.8465 H   0  0  0  0  0  0  0  0  0  0  0  0
  134.5255   76.9617  225.9390 H   0  0  0  0  0  0  0  0  0  0  0  0
  132.9473   78.5838  226.9861 H   0  0  0  0  0  0  0  0  0  0  0  0
  130.8726   77.7516  228.0977 H   0  0  0  0  0  0  0  0  0  0  0  0
  130.3943   75.3008  228.1499 H   0  0  0  0  0  0  0  0  0  0  0  0
  133.3970   68.1250  225.7100 H   0  0  0  0  0  0  0  0  0  0  0  0
  131.8540   68.6870  226.4090 H   0  0  0  0  0  0  0  0  0  0  0  0
  139.0183   66.6901  225.0780 H   0  0  0  0  0  0  0  0  0  0  0  0
  140.8937   66.4117  226.6978 H   0  0  0  0  0  0  0  0  0  0  0  0
  141.8952   68.4079  227.8111 H   0  0  0  0  0  0  0  0  0  0  0  0
  141.0241   70.6902  227.3016 H   0  0  0  0  0  0  0  0  0  0  0  0
  139.1483   70.9821  225.6840 H   0  0  0  0  0  0  0  0  0  0  0  0
  1  2  1  0
  2  3  1  0
  3  4  1  0
  4  5  2  0
  4  6  1  0
  6  7  2  0
  7  8  1  0
  8  9  1  0
  9 10  2  0
  9 11  1  0
 11 12  1  0
 12 13  2  0
 13 14  1  0
 14 15  2  0
 15 16  1  0
 16 17  2  0
 17 18  1  0
 18 19  1  0
 19 20  2  0
 20 21  1  0
  2 22  1  0
 22 23  2  0
 23 24  1  0
 24 25  2  0
 25 26  1  0
 26 27  2  0
 20  6  1  0
 27 22  1  0
 18  8  2  0
 16 11  1  0
  1 28  1  0
  1 29  1  0
  1 30  1  0
  2 31  1  6
  3 32  1  0
  7 33  1  0
 12 34  1  0
 13 35  1  0
 14 36  1  0
 15 37  1  0
 21 38  1  0
 21 39  1  0
 23 40  1  0
 24 41  1  0
 25 42  1  0
 26 43  1  0
 27 44  1  0
M  END
>  <UniqueID>  (68) 
34

>  <SMILES>  (68) 
C[C@H](NC(=O)c1cc2c(=O)n3ccccc3nc2nc1N)c1ccccc1

>  <Energy>  (68) 
61.31071048783789

>  <Genealogy>  (68) 
C[C@H](NC(=O)c1cc2c(=O)n3ccccc3nc2nc1N)c1ccccc1 (tautomer)
C[C@H](NC(=O)c1cc2c(=O)n3ccccc3nc2nc1N)c1ccccc1 (3D coordinates assigned)
C[C@H](NC(=O)c1cc2c(=O)n3ccccc3nc2nc1N)c1ccccc1 (optimized conformer: 61.31071048783789 kcal/mol)

>  <smiles>  (68) 
C[C@H](NC(=O)c1cc2c(=O)n3ccccc3nc2[nH]c1=N)c1ccccc1

>  <score_type>  (68) 
oracle

>  <origin>  (68) 
autodockgpu

>  <m_score__min__energy>  (68) 
-7.8399999999999999

>  <m_primary>  (68) 
energy

>  <meeko>  (68) 
{"free_energy": -7.01, "intermolecular_energy": -8.2, "internal_energy": -0.88, "cluster_size": 6, "cluster_id": 3, "rank_in_cluster": 1}

>  <energy>  (68) 
-7.28

>  <cluster_rmsd>  (68) 
0.0

>  <rmsd>  (68) 
270.92

>  <cluster>  (68) 
2

$$$$
OOSPKVZPLIIQRF-CYJIZFNKNA-N
     RDKit          3D

 44 47  0  0  0  0  0  0  0  0999 V2000
  139.4840   76.9540  222.3510 C   0  0  0  0  0  0  0  0  0  0  0  0
  140.5520   77.6370  221.4910 C   0  0  2  0  0  0  0  0  0  0  0  0
  141.6040   76.6770  221.1380 N   0  0  0  0  0  0  0  0  0  0  0  0
  141.3300   75.4700  220.4080 C   0  0  0  0  0  0  0  0  0  0  0  0
  140.1530   75.2110  220.0360 O   0  0  0  0  0  0  0  0  0  0  0  0
  142.4310   74.5450  220.0580 C   0  0  0  0  0  0  0  0  0  0  0  0
  142.2040   73.1610  220.1250 C   0  0  0  0  0  0  0  0  0  0  0  0
  143.2440   72.2560  219.8630 C   0  0  0  0  0  0  0  0  0  0  0  0
  143.0740   70.8610  219.9240 C   0  0  0  0  0  0  0  0  0  0  0  0
  141.9410   70.3850  220.2200 O   0  0  0  0  0  0  0  0  0  0  0  0
  144.1350   70.0270  219.6630 N   0  0  0  0  0  0  0  0  0  0  0  0
  143.9830   68.6630  219.7190 C   0  0  0  0  0  0  0  0  0  0  0  0
  145.0570   67.8110  219.4550 C   0  0  0  0  0  0  0  0  0  0  0  0
  146.2980   68.3510  219.1310 C   0  0  0  0  0  0  0  0  0  0  0  0
  146.4560   69.7330  219.0730 C   0  0  0  0  0  0  0  0  0  0  0  0
  145.3640   70.5650  219.3410 C   0  0  0  0  0  0  0  0  0  0  0  0
  145.5320   71.9110  219.2810 N   0  0  0  0  0  0  0  0  0  0  0  0
  144.5090   72.7610  219.5330 C   0  0  0  0  0  0  0  0  0  0  0  0
  144.7110   74.1010  219.4570 N   0  0  0  0  0  0  0  0  0  0  0  0
  143.7220   75.0030  219.7010 C   0  0  0  0  0  0  0  0  0  0  0  0
  144.0110   76.3950  219.5310 N   0  0  0  0  0  0  0  0  0  0  0  0
  141.1480   78.8370  222.2040 C   0  0  0  0  0  0  0  0  0  0  0  0
  141.6620   78.6990  223.5070 C   0  0  0  0  0  0  0  0  0  0  0  0
  142.2110   79.8000  224.1710 C   0  0  0  0  0  0  0  0  0  0  0  0
  142.2530   81.0480  223.5450 C   0  0  0  0  0  0  0  0  0  0  0  0
  141.7440   81.1980  222.2530 C   0  0  0  0  0  0  0  0  0  0  0  0
  141.1940   80.1010  221.5840 C   0  0  0  0  0  0  0  0  0  0  0  0
  139.7189   77.1042  223.4151 H   0  0  0  0  0  0  0  0  0  0  0  0
  138.4992   77.3903  222.1277 H   0  0  0  0  0  0  0  0  0  0  0  0
  139.4670   75.8770  222.1277 H   0  0  0  0  0  0  0  0  0  0  0  0
  140.0713   77.9977  220.5697 H   0  0  0  0  0  0  0  0  0  0  0  0
  142.5570   76.7950  221.5520 H   0  0  0  0  0  0  0  0  0  0  0  0
  141.2040   72.7835  220.3847 H   0  0  0  0  0  0  0  0  0  0  0  0
  143.0020   68.2363  219.9752 H   0  0  0  0  0  0  0  0  0  0  0  0
  144.9232   66.7202  219.5028 H   0  0  0  0  0  0  0  0  0  0  0  0
  147.1508   67.6885  218.9215 H   0  0  0  0  0  0  0  0  0  0  0  0
  147.4336   70.1680  218.8180 H   0  0  0  0  0  0  0  0  0  0  0  0
  143.7140   77.1160  220.2240 H   0  0  0  0  0  0  0  0  0  0  0  0
  144.4350   76.7300  218.6370 H   0  0  0  0  0  0  0  0  0  0  0  0
  141.6316   77.7191  224.0058 H   0  0  0  0  0  0  0  0  0  0  0  0
  142.6109   79.6832  225.1891 H   0  0  0  0  0  0  0  0  0  0  0  0
  142.6868   81.9123  224.0693 H   0  0  0  0  0  0  0  0  0  0  0  0
  141.7761   82.1814  221.7611 H   0  0  0  0  0  0  0  0  0  0  0  0
  140.7945   80.2255  220.5667 H   0  0  0  0  0  0  0  0  0  0  0  0
  1  2  1  0
  2  3  1  0
  3  4  1  0
  4  5  2  0
  4  6  1  0
  6  7  2  0
  7  8  1  0
  8  9  1  0
  9 10  2  0
  9 11  1  0
 11 12  1  0
 12 13  2  0
 13 14  1  0
 14 15  2  0
 15 16  1  0
 16 17  2  0
 17 18  1  0
 18 19  1  0
 19 20  2  0
 20 21  1  0
  2 22  1  0
 22 23  2  0
 23 24  1  0
 24 25  2  0
 25 26  1  0
 26 27  2  0
 20  6  1  0
 27 22  1  0
 18  8  2  0
 16 11  1  0
  1 28  1  0
  1 29  1  0
  1 30  1  0
  2 31  1  6
  3 32  1  0
  7 33  1  0
 12 34  1  0
 13 35  1  0
 14 36  1  0
 15 37  1  0
 21 38  1  0
 21 39  1  0
 23 40  1  0
 24 41  1  0
 25 42  1  0
 26 43  1  0
 27 44  1  0
M  END
>  <UniqueID>  (69) 
34

>  <SMILES>  (69) 
C[C@H](NC(=O)c1cc2c(=O)n3ccccc3nc2nc1N)c1ccccc1

>  <Energy>  (69) 
61.31071048783789

>  <Genealogy>  (69) 
C[C@H](NC(=O)c1cc2c(=O)n3ccccc3nc2nc1N)c1ccccc1 (tautomer)
C[C@H](NC(=O)c1cc2c(=O)n3ccccc3nc2nc1N)c1ccccc1 (3D coordinates assigned)
C[C@H](NC(=O)c1cc2c(=O)n3ccccc3nc2nc1N)c1ccccc1 (optimized conformer: 61.31071048783789 kcal/mol)

>  <smiles>  (69) 
C[C@H](NC(=O)c1cc2c(=O)n3ccccc3nc2[nH]c1=N)c1ccccc1

>  <score_type>  (69) 
oracle

>  <origin>  (69) 
autodockgpu

>  <m_score__min__energy>  (69) 
-7.8399999999999999

>  <m_primary>  (69) 
energy

>  <meeko>  (69) 
{"free_energy": -7.78, "intermolecular_energy": -8.97, "internal_energy": -0.25, "cluster_size": 7, "cluster_id": 1, "rank_in_cluster": 2}

>  <energy>  (69) 
-7.28

>  <cluster_rmsd>  (69) 
0.12

>  <rmsd>  (69) 
270.92

>  <cluster>  (69) 
2

$$$$
OOSPKVZPLIIQRF-CYJIZFNKNA-N
     RDKit          3D

 44 47  0  0  0  0  0  0  0  0999 V2000
  138.8820   70.3940  222.7870 C   0  0  0  0  0  0  0  0  0  0  0  0
  138.1630   69.6670  223.9270 C   0  0  2  0  0  0  0  0  0  0  0  0
  137.1360   70.5380  224.5100 N   0  0  0  0  0  0  0  0  0  0  0  0
  135.7950   70.0860  224.7590 C   0  0  0  0  0  0  0  0  0  0  0  0
  135.4700   68.8980  224.4890 O   0  0  0  0  0  0  0  0  0  0  0  0
  134.8030   70.9990  225.3690 C   0  0  0  0  0  0  0  0  0  0  0  0
  135.0270   72.3840  225.3120 C   0  0  0  0  0  0  0  0  0  0  0  0
  134.1390   73.2740  225.9350 C   0  0  0  0  0  0  0  0  0  0  0  0
  134.3220   74.6690  225.9150 C   0  0  0  0  0  0  0  0  0  0  0  0
  135.3170   75.1590  225.3100 O   0  0  0  0  0  0  0  0  0  0  0  0
  133.4190   75.4890  226.5520 N   0  0  0  0  0  0  0  0  0  0  0  0
  133.5850   76.8530  226.5410 C   0  0  0  0  0  0  0  0  0  0  0  0
  132.6720   77.6890  227.1860 C   0  0  0  0  0  0  0  0  0  0  0  0
  131.5820   77.1350  227.8490 C   0  0  0  0  0  0  0  0  0  0  0  0
  131.4110   75.7540  227.8630 C   0  0  0  0  0  0  0  0  0  0  0  0
  132.3390   74.9360  227.2080 C   0  0  0  0  0  0  0  0  0  0  0  0
  132.1610   73.5910  227.2290 N   0  0  0  0  0  0  0  0  0  0  0  0
  133.0290   72.7550  226.6140 C   0  0  0  0  0  0  0  0  0  0  0  0
  132.8160   71.4140  226.6490 N   0  0  0  0  0  0  0  0  0  0  0  0
  133.6550   70.5260  226.0490 C   0  0  0  0  0  0  0  0  0  0  0  0
  133.3130   69.1360  226.0830 N   0  0  0  0  0  0  0  0  0  0  0  0
  139.1410   69.2140  224.9950 C   0  0  0  0  0  0  0  0  0  0  0  0
  139.9670   70.1530  225.6390 C   0  0  0  0  0  0  0  0  0  0  0  0
  140.8720   69.7430  226.6230 C   0  0  0  0  0  0  0  0  0  0  0  0
  140.9640   68.3940  226.9730 C   0  0  0  0  0  0  0  0  0  0  0  0
  140.1520   67.4510  226.3390 C   0  0  0  0  0  0  0  0  0  0  0  0
  139.2450   67.8560  225.3550 C   0  0  0  0  0  0  0  0  0  0  0  0
  139.5971   71.1170  223.2065 H   0  0  0  0  0  0  0  0  0  0  0  0
  139.4213   69.6620  222.1678 H   0  0  0  0  0  0  0  0  0  0  0  0
  138.1441   70.9252  222.1678 H   0  0  0  0  0  0  0  0  0  0  0  0
  137.6804   68.7701  223.5114 H   0  0  0  0  0  0  0  0  0  0  0  0
  137.3380   71.5590  224.6140 H   0  0  0  0  0  0  0  0  0  0  0  0
  135.9045   72.7739  224.7753 H   0  0  0  0  0  0  0  0  0  0  0  0
  134.4476   77.2913  226.0177 H   0  0  0  0  0  0  0  0  0  0  0  0
  132.8138   78.7797  227.1700 H   0  0  0  0  0  0  0  0  0  0  0  0
  130.8578   77.7861  228.3604 H   0  0  0  0  0  0  0  0  0  0  0  0
  130.5519   75.3080  228.3856 H   0  0  0  0  0  0  0  0  0  0  0  0
  134.0090   68.3850  225.8850 H   0  0  0  0  0  0  0  0  0  0  0  0
  132.3140   68.8520  226.1970 H   0  0  0  0  0  0  0  0  0  0  0  0
  139.9006   71.2167  225.3668 H   0  0  0  0  0  0  0  0  0  0  0  0
  141.5128   70.4845  227.1225 H   0  0  0  0  0  0  0  0  0  0  0  0
  141.6761   68.0743  227.7481 H   0  0  0  0  0  0  0  0  0  0  0  0
  140.2261   66.3885  226.6141 H   0  0  0  0  0  0  0  0  0  0  0  0
  138.6082   67.1090  224.8585 H   0  0  0  0  0  0  0  0  0  0  0  0
  1  2  1  0
  2  3  1  0
  3  4  1  0
  4  5  2  0
  4  6  1  0
  6  7  2  0
  7  8  1  0
  8  9  1  0
  9 10  2  0
  9 11  1  0
 11 12  1  0
 12 13  2  0
 13 14  1  0
 14 15  2  0
 15 16  1  0
 16 17  2  0
 17 18  1  0
 18 19  1  0
 19 20  2  0
 20 21  1  0
  2 22  1  0
 22 23  2  0
 23 24  1  0
 24 25  2  0
 25 26  1  0
 26 27  2  0
 20  6  1  0
 27 22  1  0
 18  8  2  0
 16 11  1  0
  1 28  1  0
  1 29  1  0
  1 30  1  0
  2 31  1  6
  3 32  1  0
  7 33  1  0
 12 34  1  0
 13 35  1  0
 14 36  1  0
 15 37  1  0
 21 38  1  0
 21 39  1  0
 23 40  1  0
 24 41  1  0
 25 42  1  0
 26 43  1  0
 27 44  1  0
M  END
>  <UniqueID>  (70) 
34

>  <SMILES>  (70) 
C[C@H](NC(=O)c1cc2c(=O)n3ccccc3nc2nc1N)c1ccccc1

>  <Energy>  (70) 
61.31071048783789

>  <Genealogy>  (70) 
C[C@H](NC(=O)c1cc2c(=O)n3ccccc3nc2nc1N)c1ccccc1 (tautomer)
C[C@H](NC(=O)c1cc2c(=O)n3ccccc3nc2nc1N)c1ccccc1 (3D coordinates assigned)
C[C@H](NC(=O)c1cc2c(=O)n3ccccc3nc2nc1N)c1ccccc1 (optimized conformer: 61.31071048783789 kcal/mol)

>  <smiles>  (70) 
C[C@H](NC(=O)c1cc2c(=O)n3ccccc3nc2[nH]c1=N)c1ccccc1

>  <score_type>  (70) 
oracle

>  <origin>  (70) 
autodockgpu

>  <m_score__min__energy>  (70) 
-7.8399999999999999

>  <m_primary>  (70) 
energy

>  <meeko>  (70) 
{"free_energy": -6.96, "intermolecular_energy": -8.15, "internal_energy": -0.89, "cluster_size": 6, "cluster_id": 3, "rank_in_cluster": 6}

>  <energy>  (70) 
-7.28

>  <cluster_rmsd>  (70) 
0.25

>  <rmsd>  (70) 
270.85

>  <cluster>  (70) 
2

$$$$
OOSPKVZPLIIQRF-CYJIZFNKNA-N
     RDKit          3D

 44 47  0  0  0  0  0  0  0  0999 V2000
  137.8670   75.9370  220.6360 C   0  0  0  0  0  0  0  0  0  0  0  0
  139.2690   75.7400  221.2210 C   0  0  2  0  0  0  0  0  0  0  0  0
  139.3000   74.5370  222.0600 N   0  0  0  0  0  0  0  0  0  0  0  0
  139.5410   73.2280  221.5200 C   0  0  0  0  0  0  0  0  0  0  0  0
  139.7500   73.0840  220.2840 O   0  0  0  0  0  0  0  0  0  0  0  0
  139.5830   72.0490  222.4140 C   0  0  0  0  0  0  0  0  0  0  0  0
  140.0960   72.1980  223.7120 C   0  0  0  0  0  0  0  0  0  0  0  0
  140.2100   71.0890  224.5640 C   0  0  0  0  0  0  0  0  0  0  0  0
  140.7250   71.1810  225.8690 C   0  0  0  0  0  0  0  0  0  0  0  0
  141.0990   72.3040  226.3130 O   0  0  0  0  0  0  0  0  0  0  0  0
  140.8170   70.0550  226.6530 N   0  0  0  0  0  0  0  0  0  0  0  0
  141.3180   70.1310  227.9300 C   0  0  0  0  0  0  0  0  0  0  0  0
  141.4150   68.9890  228.7290 C   0  0  0  0  0  0  0  0  0  0  0  0
  141.0000   67.7610  228.2260 C   0  0  0  0  0  0  0  0  0  0  0  0
  140.4920   67.6810  226.9320 C   0  0  0  0  0  0  0  0  0  0  0  0
  140.4040   68.8380  226.1510 C   0  0  0  0  0  0  0  0  0  0  0  0
  139.9070   68.7460  224.8910 N   0  0  0  0  0  0  0  0  0  0  0  0
  139.8020   69.8340  224.0930 C   0  0  0  0  0  0  0  0  0  0  0  0
  139.2930   69.7060  222.8410 N   0  0  0  0  0  0  0  0  0  0  0  0
  139.1650   70.7640  221.9940 C   0  0  0  0  0  0  0  0  0  0  0  0
  138.5560   70.5440  220.7170 N   0  0  0  0  0  0  0  0  0  0  0  0
  139.7090   76.9540  222.0180 C   0  0  0  0  0  0  0  0  0  0  0  0
  141.0690   77.1360  222.3300 C   0  0  0  0  0  0  0  0  0  0  0  0
  141.4830   78.2510  223.0650 C   0  0  0  0  0  0  0  0  0  0  0  0
  140.5470   79.1940  223.4970 C   0  0  0  0  0  0  0  0  0  0  0  0
  139.1940   79.0230  223.1950 C   0  0  0  0  0  0  0  0  0  0  0  0
  138.7750   77.9110  222.4600 C   0  0  0  0  0  0  0  0  0  0  0  0
  137.1392   76.0393  221.4545 H   0  0  0  0  0  0  0  0  0  0  0  0
  137.8525   76.8460  220.0167 H   0  0  0  0  0  0  0  0  0  0  0  0
  137.6025   75.0672  220.0167 H   0  0  0  0  0  0  0  0  0  0  0  0
  139.9740   75.6133  220.3862 H   0  0  0  0  0  0  0  0  0  0  0  0
  138.9940   74.6090  223.0570 H   0  0  0  0  0  0  0  0  0  0  0  0
  140.4110   73.1915  224.0639 H   0  0  0  0  0  0  0  0  0  0  0  0
  141.6466   71.1024  228.3280 H   0  0  0  0  0  0  0  0  0  0  0  0
  141.8174   69.0610  229.7502 H   0  0  0  0  0  0  0  0  0  0  0  0
  141.0727   66.8565  228.8477 H   0  0  0  0  0  0  0  0  0  0  0  0
  140.1618   66.7134  226.5263 H   0  0  0  0  0  0  0  0  0  0  0  0
  138.1160   69.6350  220.4570 H   0  0  0  0  0  0  0  0  0  0  0  0
  138.6450   71.2690  219.9710 H   0  0  0  0  0  0  0  0  0  0  0  0
  141.8108   76.3967  221.9936 H   0  0  0  0  0  0  0  0  0  0  0  0
  142.5483   78.3861  223.3037 H   0  0  0  0  0  0  0  0  0  0  0  0
  140.8754   80.0706  224.0746 H   0  0  0  0  0  0  0  0  0  0  0  0
  138.4572   79.7650  223.5364 H   0  0  0  0  0  0  0  0  0  0  0  0
  137.7082   77.7821  222.2249 H   0  0  0  0  0  0  0  0  0  0  0  0
  1  2  1  0
  2  3  1  0
  3  4  1  0
  4  5  2  0
  4  6  1  0
  6  7  2  0
  7  8  1  0
  8  9  1  0
  9 10  2  0
  9 11  1  0
 11 12  1  0
 12 13  2  0
 13 14  1  0
 14 15  2  0
 15 16  1  0
 16 17  2  0
 17 18  1  0
 18 19  1  0
 19 20  2  0
 20 21  1  0
  2 22  1  0
 22 23  2  0
 23 24  1  0
 24 25  2  0
 25 26  1  0
 26 27  2  0
 20  6  1  0
 27 22  1  0
 18  8  2  0
 16 11  1  0
  1 28  1  0
  1 29  1  0
  1 30  1  0
  2 31  1  6
  3 32  1  0
  7 33  1  0
 12 34  1  0
 13 35  1  0
 14 36  1  0
 15 37  1  0
 21 38  1  0
 21 39  1  0
 23 40  1  0
 24 41  1  0
 25 42  1  0
 26 43  1  0
 27 44  1  0
M  END
>  <UniqueID>  (71) 
34

>  <SMILES>  (71) 
C[C@H](NC(=O)c1cc2c(=O)n3ccccc3nc2nc1N)c1ccccc1

>  <Energy>  (71) 
61.31071048783789

>  <Genealogy>  (71) 
C[C@H](NC(=O)c1cc2c(=O)n3ccccc3nc2nc1N)c1ccccc1 (tautomer)
C[C@H](NC(=O)c1cc2c(=O)n3ccccc3nc2nc1N)c1ccccc1 (3D coordinates assigned)
C[C@H](NC(=O)c1cc2c(=O)n3ccccc3nc2nc1N)c1ccccc1 (optimized conformer: 61.31071048783789 kcal/mol)

>  <smiles>  (71) 
C[C@H](NC(=O)c1cc2c(=O)n3ccccc3nc2[nH]c1=N)c1ccccc1

>  <score_type>  (71) 
oracle

>  <origin>  (71) 
autodockgpu

>  <m_score__min__energy>  (71) 
-7.8399999999999999

>  <m_primary>  (71) 
energy

>  <meeko>  (71) 
{"free_energy": -7.28, "intermolecular_energy": -8.47, "internal_energy": -0.89, "cluster_size": 7, "cluster_id": 2, "rank_in_cluster": 2}

>  <energy>  (71) 
-7.01

>  <cluster_rmsd>  (71) 
1.53

>  <rmsd>  (71) 
270.67

>  <cluster>  (71) 
2

$$$$
OOSPKVZPLIIQRF-CYJIZFNKNA-N
     RDKit          3D

 44 47  0  0  0  0  0  0  0  0999 V2000
  138.8600   70.2190  222.8140 C   0  0  0  0  0  0  0  0  0  0  0  0
  138.1750   69.5170  223.9910 C   0  0  2  0  0  0  0  0  0  0  0  0
  137.1550   70.3950  224.5750 N   0  0  0  0  0  0  0  0  0  0  0  0
  135.7870   69.9850  224.7350 C   0  0  0  0  0  0  0  0  0  0  0  0
  135.4300   68.8290  224.3800 O   0  0  0  0  0  0  0  0  0  0  0  0
  134.8020   70.9020  225.3510 C   0  0  0  0  0  0  0  0  0  0  0  0
  135.0240   72.2860  225.2800 C   0  0  0  0  0  0  0  0  0  0  0  0
  134.1440   73.1810  225.9090 C   0  0  0  0  0  0  0  0  0  0  0  0
  134.3250   74.5750  225.8770 C   0  0  0  0  0  0  0  0  0  0  0  0
  135.3130   75.0610  225.2550 O   0  0  0  0  0  0  0  0  0  0  0  0
  133.4310   75.3990  226.5190 N   0  0  0  0  0  0  0  0  0  0  0  0
  133.5950   76.7630  226.4960 C   0  0  0  0  0  0  0  0  0  0  0  0
  132.6900   77.6040  227.1470 C   0  0  0  0  0  0  0  0  0  0  0  0
  131.6090   77.0530  227.8280 C   0  0  0  0  0  0  0  0  0  0  0  0
  131.4390   75.6720  227.8530 C   0  0  0  0  0  0  0  0  0  0  0  0
  132.3590   74.8500  227.1930 C   0  0  0  0  0  0  0  0  0  0  0  0
  132.1820   73.5050  227.2250 N   0  0  0  0  0  0  0  0  0  0  0  0
  133.0430   72.6650  226.6050 C   0  0  0  0  0  0  0  0  0  0  0  0
  132.8310   71.3250  226.6520 N   0  0  0  0  0  0  0  0  0  0  0  0
  133.6630   70.4330  226.0490 C   0  0  0  0  0  0  0  0  0  0  0  0
  133.3220   69.0430  226.0960 N   0  0  0  0  0  0  0  0  0  0  0  0
  139.1830   69.1000  225.0450 C   0  0  0  0  0  0  0  0  0  0  0  0
  139.2110   67.7720  225.5080 C   0  0  0  0  0  0  0  0  0  0  0  0
  140.1350   67.3790  226.4800 C   0  0  0  0  0  0  0  0  0  0  0  0
  141.0400   68.3070  227.0030 C   0  0  0  0  0  0  0  0  0  0  0  0
  141.0220   69.6290  226.5540 C   0  0  0  0  0  0  0  0  0  0  0  0
  140.0990   70.0270  225.5810 C   0  0  0  0  0  0  0  0  0  0  0  0
  139.5803   70.9572  223.1962 H   0  0  0  0  0  0  0  0  0  0  0  0
  139.3886   69.4746  222.2003 H   0  0  0  0  0  0  0  0  0  0  0  0
  138.1029   70.7291  222.2003 H   0  0  0  0  0  0  0  0  0  0  0  0
  137.6895   68.6054  223.6124 H   0  0  0  0  0  0  0  0  0  0  0  0
  137.3900   71.3990  224.7480 H   0  0  0  0  0  0  0  0  0  0  0  0
  135.8934   72.6721  224.7277 H   0  0  0  0  0  0  0  0  0  0  0  0
  134.4501   77.1981  225.9579 H   0  0  0  0  0  0  0  0  0  0  0  0
  132.8308   78.6947  227.1216 H   0  0  0  0  0  0  0  0  0  0  0  0
  130.8911   77.7068  228.3449 H   0  0  0  0  0  0  0  0  0  0  0  0
  130.5863   75.2292  228.3885 H   0  0  0  0  0  0  0  0  0  0  0  0
  133.9910   68.2940  225.8140 H   0  0  0  0  0  0  0  0  0  0  0  0
  132.3410   68.7590  226.3100 H   0  0  0  0  0  0  0  0  0  0  0  0
  138.5002   67.0373  225.1019 H   0  0  0  0  0  0  0  0  0  0  0  0
  140.1501   66.3376  226.8341 H   0  0  0  0  0  0  0  0  0  0  0  0
  141.7663   67.9959  227.7683 H   0  0  0  0  0  0  0  0  0  0  0  0
  141.7347   70.3586  226.9660 H   0  0  0  0  0  0  0  0  0  0  0  0
  140.0882   71.0702  225.2321 H   0  0  0  0  0  0  0  0  0  0  0  0
  1  2  1  0
  2  3  1  0
  3  4  1  0
  4  5  2  0
  4  6  1  0
  6  7  2  0
  7  8  1  0
  8  9  1  0
  9 10  2  0
  9 11  1  0
 11 12  1  0
 12 13  2  0
 13 14  1  0
 14 15  2  0
 15 16  1  0
 16 17  2  0
 17 18  1  0
 18 19  1  0
 19 20  2  0
 20 21  1  0
  2 22  1  0
 22 23  2  0
 23 24  1  0
 24 25  2  0
 25 26  1  0
 26 27  2  0
 20  6  1  0
 27 22  1  0
 18  8  2  0
 16 11  1  0
  1 28  1  0
  1 29  1  0
  1 30  1  0
  2 31  1  6
  3 32  1  0
  7 33  1  0
 12 34  1  0
 13 35  1  0
 14 36  1  0
 15 37  1  0
 21 38  1  0
 21 39  1  0
 23 40  1  0
 24 41  1  0
 25 42  1  0
 26 43  1  0
 27 44  1  0
M  END
>  <UniqueID>  (72) 
34

>  <SMILES>  (72) 
C[C@H](NC(=O)c1cc2c(=O)n3ccccc3nc2nc1N)c1ccccc1

>  <Energy>  (72) 
61.31071048783789

>  <Genealogy>  (72) 
C[C@H](NC(=O)c1cc2c(=O)n3ccccc3nc2nc1N)c1ccccc1 (tautomer)
C[C@H](NC(=O)c1cc2c(=O)n3ccccc3nc2nc1N)c1ccccc1 (3D coordinates assigned)
C[C@H](NC(=O)c1cc2c(=O)n3ccccc3nc2nc1N)c1ccccc1 (optimized conformer: 61.31071048783789 kcal/mol)

>  <smiles>  (72) 
C[C@H](NC(=O)c1cc2c(=O)n3ccccc3nc2[nH]c1=N)c1ccccc1

>  <score_type>  (72) 
oracle

>  <origin>  (72) 
autodockgpu

>  <m_score__min__energy>  (72) 
-7.8399999999999999

>  <m_primary>  (72) 
energy

>  <meeko>  (72) 
{"free_energy": -7.0, "intermolecular_energy": -8.19, "internal_energy": -0.89, "cluster_size": 6, "cluster_id": 3, "rank_in_cluster": 4}

>  <energy>  (72) 
-7.0

>  <cluster_rmsd>  (72) 
1.52

>  <rmsd>  (72) 
270.67

>  <cluster>  (72) 
2

$$$$
OOSPKVZPLIIQRF-CYJIZFNKNA-N
     RDKit          3D

 44 47  0  0  0  0  0  0  0  0999 V2000
  139.2400   76.6970  222.5610 C   0  0  0  0  0  0  0  0  0  0  0  0
  140.2930   77.3900  221.6890 C   0  0  2  0  0  0  0  0  0  0  0  0
  141.3650   76.4480  221.3500 N   0  0  0  0  0  0  0  0  0  0  0  0
  141.2320   75.4750  220.3010 C   0  0  0  0  0  0  0  0  0  0  0  0
  140.1700   75.4200  219.6240 O   0  0  0  0  0  0  0  0  0  0  0  0
  142.3530   74.5620  219.9850 C   0  0  0  0  0  0  0  0  0  0  0  0
  142.1370   73.1760  220.0370 C   0  0  0  0  0  0  0  0  0  0  0  0
  143.1930   72.2820  219.8060 C   0  0  0  0  0  0  0  0  0  0  0  0
  143.0330   70.8850  219.8540 C   0  0  0  0  0  0  0  0  0  0  0  0
  141.8950   70.3970  220.1070 O   0  0  0  0  0  0  0  0  0  0  0  0
  144.1100   70.0620  219.6260 N   0  0  0  0  0  0  0  0  0  0  0  0
  143.9680   68.6960  219.6690 C   0  0  0  0  0  0  0  0  0  0  0  0
  145.0590   67.8550  219.4390 C   0  0  0  0  0  0  0  0  0  0  0  0
  146.3060   68.4080  219.1620 C   0  0  0  0  0  0  0  0  0  0  0  0
  146.4530   69.7910  219.1170 C   0  0  0  0  0  0  0  0  0  0  0  0
  145.3450   70.6130  219.3510 C   0  0  0  0  0  0  0  0  0  0  0  0
  145.5030   71.9600  219.3040 N   0  0  0  0  0  0  0  0  0  0  0  0
  144.4640   72.8000  219.5250 C   0  0  0  0  0  0  0  0  0  0  0  0
  144.6570   74.1420  219.4620 N   0  0  0  0  0  0  0  0  0  0  0  0
  143.6510   75.0340  219.6760 C   0  0  0  0  0  0  0  0  0  0  0  0
  143.9340   76.4290  219.5240 N   0  0  0  0  0  0  0  0  0  0  0  0
  140.8620   78.6140  222.3810 C   0  0  0  0  0  0  0  0  0  0  0  0
  140.0330   79.4200  223.1820 C   0  0  0  0  0  0  0  0  0  0  0  0
  140.5480   80.5510  223.8220 C   0  0  0  0  0  0  0  0  0  0  0  0
  141.8950   80.8910  223.6690 C   0  0  0  0  0  0  0  0  0  0  0  0
  142.7280   80.1000  222.8740 C   0  0  0  0  0  0  0  0  0  0  0  0
  142.2170   78.9680  222.2330 C   0  0  0  0  0  0  0  0  0  0  0  0
  139.4810   76.8556  223.6225 H   0  0  0  0  0  0  0  0  0  0  0  0
  138.2479   77.1193  222.3431 H   0  0  0  0  0  0  0  0  0  0  0  0
  139.2354   75.6188  222.3431 H   0  0  0  0  0  0  0  0  0  0  0  0
  139.8041   77.7254  220.7625 H   0  0  0  0  0  0  0  0  0  0  0  0
  142.1960   76.3790  221.9810 H   0  0  0  0  0  0  0  0  0  0  0  0
  141.1322   72.7881  220.2605 H   0  0  0  0  0  0  0  0  0  0  0  0
  142.9823   68.2592  219.8874 H   0  0  0  0  0  0  0  0  0  0  0  0
  144.9337   66.7628  219.4765 H   0  0  0  0  0  0  0  0  0  0  0  0
  147.1717   67.7544  218.9794 H   0  0  0  0  0  0  0  0  0  0  0  0
  147.4351   70.2358  218.8986 H   0  0  0  0  0  0  0  0  0  0  0  0
  144.4350   76.8100  218.6920 H   0  0  0  0  0  0  0  0  0  0  0  0
  143.7400   77.0850  220.3130 H   0  0  0  0  0  0  0  0  0  0  0  0
  138.9717   79.1584  223.3057 H   0  0  0  0  0  0  0  0  0  0  0  0
  139.8920   81.1745  224.4472 H   0  0  0  0  0  0  0  0  0  0  0  0
  142.2989   81.7807  224.1742 H   0  0  0  0  0  0  0  0  0  0  0  0
  143.7878   80.3685  222.7523 H   0  0  0  0  0  0  0  0  0  0  0  0
  142.8780   78.3491  221.6084 H   0  0  0  0  0  0  0  0  0  0  0  0
  1  2  1  0
  2  3  1  0
  3  4  1  0
  4  5  2  0
  4  6  1  0
  6  7  2  0
  7  8  1  0
  8  9  1  0
  9 10  2  0
  9 11  1  0
 11 12  1  0
 12 13  2  0
 13 14  1  0
 14 15  2  0
 15 16  1  0
 16 17  2  0
 17 18  1  0
 18 19  1  0
 19 20  2  0
 20 21  1  0
  2 22  1  0
 22 23  2  0
 23 24  1  0
 24 25  2  0
 25 26  1  0
 26 27  2  0
 20  6  1  0
 27 22  1  0
 18  8  2  0
 16 11  1  0
  1 28  1  0
  1 29  1  0
  1 30  1  0
  2 31  1  6
  3 32  1  0
  7 33  1  0
 12 34  1  0
 13 35  1  0
 14 36  1  0
 15 37  1  0
 21 38  1  0
 21 39  1  0
 23 40  1  0
 24 41  1  0
 25 42  1  0
 26 43  1  0
 27 44  1  0
M  END
>  <UniqueID>  (73) 
34

>  <SMILES>  (73) 
C[C@H](NC(=O)c1cc2c(=O)n3ccccc3nc2nc1N)c1ccccc1

>  <Energy>  (73) 
61.31071048783789

>  <Genealogy>  (73) 
C[C@H](NC(=O)c1cc2c(=O)n3ccccc3nc2nc1N)c1ccccc1 (tautomer)
C[C@H](NC(=O)c1cc2c(=O)n3ccccc3nc2nc1N)c1ccccc1 (3D coordinates assigned)
C[C@H](NC(=O)c1cc2c(=O)n3ccccc3nc2nc1N)c1ccccc1 (optimized conformer: 61.31071048783789 kcal/mol)

>  <smiles>  (73) 
C[C@H](NC(=O)c1cc2c(=O)n3ccccc3nc2[nH]c1=N)c1ccccc1

>  <score_type>  (73) 
oracle

>  <origin>  (73) 
autodockgpu

>  <m_score__min__energy>  (73) 
-7.8399999999999999

>  <m_primary>  (73) 
energy

>  <meeko>  (73) 
{"free_energy": -7.7, "intermolecular_energy": -8.89, "internal_energy": -0.32, "cluster_size": 7, "cluster_id": 1, "rank_in_cluster": 5}

>  <energy>  (73) 
-6.99

>  <cluster_rmsd>  (73) 
1.52

>  <rmsd>  (73) 
270.68

>  <cluster>  (73) 
2

$$$$
OOSPKVZPLIIQRF-CYJIZFNKNA-N
     RDKit          3D

 44 47  0  0  0  0  0  0  0  0999 V2000
  139.4020   77.0790  222.0010 C   0  0  0  0  0  0  0  0  0  0  0  0
  139.7500   75.8220  221.1980 C   0  0  2  0  0  0  0  0  0  0  0  0
  139.6730   74.6370  222.0590 N   0  0  0  0  0  0  0  0  0  0  0  0
  139.5840   73.3050  221.5280 C   0  0  0  0  0  0  0  0  0  0  0  0
  139.5850   73.1220  220.2810 O   0  0  0  0  0  0  0  0  0  0  0  0
  139.5290   72.1410  222.4420 C   0  0  0  0  0  0  0  0  0  0  0  0
  140.1160   72.2460  223.7120 C   0  0  0  0  0  0  0  0  0  0  0  0
  140.1390   71.1420  224.5790 C   0  0  0  0  0  0  0  0  0  0  0  0
  140.7220   71.1900  225.8580 C   0  0  0  0  0  0  0  0  0  0  0  0
  141.2460   72.2670  226.2640 O   0  0  0  0  0  0  0  0  0  0  0  0
  140.7180   70.0710  226.6570 N   0  0  0  0  0  0  0  0  0  0  0  0
  141.2830   70.1040  227.9090 C   0  0  0  0  0  0  0  0  0  0  0  0
  141.2830   68.9700  228.7240 C   0  0  0  0  0  0  0  0  0  0  0  0
  140.7030   67.7930  228.2630 C   0  0  0  0  0  0  0  0  0  0  0  0
  140.1290   67.7560  226.9950 C   0  0  0  0  0  0  0  0  0  0  0  0
  140.1420   68.9050  226.1970 C   0  0  0  0  0  0  0  0  0  0  0  0
  139.5790   68.8550  224.9630 N   0  0  0  0  0  0  0  0  0  0  0  0
  139.5660   69.9380  224.1500 C   0  0  0  0  0  0  0  0  0  0  0  0
  138.9870   69.8550  222.9250 N   0  0  0  0  0  0  0  0  0  0  0  0
  138.9450   70.9090  222.0650 C   0  0  0  0  0  0  0  0  0  0  0  0
  138.2550   70.7460  220.8210 N   0  0  0  0  0  0  0  0  0  0  0  0
  141.1280   75.9330  220.5710 C   0  0  0  0  0  0  0  0  0  0  0  0
  141.4570   77.0530  219.7870 C   0  0  0  0  0  0  0  0  0  0  0  0
  142.7240   77.1620  219.2040 C   0  0  0  0  0  0  0  0  0  0  0  0
  143.6730   76.1560  219.3970 C   0  0  0  0  0  0  0  0  0  0  0  0
  143.3580   75.0370  220.1720 C   0  0  0  0  0  0  0  0  0  0  0  0
  142.0930   74.9240  220.7560 C   0  0  0  0  0  0  0  0  0  0  0  0
  139.4638   76.8559  223.0764 H   0  0  0  0  0  0  0  0  0  0  0  0
  140.1117   77.8816  221.7517 H   0  0  0  0  0  0  0  0  0  0  0  0
  138.3806   77.4023  221.7517 H   0  0  0  0  0  0  0  0  0  0  0  0
  139.0174   75.7218  220.3836 H   0  0  0  0  0  0  0  0  0  0  0  0
  139.5300   74.7670  223.0870 H   0  0  0  0  0  0  0  0  0  0  0  0
  140.5613   73.2000  224.0307 H   0  0  0  0  0  0  0  0  0  0  0  0
  141.7410   71.0352  228.2739 H   0  0  0  0  0  0  0  0  0  0  0  0
  141.7389   69.0075  229.7244 H   0  0  0  0  0  0  0  0  0  0  0  0
  140.6978   66.8946  228.8978 H   0  0  0  0  0  0  0  0  0  0  0  0
  139.6681   66.8291  226.6230 H   0  0  0  0  0  0  0  0  0  0  0  0
  137.5000   70.0390  220.6890 H   0  0  0  0  0  0  0  0  0  0  0  0
  138.5820   71.2660  219.9770 H   0  0  0  0  0  0  0  0  0  0  0  0
  140.7134   77.8485  219.6311 H   0  0  0  0  0  0  0  0  0  0  0  0
  142.9731   78.0417  218.5924 H   0  0  0  0  0  0  0  0  0  0  0  0
  144.6690   76.2446  218.9387 H   0  0  0  0  0  0  0  0  0  0  0  0
  144.1058   74.2445  220.3227 H   0  0  0  0  0  0  0  0  0  0  0  0
  141.8495   74.0406  221.3645 H   0  0  0  0  0  0  0  0  0  0  0  0
  1  2  1  0
  2  3  1  0
  3  4  1  0
  4  5  2  0
  4  6  1  0
  6  7  2  0
  7  8  1  0
  8  9  1  0
  9 10  2  0
  9 11  1  0
 11 12  1  0
 12 13  2  0
 13 14  1  0
 14 15  2  0
 15 16  1  0
 16 17  2  0
 17 18  1  0
 18 19  1  0
 19 20  2  0
 20 21  1  0
  2 22  1  0
 22 23  2  0
 23 24  1  0
 24 25  2  0
 25 26  1  0
 26 27  2  0
 20  6  1  0
 27 22  1  0
 18  8  2  0
 16 11  1  0
  1 28  1  0
  1 29  1  0
  1 30  1  0
  2 31  1  6
  3 32  1  0
  7 33  1  0
 12 34  1  0
 13 35  1  0
 14 36  1  0
 15 37  1  0
 21 38  1  0
 21 39  1  0
 23 40  1  0
 24 41  1  0
 25 42  1  0
 26 43  1  0
 27 44  1  0
M  END
>  <UniqueID>  (74) 
34

>  <SMILES>  (74) 
C[C@H](NC(=O)c1cc2c(=O)n3ccccc3nc2nc1N)c1ccccc1

>  <Energy>  (74) 
61.31071048783789

>  <Genealogy>  (74) 
C[C@H](NC(=O)c1cc2c(=O)n3ccccc3nc2nc1N)c1ccccc1 (tautomer)
C[C@H](NC(=O)c1cc2c(=O)n3ccccc3nc2nc1N)c1ccccc1 (3D coordinates assigned)
C[C@H](NC(=O)c1cc2c(=O)n3ccccc3nc2nc1N)c1ccccc1 (optimized conformer: 61.31071048783789 kcal/mol)

>  <smiles>  (74) 
C[C@H](NC(=O)c1cc2c(=O)n3ccccc3nc2[nH]c1=N)c1ccccc1

>  <score_type>  (74) 
oracle

>  <origin>  (74) 
autodockgpu

>  <m_score__min__energy>  (74) 
-7.8399999999999999

>  <m_primary>  (74) 
energy

>  <meeko>  (74) 
{"free_energy": -7.0, "intermolecular_energy": -8.2, "internal_energy": -0.91, "cluster_size": 7, "cluster_id": 2, "rank_in_cluster": 5}

>  <energy>  (74) 
-6.99

>  <cluster_rmsd>  (74) 
1.53

>  <rmsd>  (74) 
270.67

>  <cluster>  (74) 
2

$$$$
OOSPKVZPLIIQRF-CYJIZFNKNA-N
     RDKit          3D

 44 47  0  0  0  0  0  0  0  0999 V2000
  138.8740   70.2290  222.8090 C   0  0  0  0  0  0  0  0  0  0  0  0
  138.1940   69.5250  223.9880 C   0  0  2  0  0  0  0  0  0  0  0  0
  137.1730   70.4000  224.5750 N   0  0  0  0  0  0  0  0  0  0  0  0
  135.8040   69.9900  224.7280 C   0  0  0  0  0  0  0  0  0  0  0  0
  135.4480   68.8360  224.3660 O   0  0  0  0  0  0  0  0  0  0  0  0
  134.8180   70.9030  225.3470 C   0  0  0  0  0  0  0  0  0  0  0  0
  135.0390   72.2880  225.2820 C   0  0  0  0  0  0  0  0  0  0  0  0
  134.1580   73.1800  225.9130 C   0  0  0  0  0  0  0  0  0  0  0  0
  134.3370   74.5740  225.8850 C   0  0  0  0  0  0  0  0  0  0  0  0
  135.3250   75.0630  225.2660 O   0  0  0  0  0  0  0  0  0  0  0  0
  133.4420   75.3950  226.5300 N   0  0  0  0  0  0  0  0  0  0  0  0
  133.6050   76.7590  226.5120 C   0  0  0  0  0  0  0  0  0  0  0  0
  132.6990   77.5970  227.1650 C   0  0  0  0  0  0  0  0  0  0  0  0
  131.6180   77.0430  227.8440 C   0  0  0  0  0  0  0  0  0  0  0  0
  131.4490   75.6610  227.8640 C   0  0  0  0  0  0  0  0  0  0  0  0
  132.3700   74.8430  227.2020 C   0  0  0  0  0  0  0  0  0  0  0  0
  132.1940   73.4970  227.2300 N   0  0  0  0  0  0  0  0  0  0  0  0
  133.0570   72.6610  226.6070 C   0  0  0  0  0  0  0  0  0  0  0  0
  132.8460   71.3200  226.6490 N   0  0  0  0  0  0  0  0  0  0  0  0
  133.6790   70.4310  226.0430 C   0  0  0  0  0  0  0  0  0  0  0  0
  133.3400   69.0410  226.0850 N   0  0  0  0  0  0  0  0  0  0  0  0
  139.2060   69.1110  225.0400 C   0  0  0  0  0  0  0  0  0  0  0  0
  139.2360   67.7830  225.5040 C   0  0  0  0  0  0  0  0  0  0  0  0
  140.1640   67.3930  226.4750 C   0  0  0  0  0  0  0  0  0  0  0  0
  141.0690   68.3230  226.9930 C   0  0  0  0  0  0  0  0  0  0  0  0
  141.0480   69.6440  226.5420 C   0  0  0  0  0  0  0  0  0  0  0  0
  140.1230   70.0390  225.5710 C   0  0  0  0  0  0  0  0  0  0  0  0
  139.5911   70.9714  223.1893 H   0  0  0  0  0  0  0  0  0  0  0  0
  139.4055   69.4865  222.1957 H   0  0  0  0  0  0  0  0  0  0  0  0
  138.1135   70.7345  222.1957 H   0  0  0  0  0  0  0  0  0  0  0  0
  137.7103   68.6121  223.6103 H   0  0  0  0  0  0  0  0  0  0  0  0
  137.4080   71.4020  224.7540 H   0  0  0  0  0  0  0  0  0  0  0  0
  135.9090   72.6769  224.7325 H   0  0  0  0  0  0  0  0  0  0  0  0
  134.4603   77.1966  225.9762 H   0  0  0  0  0  0  0  0  0  0  0  0
  132.8388   78.6879  227.1429 H   0  0  0  0  0  0  0  0  0  0  0  0
  130.8996   77.6945  228.3631 H   0  0  0  0  0  0  0  0  0  0  0  0
  130.5963   75.2154  228.3973 H   0  0  0  0  0  0  0  0  0  0  0  0
  134.0300   68.2900  225.8660 H   0  0  0  0  0  0  0  0  0  0  0  0
  132.3460   68.7560  226.2300 H   0  0  0  0  0  0  0  0  0  0  0  0
  138.5251   67.0469  225.1005 H   0  0  0  0  0  0  0  0  0  0  0  0
  140.1814   66.3525  226.8314 H   0  0  0  0  0  0  0  0  0  0  0  0
  141.7983   68.0142  227.7564 H   0  0  0  0  0  0  0  0  0  0  0  0
  141.7605   70.3753  226.9513 H   0  0  0  0  0  0  0  0  0  0  0  0
  140.1112   71.0812  225.2194 H   0  0  0  0  0  0  0  0  0  0  0  0
  1  2  1  0
  2  3  1  0
  3  4  1  0
  4  5  2  0
  4  6  1  0
  6  7  2  0
  7  8  1  0
  8  9  1  0
  9 10  2  0
  9 11  1  0
 11 12  1  0
 12 13  2  0
 13 14  1  0
 14 15  2  0
 15 16  1  0
 16 17  2  0
 17 18  1  0
 18 19  1  0
 19 20  2  0
 20 21  1  0
  2 22  1  0
 22 23  2  0
 23 24  1  0
 24 25  2  0
 25 26  1  0
 26 27  2  0
 20  6  1  0
 27 22  1  0
 18  8  2  0
 16 11  1  0
  1 28  1  0
  1 29  1  0
  1 30  1  0
  2 31  1  6
  3 32  1  0
  7 33  1  0
 12 34  1  0
 13 35  1  0
 14 36  1  0
 15 37  1  0
 21 38  1  0
 21 39  1  0
 23 40  1  0
 24 41  1  0
 25 42  1  0
 26 43  1  0
 27 44  1  0
M  END
>  <UniqueID>  (75) 
34

>  <SMILES>  (75) 
C[C@H](NC(=O)c1cc2c(=O)n3ccccc3nc2nc1N)c1ccccc1

>  <Energy>  (75) 
61.31071048783789

>  <Genealogy>  (75) 
C[C@H](NC(=O)c1cc2c(=O)n3ccccc3nc2nc1N)c1ccccc1 (tautomer)
C[C@H](NC(=O)c1cc2c(=O)n3ccccc3nc2nc1N)c1ccccc1 (3D coordinates assigned)
C[C@H](NC(=O)c1cc2c(=O)n3ccccc3nc2nc1N)c1ccccc1 (optimized conformer: 61.31071048783789 kcal/mol)

>  <smiles>  (75) 
C[C@H](NC(=O)c1cc2c(=O)n3ccccc3nc2[nH]c1=N)c1ccccc1

>  <score_type>  (75) 
oracle

>  <origin>  (75) 
autodockgpu

>  <m_score__min__energy>  (75) 
-7.8399999999999999

>  <m_primary>  (75) 
energy

>  <meeko>  (75) 
{"free_energy": -7.01, "intermolecular_energy": -8.2, "internal_energy": -0.89, "cluster_size": 6, "cluster_id": 3, "rank_in_cluster": 2}

>  <energy>  (75) 
-7.01

>  <cluster_rmsd>  (75) 
0.0

>  <rmsd>  (75) 
270.18

>  <cluster>  (75) 
3

$$$$
OOSPKVZPLIIQRF-CYJIZFNKNA-N
     RDKit          3D

 44 47  0  0  0  0  0  0  0  0999 V2000
  139.4190   77.2270  222.6490 C   0  0  0  0  0  0  0  0  0  0  0  0
  140.3990   77.9360  221.7090 C   0  0  2  0  0  0  0  0  0  0  0  0
  141.4520   77.0070  221.2850 N   0  0  0  0  0  0  0  0  0  0  0  0
  141.1590   75.7070  220.7460 C   0  0  0  0  0  0  0  0  0  0  0  0
  139.9620   75.3360  220.6100 O   0  0  0  0  0  0  0  0  0  0  0  0
  142.2590   74.8160  220.3120 C   0  0  0  0  0  0  0  0  0  0  0  0
  142.0680   73.4260  220.3630 C   0  0  0  0  0  0  0  0  0  0  0  0
  143.1110   72.5520  220.0210 C   0  0  0  0  0  0  0  0  0  0  0  0
  142.9760   71.1530  220.0630 C   0  0  0  0  0  0  0  0  0  0  0  0
  141.8740   70.6430  220.4150 O   0  0  0  0  0  0  0  0  0  0  0  0
  144.0390   70.3490  219.7220 N   0  0  0  0  0  0  0  0  0  0  0  0
  143.9210   68.9810  219.7590 C   0  0  0  0  0  0  0  0  0  0  0  0
  144.9970   68.1610  219.4140 C   0  0  0  0  0  0  0  0  0  0  0  0
  146.2040   68.7360  219.0290 C   0  0  0  0  0  0  0  0  0  0  0  0
  146.3270   70.1220  218.9910 C   0  0  0  0  0  0  0  0  0  0  0  0
  145.2340   70.9230  219.3400 C   0  0  0  0  0  0  0  0  0  0  0  0
  145.3670   72.2730  219.2990 N   0  0  0  0  0  0  0  0  0  0  0  0
  144.3420   73.0930  219.6290 C   0  0  0  0  0  0  0  0  0  0  0  0
  144.5090   74.4390  219.5680 N   0  0  0  0  0  0  0  0  0  0  0  0
  143.5150   75.3120  219.8890 C   0  0  0  0  0  0  0  0  0  0  0  0
  143.7620   76.7140  219.7320 N   0  0  0  0  0  0  0  0  0  0  0  0
  141.0070   79.1600  222.3690 C   0  0  0  0  0  0  0  0  0  0  0  0
  142.0820   79.0170  223.2650 C   0  0  0  0  0  0  0  0  0  0  0  0
  142.6470   80.1390  223.8780 C   0  0  0  0  0  0  0  0  0  0  0  0
  142.1470   81.4140  223.6050 C   0  0  0  0  0  0  0  0  0  0  0  0
  141.0790   81.5700  222.7190 C   0  0  0  0  0  0  0  0  0  0  0  0
  140.5100   80.4510  222.1030 C   0  0  0  0  0  0  0  0  0  0  0  0
  139.7000   77.4303  223.6929 H   0  0  0  0  0  0  0  0  0  0  0  0
  138.4002   77.5985  222.4646 H   0  0  0  0  0  0  0  0  0  0  0  0
  139.4531   76.1431  222.4646 H   0  0  0  0  0  0  0  0  0  0  0  0
  139.8407   78.2738  220.8234 H   0  0  0  0  0  0  0  0  0  0  0  0
  142.4470   77.2310  221.5130 H   0  0  0  0  0  0  0  0  0  0  0  0
  141.0941   73.0194  220.6732 H   0  0  0  0  0  0  0  0  0  0  0  0
  142.9671   68.5260  220.0642 H   0  0  0  0  0  0  0  0  0  0  0  0
  144.8911   67.0666  219.4464 H   0  0  0  0  0  0  0  0  0  0  0  0
  147.0574   68.0980  218.7558 H   0  0  0  0  0  0  0  0  0  0  0  0
  147.2779   70.5849  218.6884 H   0  0  0  0  0  0  0  0  0  0  0  0
  143.1560   77.3250  219.1420 H   0  0  0  0  0  0  0  0  0  0  0  0
  144.6360   77.1310  220.1220 H   0  0  0  0  0  0  0  0  0  0  0  0
  142.4806   78.0156  223.4847 H   0  0  0  0  0  0  0  0  0  0  0  0
  143.4875   80.0173  224.5771 H   0  0  0  0  0  0  0  0  0  0  0  0
  142.5944   82.2953  224.0878 H   0  0  0  0  0  0  0  0  0  0  0  0
  140.6848   82.5745  222.5054 H   0  0  0  0  0  0  0  0  0  0  0  0
  139.6687   80.5797  221.4061 H   0  0  0  0  0  0  0  0  0  0  0  0
  1  2  1  0
  2  3  1  0
  3  4  1  0
  4  5  2  0
  4  6  1  0
  6  7  2  0
  7  8  1  0
  8  9  1  0
  9 10  2  0
  9 11  1  0
 11 12  1  0
 12 13  2  0
 13 14  1  0
 14 15  2  0
 15 16  1  0
 16 17  2  0
 17 18  1  0
 18 19  1  0
 19 20  2  0
 20 21  1  0
  2 22  1  0
 22 23  2  0
 23 24  1  0
 24 25  2  0
 25 26  1  0
 26 27  2  0
 20  6  1  0
 27 22  1  0
 18  8  2  0
 16 11  1  0
  1 28  1  0
  1 29  1  0
  1 30  1  0
  2 31  1  6
  3 32  1  0
  7 33  1  0
 12 34  1  0
 13 35  1  0
 14 36  1  0
 15 37  1  0
 21 38  1  0
 21 39  1  0
 23 40  1  0
 24 41  1  0
 25 42  1  0
 26 43  1  0
 27 44  1  0
M  END
>  <UniqueID>  (76) 
34

>  <SMILES>  (76) 
C[C@H](NC(=O)c1cc2c(=O)n3ccccc3nc2nc1N)c1ccccc1

>  <Energy>  (76) 
61.31071048783789

>  <Genealogy>  (76) 
C[C@H](NC(=O)c1cc2c(=O)n3ccccc3nc2nc1N)c1ccccc1 (tautomer)
C[C@H](NC(=O)c1cc2c(=O)n3ccccc3nc2nc1N)c1ccccc1 (3D coordinates assigned)
C[C@H](NC(=O)c1cc2c(=O)n3ccccc3nc2nc1N)c1ccccc1 (optimized conformer: 61.31071048783789 kcal/mol)

>  <smiles>  (76) 
C[C@H](NC(=O)c1cc2c(=O)n3ccccc3nc2[nH]c1=N)c1ccccc1

>  <score_type>  (76) 
oracle

>  <origin>  (76) 
autodockgpu

>  <m_score__min__energy>  (76) 
-7.8399999999999999

>  <m_primary>  (76) 
energy

>  <meeko>  (76) 
{"free_energy": -7.69, "intermolecular_energy": -8.88, "internal_energy": -0.21, "cluster_size": 7, "cluster_id": 1, "rank_in_cluster": 7}

>  <energy>  (76) 
-7.01

>  <cluster_rmsd>  (76) 
0.46

>  <rmsd>  (76) 
270.32

>  <cluster>  (76) 
3

$$$$
OOSPKVZPLIIQRF-CYJIZFNKNA-N
     RDKit          3D

 44 47  0  0  0  0  0  0  0  0999 V2000
  137.9450   75.8880  220.5980 C   0  0  0  0  0  0  0  0  0  0  0  0
  139.3300   75.7190  221.2290 C   0  0  2  0  0  0  0  0  0  0  0  0
  139.3540   74.5250  222.0800 N   0  0  0  0  0  0  0  0  0  0  0  0
  139.4870   73.1990  221.5420 C   0  0  0  0  0  0  0  0  0  0  0  0
  139.6040   73.0330  220.2970 O   0  0  0  0  0  0  0  0  0  0  0  0
  139.5270   72.0280  222.4460 C   0  0  0  0  0  0  0  0  0  0  0  0
  140.0780   72.1780  223.7290 C   0  0  0  0  0  0  0  0  0  0  0  0
  140.1890   71.0740  224.5880 C   0  0  0  0  0  0  0  0  0  0  0  0
  140.7410   71.1670  225.8790 C   0  0  0  0  0  0  0  0  0  0  0  0
  141.1520   72.2850  226.3020 O   0  0  0  0  0  0  0  0  0  0  0  0
  140.8290   70.0460  226.6710 N   0  0  0  0  0  0  0  0  0  0  0  0
  141.3650   70.1220  227.9330 C   0  0  0  0  0  0  0  0  0  0  0  0
  141.4580   68.9870  228.7410 C   0  0  0  0  0  0  0  0  0  0  0  0
  141.0020   67.7630  228.2610 C   0  0  0  0  0  0  0  0  0  0  0  0
  140.4580   67.6830  226.9820 C   0  0  0  0  0  0  0  0  0  0  0  0
  140.3750   68.8340  226.1920 C   0  0  0  0  0  0  0  0  0  0  0  0
  139.8430   68.7410  224.9470 N   0  0  0  0  0  0  0  0  0  0  0  0
  139.7410   69.8240  224.1410 C   0  0  0  0  0  0  0  0  0  0  0  0
  139.1960   69.6960  222.9040 N   0  0  0  0  0  0  0  0  0  0  0  0
  139.0700   70.7490  222.0500 C   0  0  0  0  0  0  0  0  0  0  0  0
  138.4220   70.5310  220.7920 N   0  0  0  0  0  0  0  0  0  0  0  0
  139.7240   76.9470  222.0290 C   0  0  0  0  0  0  0  0  0  0  0  0
  138.7510   77.8980  222.3870 C   0  0  0  0  0  0  0  0  0  0  0  0
  139.1050   79.0330  223.1220 C   0  0  0  0  0  0  0  0  0  0  0  0
  140.4330   79.2320  223.5070 C   0  0  0  0  0  0  0  0  0  0  0  0
  141.4100   78.2970  223.1570 C   0  0  0  0  0  0  0  0  0  0  0  0
  141.0600   77.1600  222.4220 C   0  0  0  0  0  0  0  0  0  0  0  0
  137.1892   75.9802  221.3919 H   0  0  0  0  0  0  0  0  0  0  0  0
  137.9343   76.7941  219.9744 H   0  0  0  0  0  0  0  0  0  0  0  0
  137.7167   75.0111  219.9744 H   0  0  0  0  0  0  0  0  0  0  0  0
  140.0629   75.5962  220.4180 H   0  0  0  0  0  0  0  0  0  0  0  0
  139.1200   74.6220  223.0950 H   0  0  0  0  0  0  0  0  0  0  0  0
  140.4248   73.1672  224.0627 H   0  0  0  0  0  0  0  0  0  0  0  0
  141.7258   71.0895  228.3123 H   0  0  0  0  0  0  0  0  0  0  0  0
  141.8889   69.0599  229.7504 H   0  0  0  0  0  0  0  0  0  0  0  0
  141.0711   66.8627  228.8893 H   0  0  0  0  0  0  0  0  0  0  0  0
  140.0953   66.7194  226.5948 H   0  0  0  0  0  0  0  0  0  0  0  0
  138.5410   71.1790  219.9840 H   0  0  0  0  0  0  0  0  0  0  0  0
  137.7180   69.7660  220.6990 H   0  0  0  0  0  0  0  0  0  0  0  0
  137.7037   77.7472  222.0862 H   0  0  0  0  0  0  0  0  0  0  0  0
  138.3368   79.7705  223.3976 H   0  0  0  0  0  0  0  0  0  0  0  0
  140.7095   80.1254  224.0861 H   0  0  0  0  0  0  0  0  0  0  0  0
  142.4556   78.4552  223.4598 H   0  0  0  0  0  0  0  0  0  0  0  0
  141.8332   76.4269  222.1488 H   0  0  0  0  0  0  0  0  0  0  0  0
  1  2  1  0
  2  3  1  0
  3  4  1  0
  4  5  2  0
  4  6  1  0
  6  7  2  0
  7  8  1  0
  8  9  1  0
  9 10  2  0
  9 11  1  0
 11 12  1  0
 12 13  2  0
 13 14  1  0
 14 15  2  0
 15 16  1  0
 16 17  2  0
 17 18  1  0
 18 19  1  0
 19 20  2  0
 20 21  1  0
  2 22  1  0
 22 23  2  0
 23 24  1  0
 24 25  2  0
 25 26  1  0
 26 27  2  0
 20  6  1  0
 27 22  1  0
 18  8  2  0
 16 11  1  0
  1 28  1  0
  1 29  1  0
  1 30  1  0
  2 31  1  6
  3 32  1  0
  7 33  1  0
 12 34  1  0
 13 35  1  0
 14 36  1  0
 15 37  1  0
 21 38  1  0
 21 39  1  0
 23 40  1  0
 24 41  1  0
 25 42  1  0
 26 43  1  0
 27 44  1  0
M  END
>  <UniqueID>  (77) 
34

>  <SMILES>  (77) 
C[C@H](NC(=O)c1cc2c(=O)n3ccccc3nc2nc1N)c1ccccc1

>  <Energy>  (77) 
61.31071048783789

>  <Genealogy>  (77) 
C[C@H](NC(=O)c1cc2c(=O)n3ccccc3nc2nc1N)c1ccccc1 (tautomer)
C[C@H](NC(=O)c1cc2c(=O)n3ccccc3nc2nc1N)c1ccccc1 (3D coordinates assigned)
C[C@H](NC(=O)c1cc2c(=O)n3ccccc3nc2nc1N)c1ccccc1 (optimized conformer: 61.31071048783789 kcal/mol)

>  <smiles>  (77) 
C[C@H](NC(=O)c1cc2c(=O)n3ccccc3nc2[nH]c1=N)c1ccccc1

>  <score_type>  (77) 
oracle

>  <origin>  (77) 
autodockgpu

>  <m_score__min__energy>  (77) 
-7.8399999999999999

>  <m_primary>  (77) 
energy

>  <meeko>  (77) 
{"free_energy": -7.28, "intermolecular_energy": -8.48, "internal_energy": -0.88, "cluster_size": 7, "cluster_id": 2, "rank_in_cluster": 1}

>  <energy>  (77) 
-7.01

>  <cluster_rmsd>  (77) 
0.08

>  <rmsd>  (77) 
270.2

>  <cluster>  (77) 
3

$$$$
OOSPKVZPLIIQRF-CYJIZFNKNA-N
     RDKit          3D

 44 47  0  0  0  0  0  0  0  0999 V2000
  137.9710   76.0200  220.4630 C   0  0  0  0  0  0  0  0  0  0  0  0
  139.3280   75.8030  221.1400 C   0  0  2  0  0  0  0  0  0  0  0  0
  139.2830   74.6050  221.9860 N   0  0  0  0  0  0  0  0  0  0  0  0
  139.5810   73.2940  221.4790 C   0  0  0  0  0  0  0  0  0  0  0  0
  139.9080   73.1440  220.2710 O   0  0  0  0  0  0  0  0  0  0  0  0
  139.5420   72.1200  222.3800 C   0  0  0  0  0  0  0  0  0  0  0  0
  140.0680   72.2400  223.6770 C   0  0  0  0  0  0  0  0  0  0  0  0
  140.1060   71.1300  224.5350 C   0  0  0  0  0  0  0  0  0  0  0  0
  140.6300   71.1940  225.8380 C   0  0  0  0  0  0  0  0  0  0  0  0
  141.0840   72.2900  226.2750 O   0  0  0  0  0  0  0  0  0  0  0  0
  140.6440   70.0680  226.6280 N   0  0  0  0  0  0  0  0  0  0  0  0
  141.1530   70.1150  227.9040 C   0  0  0  0  0  0  0  0  0  0  0  0
  141.1710   68.9750  228.7090 C   0  0  0  0  0  0  0  0  0  0  0  0
  140.6680   67.7760  228.2140 C   0  0  0  0  0  0  0  0  0  0  0  0
  140.1520   67.7250  226.9230 C   0  0  0  0  0  0  0  0  0  0  0  0
  140.1440   68.8810  226.1350 C   0  0  0  0  0  0  0  0  0  0  0  0
  139.6380   68.8160  224.8770 N   0  0  0  0  0  0  0  0  0  0  0  0
  139.6090   69.9050  224.0720 C   0  0  0  0  0  0  0  0  0  0  0  0
  139.0880   69.8060  222.8220 N   0  0  0  0  0  0  0  0  0  0  0  0
  139.0330   70.8650  221.9690 C   0  0  0  0  0  0  0  0  0  0  0  0
  138.4070   70.6820  220.6950 N   0  0  0  0  0  0  0  0  0  0  0  0
  139.7350   77.0140  221.9590 C   0  0  0  0  0  0  0  0  0  0  0  0
  141.0760   77.4420  221.9650 C   0  0  0  0  0  0  0  0  0  0  0  0
  141.4600   78.5560  222.7170 C   0  0  0  0  0  0  0  0  0  0  0  0
  140.5130   79.2540  223.4710 C   0  0  0  0  0  0  0  0  0  0  0  0
  139.1800   78.8380  223.4750 C   0  0  0  0  0  0  0  0  0  0  0  0
  138.7900   77.7250  222.7250 C   0  0  0  0  0  0  0  0  0  0  0  0
  137.1936   76.1443  221.2313 H   0  0  0  0  0  0  0  0  0  0  0  0
  138.0143   76.9226  219.8358 H   0  0  0  0  0  0  0  0  0  0  0  0
  137.7307   75.1489  219.8358 H   0  0  0  0  0  0  0  0  0  0  0  0
  140.0838   75.6594  220.3538 H   0  0  0  0  0  0  0  0  0  0  0  0
  138.8830   74.6800  222.9490 H   0  0  0  0  0  0  0  0  0  0  0  0
  140.4528   73.2108  224.0226 H   0  0  0  0  0  0  0  0  0  0  0  0
  141.5510   71.0628  228.2955 H   0  0  0  0  0  0  0  0  0  0  0  0
  141.5805   69.0242  229.7288 H   0  0  0  0  0  0  0  0  0  0  0  0
  140.6782   66.8721  228.8408 H   0  0  0  0  0  0  0  0  0  0  0  0
  139.7525   66.7810  226.5240 H   0  0  0  0  0  0  0  0  0  0  0  0
  137.8520   69.8300  220.4630 H   0  0  0  0  0  0  0  0  0  0  0  0
  138.5940   71.3610  219.9250 H   0  0  0  0  0  0  0  0  0  0  0  0
  141.8265   76.8964  221.3742 H   0  0  0  0  0  0  0  0  0  0  0  0
  142.5100   78.8839  222.7152 H   0  0  0  0  0  0  0  0  0  0  0  0
  140.8175   80.1309  224.0612 H   0  0  0  0  0  0  0  0  0  0  0  0
  138.4353   79.3874  224.0697 H   0  0  0  0  0  0  0  0  0  0  0  0
  137.7385   77.4020  222.7328 H   0  0  0  0  0  0  0  0  0  0  0  0
  1  2  1  0
  2  3  1  0
  3  4  1  0
  4  5  2  0
  4  6  1  0
  6  7  2  0
  7  8  1  0
  8  9  1  0
  9 10  2  0
  9 11  1  0
 11 12  1  0
 12 13  2  0
 13 14  1  0
 14 15  2  0
 15 16  1  0
 16 17  2  0
 17 18  1  0
 18 19  1  0
 19 20  2  0
 20 21  1  0
  2 22  1  0
 22 23  2  0
 23 24  1  0
 24 25  2  0
 25 26  1  0
 26 27  2  0
 20  6  1  0
 27 22  1  0
 18  8  2  0
 16 11  1  0
  1 28  1  0
  1 29  1  0
  1 30  1  0
  2 31  1  6
  3 32  1  0
  7 33  1  0
 12 34  1  0
 13 35  1  0
 14 36  1  0
 15 37  1  0
 21 38  1  0
 21 39  1  0
 23 40  1  0
 24 41  1  0
 25 42  1  0
 26 43  1  0
 27 44  1  0
M  END
>  <UniqueID>  (78) 
34

>  <SMILES>  (78) 
C[C@H](NC(=O)c1cc2c(=O)n3ccccc3nc2nc1N)c1ccccc1

>  <Energy>  (78) 
61.31071048783789

>  <Genealogy>  (78) 
C[C@H](NC(=O)c1cc2c(=O)n3ccccc3nc2nc1N)c1ccccc1 (tautomer)
C[C@H](NC(=O)c1cc2c(=O)n3ccccc3nc2nc1N)c1ccccc1 (3D coordinates assigned)
C[C@H](NC(=O)c1cc2c(=O)n3ccccc3nc2nc1N)c1ccccc1 (optimized conformer: 61.31071048783789 kcal/mol)

>  <smiles>  (78) 
C[C@H](NC(=O)c1cc2c(=O)n3ccccc3nc2[nH]c1=N)c1ccccc1

>  <score_type>  (78) 
oracle

>  <origin>  (78) 
autodockgpu

>  <m_score__min__energy>  (78) 
-7.8399999999999999

>  <m_primary>  (78) 
energy

>  <meeko>  (78) 
{"free_energy": -7.28, "intermolecular_energy": -8.47, "internal_energy": -0.83, "cluster_size": 7, "cluster_id": 2, "rank_in_cluster": 3}

>  <energy>  (78) 
-7.0

>  <cluster_rmsd>  (78) 
0.44

>  <rmsd>  (78) 
270.31

>  <cluster>  (78) 
3

$$$$
OOSPKVZPLIIQRF-CYJIZFNKNA-N
     RDKit          3D

 44 47  0  0  0  0  0  0  0  0999 V2000
  139.3870   77.0680  221.9940 C   0  0  0  0  0  0  0  0  0  0  0  0
  139.7460   75.8090  221.1990 C   0  0  2  0  0  0  0  0  0  0  0  0
  139.6710   74.6280  222.0640 N   0  0  0  0  0  0  0  0  0  0  0  0
  139.5670   73.2940  221.5400 C   0  0  0  0  0  0  0  0  0  0  0  0
  139.5520   73.1070  220.2930 O   0  0  0  0  0  0  0  0  0  0  0  0
  139.5160   72.1340  222.4580 C   0  0  0  0  0  0  0  0  0  0  0  0
  140.1240   72.2380  223.7190 C   0  0  0  0  0  0  0  0  0  0  0  0
  140.1500   71.1360  224.5880 C   0  0  0  0  0  0  0  0  0  0  0  0
  140.7530   71.1830  225.8580 C   0  0  0  0  0  0  0  0  0  0  0  0
  141.2930   72.2560  226.2520 O   0  0  0  0  0  0  0  0  0  0  0  0
  140.7520   70.0670  226.6610 N   0  0  0  0  0  0  0  0  0  0  0  0
  141.3370   70.0980  227.9030 C   0  0  0  0  0  0  0  0  0  0  0  0
  141.3390   68.9670  228.7220 C   0  0  0  0  0  0  0  0  0  0  0  0
  140.7420   67.7930  228.2740 C   0  0  0  0  0  0  0  0  0  0  0  0
  140.1480   67.7580  227.0150 C   0  0  0  0  0  0  0  0  0  0  0  0
  140.1580   68.9050  226.2140 C   0  0  0  0  0  0  0  0  0  0  0  0
  139.5750   68.8560  224.9890 N   0  0  0  0  0  0  0  0  0  0  0  0
  139.5590   69.9360  224.1730 C   0  0  0  0  0  0  0  0  0  0  0  0
  138.9610   69.8540  222.9570 N   0  0  0  0  0  0  0  0  0  0  0  0
  138.9140   70.9060  222.0940 C   0  0  0  0  0  0  0  0  0  0  0  0
  138.2040   70.7450  220.8610 N   0  0  0  0  0  0  0  0  0  0  0  0
  141.1260   75.9250  220.5780 C   0  0  0  0  0  0  0  0  0  0  0  0
  142.0770   74.9080  220.7800 C   0  0  0  0  0  0  0  0  0  0  0  0
  143.3520   75.0080  220.2130 C   0  0  0  0  0  0  0  0  0  0  0  0
  143.6910   76.1220  219.4410 C   0  0  0  0  0  0  0  0  0  0  0  0
  142.7570   77.1390  219.2350 C   0  0  0  0  0  0  0  0  0  0  0  0
  141.4810   77.0440  219.8000 C   0  0  0  0  0  0  0  0  0  0  0  0
  139.4487   76.8517  223.0708 H   0  0  0  0  0  0  0  0  0  0  0  0
  140.0910   77.8745  221.7411 H   0  0  0  0  0  0  0  0  0  0  0  0
  138.3635   77.3819  221.7411 H   0  0  0  0  0  0  0  0  0  0  0  0
  139.0178   75.7007  220.3817 H   0  0  0  0  0  0  0  0  0  0  0  0
  139.5430   74.7620  223.0930 H   0  0  0  0  0  0  0  0  0  0  0  0
  140.5828   73.1888  224.0280 H   0  0  0  0  0  0  0  0  0  0  0  0
  141.8101   71.0257  228.2573 H   0  0  0  0  0  0  0  0  0  0  0  0
  141.8098   69.0041  229.7155 H   0  0  0  0  0  0  0  0  0  0  0  0
  140.7392   66.8965  228.9114 H   0  0  0  0  0  0  0  0  0  0  0  0
  139.6737   66.8341  226.6524 H   0  0  0  0  0  0  0  0  0  0  0  0
  138.2610   71.4440  220.0890 H   0  0  0  0  0  0  0  0  0  0  0  0
  137.5150   69.9670  220.7600 H   0  0  0  0  0  0  0  0  0  0  0  0
  141.8164   74.0288  221.3875 H   0  0  0  0  0  0  0  0  0  0  0  0
  144.0892   74.2079  220.3753 H   0  0  0  0  0  0  0  0  0  0  0  0
  144.6939   76.1978  218.9954 H   0  0  0  0  0  0  0  0  0  0  0  0
  143.0249   78.0161  218.6276 H   0  0  0  0  0  0  0  0  0  0  0  0
  140.7496   77.8490  219.6355 H   0  0  0  0  0  0  0  0  0  0  0  0
  1  2  1  0
  2  3  1  0
  3  4  1  0
  4  5  2  0
  4  6  1  0
  6  7  2  0
  7  8  1  0
  8  9  1  0
  9 10  2  0
  9 11  1  0
 11 12  1  0
 12 13  2  0
 13 14  1  0
 14 15  2  0
 15 16  1  0
 16 17  2  0
 17 18  1  0
 18 19  1  0
 19 20  2  0
 20 21  1  0
  2 22  1  0
 22 23  2  0
 23 24  1  0
 24 25  2  0
 25 26  1  0
 26 27  2  0
 20  6  1  0
 27 22  1  0
 18  8  2  0
 16 11  1  0
  1 28  1  0
  1 29  1  0
  1 30  1  0
  2 31  1  6
  3 32  1  0
  7 33  1  0
 12 34  1  0
 13 35  1  0
 14 36  1  0
 15 37  1  0
 21 38  1  0
 21 39  1  0
 23 40  1  0
 24 41  1  0
 25 42  1  0
 26 43  1  0
 27 44  1  0
M  END
>  <UniqueID>  (79) 
34

>  <SMILES>  (79) 
C[C@H](NC(=O)c1cc2c(=O)n3ccccc3nc2nc1N)c1ccccc1

>  <Energy>  (79) 
61.31071048783789

>  <Genealogy>  (79) 
C[C@H](NC(=O)c1cc2c(=O)n3ccccc3nc2nc1N)c1ccccc1 (tautomer)
C[C@H](NC(=O)c1cc2c(=O)n3ccccc3nc2nc1N)c1ccccc1 (3D coordinates assigned)
C[C@H](NC(=O)c1cc2c(=O)n3ccccc3nc2nc1N)c1ccccc1 (optimized conformer: 61.31071048783789 kcal/mol)

>  <smiles>  (79) 
C[C@H](NC(=O)c1cc2c(=O)n3ccccc3nc2[nH]c1=N)c1ccccc1

>  <score_type>  (79) 
oracle

>  <origin>  (79) 
autodockgpu

>  <m_score__min__energy>  (79) 
-7.8399999999999999

>  <m_primary>  (79) 
energy

>  <meeko>  (79) 
{"free_energy": -6.99, "intermolecular_energy": -8.19, "internal_energy": -0.91, "cluster_size": 7, "cluster_id": 2, "rank_in_cluster": 6}

>  <energy>  (79) 
-6.99

>  <cluster_rmsd>  (79) 
0.39

>  <rmsd>  (79) 
270.31

>  <cluster>  (79) 
3

$$$$
OOSPKVZPLIIQRF-CYJIZFNKNA-N
     RDKit          3D

 44 47  0  0  0  0  0  0  0  0999 V2000
  138.7650   70.1680  222.8110 C   0  0  0  0  0  0  0  0  0  0  0  0
  138.1030   69.4950  224.0170 C   0  0  2  0  0  0  0  0  0  0  0  0
  137.0870   70.3820  224.5940 N   0  0  0  0  0  0  0  0  0  0  0  0
  135.7220   69.9720  224.7780 C   0  0  0  0  0  0  0  0  0  0  0  0
  135.3640   68.8080  224.4530 O   0  0  0  0  0  0  0  0  0  0  0  0
  134.7410   70.9000  225.3850 C   0  0  0  0  0  0  0  0  0  0  0  0
  134.9850   72.2810  225.3260 C   0  0  0  0  0  0  0  0  0  0  0  0
  134.1090   73.1850  225.9470 C   0  0  0  0  0  0  0  0  0  0  0  0
  134.3110   74.5770  225.9260 C   0  0  0  0  0  0  0  0  0  0  0  0
  135.3140   75.0510  225.3220 O   0  0  0  0  0  0  0  0  0  0  0  0
  133.4180   75.4100  226.5600 N   0  0  0  0  0  0  0  0  0  0  0  0
  133.6030   76.7710  226.5470 C   0  0  0  0  0  0  0  0  0  0  0  0
  132.7010   77.6210  227.1900 C   0  0  0  0  0  0  0  0  0  0  0  0
  131.6010   77.0830  227.8510 C   0  0  0  0  0  0  0  0  0  0  0  0
  131.4110   75.7040  227.8650 C   0  0  0  0  0  0  0  0  0  0  0  0
  132.3290   74.8730  227.2140 C   0  0  0  0  0  0  0  0  0  0  0  0
  132.1310   73.5300  227.2360 N   0  0  0  0  0  0  0  0  0  0  0  0
  132.9900   72.6810  226.6230 C   0  0  0  0  0  0  0  0  0  0  0  0
  132.7570   71.3440  226.6580 N   0  0  0  0  0  0  0  0  0  0  0  0
  133.5850   70.4440  226.0620 C   0  0  0  0  0  0  0  0  0  0  0  0
  133.2230   69.0590  226.0960 N   0  0  0  0  0  0  0  0  0  0  0  0
  139.1290   69.1110  225.0670 C   0  0  0  0  0  0  0  0  0  0  0  0
  139.2370   67.7740  225.4920 C   0  0  0  0  0  0  0  0  0  0  0  0
  140.1780   67.4130  226.4600 C   0  0  0  0  0  0  0  0  0  0  0  0
  141.0210   68.3790  227.0140 C   0  0  0  0  0  0  0  0  0  0  0  0
  140.9220   69.7100  226.6030 C   0  0  0  0  0  0  0  0  0  0  0  0
  139.9820   70.0770  225.6350 C   0  0  0  0  0  0  0  0  0  0  0  0
  139.4962   70.9113  223.1615 H   0  0  0  0  0  0  0  0  0  0  0  0
  139.2774   69.4082  222.2026 H   0  0  0  0  0  0  0  0  0  0  0  0
  137.9969   70.6679  222.2026 H   0  0  0  0  0  0  0  0  0  0  0  0
  137.6174   68.5713  223.6692 H   0  0  0  0  0  0  0  0  0  0  0  0
  137.3210   71.3900  224.7410 H   0  0  0  0  0  0  0  0  0  0  0  0
  135.8685   72.6573  224.7896 H   0  0  0  0  0  0  0  0  0  0  0  0
  134.4721   77.1963  226.0238 H   0  0  0  0  0  0  0  0  0  0  0  0
  132.8590   78.7095  227.1742 H   0  0  0  0  0  0  0  0  0  0  0  0
  130.8847   77.7445  228.3602 H   0  0  0  0  0  0  0  0  0  0  0  0
  130.5441   75.2703  228.3849 H   0  0  0  0  0  0  0  0  0  0  0  0
  133.8730   68.3040  225.7850 H   0  0  0  0  0  0  0  0  0  0  0  0
  132.2430   68.7870  226.3310 H   0  0  0  0  0  0  0  0  0  0  0  0
  138.5765   67.0080  225.0595 H   0  0  0  0  0  0  0  0  0  0  0  0
  140.2550   66.3654  226.7865 H   0  0  0  0  0  0  0  0  0  0  0  0
  141.7627   68.0915  227.7738 H   0  0  0  0  0  0  0  0  0  0  0  0
  141.5845   70.4708  227.0414 H   0  0  0  0  0  0  0  0  0  0  0  0
  139.9083   71.1269  225.3151 H   0  0  0  0  0  0  0  0  0  0  0  0
  1  2  1  0
  2  3  1  0
  3  4  1  0
  4  5  2  0
  4  6  1  0
  6  7  2  0
  7  8  1  0
  8  9  1  0
  9 10  2  0
  9 11  1  0
 11 12  1  0
 12 13  2  0
 13 14  1  0
 14 15  2  0
 15 16  1  0
 16 17  2  0
 17 18  1  0
 18 19  1  0
 19 20  2  0
 20 21  1  0
  2 22  1  0
 22 23  2  0
 23 24  1  0
 24 25  2  0
 25 26  1  0
 26 27  2  0
 20  6  1  0
 27 22  1  0
 18  8  2  0
 16 11  1  0
  1 28  1  0
  1 29  1  0
  1 30  1  0
  2 31  1  6
  3 32  1  0
  7 33  1  0
 12 34  1  0
 13 35  1  0
 14 36  1  0
 15 37  1  0
 21 38  1  0
 21 39  1  0
 23 40  1  0
 24 41  1  0
 25 42  1  0
 26 43  1  0
 27 44  1  0
M  END
>  <UniqueID>  (80) 
34

>  <SMILES>  (80) 
C[C@H](NC(=O)c1cc2c(=O)n3ccccc3nc2nc1N)c1ccccc1

>  <Energy>  (80) 
61.31071048783789

>  <Genealogy>  (80) 
C[C@H](NC(=O)c1cc2c(=O)n3ccccc3nc2nc1N)c1ccccc1 (tautomer)
C[C@H](NC(=O)c1cc2c(=O)n3ccccc3nc2nc1N)c1ccccc1 (3D coordinates assigned)
C[C@H](NC(=O)c1cc2c(=O)n3ccccc3nc2nc1N)c1ccccc1 (optimized conformer: 61.31071048783789 kcal/mol)

>  <smiles>  (80) 
C[C@H](NC(=O)c1cc2c(=O)n3ccccc3nc2[nH]c1=N)c1ccccc1

>  <score_type>  (80) 
oracle

>  <origin>  (80) 
autodockgpu

>  <m_score__min__energy>  (80) 
-7.8399999999999999

>  <m_primary>  (80) 
energy

>  <meeko>  (80) 
{"free_energy": -6.99, "intermolecular_energy": -8.19, "internal_energy": -0.89, "cluster_size": 6, "cluster_id": 3, "rank_in_cluster": 5}

>  <energy>  (80) 
-6.96

>  <cluster_rmsd>  (80) 
0.5

>  <rmsd>  (80) 
270.33

>  <cluster>  (80) 
3

$$$$
