GEKDQXSPTHHANP-OUKQBFOZNA-N
     RDKit          3D

 43 46  0  0  0  0  0  0  0  0999 V2000
  137.5470   71.6724  221.6367 H   0  0  0  0  0  0  0  0  0  0  0  0
  138.5970   71.8890  221.8830 C   0  0  0  0  0  0  0  0  0  0  0  0
  139.4270   70.8690  222.1230 C   0  0  0  0  0  0  0  0  0  0  0  0
  139.9771   70.4040  221.2916 H   0  0  0  0  0  0  0  0  0  0  0  0
  139.6090   70.3640  223.4960 C   0  0  0  0  0  0  0  0  0  0  0  0
  140.1380   71.2110  224.4190 N   0  0  0  0  0  0  0  0  0  0  0  0
  140.3420   70.8290  225.7010 C   0  0  0  0  0  0  0  0  0  0  0  0
  140.8740   71.7340  226.6250 C   0  0  0  0  0  0  0  0  0  0  0  0
  141.1288   72.7565  226.3094 H   0  0  0  0  0  0  0  0  0  0  0  0
  141.0820   71.3390  227.9500 C   0  0  0  0  0  0  0  0  0  0  0  0
  141.4969   72.0522  228.6775 H   0  0  0  0  0  0  0  0  0  0  0  0
  140.7630   70.0380  228.3510 C   0  0  0  0  0  0  0  0  0  0  0  0
  140.9274   69.7302  229.3942 H   0  0  0  0  0  0  0  0  0  0  0  0
  140.2370   69.1290  227.4330 C   0  0  0  0  0  0  0  0  0  0  0  0
  139.9937   68.1048  227.7522 H   0  0  0  0  0  0  0  0  0  0  0  0
  140.0170   69.5200  226.0990 C   0  0  0  0  0  0  0  0  0  0  0  0
  139.4850   68.6420  225.1350 C   0  0  0  0  0  0  0  0  0  0  0  0
  139.2070   67.4520  225.4640 O   0  0  0  0  0  0  0  0  0  0  0  0
  139.2790   69.0720  223.8440 N   0  0  0  0  0  0  0  0  0  0  0  0
  138.7800   68.1290  222.8120 C   0  0  0  0  0  0  0  0  0  0  0  0
  139.1754   68.4269  221.8297 H   0  0  0  0  0  0  0  0  0  0  0  0
  139.1178   67.1141  223.0686 H   0  0  0  0  0  0  0  0  0  0  0  0
  137.2690   68.1390  222.7620 C   0  0  0  0  0  0  0  0  0  0  0  0
  136.5330   69.0470  223.5500 C   0  0  0  0  0  0  0  0  0  0  0  0
  137.0596   69.8039  224.1499 H   0  0  0  0  0  0  0  0  0  0  0  0
  135.1340   68.9890  223.5720 C   0  0  0  0  0  0  0  0  0  0  0  0
  134.5647   69.6922  224.1976 H   0  0  0  0  0  0  0  0  0  0  0  0
  134.4580   68.0350  222.7970 C   0  0  0  0  0  0  0  0  0  0  0  0
  133.3598   67.9808  222.8275 H   0  0  0  0  0  0  0  0  0  0  0  0
  135.1800   67.1510  221.9840 C   0  0  0  0  0  0  0  0  0  0  0  0
  134.6473   66.4122  221.3672 H   0  0  0  0  0  0  0  0  0  0  0  0
  136.5770   67.2070  221.9560 C   0  0  0  0  0  0  0  0  0  0  0  0
  137.1396   66.5227  221.3039 H   0  0  0  0  0  0  0  0  0  0  0  0
  139.0410   73.2980  221.9370 C   0  0  0  0  0  0  0  0  0  0  0  0
  140.4040   73.6490  221.9430 C   0  0  0  0  0  0  0  0  0  0  0  0
  141.1736   72.8635  221.9177 H   0  0  0  0  0  0  0  0  0  0  0  0
  140.7710   74.9590  221.9800 N   0  0  0  0  0  0  0  0  0  0  0  0
  139.8530   75.9610  222.0150 C   0  0  0  0  0  0  0  0  0  0  0  0
  140.1845   77.0093  222.0496 H   0  0  0  0  0  0  0  0  0  0  0  0
  138.4880   75.6600  222.0070 C   0  0  0  0  0  0  0  0  0  0  0  0
  137.7402   76.4660  222.0405 H   0  0  0  0  0  0  0  0  0  0  0  0
  138.0850   74.3240  221.9560 C   0  0  0  0  0  0  0  0  0  0  0  0
  137.0138   74.0754  221.9306 H   0  0  0  0  0  0  0  0  0  0  0  0
  1  2  1  0
  2  3  2  0
  3  4  1  0
  3  5  1  0
  5  6  2  0
  6  7  1  0
  7  8  2  0
  8  9  1  0
  8 10  1  0
 10 11  1  0
 10 12  2  0
 12 13  1  0
 12 14  1  0
 14 15  1  0
 14 16  2  0
 16 17  1  0
 17 18  2  0
 17 19  1  0
 19 20  1  0
 20 21  1  0
 20 22  1  0
 20 23  1  0
 23 24  2  0
 24 25  1  0
 24 26  1  0
 26 27  1  0
 26 28  2  0
 28 29  1  0
 28 30  1  0
 30 31  1  0
 30 32  2  0
 32 33  1  0
  2 34  1  0
 34 35  2  0
 35 36  1  0
 35 37  1  0
 37 38  2  0
 38 39  1  0
 38 40  1  0
 40 41  1  0
 40 42  2  0
 42 43  1  0
 19  5  1  0
 32 23  1  0
 42 34  1  0
 16  7  1  0
M  END
>  <UniqueID>  (1) 
21

>  <SMILES>  (1) 
O=c1c2ccccc2nc(/C=C/c2cccnc2)n1Cc1ccccc1

>  <Energy>  (1) 
63.49761234006124

>  <Genealogy>  (1) 
O=c1c2ccccc2nc(/C=C/c2cccnc2)n1Cc1ccccc1 (cis-trans isomerization)
O=c1c2ccccc2nc(/C=C/c2cccnc2)n1Cc1ccccc1 (3D coordinates assigned)
O=c1c2ccccc2nc(/C=C/c2cccnc2)n1Cc1ccccc1 (optimized conformer: 63.49761234006124 kcal/mol)

>  <smiles>  (1) 
O=c1c2ccccc2nc(/C=C/c2cccnc2)n1Cc1ccccc1

>  <score_type>  (1) 
oracle

>  <origin>  (1) 
autodockgpu

>  <m_score__min__energy>  (1) 
-7.3799999999999999

>  <m_primary>  (1) 
energy

>  <meeko>  (1) 
{"free_energy": -7.2, "intermolecular_energy": -8.69, "internal_energy": -1.28, "cluster_size": 10, "cluster_id": 1, "rank_in_cluster": 7}

>  <energy>  (1) 
-7.38

>  <cluster_rmsd>  (1) 
0.0

>  <rmsd>  (1) 
271.07

>  <cluster>  (1) 
1

$$$$
GEKDQXSPTHHANP-OUKQBFOZNA-N
     RDKit          3D

 43 46  0  0  0  0  0  0  0  0999 V2000
  135.4111   67.8992  222.6486 H   0  0  0  0  0  0  0  0  0  0  0  0
  135.9610   68.6500  223.2350 C   0  0  0  0  0  0  0  0  0  0  0  0
  137.2260   68.9280  222.9030 C   0  0  0  0  0  0  0  0  0  0  0  0
  137.5441   68.8539  221.8526 H   0  0  0  0  0  0  0  0  0  0  0  0
  138.1970   69.3330  223.9350 C   0  0  0  0  0  0  0  0  0  0  0  0
  138.4370   68.4680  224.9560 N   0  0  0  0  0  0  0  0  0  0  0  0
  139.3090   68.7600  225.9480 C   0  0  0  0  0  0  0  0  0  0  0  0
  139.5410   67.8370  226.9720 C   0  0  0  0  0  0  0  0  0  0  0  0
  139.0126   66.8722  226.9735 H   0  0  0  0  0  0  0  0  0  0  0  0
  140.4450   68.1410  227.9940 C   0  0  0  0  0  0  0  0  0  0  0  0
  140.6295   67.4134  228.7981 H   0  0  0  0  0  0  0  0  0  0  0  0
  141.1150   69.3680  227.9960 C   0  0  0  0  0  0  0  0  0  0  0  0
  141.8257   69.6033  228.8019 H   0  0  0  0  0  0  0  0  0  0  0  0
  140.8850   70.2950  226.9790 C   0  0  0  0  0  0  0  0  0  0  0  0
  141.4101   71.2615  226.9877 H   0  0  0  0  0  0  0  0  0  0  0  0
  139.9820   69.9950  225.9420 C   0  0  0  0  0  0  0  0  0  0  0  0
  139.7180   70.8950  224.8910 C   0  0  0  0  0  0  0  0  0  0  0  0
  140.2920   72.0220  224.8780 O   0  0  0  0  0  0  0  0  0  0  0  0
  138.8330   70.5550  223.8930 N   0  0  0  0  0  0  0  0  0  0  0  0
  138.5040   71.5270  222.8220 C   0  0  0  0  0  0  0  0  0  0  0  0
  137.8836   71.0298  222.0618 H   0  0  0  0  0  0  0  0  0  0  0  0
  137.9590   72.3721  223.2679 H   0  0  0  0  0  0  0  0  0  0  0  0
  139.7620   72.0520  222.1690 C   0  0  0  0  0  0  0  0  0  0  0  0
  139.9620   73.4390  222.0120 C   0  0  0  0  0  0  0  0  0  0  0  0
  139.2344   74.1490  222.4321 H   0  0  0  0  0  0  0  0  0  0  0  0
  141.0840   73.9150  221.3230 C   0  0  0  0  0  0  0  0  0  0  0  0
  141.2298   74.9975  221.1929 H   0  0  0  0  0  0  0  0  0  0  0  0
  142.0230   73.0140  220.7980 C   0  0  0  0  0  0  0  0  0  0  0  0
  142.8956   73.3903  220.2439 H   0  0  0  0  0  0  0  0  0  0  0  0
  141.8500   71.6360  220.9790 C   0  0  0  0  0  0  0  0  0  0  0  0
  142.5934   70.9317  220.5773 H   0  0  0  0  0  0  0  0  0  0  0  0
  140.7330   71.1540  221.6700 C   0  0  0  0  0  0  0  0  0  0  0  0
  140.6099   70.0720  221.8256 H   0  0  0  0  0  0  0  0  0  0  0  0
  135.2760   69.3160  224.3620 C   0  0  0  0  0  0  0  0  0  0  0  0
  134.5960   68.5860  225.3560 C   0  0  0  0  0  0  0  0  0  0  0  0
  134.5554   67.4882  225.2997 H   0  0  0  0  0  0  0  0  0  0  0  0
  133.9890   69.2360  226.3860 N   0  0  0  0  0  0  0  0  0  0  0  0
  134.0130   70.5910  226.4920 C   0  0  0  0  0  0  0  0  0  0  0  0
  133.5078   71.0852  227.3349 H   0  0  0  0  0  0  0  0  0  0  0  0
  134.6790   71.3570  225.5310 C   0  0  0  0  0  0  0  0  0  0  0  0
  134.6968   72.4541  225.6087 H   0  0  0  0  0  0  0  0  0  0  0  0
  135.3210   70.7140  224.4720 C   0  0  0  0  0  0  0  0  0  0  0  0
  135.8645   71.3055  223.7205 H   0  0  0  0  0  0  0  0  0  0  0  0
  1  2  1  0
  2  3  2  0
  3  4  1  0
  3  5  1  0
  5  6  2  0
  6  7  1  0
  7  8  2  0
  8  9  1  0
  8 10  1  0
 10 11  1  0
 10 12  2  0
 12 13  1  0
 12 14  1  0
 14 15  1  0
 14 16  2  0
 16 17  1  0
 17 18  2  0
 17 19  1  0
 19 20  1  0
 20 21  1  0
 20 22  1  0
 20 23  1  0
 23 24  2  0
 24 25  1  0
 24 26  1  0
 26 27  1  0
 26 28  2  0
 28 29  1  0
 28 30  1  0
 30 31  1  0
 30 32  2  0
 32 33  1  0
  2 34  1  0
 34 35  2  0
 35 36  1  0
 35 37  1  0
 37 38  2  0
 38 39  1  0
 38 40  1  0
 40 41  1  0
 40 42  2  0
 42 43  1  0
 19  5  1  0
 32 23  1  0
 42 34  1  0
 16  7  1  0
M  END
>  <UniqueID>  (2) 
21

>  <SMILES>  (2) 
O=c1c2ccccc2nc(/C=C/c2cccnc2)n1Cc1ccccc1

>  <Energy>  (2) 
63.49761234006124

>  <Genealogy>  (2) 
O=c1c2ccccc2nc(/C=C/c2cccnc2)n1Cc1ccccc1 (cis-trans isomerization)
O=c1c2ccccc2nc(/C=C/c2cccnc2)n1Cc1ccccc1 (3D coordinates assigned)
O=c1c2ccccc2nc(/C=C/c2cccnc2)n1Cc1ccccc1 (optimized conformer: 63.49761234006124 kcal/mol)

>  <smiles>  (2) 
O=c1c2ccccc2nc(/C=C/c2cccnc2)n1Cc1ccccc1

>  <score_type>  (2) 
oracle

>  <origin>  (2) 
autodockgpu

>  <m_score__min__energy>  (2) 
-7.3799999999999999

>  <m_primary>  (2) 
energy

>  <meeko>  (2) 
{"free_energy": -6.88, "intermolecular_energy": -8.37, "internal_energy": -1.37, "cluster_size": 4, "cluster_id": 3, "rank_in_cluster": 2}

>  <energy>  (2) 
-7.36

>  <cluster_rmsd>  (2) 
0.21

>  <rmsd>  (2) 
271.1

>  <cluster>  (2) 
1

$$$$
GEKDQXSPTHHANP-OUKQBFOZNA-N
     RDKit          3D

 43 46  0  0  0  0  0  0  0  0999 V2000
  141.7622   80.4412  219.0324 H   0  0  0  0  0  0  0  0  0  0  0  0
  141.3720   79.9050  219.9100 C   0  0  0  0  0  0  0  0  0  0  0  0
  140.5520   78.8670  219.7190 C   0  0  0  0  0  0  0  0  0  0  0  0
  139.5713   79.0247  219.2463 H   0  0  0  0  0  0  0  0  0  0  0  0
  140.9540   77.5120  220.1380 C   0  0  0  0  0  0  0  0  0  0  0  0
  142.1810   77.0670  219.7580 N   0  0  0  0  0  0  0  0  0  0  0  0
  142.6290   75.8360  220.0970 C   0  0  0  0  0  0  0  0  0  0  0  0
  143.9040   75.4200  219.7010 C   0  0  0  0  0  0  0  0  0  0  0  0
  144.5439   76.0932  219.1117 H   0  0  0  0  0  0  0  0  0  0  0  0
  144.3650   74.1490  220.0540 C   0  0  0  0  0  0  0  0  0  0  0  0
  145.3694   73.8239  219.7451 H   0  0  0  0  0  0  0  0  0  0  0  0
  143.5520   73.2900  220.7990 C   0  0  0  0  0  0  0  0  0  0  0  0
  143.9184   72.2901  221.0747 H   0  0  0  0  0  0  0  0  0  0  0  0
  142.2770   73.6970  221.1940 C   0  0  0  0  0  0  0  0  0  0  0  0
  141.6388   73.0153  221.7754 H   0  0  0  0  0  0  0  0  0  0  0  0
  141.8060   74.9780  220.8500 C   0  0  0  0  0  0  0  0  0  0  0  0
  140.5300   75.4370  221.2270 C   0  0  0  0  0  0  0  0  0  0  0  0
  139.7630   74.6740  221.8830 O   0  0  0  0  0  0  0  0  0  0  0  0
  140.1160   76.7020  220.8740 N   0  0  0  0  0  0  0  0  0  0  0  0
  138.7470   77.1630  221.2140 C   0  0  0  0  0  0  0  0  0  0  0  0
  138.2375   77.4886  220.2951 H   0  0  0  0  0  0  0  0  0  0  0  0
  138.2002   76.3303  221.6804 H   0  0  0  0  0  0  0  0  0  0  0  0
  138.7960   78.3170  222.1890 C   0  0  0  0  0  0  0  0  0  0  0  0
  139.8190   78.3930  223.1560 C   0  0  0  0  0  0  0  0  0  0  0  0
  140.6297   77.6496  223.1563 H   0  0  0  0  0  0  0  0  0  0  0  0
  139.8060   79.4120  224.1160 C   0  0  0  0  0  0  0  0  0  0  0  0
  140.5994   79.4600  224.8764 H   0  0  0  0  0  0  0  0  0  0  0  0
  138.7830   80.3720  224.1100 C   0  0  0  0  0  0  0  0  0  0  0  0
  138.7672   81.1627  224.8746 H   0  0  0  0  0  0  0  0  0  0  0  0
  137.7810   80.3250  223.1310 C   0  0  0  0  0  0  0  0  0  0  0  0
  136.9867   81.0858  223.1202 H   0  0  0  0  0  0  0  0  0  0  0  0
  137.7910   79.3110  222.1680 C   0  0  0  0  0  0  0  0  0  0  0  0
  137.0132   79.2867  221.3905 H   0  0  0  0  0  0  0  0  0  0  0  0
  141.7730   80.3580  221.2580 C   0  0  0  0  0  0  0  0  0  0  0  0
  141.3560   81.5970  221.7810 C   0  0  0  0  0  0  0  0  0  0  0  0
  140.7222   82.2628  221.1769 H   0  0  0  0  0  0  0  0  0  0  0  0
  141.7360   81.9720  223.0330 N   0  0  0  0  0  0  0  0  0  0  0  0
  142.5210   81.1810  223.8120 C   0  0  0  0  0  0  0  0  0  0  0  0
  142.8148   81.5176  224.8172 H   0  0  0  0  0  0  0  0  0  0  0  0
  142.9550   79.9400  223.3360 C   0  0  0  0  0  0  0  0  0  0  0  0
  143.5931   79.2971  223.9600 H   0  0  0  0  0  0  0  0  0  0  0  0
  142.5690   79.5260  222.0590 C   0  0  0  0  0  0  0  0  0  0  0  0
  142.8903   78.5445  221.6804 H   0  0  0  0  0  0  0  0  0  0  0  0
  1  2  1  0
  2  3  2  0
  3  4  1  0
  3  5  1  0
  5  6  2  0
  6  7  1  0
  7  8  2  0
  8  9  1  0
  8 10  1  0
 10 11  1  0
 10 12  2  0
 12 13  1  0
 12 14  1  0
 14 15  1  0
 14 16  2  0
 16 17  1  0
 17 18  2  0
 17 19  1  0
 19 20  1  0
 20 21  1  0
 20 22  1  0
 20 23  1  0
 23 24  2  0
 24 25  1  0
 24 26  1  0
 26 27  1  0
 26 28  2  0
 28 29  1  0
 28 30  1  0
 30 31  1  0
 30 32  2  0
 32 33  1  0
  2 34  1  0
 34 35  2  0
 35 36  1  0
 35 37  1  0
 37 38  2  0
 38 39  1  0
 38 40  1  0
 40 41  1  0
 40 42  2  0
 42 43  1  0
 19  5  1  0
 32 23  1  0
 42 34  1  0
 16  7  1  0
M  END
>  <UniqueID>  (3) 
21

>  <SMILES>  (3) 
O=c1c2ccccc2nc(/C=C/c2cccnc2)n1Cc1ccccc1

>  <Energy>  (3) 
63.49761234006124

>  <Genealogy>  (3) 
O=c1c2ccccc2nc(/C=C/c2cccnc2)n1Cc1ccccc1 (cis-trans isomerization)
O=c1c2ccccc2nc(/C=C/c2cccnc2)n1Cc1ccccc1 (3D coordinates assigned)
O=c1c2ccccc2nc(/C=C/c2cccnc2)n1Cc1ccccc1 (optimized conformer: 63.49761234006124 kcal/mol)

>  <smiles>  (3) 
O=c1c2ccccc2nc(/C=C/c2cccnc2)n1Cc1ccccc1

>  <score_type>  (3) 
oracle

>  <origin>  (3) 
autodockgpu

>  <m_score__min__energy>  (3) 
-7.3799999999999999

>  <m_primary>  (3) 
energy

>  <meeko>  (3) 
{"free_energy": -6.38, "intermolecular_energy": -7.87, "internal_energy": -1.9, "cluster_size": 4, "cluster_id": 4, "rank_in_cluster": 1}

>  <energy>  (3) 
-7.33

>  <cluster_rmsd>  (3) 
0.17

>  <rmsd>  (3) 
271.13

>  <cluster>  (3) 
1

$$$$
GEKDQXSPTHHANP-OUKQBFOZNA-N
     RDKit          3D

 43 46  0  0  0  0  0  0  0  0999 V2000
  137.4356   71.7443  221.7492 H   0  0  0  0  0  0  0  0  0  0  0  0
  138.5030   71.9240  221.9450 C   0  0  0  0  0  0  0  0  0  0  0  0
  139.3060   70.8760  222.1520 C   0  0  0  0  0  0  0  0  0  0  0  0
  139.8090   70.3952  221.3001 H   0  0  0  0  0  0  0  0  0  0  0  0
  139.5210   70.3610  223.5170 C   0  0  0  0  0  0  0  0  0  0  0  0
  140.0530   71.2070  224.4390 N   0  0  0  0  0  0  0  0  0  0  0  0
  140.2870   70.8170  225.7130 C   0  0  0  0  0  0  0  0  0  0  0  0
  140.8200   71.7220  226.6360 C   0  0  0  0  0  0  0  0  0  0  0  0
  141.0510   72.7520  226.3265 H   0  0  0  0  0  0  0  0  0  0  0  0
  141.0590   71.3170  227.9520 C   0  0  0  0  0  0  0  0  0  0  0  0
  141.4753   72.0302  228.6787 H   0  0  0  0  0  0  0  0  0  0  0  0
  140.7700   70.0070  228.3470 C   0  0  0  0  0  0  0  0  0  0  0  0
  140.9600   69.6920  229.3837 H   0  0  0  0  0  0  0  0  0  0  0  0
  140.2410   69.0980  227.4290 C   0  0  0  0  0  0  0  0  0  0  0  0
  140.0192   68.0671  227.7422 H   0  0  0  0  0  0  0  0  0  0  0  0
  139.9910   69.4990  226.1030 C   0  0  0  0  0  0  0  0  0  0  0  0
  139.4560   68.6210  225.1410 C   0  0  0  0  0  0  0  0  0  0  0  0
  139.2050   67.4230  225.4620 O   0  0  0  0  0  0  0  0  0  0  0  0
  139.2200   69.0600  223.8580 N   0  0  0  0  0  0  0  0  0  0  0  0
  138.7180   68.1190  222.8250 C   0  0  0  0  0  0  0  0  0  0  0  0
  139.1153   68.4157  221.8431 H   0  0  0  0  0  0  0  0  0  0  0  0
  139.0517   67.1027  223.0814 H   0  0  0  0  0  0  0  0  0  0  0  0
  137.2070   68.1350  222.7740 C   0  0  0  0  0  0  0  0  0  0  0  0
  136.4730   69.0240  223.5840 C   0  0  0  0  0  0  0  0  0  0  0  0
  137.0011   69.7634  224.2039 H   0  0  0  0  0  0  0  0  0  0  0  0
  135.0740   68.9700  223.6030 C   0  0  0  0  0  0  0  0  0  0  0  0
  134.5064   69.6582  224.2466 H   0  0  0  0  0  0  0  0  0  0  0  0
  134.3950   68.0390  222.8020 C   0  0  0  0  0  0  0  0  0  0  0  0
  133.2965   67.9882  222.8296 H   0  0  0  0  0  0  0  0  0  0  0  0
  135.1150   67.1740  221.9670 C   0  0  0  0  0  0  0  0  0  0  0  0
  134.5810   66.4532  221.3303 H   0  0  0  0  0  0  0  0  0  0  0  0
  136.5130   67.2270  221.9430 C   0  0  0  0  0  0  0  0  0  0  0  0
  137.0746   66.5585  221.2739 H   0  0  0  0  0  0  0  0  0  0  0  0
  138.9990   73.3160  221.9700 C   0  0  0  0  0  0  0  0  0  0  0  0
  140.3740   73.6160  221.9610 C   0  0  0  0  0  0  0  0  0  0  0  0
  141.1133   72.8017  221.9459 H   0  0  0  0  0  0  0  0  0  0  0  0
  140.7910   74.9120  221.9710 N   0  0  0  0  0  0  0  0  0  0  0  0
  139.9110   75.9480  221.9920 C   0  0  0  0  0  0  0  0  0  0  0  0
  140.2815   76.9836  222.0051 H   0  0  0  0  0  0  0  0  0  0  0  0
  138.5350   75.6980  221.9970 C   0  0  0  0  0  0  0  0  0  0  0  0
  137.8181   76.5320  222.0188 H   0  0  0  0  0  0  0  0  0  0  0  0
  138.0820   74.3780  221.9740 C   0  0  0  0  0  0  0  0  0  0  0  0
  137.0020   74.1695  221.9590 H   0  0  0  0  0  0  0  0  0  0  0  0
  1  2  1  0
  2  3  2  0
  3  4  1  0
  3  5  1  0
  5  6  2  0
  6  7  1  0
  7  8  2  0
  8  9  1  0
  8 10  1  0
 10 11  1  0
 10 12  2  0
 12 13  1  0
 12 14  1  0
 14 15  1  0
 14 16  2  0
 16 17  1  0
 17 18  2  0
 17 19  1  0
 19 20  1  0
 20 21  1  0
 20 22  1  0
 20 23  1  0
 23 24  2  0
 24 25  1  0
 24 26  1  0
 26 27  1  0
 26 28  2  0
 28 29  1  0
 28 30  1  0
 30 31  1  0
 30 32  2  0
 32 33  1  0
  2 34  1  0
 34 35  2  0
 35 36  1  0
 35 37  1  0
 37 38  2  0
 38 39  1  0
 38 40  1  0
 40 41  1  0
 40 42  2  0
 42 43  1  0
 19  5  1  0
 32 23  1  0
 42 34  1  0
 16  7  1  0
M  END
>  <UniqueID>  (4) 
21

>  <SMILES>  (4) 
O=c1c2ccccc2nc(/C=C/c2cccnc2)n1Cc1ccccc1

>  <Energy>  (4) 
63.49761234006124

>  <Genealogy>  (4) 
O=c1c2ccccc2nc(/C=C/c2cccnc2)n1Cc1ccccc1 (cis-trans isomerization)
O=c1c2ccccc2nc(/C=C/c2cccnc2)n1Cc1ccccc1 (3D coordinates assigned)
O=c1c2ccccc2nc(/C=C/c2cccnc2)n1Cc1ccccc1 (optimized conformer: 63.49761234006124 kcal/mol)

>  <smiles>  (4) 
O=c1c2ccccc2nc(/C=C/c2cccnc2)n1Cc1ccccc1

>  <score_type>  (4) 
oracle

>  <origin>  (4) 
autodockgpu

>  <m_score__min__energy>  (4) 
-7.3799999999999999

>  <m_primary>  (4) 
energy

>  <meeko>  (4) 
{"free_energy": -7.23, "intermolecular_energy": -8.72, "internal_energy": -1.28, "cluster_size": 10, "cluster_id": 1, "rank_in_cluster": 5}

>  <energy>  (4) 
-7.3

>  <cluster_rmsd>  (4) 
0.27

>  <rmsd>  (4) 
271.1

>  <cluster>  (4) 
1

$$$$
GEKDQXSPTHHANP-OUKQBFOZNA-N
     RDKit          3D

 43 46  0  0  0  0  0  0  0  0999 V2000
  137.7774   72.5690  222.0950 H   0  0  0  0  0  0  0  0  0  0  0  0
  138.8770   72.5430  222.0830 C   0  0  0  0  0  0  0  0  0  0  0  0
  139.4950   71.3660  222.2210 C   0  0  0  0  0  0  0  0  0  0  0  0
  139.8784   70.8425  221.3328 H   0  0  0  0  0  0  0  0  0  0  0  0
  139.6660   70.7650  223.5560 C   0  0  0  0  0  0  0  0  0  0  0  0
  140.2160   71.5340  224.5340 N   0  0  0  0  0  0  0  0  0  0  0  0
  140.4110   71.0610  225.7860 C   0  0  0  0  0  0  0  0  0  0  0  0
  140.9650   71.8880  226.7690 C   0  0  0  0  0  0  0  0  0  0  0  0
  141.2440   72.9233  226.5234 H   0  0  0  0  0  0  0  0  0  0  0  0
  141.1640   71.3990  228.0630 C   0  0  0  0  0  0  0  0  0  0  0  0
  141.5965   72.0510  228.8362 H   0  0  0  0  0  0  0  0  0  0  0  0
  140.8140   70.0820  228.3760 C   0  0  0  0  0  0  0  0  0  0  0  0
  140.9726   69.6998  229.3952 H   0  0  0  0  0  0  0  0  0  0  0  0
  140.2640   69.2510  227.3990 C   0  0  0  0  0  0  0  0  0  0  0  0
  139.9940   68.2144  227.6490 H   0  0  0  0  0  0  0  0  0  0  0  0
  140.0540   69.7360  226.0950 C   0  0  0  0  0  0  0  0  0  0  0  0
  139.5000   68.9390  225.0750 C   0  0  0  0  0  0  0  0  0  0  0  0
  139.1940   67.7370  225.3230 O   0  0  0  0  0  0  0  0  0  0  0  0
  139.3050   69.4600  223.8160 N   0  0  0  0  0  0  0  0  0  0  0  0
  138.7830   68.6020  222.7240 C   0  0  0  0  0  0  0  0  0  0  0  0
  139.0572   69.0447  221.7551 H   0  0  0  0  0  0  0  0  0  0  0  0
  139.2215   67.5981  222.8240 H   0  0  0  0  0  0  0  0  0  0  0  0
  137.2780   68.4840  222.8070 C   0  0  0  0  0  0  0  0  0  0  0  0
  136.5480   69.2680  223.7240 C   0  0  0  0  0  0  0  0  0  0  0  0
  137.0654   70.0252  224.3314 H   0  0  0  0  0  0  0  0  0  0  0  0
  135.1670   69.0860  223.8640 C   0  0  0  0  0  0  0  0  0  0  0  0
  134.6039   69.6915  224.5895 H   0  0  0  0  0  0  0  0  0  0  0  0
  134.5000   68.1320  223.0800 C   0  0  0  0  0  0  0  0  0  0  0  0
  133.4175   67.9799  223.2028 H   0  0  0  0  0  0  0  0  0  0  0  0
  135.2110   67.3730  222.1410 C   0  0  0  0  0  0  0  0  0  0  0  0
  134.6842   66.6355  221.5177 H   0  0  0  0  0  0  0  0  0  0  0  0
  136.5910   67.5530  221.9960 C   0  0  0  0  0  0  0  0  0  0  0  0
  137.1437   66.9669  221.2470 H   0  0  0  0  0  0  0  0  0  0  0  0
  139.6170   73.8100  221.9150 C   0  0  0  0  0  0  0  0  0  0  0  0
  139.0770   75.0470  222.3160 C   0  0  0  0  0  0  0  0  0  0  0  0
  138.0712   75.0889  222.7595 H   0  0  0  0  0  0  0  0  0  0  0  0
  139.7970   76.1910  222.1560 N   0  0  0  0  0  0  0  0  0  0  0  0
  141.0420   76.1850  221.6110 C   0  0  0  0  0  0  0  0  0  0  0  0
  141.5944   77.1287  221.4916 H   0  0  0  0  0  0  0  0  0  0  0  0
  141.6210   74.9800  221.2020 C   0  0  0  0  0  0  0  0  0  0  0  0
  142.6262   74.9690  220.7555 H   0  0  0  0  0  0  0  0  0  0  0  0
  140.9080   73.7900  221.3670 C   0  0  0  0  0  0  0  0  0  0  0  0
  141.3608   72.8337  221.0660 H   0  0  0  0  0  0  0  0  0  0  0  0
  1  2  1  0
  2  3  2  0
  3  4  1  0
  3  5  1  0
  5  6  2  0
  6  7  1  0
  7  8  2  0
  8  9  1  0
  8 10  1  0
 10 11  1  0
 10 12  2  0
 12 13  1  0
 12 14  1  0
 14 15  1  0
 14 16  2  0
 16 17  1  0
 17 18  2  0
 17 19  1  0
 19 20  1  0
 20 21  1  0
 20 22  1  0
 20 23  1  0
 23 24  2  0
 24 25  1  0
 24 26  1  0
 26 27  1  0
 26 28  2  0
 28 29  1  0
 28 30  1  0
 30 31  1  0
 30 32  2  0
 32 33  1  0
  2 34  1  0
 34 35  2  0
 35 36  1  0
 35 37  1  0
 37 38  2  0
 38 39  1  0
 38 40  1  0
 40 41  1  0
 40 42  2  0
 42 43  1  0
 19  5  1  0
 32 23  1  0
 42 34  1  0
 16  7  1  0
M  END
>  <UniqueID>  (5) 
21

>  <SMILES>  (5) 
O=c1c2ccccc2nc(/C=C/c2cccnc2)n1Cc1ccccc1

>  <Energy>  (5) 
63.49761234006124

>  <Genealogy>  (5) 
O=c1c2ccccc2nc(/C=C/c2cccnc2)n1Cc1ccccc1 (cis-trans isomerization)
O=c1c2ccccc2nc(/C=C/c2cccnc2)n1Cc1ccccc1 (3D coordinates assigned)
O=c1c2ccccc2nc(/C=C/c2cccnc2)n1Cc1ccccc1 (optimized conformer: 63.49761234006124 kcal/mol)

>  <smiles>  (5) 
O=c1c2ccccc2nc(/C=C/c2cccnc2)n1Cc1ccccc1

>  <score_type>  (5) 
oracle

>  <origin>  (5) 
autodockgpu

>  <m_score__min__energy>  (5) 
-7.3799999999999999

>  <m_primary>  (5) 
energy

>  <meeko>  (5) 
{"free_energy": -7.12, "intermolecular_energy": -8.61, "internal_energy": -1.19, "cluster_size": 10, "cluster_id": 1, "rank_in_cluster": 9}

>  <energy>  (5) 
-7.23

>  <cluster_rmsd>  (5) 
0.72

>  <rmsd>  (5) 
271.04

>  <cluster>  (5) 
1

$$$$
GEKDQXSPTHHANP-OUKQBFOZNA-N
     RDKit          3D

 43 46  0  0  0  0  0  0  0  0999 V2000
  137.5023   71.7017  221.7426 H   0  0  0  0  0  0  0  0  0  0  0  0
  138.5620   71.9220  221.9390 C   0  0  0  0  0  0  0  0  0  0  0  0
  139.4030   70.9050  222.1490 C   0  0  0  0  0  0  0  0  0  0  0  0
  139.9551   70.4682  221.3038 H   0  0  0  0  0  0  0  0  0  0  0  0
  139.5950   70.3650  223.5080 C   0  0  0  0  0  0  0  0  0  0  0  0
  140.1250   71.1890  224.4500 N   0  0  0  0  0  0  0  0  0  0  0  0
  140.3370   70.7750  225.7210 C   0  0  0  0  0  0  0  0  0  0  0  0
  140.8690   71.6570  226.6660 C   0  0  0  0  0  0  0  0  0  0  0  0
  141.1176   72.6888  226.3767 H   0  0  0  0  0  0  0  0  0  0  0  0
  141.0850   71.2280  227.9780 C   0  0  0  0  0  0  0  0  0  0  0  0
  141.5003   71.9238  228.7219 H   0  0  0  0  0  0  0  0  0  0  0  0
  140.7740   69.9150  228.3470 C   0  0  0  0  0  0  0  0  0  0  0  0
  140.9454   69.5803  229.3807 H   0  0  0  0  0  0  0  0  0  0  0  0
  140.2470   69.0290  227.4070 C   0  0  0  0  0  0  0  0  0  0  0  0
  140.0091   67.9957  227.6999 H   0  0  0  0  0  0  0  0  0  0  0  0
  140.0190   69.4540  226.0850 C   0  0  0  0  0  0  0  0  0  0  0  0
  139.4870   68.5990  225.1010 C   0  0  0  0  0  0  0  0  0  0  0  0
  139.2160   67.4000  225.3990 O   0  0  0  0  0  0  0  0  0  0  0  0
  139.2720   69.0620  223.8220 N   0  0  0  0  0  0  0  0  0  0  0  0
  138.7730   68.1450  222.7680 C   0  0  0  0  0  0  0  0  0  0  0  0
  139.1519   68.4785  221.7907 H   0  0  0  0  0  0  0  0  0  0  0  0
  139.1276   67.1274  222.9887 H   0  0  0  0  0  0  0  0  0  0  0  0
  137.2610   68.1360  222.7370 C   0  0  0  0  0  0  0  0  0  0  0  0
  136.5240   69.0250  223.5450 C   0  0  0  0  0  0  0  0  0  0  0  0
  137.0485   69.7810  224.1478 H   0  0  0  0  0  0  0  0  0  0  0  0
  135.1260   68.9490  223.5830 C   0  0  0  0  0  0  0  0  0  0  0  0
  134.5557   69.6383  224.2230 H   0  0  0  0  0  0  0  0  0  0  0  0
  134.4520   67.9950  222.8060 C   0  0  0  0  0  0  0  0  0  0  0  0
  133.3551   67.9257  222.8505 H   0  0  0  0  0  0  0  0  0  0  0  0
  135.1750   67.1300  221.9730 C   0  0  0  0  0  0  0  0  0  0  0  0
  134.6443   66.3919  221.3537 H   0  0  0  0  0  0  0  0  0  0  0  0
  136.5710   67.2050  221.9290 C   0  0  0  0  0  0  0  0  0  0  0  0
  137.1343   66.5358  221.2620 H   0  0  0  0  0  0  0  0  0  0  0  0
  139.0040   73.3320  221.9610 C   0  0  0  0  0  0  0  0  0  0  0  0
  140.3670   73.6840  221.9520 C   0  0  0  0  0  0  0  0  0  0  0  0
  141.1369   72.8984  221.9393 H   0  0  0  0  0  0  0  0  0  0  0  0
  140.7340   74.9950  221.9590 N   0  0  0  0  0  0  0  0  0  0  0  0
  139.8150   75.9960  221.9780 C   0  0  0  0  0  0  0  0  0  0  0  0
  140.1459   77.0450  221.9895 H   0  0  0  0  0  0  0  0  0  0  0  0
  138.4500   75.6950  221.9830 C   0  0  0  0  0  0  0  0  0  0  0  0
  137.7021   76.5014  222.0024 H   0  0  0  0  0  0  0  0  0  0  0  0
  138.0470   74.3570  221.9630 C   0  0  0  0  0  0  0  0  0  0  0  0
  136.9758   74.1071  221.9488 H   0  0  0  0  0  0  0  0  0  0  0  0
  1  2  1  0
  2  3  2  0
  3  4  1  0
  3  5  1  0
  5  6  2  0
  6  7  1  0
  7  8  2  0
  8  9  1  0
  8 10  1  0
 10 11  1  0
 10 12  2  0
 12 13  1  0
 12 14  1  0
 14 15  1  0
 14 16  2  0
 16 17  1  0
 17 18  2  0
 17 19  1  0
 19 20  1  0
 20 21  1  0
 20 22  1  0
 20 23  1  0
 23 24  2  0
 24 25  1  0
 24 26  1  0
 26 27  1  0
 26 28  2  0
 28 29  1  0
 28 30  1  0
 30 31  1  0
 30 32  2  0
 32 33  1  0
  2 34  1  0
 34 35  2  0
 35 36  1  0
 35 37  1  0
 37 38  2  0
 38 39  1  0
 38 40  1  0
 40 41  1  0
 40 42  2  0
 42 43  1  0
 19  5  1  0
 32 23  1  0
 42 34  1  0
 16  7  1  0
M  END
>  <UniqueID>  (6) 
21

>  <SMILES>  (6) 
O=c1c2ccccc2nc(/C=C/c2cccnc2)n1Cc1ccccc1

>  <Energy>  (6) 
63.49761234006124

>  <Genealogy>  (6) 
O=c1c2ccccc2nc(/C=C/c2cccnc2)n1Cc1ccccc1 (cis-trans isomerization)
O=c1c2ccccc2nc(/C=C/c2cccnc2)n1Cc1ccccc1 (3D coordinates assigned)
O=c1c2ccccc2nc(/C=C/c2cccnc2)n1Cc1ccccc1 (optimized conformer: 63.49761234006124 kcal/mol)

>  <smiles>  (6) 
O=c1c2ccccc2nc(/C=C/c2cccnc2)n1Cc1ccccc1

>  <score_type>  (6) 
oracle

>  <origin>  (6) 
autodockgpu

>  <m_score__min__energy>  (6) 
-7.3799999999999999

>  <m_primary>  (6) 
energy

>  <meeko>  (6) 
{"free_energy": -7.23, "intermolecular_energy": -8.72, "internal_energy": -1.26, "cluster_size": 10, "cluster_id": 1, "rank_in_cluster": 6}

>  <energy>  (6) 
-7.23

>  <cluster_rmsd>  (6) 
0.73

>  <rmsd>  (6) 
271.04

>  <cluster>  (6) 
1

$$$$
GEKDQXSPTHHANP-OUKQBFOZNA-N
     RDKit          3D

 43 46  0  0  0  0  0  0  0  0999 V2000
  141.2157   70.6177  220.8209 H   0  0  0  0  0  0  0  0  0  0  0  0
  140.5060   71.2380  221.3880 C   0  0  0  0  0  0  0  0  0  0  0  0
  139.5050   70.6390  222.0410 C   0  0  0  0  0  0  0  0  0  0  0  0
  138.5577   70.4345  221.5205 H   0  0  0  0  0  0  0  0  0  0  0  0
  139.6630   70.2510  223.4540 C   0  0  0  0  0  0  0  0  0  0  0  0
  140.1970   71.1630  224.3080 N   0  0  0  0  0  0  0  0  0  0  0  0
  140.3800   70.8890  225.6200 C   0  0  0  0  0  0  0  0  0  0  0  0
  140.9180   71.8600  226.4710 C   0  0  0  0  0  0  0  0  0  0  0  0
  141.1938   72.8479  226.0735 H   0  0  0  0  0  0  0  0  0  0  0  0
  141.1050   71.5750  227.8260 C   0  0  0  0  0  0  0  0  0  0  0  0
  141.5259   72.3400  228.4950 H   0  0  0  0  0  0  0  0  0  0  0  0
  140.7580   70.3190  228.3330 C   0  0  0  0  0  0  0  0  0  0  0  0
  140.9056   70.0988  229.4006 H   0  0  0  0  0  0  0  0  0  0  0  0
  140.2250   69.3440  227.4890 C   0  0  0  0  0  0  0  0  0  0  0  0
  139.9592   68.3552  227.8910 H   0  0  0  0  0  0  0  0  0  0  0  0
  140.0270   69.6240  226.1240 C   0  0  0  0  0  0  0  0  0  0  0  0
  139.4900   68.6770  225.2320 C   0  0  0  0  0  0  0  0  0  0  0  0
  139.1870   67.5240  225.6570 O   0  0  0  0  0  0  0  0  0  0  0  0
  139.3060   68.9980  223.9060 N   0  0  0  0  0  0  0  0  0  0  0  0
  138.8010   67.9800  222.9520 C   0  0  0  0  0  0  0  0  0  0  0  0
  139.2925   68.1231  221.9784 H   0  0  0  0  0  0  0  0  0  0  0  0
  139.0262   66.9802  223.3516 H   0  0  0  0  0  0  0  0  0  0  0  0
  137.3050   68.1050  222.7750 C   0  0  0  0  0  0  0  0  0  0  0  0
  136.5710   69.0410  223.5320 C   0  0  0  0  0  0  0  0  0  0  0  0
  137.0968   69.7374  224.2018 H   0  0  0  0  0  0  0  0  0  0  0  0
  135.1750   69.0870  223.4340 C   0  0  0  0  0  0  0  0  0  0  0  0
  134.6058   69.8097  224.0371 H   0  0  0  0  0  0  0  0  0  0  0  0
  134.5010   68.2130  222.5680 C   0  0  0  0  0  0  0  0  0  0  0  0
  133.4032   68.2410  222.5041 H   0  0  0  0  0  0  0  0  0  0  0  0
  135.2250   67.3040  221.7840 C   0  0  0  0  0  0  0  0  0  0  0  0
  134.6959   66.6289  221.0953 H   0  0  0  0  0  0  0  0  0  0  0  0
  136.6200   67.2550  221.8770 C   0  0  0  0  0  0  0  0  0  0  0  0
  137.1863   66.5519  221.2486 H   0  0  0  0  0  0  0  0  0  0  0  0
  140.6930   72.7040  221.4010 C   0  0  0  0  0  0  0  0  0  0  0  0
  139.7510   73.5690  221.9880 C   0  0  0  0  0  0  0  0  0  0  0  0
  138.8386   73.1584  222.4452 H   0  0  0  0  0  0  0  0  0  0  0  0
  139.9670   74.9130  221.9910 N   0  0  0  0  0  0  0  0  0  0  0  0
  141.0790   75.4620  221.4350 C   0  0  0  0  0  0  0  0  0  0  0  0
  141.2196   76.5529  221.4502 H   0  0  0  0  0  0  0  0  0  0  0  0
  142.0440   74.6420  220.8440 C   0  0  0  0  0  0  0  0  0  0  0  0
  142.9436   75.0811  220.3880 H   0  0  0  0  0  0  0  0  0  0  0  0
  141.8530   73.2580  220.8390 C   0  0  0  0  0  0  0  0  0  0  0  0
  142.6142   72.6009  220.3932 H   0  0  0  0  0  0  0  0  0  0  0  0
  1  2  1  0
  2  3  2  0
  3  4  1  0
  3  5  1  0
  5  6  2  0
  6  7  1  0
  7  8  2  0
  8  9  1  0
  8 10  1  0
 10 11  1  0
 10 12  2  0
 12 13  1  0
 12 14  1  0
 14 15  1  0
 14 16  2  0
 16 17  1  0
 17 18  2  0
 17 19  1  0
 19 20  1  0
 20 21  1  0
 20 22  1  0
 20 23  1  0
 23 24  2  0
 24 25  1  0
 24 26  1  0
 26 27  1  0
 26 28  2  0
 28 29  1  0
 28 30  1  0
 30 31  1  0
 30 32  2  0
 32 33  1  0
  2 34  1  0
 34 35  2  0
 35 36  1  0
 35 37  1  0
 37 38  2  0
 38 39  1  0
 38 40  1  0
 40 41  1  0
 40 42  2  0
 42 43  1  0
 19  5  1  0
 32 23  1  0
 42 34  1  0
 16  7  1  0
M  END
>  <UniqueID>  (7) 
21

>  <SMILES>  (7) 
O=c1c2ccccc2nc(/C=C/c2cccnc2)n1Cc1ccccc1

>  <Energy>  (7) 
63.49761234006124

>  <Genealogy>  (7) 
O=c1c2ccccc2nc(/C=C/c2cccnc2)n1Cc1ccccc1 (cis-trans isomerization)
O=c1c2ccccc2nc(/C=C/c2cccnc2)n1Cc1ccccc1 (3D coordinates assigned)
O=c1c2ccccc2nc(/C=C/c2cccnc2)n1Cc1ccccc1 (optimized conformer: 63.49761234006124 kcal/mol)

>  <smiles>  (7) 
O=c1c2ccccc2nc(/C=C/c2cccnc2)n1Cc1ccccc1

>  <score_type>  (7) 
oracle

>  <origin>  (7) 
autodockgpu

>  <m_score__min__energy>  (7) 
-7.3799999999999999

>  <m_primary>  (7) 
energy

>  <meeko>  (7) 
{"free_energy": -7.36, "intermolecular_energy": -8.85, "internal_energy": -1.21, "cluster_size": 10, "cluster_id": 1, "rank_in_cluster": 2}

>  <energy>  (7) 
-7.2

>  <cluster_rmsd>  (7) 
0.72

>  <rmsd>  (7) 
271.05

>  <cluster>  (7) 
1

$$$$
GEKDQXSPTHHANP-OUKQBFOZNA-N
     RDKit          3D

 43 46  0  0  0  0  0  0  0  0999 V2000
  143.5500   75.9003  218.1490 H   0  0  0  0  0  0  0  0  0  0  0  0
  143.5540   75.5250  219.1830 C   0  0  0  0  0  0  0  0  0  0  0  0
  142.7540   76.1060  220.0830 C   0  0  0  0  0  0  0  0  0  0  0  0
  142.9287   77.1520  220.3753 H   0  0  0  0  0  0  0  0  0  0  0  0
  141.6390   75.3530  220.6860 C   0  0  0  0  0  0  0  0  0  0  0  0
  141.7990   74.0150  220.8620 N   0  0  0  0  0  0  0  0  0  0  0  0
  140.8260   73.2470  221.4050 C   0  0  0  0  0  0  0  0  0  0  0  0
  141.0340   71.8760  221.5850 C   0  0  0  0  0  0  0  0  0  0  0  0
  141.9884   71.4201  221.2828 H   0  0  0  0  0  0  0  0  0  0  0  0
  140.0290   71.0850  222.1490 C   0  0  0  0  0  0  0  0  0  0  0  0
  140.1949   70.0074  222.2949 H   0  0  0  0  0  0  0  0  0  0  0  0
  138.8130   71.6620  222.5280 C   0  0  0  0  0  0  0  0  0  0  0  0
  138.0239   71.0363  222.9705 H   0  0  0  0  0  0  0  0  0  0  0  0
  138.5970   73.0280  222.3470 C   0  0  0  0  0  0  0  0  0  0  0  0
  137.6368   73.4761  222.6423 H   0  0  0  0  0  0  0  0  0  0  0  0
  139.6060   73.8340  221.7870 C   0  0  0  0  0  0  0  0  0  0  0  0
  139.4400   75.2180  221.5870 C   0  0  0  0  0  0  0  0  0  0  0  0
  138.3420   75.7640  221.9000 O   0  0  0  0  0  0  0  0  0  0  0  0
  140.4580   75.9680  221.0440 N   0  0  0  0  0  0  0  0  0  0  0  0
  140.2610   77.4130  220.7710 C   0  0  0  0  0  0  0  0  0  0  0  0
  140.5778   77.6320  219.7406 H   0  0  0  0  0  0  0  0  0  0  0  0
  139.1962   77.6553  220.9034 H   0  0  0  0  0  0  0  0  0  0  0  0
  141.0730   78.2550  221.7290 C   0  0  0  0  0  0  0  0  0  0  0  0
  141.1100   77.9430  223.1030 C   0  0  0  0  0  0  0  0  0  0  0  0
  140.6051   77.0386  223.4734 H   0  0  0  0  0  0  0  0  0  0  0  0
  141.7870   78.7800  223.9980 C   0  0  0  0  0  0  0  0  0  0  0  0
  141.8037   78.5377  225.0708 H   0  0  0  0  0  0  0  0  0  0  0  0
  142.4440   79.9270  223.5290 C   0  0  0  0  0  0  0  0  0  0  0  0
  142.9608   80.5920  224.2366 H   0  0  0  0  0  0  0  0  0  0  0  0
  142.4430   80.2270  222.1600 C   0  0  0  0  0  0  0  0  0  0  0  0
  142.9708   81.1193  221.7923 H   0  0  0  0  0  0  0  0  0  0  0  0
  141.7710   79.3920  221.2610 C   0  0  0  0  0  0  0  0  0  0  0  0
  141.7857   79.6210  220.1852 H   0  0  0  0  0  0  0  0  0  0  0  0
  144.4430   74.3970  219.5280 C   0  0  0  0  0  0  0  0  0  0  0  0
  144.7860   73.4060  218.5890 C   0  0  0  0  0  0  0  0  0  0  0  0
  144.3792   73.4528  217.5680 H   0  0  0  0  0  0  0  0  0  0  0  0
  145.6200   72.3900  218.9420 N   0  0  0  0  0  0  0  0  0  0  0  0
  146.1430   72.2930  220.1930 C   0  0  0  0  0  0  0  0  0  0  0  0
  146.8098   71.4557  220.4465 H   0  0  0  0  0  0  0  0  0  0  0  0
  145.8340   73.2570  221.1580 C   0  0  0  0  0  0  0  0  0  0  0  0
  146.2500   73.1812  222.1735 H   0  0  0  0  0  0  0  0  0  0  0  0
  144.9910   74.3170  220.8170 C   0  0  0  0  0  0  0  0  0  0  0  0
  144.7559   75.0918  221.5616 H   0  0  0  0  0  0  0  0  0  0  0  0
  1  2  1  0
  2  3  2  0
  3  4  1  0
  3  5  1  0
  5  6  2  0
  6  7  1  0
  7  8  2  0
  8  9  1  0
  8 10  1  0
 10 11  1  0
 10 12  2  0
 12 13  1  0
 12 14  1  0
 14 15  1  0
 14 16  2  0
 16 17  1  0
 17 18  2  0
 17 19  1  0
 19 20  1  0
 20 21  1  0
 20 22  1  0
 20 23  1  0
 23 24  2  0
 24 25  1  0
 24 26  1  0
 26 27  1  0
 26 28  2  0
 28 29  1  0
 28 30  1  0
 30 31  1  0
 30 32  2  0
 32 33  1  0
  2 34  1  0
 34 35  2  0
 35 36  1  0
 35 37  1  0
 37 38  2  0
 38 39  1  0
 38 40  1  0
 40 41  1  0
 40 42  2  0
 42 43  1  0
 19  5  1  0
 32 23  1  0
 42 34  1  0
 16  7  1  0
M  END
>  <UniqueID>  (8) 
21

>  <SMILES>  (8) 
O=c1c2ccccc2nc(/C=C/c2cccnc2)n1Cc1ccccc1

>  <Energy>  (8) 
63.49761234006124

>  <Genealogy>  (8) 
O=c1c2ccccc2nc(/C=C/c2cccnc2)n1Cc1ccccc1 (cis-trans isomerization)
O=c1c2ccccc2nc(/C=C/c2cccnc2)n1Cc1ccccc1 (3D coordinates assigned)
O=c1c2ccccc2nc(/C=C/c2cccnc2)n1Cc1ccccc1 (optimized conformer: 63.49761234006124 kcal/mol)

>  <smiles>  (8) 
O=c1c2ccccc2nc(/C=C/c2cccnc2)n1Cc1ccccc1

>  <score_type>  (8) 
oracle

>  <origin>  (8) 
autodockgpu

>  <m_score__min__energy>  (8) 
-7.3799999999999999

>  <m_primary>  (8) 
energy

>  <meeko>  (8) 
{"free_energy": -7.17, "intermolecular_energy": -8.66, "internal_energy": -1.33, "cluster_size": 2, "cluster_id": 2, "rank_in_cluster": 1}

>  <energy>  (8) 
-7.2

>  <cluster_rmsd>  (8) 
0.73

>  <rmsd>  (8) 
271.03

>  <cluster>  (8) 
1

$$$$
GEKDQXSPTHHANP-OUKQBFOZNA-N
     RDKit          3D

 43 46  0  0  0  0  0  0  0  0999 V2000
  143.5462   75.8961  218.1353 H   0  0  0  0  0  0  0  0  0  0  0  0
  143.5570   75.5120  219.1660 C   0  0  0  0  0  0  0  0  0  0  0  0
  142.7650   76.0870  220.0770 C   0  0  0  0  0  0  0  0  0  0  0  0
  142.9497   77.1273  220.3829 H   0  0  0  0  0  0  0  0  0  0  0  0
  141.6460   75.3360  220.6740 C   0  0  0  0  0  0  0  0  0  0  0  0
  141.8190   74.0060  220.8930 N   0  0  0  0  0  0  0  0  0  0  0  0
  140.8440   73.2400  221.4340 C   0  0  0  0  0  0  0  0  0  0  0  0
  141.0660   71.8780  221.6590 C   0  0  0  0  0  0  0  0  0  0  0  0
  142.0340   71.4273  221.3948 H   0  0  0  0  0  0  0  0  0  0  0  0
  140.0570   71.0890  222.2200 C   0  0  0  0  0  0  0  0  0  0  0  0
  140.2333   70.0182  222.3997 H   0  0  0  0  0  0  0  0  0  0  0  0
  138.8240   71.6590  222.5530 C   0  0  0  0  0  0  0  0  0  0  0  0
  138.0326   71.0353  222.9942 H   0  0  0  0  0  0  0  0  0  0  0  0
  138.5950   73.0170  222.3270 C   0  0  0  0  0  0  0  0  0  0  0  0
  137.6219   73.4600  222.5854 H   0  0  0  0  0  0  0  0  0  0  0  0
  139.6070   73.8210  221.7690 C   0  0  0  0  0  0  0  0  0  0  0  0
  139.4270   75.1950  221.5240 C   0  0  0  0  0  0  0  0  0  0  0  0
  138.3140   75.7350  221.7940 O   0  0  0  0  0  0  0  0  0  0  0  0
  140.4480   75.9440  220.9850 N   0  0  0  0  0  0  0  0  0  0  0  0
  140.2380   77.3780  220.6650 C   0  0  0  0  0  0  0  0  0  0  0  0
  140.6129   77.5800  219.6508 H   0  0  0  0  0  0  0  0  0  0  0  0
  139.1623   77.5995  220.7262 H   0  0  0  0  0  0  0  0  0  0  0  0
  140.9720   78.2600  221.6500 C   0  0  0  0  0  0  0  0  0  0  0  0
  141.6220   79.4320  221.2140 C   0  0  0  0  0  0  0  0  0  0  0  0
  141.5342   79.7492  220.1644 H   0  0  0  0  0  0  0  0  0  0  0  0
  142.3790   80.1940  222.1120 C   0  0  0  0  0  0  0  0  0  0  0  0
  142.8945   81.1013  221.7640 H   0  0  0  0  0  0  0  0  0  0  0  0
  142.4810   79.8020  223.4550 C   0  0  0  0  0  0  0  0  0  0  0  0
  143.0885   80.3941  224.1553 H   0  0  0  0  0  0  0  0  0  0  0  0
  141.8100   78.6570  223.9060 C   0  0  0  0  0  0  0  0  0  0  0  0
  141.8810   78.3583  224.9623 H   0  0  0  0  0  0  0  0  0  0  0  0
  141.0500   77.8940  223.0130 C   0  0  0  0  0  0  0  0  0  0  0  0
  140.5108   77.0054  223.3731 H   0  0  0  0  0  0  0  0  0  0  0  0
  144.4460   74.3790  219.4950 C   0  0  0  0  0  0  0  0  0  0  0  0
  144.7880   73.4000  218.5430 C   0  0  0  0  0  0  0  0  0  0  0  0
  144.3804   73.4602  217.5231 H   0  0  0  0  0  0  0  0  0  0  0  0
  145.6220   72.3790  218.8820 N   0  0  0  0  0  0  0  0  0  0  0  0
  146.1460   72.2650  220.1320 C   0  0  0  0  0  0  0  0  0  0  0  0
  146.8124   71.4240  220.3742 H   0  0  0  0  0  0  0  0  0  0  0  0
  145.8380   73.2160  221.1090 C   0  0  0  0  0  0  0  0  0  0  0  0
  146.2548   73.1267  222.1231 H   0  0  0  0  0  0  0  0  0  0  0  0
  144.9950   74.2810  220.7830 C   0  0  0  0  0  0  0  0  0  0  0  0
  144.7606   75.0455  221.5384 H   0  0  0  0  0  0  0  0  0  0  0  0
  1  2  1  0
  2  3  2  0
  3  4  1  0
  3  5  1  0
  5  6  2  0
  6  7  1  0
  7  8  2  0
  8  9  1  0
  8 10  1  0
 10 11  1  0
 10 12  2  0
 12 13  1  0
 12 14  1  0
 14 15  1  0
 14 16  2  0
 16 17  1  0
 17 18  2  0
 17 19  1  0
 19 20  1  0
 20 21  1  0
 20 22  1  0
 20 23  1  0
 23 24  2  0
 24 25  1  0
 24 26  1  0
 26 27  1  0
 26 28  2  0
 28 29  1  0
 28 30  1  0
 30 31  1  0
 30 32  2  0
 32 33  1  0
  2 34  1  0
 34 35  2  0
 35 36  1  0
 35 37  1  0
 37 38  2  0
 38 39  1  0
 38 40  1  0
 40 41  1  0
 40 42  2  0
 42 43  1  0
 19  5  1  0
 32 23  1  0
 42 34  1  0
 16  7  1  0
M  END
>  <UniqueID>  (9) 
21

>  <SMILES>  (9) 
O=c1c2ccccc2nc(/C=C/c2cccnc2)n1Cc1ccccc1

>  <Energy>  (9) 
63.49761234006124

>  <Genealogy>  (9) 
O=c1c2ccccc2nc(/C=C/c2cccnc2)n1Cc1ccccc1 (cis-trans isomerization)
O=c1c2ccccc2nc(/C=C/c2cccnc2)n1Cc1ccccc1 (3D coordinates assigned)
O=c1c2ccccc2nc(/C=C/c2cccnc2)n1Cc1ccccc1 (optimized conformer: 63.49761234006124 kcal/mol)

>  <smiles>  (9) 
O=c1c2ccccc2nc(/C=C/c2cccnc2)n1Cc1ccccc1

>  <score_type>  (9) 
oracle

>  <origin>  (9) 
autodockgpu

>  <m_score__min__energy>  (9) 
-7.3799999999999999

>  <m_primary>  (9) 
energy

>  <meeko>  (9) 
{"free_energy": -7.13, "intermolecular_energy": -8.63, "internal_energy": -1.35, "cluster_size": 2, "cluster_id": 2, "rank_in_cluster": 2}

>  <energy>  (9) 
-7.12

>  <cluster_rmsd>  (9) 
0.64

>  <rmsd>  (9) 
271.26

>  <cluster>  (9) 
1

$$$$
GEKDQXSPTHHANP-OUKQBFOZNA-N
     RDKit          3D

 43 46  0  0  0  0  0  0  0  0999 V2000
  141.2230   70.6428  220.8111 H   0  0  0  0  0  0  0  0  0  0  0  0
  140.5110   71.2560  221.3830 C   0  0  0  0  0  0  0  0  0  0  0  0
  139.5120   70.6480  222.0320 C   0  0  0  0  0  0  0  0  0  0  0  0
  138.5703   70.4310  221.5065 H   0  0  0  0  0  0  0  0  0  0  0  0
  139.6660   70.2670  223.4480 C   0  0  0  0  0  0  0  0  0  0  0  0
  140.2050   71.1820  224.2980 N   0  0  0  0  0  0  0  0  0  0  0  0
  140.3840   70.9140  225.6110 C   0  0  0  0  0  0  0  0  0  0  0  0
  140.9270   71.8870  226.4570 C   0  0  0  0  0  0  0  0  0  0  0  0
  141.2098   72.8707  226.0539 H   0  0  0  0  0  0  0  0  0  0  0  0
  141.1100   71.6090  227.8140 C   0  0  0  0  0  0  0  0  0  0  0  0
  141.5338   72.3756  228.4793 H   0  0  0  0  0  0  0  0  0  0  0  0
  140.7550   70.3570  228.3280 C   0  0  0  0  0  0  0  0  0  0  0  0
  140.9006   70.1417  229.3969 H   0  0  0  0  0  0  0  0  0  0  0  0
  140.2170   69.3810  227.4890 C   0  0  0  0  0  0  0  0  0  0  0  0
  139.9439   68.3964  227.8965 H   0  0  0  0  0  0  0  0  0  0  0  0
  140.0230   69.6540  226.1220 C   0  0  0  0  0  0  0  0  0  0  0  0
  139.4810   68.7050  225.2340 C   0  0  0  0  0  0  0  0  0  0  0  0
  139.1720   67.5560  225.6660 O   0  0  0  0  0  0  0  0  0  0  0  0
  139.3010   69.0190  223.9070 N   0  0  0  0  0  0  0  0  0  0  0  0
  138.7920   67.9980  222.9580 C   0  0  0  0  0  0  0  0  0  0  0  0
  139.2774   68.1398  221.9811 H   0  0  0  0  0  0  0  0  0  0  0  0
  139.0213   66.9993  223.3579 H   0  0  0  0  0  0  0  0  0  0  0  0
  137.2940   68.1210  222.7900 C   0  0  0  0  0  0  0  0  0  0  0  0
  136.6160   67.3440  221.8300 C   0  0  0  0  0  0  0  0  0  0  0  0
  137.1653   66.5890  221.2484 H   0  0  0  0  0  0  0  0  0  0  0  0
  135.2450   67.5300  221.6140 C   0  0  0  0  0  0  0  0  0  0  0  0
  134.7224   66.9302  220.8543 H   0  0  0  0  0  0  0  0  0  0  0  0
  134.5370   68.4800  222.3650 C   0  0  0  0  0  0  0  0  0  0  0  0
  133.4633   68.6349  222.1829 H   0  0  0  0  0  0  0  0  0  0  0  0
  135.1960   69.2320  223.3470 C   0  0  0  0  0  0  0  0  0  0  0  0
  134.6366   69.9671  223.9442 H   0  0  0  0  0  0  0  0  0  0  0  0
  136.5650   69.0480  223.5680 C   0  0  0  0  0  0  0  0  0  0  0  0
  137.0761   69.6275  224.3509 H   0  0  0  0  0  0  0  0  0  0  0  0
  140.6920   72.7220  221.4070 C   0  0  0  0  0  0  0  0  0  0  0  0
  139.7540   73.5780  222.0150 C   0  0  0  0  0  0  0  0  0  0  0  0
  138.8496   73.1592  222.4805 H   0  0  0  0  0  0  0  0  0  0  0  0
  139.9640   74.9230  222.0280 N   0  0  0  0  0  0  0  0  0  0  0  0
  141.0660   75.4820  221.4600 C   0  0  0  0  0  0  0  0  0  0  0  0
  141.2020   76.5733  221.4822 H   0  0  0  0  0  0  0  0  0  0  0  0
  142.0260   74.6710  220.8480 C   0  0  0  0  0  0  0  0  0  0  0  0
  142.9170   75.1179  220.3828 H   0  0  0  0  0  0  0  0  0  0  0  0
  141.8410   73.2870  220.8340 C   0  0  0  0  0  0  0  0  0  0  0  0
  142.5990   72.6374  220.3720 H   0  0  0  0  0  0  0  0  0  0  0  0
  1  2  1  0
  2  3  2  0
  3  4  1  0
  3  5  1  0
  5  6  2  0
  6  7  1  0
  7  8  2  0
  8  9  1  0
  8 10  1  0
 10 11  1  0
 10 12  2  0
 12 13  1  0
 12 14  1  0
 14 15  1  0
 14 16  2  0
 16 17  1  0
 17 18  2  0
 17 19  1  0
 19 20  1  0
 20 21  1  0
 20 22  1  0
 20 23  1  0
 23 24  2  0
 24 25  1  0
 24 26  1  0
 26 27  1  0
 26 28  2  0
 28 29  1  0
 28 30  1  0
 30 31  1  0
 30 32  2  0
 32 33  1  0
  2 34  1  0
 34 35  2  0
 35 36  1  0
 35 37  1  0
 37 38  2  0
 38 39  1  0
 38 40  1  0
 40 41  1  0
 40 42  2  0
 42 43  1  0
 19  5  1  0
 32 23  1  0
 42 34  1  0
 16  7  1  0
M  END
>  <UniqueID>  (10) 
21

>  <SMILES>  (10) 
O=c1c2ccccc2nc(/C=C/c2cccnc2)n1Cc1ccccc1

>  <Energy>  (10) 
63.49761234006124

>  <Genealogy>  (10) 
O=c1c2ccccc2nc(/C=C/c2cccnc2)n1Cc1ccccc1 (cis-trans isomerization)
O=c1c2ccccc2nc(/C=C/c2cccnc2)n1Cc1ccccc1 (3D coordinates assigned)
O=c1c2ccccc2nc(/C=C/c2cccnc2)n1Cc1ccccc1 (optimized conformer: 63.49761234006124 kcal/mol)

>  <smiles>  (10) 
O=c1c2ccccc2nc(/C=C/c2cccnc2)n1Cc1ccccc1

>  <score_type>  (10) 
oracle

>  <origin>  (10) 
autodockgpu

>  <m_score__min__energy>  (10) 
-7.3799999999999999

>  <m_primary>  (10) 
energy

>  <meeko>  (10) 
{"free_energy": -7.3, "intermolecular_energy": -8.79, "internal_energy": -1.23, "cluster_size": 10, "cluster_id": 1, "rank_in_cluster": 4}

>  <energy>  (10) 
-7.07

>  <cluster_rmsd>  (10) 
0.67

>  <rmsd>  (10) 
271.22

>  <cluster>  (10) 
1

$$$$
GEKDQXSPTHHANP-OUKQBFOZNA-N
     RDKit          3D

 43 46  0  0  0  0  0  0  0  0999 V2000
  139.3018   76.6167  223.5671 H   0  0  0  0  0  0  0  0  0  0  0  0
  139.0410   77.2550  222.7100 C   0  0  0  0  0  0  0  0  0  0  0  0
  139.1470   76.7520  221.4760 C   0  0  0  0  0  0  0  0  0  0  0  0
  138.2700   76.7426  220.8121 H   0  0  0  0  0  0  0  0  0  0  0  0
  140.4320   76.2100  221.0000 C   0  0  0  0  0  0  0  0  0  0  0  0
  140.7280   74.9180  221.3000 N   0  0  0  0  0  0  0  0  0  0  0  0
  141.8860   74.3420  220.9050 C   0  0  0  0  0  0  0  0  0  0  0  0
  142.1470   73.0040  221.2210 C   0  0  0  0  0  0  0  0  0  0  0  0
  141.4108   72.4200  221.7928 H   0  0  0  0  0  0  0  0  0  0  0  0
  143.3430   72.4100  220.8100 C   0  0  0  0  0  0  0  0  0  0  0  0
  143.5455   71.3569  221.0548 H   0  0  0  0  0  0  0  0  0  0  0  0
  144.2830   73.1520  220.0880 C   0  0  0  0  0  0  0  0  0  0  0  0
  145.2238   72.6811  219.7667 H   0  0  0  0  0  0  0  0  0  0  0  0
  144.0310   74.4880  219.7740 C   0  0  0  0  0  0  0  0  0  0  0  0
  144.7756   75.0694  219.2104 H   0  0  0  0  0  0  0  0  0  0  0  0
  142.8260   75.0930  220.1770 C   0  0  0  0  0  0  0  0  0  0  0  0
  142.5230   76.4360  219.8830 C   0  0  0  0  0  0  0  0  0  0  0  0
  143.3630   77.1390  219.2500 O   0  0  0  0  0  0  0  0  0  0  0  0
  141.3270   76.9830  220.2900 N   0  0  0  0  0  0  0  0  0  0  0  0
  141.0340   78.4160  220.0380 C   0  0  0  0  0  0  0  0  0  0  0  0
  141.5109   78.7214  219.0950 H   0  0  0  0  0  0  0  0  0  0  0  0
  139.9437   78.5477  219.9753 H   0  0  0  0  0  0  0  0  0  0  0  0
  141.5630   79.2770  221.1630 C   0  0  0  0  0  0  0  0  0  0  0  0
  142.1640   78.6880  222.2940 C   0  0  0  0  0  0  0  0  0  0  0  0
  142.3176   77.5993  222.3287 H   0  0  0  0  0  0  0  0  0  0  0  0
  142.5660   79.4840  223.3730 C   0  0  0  0  0  0  0  0  0  0  0  0
  143.0247   79.0184  224.2578 H   0  0  0  0  0  0  0  0  0  0  0  0
  142.3850   80.8740  223.3280 C   0  0  0  0  0  0  0  0  0  0  0  0
  142.6864   81.4950  224.1845 H   0  0  0  0  0  0  0  0  0  0  0  0
  141.8210   81.4730  222.1940 C   0  0  0  0  0  0  0  0  0  0  0  0
  141.6926   82.5648  222.1549 H   0  0  0  0  0  0  0  0  0  0  0  0
  141.4210   80.6820  221.1110 C   0  0  0  0  0  0  0  0  0  0  0  0
  140.9940   81.1562  220.2150 H   0  0  0  0  0  0  0  0  0  0  0  0
  138.5860   78.6380  222.9640 C   0  0  0  0  0  0  0  0  0  0  0  0
  137.4620   79.1820  222.3140 C   0  0  0  0  0  0  0  0  0  0  0  0
  136.9028   78.5769  221.5852 H   0  0  0  0  0  0  0  0  0  0  0  0
  137.0660   80.4560  222.5860 N   0  0  0  0  0  0  0  0  0  0  0  0
  137.7310   81.2390  223.4770 C   0  0  0  0  0  0  0  0  0  0  0  0
  137.3881   82.2664  223.6690 H   0  0  0  0  0  0  0  0  0  0  0  0
  138.8500   80.7390  224.1490 C   0  0  0  0  0  0  0  0  0  0  0  0
  139.3945   81.3691  224.8677 H   0  0  0  0  0  0  0  0  0  0  0  0
  139.2690   79.4310  223.8980 C   0  0  0  0  0  0  0  0  0  0  0  0
  140.1375   79.0210  224.4344 H   0  0  0  0  0  0  0  0  0  0  0  0
  1  2  1  0
  2  3  2  0
  3  4  1  0
  3  5  1  0
  5  6  2  0
  6  7  1  0
  7  8  2  0
  8  9  1  0
  8 10  1  0
 10 11  1  0
 10 12  2  0
 12 13  1  0
 12 14  1  0
 14 15  1  0
 14 16  2  0
 16 17  1  0
 17 18  2  0
 17 19  1  0
 19 20  1  0
 20 21  1  0
 20 22  1  0
 20 23  1  0
 23 24  2  0
 24 25  1  0
 24 26  1  0
 26 27  1  0
 26 28  2  0
 28 29  1  0
 28 30  1  0
 30 31  1  0
 30 32  2  0
 32 33  1  0
  2 34  1  0
 34 35  2  0
 35 36  1  0
 35 37  1  0
 37 38  2  0
 38 39  1  0
 38 40  1  0
 40 41  1  0
 40 42  2  0
 42 43  1  0
 19  5  1  0
 32 23  1  0
 42 34  1  0
 16  7  1  0
M  END
>  <UniqueID>  (11) 
21

>  <SMILES>  (11) 
O=c1c2ccccc2nc(/C=C/c2cccnc2)n1Cc1ccccc1

>  <Energy>  (11) 
63.49761234006124

>  <Genealogy>  (11) 
O=c1c2ccccc2nc(/C=C/c2cccnc2)n1Cc1ccccc1 (cis-trans isomerization)
O=c1c2ccccc2nc(/C=C/c2cccnc2)n1Cc1ccccc1 (3D coordinates assigned)
O=c1c2ccccc2nc(/C=C/c2cccnc2)n1Cc1ccccc1 (optimized conformer: 63.49761234006124 kcal/mol)

>  <smiles>  (11) 
O=c1c2ccccc2nc(/C=C/c2cccnc2)n1Cc1ccccc1

>  <score_type>  (11) 
oracle

>  <origin>  (11) 
autodockgpu

>  <m_score__min__energy>  (11) 
-7.3799999999999999

>  <m_primary>  (11) 
energy

>  <meeko>  (11) 
{"free_energy": -6.33, "intermolecular_energy": -7.82, "internal_energy": -1.85, "cluster_size": 4, "cluster_id": 4, "rank_in_cluster": 3}

>  <energy>  (11) 
-7.17

>  <cluster_rmsd>  (11) 
0.0

>  <rmsd>  (11) 
271.77

>  <cluster>  (11) 
2

$$$$
GEKDQXSPTHHANP-OUKQBFOZNA-N
     RDKit          3D

 43 46  0  0  0  0  0  0  0  0999 V2000
  141.0540   70.9082  221.0747 H   0  0  0  0  0  0  0  0  0  0  0  0
  140.3600   71.5870  221.5920 C   0  0  0  0  0  0  0  0  0  0  0  0
  139.3340   71.0650  222.2700 C   0  0  0  0  0  0  0  0  0  0  0  0
  138.3223   71.0941  221.8391 H   0  0  0  0  0  0  0  0  0  0  0  0
  139.5500   70.4500  223.5930 C   0  0  0  0  0  0  0  0  0  0  0  0
  140.0770   71.2260  224.5760 N   0  0  0  0  0  0  0  0  0  0  0  0
  140.3110   70.7420  225.8170 C   0  0  0  0  0  0  0  0  0  0  0  0
  140.8400   71.5770  226.8070 C   0  0  0  0  0  0  0  0  0  0  0  0
  141.0677   72.6282  226.5764 H   0  0  0  0  0  0  0  0  0  0  0  0
  141.0790   71.0750  228.0890 C   0  0  0  0  0  0  0  0  0  0  0  0
  141.4915   71.7331  228.8679 H   0  0  0  0  0  0  0  0  0  0  0  0
  140.7950   69.7380  228.3840 C   0  0  0  0  0  0  0  0  0  0  0  0
  140.9852   69.3467  229.3943 H   0  0  0  0  0  0  0  0  0  0  0  0
  140.2710   68.8990  227.4000 C   0  0  0  0  0  0  0  0  0  0  0  0
  140.0535   67.8466  227.6347 H   0  0  0  0  0  0  0  0  0  0  0  0
  140.0200   69.3970  226.1070 C   0  0  0  0  0  0  0  0  0  0  0  0
  139.4900   68.5930  225.0810 C   0  0  0  0  0  0  0  0  0  0  0  0
  139.2420   67.3730  225.3110 O   0  0  0  0  0  0  0  0  0  0  0  0
  139.2530   69.1250  223.8340 N   0  0  0  0  0  0  0  0  0  0  0  0
  138.7560   68.2630  222.7330 C   0  0  0  0  0  0  0  0  0  0  0  0
  139.0938   68.6759  221.7710 H   0  0  0  0  0  0  0  0  0  0  0  0
  139.1530   67.2469  222.8738 H   0  0  0  0  0  0  0  0  0  0  0  0
  137.2450   68.1990  222.7420 C   0  0  0  0  0  0  0  0  0  0  0  0
  136.4990   69.0280  223.6050 C   0  0  0  0  0  0  0  0  0  0  0  0
  137.0127   69.7786  224.2237 H   0  0  0  0  0  0  0  0  0  0  0  0
  135.1070   68.8990  223.6770 C   0  0  0  0  0  0  0  0  0  0  0  0
  134.5306   69.5402  224.3601 H   0  0  0  0  0  0  0  0  0  0  0  0
  134.4460   67.9530  222.8790 C   0  0  0  0  0  0  0  0  0  0  0  0
  133.3539   67.8421  222.9496 H   0  0  0  0  0  0  0  0  0  0  0  0
  135.1750   67.1490  221.9920 C   0  0  0  0  0  0  0  0  0  0  0  0
  134.6535   66.4175  221.3573 H   0  0  0  0  0  0  0  0  0  0  0  0
  136.5660   67.2770  221.9140 C   0  0  0  0  0  0  0  0  0  0  0  0
  137.1338   66.6569  221.2047 H   0  0  0  0  0  0  0  0  0  0  0  0
  140.5960   73.0430  221.5120 C   0  0  0  0  0  0  0  0  0  0  0  0
  139.6840   73.9750  222.0440 C   0  0  0  0  0  0  0  0  0  0  0  0
  138.7600   73.6243  222.5270 H   0  0  0  0  0  0  0  0  0  0  0  0
  139.9430   75.3080  221.9620 N   0  0  0  0  0  0  0  0  0  0  0  0
  141.0720   75.7840  221.3720 C   0  0  0  0  0  0  0  0  0  0  0  0
  141.2488   76.8684  221.3189 H   0  0  0  0  0  0  0  0  0  0  0  0
  142.0080   74.8970  220.8330 C   0  0  0  0  0  0  0  0  0  0  0  0
  142.9202   75.2764  220.3493 H   0  0  0  0  0  0  0  0  0  0  0  0
  141.7710   73.5230  220.9160 C   0  0  0  0  0  0  0  0  0  0  0  0
  142.5092   72.8145  220.5121 H   0  0  0  0  0  0  0  0  0  0  0  0
  1  2  1  0
  2  3  2  0
  3  4  1  0
  3  5  1  0
  5  6  2  0
  6  7  1  0
  7  8  2  0
  8  9  1  0
  8 10  1  0
 10 11  1  0
 10 12  2  0
 12 13  1  0
 12 14  1  0
 14 15  1  0
 14 16  2  0
 16 17  1  0
 17 18  2  0
 17 19  1  0
 19 20  1  0
 20 21  1  0
 20 22  1  0
 20 23  1  0
 23 24  2  0
 24 25  1  0
 24 26  1  0
 26 27  1  0
 26 28  2  0
 28 29  1  0
 28 30  1  0
 30 31  1  0
 30 32  2  0
 32 33  1  0
  2 34  1  0
 34 35  2  0
 35 36  1  0
 35 37  1  0
 37 38  2  0
 38 39  1  0
 38 40  1  0
 40 41  1  0
 40 42  2  0
 42 43  1  0
 19  5  1  0
 32 23  1  0
 42 34  1  0
 16  7  1  0
M  END
>  <UniqueID>  (12) 
21

>  <SMILES>  (12) 
O=c1c2ccccc2nc(/C=C/c2cccnc2)n1Cc1ccccc1

>  <Energy>  (12) 
63.49761234006124

>  <Genealogy>  (12) 
O=c1c2ccccc2nc(/C=C/c2cccnc2)n1Cc1ccccc1 (cis-trans isomerization)
O=c1c2ccccc2nc(/C=C/c2cccnc2)n1Cc1ccccc1 (3D coordinates assigned)
O=c1c2ccccc2nc(/C=C/c2cccnc2)n1Cc1ccccc1 (optimized conformer: 63.49761234006124 kcal/mol)

>  <smiles>  (12) 
O=c1c2ccccc2nc(/C=C/c2cccnc2)n1Cc1ccccc1

>  <score_type>  (12) 
oracle

>  <origin>  (12) 
autodockgpu

>  <m_score__min__energy>  (12) 
-7.3799999999999999

>  <m_primary>  (12) 
energy

>  <meeko>  (12) 
{"free_energy": -7.33, "intermolecular_energy": -8.82, "internal_energy": -1.13, "cluster_size": 10, "cluster_id": 1, "rank_in_cluster": 3}

>  <energy>  (12) 
-7.13

>  <cluster_rmsd>  (12) 
0.08

>  <rmsd>  (12) 
271.73

>  <cluster>  (12) 
2

$$$$
GEKDQXSPTHHANP-OUKQBFOZNA-N
     RDKit          3D

 43 46  0  0  0  0  0  0  0  0999 V2000
  140.9541   70.7251  220.8589 H   0  0  0  0  0  0  0  0  0  0  0  0
  140.3040   71.3940  221.4420 C   0  0  0  0  0  0  0  0  0  0  0  0
  139.2930   70.8640  222.1390 C   0  0  0  0  0  0  0  0  0  0  0  0
  138.2880   70.8161  221.6944 H   0  0  0  0  0  0  0  0  0  0  0  0
  139.5180   70.3440  223.4990 C   0  0  0  0  0  0  0  0  0  0  0  0
  140.0410   71.1910  224.4250 N   0  0  0  0  0  0  0  0  0  0  0  0
  140.2820   70.7950  225.6970 C   0  0  0  0  0  0  0  0  0  0  0  0
  140.8070   71.7000  226.6240 C   0  0  0  0  0  0  0  0  0  0  0  0
  141.0266   72.7340  226.3196 H   0  0  0  0  0  0  0  0  0  0  0  0
  141.0530   71.2910  227.9380 C   0  0  0  0  0  0  0  0  0  0  0  0
  141.4617   72.0049  228.6683 H   0  0  0  0  0  0  0  0  0  0  0  0
  140.7800   69.9750  228.3250 C   0  0  0  0  0  0  0  0  0  0  0  0
  140.9758   69.6557  229.3593 H   0  0  0  0  0  0  0  0  0  0  0  0
  140.2600   69.0660  227.4030 C   0  0  0  0  0  0  0  0  0  0  0  0
  140.0513   68.0308  227.7107 H   0  0  0  0  0  0  0  0  0  0  0  0
  140.0020   69.4710  226.0800 C   0  0  0  0  0  0  0  0  0  0  0  0
  139.4760   68.5940  225.1130 C   0  0  0  0  0  0  0  0  0  0  0  0
  139.2390   67.3910  225.4280 O   0  0  0  0  0  0  0  0  0  0  0  0
  139.2320   69.0370  223.8330 N   0  0  0  0  0  0  0  0  0  0  0  0
  138.7380   68.0970  222.7960 C   0  0  0  0  0  0  0  0  0  0  0  0
  139.1419   68.3952  221.8172 H   0  0  0  0  0  0  0  0  0  0  0  0
  139.0707   67.0808  223.0542 H   0  0  0  0  0  0  0  0  0  0  0  0
  137.2280   68.1110  222.7340 C   0  0  0  0  0  0  0  0  0  0  0  0
  136.4860   68.9810  223.5580 C   0  0  0  0  0  0  0  0  0  0  0  0
  137.0080   69.7076  224.1980 H   0  0  0  0  0  0  0  0  0  0  0  0
  135.0870   68.9240  223.5650 C   0  0  0  0  0  0  0  0  0  0  0  0
  134.5131   69.5965  224.2195 H   0  0  0  0  0  0  0  0  0  0  0  0
  134.4160   68.0100  222.7380 C   0  0  0  0  0  0  0  0  0  0  0  0
  133.3174   67.9567  222.7561 H   0  0  0  0  0  0  0  0  0  0  0  0
  135.1440   67.1650  221.8890 C   0  0  0  0  0  0  0  0  0  0  0  0
  134.6162   66.4579  221.2322 H   0  0  0  0  0  0  0  0  0  0  0  0
  136.5420   67.2210  221.8770 C   0  0  0  0  0  0  0  0  0  0  0  0
  137.1100   66.5690  221.1971 H   0  0  0  0  0  0  0  0  0  0  0  0
  140.5790   72.8450  221.4270 C   0  0  0  0  0  0  0  0  0  0  0  0
  139.6850   73.7770  221.9890 C   0  0  0  0  0  0  0  0  0  0  0  0
  138.7464   73.4309  222.4463 H   0  0  0  0  0  0  0  0  0  0  0  0
  139.9810   75.1060  221.9670 N   0  0  0  0  0  0  0  0  0  0  0  0
  141.1290   75.5760  221.4100 C   0  0  0  0  0  0  0  0  0  0  0  0
  141.3347   76.6566  221.4040 H   0  0  0  0  0  0  0  0  0  0  0  0
  142.0480   74.6870  220.8450 C   0  0  0  0  0  0  0  0  0  0  0  0
  142.9763   75.0616  220.3891 H   0  0  0  0  0  0  0  0  0  0  0  0
  141.7740   73.3180  220.8660 C   0  0  0  0  0  0  0  0  0  0  0  0
  142.4984   72.6077  220.4408 H   0  0  0  0  0  0  0  0  0  0  0  0
  1  2  1  0
  2  3  2  0
  3  4  1  0
  3  5  1  0
  5  6  2  0
  6  7  1  0
  7  8  2  0
  8  9  1  0
  8 10  1  0
 10 11  1  0
 10 12  2  0
 12 13  1  0
 12 14  1  0
 14 15  1  0
 14 16  2  0
 16 17  1  0
 17 18  2  0
 17 19  1  0
 19 20  1  0
 20 21  1  0
 20 22  1  0
 20 23  1  0
 23 24  2  0
 24 25  1  0
 24 26  1  0
 26 27  1  0
 26 28  2  0
 28 29  1  0
 28 30  1  0
 30 31  1  0
 30 32  2  0
 32 33  1  0
  2 34  1  0
 34 35  2  0
 35 36  1  0
 35 37  1  0
 37 38  2  0
 38 39  1  0
 38 40  1  0
 40 41  1  0
 40 42  2  0
 42 43  1  0
 19  5  1  0
 32 23  1  0
 42 34  1  0
 16  7  1  0
M  END
>  <UniqueID>  (13) 
21

>  <SMILES>  (13) 
O=c1c2ccccc2nc(/C=C/c2cccnc2)n1Cc1ccccc1

>  <Energy>  (13) 
63.49761234006124

>  <Genealogy>  (13) 
O=c1c2ccccc2nc(/C=C/c2cccnc2)n1Cc1ccccc1 (cis-trans isomerization)
O=c1c2ccccc2nc(/C=C/c2cccnc2)n1Cc1ccccc1 (3D coordinates assigned)
O=c1c2ccccc2nc(/C=C/c2cccnc2)n1Cc1ccccc1 (optimized conformer: 63.49761234006124 kcal/mol)

>  <smiles>  (13) 
O=c1c2ccccc2nc(/C=C/c2cccnc2)n1Cc1ccccc1

>  <score_type>  (13) 
oracle

>  <origin>  (13) 
autodockgpu

>  <m_score__min__energy>  (13) 
-7.3799999999999999

>  <m_primary>  (13) 
energy

>  <meeko>  (13) 
{"free_energy": -7.38, "intermolecular_energy": -8.88, "internal_energy": -1.17, "cluster_size": 10, "cluster_id": 1, "rank_in_cluster": 1}

>  <energy>  (13) 
-7.01

>  <cluster_rmsd>  (13) 
0.0

>  <rmsd>  (13) 
271.45

>  <cluster>  (13) 
3

$$$$
GEKDQXSPTHHANP-OUKQBFOZNA-N
     RDKit          3D

 43 46  0  0  0  0  0  0  0  0999 V2000
  141.7062   80.7005  219.0352 H   0  0  0  0  0  0  0  0  0  0  0  0
  141.3530   80.0950  219.8830 C   0  0  0  0  0  0  0  0  0  0  0  0
  140.5590   79.0470  219.6400 C   0  0  0  0  0  0  0  0  0  0  0  0
  139.6058   79.1939  219.1110 H   0  0  0  0  0  0  0  0  0  0  0  0
  140.9540   77.6960  220.0770 C   0  0  0  0  0  0  0  0  0  0  0  0
  142.1920   77.2520  219.7310 N   0  0  0  0  0  0  0  0  0  0  0  0
  142.6340   76.0240  220.0870 C   0  0  0  0  0  0  0  0  0  0  0  0
  143.9200   75.6100  219.7250 C   0  0  0  0  0  0  0  0  0  0  0  0
  144.5723   76.2819  219.1478 H   0  0  0  0  0  0  0  0  0  0  0  0
  144.3760   74.3420  220.0970 C   0  0  0  0  0  0  0  0  0  0  0  0
  145.3890   74.0181  219.8159 H   0  0  0  0  0  0  0  0  0  0  0  0
  143.5460   73.4850  220.8260 C   0  0  0  0  0  0  0  0  0  0  0  0
  143.9079   72.4877  221.1166 H   0  0  0  0  0  0  0  0  0  0  0  0
  142.2610   73.8900  221.1860 C   0  0  0  0  0  0  0  0  0  0  0  0
  141.6098   73.2097  221.7545 H   0  0  0  0  0  0  0  0  0  0  0  0
  141.7960   75.1680  220.8230 C   0  0  0  0  0  0  0  0  0  0  0  0
  140.5090   75.6250  221.1650 C   0  0  0  0  0  0  0  0  0  0  0  0
  139.7280   74.8630  221.8050 O   0  0  0  0  0  0  0  0  0  0  0  0
  140.1000   76.8870  220.7950 N   0  0  0  0  0  0  0  0  0  0  0  0
  138.7210   77.3450  221.0980 C   0  0  0  0  0  0  0  0  0  0  0  0
  138.2663   77.7512  220.1824 H   0  0  0  0  0  0  0  0  0  0  0  0
  138.1375   76.4887  221.4671 H   0  0  0  0  0  0  0  0  0  0  0  0
  138.7350   78.4180  222.1630 C   0  0  0  0  0  0  0  0  0  0  0  0
  137.7730   79.4490  222.1530 C   0  0  0  0  0  0  0  0  0  0  0  0
  136.9614   79.4341  221.4106 H   0  0  0  0  0  0  0  0  0  0  0  0
  137.8470   80.4910  223.0840 C   0  0  0  0  0  0  0  0  0  0  0  0
  137.1010   81.2991  223.0640 H   0  0  0  0  0  0  0  0  0  0  0  0
  138.8710   80.5070  224.0430 C   0  0  0  0  0  0  0  0  0  0  0  0
  138.9362   81.3353  224.7638 H   0  0  0  0  0  0  0  0  0  0  0  0
  139.8110   79.4680  224.0830 C   0  0  0  0  0  0  0  0  0  0  0  0
  140.6054   79.4749  224.8438 H   0  0  0  0  0  0  0  0  0  0  0  0
  139.7400   78.4230  223.1570 C   0  0  0  0  0  0  0  0  0  0  0  0
  140.4695   77.6009  223.2021 H   0  0  0  0  0  0  0  0  0  0  0  0
  141.7730   80.4690  221.2490 C   0  0  0  0  0  0  0  0  0  0  0  0
  141.3950   81.6930  221.8340 C   0  0  0  0  0  0  0  0  0  0  0  0
  140.7795   82.4062  221.2660 H   0  0  0  0  0  0  0  0  0  0  0  0
  141.7900   81.9950  223.1010 N   0  0  0  0  0  0  0  0  0  0  0  0
  142.5530   81.1430  223.8370 C   0  0  0  0  0  0  0  0  0  0  0  0
  142.8588   81.4204  224.8566 H   0  0  0  0  0  0  0  0  0  0  0  0
  142.9490   79.9150  223.2990 C   0  0  0  0  0  0  0  0  0  0  0  0
  143.5710   79.2241  223.8870 H   0  0  0  0  0  0  0  0  0  0  0  0
  142.5450   79.5760  222.0050 C   0  0  0  0  0  0  0  0  0  0  0  0
  142.8340   78.6044  221.5779 H   0  0  0  0  0  0  0  0  0  0  0  0
  1  2  1  0
  2  3  2  0
  3  4  1  0
  3  5  1  0
  5  6  2  0
  6  7  1  0
  7  8  2  0
  8  9  1  0
  8 10  1  0
 10 11  1  0
 10 12  2  0
 12 13  1  0
 12 14  1  0
 14 15  1  0
 14 16  2  0
 16 17  1  0
 17 18  2  0
 17 19  1  0
 19 20  1  0
 20 21  1  0
 20 22  1  0
 20 23  1  0
 23 24  2  0
 24 25  1  0
 24 26  1  0
 26 27  1  0
 26 28  2  0
 28 29  1  0
 28 30  1  0
 30 31  1  0
 30 32  2  0
 32 33  1  0
  2 34  1  0
 34 35  2  0
 35 36  1  0
 35 37  1  0
 37 38  2  0
 38 39  1  0
 38 40  1  0
 40 41  1  0
 40 42  2  0
 42 43  1  0
 19  5  1  0
 32 23  1  0
 42 34  1  0
 16  7  1  0
M  END
>  <UniqueID>  (14) 
21

>  <SMILES>  (14) 
O=c1c2ccccc2nc(/C=C/c2cccnc2)n1Cc1ccccc1

>  <Energy>  (14) 
63.49761234006124

>  <Genealogy>  (14) 
O=c1c2ccccc2nc(/C=C/c2cccnc2)n1Cc1ccccc1 (cis-trans isomerization)
O=c1c2ccccc2nc(/C=C/c2cccnc2)n1Cc1ccccc1 (3D coordinates assigned)
O=c1c2ccccc2nc(/C=C/c2cccnc2)n1Cc1ccccc1 (optimized conformer: 63.49761234006124 kcal/mol)

>  <smiles>  (14) 
O=c1c2ccccc2nc(/C=C/c2cccnc2)n1Cc1ccccc1

>  <score_type>  (14) 
oracle

>  <origin>  (14) 
autodockgpu

>  <m_score__min__energy>  (14) 
-7.3799999999999999

>  <m_primary>  (14) 
energy

>  <meeko>  (14) 
{"free_energy": -6.24, "intermolecular_energy": -7.73, "internal_energy": -1.99, "cluster_size": 4, "cluster_id": 4, "rank_in_cluster": 4}

>  <energy>  (14) 
-6.88

>  <cluster_rmsd>  (14) 
0.49

>  <rmsd>  (14) 
271.29

>  <cluster>  (14) 
3

$$$$
GEKDQXSPTHHANP-OUKQBFOZNA-N
     RDKit          3D

 43 46  0  0  0  0  0  0  0  0999 V2000
  141.6092   80.6072  219.0873 H   0  0  0  0  0  0  0  0  0  0  0  0
  141.2750   80.0300  219.9620 C   0  0  0  0  0  0  0  0  0  0  0  0
  140.4700   78.9800  219.7720 C   0  0  0  0  0  0  0  0  0  0  0  0
  139.4846   79.1240  219.3048 H   0  0  0  0  0  0  0  0  0  0  0  0
  140.8950   77.6300  220.1850 C   0  0  0  0  0  0  0  0  0  0  0  0
  142.1160   77.1950  219.7740 N   0  0  0  0  0  0  0  0  0  0  0  0
  142.5830   75.9690  220.1050 C   0  0  0  0  0  0  0  0  0  0  0  0
  143.8510   75.5640  219.6770 C   0  0  0  0  0  0  0  0  0  0  0  0
  144.4691   76.2416  219.0697 H   0  0  0  0  0  0  0  0  0  0  0  0
  144.3330   74.2980  220.0210 C   0  0  0  0  0  0  0  0  0  0  0  0
  145.3322   73.9815  219.6871 H   0  0  0  0  0  0  0  0  0  0  0  0
  143.5470   73.4330  220.7890 C   0  0  0  0  0  0  0  0  0  0  0  0
  143.9292   72.4370  221.0572 H   0  0  0  0  0  0  0  0  0  0  0  0
  142.2790   73.8300  221.2160 C   0  0  0  0  0  0  0  0  0  0  0  0
  141.6622   73.1448  221.8161 H   0  0  0  0  0  0  0  0  0  0  0  0
  141.7880   75.1060  220.8800 C   0  0  0  0  0  0  0  0  0  0  0  0
  140.5180   75.5540  221.2880 C   0  0  0  0  0  0  0  0  0  0  0  0
  139.7750   74.7860  221.9660 O   0  0  0  0  0  0  0  0  0  0  0  0
  140.0830   76.8140  220.9430 N   0  0  0  0  0  0  0  0  0  0  0  0
  138.7190   77.2630  221.3170 C   0  0  0  0  0  0  0  0  0  0  0  0
  138.1759   77.5620  220.4083 H   0  0  0  0  0  0  0  0  0  0  0  0
  138.1994   76.4328  221.8178 H   0  0  0  0  0  0  0  0  0  0  0  0
  138.7820   78.4380  222.2660 C   0  0  0  0  0  0  0  0  0  0  0  0
  139.7850   78.5060  223.2550 C   0  0  0  0  0  0  0  0  0  0  0  0
  140.5719   77.7382  223.2911 H   0  0  0  0  0  0  0  0  0  0  0  0
  139.7830   79.5470  224.1910 C   0  0  0  0  0  0  0  0  0  0  0  0
  140.5606   79.5889  224.9679 H   0  0  0  0  0  0  0  0  0  0  0  0
  138.7900   80.5370  224.1390 C   0  0  0  0  0  0  0  0  0  0  0  0
  138.7811   81.3453  224.8850 H   0  0  0  0  0  0  0  0  0  0  0  0
  137.8100   80.4980  223.1390 C   0  0  0  0  0  0  0  0  0  0  0  0
  137.0401   81.2823  223.0928 H   0  0  0  0  0  0  0  0  0  0  0  0
  137.8100   79.4620  222.1990 C   0  0  0  0  0  0  0  0  0  0  0  0
  137.0500   79.4442  221.4040 H   0  0  0  0  0  0  0  0  0  0  0  0
  141.7320   80.4430  221.3050 C   0  0  0  0  0  0  0  0  0  0  0  0
  141.3560   81.6750  221.8720 C   0  0  0  0  0  0  0  0  0  0  0  0
  140.7133   82.3660  221.3068 H   0  0  0  0  0  0  0  0  0  0  0  0
  141.7860   82.0130  223.1180 N   0  0  0  0  0  0  0  0  0  0  0  0
  142.5840   81.1900  223.8490 C   0  0  0  0  0  0  0  0  0  0  0  0
  142.9182   81.4964  224.8512 H   0  0  0  0  0  0  0  0  0  0  0  0
  142.9800   79.9550  223.3280 C   0  0  0  0  0  0  0  0  0  0  0  0
  143.6299   79.2871  223.9124 H   0  0  0  0  0  0  0  0  0  0  0  0
  142.5410   79.5790  222.0570 C   0  0  0  0  0  0  0  0  0  0  0  0
  142.8308   78.6015  221.6441 H   0  0  0  0  0  0  0  0  0  0  0  0
  1  2  1  0
  2  3  2  0
  3  4  1  0
  3  5  1  0
  5  6  2  0
  6  7  1  0
  7  8  2  0
  8  9  1  0
  8 10  1  0
 10 11  1  0
 10 12  2  0
 12 13  1  0
 12 14  1  0
 14 15  1  0
 14 16  2  0
 16 17  1  0
 17 18  2  0
 17 19  1  0
 19 20  1  0
 20 21  1  0
 20 22  1  0
 20 23  1  0
 23 24  2  0
 24 25  1  0
 24 26  1  0
 26 27  1  0
 26 28  2  0
 28 29  1  0
 28 30  1  0
 30 31  1  0
 30 32  2  0
 32 33  1  0
  2 34  1  0
 34 35  2  0
 35 36  1  0
 35 37  1  0
 37 38  2  0
 38 39  1  0
 38 40  1  0
 40 41  1  0
 40 42  2  0
 42 43  1  0
 19  5  1  0
 32 23  1  0
 42 34  1  0
 16  7  1  0
M  END
>  <UniqueID>  (15) 
21

>  <SMILES>  (15) 
O=c1c2ccccc2nc(/C=C/c2cccnc2)n1Cc1ccccc1

>  <Energy>  (15) 
63.49761234006124

>  <Genealogy>  (15) 
O=c1c2ccccc2nc(/C=C/c2cccnc2)n1Cc1ccccc1 (cis-trans isomerization)
O=c1c2ccccc2nc(/C=C/c2cccnc2)n1Cc1ccccc1 (3D coordinates assigned)
O=c1c2ccccc2nc(/C=C/c2cccnc2)n1Cc1ccccc1 (optimized conformer: 63.49761234006124 kcal/mol)

>  <smiles>  (15) 
O=c1c2ccccc2nc(/C=C/c2cccnc2)n1Cc1ccccc1

>  <score_type>  (15) 
oracle

>  <origin>  (15) 
autodockgpu

>  <m_score__min__energy>  (15) 
-7.3799999999999999

>  <m_primary>  (15) 
energy

>  <meeko>  (15) 
{"free_energy": -6.35, "intermolecular_energy": -7.84, "internal_energy": -1.92, "cluster_size": 4, "cluster_id": 4, "rank_in_cluster": 2}

>  <energy>  (15) 
-6.85

>  <cluster_rmsd>  (15) 
0.5

>  <rmsd>  (15) 
271.27

>  <cluster>  (15) 
3

$$$$
GEKDQXSPTHHANP-OUKQBFOZNA-N
     RDKit          3D

 43 46  0  0  0  0  0  0  0  0999 V2000
  135.4110   69.4150  222.2696 H   0  0  0  0  0  0  0  0  0  0  0  0
  135.9170   69.3240  223.2420 C   0  0  0  0  0  0  0  0  0  0  0  0
  137.1800   68.8860  223.2730 C   0  0  0  0  0  0  0  0  0  0  0  0
  137.4628   67.9900  222.7009 H   0  0  0  0  0  0  0  0  0  0  0  0
  138.1950   69.5980  224.0700 C   0  0  0  0  0  0  0  0  0  0  0  0
  138.3770   69.2100  225.3610 N   0  0  0  0  0  0  0  0  0  0  0  0
  139.2850   69.8100  226.1640 C   0  0  0  0  0  0  0  0  0  0  0  0
  139.4530   69.3720  227.4820 C   0  0  0  0  0  0  0  0  0  0  0  0
  138.8453   68.5399  227.8670 H   0  0  0  0  0  0  0  0  0  0  0  0
  140.3930   69.9920  228.3090 C   0  0  0  0  0  0  0  0  0  0  0  0
  140.5273   69.6447  229.3441 H   0  0  0  0  0  0  0  0  0  0  0  0
  141.1640   71.0540  227.8230 C   0  0  0  0  0  0  0  0  0  0  0  0
  141.9033   71.5397  228.4769 H   0  0  0  0  0  0  0  0  0  0  0  0
  140.9970   71.4980  226.5110 C   0  0  0  0  0  0  0  0  0  0  0  0
  141.6007   72.3370  226.1346 H   0  0  0  0  0  0  0  0  0  0  0  0
  140.0580   70.8750  225.6680 C   0  0  0  0  0  0  0  0  0  0  0  0
  139.8550   71.2840  224.3360 C   0  0  0  0  0  0  0  0  0  0  0  0
  140.5220   72.2560  223.8750 O   0  0  0  0  0  0  0  0  0  0  0  0
  138.9310   70.6390  223.5460 N   0  0  0  0  0  0  0  0  0  0  0  0
  138.6690   71.1100  222.1630 C   0  0  0  0  0  0  0  0  0  0  0  0
  139.6165   71.1350  221.6048 H   0  0  0  0  0  0  0  0  0  0  0  0
  137.9604   70.4189  221.6831 H   0  0  0  0  0  0  0  0  0  0  0  0
  138.0630   72.4960  222.1740 C   0  0  0  0  0  0  0  0  0  0  0  0
  138.8340   73.6170  221.8060 C   0  0  0  0  0  0  0  0  0  0  0  0
  139.8609   73.4788  221.4367 H   0  0  0  0  0  0  0  0  0  0  0  0
  138.2970   74.9060  221.9090 C   0  0  0  0  0  0  0  0  0  0  0  0
  138.9066   75.7787  221.6321 H   0  0  0  0  0  0  0  0  0  0  0  0
  136.9820   75.0860  222.3650 C   0  0  0  0  0  0  0  0  0  0  0  0
  136.5676   76.1005  222.4596 H   0  0  0  0  0  0  0  0  0  0  0  0
  136.1960   73.9750  222.7000 C   0  0  0  0  0  0  0  0  0  0  0  0
  135.1612   74.1175  223.0448 H   0  0  0  0  0  0  0  0  0  0  0  0
  136.7270   72.6850  222.5960 C   0  0  0  0  0  0  0  0  0  0  0  0
  136.1024   71.8140  222.8436 H   0  0  0  0  0  0  0  0  0  0  0  0
  135.1770   69.6900  224.4670 C   0  0  0  0  0  0  0  0  0  0  0  0
  134.6400   68.7170  225.3310 C   0  0  0  0  0  0  0  0  0  0  0  0
  134.7571   67.6490  225.0951 H   0  0  0  0  0  0  0  0  0  0  0  0
  133.9760   69.0950  226.4580 N   0  0  0  0  0  0  0  0  0  0  0  0
  133.8060   70.4040  226.7850 C   0  0  0  0  0  0  0  0  0  0  0  0
  133.2596   70.6753  227.7003 H   0  0  0  0  0  0  0  0  0  0  0  0
  134.3250   71.4050  225.9590 C   0  0  0  0  0  0  0  0  0  0  0  0
  134.1861   72.4656  226.2156 H   0  0  0  0  0  0  0  0  0  0  0  0
  135.0220   71.0430  224.8040 C   0  0  0  0  0  0  0  0  0  0  0  0
  135.4510   71.8217  224.1562 H   0  0  0  0  0  0  0  0  0  0  0  0
  1  2  1  0
  2  3  2  0
  3  4  1  0
  3  5  1  0
  5  6  2  0
  6  7  1  0
  7  8  2  0
  8  9  1  0
  8 10  1  0
 10 11  1  0
 10 12  2  0
 12 13  1  0
 12 14  1  0
 14 15  1  0
 14 16  2  0
 16 17  1  0
 17 18  2  0
 17 19  1  0
 19 20  1  0
 20 21  1  0
 20 22  1  0
 20 23  1  0
 23 24  2  0
 24 25  1  0
 24 26  1  0
 26 27  1  0
 26 28  2  0
 28 29  1  0
 28 30  1  0
 30 31  1  0
 30 32  2  0
 32 33  1  0
  2 34  1  0
 34 35  2  0
 35 36  1  0
 35 37  1  0
 37 38  2  0
 38 39  1  0
 38 40  1  0
 40 41  1  0
 40 42  2  0
 42 43  1  0
 19  5  1  0
 32 23  1  0
 42 34  1  0
 16  7  1  0
M  END
>  <UniqueID>  (16) 
21

>  <SMILES>  (16) 
O=c1c2ccccc2nc(/C=C/c2cccnc2)n1Cc1ccccc1

>  <Energy>  (16) 
63.49761234006124

>  <Genealogy>  (16) 
O=c1c2ccccc2nc(/C=C/c2cccnc2)n1Cc1ccccc1 (cis-trans isomerization)
O=c1c2ccccc2nc(/C=C/c2cccnc2)n1Cc1ccccc1 (3D coordinates assigned)
O=c1c2ccccc2nc(/C=C/c2cccnc2)n1Cc1ccccc1 (optimized conformer: 63.49761234006124 kcal/mol)

>  <smiles>  (16) 
O=c1c2ccccc2nc(/C=C/c2cccnc2)n1Cc1ccccc1

>  <score_type>  (16) 
oracle

>  <origin>  (16) 
autodockgpu

>  <m_score__min__energy>  (16) 
-7.3799999999999999

>  <m_primary>  (16) 
energy

>  <meeko>  (16) 
{"free_energy": -6.6, "intermolecular_energy": -8.09, "internal_energy": -1.71, "cluster_size": 4, "cluster_id": 3, "rank_in_cluster": 4}

>  <energy>  (16) 
-6.6

>  <cluster_rmsd>  (16) 
1.59

>  <rmsd>  (16) 
271.21

>  <cluster>  (16) 
3

$$$$
GEKDQXSPTHHANP-OUKQBFOZNA-N
     RDKit          3D

 43 46  0  0  0  0  0  0  0  0999 V2000
  137.4951   71.6570  221.5851 H   0  0  0  0  0  0  0  0  0  0  0  0
  138.5430   71.8650  221.8470 C   0  0  0  0  0  0  0  0  0  0  0  0
  139.3610   70.8380  222.0980 C   0  0  0  0  0  0  0  0  0  0  0  0
  139.8878   70.3430  221.2689 H   0  0  0  0  0  0  0  0  0  0  0  0
  139.5610   70.3650  223.4800 C   0  0  0  0  0  0  0  0  0  0  0  0
  140.0970   71.2350  224.3770 N   0  0  0  0  0  0  0  0  0  0  0  0
  140.3180   70.8830  225.6650 C   0  0  0  0  0  0  0  0  0  0  0  0
  140.8560   71.8110  226.5620 C   0  0  0  0  0  0  0  0  0  0  0  0
  141.1013   72.8275  226.2206 H   0  0  0  0  0  0  0  0  0  0  0  0
  141.0820   71.4470  227.8920 C   0  0  0  0  0  0  0  0  0  0  0  0
  141.5027   72.1784  228.5978 H   0  0  0  0  0  0  0  0  0  0  0  0
  140.7740   70.1540  228.3270 C   0  0  0  0  0  0  0  0  0  0  0  0
  140.9525   69.8709  229.3749 H   0  0  0  0  0  0  0  0  0  0  0  0
  140.2410   69.2220  227.4360 C   0  0  0  0  0  0  0  0  0  0  0  0
  140.0056   68.2044  227.7812 H   0  0  0  0  0  0  0  0  0  0  0  0
  140.0040   69.5820  226.0960 C   0  0  0  0  0  0  0  0  0  0  0  0
  139.4650   68.6800  225.1590 C   0  0  0  0  0  0  0  0  0  0  0  0
  139.1970   67.4970  225.5170 O   0  0  0  0  0  0  0  0  0  0  0  0
  139.2420   69.0800  223.8600 N   0  0  0  0  0  0  0  0  0  0  0  0
  138.7350   68.1120  222.8560 C   0  0  0  0  0  0  0  0  0  0  0  0
  139.1560   68.3607  221.8706 H   0  0  0  0  0  0  0  0  0  0  0  0
  139.0395   67.0990  223.1579 H   0  0  0  0  0  0  0  0  0  0  0  0
  137.2260   68.1610  222.7770 C   0  0  0  0  0  0  0  0  0  0  0  0
  136.4970   69.0700  223.5700 C   0  0  0  0  0  0  0  0  0  0  0  0
  137.0299   69.8002  224.1968 H   0  0  0  0  0  0  0  0  0  0  0  0
  135.0970   69.0470  223.5630 C   0  0  0  0  0  0  0  0  0  0  0  0
  134.5328   69.7509  224.1924 H   0  0  0  0  0  0  0  0  0  0  0  0
  134.4130   68.1270  222.7540 C   0  0  0  0  0  0  0  0  0  0  0  0
  133.3134   68.0994  222.7625 H   0  0  0  0  0  0  0  0  0  0  0  0
  135.1290   67.2430  221.9350 C   0  0  0  0  0  0  0  0  0  0  0  0
  134.5908   66.5317  221.2913 H   0  0  0  0  0  0  0  0  0  0  0  0
  136.5270   67.2650  221.9360 C   0  0  0  0  0  0  0  0  0  0  0  0
  137.0857   66.5819  221.2793 H   0  0  0  0  0  0  0  0  0  0  0  0
  138.9970   73.2700  221.9090 C   0  0  0  0  0  0  0  0  0  0  0  0
  140.3630   73.6110  221.9160 C   0  0  0  0  0  0  0  0  0  0  0  0
  141.1267   72.8199  221.8859 H   0  0  0  0  0  0  0  0  0  0  0  0
  140.7400   74.9180  221.9600 N   0  0  0  0  0  0  0  0  0  0  0  0
  139.8300   75.9260  222.0010 C   0  0  0  0  0  0  0  0  0  0  0  0
  140.1697   76.9715  222.0413 H   0  0  0  0  0  0  0  0  0  0  0  0
  138.4620   75.6360  221.9920 C   0  0  0  0  0  0  0  0  0  0  0  0
  137.7205   76.4476  222.0301 H   0  0  0  0  0  0  0  0  0  0  0  0
  138.0490   74.3030  221.9340 C   0  0  0  0  0  0  0  0  0  0  0  0
  136.9759   74.0626  221.9078 H   0  0  0  0  0  0  0  0  0  0  0  0
  1  2  1  0
  2  3  2  0
  3  4  1  0
  3  5  1  0
  5  6  2  0
  6  7  1  0
  7  8  2  0
  8  9  1  0
  8 10  1  0
 10 11  1  0
 10 12  2  0
 12 13  1  0
 12 14  1  0
 14 15  1  0
 14 16  2  0
 16 17  1  0
 17 18  2  0
 17 19  1  0
 19 20  1  0
 20 21  1  0
 20 22  1  0
 20 23  1  0
 23 24  2  0
 24 25  1  0
 24 26  1  0
 26 27  1  0
 26 28  2  0
 28 29  1  0
 28 30  1  0
 30 31  1  0
 30 32  2  0
 32 33  1  0
  2 34  1  0
 34 35  2  0
 35 36  1  0
 35 37  1  0
 37 38  2  0
 38 39  1  0
 38 40  1  0
 40 41  1  0
 40 42  2  0
 42 43  1  0
 19  5  1  0
 32 23  1  0
 42 34  1  0
 16  7  1  0
M  END
>  <UniqueID>  (17) 
21

>  <SMILES>  (17) 
O=c1c2ccccc2nc(/C=C/c2cccnc2)n1Cc1ccccc1

>  <Energy>  (17) 
63.49761234006124

>  <Genealogy>  (17) 
O=c1c2ccccc2nc(/C=C/c2cccnc2)n1Cc1ccccc1 (cis-trans isomerization)
O=c1c2ccccc2nc(/C=C/c2cccnc2)n1Cc1ccccc1 (3D coordinates assigned)
O=c1c2ccccc2nc(/C=C/c2cccnc2)n1Cc1ccccc1 (optimized conformer: 63.49761234006124 kcal/mol)

>  <smiles>  (17) 
O=c1c2ccccc2nc(/C=C/c2cccnc2)n1Cc1ccccc1

>  <score_type>  (17) 
oracle

>  <origin>  (17) 
autodockgpu

>  <m_score__min__energy>  (17) 
-7.3799999999999999

>  <m_primary>  (17) 
energy

>  <meeko>  (17) 
{"free_energy": -7.2, "intermolecular_energy": -8.69, "internal_energy": -1.3, "cluster_size": 10, "cluster_id": 1, "rank_in_cluster": 8}

>  <energy>  (17) 
-6.38

>  <cluster_rmsd>  (17) 
0.0

>  <rmsd>  (17) 
272.39

>  <cluster>  (17) 
4

$$$$
GEKDQXSPTHHANP-OUKQBFOZNA-N
     RDKit          3D

 43 46  0  0  0  0  0  0  0  0999 V2000
  135.4170   67.8760  222.7082 H   0  0  0  0  0  0  0  0  0  0  0  0
  135.9280   68.6760  223.2640 C   0  0  0  0  0  0  0  0  0  0  0  0
  137.1600   69.0350  222.8900 C   0  0  0  0  0  0  0  0  0  0  0  0
  137.4249   69.0508  221.8225 H   0  0  0  0  0  0  0  0  0  0  0  0
  138.1660   69.4100  223.9010 C   0  0  0  0  0  0  0  0  0  0  0  0
  138.4280   68.5220  224.8960 N   0  0  0  0  0  0  0  0  0  0  0  0
  139.3340   68.7860  225.8660 C   0  0  0  0  0  0  0  0  0  0  0  0
  139.5880   67.8390  226.8640 C   0  0  0  0  0  0  0  0  0  0  0  0
  139.0505   66.8793  226.8616 H   0  0  0  0  0  0  0  0  0  0  0  0
  140.5250   68.1130  227.8640 C   0  0  0  0  0  0  0  0  0  0  0  0
  140.7258   67.3676  228.6476 H   0  0  0  0  0  0  0  0  0  0  0  0
  141.2080   69.3340  227.8700 C   0  0  0  0  0  0  0  0  0  0  0  0
  141.9457   69.5459  228.6580 H   0  0  0  0  0  0  0  0  0  0  0  0
  140.9560   70.2840  226.8790 C   0  0  0  0  0  0  0  0  0  0  0  0
  141.4909   71.2451  226.8909 H   0  0  0  0  0  0  0  0  0  0  0  0
  140.0180   70.0140  225.8640 C   0  0  0  0  0  0  0  0  0  0  0  0
  139.7310   70.9370  224.8410 C   0  0  0  0  0  0  0  0  0  0  0  0
  140.3160   72.0590  224.8330 O   0  0  0  0  0  0  0  0  0  0  0  0
  138.8130   70.6270  223.8640 N   0  0  0  0  0  0  0  0  0  0  0  0
  138.4610   71.6240  222.8230 C   0  0  0  0  0  0  0  0  0  0  0  0
  137.7719   71.1628  222.1002 H   0  0  0  0  0  0  0  0  0  0  0  0
  137.9841   72.4880  223.3089 H   0  0  0  0  0  0  0  0  0  0  0  0
  139.6980   72.0990  222.0950 C   0  0  0  0  0  0  0  0  0  0  0  0
  140.6240   71.1720  221.5770 C   0  0  0  0  0  0  0  0  0  0  0  0
  140.4116   70.0943  221.6357 H   0  0  0  0  0  0  0  0  0  0  0  0
  141.8130   71.6170  220.9880 C   0  0  0  0  0  0  0  0  0  0  0  0
  142.5376   70.8885  220.5951 H   0  0  0  0  0  0  0  0  0  0  0  0
  142.0820   72.9910  220.8980 C   0  0  0  0  0  0  0  0  0  0  0  0
  143.0245   73.3381  220.4495 H   0  0  0  0  0  0  0  0  0  0  0  0
  141.1510   73.9220  221.3790 C   0  0  0  0  0  0  0  0  0  0  0  0
  141.3574   74.9992  221.2955 H   0  0  0  0  0  0  0  0  0  0  0  0
  139.9600   73.4820  221.9650 C   0  0  0  0  0  0  0  0  0  0  0  0
  139.2239   74.2152  222.3263 H   0  0  0  0  0  0  0  0  0  0  0  0
  135.2280   69.3150  224.3970 C   0  0  0  0  0  0  0  0  0  0  0  0
  134.5700   68.5600  225.3870 C   0  0  0  0  0  0  0  0  0  0  0  0
  134.5586   67.4619  225.3231 H   0  0  0  0  0  0  0  0  0  0  0  0
  133.9480   69.1870  226.4230 N   0  0  0  0  0  0  0  0  0  0  0  0
  133.9350   70.5410  226.5390 C   0  0  0  0  0  0  0  0  0  0  0  0
  133.4177   71.0151  227.3861 H   0  0  0  0  0  0  0  0  0  0  0  0
  134.5790   71.3320  225.5820 C   0  0  0  0  0  0  0  0  0  0  0  0
  134.5688   72.4286  225.6681 H   0  0  0  0  0  0  0  0  0  0  0  0
  135.2350   70.7130  224.5160 C   0  0  0  0  0  0  0  0  0  0  0  0
  135.7594   71.3239  223.7665 H   0  0  0  0  0  0  0  0  0  0  0  0
  1  2  1  0
  2  3  2  0
  3  4  1  0
  3  5  1  0
  5  6  2  0
  6  7  1  0
  7  8  2  0
  8  9  1  0
  8 10  1  0
 10 11  1  0
 10 12  2  0
 12 13  1  0
 12 14  1  0
 14 15  1  0
 14 16  2  0
 16 17  1  0
 17 18  2  0
 17 19  1  0
 19 20  1  0
 20 21  1  0
 20 22  1  0
 20 23  1  0
 23 24  2  0
 24 25  1  0
 24 26  1  0
 26 27  1  0
 26 28  2  0
 28 29  1  0
 28 30  1  0
 30 31  1  0
 30 32  2  0
 32 33  1  0
  2 34  1  0
 34 35  2  0
 35 36  1  0
 35 37  1  0
 37 38  2  0
 38 39  1  0
 38 40  1  0
 40 41  1  0
 40 42  2  0
 42 43  1  0
 19  5  1  0
 32 23  1  0
 42 34  1  0
 16  7  1  0
M  END
>  <UniqueID>  (18) 
21

>  <SMILES>  (18) 
O=c1c2ccccc2nc(/C=C/c2cccnc2)n1Cc1ccccc1

>  <Energy>  (18) 
63.49761234006124

>  <Genealogy>  (18) 
O=c1c2ccccc2nc(/C=C/c2cccnc2)n1Cc1ccccc1 (cis-trans isomerization)
O=c1c2ccccc2nc(/C=C/c2cccnc2)n1Cc1ccccc1 (3D coordinates assigned)
O=c1c2ccccc2nc(/C=C/c2cccnc2)n1Cc1ccccc1 (optimized conformer: 63.49761234006124 kcal/mol)

>  <smiles>  (18) 
O=c1c2ccccc2nc(/C=C/c2cccnc2)n1Cc1ccccc1

>  <score_type>  (18) 
oracle

>  <origin>  (18) 
autodockgpu

>  <m_score__min__energy>  (18) 
-7.3799999999999999

>  <m_primary>  (18) 
energy

>  <meeko>  (18) 
{"free_energy": -6.85, "intermolecular_energy": -8.35, "internal_energy": -1.4, "cluster_size": 4, "cluster_id": 3, "rank_in_cluster": 3}

>  <energy>  (18) 
-6.35

>  <cluster_rmsd>  (18) 
0.14

>  <rmsd>  (18) 
272.45

>  <cluster>  (18) 
4

$$$$
GEKDQXSPTHHANP-OUKQBFOZNA-N
     RDKit          3D

 43 46  0  0  0  0  0  0  0  0999 V2000
  135.6117   69.7622  222.3229 H   0  0  0  0  0  0  0  0  0  0  0  0
  136.0180   69.4720  223.3030 C   0  0  0  0  0  0  0  0  0  0  0  0
  137.1980   68.8460  223.3520 C   0  0  0  0  0  0  0  0  0  0  0  0
  137.4070   68.0180  222.6587 H   0  0  0  0  0  0  0  0  0  0  0  0
  138.2210   69.2590  224.3300 C   0  0  0  0  0  0  0  0  0  0  0  0
  138.4820   68.4220  225.3690 N   0  0  0  0  0  0  0  0  0  0  0  0
  139.4030   68.7240  226.3130 C   0  0  0  0  0  0  0  0  0  0  0  0
  139.6550   67.8290  227.3580 C   0  0  0  0  0  0  0  0  0  0  0  0
  139.1032   66.8791  227.4139 H   0  0  0  0  0  0  0  0  0  0  0  0
  140.6080   68.1420  228.3310 C   0  0  0  0  0  0  0  0  0  0  0  0
  140.8085   67.4363  229.1506 H   0  0  0  0  0  0  0  0  0  0  0  0
  141.3070   69.3510  228.2640 C   0  0  0  0  0  0  0  0  0  0  0  0
  142.0556   69.5948  229.0322 H   0  0  0  0  0  0  0  0  0  0  0  0
  141.0580   70.2490  227.2260 C   0  0  0  0  0  0  0  0  0  0  0  0
  141.6078   71.2006  227.1798 H   0  0  0  0  0  0  0  0  0  0  0  0
  140.1050   69.9400  226.2380 C   0  0  0  0  0  0  0  0  0  0  0  0
  139.8190   70.8110  225.1690 C   0  0  0  0  0  0  0  0  0  0  0  0
  140.4200   71.9220  225.0950 O   0  0  0  0  0  0  0  0  0  0  0  0
  138.8850   70.4620  224.2210 N   0  0  0  0  0  0  0  0  0  0  0  0
  138.5350   71.4070  223.1310 C   0  0  0  0  0  0  0  0  0  0  0  0
  137.7607   70.9532  222.4950 H   0  0  0  0  0  0  0  0  0  0  0  0
  138.1637   72.3404  223.5792 H   0  0  0  0  0  0  0  0  0  0  0  0
  139.7470   71.7240  222.2860 C   0  0  0  0  0  0  0  0  0  0  0  0
  140.2980   73.0210  222.2820 C   0  0  0  0  0  0  0  0  0  0  0  0
  139.8911   73.7913  222.9536 H   0  0  0  0  0  0  0  0  0  0  0  0
  141.3620   73.3330  221.4260 C   0  0  0  0  0  0  0  0  0  0  0  0
  141.7802   74.3504  221.4176 H   0  0  0  0  0  0  0  0  0  0  0  0
  141.8950   72.3490  220.5790 C   0  0  0  0  0  0  0  0  0  0  0  0
  142.7206   72.6001  219.8968 H   0  0  0  0  0  0  0  0  0  0  0  0
  141.3770   71.0470  220.6010 C   0  0  0  0  0  0  0  0  0  0  0  0
  141.8044   70.2740  219.9454 H   0  0  0  0  0  0  0  0  0  0  0  0
  140.3160   70.7300  221.4570 C   0  0  0  0  0  0  0  0  0  0  0  0
  139.9231   69.7030  221.4849 H   0  0  0  0  0  0  0  0  0  0  0  0
  135.2400   69.7880  224.5190 C   0  0  0  0  0  0  0  0  0  0  0  0
  134.6920   68.7800  225.3350 C   0  0  0  0  0  0  0  0  0  0  0  0
  134.8290   67.7220  225.0670 H   0  0  0  0  0  0  0  0  0  0  0  0
  133.9930   69.1120  226.4550 N   0  0  0  0  0  0  0  0  0  0  0  0
  133.7980   70.4070  226.8210 C   0  0  0  0  0  0  0  0  0  0  0  0
  133.2234   70.6406  227.7294 H   0  0  0  0  0  0  0  0  0  0  0  0
  134.3270   71.4420  226.0440 C   0  0  0  0  0  0  0  0  0  0  0  0
  134.1686   72.4916  226.3325 H   0  0  0  0  0  0  0  0  0  0  0  0
  135.0590   71.1270  224.8970 C   0  0  0  0  0  0  0  0  0  0  0  0
  135.4954   71.9320  224.2875 H   0  0  0  0  0  0  0  0  0  0  0  0
  1  2  1  0
  2  3  2  0
  3  4  1  0
  3  5  1  0
  5  6  2  0
  6  7  1  0
  7  8  2  0
  8  9  1  0
  8 10  1  0
 10 11  1  0
 10 12  2  0
 12 13  1  0
 12 14  1  0
 14 15  1  0
 14 16  2  0
 16 17  1  0
 17 18  2  0
 17 19  1  0
 19 20  1  0
 20 21  1  0
 20 22  1  0
 20 23  1  0
 23 24  2  0
 24 25  1  0
 24 26  1  0
 26 27  1  0
 26 28  2  0
 28 29  1  0
 28 30  1  0
 30 31  1  0
 30 32  2  0
 32 33  1  0
  2 34  1  0
 34 35  2  0
 35 36  1  0
 35 37  1  0
 37 38  2  0
 38 39  1  0
 38 40  1  0
 40 41  1  0
 40 42  2  0
 42 43  1  0
 19  5  1  0
 32 23  1  0
 42 34  1  0
 16  7  1  0
M  END
>  <UniqueID>  (19) 
21

>  <SMILES>  (19) 
O=c1c2ccccc2nc(/C=C/c2cccnc2)n1Cc1ccccc1

>  <Energy>  (19) 
63.49761234006124

>  <Genealogy>  (19) 
O=c1c2ccccc2nc(/C=C/c2cccnc2)n1Cc1ccccc1 (cis-trans isomerization)
O=c1c2ccccc2nc(/C=C/c2cccnc2)n1Cc1ccccc1 (3D coordinates assigned)
O=c1c2ccccc2nc(/C=C/c2cccnc2)n1Cc1ccccc1 (optimized conformer: 63.49761234006124 kcal/mol)

>  <smiles>  (19) 
O=c1c2ccccc2nc(/C=C/c2cccnc2)n1Cc1ccccc1

>  <score_type>  (19) 
oracle

>  <origin>  (19) 
autodockgpu

>  <m_score__min__energy>  (19) 
-7.3799999999999999

>  <m_primary>  (19) 
energy

>  <meeko>  (19) 
{"free_energy": -7.01, "intermolecular_energy": -8.5, "internal_energy": -1.33, "cluster_size": 4, "cluster_id": 3, "rank_in_cluster": 1}

>  <energy>  (19) 
-6.33

>  <cluster_rmsd>  (19) 
1.7

>  <rmsd>  (19) 
272.27

>  <cluster>  (19) 
4

$$$$
GEKDQXSPTHHANP-OUKQBFOZNA-N
     RDKit          3D

 43 46  0  0  0  0  0  0  0  0999 V2000
  137.8734   72.3392  221.8170 H   0  0  0  0  0  0  0  0  0  0  0  0
  138.9610   72.4510  221.9380 C   0  0  0  0  0  0  0  0  0  0  0  0
  139.7040   71.3570  222.1370 C   0  0  0  0  0  0  0  0  0  0  0  0
  140.2458   70.9032  221.2941 H   0  0  0  0  0  0  0  0  0  0  0  0
  139.8010   70.7560  223.4790 C   0  0  0  0  0  0  0  0  0  0  0  0
  140.3370   71.5100  224.4760 N   0  0  0  0  0  0  0  0  0  0  0  0
  140.4670   71.0360  225.7360 C   0  0  0  0  0  0  0  0  0  0  0  0
  141.0090   71.8480  226.7380 C   0  0  0  0  0  0  0  0  0  0  0  0
  141.3320   72.8725  226.5013 H   0  0  0  0  0  0  0  0  0  0  0  0
  141.1400   71.3570  228.0400 C   0  0  0  0  0  0  0  0  0  0  0  0
  141.5630   71.9970  228.8283 H   0  0  0  0  0  0  0  0  0  0  0  0
  140.7340   70.0530  228.3420 C   0  0  0  0  0  0  0  0  0  0  0  0
  140.8384   69.6698  229.3678 H   0  0  0  0  0  0  0  0  0  0  0  0
  140.1970   69.2370  227.3460 C   0  0  0  0  0  0  0  0  0  0  0  0
  139.8848   68.2101  227.5868 H   0  0  0  0  0  0  0  0  0  0  0  0
  140.0540   69.7250  226.0340 C   0  0  0  0  0  0  0  0  0  0  0  0
  139.5150   68.9420  224.9940 C   0  0  0  0  0  0  0  0  0  0  0  0
  139.1600   67.7510  225.2330 O   0  0  0  0  0  0  0  0  0  0  0  0
  139.3870   69.4650  223.7280 N   0  0  0  0  0  0  0  0  0  0  0  0
  138.8810   68.6210  222.6170 C   0  0  0  0  0  0  0  0  0  0  0  0
  139.1485   69.0886  221.6579 H   0  0  0  0  0  0  0  0  0  0  0  0
  139.3367   67.6229  222.6960 H   0  0  0  0  0  0  0  0  0  0  0  0
  137.3780   68.4760  222.6960 C   0  0  0  0  0  0  0  0  0  0  0  0
  136.6250   69.2900  223.5670 C   0  0  0  0  0  0  0  0  0  0  0  0
  137.1224   70.0864  224.1401 H   0  0  0  0  0  0  0  0  0  0  0  0
  135.2460   69.0880  223.7050 C   0  0  0  0  0  0  0  0  0  0  0  0
  134.6649   69.7173  224.3952 H   0  0  0  0  0  0  0  0  0  0  0  0
  134.6050   68.0840  222.9640 C   0  0  0  0  0  0  0  0  0  0  0  0
  133.5244   67.9175  223.0853 H   0  0  0  0  0  0  0  0  0  0  0  0
  135.3380   67.2930  222.0700 C   0  0  0  0  0  0  0  0  0  0  0  0
  134.8307   66.5146  221.4811 H   0  0  0  0  0  0  0  0  0  0  0  0
  136.7160   67.4930  221.9260 C   0  0  0  0  0  0  0  0  0  0  0  0
  137.2861   66.8824  221.2104 H   0  0  0  0  0  0  0  0  0  0  0  0
  139.5500   73.8050  221.8750 C   0  0  0  0  0  0  0  0  0  0  0  0
  138.8260   74.9500  222.2560 C   0  0  0  0  0  0  0  0  0  0  0  0
  137.7869   74.8515  222.6032 H   0  0  0  0  0  0  0  0  0  0  0  0
  139.4080   76.1790  222.1960 N   0  0  0  0  0  0  0  0  0  0  0  0
  140.6890   76.3450  221.7700 C   0  0  0  0  0  0  0  0  0  0  0  0
  141.1281   77.3527  221.7284 H   0  0  0  0  0  0  0  0  0  0  0  0
  141.4480   75.2360  221.3850 C   0  0  0  0  0  0  0  0  0  0  0  0
  142.4828   75.3648  221.0347 H   0  0  0  0  0  0  0  0  0  0  0  0
  140.8780   73.9630  221.4500 C   0  0  0  0  0  0  0  0  0  0  0  0
  141.4718   73.0813  221.1672 H   0  0  0  0  0  0  0  0  0  0  0  0
  1  2  1  0
  2  3  2  0
  3  4  1  0
  3  5  1  0
  5  6  2  0
  6  7  1  0
  7  8  2  0
  8  9  1  0
  8 10  1  0
 10 11  1  0
 10 12  2  0
 12 13  1  0
 12 14  1  0
 14 15  1  0
 14 16  2  0
 16 17  1  0
 17 18  2  0
 17 19  1  0
 19 20  1  0
 20 21  1  0
 20 22  1  0
 20 23  1  0
 23 24  2  0
 24 25  1  0
 24 26  1  0
 26 27  1  0
 26 28  2  0
 28 29  1  0
 28 30  1  0
 30 31  1  0
 30 32  2  0
 32 33  1  0
  2 34  1  0
 34 35  2  0
 35 36  1  0
 35 37  1  0
 37 38  2  0
 38 39  1  0
 38 40  1  0
 40 41  1  0
 40 42  2  0
 42 43  1  0
 19  5  1  0
 32 23  1  0
 42 34  1  0
 16  7  1  0
M  END
>  <UniqueID>  (20) 
21

>  <SMILES>  (20) 
O=c1c2ccccc2nc(/C=C/c2cccnc2)n1Cc1ccccc1

>  <Energy>  (20) 
63.49761234006124

>  <Genealogy>  (20) 
O=c1c2ccccc2nc(/C=C/c2cccnc2)n1Cc1ccccc1 (cis-trans isomerization)
O=c1c2ccccc2nc(/C=C/c2cccnc2)n1Cc1ccccc1 (3D coordinates assigned)
O=c1c2ccccc2nc(/C=C/c2cccnc2)n1Cc1ccccc1 (optimized conformer: 63.49761234006124 kcal/mol)

>  <smiles>  (20) 
O=c1c2ccccc2nc(/C=C/c2cccnc2)n1Cc1ccccc1

>  <score_type>  (20) 
oracle

>  <origin>  (20) 
autodockgpu

>  <m_score__min__energy>  (20) 
-7.3799999999999999

>  <m_primary>  (20) 
energy

>  <meeko>  (20) 
{"free_energy": -7.07, "intermolecular_energy": -8.56, "internal_energy": -1.2, "cluster_size": 10, "cluster_id": 1, "rank_in_cluster": 10}

>  <energy>  (20) 
-6.24

>  <cluster_rmsd>  (20) 
0.16

>  <rmsd>  (20) 
272.41

>  <cluster>  (20) 
4

$$$$
