JBHRSOAXAGIKHA-GNXBGBGXNA-N
     RDKit          3D

 41 42  0  0  0  0  0  0  0  0999 V2000
  140.6510   71.9540  220.5390 H   0  0  0  0  0  0  0  0  0  0  0  0
  139.9110   72.6060  220.3710 O   0  0  0  0  0  0  0  0  0  0  0  0
  138.2610   74.1050  221.1450 C   0  0  0  0  0  0  0  0  0  0  0  0
  139.9440   73.3390  222.6800 N   0  0  0  0  0  0  0  0  0  0  0  0
  140.7800   72.2470  222.9930 N   0  0  0  0  0  0  0  0  0  0  0  0
  139.3350   73.3690  221.3710 C   0  0  0  0  0  0  0  0  0  0  0  0
  137.2768   73.6874  221.4036 H   0  0  0  0  0  0  0  0  0  0  0  0
  140.4880   70.8610  224.9560 C   0  0  0  0  0  0  0  0  0  0  0  0
  140.8270   71.8920  225.8320 C   0  0  0  0  0  0  0  0  0  0  0  0
  140.9042   72.9171  225.4406 H   0  0  0  0  0  0  0  0  0  0  0  0
  141.0660   71.6740  227.1560 C   0  0  0  0  0  0  0  0  0  0  0  0
  141.3318   72.5040  227.8272 H   0  0  0  0  0  0  0  0  0  0  0  0
  140.9650   70.3830  227.6300 C   0  0  0  0  0  0  0  0  0  0  0  0
  141.1498   70.1690  228.6931 H   0  0  0  0  0  0  0  0  0  0  0  0
  140.6310   69.3600  226.7650 C   0  0  0  0  0  0  0  0  0  0  0  0
  140.5370   67.9790  227.3350 C   0  0  0  0  0  0  0  0  0  0  0  0
  141.0570   67.0790  226.4270 F   0  0  0  0  0  0  0  0  0  0  0  0
  141.2280   67.9500  228.5350 F   0  0  0  0  0  0  0  0  0  0  0  0
  139.2060   67.6940  227.5260 F   0  0  0  0  0  0  0  0  0  0  0  0
  140.3850   69.5720  225.4180 C   0  0  0  0  0  0  0  0  0  0  0  0
  140.1183   68.7424  224.7468 H   0  0  0  0  0  0  0  0  0  0  0  0
  140.2530   71.1910  223.5600 C   0  0  0  0  0  0  0  0  0  0  0  0
  139.6102   70.5308  222.9592 H   0  0  0  0  0  0  0  0  0  0  0  0
  138.3180   75.4730  220.5570 C   0  0  0  0  0  0  0  0  0  0  0  0
  138.0177   75.4000  219.5013 H   0  0  0  0  0  0  0  0  0  0  0  0
  137.6457   76.0913  221.1700 H   0  0  0  0  0  0  0  0  0  0  0  0
  139.5830   76.1110  220.6070 C   0  0  0  0  0  0  0  0  0  0  0  0
    0.0000    0.0000    0.0000 H   0  0  0  0  0  0  0  0  0  0  0  0
  139.0886   77.0933  220.5809 H   0  0  0  0  0  0  0  0  0  0  0  0
  140.7550   76.7030  220.6530 O   0  0  0  0  0  0  0  0  0  0  0  0
  141.1700   77.7460  221.4990 C   0  0  0  0  0  0  0  0  0  0  0  0
  141.0420   77.6580  222.8770 C   0  0  0  0  0  0  0  0  0  0  0  0
  140.6104   76.7715  223.3646 H   0  0  0  0  0  0  0  0  0  0  0  0
  141.4860   78.7440  223.6020 C   0  0  0  0  0  0  0  0  0  0  0  0
  141.4056   78.7186  224.6988 H   0  0  0  0  0  0  0  0  0  0  0  0
  142.0230   79.8520  223.0050 C   0  0  0  0  0  0  0  0  0  0  0  0
  142.5620   81.1920  224.0110 Cl  0  0  0  0  0  0  0  0  0  0  0  0
  142.1280   79.8860  221.6250 C   0  0  0  0  0  0  0  0  0  0  0  0
  142.5600   80.7722  221.1371 H   0  0  0  0  0  0  0  0  0  0  0  0
  141.7040   78.8370  220.8590 C   0  0  0  0  0  0  0  0  0  0  0  0
  141.8210   78.8430  219.1040 Cl  0  0  0  0  0  0  0  0  0  0  0  0
  1  2  1  0
  2  3  1  0
  3  4  1  0
  4  5  1  0
  5  6  2  0
  6  7  1  0
  6  8  1  0
  8  9  2  0
  9 10  1  0
  9 11  1  0
 11 12  1  0
 11 13  2  0
 13 14  1  0
 13 15  1  0
 15 16  1  0
 16 17  1  0
 16 18  1  0
 16 19  1  0
 15 20  2  0
 20 21  1  0
  3 22  2  0
 22 23  1  0
 22 24  1  0
 24 25  1  0
 24 26  1  0
 24 27  1  0
 27 28  1  0
 27 29  1  0
 27 30  1  0
 30 31  1  0
 31 32  2  0
 32 33  1  0
 32 34  1  0
 34 35  1  0
 34 36  2  0
 36 37  1  0
 36 38  1  0
 38 39  1  0
 38 40  2  0
 40 41  1  0
 20  8  1  0
 40 31  1  0
M  CHG  1   4  -1
M  END
>  <UniqueID>  (1) 
17

>  <SMILES>  (1) 
O/C(=C/CCOc1ccc(Cl)cc1Cl)[N-]/N=C/c1cccc(C(F)(F)F)c1

>  <Energy>  (1) 
255.6863831339477

>  <Genealogy>  (1) 
O=C(CCCOc1ccc(Cl)cc1Cl)[N-]N=Cc1cccc(C(F)(F)F)c1 (protonated)
OC(=CCCOc1ccc(Cl)cc1Cl)[N-]N=Cc1cccc(C(F)(F)F)c1 (tautomer)
O/C(=C/CCOc1ccc(Cl)cc1Cl)[N-]/N=C/c1cccc(C(F)(F)F)c1 (cis-trans isomerization)
O/C(=C/CCOc1ccc(Cl)cc1Cl)[N-]/N=C/c1cccc(C(F)(F)F)c1 (3D coordinates assigned)
O/C(=C/CCOc1ccc(Cl)cc1Cl)[N-]/N=C/c1cccc(C(F)(F)F)c1 (optimized conformer: 255.6863831339477 kcal/mol)

>  <smiles>  (1) 
O=C(CCCOc1ccc(Cl)cc1Cl)NN=Cc1cccc(C(F)(F)F)c1

>  <score_type>  (1) 
oracle

>  <origin>  (1) 
autodockgpu

>  <m_score__min__energy>  (1) 
-6.9400000000000004

>  <m_primary>  (1) 
energy

>  <meeko>  (1) 
{"free_energy": -6.0, "intermolecular_energy": -9.28, "internal_energy": -0.96, "cluster_size": 2, "cluster_id": 3, "rank_in_cluster": 2}

>  <energy>  (1) 
-6.94

>  <cluster_rmsd>  (1) 
0.0

>  <rmsd>  (1) 
272.5

>  <cluster>  (1) 
1

$$$$
JBHRSOAXAGIKHA-GNXBGBGXNA-N
     RDKit          3D

 41 42  0  0  0  0  0  0  0  0999 V2000
  137.2950   72.2420  224.1510 H   0  0  0  0  0  0  0  0  0  0  0  0
  136.3230   72.0050  224.1870 O   0  0  0  0  0  0  0  0  0  0  0  0
  135.8650   70.7480  224.5380 C   0  0  0  0  0  0  0  0  0  0  0  0
  136.8340   69.6840  224.6560 N   0  0  0  0  0  0  0  0  0  0  0  0
  138.1010   69.8770  224.0680 N   0  0  0  0  0  0  0  0  0  0  0  0
  139.0870   69.0910  224.4190 C   0  0  0  0  0  0  0  0  0  0  0  0
  139.4272   68.3184  223.7138 H   0  0  0  0  0  0  0  0  0  0  0  0
  139.7480   69.2040  225.7090 C   0  0  0  0  0  0  0  0  0  0  0  0
  140.0870   68.0310  226.3830 C   0  0  0  0  0  0  0  0  0  0  0  0
  139.8457   67.0633  225.9189 H   0  0  0  0  0  0  0  0  0  0  0  0
  140.7070   68.0420  227.5970 C   0  0  0  0  0  0  0  0  0  0  0  0
  140.9645   67.1034  228.1095 H   0  0  0  0  0  0  0  0  0  0  0  0
  141.0020   69.2640  228.1640 C   0  0  0  0  0  0  0  0  0  0  0  0
  141.5030   69.3123  229.1421 H   0  0  0  0  0  0  0  0  0  0  0  0
  140.6660   70.4270  227.4990 C   0  0  0  0  0  0  0  0  0  0  0  0
  141.0090   71.7230  228.1630 C   0  0  0  0  0  0  0  0  0  0  0  0
  139.8780   72.2370  228.7640 F   0  0  0  0  0  0  0  0  0  0  0  0
  142.0160   71.4930  229.0860 F   0  0  0  0  0  0  0  0  0  0  0  0
  141.4260   72.5970  227.1880 F   0  0  0  0  0  0  0  0  0  0  0  0
  140.0360   70.4250  226.2650 C   0  0  0  0  0  0  0  0  0  0  0  0
  139.7774   71.3632  225.7523 H   0  0  0  0  0  0  0  0  0  0  0  0
  134.5830   70.5190  224.7610 C   0  0  0  0  0  0  0  0  0  0  0  0
  133.9765   70.1024  223.9433 H   0  0  0  0  0  0  0  0  0  0  0  0
  133.9180   70.7970  226.0650 C   0  0  0  0  0  0  0  0  0  0  0  0
  132.8809   70.4363  225.9995 H   0  0  0  0  0  0  0  0  0  0  0  0
  134.5216   70.2810  226.8262 H   0  0  0  0  0  0  0  0  0  0  0  0
  133.8820   72.1590  226.4570 C   0  0  0  0  0  0  0  0  0  0  0  0
    0.0000    0.0000    0.0000 H   0  0  0  0  0  0  0  0  0  0  0  0
  132.9786   71.9635  227.0534 H   0  0  0  0  0  0  0  0  0  0  0  0
  133.8480   73.4210  226.8210 O   0  0  0  0  0  0  0  0  0  0  0  0
  134.0910   74.5600  226.0330 C   0  0  0  0  0  0  0  0  0  0  0  0
  135.0750   74.5700  225.0550 C   0  0  0  0  0  0  0  0  0  0  0  0
  135.7049   73.6905  224.8557 H   0  0  0  0  0  0  0  0  0  0  0  0
  135.2190   75.7440  224.3470 C   0  0  0  0  0  0  0  0  0  0  0  0
  135.9863   75.7982  223.5607 H   0  0  0  0  0  0  0  0  0  0  0  0
  134.4420   76.8440  224.5870 C   0  0  0  0  0  0  0  0  0  0  0  0
  134.6980   78.3010  223.6320 Cl  0  0  0  0  0  0  0  0  0  0  0  0
  133.4740   76.7790  225.5750 C   0  0  0  0  0  0  0  0  0  0  0  0
  132.8446   77.6588  225.7745 H   0  0  0  0  0  0  0  0  0  0  0  0
  133.2880   75.6400  226.3060 C   0  0  0  0  0  0  0  0  0  0  0  0
  132.0700   75.5180  227.5690 Cl  0  0  0  0  0  0  0  0  0  0  0  0
  1  2  1  0
  2  3  1  0
  3  4  1  0
  4  5  1  0
  5  6  2  0
  6  7  1  0
  6  8  1  0
  8  9  2  0
  9 10  1  0
  9 11  1  0
 11 12  1  0
 11 13  2  0
 13 14  1  0
 13 15  1  0
 15 16  1  0
 16 17  1  0
 16 18  1  0
 16 19  1  0
 15 20  2  0
 20 21  1  0
  3 22  2  0
 22 23  1  0
 22 24  1  0
 24 25  1  0
 24 26  1  0
 24 27  1  0
 27 28  1  0
 27 29  1  0
 27 30  1  0
 30 31  1  0
 31 32  2  0
 32 33  1  0
 32 34  1  0
 34 35  1  0
 34 36  2  0
 36 37  1  0
 36 38  1  0
 38 39  1  0
 38 40  2  0
 40 41  1  0
 20  8  1  0
 40 31  1  0
M  CHG  1   4  -1
M  END
>  <UniqueID>  (2) 
17

>  <SMILES>  (2) 
O/C(=C/CCOc1ccc(Cl)cc1Cl)[N-]/N=C/c1cccc(C(F)(F)F)c1

>  <Energy>  (2) 
255.6863831339477

>  <Genealogy>  (2) 
O=C(CCCOc1ccc(Cl)cc1Cl)[N-]N=Cc1cccc(C(F)(F)F)c1 (protonated)
OC(=CCCOc1ccc(Cl)cc1Cl)[N-]N=Cc1cccc(C(F)(F)F)c1 (tautomer)
O/C(=C/CCOc1ccc(Cl)cc1Cl)[N-]/N=C/c1cccc(C(F)(F)F)c1 (cis-trans isomerization)
O/C(=C/CCOc1ccc(Cl)cc1Cl)[N-]/N=C/c1cccc(C(F)(F)F)c1 (3D coordinates assigned)
O/C(=C/CCOc1ccc(Cl)cc1Cl)[N-]/N=C/c1cccc(C(F)(F)F)c1 (optimized conformer: 255.6863831339477 kcal/mol)

>  <smiles>  (2) 
O=C(CCCOc1ccc(Cl)cc1Cl)NN=Cc1cccc(C(F)(F)F)c1

>  <score_type>  (2) 
oracle

>  <origin>  (2) 
autodockgpu

>  <m_score__min__energy>  (2) 
-6.9400000000000004

>  <m_primary>  (2) 
energy

>  <meeko>  (2) 
{"free_energy": -6.0, "intermolecular_energy": -9.28, "internal_energy": -1.1, "cluster_size": 1, "cluster_id": 7, "rank_in_cluster": 1}

>  <energy>  (2) 
-6.55

>  <cluster_rmsd>  (2) 
1.72

>  <rmsd>  (2) 
272.23

>  <cluster>  (2) 
1

$$$$
JBHRSOAXAGIKHA-GNXBGBGXNA-N
     RDKit          3D

 41 42  0  0  0  0  0  0  0  0999 V2000
  141.8860   75.6390  222.0590 H   0  0  0  0  0  0  0  0  0  0  0  0
  140.9470   75.9090  222.2760 O   0  0  0  0  0  0  0  0  0  0  0  0
  139.8380   75.2220  221.8170 C   0  0  0  0  0  0  0  0  0  0  0  0
  139.5990   73.8980  222.3410 N   0  0  0  0  0  0  0  0  0  0  0  0
  140.7020   73.0290  222.4670 N   0  0  0  0  0  0  0  0  0  0  0  0
  140.4820   71.7500  222.6360 C   0  0  0  0  0  0  0  0  0  0  0  0
  140.4943   71.0887  221.7571 H   0  0  0  0  0  0  0  0  0  0  0  0
  140.2220   71.1730  223.9440 C   0  0  0  0  0  0  0  0  0  0  0  0
  139.4370   70.0230  224.0160 C   0  0  0  0  0  0  0  0  0  0  0  0
  139.0424   69.5909  223.0846 H   0  0  0  0  0  0  0  0  0  0  0  0
  139.1410   69.4150  225.2000 C   0  0  0  0  0  0  0  0  0  0  0  0
  138.5200   68.5076  225.2307 H   0  0  0  0  0  0  0  0  0  0  0  0
  139.6430   69.9710  226.3580 C   0  0  0  0  0  0  0  0  0  0  0  0
  139.4260   69.5081  227.3320 H   0  0  0  0  0  0  0  0  0  0  0  0
  140.4190   71.1110  226.2900 C   0  0  0  0  0  0  0  0  0  0  0  0
  140.9360   71.6700  227.5790 C   0  0  0  0  0  0  0  0  0  0  0  0
  139.8950   72.2660  228.2620 F   0  0  0  0  0  0  0  0  0  0  0  0
  141.5010   70.6400  228.3110 F   0  0  0  0  0  0  0  0  0  0  0  0
  141.8710   72.6300  227.2750 F   0  0  0  0  0  0  0  0  0  0  0  0
  140.7260   71.7350  225.0910 C   0  0  0  0  0  0  0  0  0  0  0  0
  141.3472   72.6422  225.0596 H   0  0  0  0  0  0  0  0  0  0  0  0
  139.0170   75.7540  220.9280 C   0  0  0  0  0  0  0  0  0  0  0  0
  138.2393   76.4464  221.2825 H   0  0  0  0  0  0  0  0  0  0  0  0
  139.0940   75.4610  219.4680 C   0  0  0  0  0  0  0  0  0  0  0  0
  138.2718   74.7745  219.2173 H   0  0  0  0  0  0  0  0  0  0  0  0
  139.0309   76.4362  218.9630 H   0  0  0  0  0  0  0  0  0  0  0  0
  140.3030   74.8730  219.0220 C   0  0  0  0  0  0  0  0  0  0  0  0
    0.0000    0.0000    0.0000 H   0  0  0  0  0  0  0  0  0  0  0  0
  140.5774   75.8148  218.5243 H   0  0  0  0  0  0  0  0  0  0  0  0
  141.4250   74.3260  218.6090 O   0  0  0  0  0  0  0  0  0  0  0  0
  142.5840   74.0500  219.3540 C   0  0  0  0  0  0  0  0  0  0  0  0
  142.8710   72.7700  219.8020 C   0  0  0  0  0  0  0  0  0  0  0  0
  142.2055   71.9191  219.5943 H   0  0  0  0  0  0  0  0  0  0  0  0
  144.0380   72.6230  220.5230 C   0  0  0  0  0  0  0  0  0  0  0  0
  144.3065   71.6250  220.8998 H   0  0  0  0  0  0  0  0  0  0  0  0
  144.8730   73.6740  220.7860 C   0  0  0  0  0  0  0  0  0  0  0  0
  146.3410   73.3920  221.7150 Cl  0  0  0  0  0  0  0  0  0  0  0  0
  144.5370   74.9320  220.3140 C   0  0  0  0  0  0  0  0  0  0  0  0
  145.2022   75.7832  220.5215 H   0  0  0  0  0  0  0  0  0  0  0  0
  143.3930   75.1330  219.5950 C   0  0  0  0  0  0  0  0  0  0  0  0
  142.9330   76.7150  218.9780 Cl  0  0  0  0  0  0  0  0  0  0  0  0
  1  2  1  0
  2  3  1  0
  3  4  1  0
  4  5  1  0
  5  6  2  0
  6  7  1  0
  6  8  1  0
  8  9  2  0
  9 10  1  0
  9 11  1  0
 11 12  1  0
 11 13  2  0
 13 14  1  0
 13 15  1  0
 15 16  1  0
 16 17  1  0
 16 18  1  0
 16 19  1  0
 15 20  2  0
 20 21  1  0
  3 22  2  0
 22 23  1  0
 22 24  1  0
 24 25  1  0
 24 26  1  0
 24 27  1  0
 27 28  1  0
 27 29  1  0
 27 30  1  0
 30 31  1  0
 31 32  2  0
 32 33  1  0
 32 34  1  0
 34 35  1  0
 34 36  2  0
 36 37  1  0
 36 38  1  0
 38 39  1  0
 38 40  2  0
 40 41  1  0
 20  8  1  0
 40 31  1  0
M  CHG  1   4  -1
M  END
>  <UniqueID>  (3) 
17

>  <SMILES>  (3) 
O/C(=C/CCOc1ccc(Cl)cc1Cl)[N-]/N=C/c1cccc(C(F)(F)F)c1

>  <Energy>  (3) 
255.6863831339477

>  <Genealogy>  (3) 
O=C(CCCOc1ccc(Cl)cc1Cl)[N-]N=Cc1cccc(C(F)(F)F)c1 (protonated)
OC(=CCCOc1ccc(Cl)cc1Cl)[N-]N=Cc1cccc(C(F)(F)F)c1 (tautomer)
O/C(=C/CCOc1ccc(Cl)cc1Cl)[N-]/N=C/c1cccc(C(F)(F)F)c1 (cis-trans isomerization)
O/C(=C/CCOc1ccc(Cl)cc1Cl)[N-]/N=C/c1cccc(C(F)(F)F)c1 (3D coordinates assigned)
O/C(=C/CCOc1ccc(Cl)cc1Cl)[N-]/N=C/c1cccc(C(F)(F)F)c1 (optimized conformer: 255.6863831339477 kcal/mol)

>  <smiles>  (3) 
O=C(CCCOc1ccc(Cl)cc1Cl)NN=Cc1cccc(C(F)(F)F)c1

>  <score_type>  (3) 
oracle

>  <origin>  (3) 
autodockgpu

>  <m_score__min__energy>  (3) 
-6.9400000000000004

>  <m_primary>  (3) 
energy

>  <meeko>  (3) 
{"free_energy": -6.17, "intermolecular_energy": -9.45, "internal_energy": -1.41, "cluster_size": 3, "cluster_id": 5, "rank_in_cluster": 2}

>  <energy>  (3) 
-6.45

>  <cluster_rmsd>  (3) 
1.98

>  <rmsd>  (3) 
272.37

>  <cluster>  (3) 
1

$$$$
JBHRSOAXAGIKHA-GNXBGBGXNA-N
     RDKit          3D

 41 42  0  0  0  0  0  0  0  0999 V2000
  139.0990   75.5100  223.3260 H   0  0  0  0  0  0  0  0  0  0  0  0
  139.5770   74.8930  222.6990 O   0  0  0  0  0  0  0  0  0  0  0  0
  138.0940   74.3930  220.9330 C   0  0  0  0  0  0  0  0  0  0  0  0
  139.1620   72.5830  222.0980 N   0  0  0  0  0  0  0  0  0  0  0  0
  140.1870   72.2200  222.9960 N   0  0  0  0  0  0  0  0  0  0  0  0
  138.9200   73.9900  221.8830 C   0  0  0  0  0  0  0  0  0  0  0  0
  138.0709   73.8320  219.9871 H   0  0  0  0  0  0  0  0  0  0  0  0
  140.3980   70.8010  224.9450 C   0  0  0  0  0  0  0  0  0  0  0  0
  140.8350   71.8740  225.7210 C   0  0  0  0  0  0  0  0  0  0  0  0
  140.9882   72.8505  225.2383 H   0  0  0  0  0  0  0  0  0  0  0  0
  141.0790   71.7550  227.0570 C   0  0  0  0  0  0  0  0  0  0  0  0
  141.4232   72.6164  227.6482 H   0  0  0  0  0  0  0  0  0  0  0  0
  140.8820   70.5240  227.6460 C   0  0  0  0  0  0  0  0  0  0  0  0
  141.0683   70.3903  228.7218 H   0  0  0  0  0  0  0  0  0  0  0  0
  140.4500   69.4600  226.8800 C   0  0  0  0  0  0  0  0  0  0  0  0
  140.2530   68.1480  227.5730 C   0  0  0  0  0  0  0  0  0  0  0  0
  139.9920   68.3770  228.9090 F   0  0  0  0  0  0  0  0  0  0  0  0
  139.2090   67.4760  226.9580 F   0  0  0  0  0  0  0  0  0  0  0  0
  141.4250   67.4380  227.4680 F   0  0  0  0  0  0  0  0  0  0  0  0
  140.1990   69.5710  225.5210 C   0  0  0  0  0  0  0  0  0  0  0  0
  139.8550   68.7098  224.9294 H   0  0  0  0  0  0  0  0  0  0  0  0
  140.1670   71.0240  223.5280 C   0  0  0  0  0  0  0  0  0  0  0  0
  139.9684   70.1578  222.8797 H   0  0  0  0  0  0  0  0  0  0  0  0
  137.1920   75.5710  221.0810 C   0  0  0  0  0  0  0  0  0  0  0  0
  137.1258   76.0709  220.1034 H   0  0  0  0  0  0  0  0  0  0  0  0
  136.2334   75.1711  221.4433 H   0  0  0  0  0  0  0  0  0  0  0  0
  137.5940   76.5360  222.0370 C   0  0  0  0  0  0  0  0  0  0  0  0
    0.0000    0.0000    0.0000 H   0  0  0  0  0  0  0  0  0  0  0  0
  136.7278   76.2764  222.6633 H   0  0  0  0  0  0  0  0  0  0  0  0
  137.9670   77.4310  222.9240 O   0  0  0  0  0  0  0  0  0  0  0  0
  139.1860   78.1280  222.9970 C   0  0  0  0  0  0  0  0  0  0  0  0
  140.3900   77.5220  222.6730 C   0  0  0  0  0  0  0  0  0  0  0  0
  140.4424   76.4727  222.3470 H   0  0  0  0  0  0  0  0  0  0  0  0
  141.5180   78.3070  222.7820 C   0  0  0  0  0  0  0  0  0  0  0  0
  142.4959   77.8681  222.5347 H   0  0  0  0  0  0  0  0  0  0  0  0
  141.4640   79.6130  223.1870 C   0  0  0  0  0  0  0  0  0  0  0  0
  142.9560   80.5400  223.2980 Cl  0  0  0  0  0  0  0  0  0  0  0  0
  140.2340   80.1690  223.4980 C   0  0  0  0  0  0  0  0  0  0  0  0
  140.1813   81.2184  223.8235 H   0  0  0  0  0  0  0  0  0  0  0  0
  139.0850   79.4350  223.4070 C   0  0  0  0  0  0  0  0  0  0  0  0
  137.5050   80.1050  223.7930 Cl  0  0  0  0  0  0  0  0  0  0  0  0
  1  2  1  0
  2  3  1  0
  3  4  1  0
  4  5  1  0
  5  6  2  0
  6  7  1  0
  6  8  1  0
  8  9  2  0
  9 10  1  0
  9 11  1  0
 11 12  1  0
 11 13  2  0
 13 14  1  0
 13 15  1  0
 15 16  1  0
 16 17  1  0
 16 18  1  0
 16 19  1  0
 15 20  2  0
 20 21  1  0
  3 22  2  0
 22 23  1  0
 22 24  1  0
 24 25  1  0
 24 26  1  0
 24 27  1  0
 27 28  1  0
 27 29  1  0
 27 30  1  0
 30 31  1  0
 31 32  2  0
 32 33  1  0
 32 34  1  0
 34 35  1  0
 34 36  2  0
 36 37  1  0
 36 38  1  0
 38 39  1  0
 38 40  2  0
 40 41  1  0
 20  8  1  0
 40 31  1  0
M  CHG  1   4  -1
M  END
>  <UniqueID>  (4) 
17

>  <SMILES>  (4) 
O/C(=C/CCOc1ccc(Cl)cc1Cl)[N-]/N=C/c1cccc(C(F)(F)F)c1

>  <Energy>  (4) 
255.6863831339477

>  <Genealogy>  (4) 
O=C(CCCOc1ccc(Cl)cc1Cl)[N-]N=Cc1cccc(C(F)(F)F)c1 (protonated)
OC(=CCCOc1ccc(Cl)cc1Cl)[N-]N=Cc1cccc(C(F)(F)F)c1 (tautomer)
O/C(=C/CCOc1ccc(Cl)cc1Cl)[N-]/N=C/c1cccc(C(F)(F)F)c1 (cis-trans isomerization)
O/C(=C/CCOc1ccc(Cl)cc1Cl)[N-]/N=C/c1cccc(C(F)(F)F)c1 (3D coordinates assigned)
O/C(=C/CCOc1ccc(Cl)cc1Cl)[N-]/N=C/c1cccc(C(F)(F)F)c1 (optimized conformer: 255.6863831339477 kcal/mol)

>  <smiles>  (4) 
O=C(CCCOc1ccc(Cl)cc1Cl)NN=Cc1cccc(C(F)(F)F)c1

>  <score_type>  (4) 
oracle

>  <origin>  (4) 
autodockgpu

>  <m_score__min__energy>  (4) 
-6.9400000000000004

>  <m_primary>  (4) 
energy

>  <meeko>  (4) 
{"free_energy": -6.42, "intermolecular_energy": -9.7, "internal_energy": -0.92, "cluster_size": 2, "cluster_id": 3, "rank_in_cluster": 1}

>  <energy>  (4) 
-5.88

>  <cluster_rmsd>  (4) 
1.87

>  <rmsd>  (4) 
272.57

>  <cluster>  (4) 
1

$$$$
JBHRSOAXAGIKHA-GNXBGBGXNA-N
     RDKit          3D

 41 42  0  0  0  0  0  0  0  0999 V2000
  141.7680   75.5540  222.3290 H   0  0  0  0  0  0  0  0  0  0  0  0
  140.8460   75.9380  222.2620 O   0  0  0  0  0  0  0  0  0  0  0  0
  139.7410   75.1900  221.9010 C   0  0  0  0  0  0  0  0  0  0  0  0
  139.6200   73.8570  222.4420 N   0  0  0  0  0  0  0  0  0  0  0  0
  140.7850   73.0660  222.5130 N   0  0  0  0  0  0  0  0  0  0  0  0
  140.6610   71.7760  222.7030 C   0  0  0  0  0  0  0  0  0  0  0  0
  140.8297   71.0958  221.8552 H   0  0  0  0  0  0  0  0  0  0  0  0
  140.3080   71.2120  223.9960 C   0  0  0  0  0  0  0  0  0  0  0  0
  139.4490   70.1140  224.0250 C   0  0  0  0  0  0  0  0  0  0  0  0
  139.0689   69.7115  223.0744 H   0  0  0  0  0  0  0  0  0  0  0  0
  139.0640   69.5220  225.1920 C   0  0  0  0  0  0  0  0  0  0  0  0
  138.3858   68.6559  225.1901 H   0  0  0  0  0  0  0  0  0  0  0  0
  139.5490   70.0400  226.3740 C   0  0  0  0  0  0  0  0  0  0  0  0
  139.2601   69.5885  227.3346 H   0  0  0  0  0  0  0  0  0  0  0  0
  140.3990   71.1280  226.3470 C   0  0  0  0  0  0  0  0  0  0  0  0
  140.8940   71.6480  227.6610 C   0  0  0  0  0  0  0  0  0  0  0  0
  139.8440   72.2340  228.3390 F   0  0  0  0  0  0  0  0  0  0  0  0
  141.4370   70.5930  228.3760 F   0  0  0  0  0  0  0  0  0  0  0  0
  141.8430   72.6080  227.4020 F   0  0  0  0  0  0  0  0  0  0  0  0
  140.7970   71.7360  225.1670 C   0  0  0  0  0  0  0  0  0  0  0  0
  141.4758   72.6016  225.1685 H   0  0  0  0  0  0  0  0  0  0  0  0
  138.8180   75.6720  221.0860 C   0  0  0  0  0  0  0  0  0  0  0  0
  137.9291   76.1476  221.5261 H   0  0  0  0  0  0  0  0  0  0  0  0
  138.9220   75.6030  219.6010 C   0  0  0  0  0  0  0  0  0  0  0  0
  138.0962   74.9764  219.2329 H   0  0  0  0  0  0  0  0  0  0  0  0
  138.8825   76.6442  219.2485 H   0  0  0  0  0  0  0  0  0  0  0  0
  140.1330   75.0690  219.0950 C   0  0  0  0  0  0  0  0  0  0  0  0
    0.0000    0.0000    0.0000 H   0  0  0  0  0  0  0  0  0  0  0  0
  140.3599   76.0344  218.6191 H   0  0  0  0  0  0  0  0  0  0  0  0
  141.2570   74.5750  218.6250 O   0  0  0  0  0  0  0  0  0  0  0  0
  142.4230   74.2380  219.3350 C   0  0  0  0  0  0  0  0  0  0  0  0
  142.6500   72.9460  219.7860 C   0  0  0  0  0  0  0  0  0  0  0  0
  141.9295   72.1339  219.6089 H   0  0  0  0  0  0  0  0  0  0  0  0
  143.8300   72.7370  220.4690 C   0  0  0  0  0  0  0  0  0  0  0  0
  144.0540   71.7276  220.8445 H   0  0  0  0  0  0  0  0  0  0  0  0
  144.7320   73.7410  220.6960 C   0  0  0  0  0  0  0  0  0  0  0  0
  146.2110   73.3820  221.5790 Cl  0  0  0  0  0  0  0  0  0  0  0  0
  144.4540   75.0120  220.2230 C   0  0  0  0  0  0  0  0  0  0  0  0
  145.1738   75.8246  220.4006 H   0  0  0  0  0  0  0  0  0  0  0  0
  143.3000   75.2740  219.5390 C   0  0  0  0  0  0  0  0  0  0  0  0
  142.9120   76.8750  218.9220 Cl  0  0  0  0  0  0  0  0  0  0  0  0
  1  2  1  0
  2  3  1  0
  3  4  1  0
  4  5  1  0
  5  6  2  0
  6  7  1  0
  6  8  1  0
  8  9  2  0
  9 10  1  0
  9 11  1  0
 11 12  1  0
 11 13  2  0
 13 14  1  0
 13 15  1  0
 15 16  1  0
 16 17  1  0
 16 18  1  0
 16 19  1  0
 15 20  2  0
 20 21  1  0
  3 22  2  0
 22 23  1  0
 22 24  1  0
 24 25  1  0
 24 26  1  0
 24 27  1  0
 27 28  1  0
 27 29  1  0
 27 30  1  0
 30 31  1  0
 31 32  2  0
 32 33  1  0
 32 34  1  0
 34 35  1  0
 34 36  2  0
 36 37  1  0
 36 38  1  0
 38 39  1  0
 38 40  2  0
 40 41  1  0
 20  8  1  0
 40 31  1  0
M  CHG  1   4  -1
M  END
>  <UniqueID>  (5) 
17

>  <SMILES>  (5) 
O/C(=C/CCOc1ccc(Cl)cc1Cl)[N-]/N=C/c1cccc(C(F)(F)F)c1

>  <Energy>  (5) 
255.6863831339477

>  <Genealogy>  (5) 
O=C(CCCOc1ccc(Cl)cc1Cl)[N-]N=Cc1cccc(C(F)(F)F)c1 (protonated)
OC(=CCCOc1ccc(Cl)cc1Cl)[N-]N=Cc1cccc(C(F)(F)F)c1 (tautomer)
O/C(=C/CCOc1ccc(Cl)cc1Cl)[N-]/N=C/c1cccc(C(F)(F)F)c1 (cis-trans isomerization)
O/C(=C/CCOc1ccc(Cl)cc1Cl)[N-]/N=C/c1cccc(C(F)(F)F)c1 (3D coordinates assigned)
O/C(=C/CCOc1ccc(Cl)cc1Cl)[N-]/N=C/c1cccc(C(F)(F)F)c1 (optimized conformer: 255.6863831339477 kcal/mol)

>  <smiles>  (5) 
O=C(CCCOc1ccc(Cl)cc1Cl)NN=Cc1cccc(C(F)(F)F)c1

>  <score_type>  (5) 
oracle

>  <origin>  (5) 
autodockgpu

>  <m_score__min__energy>  (5) 
-6.9400000000000004

>  <m_primary>  (5) 
energy

>  <meeko>  (5) 
{"free_energy": -5.87, "intermolecular_energy": -9.15, "internal_energy": -1.55, "cluster_size": 3, "cluster_id": 5, "rank_in_cluster": 3}

>  <energy>  (5) 
-5.86

>  <cluster_rmsd>  (5) 
1.21

>  <rmsd>  (5) 
272.49

>  <cluster>  (5) 
1

$$$$
JBHRSOAXAGIKHA-GNXBGBGXNA-N
     RDKit          3D

 41 42  0  0  0  0  0  0  0  0999 V2000
  142.4980   75.8340  221.2960 H   0  0  0  0  0  0  0  0  0  0  0  0
  142.2430   74.8860  221.1030 O   0  0  0  0  0  0  0  0  0  0  0  0
  140.6660   73.1320  221.0400 C   0  0  0  0  0  0  0  0  0  0  0  0
  140.0100   75.2500  221.9690 N   0  0  0  0  0  0  0  0  0  0  0  0
  140.2480   76.6390  221.9220 N   0  0  0  0  0  0  0  0  0  0  0  0
  140.9810   74.3770  221.3530 C   0  0  0  0  0  0  0  0  0  0  0  0
  140.0832   72.9548  220.1240 H   0  0  0  0  0  0  0  0  0  0  0  0
  141.4360   78.5750  222.7560 C   0  0  0  0  0  0  0  0  0  0  0  0
  142.1760   79.0920  223.8200 C   0  0  0  0  0  0  0  0  0  0  0  0
  142.4611   78.4212  224.6439 H   0  0  0  0  0  0  0  0  0  0  0  0
  142.5580   80.4000  223.8740 C   0  0  0  0  0  0  0  0  0  0  0  0
  143.1414   80.7844  224.7236 H   0  0  0  0  0  0  0  0  0  0  0  0
  142.1920   81.2270  222.8330 C   0  0  0  0  0  0  0  0  0  0  0  0
  142.4833   82.2877  222.8417 H   0  0  0  0  0  0  0  0  0  0  0  0
  141.4580   80.7180  221.7790 C   0  0  0  0  0  0  0  0  0  0  0  0
  141.0880   81.6620  220.6780 C   0  0  0  0  0  0  0  0  0  0  0  0
  141.8550   81.3800  219.5650 F   0  0  0  0  0  0  0  0  0  0  0  0
  139.7360   81.5220  220.4140 F   0  0  0  0  0  0  0  0  0  0  0  0
  141.3790   82.9360  221.1020 F   0  0  0  0  0  0  0  0  0  0  0  0
  141.0660   79.3900  221.7150 C   0  0  0  0  0  0  0  0  0  0  0  0
  140.4827   79.0051  220.8655 H   0  0  0  0  0  0  0  0  0  0  0  0
  141.0740   77.1680  222.7880 C   0  0  0  0  0  0  0  0  0  0  0  0
  141.5095   76.5254  223.5673 H   0  0  0  0  0  0  0  0  0  0  0  0
  141.0610   71.9570  221.8660 C   0  0  0  0  0  0  0  0  0  0  0  0
  140.8902   71.0501  221.2674 H   0  0  0  0  0  0  0  0  0  0  0  0
  142.1146   72.1207  222.1363 H   0  0  0  0  0  0  0  0  0  0  0  0
  140.3660   71.8070  223.0920 C   0  0  0  0  0  0  0  0  0  0  0  0
    0.0000    0.0000    0.0000 H   0  0  0  0  0  0  0  0  0  0  0  0
  140.7477   70.7793  223.1826 H   0  0  0  0  0  0  0  0  0  0  0  0
  139.7220   71.6670  224.2290 O   0  0  0  0  0  0  0  0  0  0  0  0
  140.0700   70.8700  225.3340 C   0  0  0  0  0  0  0  0  0  0  0  0
  140.7830   71.3860  226.4050 C   0  0  0  0  0  0  0  0  0  0  0  0
  141.1066   72.4369  226.4349 H   0  0  0  0  0  0  0  0  0  0  0  0
  141.0640   70.5080  227.4310 C   0  0  0  0  0  0  0  0  0  0  0  0
  141.6274   70.8726  228.3026 H   0  0  0  0  0  0  0  0  0  0  0  0
  140.6660   69.1990  227.4020 C   0  0  0  0  0  0  0  0  0  0  0  0
  141.0710   68.1500  228.7570 Cl  0  0  0  0  0  0  0  0  0  0  0  0
  139.9560   68.7370  226.3070 C   0  0  0  0  0  0  0  0  0  0  0  0
  139.6322   67.6862  226.2762 H   0  0  0  0  0  0  0  0  0  0  0  0
  139.6510   69.5650  225.2640 C   0  0  0  0  0  0  0  0  0  0  0  0
  138.7500   69.0150  223.8570 Cl  0  0  0  0  0  0  0  0  0  0  0  0
  1  2  1  0
  2  3  1  0
  3  4  1  0
  4  5  1  0
  5  6  2  0
  6  7  1  0
  6  8  1  0
  8  9  2  0
  9 10  1  0
  9 11  1  0
 11 12  1  0
 11 13  2  0
 13 14  1  0
 13 15  1  0
 15 16  1  0
 16 17  1  0
 16 18  1  0
 16 19  1  0
 15 20  2  0
 20 21  1  0
  3 22  2  0
 22 23  1  0
 22 24  1  0
 24 25  1  0
 24 26  1  0
 24 27  1  0
 27 28  1  0
 27 29  1  0
 27 30  1  0
 30 31  1  0
 31 32  2  0
 32 33  1  0
 32 34  1  0
 34 35  1  0
 34 36  2  0
 36 37  1  0
 36 38  1  0
 38 39  1  0
 38 40  2  0
 40 41  1  0
 20  8  1  0
 40 31  1  0
M  CHG  1   4  -1
M  END
>  <UniqueID>  (6) 
17

>  <SMILES>  (6) 
O/C(=C/CCOc1ccc(Cl)cc1Cl)[N-]/N=C/c1cccc(C(F)(F)F)c1

>  <Energy>  (6) 
255.6863831339477

>  <Genealogy>  (6) 
O=C(CCCOc1ccc(Cl)cc1Cl)[N-]N=Cc1cccc(C(F)(F)F)c1 (protonated)
OC(=CCCOc1ccc(Cl)cc1Cl)[N-]N=Cc1cccc(C(F)(F)F)c1 (tautomer)
O/C(=C/CCOc1ccc(Cl)cc1Cl)[N-]/N=C/c1cccc(C(F)(F)F)c1 (cis-trans isomerization)
O/C(=C/CCOc1ccc(Cl)cc1Cl)[N-]/N=C/c1cccc(C(F)(F)F)c1 (3D coordinates assigned)
O/C(=C/CCOc1ccc(Cl)cc1Cl)[N-]/N=C/c1cccc(C(F)(F)F)c1 (optimized conformer: 255.6863831339477 kcal/mol)

>  <smiles>  (6) 
O=C(CCCOc1ccc(Cl)cc1Cl)NN=Cc1cccc(C(F)(F)F)c1

>  <score_type>  (6) 
oracle

>  <origin>  (6) 
autodockgpu

>  <m_score__min__energy>  (6) 
-6.9400000000000004

>  <m_primary>  (6) 
energy

>  <meeko>  (6) 
{"free_energy": -6.64, "intermolecular_energy": -9.92, "internal_energy": -0.8, "cluster_size": 5, "cluster_id": 2, "rank_in_cluster": 1}

>  <energy>  (6) 
-6.64

>  <cluster_rmsd>  (6) 
0.0

>  <rmsd>  (6) 
272.5

>  <cluster>  (6) 
2

$$$$
JBHRSOAXAGIKHA-GNXBGBGXNA-N
     RDKit          3D

 41 42  0  0  0  0  0  0  0  0999 V2000
  139.0770   73.6870  222.8160 H   0  0  0  0  0  0  0  0  0  0  0  0
  139.3360   74.5710  222.4240 O   0  0  0  0  0  0  0  0  0  0  0  0
  140.1910   74.6960  221.3440 C   0  0  0  0  0  0  0  0  0  0  0  0
  140.3970   76.0140  220.7930 N   0  0  0  0  0  0  0  0  0  0  0  0
  141.7020   76.5460  220.8240 N   0  0  0  0  0  0  0  0  0  0  0  0
  141.8590   77.8410  220.7120 C   0  0  0  0  0  0  0  0  0  0  0  0
  142.2718   78.2467  219.7766 H   0  0  0  0  0  0  0  0  0  0  0  0
  141.5070   78.7610  221.7800 C   0  0  0  0  0  0  0  0  0  0  0  0
  142.5370   79.3890  222.4790 C   0  0  0  0  0  0  0  0  0  0  0  0
  143.5782   79.1703  222.1997 H   0  0  0  0  0  0  0  0  0  0  0  0
  142.2990   80.2650  223.4970 C   0  0  0  0  0  0  0  0  0  0  0  0
  143.1290   80.7470  224.0344 H   0  0  0  0  0  0  0  0  0  0  0  0
  140.9880   80.5290  223.8330 C   0  0  0  0  0  0  0  0  0  0  0  0
  140.7571   81.2311  224.6477 H   0  0  0  0  0  0  0  0  0  0  0  0
  139.9660   79.9080  223.1420 C   0  0  0  0  0  0  0  0  0  0  0  0
  138.5630   80.2320  223.5510 C   0  0  0  0  0  0  0  0  0  0  0  0
  137.7090   79.2810  223.0290 F   0  0  0  0  0  0  0  0  0  0  0  0
  138.5030   80.2650  224.9340 F   0  0  0  0  0  0  0  0  0  0  0  0
  138.2420   81.4550  223.0150 F   0  0  0  0  0  0  0  0  0  0  0  0
  140.1980   79.0160  222.1070 C   0  0  0  0  0  0  0  0  0  0  0  0
  139.3685   78.5327  221.5701 H   0  0  0  0  0  0  0  0  0  0  0  0
  140.8060   73.6460  220.8270 C   0  0  0  0  0  0  0  0  0  0  0  0
  140.9731   73.6211  219.7400 H   0  0  0  0  0  0  0  0  0  0  0  0
  141.2840   72.4950  221.6430 C   0  0  0  0  0  0  0  0  0  0  0  0
  141.4078   71.6326  220.9715 H   0  0  0  0  0  0  0  0  0  0  0  0
  142.2194   72.8296  222.1154 H   0  0  0  0  0  0  0  0  0  0  0  0
  140.4330   72.1010  222.7060 C   0  0  0  0  0  0  0  0  0  0  0  0
    0.0000    0.0000    0.0000 H   0  0  0  0  0  0  0  0  0  0  0  0
  140.9131   71.1115  222.7236 H   0  0  0  0  0  0  0  0  0  0  0  0
  139.6450   71.7350  223.6920 O   0  0  0  0  0  0  0  0  0  0  0  0
  139.9770   71.0070  224.8470 C   0  0  0  0  0  0  0  0  0  0  0  0
  140.7710   71.5510  225.8450 C   0  0  0  0  0  0  0  0  0  0  0  0
  141.1736   72.5722  225.7744 H   0  0  0  0  0  0  0  0  0  0  0  0
  141.0280   70.7410  226.9310 C   0  0  0  0  0  0  0  0  0  0  0  0
  141.6528   71.1311  227.7480 H   0  0  0  0  0  0  0  0  0  0  0  0
  140.5330   69.4690  227.0280 C   0  0  0  0  0  0  0  0  0  0  0  0
  140.9140   68.5070  228.4520 Cl  0  0  0  0  0  0  0  0  0  0  0  0
  139.7450   68.9760  226.0020 C   0  0  0  0  0  0  0  0  0  0  0  0
  139.3425   67.9547  226.0720 H   0  0  0  0  0  0  0  0  0  0  0  0
  139.4590   69.7370  224.9040 C   0  0  0  0  0  0  0  0  0  0  0  0
  138.4620   69.1460  223.5810 Cl  0  0  0  0  0  0  0  0  0  0  0  0
  1  2  1  0
  2  3  1  0
  3  4  1  0
  4  5  1  0
  5  6  2  0
  6  7  1  0
  6  8  1  0
  8  9  2  0
  9 10  1  0
  9 11  1  0
 11 12  1  0
 11 13  2  0
 13 14  1  0
 13 15  1  0
 15 16  1  0
 16 17  1  0
 16 18  1  0
 16 19  1  0
 15 20  2  0
 20 21  1  0
  3 22  2  0
 22 23  1  0
 22 24  1  0
 24 25  1  0
 24 26  1  0
 24 27  1  0
 27 28  1  0
 27 29  1  0
 27 30  1  0
 30 31  1  0
 31 32  2  0
 32 33  1  0
 32 34  1  0
 34 35  1  0
 34 36  2  0
 36 37  1  0
 36 38  1  0
 38 39  1  0
 38 40  2  0
 40 41  1  0
 20  8  1  0
 40 31  1  0
M  CHG  1   4  -1
M  END
>  <UniqueID>  (7) 
17

>  <SMILES>  (7) 
O/C(=C/CCOc1ccc(Cl)cc1Cl)[N-]/N=C/c1cccc(C(F)(F)F)c1

>  <Energy>  (7) 
255.6863831339477

>  <Genealogy>  (7) 
O=C(CCCOc1ccc(Cl)cc1Cl)[N-]N=Cc1cccc(C(F)(F)F)c1 (protonated)
OC(=CCCOc1ccc(Cl)cc1Cl)[N-]N=Cc1cccc(C(F)(F)F)c1 (tautomer)
O/C(=C/CCOc1ccc(Cl)cc1Cl)[N-]/N=C/c1cccc(C(F)(F)F)c1 (cis-trans isomerization)
O/C(=C/CCOc1ccc(Cl)cc1Cl)[N-]/N=C/c1cccc(C(F)(F)F)c1 (3D coordinates assigned)
O/C(=C/CCOc1ccc(Cl)cc1Cl)[N-]/N=C/c1cccc(C(F)(F)F)c1 (optimized conformer: 255.6863831339477 kcal/mol)

>  <smiles>  (7) 
O=C(CCCOc1ccc(Cl)cc1Cl)NN=Cc1cccc(C(F)(F)F)c1

>  <score_type>  (7) 
oracle

>  <origin>  (7) 
autodockgpu

>  <m_score__min__energy>  (7) 
-6.9400000000000004

>  <m_primary>  (7) 
energy

>  <meeko>  (7) 
{"free_energy": -6.11, "intermolecular_energy": -9.39, "internal_energy": -1.03, "cluster_size": 1, "cluster_id": 6, "rank_in_cluster": 1}

>  <energy>  (7) 
-6.6

>  <cluster_rmsd>  (7) 
1.67

>  <rmsd>  (7) 
272.62

>  <cluster>  (7) 
2

$$$$
JBHRSOAXAGIKHA-GNXBGBGXNA-N
     RDKit          3D

 41 42  0  0  0  0  0  0  0  0999 V2000
  141.8640   76.0130  221.9660 H   0  0  0  0  0  0  0  0  0  0  0  0
  141.9380   75.1880  221.4040 O   0  0  0  0  0  0  0  0  0  0  0  0
  140.9520   74.2180  221.3540 C   0  0  0  0  0  0  0  0  0  0  0  0
  139.6720   74.5240  221.9460 N   0  0  0  0  0  0  0  0  0  0  0  0
  139.5690   75.6940  222.7260 N   0  0  0  0  0  0  0  0  0  0  0  0
  139.1810   76.8050  222.1510 C   0  0  0  0  0  0  0  0  0  0  0  0
  138.1124   76.9436  221.9300 H   0  0  0  0  0  0  0  0  0  0  0  0
  140.1140   77.8610  221.7950 C   0  0  0  0  0  0  0  0  0  0  0  0
  140.3230   78.1290  220.4420 C   0  0  0  0  0  0  0  0  0  0  0  0
  139.7775   77.5364  219.6929 H   0  0  0  0  0  0  0  0  0  0  0  0
  141.1800   79.1000  220.0160 C   0  0  0  0  0  0  0  0  0  0  0  0
  141.3278   79.2938  218.9433 H   0  0  0  0  0  0  0  0  0  0  0  0
  141.8560   79.8320  220.9690 C   0  0  0  0  0  0  0  0  0  0  0  0
  142.5556   80.6237  220.6629 H   0  0  0  0  0  0  0  0  0  0  0  0
  141.6520   79.5680  222.3090 C   0  0  0  0  0  0  0  0  0  0  0  0
  142.4140   80.3930  223.2980 C   0  0  0  0  0  0  0  0  0  0  0  0
  141.8570   81.6550  223.3570 F   0  0  0  0  0  0  0  0  0  0  0  0
  142.3700   79.7590  224.5280 F   0  0  0  0  0  0  0  0  0  0  0  0
  143.7070   80.5030  222.8460 F   0  0  0  0  0  0  0  0  0  0  0  0
  140.7820   78.5830  222.7510 C   0  0  0  0  0  0  0  0  0  0  0  0
  140.6337   78.3887  223.8235 H   0  0  0  0  0  0  0  0  0  0  0  0
  141.1680   73.0460  220.7830 C   0  0  0  0  0  0  0  0  0  0  0  0
  141.3036   73.0133  219.6919 H   0  0  0  0  0  0  0  0  0  0  0  0
  141.2370   71.7660  221.5440 C   0  0  0  0  0  0  0  0  0  0  0  0
  140.8528   70.9654  220.8948 H   0  0  0  0  0  0  0  0  0  0  0  0
  142.2926   71.6416  221.8274 H   0  0  0  0  0  0  0  0  0  0  0  0
  140.5040   71.7330  222.7570 C   0  0  0  0  0  0  0  0  0  0  0  0
    0.0000    0.0000    0.0000 H   0  0  0  0  0  0  0  0  0  0  0  0
  140.8005   70.6845  222.9076 H   0  0  0  0  0  0  0  0  0  0  0  0
  139.8240   71.7020  223.8810 O   0  0  0  0  0  0  0  0  0  0  0  0
  140.1070   70.9710  225.0480 C   0  0  0  0  0  0  0  0  0  0  0  0
  140.8570   71.5130  226.0800 C   0  0  0  0  0  0  0  0  0  0  0  0
  141.2620   72.5345  226.0292 H   0  0  0  0  0  0  0  0  0  0  0  0
  141.0670   70.7000  227.1740 C   0  0  0  0  0  0  0  0  0  0  0  0
  141.6574   71.0876  228.0173 H   0  0  0  0  0  0  0  0  0  0  0  0
  140.5670   69.4280  227.2480 C   0  0  0  0  0  0  0  0  0  0  0  0
  140.8870   68.4620  228.6840 Cl  0  0  0  0  0  0  0  0  0  0  0  0
  139.8240   68.9370  226.1880 C   0  0  0  0  0  0  0  0  0  0  0  0
  139.4187   67.9156  226.2384 H   0  0  0  0  0  0  0  0  0  0  0  0
  139.5860   69.7010  225.0800 C   0  0  0  0  0  0  0  0  0  0  0  0
  138.6460   69.1140  223.7140 Cl  0  0  0  0  0  0  0  0  0  0  0  0
  1  2  1  0
  2  3  1  0
  3  4  1  0
  4  5  1  0
  5  6  2  0
  6  7  1  0
  6  8  1  0
  8  9  2  0
  9 10  1  0
  9 11  1  0
 11 12  1  0
 11 13  2  0
 13 14  1  0
 13 15  1  0
 15 16  1  0
 16 17  1  0
 16 18  1  0
 16 19  1  0
 15 20  2  0
 20 21  1  0
  3 22  2  0
 22 23  1  0
 22 24  1  0
 24 25  1  0
 24 26  1  0
 24 27  1  0
 27 28  1  0
 27 29  1  0
 27 30  1  0
 30 31  1  0
 31 32  2  0
 32 33  1  0
 32 34  1  0
 34 35  1  0
 34 36  2  0
 36 37  1  0
 36 38  1  0
 38 39  1  0
 38 40  2  0
 40 41  1  0
 20  8  1  0
 40 31  1  0
M  CHG  1   4  -1
M  END
>  <UniqueID>  (8) 
17

>  <SMILES>  (8) 
O/C(=C/CCOc1ccc(Cl)cc1Cl)[N-]/N=C/c1cccc(C(F)(F)F)c1

>  <Energy>  (8) 
255.6863831339477

>  <Genealogy>  (8) 
O=C(CCCOc1ccc(Cl)cc1Cl)[N-]N=Cc1cccc(C(F)(F)F)c1 (protonated)
OC(=CCCOc1ccc(Cl)cc1Cl)[N-]N=Cc1cccc(C(F)(F)F)c1 (tautomer)
O/C(=C/CCOc1ccc(Cl)cc1Cl)[N-]/N=C/c1cccc(C(F)(F)F)c1 (cis-trans isomerization)
O/C(=C/CCOc1ccc(Cl)cc1Cl)[N-]/N=C/c1cccc(C(F)(F)F)c1 (3D coordinates assigned)
O/C(=C/CCOc1ccc(Cl)cc1Cl)[N-]/N=C/c1cccc(C(F)(F)F)c1 (optimized conformer: 255.6863831339477 kcal/mol)

>  <smiles>  (8) 
O=C(CCCOc1ccc(Cl)cc1Cl)NN=Cc1cccc(C(F)(F)F)c1

>  <score_type>  (8) 
oracle

>  <origin>  (8) 
autodockgpu

>  <m_score__min__energy>  (8) 
-6.9400000000000004

>  <m_primary>  (8) 
energy

>  <meeko>  (8) 
{"free_energy": -6.28, "intermolecular_energy": -9.56, "internal_energy": -1.05, "cluster_size": 5, "cluster_id": 2, "rank_in_cluster": 4}

>  <energy>  (8) 
-6.37

>  <cluster_rmsd>  (8) 
0.75

>  <rmsd>  (8) 
272.23

>  <cluster>  (8) 
2

$$$$
JBHRSOAXAGIKHA-GNXBGBGXNA-N
     RDKit          3D

 41 42  0  0  0  0  0  0  0  0999 V2000
  142.5600   75.6270  221.2500 H   0  0  0  0  0  0  0  0  0  0  0  0
  142.4980   74.6380  221.1070 O   0  0  0  0  0  0  0  0  0  0  0  0
  141.4290   73.8770  221.5440 C   0  0  0  0  0  0  0  0  0  0  0  0
  140.2340   74.5700  221.9660 N   0  0  0  0  0  0  0  0  0  0  0  0
  140.1500   75.9540  221.7140 N   0  0  0  0  0  0  0  0  0  0  0  0
  140.3540   76.7890  222.7010 C   0  0  0  0  0  0  0  0  0  0  0  0
  139.9881   76.5242  223.7040 H   0  0  0  0  0  0  0  0  0  0  0  0
  141.0470   78.0540  222.5190 C   0  0  0  0  0  0  0  0  0  0  0  0
  141.8280   78.5380  223.5680 C   0  0  0  0  0  0  0  0  0  0  0  0
  141.8953   77.9499  224.4952 H   0  0  0  0  0  0  0  0  0  0  0  0
  142.5110   79.7150  223.4840 C   0  0  0  0  0  0  0  0  0  0  0  0
  143.1215   80.0757  224.3249 H   0  0  0  0  0  0  0  0  0  0  0  0
  142.4150   80.4400  222.3160 C   0  0  0  0  0  0  0  0  0  0  0  0
  142.9523   81.3942  222.2123 H   0  0  0  0  0  0  0  0  0  0  0  0
  141.6410   79.9630  221.2760 C   0  0  0  0  0  0  0  0  0  0  0  0
  141.5740   80.7930  220.0320 C   0  0  0  0  0  0  0  0  0  0  0  0
  140.3610   80.5750  219.4090 F   0  0  0  0  0  0  0  0  0  0  0  0
  141.7350   82.1240  220.3800 F   0  0  0  0  0  0  0  0  0  0  0  0
  142.5810   80.3770  219.1950 F   0  0  0  0  0  0  0  0  0  0  0  0
  140.9440   78.7680  221.3510 C   0  0  0  0  0  0  0  0  0  0  0  0
  140.3338   78.4066  220.5101 H   0  0  0  0  0  0  0  0  0  0  0  0
  141.4900   72.5570  221.5770 C   0  0  0  0  0  0  0  0  0  0  0  0
  142.4760   72.0769  221.4917 H   0  0  0  0  0  0  0  0  0  0  0  0
  140.2890   71.6870  221.7240 C   0  0  0  0  0  0  0  0  0  0  0  0
  139.5015   72.0840  221.0666 H   0  0  0  0  0  0  0  0  0  0  0  0
  140.6199   70.6716  221.4604 H   0  0  0  0  0  0  0  0  0  0  0  0
  139.7560   71.5920  223.0340 C   0  0  0  0  0  0  0  0  0  0  0  0
    0.0000    0.0000    0.0000 H   0  0  0  0  0  0  0  0  0  0  0  0
  140.1463   70.5670  223.1185 H   0  0  0  0  0  0  0  0  0  0  0  0
  139.2620   71.5050  224.2480 O   0  0  0  0  0  0  0  0  0  0  0  0
  139.7440   70.7480  225.3310 C   0  0  0  0  0  0  0  0  0  0  0  0
  140.6380   71.2800  226.2470 C   0  0  0  0  0  0  0  0  0  0  0  0
  141.0070   72.3131  226.1659 H   0  0  0  0  0  0  0  0  0  0  0  0
  141.0390   70.4410  227.2660 C   0  0  0  0  0  0  0  0  0  0  0  0
  141.7491   70.8194  228.0161 H   0  0  0  0  0  0  0  0  0  0  0  0
  140.5850   69.1550  227.3770 C   0  0  0  0  0  0  0  0  0  0  0  0
  141.1510   68.1570  228.7110 Cl  0  0  0  0  0  0  0  0  0  0  0  0
  139.6920   68.6760  226.4340 C   0  0  0  0  0  0  0  0  0  0  0  0
  139.3222   67.6432  226.5153 H   0  0  0  0  0  0  0  0  0  0  0  0
  139.2620   69.4640  225.4040 C   0  0  0  0  0  0  0  0  0  0  0  0
  138.1280   68.8920  224.1870 Cl  0  0  0  0  0  0  0  0  0  0  0  0
  1  2  1  0
  2  3  1  0
  3  4  1  0
  4  5  1  0
  5  6  2  0
  6  7  1  0
  6  8  1  0
  8  9  2  0
  9 10  1  0
  9 11  1  0
 11 12  1  0
 11 13  2  0
 13 14  1  0
 13 15  1  0
 15 16  1  0
 16 17  1  0
 16 18  1  0
 16 19  1  0
 15 20  2  0
 20 21  1  0
  3 22  2  0
 22 23  1  0
 22 24  1  0
 24 25  1  0
 24 26  1  0
 24 27  1  0
 27 28  1  0
 27 29  1  0
 27 30  1  0
 30 31  1  0
 31 32  2  0
 32 33  1  0
 32 34  1  0
 34 35  1  0
 34 36  2  0
 36 37  1  0
 36 38  1  0
 38 39  1  0
 38 40  2  0
 40 41  1  0
 20  8  1  0
 40 31  1  0
M  CHG  1   4  -1
M  END
>  <UniqueID>  (9) 
17

>  <SMILES>  (9) 
O/C(=C/CCOc1ccc(Cl)cc1Cl)[N-]/N=C/c1cccc(C(F)(F)F)c1

>  <Energy>  (9) 
255.6863831339477

>  <Genealogy>  (9) 
O=C(CCCOc1ccc(Cl)cc1Cl)[N-]N=Cc1cccc(C(F)(F)F)c1 (protonated)
OC(=CCCOc1ccc(Cl)cc1Cl)[N-]N=Cc1cccc(C(F)(F)F)c1 (tautomer)
O/C(=C/CCOc1ccc(Cl)cc1Cl)[N-]/N=C/c1cccc(C(F)(F)F)c1 (cis-trans isomerization)
O/C(=C/CCOc1ccc(Cl)cc1Cl)[N-]/N=C/c1cccc(C(F)(F)F)c1 (3D coordinates assigned)
O/C(=C/CCOc1ccc(Cl)cc1Cl)[N-]/N=C/c1cccc(C(F)(F)F)c1 (optimized conformer: 255.6863831339477 kcal/mol)

>  <smiles>  (9) 
O=C(CCCOc1ccc(Cl)cc1Cl)NN=Cc1cccc(C(F)(F)F)c1

>  <score_type>  (9) 
oracle

>  <origin>  (9) 
autodockgpu

>  <m_score__min__energy>  (9) 
-6.9400000000000004

>  <m_primary>  (9) 
energy

>  <meeko>  (9) 
{"free_energy": -6.37, "intermolecular_energy": -9.65, "internal_energy": -0.95, "cluster_size": 5, "cluster_id": 2, "rank_in_cluster": 3}

>  <energy>  (9) 
-6.28

>  <cluster_rmsd>  (9) 
1.64

>  <rmsd>  (9) 
272.4

>  <cluster>  (9) 
2

$$$$
JBHRSOAXAGIKHA-GNXBGBGXNA-N
     RDKit          3D

 41 42  0  0  0  0  0  0  0  0999 V2000
  139.1840   74.4010  222.9980 H   0  0  0  0  0  0  0  0  0  0  0  0
  139.6850   73.8030  222.3710 O   0  0  0  0  0  0  0  0  0  0  0  0
  141.1490   73.4700  220.5500 C   0  0  0  0  0  0  0  0  0  0  0  0
  140.3630   75.6930  221.0160 N   0  0  0  0  0  0  0  0  0  0  0  0
  140.0780   76.5690  222.0830 N   0  0  0  0  0  0  0  0  0  0  0  0
  140.4180   74.2790  221.2980 C   0  0  0  0  0  0  0  0  0  0  0  0
  142.1305   73.8243  220.2020 H   0  0  0  0  0  0  0  0  0  0  0  0
  141.3790   78.5310  222.6450 C   0  0  0  0  0  0  0  0  0  0  0  0
  141.9230   79.1630  223.7630 C   0  0  0  0  0  0  0  0  0  0  0  0
  142.1034   78.5712  224.6725 H   0  0  0  0  0  0  0  0  0  0  0  0
  142.2390   80.4900  223.7670 C   0  0  0  0  0  0  0  0  0  0  0  0
  142.6675   80.9669  224.6609 H   0  0  0  0  0  0  0  0  0  0  0  0
  142.0060   81.2160  222.6190 C   0  0  0  0  0  0  0  0  0  0  0  0
  142.2487   82.2884  222.5856 H   0  0  0  0  0  0  0  0  0  0  0  0
  141.4670   80.5930  221.5110 C   0  0  0  0  0  0  0  0  0  0  0  0
  141.2350   81.4310  220.2930 C   0  0  0  0  0  0  0  0  0  0  0  0
  141.4040   82.7610  220.6220 F   0  0  0  0  0  0  0  0  0  0  0  0
  142.1230   81.0330  219.3080 F   0  0  0  0  0  0  0  0  0  0  0  0
  139.9350   81.2380  219.8920 F   0  0  0  0  0  0  0  0  0  0  0  0
  141.1430   79.2450  221.4970 C   0  0  0  0  0  0  0  0  0  0  0  0
  140.7148   78.7678  220.6032 H   0  0  0  0  0  0  0  0  0  0  0  0
  141.0740   77.1130  222.7370 C   0  0  0  0  0  0  0  0  0  0  0  0
  141.7008   76.4751  223.3775 H   0  0  0  0  0  0  0  0  0  0  0  0
  140.7090   72.1020  220.1550 C   0  0  0  0  0  0  0  0  0  0  0  0
  139.9706   72.2049  219.3461 H   0  0  0  0  0  0  0  0  0  0  0  0
  141.6233   71.5668  219.8591 H   0  0  0  0  0  0  0  0  0  0  0  0
  140.1220   71.3240  221.1840 C   0  0  0  0  0  0  0  0  0  0  0  0
    0.0000    0.0000    0.0000 H   0  0  0  0  0  0  0  0  0  0  0  0
  140.8440   70.5180  220.9865 H   0  0  0  0  0  0  0  0  0  0  0  0
  139.5780   70.6040  222.1390 O   0  0  0  0  0  0  0  0  0  0  0  0
  139.8580   70.6300  223.5160 C   0  0  0  0  0  0  0  0  0  0  0  0
  140.7070   71.5780  224.0660 C   0  0  0  0  0  0  0  0  0  0  0  0
  141.1955   72.3472  223.4497 H   0  0  0  0  0  0  0  0  0  0  0  0
  140.9050   71.5030  225.4290 C   0  0  0  0  0  0  0  0  0  0  0  0
  141.5713   72.2346  225.9095 H   0  0  0  0  0  0  0  0  0  0  0  0
  140.3020   70.5510  226.2040 C   0  0  0  0  0  0  0  0  0  0  0  0
  140.6140   70.5320  227.9370 Cl  0  0  0  0  0  0  0  0  0  0  0  0
  139.4630   69.6280  225.6030 C   0  0  0  0  0  0  0  0  0  0  0  0
  138.9748   68.8585  226.2191 H   0  0  0  0  0  0  0  0  0  0  0  0
  139.2320   69.6580  224.2570 C   0  0  0  0  0  0  0  0  0  0  0  0
  138.1730   68.5040  223.4560 Cl  0  0  0  0  0  0  0  0  0  0  0  0
  1  2  1  0
  2  3  1  0
  3  4  1  0
  4  5  1  0
  5  6  2  0
  6  7  1  0
  6  8  1  0
  8  9  2  0
  9 10  1  0
  9 11  1  0
 11 12  1  0
 11 13  2  0
 13 14  1  0
 13 15  1  0
 15 16  1  0
 16 17  1  0
 16 18  1  0
 16 19  1  0
 15 20  2  0
 20 21  1  0
  3 22  2  0
 22 23  1  0
 22 24  1  0
 24 25  1  0
 24 26  1  0
 24 27  1  0
 27 28  1  0
 27 29  1  0
 27 30  1  0
 30 31  1  0
 31 32  2  0
 32 33  1  0
 32 34  1  0
 34 35  1  0
 34 36  2  0
 36 37  1  0
 36 38  1  0
 38 39  1  0
 38 40  2  0
 40 41  1  0
 20  8  1  0
 40 31  1  0
M  CHG  1   4  -1
M  END
>  <UniqueID>  (10) 
17

>  <SMILES>  (10) 
O/C(=C/CCOc1ccc(Cl)cc1Cl)[N-]/N=C/c1cccc(C(F)(F)F)c1

>  <Energy>  (10) 
255.6863831339477

>  <Genealogy>  (10) 
O=C(CCCOc1ccc(Cl)cc1Cl)[N-]N=Cc1cccc(C(F)(F)F)c1 (protonated)
OC(=CCCOc1ccc(Cl)cc1Cl)[N-]N=Cc1cccc(C(F)(F)F)c1 (tautomer)
O/C(=C/CCOc1ccc(Cl)cc1Cl)[N-]/N=C/c1cccc(C(F)(F)F)c1 (cis-trans isomerization)
O/C(=C/CCOc1ccc(Cl)cc1Cl)[N-]/N=C/c1cccc(C(F)(F)F)c1 (3D coordinates assigned)
O/C(=C/CCOc1ccc(Cl)cc1Cl)[N-]/N=C/c1cccc(C(F)(F)F)c1 (optimized conformer: 255.6863831339477 kcal/mol)

>  <smiles>  (10) 
O=C(CCCOc1ccc(Cl)cc1Cl)NN=Cc1cccc(C(F)(F)F)c1

>  <score_type>  (10) 
oracle

>  <origin>  (10) 
autodockgpu

>  <m_score__min__energy>  (10) 
-6.9400000000000004

>  <m_primary>  (10) 
energy

>  <meeko>  (10) 
{"free_energy": -5.84, "intermolecular_energy": -9.13, "internal_energy": -0.93, "cluster_size": 5, "cluster_id": 2, "rank_in_cluster": 5}

>  <energy>  (10) 
-5.84

>  <cluster_rmsd>  (10) 
1.38

>  <rmsd>  (10) 
271.83

>  <cluster>  (10) 
2

$$$$
JBHRSOAXAGIKHA-GNXBGBGXNA-N
     RDKit          3D

 41 42  0  0  0  0  0  0  0  0999 V2000
  140.1570   71.6380  219.9010 H   0  0  0  0  0  0  0  0  0  0  0  0
  140.8050   72.4000  219.8550 O   0  0  0  0  0  0  0  0  0  0  0  0
  141.5080   72.8590  220.9540 C   0  0  0  0  0  0  0  0  0  0  0  0
  141.0380   72.4800  222.2650 N   0  0  0  0  0  0  0  0  0  0  0  0
  140.2310   71.3290  222.3680 N   0  0  0  0  0  0  0  0  0  0  0  0
  139.3870   71.2370  223.3650 C   0  0  0  0  0  0  0  0  0  0  0  0
  138.3553   71.5905  223.2214 H   0  0  0  0  0  0  0  0  0  0  0  0
  139.7660   70.6840  224.6550 C   0  0  0  0  0  0  0  0  0  0  0  0
  139.6490   69.3080  224.8440 C   0  0  0  0  0  0  0  0  0  0  0  0
  139.2776   68.6879  224.0149 H   0  0  0  0  0  0  0  0  0  0  0  0
  139.9790   68.7040  226.0210 C   0  0  0  0  0  0  0  0  0  0  0  0
  139.8771   67.6160  226.1466 H   0  0  0  0  0  0  0  0  0  0  0  0
  140.4440   69.4960  227.0490 C   0  0  0  0  0  0  0  0  0  0  0  0
  140.7217   69.0434  228.0123 H   0  0  0  0  0  0  0  0  0  0  0  0
  140.5600   70.8600  226.8650 C   0  0  0  0  0  0  0  0  0  0  0  0
  141.0690   71.6700  228.0160 C   0  0  0  0  0  0  0  0  0  0  0  0
  141.8180   70.8570  228.8440 F   0  0  0  0  0  0  0  0  0  0  0  0
  141.8220   72.7200  227.5170 F   0  0  0  0  0  0  0  0  0  0  0  0
  139.9820   72.1320  228.7170 F   0  0  0  0  0  0  0  0  0  0  0  0
  140.2270   71.4820  225.6720 C   0  0  0  0  0  0  0  0  0  0  0  0
  140.3280   72.5700  225.5455 H   0  0  0  0  0  0  0  0  0  0  0  0
  142.5790   73.6220  220.8170 C   0  0  0  0  0  0  0  0  0  0  0  0
  143.5017   73.3254  221.3372 H   0  0  0  0  0  0  0  0  0  0  0  0
  142.5990   74.8640  219.9930 C   0  0  0  0  0  0  0  0  0  0  0  0
  143.6358   75.2299  219.9576 H   0  0  0  0  0  0  0  0  0  0  0  0
  142.1936   74.5797  219.0107 H   0  0  0  0  0  0  0  0  0  0  0  0
  141.7790   75.9220  220.4590 C   0  0  0  0  0  0  0  0  0  0  0  0
    0.0000    0.0000    0.0000 H   0  0  0  0  0  0  0  0  0  0  0  0
  141.2077   75.2093  221.0719 H   0  0  0  0  0  0  0  0  0  0  0  0
  141.0190   76.9030  220.8920 O   0  0  0  0  0  0  0  0  0  0  0  0
  141.3740   77.9740  221.7300 C   0  0  0  0  0  0  0  0  0  0  0  0
  141.3200   77.8630  223.1110 C   0  0  0  0  0  0  0  0  0  0  0  0
  140.9972   76.9358  223.6071 H   0  0  0  0  0  0  0  0  0  0  0  0
  141.6940   78.9810  223.8280 C   0  0  0  0  0  0  0  0  0  0  0  0
  141.6672   78.9398  224.9269 H   0  0  0  0  0  0  0  0  0  0  0  0
  142.0970   80.1390  223.2210 C   0  0  0  0  0  0  0  0  0  0  0  0
  142.5550   81.5150  224.2170 Cl  0  0  0  0  0  0  0  0  0  0  0  0
  142.1320   80.1940  221.8380 C   0  0  0  0  0  0  0  0  0  0  0  0
  142.4540   81.1212  221.3413 H   0  0  0  0  0  0  0  0  0  0  0  0
  141.7730   79.1150  221.0800 C   0  0  0  0  0  0  0  0  0  0  0  0
  141.8060   79.1460  219.3210 Cl  0  0  0  0  0  0  0  0  0  0  0  0
  1  2  1  0
  2  3  1  0
  3  4  1  0
  4  5  1  0
  5  6  2  0
  6  7  1  0
  6  8  1  0
  8  9  2  0
  9 10  1  0
  9 11  1  0
 11 12  1  0
 11 13  2  0
 13 14  1  0
 13 15  1  0
 15 16  1  0
 16 17  1  0
 16 18  1  0
 16 19  1  0
 15 20  2  0
 20 21  1  0
  3 22  2  0
 22 23  1  0
 22 24  1  0
 24 25  1  0
 24 26  1  0
 24 27  1  0
 27 28  1  0
 27 29  1  0
 27 30  1  0
 30 31  1  0
 31 32  2  0
 32 33  1  0
 32 34  1  0
 34 35  1  0
 34 36  2  0
 36 37  1  0
 36 38  1  0
 38 39  1  0
 38 40  2  0
 40 41  1  0
 20  8  1  0
 40 31  1  0
M  CHG  1   4  -1
M  END
>  <UniqueID>  (11) 
17

>  <SMILES>  (11) 
O/C(=C/CCOc1ccc(Cl)cc1Cl)[N-]/N=C/c1cccc(C(F)(F)F)c1

>  <Energy>  (11) 
255.6863831339477

>  <Genealogy>  (11) 
O=C(CCCOc1ccc(Cl)cc1Cl)[N-]N=Cc1cccc(C(F)(F)F)c1 (protonated)
OC(=CCCOc1ccc(Cl)cc1Cl)[N-]N=Cc1cccc(C(F)(F)F)c1 (tautomer)
O/C(=C/CCOc1ccc(Cl)cc1Cl)[N-]/N=C/c1cccc(C(F)(F)F)c1 (cis-trans isomerization)
O/C(=C/CCOc1ccc(Cl)cc1Cl)[N-]/N=C/c1cccc(C(F)(F)F)c1 (3D coordinates assigned)
O/C(=C/CCOc1ccc(Cl)cc1Cl)[N-]/N=C/c1cccc(C(F)(F)F)c1 (optimized conformer: 255.6863831339477 kcal/mol)

>  <smiles>  (11) 
O=C(CCCOc1ccc(Cl)cc1Cl)NN=Cc1cccc(C(F)(F)F)c1

>  <score_type>  (11) 
oracle

>  <origin>  (11) 
autodockgpu

>  <m_score__min__energy>  (11) 
-6.9400000000000004

>  <m_primary>  (11) 
energy

>  <meeko>  (11) 
{"free_energy": -5.86, "intermolecular_energy": -9.14, "internal_energy": -0.91, "cluster_size": 5, "cluster_id": 1, "rank_in_cluster": 5}

>  <energy>  (11) 
-6.42

>  <cluster_rmsd>  (11) 
0.0

>  <rmsd>  (11) 
272.4

>  <cluster>  (11) 
3

$$$$
JBHRSOAXAGIKHA-GNXBGBGXNA-N
     RDKit          3D

 41 42  0  0  0  0  0  0  0  0999 V2000
  138.8340   74.2210  223.0480 H   0  0  0  0  0  0  0  0  0  0  0  0
  139.5290   74.4030  222.3510 O   0  0  0  0  0  0  0  0  0  0  0  0
  141.5040   73.6330  221.3150 C   0  0  0  0  0  0  0  0  0  0  0  0
  139.6780   72.1000  221.6160 N   0  0  0  0  0  0  0  0  0  0  0  0
  139.2230   71.4580  222.7860 N   0  0  0  0  0  0  0  0  0  0  0  0
  140.2780   73.4060  221.7520 C   0  0  0  0  0  0  0  0  0  0  0  0
  142.3447   73.1684  221.8511 H   0  0  0  0  0  0  0  0  0  0  0  0
  139.9960   70.2490  224.7350 C   0  0  0  0  0  0  0  0  0  0  0  0
  139.5940   68.9970  225.2000 C   0  0  0  0  0  0  0  0  0  0  0  0
  139.2580   68.2432  224.4727 H   0  0  0  0  0  0  0  0  0  0  0  0
  139.6030   68.6750  226.5250 C   0  0  0  0  0  0  0  0  0  0  0  0
  139.2804   67.6808  226.8677 H   0  0  0  0  0  0  0  0  0  0  0  0
  140.0280   69.6310  227.4230 C   0  0  0  0  0  0  0  0  0  0  0  0
  140.0501   69.4065  228.4996 H   0  0  0  0  0  0  0  0  0  0  0  0
  140.4260   70.8720  226.9650 C   0  0  0  0  0  0  0  0  0  0  0  0
  140.8760   71.8700  227.9850 C   0  0  0  0  0  0  0  0  0  0  0  0
  141.4570   72.9440  227.3410 F   0  0  0  0  0  0  0  0  0  0  0  0
  139.7790   72.2590  228.7360 F   0  0  0  0  0  0  0  0  0  0  0  0
  141.8230   71.2650  228.7750 F   0  0  0  0  0  0  0  0  0  0  0  0
  140.4200   71.2080  225.6210 C   0  0  0  0  0  0  0  0  0  0  0  0
  140.7418   72.2024  225.2779 H   0  0  0  0  0  0  0  0  0  0  0  0
  139.9500   70.5000  223.3040 C   0  0  0  0  0  0  0  0  0  0  0  0
  140.5461   69.8636  222.6335 H   0  0  0  0  0  0  0  0  0  0  0  0
  141.8040   74.4880  220.1310 C   0  0  0  0  0  0  0  0  0  0  0  0
  142.8933   74.4835  219.9781 H   0  0  0  0  0  0  0  0  0  0  0  0
  141.2348   74.0542  219.2956 H   0  0  0  0  0  0  0  0  0  0  0  0
  141.3830   75.8380  220.2260 C   0  0  0  0  0  0  0  0  0  0  0  0
    0.0000    0.0000    0.0000 H   0  0  0  0  0  0  0  0  0  0  0  0
  140.5452   75.5314  220.8695 H   0  0  0  0  0  0  0  0  0  0  0  0
  140.9920   77.0890  220.3140 O   0  0  0  0  0  0  0  0  0  0  0  0
  141.3620   78.0510  221.2700 C   0  0  0  0  0  0  0  0  0  0  0  0
  141.2640   77.7970  222.6300 C   0  0  0  0  0  0  0  0  0  0  0  0
  140.8933   76.8359  223.0160 H   0  0  0  0  0  0  0  0  0  0  0  0
  141.6570   78.8160  223.4710 C   0  0  0  0  0  0  0  0  0  0  0  0
  141.5963   78.6599  224.5582 H   0  0  0  0  0  0  0  0  0  0  0  0
  142.1200   80.0150  223.0010 C   0  0  0  0  0  0  0  0  0  0  0  0
  142.5990   81.2600  224.1500 Cl  0  0  0  0  0  0  0  0  0  0  0  0
  142.1970   80.2150  221.6330 C   0  0  0  0  0  0  0  0  0  0  0  0
  142.5669   81.1761  221.2465 H   0  0  0  0  0  0  0  0  0  0  0  0
  141.8210   79.2380  220.7560 C   0  0  0  0  0  0  0  0  0  0  0  0
  141.9050   79.4530  219.0120 Cl  0  0  0  0  0  0  0  0  0  0  0  0
  1  2  1  0
  2  3  1  0
  3  4  1  0
  4  5  1  0
  5  6  2  0
  6  7  1  0
  6  8  1  0
  8  9  2  0
  9 10  1  0
  9 11  1  0
 11 12  1  0
 11 13  2  0
 13 14  1  0
 13 15  1  0
 15 16  1  0
 16 17  1  0
 16 18  1  0
 16 19  1  0
 15 20  2  0
 20 21  1  0
  3 22  2  0
 22 23  1  0
 22 24  1  0
 24 25  1  0
 24 26  1  0
 24 27  1  0
 27 28  1  0
 27 29  1  0
 27 30  1  0
 30 31  1  0
 31 32  2  0
 32 33  1  0
 32 34  1  0
 34 35  1  0
 34 36  2  0
 36 37  1  0
 36 38  1  0
 38 39  1  0
 38 40  2  0
 40 41  1  0
 20  8  1  0
 40 31  1  0
M  CHG  1   4  -1
M  END
>  <UniqueID>  (12) 
17

>  <SMILES>  (12) 
O/C(=C/CCOc1ccc(Cl)cc1Cl)[N-]/N=C/c1cccc(C(F)(F)F)c1

>  <Energy>  (12) 
255.6863831339477

>  <Genealogy>  (12) 
O=C(CCCOc1ccc(Cl)cc1Cl)[N-]N=Cc1cccc(C(F)(F)F)c1 (protonated)
OC(=CCCOc1ccc(Cl)cc1Cl)[N-]N=Cc1cccc(C(F)(F)F)c1 (tautomer)
O/C(=C/CCOc1ccc(Cl)cc1Cl)[N-]/N=C/c1cccc(C(F)(F)F)c1 (cis-trans isomerization)
O/C(=C/CCOc1ccc(Cl)cc1Cl)[N-]/N=C/c1cccc(C(F)(F)F)c1 (3D coordinates assigned)
O/C(=C/CCOc1ccc(Cl)cc1Cl)[N-]/N=C/c1cccc(C(F)(F)F)c1 (optimized conformer: 255.6863831339477 kcal/mol)

>  <smiles>  (12) 
O=C(CCCOc1ccc(Cl)cc1Cl)NN=Cc1cccc(C(F)(F)F)c1

>  <score_type>  (12) 
oracle

>  <origin>  (12) 
autodockgpu

>  <m_score__min__energy>  (12) 
-6.9400000000000004

>  <m_primary>  (12) 
energy

>  <meeko>  (12) 
{"free_energy": -6.94, "intermolecular_energy": -10.22, "internal_energy": -0.84, "cluster_size": 5, "cluster_id": 1, "rank_in_cluster": 1}

>  <energy>  (12) 
-6.0

>  <cluster_rmsd>  (12) 
1.78

>  <rmsd>  (12) 
272.18

>  <cluster>  (12) 
3

$$$$
JBHRSOAXAGIKHA-GNXBGBGXNA-N
     RDKit          3D

 41 42  0  0  0  0  0  0  0  0999 V2000
  139.6210   73.3340  223.7470 H   0  0  0  0  0  0  0  0  0  0  0  0
  139.7570   72.5250  223.1730 O   0  0  0  0  0  0  0  0  0  0  0  0
  140.0680   72.5990  221.8270 C   0  0  0  0  0  0  0  0  0  0  0  0
  140.3330   73.9020  221.2650 N   0  0  0  0  0  0  0  0  0  0  0  0
  140.2200   75.0220  222.1140 N   0  0  0  0  0  0  0  0  0  0  0  0
  141.0290   76.0360  221.9330 C   0  0  0  0  0  0  0  0  0  0  0  0
  141.9920   75.8639  221.4300 H   0  0  0  0  0  0  0  0  0  0  0  0
  140.6980   77.3810  222.3740 C   0  0  0  0  0  0  0  0  0  0  0  0
  139.3700   77.6670  222.6840 C   0  0  0  0  0  0  0  0  0  0  0  0
  138.6187   76.8695  222.5866 H   0  0  0  0  0  0  0  0  0  0  0  0
  138.9690   78.9010  223.1040 C   0  0  0  0  0  0  0  0  0  0  0  0
  137.9145   79.1023  223.3440 H   0  0  0  0  0  0  0  0  0  0  0  0
  139.9240   79.8890  223.2190 C   0  0  0  0  0  0  0  0  0  0  0  0
  139.6382   80.8965  223.5556 H   0  0  0  0  0  0  0  0  0  0  0  0
  141.2410   79.6090  222.9100 C   0  0  0  0  0  0  0  0  0  0  0  0
  142.2330   80.7200  223.0530 C   0  0  0  0  0  0  0  0  0  0  0  0
  143.5030   80.1840  223.1270 F   0  0  0  0  0  0  0  0  0  0  0  0
  142.1010   81.5700  221.9680 F   0  0  0  0  0  0  0  0  0  0  0  0
  141.9620   81.3760  224.2290 F   0  0  0  0  0  0  0  0  0  0  0  0
  141.6570   78.3570  222.4840 C   0  0  0  0  0  0  0  0  0  0  0  0
  142.7112   78.1542  222.2442 H   0  0  0  0  0  0  0  0  0  0  0  0
  140.1230   71.5160  221.0720 C   0  0  0  0  0  0  0  0  0  0  0  0
  139.1920   70.9604  220.8858 H   0  0  0  0  0  0  0  0  0  0  0  0
  141.3850   71.0100  220.4600 C   0  0  0  0  0  0  0  0  0  0  0  0
  141.9955   70.5677  221.2610 H   0  0  0  0  0  0  0  0  0  0  0  0
  141.0763   70.2915  219.6864 H   0  0  0  0  0  0  0  0  0  0  0  0
  142.1760   71.9790  219.7940 C   0  0  0  0  0  0  0  0  0  0  0  0
    0.0000    0.0000    0.0000 H   0  0  0  0  0  0  0  0  0  0  0  0
  141.4267   72.7502  220.0261 H   0  0  0  0  0  0  0  0  0  0  0  0
  142.9090   72.8780  219.1760 O   0  0  0  0  0  0  0  0  0  0  0  0
  142.6930   74.2640  219.0870 C   0  0  0  0  0  0  0  0  0  0  0  0
  141.5820   74.7860  218.4410 C   0  0  0  0  0  0  0  0  0  0  0  0
  140.8259   74.1391  217.9722 H   0  0  0  0  0  0  0  0  0  0  0  0
  141.4780   76.1610  218.4190 C   0  0  0  0  0  0  0  0  0  0  0  0
  140.6131   76.6200  217.9177 H   0  0  0  0  0  0  0  0  0  0  0  0
  142.4130   76.9740  218.9990 C   0  0  0  0  0  0  0  0  0  0  0  0
  142.1990   78.7200  218.9210 Cl  0  0  0  0  0  0  0  0  0  0  0  0
  143.5030   76.4000  219.6310 C   0  0  0  0  0  0  0  0  0  0  0  0
  144.2595   77.0468  220.0995 H   0  0  0  0  0  0  0  0  0  0  0  0
  143.6540   75.0430  219.6820 C   0  0  0  0  0  0  0  0  0  0  0  0
  145.0240   74.2760  220.4760 Cl  0  0  0  0  0  0  0  0  0  0  0  0
  1  2  1  0
  2  3  1  0
  3  4  1  0
  4  5  1  0
  5  6  2  0
  6  7  1  0
  6  8  1  0
  8  9  2  0
  9 10  1  0
  9 11  1  0
 11 12  1  0
 11 13  2  0
 13 14  1  0
 13 15  1  0
 15 16  1  0
 16 17  1  0
 16 18  1  0
 16 19  1  0
 15 20  2  0
 20 21  1  0
  3 22  2  0
 22 23  1  0
 22 24  1  0
 24 25  1  0
 24 26  1  0
 24 27  1  0
 27 28  1  0
 27 29  1  0
 27 30  1  0
 30 31  1  0
 31 32  2  0
 32 33  1  0
 32 34  1  0
 34 35  1  0
 34 36  2  0
 36 37  1  0
 36 38  1  0
 38 39  1  0
 38 40  2  0
 40 41  1  0
 20  8  1  0
 40 31  1  0
M  CHG  1   4  -1
M  END
>  <UniqueID>  (13) 
17

>  <SMILES>  (13) 
O/C(=C/CCOc1ccc(Cl)cc1Cl)[N-]/N=C/c1cccc(C(F)(F)F)c1

>  <Energy>  (13) 
255.6863831339477

>  <Genealogy>  (13) 
O=C(CCCOc1ccc(Cl)cc1Cl)[N-]N=Cc1cccc(C(F)(F)F)c1 (protonated)
OC(=CCCOc1ccc(Cl)cc1Cl)[N-]N=Cc1cccc(C(F)(F)F)c1 (tautomer)
O/C(=C/CCOc1ccc(Cl)cc1Cl)[N-]/N=C/c1cccc(C(F)(F)F)c1 (cis-trans isomerization)
O/C(=C/CCOc1ccc(Cl)cc1Cl)[N-]/N=C/c1cccc(C(F)(F)F)c1 (3D coordinates assigned)
O/C(=C/CCOc1ccc(Cl)cc1Cl)[N-]/N=C/c1cccc(C(F)(F)F)c1 (optimized conformer: 255.6863831339477 kcal/mol)

>  <smiles>  (13) 
O=C(CCCOc1ccc(Cl)cc1Cl)NN=Cc1cccc(C(F)(F)F)c1

>  <score_type>  (13) 
oracle

>  <origin>  (13) 
autodockgpu

>  <m_score__min__energy>  (13) 
-6.9400000000000004

>  <m_primary>  (13) 
energy

>  <meeko>  (13) 
{"free_energy": -4.46, "intermolecular_energy": -7.75, "internal_energy": -2.21, "cluster_size": 1, "cluster_id": 9, "rank_in_cluster": 1}

>  <energy>  (13) 
-6.38

>  <cluster_rmsd>  (13) 
0.0

>  <rmsd>  (13) 
272.47

>  <cluster>  (13) 
4

$$$$
JBHRSOAXAGIKHA-GNXBGBGXNA-N
     RDKit          3D

 41 42  0  0  0  0  0  0  0  0999 V2000
  142.5350   75.3650  221.6330 H   0  0  0  0  0  0  0  0  0  0  0  0
  142.3060   74.4840  221.2180 O   0  0  0  0  0  0  0  0  0  0  0  0
  141.0430   73.9230  221.2860 C   0  0  0  0  0  0  0  0  0  0  0  0
  140.0050   74.6750  221.9500 N   0  0  0  0  0  0  0  0  0  0  0  0
  140.3310   75.9530  222.4480 N   0  0  0  0  0  0  0  0  0  0  0  0
  139.4850   76.9350  222.2690 C   0  0  0  0  0  0  0  0  0  0  0  0
  138.5464   76.7356  221.7311 H   0  0  0  0  0  0  0  0  0  0  0  0
  139.7420   78.2800  222.7560 C   0  0  0  0  0  0  0  0  0  0  0  0
  138.6810   78.9990  223.3060 C   0  0  0  0  0  0  0  0  0  0  0  0
  137.6888   78.5266  223.3549 H   0  0  0  0  0  0  0  0  0  0  0  0
  138.8300   80.2660  223.7850 C   0  0  0  0  0  0  0  0  0  0  0  0
  137.9772   80.8128  224.2136 H   0  0  0  0  0  0  0  0  0  0  0  0
  140.0810   80.8430  223.7170 C   0  0  0  0  0  0  0  0  0  0  0  0
  140.2399   81.8636  224.0953 H   0  0  0  0  0  0  0  0  0  0  0  0
  141.1330   80.1340  223.1720 C   0  0  0  0  0  0  0  0  0  0  0  0
  142.4670   80.8110  223.1230 C   0  0  0  0  0  0  0  0  0  0  0  0
  143.4610   79.8520  223.1230 F   0  0  0  0  0  0  0  0  0  0  0  0
  142.5200   81.5990  221.9860 F   0  0  0  0  0  0  0  0  0  0  0  0
  142.5920   81.5740  224.2580 F   0  0  0  0  0  0  0  0  0  0  0  0
  140.9910   78.8450  222.6830 C   0  0  0  0  0  0  0  0  0  0  0  0
  141.8434   78.2976  222.2543 H   0  0  0  0  0  0  0  0  0  0  0  0
  140.7860   72.7380  220.7610 C   0  0  0  0  0  0  0  0  0  0  0  0
  140.5026   72.6869  219.6994 H   0  0  0  0  0  0  0  0  0  0  0  0
  140.8610   71.4670  221.5360 C   0  0  0  0  0  0  0  0  0  0  0  0
  140.3756   70.6793  220.9411 H   0  0  0  0  0  0  0  0  0  0  0  0
  141.9310   71.2910  221.7207 H   0  0  0  0  0  0  0  0  0  0  0  0
  140.2470   71.4890  222.8130 C   0  0  0  0  0  0  0  0  0  0  0  0
    0.0000    0.0000    0.0000 H   0  0  0  0  0  0  0  0  0  0  0  0
  140.5342   70.4387  222.9692 H   0  0  0  0  0  0  0  0  0  0  0  0
  139.6770   71.5100  223.9970 O   0  0  0  0  0  0  0  0  0  0  0  0
  140.0300   70.7790  225.1450 C   0  0  0  0  0  0  0  0  0  0  0  0
  140.8010   71.3380  226.1520 C   0  0  0  0  0  0  0  0  0  0  0  0
  141.1691   72.3730  226.0948 H   0  0  0  0  0  0  0  0  0  0  0  0
  141.0810   70.5240  227.2300 C   0  0  0  0  0  0  0  0  0  0  0  0
  141.6890   70.9253  228.0542 H   0  0  0  0  0  0  0  0  0  0  0  0
  140.6290   69.2350  227.3100 C   0  0  0  0  0  0  0  0  0  0  0  0
  141.0380   68.2690  228.7230 Cl  0  0  0  0  0  0  0  0  0  0  0  0
  139.8620   68.7280  226.2750 C   0  0  0  0  0  0  0  0  0  0  0  0
  139.4944   67.6928  226.3311 H   0  0  0  0  0  0  0  0  0  0  0  0
  139.5540   69.4920  225.1850 C   0  0  0  0  0  0  0  0  0  0  0  0
  138.5830   68.8830  223.8500 Cl  0  0  0  0  0  0  0  0  0  0  0  0
  1  2  1  0
  2  3  1  0
  3  4  1  0
  4  5  1  0
  5  6  2  0
  6  7  1  0
  6  8  1  0
  8  9  2  0
  9 10  1  0
  9 11  1  0
 11 12  1  0
 11 13  2  0
 13 14  1  0
 13 15  1  0
 15 16  1  0
 16 17  1  0
 16 18  1  0
 16 19  1  0
 15 20  2  0
 20 21  1  0
  3 22  2  0
 22 23  1  0
 22 24  1  0
 24 25  1  0
 24 26  1  0
 24 27  1  0
 27 28  1  0
 27 29  1  0
 27 30  1  0
 30 31  1  0
 31 32  2  0
 32 33  1  0
 32 34  1  0
 34 35  1  0
 34 36  2  0
 36 37  1  0
 36 38  1  0
 38 39  1  0
 38 40  2  0
 40 41  1  0
 20  8  1  0
 40 31  1  0
M  CHG  1   4  -1
M  END
>  <UniqueID>  (14) 
17

>  <SMILES>  (14) 
O/C(=C/CCOc1ccc(Cl)cc1Cl)[N-]/N=C/c1cccc(C(F)(F)F)c1

>  <Energy>  (14) 
255.6863831339477

>  <Genealogy>  (14) 
O=C(CCCOc1ccc(Cl)cc1Cl)[N-]N=Cc1cccc(C(F)(F)F)c1 (protonated)
OC(=CCCOc1ccc(Cl)cc1Cl)[N-]N=Cc1cccc(C(F)(F)F)c1 (tautomer)
O/C(=C/CCOc1ccc(Cl)cc1Cl)[N-]/N=C/c1cccc(C(F)(F)F)c1 (cis-trans isomerization)
O/C(=C/CCOc1ccc(Cl)cc1Cl)[N-]/N=C/c1cccc(C(F)(F)F)c1 (3D coordinates assigned)
O/C(=C/CCOc1ccc(Cl)cc1Cl)[N-]/N=C/c1cccc(C(F)(F)F)c1 (optimized conformer: 255.6863831339477 kcal/mol)

>  <smiles>  (14) 
O=C(CCCOc1ccc(Cl)cc1Cl)NN=Cc1cccc(C(F)(F)F)c1

>  <score_type>  (14) 
oracle

>  <origin>  (14) 
autodockgpu

>  <m_score__min__energy>  (14) 
-6.9400000000000004

>  <m_primary>  (14) 
energy

>  <meeko>  (14) 
{"free_energy": -6.6, "intermolecular_energy": -9.88, "internal_energy": -0.89, "cluster_size": 5, "cluster_id": 2, "rank_in_cluster": 2}

>  <energy>  (14) 
-6.25

>  <cluster_rmsd>  (14) 
0.0

>  <rmsd>  (14) 
271.9

>  <cluster>  (14) 
5

$$$$
JBHRSOAXAGIKHA-GNXBGBGXNA-N
     RDKit          3D

 41 42  0  0  0  0  0  0  0  0999 V2000
  139.8390   71.4090  220.7400 H   0  0  0  0  0  0  0  0  0  0  0  0
  140.5990   71.9610  220.3960 O   0  0  0  0  0  0  0  0  0  0  0  0
  142.3800   73.4680  220.7510 C   0  0  0  0  0  0  0  0  0  0  0  0
  140.7000   73.2350  222.4540 N   0  0  0  0  0  0  0  0  0  0  0  0
  139.8370   72.3000  223.0620 N   0  0  0  0  0  0  0  0  0  0  0  0
  141.2630   72.8970  221.1680 C   0  0  0  0  0  0  0  0  0  0  0  0
  143.3386   72.9999  221.0194 H   0  0  0  0  0  0  0  0  0  0  0  0
  140.5070   70.8680  224.8950 C   0  0  0  0  0  0  0  0  0  0  0  0
  140.9170   71.8980  225.7400 C   0  0  0  0  0  0  0  0  0  0  0  0
  141.0935   72.8963  225.3132 H   0  0  0  0  0  0  0  0  0  0  0  0
  141.1070   71.7110  227.0780 C   0  0  0  0  0  0  0  0  0  0  0  0
  141.4310   72.5396  227.7249 H   0  0  0  0  0  0  0  0  0  0  0  0
  140.8810   70.4530  227.5960 C   0  0  0  0  0  0  0  0  0  0  0  0
  141.0227   70.2644  228.6704 H   0  0  0  0  0  0  0  0  0  0  0  0
  140.4760   69.4310  226.7600 C   0  0  0  0  0  0  0  0  0  0  0  0
  140.2470   68.0870  227.3780 C   0  0  0  0  0  0  0  0  0  0  0  0
  139.1620   67.4890  226.7680 F   0  0  0  0  0  0  0  0  0  0  0  0
  141.3970   67.3310  227.2270 F   0  0  0  0  0  0  0  0  0  0  0  0
  139.9550   68.2800  228.7060 F   0  0  0  0  0  0  0  0  0  0  0  0
  140.2800   69.6120  225.4000 C   0  0  0  0  0  0  0  0  0  0  0  0
  139.9561   68.7839  224.7524 H   0  0  0  0  0  0  0  0  0  0  0  0
  140.3320   71.1640  223.4830 C   0  0  0  0  0  0  0  0  0  0  0  0
  140.6260   70.4063  222.7418 H   0  0  0  0  0  0  0  0  0  0  0  0
  142.4040   74.7150  219.9350 C   0  0  0  0  0  0  0  0  0  0  0  0
  143.4461   75.0627  219.8795 H   0  0  0  0  0  0  0  0  0  0  0  0
  141.9720   74.4442  218.9603 H   0  0  0  0  0  0  0  0  0  0  0  0
  141.6130   75.7850  220.4250 C   0  0  0  0  0  0  0  0  0  0  0  0
    0.0000    0.0000    0.0000 H   0  0  0  0  0  0  0  0  0  0  0  0
  141.0362   75.0775  221.0388 H   0  0  0  0  0  0  0  0  0  0  0  0
  140.8800   76.7760  220.8790 O   0  0  0  0  0  0  0  0  0  0  0  0
  141.2710   77.8330  221.7190 C   0  0  0  0  0  0  0  0  0  0  0  0
  141.1880   77.7310  223.1000 C   0  0  0  0  0  0  0  0  0  0  0  0
  140.8138   76.8221  223.5939 H   0  0  0  0  0  0  0  0  0  0  0  0
  141.6010   78.8330  223.8190 C   0  0  0  0  0  0  0  0  0  0  0  0
  141.5517   78.7985  224.9174 H   0  0  0  0  0  0  0  0  0  0  0  0
  142.0700   79.9680  223.2150 C   0  0  0  0  0  0  0  0  0  0  0  0
  142.5750   81.3260  224.2140 Cl  0  0  0  0  0  0  0  0  0  0  0  0
  142.1320   80.0150  221.8320 C   0  0  0  0  0  0  0  0  0  0  0  0
  142.5068   80.9233  221.3376 H   0  0  0  0  0  0  0  0  0  0  0  0
  141.7350   78.9510  221.0720 C   0  0  0  0  0  0  0  0  0  0  0  0
  141.8000   78.9730  219.3140 Cl  0  0  0  0  0  0  0  0  0  0  0  0
  1  2  1  0
  2  3  1  0
  3  4  1  0
  4  5  1  0
  5  6  2  0
  6  7  1  0
  6  8  1  0
  8  9  2  0
  9 10  1  0
  9 11  1  0
 11 12  1  0
 11 13  2  0
 13 14  1  0
 13 15  1  0
 15 16  1  0
 16 17  1  0
 16 18  1  0
 16 19  1  0
 15 20  2  0
 20 21  1  0
  3 22  2  0
 22 23  1  0
 22 24  1  0
 24 25  1  0
 24 26  1  0
 24 27  1  0
 27 28  1  0
 27 29  1  0
 27 30  1  0
 30 31  1  0
 31 32  2  0
 32 33  1  0
 32 34  1  0
 34 35  1  0
 34 36  2  0
 36 37  1  0
 36 38  1  0
 38 39  1  0
 38 40  2  0
 40 41  1  0
 20  8  1  0
 40 31  1  0
M  CHG  1   4  -1
M  END
>  <UniqueID>  (15) 
17

>  <SMILES>  (15) 
O/C(=C/CCOc1ccc(Cl)cc1Cl)[N-]/N=C/c1cccc(C(F)(F)F)c1

>  <Energy>  (15) 
255.6863831339477

>  <Genealogy>  (15) 
O=C(CCCOc1ccc(Cl)cc1Cl)[N-]N=Cc1cccc(C(F)(F)F)c1 (protonated)
OC(=CCCOc1ccc(Cl)cc1Cl)[N-]N=Cc1cccc(C(F)(F)F)c1 (tautomer)
O/C(=C/CCOc1ccc(Cl)cc1Cl)[N-]/N=C/c1cccc(C(F)(F)F)c1 (cis-trans isomerization)
O/C(=C/CCOc1ccc(Cl)cc1Cl)[N-]/N=C/c1cccc(C(F)(F)F)c1 (3D coordinates assigned)
O/C(=C/CCOc1ccc(Cl)cc1Cl)[N-]/N=C/c1cccc(C(F)(F)F)c1 (optimized conformer: 255.6863831339477 kcal/mol)

>  <smiles>  (15) 
O=C(CCCOc1ccc(Cl)cc1Cl)NN=Cc1cccc(C(F)(F)F)c1

>  <score_type>  (15) 
oracle

>  <origin>  (15) 
autodockgpu

>  <m_score__min__energy>  (15) 
-6.9400000000000004

>  <m_primary>  (15) 
energy

>  <meeko>  (15) 
{"free_energy": -6.45, "intermolecular_energy": -9.74, "internal_energy": -0.87, "cluster_size": 5, "cluster_id": 1, "rank_in_cluster": 3}

>  <energy>  (15) 
-6.17

>  <cluster_rmsd>  (15) 
1.57

>  <rmsd>  (15) 
271.74

>  <cluster>  (15) 
5

$$$$
JBHRSOAXAGIKHA-GNXBGBGXNA-N
     RDKit          3D

 41 42  0  0  0  0  0  0  0  0999 V2000
  141.1680   75.2940  221.7420 H   0  0  0  0  0  0  0  0  0  0  0  0
  140.3470   74.9060  222.1620 O   0  0  0  0  0  0  0  0  0  0  0  0
  138.7330   73.8940  220.7690 C   0  0  0  0  0  0  0  0  0  0  0  0
  140.1100   72.4950  222.1570 N   0  0  0  0  0  0  0  0  0  0  0  0
  140.0560   72.2700  223.5480 N   0  0  0  0  0  0  0  0  0  0  0  0
  139.6990   73.7890  221.6660 C   0  0  0  0  0  0  0  0  0  0  0  0
  137.6958   73.7288  221.0960 H   0  0  0  0  0  0  0  0  0  0  0  0
  140.9080   71.1190  225.4990 C   0  0  0  0  0  0  0  0  0  0  0  0
  141.0870   72.1070  226.4680 C   0  0  0  0  0  0  0  0  0  0  0  0
  141.2633   73.1431  226.1434 H   0  0  0  0  0  0  0  0  0  0  0  0
  141.0510   71.8330  227.8030 C   0  0  0  0  0  0  0  0  0  0  0  0
  141.1956   72.6291  228.5482 H   0  0  0  0  0  0  0  0  0  0  0  0
  140.8280   70.5290  228.1920 C   0  0  0  0  0  0  0  0  0  0  0  0
  140.7905   70.2703  229.2605 H   0  0  0  0  0  0  0  0  0  0  0  0
  140.6520   69.5490  227.2350 C   0  0  0  0  0  0  0  0  0  0  0  0
  140.4150   68.1520  227.7160 C   0  0  0  0  0  0  0  0  0  0  0  0
  139.1800   67.7240  227.2710 F   0  0  0  0  0  0  0  0  0  0  0  0
  141.4350   67.3430  227.2420 F   0  0  0  0  0  0  0  0  0  0  0  0
  140.4040   68.1770  229.0890 F   0  0  0  0  0  0  0  0  0  0  0  0
  140.6870   69.8180  225.8760 C   0  0  0  0  0  0  0  0  0  0  0  0
  140.5436   69.0219  225.1305 H   0  0  0  0  0  0  0  0  0  0  0  0
  140.9660   71.5080  224.1000 C   0  0  0  0  0  0  0  0  0  0  0  0
  141.8036   71.1497  223.4836 H   0  0  0  0  0  0  0  0  0  0  0  0
  138.9800   74.2250  219.3370 C   0  0  0  0  0  0  0  0  0  0  0  0
  138.4784   73.4629  218.7226 H   0  0  0  0  0  0  0  0  0  0  0  0
  138.5885   75.2428  219.1926 H   0  0  0  0  0  0  0  0  0  0  0  0
  140.3400   74.2750  218.9440 C   0  0  0  0  0  0  0  0  0  0  0  0
    0.0000    0.0000    0.0000 H   0  0  0  0  0  0  0  0  0  0  0  0
  140.2198   75.3316  218.6626 H   0  0  0  0  0  0  0  0  0  0  0  0
  141.6020   74.3210  218.5790 O   0  0  0  0  0  0  0  0  0  0  0  0
  142.7420   74.0420  219.3530 C   0  0  0  0  0  0  0  0  0  0  0  0
  143.0770   72.7440  219.7090 C   0  0  0  0  0  0  0  0  0  0  0  0
  142.4665   71.8817  219.4027 H   0  0  0  0  0  0  0  0  0  0  0  0
  144.2190   72.5950  220.4690 C   0  0  0  0  0  0  0  0  0  0  0  0
  144.5246   71.5837  220.7754 H   0  0  0  0  0  0  0  0  0  0  0  0
  144.9850   73.6620  220.8550 C   0  0  0  0  0  0  0  0  0  0  0  0
  146.4250   73.3760  221.8250 Cl  0  0  0  0  0  0  0  0  0  0  0  0
  144.6030   74.9360  220.4700 C   0  0  0  0  0  0  0  0  0  0  0  0
  145.2127   75.7990  220.7758 H   0  0  0  0  0  0  0  0  0  0  0  0
  143.4820   75.1390  219.7170 C   0  0  0  0  0  0  0  0  0  0  0  0
  142.9650   76.7420  219.2090 Cl  0  0  0  0  0  0  0  0  0  0  0  0
  1  2  1  0
  2  3  1  0
  3  4  1  0
  4  5  1  0
  5  6  2  0
  6  7  1  0
  6  8  1  0
  8  9  2  0
  9 10  1  0
  9 11  1  0
 11 12  1  0
 11 13  2  0
 13 14  1  0
 13 15  1  0
 15 16  1  0
 16 17  1  0
 16 18  1  0
 16 19  1  0
 15 20  2  0
 20 21  1  0
  3 22  2  0
 22 23  1  0
 22 24  1  0
 24 25  1  0
 24 26  1  0
 24 27  1  0
 27 28  1  0
 27 29  1  0
 27 30  1  0
 30 31  1  0
 31 32  2  0
 32 33  1  0
 32 34  1  0
 34 35  1  0
 34 36  2  0
 36 37  1  0
 36 38  1  0
 38 39  1  0
 38 40  2  0
 40 41  1  0
 20  8  1  0
 40 31  1  0
M  CHG  1   4  -1
M  END
>  <UniqueID>  (16) 
17

>  <SMILES>  (16) 
O/C(=C/CCOc1ccc(Cl)cc1Cl)[N-]/N=C/c1cccc(C(F)(F)F)c1

>  <Energy>  (16) 
255.6863831339477

>  <Genealogy>  (16) 
O=C(CCCOc1ccc(Cl)cc1Cl)[N-]N=Cc1cccc(C(F)(F)F)c1 (protonated)
OC(=CCCOc1ccc(Cl)cc1Cl)[N-]N=Cc1cccc(C(F)(F)F)c1 (tautomer)
O/C(=C/CCOc1ccc(Cl)cc1Cl)[N-]/N=C/c1cccc(C(F)(F)F)c1 (cis-trans isomerization)
O/C(=C/CCOc1ccc(Cl)cc1Cl)[N-]/N=C/c1cccc(C(F)(F)F)c1 (3D coordinates assigned)
O/C(=C/CCOc1ccc(Cl)cc1Cl)[N-]/N=C/c1cccc(C(F)(F)F)c1 (optimized conformer: 255.6863831339477 kcal/mol)

>  <smiles>  (16) 
O=C(CCCOc1ccc(Cl)cc1Cl)NN=Cc1cccc(C(F)(F)F)c1

>  <score_type>  (16) 
oracle

>  <origin>  (16) 
autodockgpu

>  <m_score__min__energy>  (16) 
-6.9400000000000004

>  <m_primary>  (16) 
energy

>  <meeko>  (16) 
{"free_energy": -5.72, "intermolecular_energy": -9.0, "internal_energy": -1.07, "cluster_size": 1, "cluster_id": 8, "rank_in_cluster": 1}

>  <energy>  (16) 
-5.87

>  <cluster_rmsd>  (16) 
1.55

>  <rmsd>  (16) 
271.74

>  <cluster>  (16) 
5

$$$$
JBHRSOAXAGIKHA-GNXBGBGXNA-N
     RDKit          3D

 41 42  0  0  0  0  0  0  0  0999 V2000
  138.8230   75.0620  223.4320 H   0  0  0  0  0  0  0  0  0  0  0  0
  139.2440   75.6290  222.7220 O   0  0  0  0  0  0  0  0  0  0  0  0
  140.1260   75.7470  220.5370 C   0  0  0  0  0  0  0  0  0  0  0  0
  140.6350   73.8280  221.8920 N   0  0  0  0  0  0  0  0  0  0  0  0
  139.9830   72.8890  222.7170 N   0  0  0  0  0  0  0  0  0  0  0  0
  139.9950   75.1050  221.6850 C   0  0  0  0  0  0  0  0  0  0  0  0
  139.4529   75.4801  219.7089 H   0  0  0  0  0  0  0  0  0  0  0  0
  140.3620   71.1710  224.3790 C   0  0  0  0  0  0  0  0  0  0  0  0
  139.6420   69.9770  224.3530 C   0  0  0  0  0  0  0  0  0  0  0  0
  139.3135   69.5761  223.3828 H   0  0  0  0  0  0  0  0  0  0  0  0
  139.3310   69.2890  225.4890 C   0  0  0  0  0  0  0  0  0  0  0  0
  138.7625   68.3484  225.4432 H   0  0  0  0  0  0  0  0  0  0  0  0
  139.7500   69.8070  226.6970 C   0  0  0  0  0  0  0  0  0  0  0  0
  139.5175   69.2801  227.6342 H   0  0  0  0  0  0  0  0  0  0  0  0
  140.4620   70.9890  226.7250 C   0  0  0  0  0  0  0  0  0  0  0  0
  140.8910   71.5040  228.0640 C   0  0  0  0  0  0  0  0  0  0  0  0
  141.7730   72.5500  227.8840 F   0  0  0  0  0  0  0  0  0  0  0  0
  139.7640   71.9020  228.7640 F   0  0  0  0  0  0  0  0  0  0  0  0
  141.5410   70.4850  228.7160 F   0  0  0  0  0  0  0  0  0  0  0  0
  140.7840   71.6940  225.5760 C   0  0  0  0  0  0  0  0  0  0  0  0
  141.3541   72.6337  225.6214 H   0  0  0  0  0  0  0  0  0  0  0  0
  140.6450   71.8320  223.1160 C   0  0  0  0  0  0  0  0  0  0  0  0
  141.4425   71.4307  222.4733 H   0  0  0  0  0  0  0  0  0  0  0  0
  141.1410   76.8150  220.3090 C   0  0  0  0  0  0  0  0  0  0  0  0
  140.8304   77.3939  219.4268 H   0  0  0  0  0  0  0  0  0  0  0  0
  141.1730   77.4022  221.2386 H   0  0  0  0  0  0  0  0  0  0  0  0
  142.4670   76.3650  220.0900 C   0  0  0  0  0  0  0  0  0  0  0  0
    0.0000    0.0000    0.0000 H   0  0  0  0  0  0  0  0  0  0  0  0
  142.7103   77.3199  219.6012 H   0  0  0  0  0  0  0  0  0  0  0  0
  143.6960   75.9480  219.8870 O   0  0  0  0  0  0  0  0  0  0  0  0
  144.1520   74.6270  219.7310 C   0  0  0  0  0  0  0  0  0  0  0  0
  144.6670   73.9060  220.7970 C   0  0  0  0  0  0  0  0  0  0  0  0
  144.7413   74.3362  221.8067 H   0  0  0  0  0  0  0  0  0  0  0  0
  145.0810   72.6200  220.5220 C   0  0  0  0  0  0  0  0  0  0  0  0
  145.4964   72.0100  221.3377 H   0  0  0  0  0  0  0  0  0  0  0  0
  144.9930   72.0760  219.2690 C   0  0  0  0  0  0  0  0  0  0  0  0
  145.5470   70.4250  219.0110 Cl  0  0  0  0  0  0  0  0  0  0  0  0
  144.4700   72.8410  218.2400 C   0  0  0  0  0  0  0  0  0  0  0  0
  144.3958   72.4115  217.2301 H   0  0  0  0  0  0  0  0  0  0  0  0
  144.0450   74.1200  218.4590 C   0  0  0  0  0  0  0  0  0  0  0  0
  143.3740   75.1230  217.1790 Cl  0  0  0  0  0  0  0  0  0  0  0  0
  1  2  1  0
  2  3  1  0
  3  4  1  0
  4  5  1  0
  5  6  2  0
  6  7  1  0
  6  8  1  0
  8  9  2  0
  9 10  1  0
  9 11  1  0
 11 12  1  0
 11 13  2  0
 13 14  1  0
 13 15  1  0
 15 16  1  0
 16 17  1  0
 16 18  1  0
 16 19  1  0
 15 20  2  0
 20 21  1  0
  3 22  2  0
 22 23  1  0
 22 24  1  0
 24 25  1  0
 24 26  1  0
 24 27  1  0
 27 28  1  0
 27 29  1  0
 27 30  1  0
 30 31  1  0
 31 32  2  0
 32 33  1  0
 32 34  1  0
 34 35  1  0
 34 36  2  0
 36 37  1  0
 36 38  1  0
 38 39  1  0
 38 40  2  0
 40 41  1  0
 20  8  1  0
 40 31  1  0
M  CHG  1   4  -1
M  END
>  <UniqueID>  (17) 
17

>  <SMILES>  (17) 
O/C(=C/CCOc1ccc(Cl)cc1Cl)[N-]/N=C/c1cccc(C(F)(F)F)c1

>  <Energy>  (17) 
255.6863831339477

>  <Genealogy>  (17) 
O=C(CCCOc1ccc(Cl)cc1Cl)[N-]N=Cc1cccc(C(F)(F)F)c1 (protonated)
OC(=CCCOc1ccc(Cl)cc1Cl)[N-]N=Cc1cccc(C(F)(F)F)c1 (tautomer)
O/C(=C/CCOc1ccc(Cl)cc1Cl)[N-]/N=C/c1cccc(C(F)(F)F)c1 (cis-trans isomerization)
O/C(=C/CCOc1ccc(Cl)cc1Cl)[N-]/N=C/c1cccc(C(F)(F)F)c1 (3D coordinates assigned)
O/C(=C/CCOc1ccc(Cl)cc1Cl)[N-]/N=C/c1cccc(C(F)(F)F)c1 (optimized conformer: 255.6863831339477 kcal/mol)

>  <smiles>  (17) 
O=C(CCCOc1ccc(Cl)cc1Cl)NN=Cc1cccc(C(F)(F)F)c1

>  <score_type>  (17) 
oracle

>  <origin>  (17) 
autodockgpu

>  <m_score__min__energy>  (17) 
-6.9400000000000004

>  <m_primary>  (17) 
energy

>  <meeko>  (17) 
{"free_energy": -6.25, "intermolecular_energy": -9.53, "internal_energy": -1.06, "cluster_size": 3, "cluster_id": 5, "rank_in_cluster": 1}

>  <energy>  (17) 
-6.11

>  <cluster_rmsd>  (17) 
0.0

>  <rmsd>  (17) 
272.27

>  <cluster>  (17) 
6

$$$$
JBHRSOAXAGIKHA-GNXBGBGXNA-N
     RDKit          3D

 41 42  0  0  0  0  0  0  0  0999 V2000
  140.3910   71.7450  220.4420 H   0  0  0  0  0  0  0  0  0  0  0  0
  140.6390   72.7140  220.4070 O   0  0  0  0  0  0  0  0  0  0  0  0
  140.3320   73.6070  221.4170 C   0  0  0  0  0  0  0  0  0  0  0  0
  140.0610   73.0760  222.7320 N   0  0  0  0  0  0  0  0  0  0  0  0
  139.3500   71.8610  222.8180 N   0  0  0  0  0  0  0  0  0  0  0  0
  139.9740   70.7940  223.2500 C   0  0  0  0  0  0  0  0  0  0  0  0
  140.4639   70.1334  222.5195 H   0  0  0  0  0  0  0  0  0  0  0  0
  140.0420   70.4520  224.6610 C   0  0  0  0  0  0  0  0  0  0  0  0
  139.6860   69.1600  225.0460 C   0  0  0  0  0  0  0  0  0  0  0  0
  139.3683   68.4443  224.2734 H   0  0  0  0  0  0  0  0  0  0  0  0
  139.7180   68.7530  226.3470 C   0  0  0  0  0  0  0  0  0  0  0  0
  139.4319   67.7282  226.6263 H   0  0  0  0  0  0  0  0  0  0  0  0
  140.1190   69.6620  227.3020 C   0  0  0  0  0  0  0  0  0  0  0  0
  140.1579   69.3686  228.3614 H   0  0  0  0  0  0  0  0  0  0  0  0
  140.4720   70.9430  226.9240 C   0  0  0  0  0  0  0  0  0  0  0  0
  140.8990   71.8870  228.0030 C   0  0  0  0  0  0  0  0  0  0  0  0
  139.7910   72.2700  228.7330 F   0  0  0  0  0  0  0  0  0  0  0  0
  141.8380   71.2520  228.7990 F   0  0  0  0  0  0  0  0  0  0  0  0
  141.4360   72.9990  227.4000 F   0  0  0  0  0  0  0  0  0  0  0  0
  140.4430   71.3650  225.6040 C   0  0  0  0  0  0  0  0  0  0  0  0
  140.7295   72.3894  225.3238 H   0  0  0  0  0  0  0  0  0  0  0  0
  140.2870   74.9100  221.1950 C   0  0  0  0  0  0  0  0  0  0  0  0
  139.3262   75.4296  221.3245 H   0  0  0  0  0  0  0  0  0  0  0  0
  141.4740   75.7090  220.7780 C   0  0  0  0  0  0  0  0  0  0  0  0
  142.3629   75.2663  221.2511 H   0  0  0  0  0  0  0  0  0  0  0  0
  141.4899   75.6723  219.6787 H   0  0  0  0  0  0  0  0  0  0  0  0
  141.4380   77.0840  221.1190 C   0  0  0  0  0  0  0  0  0  0  0  0
    0.0000    0.0000    0.0000 H   0  0  0  0  0  0  0  0  0  0  0  0
  140.5531   76.9050  221.7474 H   0  0  0  0  0  0  0  0  0  0  0  0
  141.4050   78.3590  221.4350 O   0  0  0  0  0  0  0  0  0  0  0  0
  140.4760   79.0290  222.2500 C   0  0  0  0  0  0  0  0  0  0  0  0
  139.1330   78.6820  222.2570 C   0  0  0  0  0  0  0  0  0  0  0  0
  138.7392   77.8711  221.6266 H   0  0  0  0  0  0  0  0  0  0  0  0
  138.3190   79.4110  223.0990 C   0  0  0  0  0  0  0  0  0  0  0  0
  137.2463   79.1707  223.1389 H   0  0  0  0  0  0  0  0  0  0  0  0
  138.7980   80.4220  223.8860 C   0  0  0  0  0  0  0  0  0  0  0  0
  137.6840   81.2990  224.9290 Cl  0  0  0  0  0  0  0  0  0  0  0  0
  140.1480   80.7270  223.8390 C   0  0  0  0  0  0  0  0  0  0  0  0
  140.5417   81.5385  224.4686 H   0  0  0  0  0  0  0  0  0  0  0  0
  140.9990   80.0360  223.0230 C   0  0  0  0  0  0  0  0  0  0  0  0
  142.7190   80.3930  222.9360 Cl  0  0  0  0  0  0  0  0  0  0  0  0
  1  2  1  0
  2  3  1  0
  3  4  1  0
  4  5  1  0
  5  6  2  0
  6  7  1  0
  6  8  1  0
  8  9  2  0
  9 10  1  0
  9 11  1  0
 11 12  1  0
 11 13  2  0
 13 14  1  0
 13 15  1  0
 15 16  1  0
 16 17  1  0
 16 18  1  0
 16 19  1  0
 15 20  2  0
 20 21  1  0
  3 22  2  0
 22 23  1  0
 22 24  1  0
 24 25  1  0
 24 26  1  0
 24 27  1  0
 27 28  1  0
 27 29  1  0
 27 30  1  0
 30 31  1  0
 31 32  2  0
 32 33  1  0
 32 34  1  0
 34 35  1  0
 34 36  2  0
 36 37  1  0
 36 38  1  0
 38 39  1  0
 38 40  2  0
 40 41  1  0
 20  8  1  0
 40 31  1  0
M  CHG  1   4  -1
M  END
>  <UniqueID>  (18) 
17

>  <SMILES>  (18) 
O/C(=C/CCOc1ccc(Cl)cc1Cl)[N-]/N=C/c1cccc(C(F)(F)F)c1

>  <Energy>  (18) 
255.6863831339477

>  <Genealogy>  (18) 
O=C(CCCOc1ccc(Cl)cc1Cl)[N-]N=Cc1cccc(C(F)(F)F)c1 (protonated)
OC(=CCCOc1ccc(Cl)cc1Cl)[N-]N=Cc1cccc(C(F)(F)F)c1 (tautomer)
O/C(=C/CCOc1ccc(Cl)cc1Cl)[N-]/N=C/c1cccc(C(F)(F)F)c1 (cis-trans isomerization)
O/C(=C/CCOc1ccc(Cl)cc1Cl)[N-]/N=C/c1cccc(C(F)(F)F)c1 (3D coordinates assigned)
O/C(=C/CCOc1ccc(Cl)cc1Cl)[N-]/N=C/c1cccc(C(F)(F)F)c1 (optimized conformer: 255.6863831339477 kcal/mol)

>  <smiles>  (18) 
O=C(CCCOc1ccc(Cl)cc1Cl)NN=Cc1cccc(C(F)(F)F)c1

>  <score_type>  (18) 
oracle

>  <origin>  (18) 
autodockgpu

>  <m_score__min__energy>  (18) 
-6.9400000000000004

>  <m_primary>  (18) 
energy

>  <meeko>  (18) 
{"free_energy": -5.88, "intermolecular_energy": -9.16, "internal_energy": -0.81, "cluster_size": 5, "cluster_id": 1, "rank_in_cluster": 4}

>  <energy>  (18) 
-6.0

>  <cluster_rmsd>  (18) 
0.0

>  <rmsd>  (18) 
272.02

>  <cluster>  (18) 
7

$$$$
JBHRSOAXAGIKHA-GNXBGBGXNA-N
     RDKit          3D

 41 42  0  0  0  0  0  0  0  0999 V2000
  139.3850   73.7830  223.0760 H   0  0  0  0  0  0  0  0  0  0  0  0
  140.2350   73.3970  222.7140 O   0  0  0  0  0  0  0  0  0  0  0  0
  141.1710   73.0130  220.5820 C   0  0  0  0  0  0  0  0  0  0  0  0
  139.3740   71.6050  221.3310 N   0  0  0  0  0  0  0  0  0  0  0  0
  139.3320   70.5960  222.3160 N   0  0  0  0  0  0  0  0  0  0  0  0
  140.2970   72.6970  221.5220 C   0  0  0  0  0  0  0  0  0  0  0  0
  141.2166   72.3871  219.6786 H   0  0  0  0  0  0  0  0  0  0  0  0
  139.5690   70.6760  224.7230 C   0  0  0  0  0  0  0  0  0  0  0  0
  140.3480   71.7260  225.2090 C   0  0  0  0  0  0  0  0  0  0  0  0
  140.3756   72.6710  224.6466 H   0  0  0  0  0  0  0  0  0  0  0  0
  141.0760   71.6220  226.3560 C   0  0  0  0  0  0  0  0  0  0  0  0
  141.6825   72.4647  226.7192 H   0  0  0  0  0  0  0  0  0  0  0  0
  141.0310   70.4300  227.0490 C   0  0  0  0  0  0  0  0  0  0  0  0
  141.6056   70.3094  227.9792 H   0  0  0  0  0  0  0  0  0  0  0  0
  140.2610   69.3890  226.5690 C   0  0  0  0  0  0  0  0  0  0  0  0
  140.2510   68.1190  227.3620 C   0  0  0  0  0  0  0  0  0  0  0  0
  141.4120   67.4170  227.1060 F   0  0  0  0  0  0  0  0  0  0  0  0
  140.1340   68.4380  228.7050 F   0  0  0  0  0  0  0  0  0  0  0  0
  139.1800   67.3690  226.9390 F   0  0  0  0  0  0  0  0  0  0  0  0
  139.5170   69.4850  225.4040 C   0  0  0  0  0  0  0  0  0  0  0  0
  138.9104   68.6426  225.0402 H   0  0  0  0  0  0  0  0  0  0  0  0
  138.8280   70.8800  223.4900 C   0  0  0  0  0  0  0  0  0  0  0  0
  137.8077   71.2874  223.5451 H   0  0  0  0  0  0  0  0  0  0  0  0
  142.0980   74.1760  220.6860 C   0  0  0  0  0  0  0  0  0  0  0  0
  142.7268   74.0287  221.5765 H   0  0  0  0  0  0  0  0  0  0  0  0
  142.6613   74.1965  219.7414 H   0  0  0  0  0  0  0  0  0  0  0  0
  141.4790   75.4460  220.7950 C   0  0  0  0  0  0  0  0  0  0  0  0
    0.0000    0.0000    0.0000 H   0  0  0  0  0  0  0  0  0  0  0  0
  140.7020   75.0118  221.4413 H   0  0  0  0  0  0  0  0  0  0  0  0
  140.9050   76.6240  220.8960 O   0  0  0  0  0  0  0  0  0  0  0  0
  141.2800   77.7080  221.7080 C   0  0  0  0  0  0  0  0  0  0  0  0
  141.1810   77.6480  223.0900 C   0  0  0  0  0  0  0  0  0  0  0  0
  140.8051   76.7527  223.6069 H   0  0  0  0  0  0  0  0  0  0  0  0
  141.5800   78.7730  223.7800 C   0  0  0  0  0  0  0  0  0  0  0  0
  141.5186   78.7716  224.8783 H   0  0  0  0  0  0  0  0  0  0  0  0
  142.0500   79.8920  223.1460 C   0  0  0  0  0  0  0  0  0  0  0  0
  142.5360   81.2820  224.1100 Cl  0  0  0  0  0  0  0  0  0  0  0  0
  142.1280   79.8970  221.7640 C   0  0  0  0  0  0  0  0  0  0  0  0
  142.5036   80.7921  221.2465 H   0  0  0  0  0  0  0  0  0  0  0  0
  141.7460   78.8080  221.0320 C   0  0  0  0  0  0  0  0  0  0  0  0
  141.8310   78.7760  219.2750 Cl  0  0  0  0  0  0  0  0  0  0  0  0
  1  2  1  0
  2  3  1  0
  3  4  1  0
  4  5  1  0
  5  6  2  0
  6  7  1  0
  6  8  1  0
  8  9  2  0
  9 10  1  0
  9 11  1  0
 11 12  1  0
 11 13  2  0
 13 14  1  0
 13 15  1  0
 15 16  1  0
 16 17  1  0
 16 18  1  0
 16 19  1  0
 15 20  2  0
 20 21  1  0
  3 22  2  0
 22 23  1  0
 22 24  1  0
 24 25  1  0
 24 26  1  0
 24 27  1  0
 27 28  1  0
 27 29  1  0
 27 30  1  0
 30 31  1  0
 31 32  2  0
 32 33  1  0
 32 34  1  0
 34 35  1  0
 34 36  2  0
 36 37  1  0
 36 38  1  0
 38 39  1  0
 38 40  2  0
 40 41  1  0
 20  8  1  0
 40 31  1  0
M  CHG  1   4  -1
M  END
>  <UniqueID>  (19) 
17

>  <SMILES>  (19) 
O/C(=C/CCOc1ccc(Cl)cc1Cl)[N-]/N=C/c1cccc(C(F)(F)F)c1

>  <Energy>  (19) 
255.6863831339477

>  <Genealogy>  (19) 
O=C(CCCOc1ccc(Cl)cc1Cl)[N-]N=Cc1cccc(C(F)(F)F)c1 (protonated)
OC(=CCCOc1ccc(Cl)cc1Cl)[N-]N=Cc1cccc(C(F)(F)F)c1 (tautomer)
O/C(=C/CCOc1ccc(Cl)cc1Cl)[N-]/N=C/c1cccc(C(F)(F)F)c1 (cis-trans isomerization)
O/C(=C/CCOc1ccc(Cl)cc1Cl)[N-]/N=C/c1cccc(C(F)(F)F)c1 (3D coordinates assigned)
O/C(=C/CCOc1ccc(Cl)cc1Cl)[N-]/N=C/c1cccc(C(F)(F)F)c1 (optimized conformer: 255.6863831339477 kcal/mol)

>  <smiles>  (19) 
O=C(CCCOc1ccc(Cl)cc1Cl)NN=Cc1cccc(C(F)(F)F)c1

>  <score_type>  (19) 
oracle

>  <origin>  (19) 
autodockgpu

>  <m_score__min__energy>  (19) 
-6.9400000000000004

>  <m_primary>  (19) 
energy

>  <meeko>  (19) 
{"free_energy": -6.55, "intermolecular_energy": -9.84, "internal_energy": -0.67, "cluster_size": 5, "cluster_id": 1, "rank_in_cluster": 2}

>  <energy>  (19) 
-5.72

>  <cluster_rmsd>  (19) 
0.0

>  <rmsd>  (19) 
271.92

>  <cluster>  (19) 
8

$$$$
JBHRSOAXAGIKHA-GNXBGBGXNA-N
     RDKit          3D

 41 42  0  0  0  0  0  0  0  0999 V2000
  140.1980   71.3300  220.3760 H   0  0  0  0  0  0  0  0  0  0  0  0
  140.7930   72.0920  220.1190 O   0  0  0  0  0  0  0  0  0  0  0  0
  142.3510   73.7540  220.7350 C   0  0  0  0  0  0  0  0  0  0  0  0
  140.7140   73.0410  222.3450 N   0  0  0  0  0  0  0  0  0  0  0  0
  140.9940   71.9980  223.2520 N   0  0  0  0  0  0  0  0  0  0  0  0
  141.3220   72.9810  221.0370 C   0  0  0  0  0  0  0  0  0  0  0  0
  143.3260   73.5291  221.1920 H   0  0  0  0  0  0  0  0  0  0  0  0
  140.3760   71.0930  225.4100 C   0  0  0  0  0  0  0  0  0  0  0  0
  140.7540   71.9860  226.4130 C   0  0  0  0  0  0  0  0  0  0  0  0
  140.8028   73.0595  226.1780 H   0  0  0  0  0  0  0  0  0  0  0  0
  141.0650   71.5730  227.6750 C   0  0  0  0  0  0  0  0  0  0  0  0
  141.3594   72.2959  228.4501 H   0  0  0  0  0  0  0  0  0  0  0  0
  141.0000   70.2240  227.9520 C   0  0  0  0  0  0  0  0  0  0  0  0
  141.2442   69.8544  228.9588 H   0  0  0  0  0  0  0  0  0  0  0  0
  140.6270   69.3390  226.9600 C   0  0  0  0  0  0  0  0  0  0  0  0
  140.5740   67.8860  227.3180 C   0  0  0  0  0  0  0  0  0  0  0  0
  141.0730   67.7170  228.5940 F   0  0  0  0  0  0  0  0  0  0  0  0
  139.2600   67.4570  227.2240 F   0  0  0  0  0  0  0  0  0  0  0  0
  141.3780   67.2070  226.4360 F   0  0  0  0  0  0  0  0  0  0  0  0
  140.3080   69.7480  225.6750 C   0  0  0  0  0  0  0  0  0  0  0  0
  140.0127   69.0253  224.9001 H   0  0  0  0  0  0  0  0  0  0  0  0
  140.0640   71.6270  224.0950 C   0  0  0  0  0  0  0  0  0  0  0  0
  139.0093   71.7228  223.7976 H   0  0  0  0  0  0  0  0  0  0  0  0
  142.2550   74.9150  219.8060 C   0  0  0  0  0  0  0  0  0  0  0  0
  143.2764   75.2642  219.5944 H   0  0  0  0  0  0  0  0  0  0  0  0
  141.7175   74.5467  218.9197 H   0  0  0  0  0  0  0  0  0  0  0  0
  141.5060   76.0210  220.2810 C   0  0  0  0  0  0  0  0  0  0  0  0
    0.0000    0.0000    0.0000 H   0  0  0  0  0  0  0  0  0  0  0  0
  140.9014   75.3445  220.9029 H   0  0  0  0  0  0  0  0  0  0  0  0
  140.8110   77.0460  220.7200 O   0  0  0  0  0  0  0  0  0  0  0  0
  141.2200   78.0590  221.6050 C   0  0  0  0  0  0  0  0  0  0  0  0
  141.1090   77.9100  222.9800 C   0  0  0  0  0  0  0  0  0  0  0  0
  140.6970   76.9966  223.4337 H   0  0  0  0  0  0  0  0  0  0  0  0
  141.5440   78.9710  223.7460 C   0  0  0  0  0  0  0  0  0  0  0  0
  141.4754   78.8982  224.8414 H   0  0  0  0  0  0  0  0  0  0  0  0
  142.0580   80.1110  223.1910 C   0  0  0  0  0  0  0  0  0  0  0  0
  142.5880   81.4160  224.2480 Cl  0  0  0  0  0  0  0  0  0  0  0  0
  142.1460   80.2060  221.8120 C   0  0  0  0  0  0  0  0  0  0  0  0
  142.5576   81.1194  221.3577 H   0  0  0  0  0  0  0  0  0  0  0  0
  141.7300   79.1840  221.0070 C   0  0  0  0  0  0  0  0  0  0  0  0
  141.8260   79.2670  219.2530 Cl  0  0  0  0  0  0  0  0  0  0  0  0
  1  2  1  0
  2  3  1  0
  3  4  1  0
  4  5  1  0
  5  6  2  0
  6  7  1  0
  6  8  1  0
  8  9  2  0
  9 10  1  0
  9 11  1  0
 11 12  1  0
 11 13  2  0
 13 14  1  0
 13 15  1  0
 15 16  1  0
 16 17  1  0
 16 18  1  0
 16 19  1  0
 15 20  2  0
 20 21  1  0
  3 22  2  0
 22 23  1  0
 22 24  1  0
 24 25  1  0
 24 26  1  0
 24 27  1  0
 27 28  1  0
 27 29  1  0
 27 30  1  0
 30 31  1  0
 31 32  2  0
 32 33  1  0
 32 34  1  0
 34 35  1  0
 34 36  2  0
 36 37  1  0
 36 38  1  0
 38 39  1  0
 38 40  2  0
 40 41  1  0
 20  8  1  0
 40 31  1  0
M  CHG  1   4  -1
M  END
>  <UniqueID>  (20) 
17

>  <SMILES>  (20) 
O/C(=C/CCOc1ccc(Cl)cc1Cl)[N-]/N=C/c1cccc(C(F)(F)F)c1

>  <Energy>  (20) 
255.6863831339477

>  <Genealogy>  (20) 
O=C(CCCOc1ccc(Cl)cc1Cl)[N-]N=Cc1cccc(C(F)(F)F)c1 (protonated)
OC(=CCCOc1ccc(Cl)cc1Cl)[N-]N=Cc1cccc(C(F)(F)F)c1 (tautomer)
O/C(=C/CCOc1ccc(Cl)cc1Cl)[N-]/N=C/c1cccc(C(F)(F)F)c1 (cis-trans isomerization)
O/C(=C/CCOc1ccc(Cl)cc1Cl)[N-]/N=C/c1cccc(C(F)(F)F)c1 (3D coordinates assigned)
O/C(=C/CCOc1ccc(Cl)cc1Cl)[N-]/N=C/c1cccc(C(F)(F)F)c1 (optimized conformer: 255.6863831339477 kcal/mol)

>  <smiles>  (20) 
O=C(CCCOc1ccc(Cl)cc1Cl)NN=Cc1cccc(C(F)(F)F)c1

>  <score_type>  (20) 
oracle

>  <origin>  (20) 
autodockgpu

>  <m_score__min__energy>  (20) 
-6.9400000000000004

>  <m_primary>  (20) 
energy

>  <meeko>  (20) 
{"free_energy": -6.38, "intermolecular_energy": -9.66, "internal_energy": -0.69, "cluster_size": 1, "cluster_id": 4, "rank_in_cluster": 1}

>  <energy>  (20) 
-4.46

>  <cluster_rmsd>  (20) 
0.0

>  <rmsd>  (20) 
271.49

>  <cluster>  (20) 
9

$$$$
JBHRSOAXAGIKHA-SRRPOTTFNA-N
     RDKit          3D

 41 42  0  0  0  0  0  0  0  0999 V2000
  142.1580   76.1240  221.2370 H   0  0  0  0  0  0  0  0  0  0  0  0
  141.9950   75.1250  221.1820 O   0  0  0  0  0  0  0  0  0  0  0  0
  139.9750   74.7020  220.0340 C   0  0  0  0  0  0  0  0  0  0  0  0
  140.2690   73.8990  222.3400 N   0  0  0  0  0  0  0  0  0  0  0  0
  140.7230   72.6370  222.7470 N   0  0  0  0  0  0  0  0  0  0  0  0
  140.7110   74.5810  221.1570 C   0  0  0  0  0  0  0  0  0  0  0  0
  139.1304   74.0065  219.9198 H   0  0  0  0  0  0  0  0  0  0  0  0
  139.9950   70.9430  224.3620 C   0  0  0  0  0  0  0  0  0  0  0  0
  139.5540   69.6140  224.4200 C   0  0  0  0  0  0  0  0  0  0  0  0
  139.1654   69.1268  223.5136 H   0  0  0  0  0  0  0  0  0  0  0  0
  139.6050   68.9050  225.6210 C   0  0  0  0  0  0  0  0  0  0  0  0
  139.2773   67.8554  225.6523 H   0  0  0  0  0  0  0  0  0  0  0  0
  140.0710   69.5240  226.7840 C   0  0  0  0  0  0  0  0  0  0  0  0
  140.1303   68.9526  227.7220 H   0  0  0  0  0  0  0  0  0  0  0  0
  140.4640   70.8720  226.7610 C   0  0  0  0  0  0  0  0  0  0  0  0
  140.9920   71.5380  228.0080 C   0  0  0  0  0  0  0  0  0  0  0  0
  141.8110   72.6050  227.6810 F   0  0  0  0  0  0  0  0  0  0  0  0
  139.9540   72.0140  228.7900 F   0  0  0  0  0  0  0  0  0  0  0  0
  141.7200   70.6180  228.7390 F   0  0  0  0  0  0  0  0  0  0  0  0
  140.4360   71.5720  225.5410 C   0  0  0  0  0  0  0  0  0  0  0  0
  140.7623   72.6220  225.5084 H   0  0  0  0  0  0  0  0  0  0  0  0
  139.9230   71.6670  223.0740 C   0  0  0  0  0  0  0  0  0  0  0  0
  139.1486   71.3672  222.3526 H   0  0  0  0  0  0  0  0  0  0  0  0
  140.1910   75.6920  218.9200 C   0  0  0  0  0  0  0  0  0  0  0  0
  141.1910   75.5266  218.4927 H   0  0  0  0  0  0  0  0  0  0  0  0
  139.3959   75.5308  218.1771 H   0  0  0  0  0  0  0  0  0  0  0  0
  140.0940   77.1500  219.3880 C   0  0  0  0  0  0  0  0  0  0  0  0
  139.7768   77.7789  218.5431 H   0  0  0  0  0  0  0  0  0  0  0  0
  139.3617   77.2079  220.2068 H   0  0  0  0  0  0  0  0  0  0  0  0
  141.3570   77.6170  219.8710 O   0  0  0  0  0  0  0  0  0  0  0  0
  141.5570   78.5310  220.9200 C   0  0  0  0  0  0  0  0  0  0  0  0
  141.4440   78.1670  222.2770 C   0  0  0  0  0  0  0  0  0  0  0  0
  141.1963   77.1297  222.5464 H   0  0  0  0  0  0  0  0  0  0  0  0
  141.6450   79.1170  223.2820 C   0  0  0  0  0  0  0  0  0  0  0  0
  141.5453   78.8272  224.3384 H   0  0  0  0  0  0  0  0  0  0  0  0
  141.9720   80.4330  222.9490 C   0  0  0  0  0  0  0  0  0  0  0  0
  142.2240   81.6230  224.2140 Cl  0  0  0  0  0  0  0  0  0  0  0  0
  142.1030   80.8010  221.6070 C   0  0  0  0  0  0  0  0  0  0  0  0
  142.3653   81.8366  221.3448 H   0  0  0  0  0  0  0  0  0  0  0  0
  141.9010   79.8540  220.5960 C   0  0  0  0  0  0  0  0  0  0  0  0
  142.0650   80.3460  218.9170 Cl  0  0  0  0  0  0  0  0  0  0  0  0
  1  2  1  0
  2  3  1  0
  3  4  1  0
  4  5  1  0
  5  6  2  0
  6  7  1  0
  6  8  1  0
  8  9  2  0
  9 10  1  0
  9 11  1  0
 11 12  1  0
 11 13  2  0
 13 14  1  0
 13 15  1  0
 15 16  1  0
 16 17  1  0
 16 18  1  0
 16 19  1  0
 15 20  2  0
 20 21  1  0
  3 22  2  0
 22 23  1  0
 22 24  1  0
 24 25  1  0
 24 26  1  0
 24 27  1  0
 27 28  1  0
 27 29  1  0
 27 30  1  0
 30 31  1  0
 31 32  2  0
 32 33  1  0
 32 34  1  0
 34 35  1  0
 34 36  2  0
 36 37  1  0
 36 38  1  0
 38 39  1  0
 38 40  2  0
 40 41  1  0
 20  8  1  0
 40 31  1  0
M  CHG  1   4  -1
M  END
>  <UniqueID>  (21) 
18

>  <SMILES>  (21) 
O/C(=C/CCOc1ccc(Cl)cc1Cl)[N-]/N=C\c1cccc(C(F)(F)F)c1

>  <Energy>  (21) 
48.445992467673584

>  <Genealogy>  (21) 
O=C(CCCOc1ccc(Cl)cc1Cl)[N-]N=Cc1cccc(C(F)(F)F)c1 (protonated)
OC(=CCCOc1ccc(Cl)cc1Cl)[N-]N=Cc1cccc(C(F)(F)F)c1 (tautomer)
O/C(=C/CCOc1ccc(Cl)cc1Cl)[N-]/N=C\c1cccc(C(F)(F)F)c1 (cis-trans isomerization)
O/C(=C/CCOc1ccc(Cl)cc1Cl)[N-]/N=C\c1cccc(C(F)(F)F)c1 (3D coordinates assigned)
O/C(=C/CCOc1ccc(Cl)cc1Cl)[N-]/N=C\c1cccc(C(F)(F)F)c1 (optimized conformer: 48.445992467673584 kcal/mol)

>  <smiles>  (21) 
O=C(CCCOc1ccc(Cl)cc1Cl)NN=Cc1cccc(C(F)(F)F)c1

>  <score_type>  (21) 
oracle

>  <origin>  (21) 
autodockgpu

>  <m_score__min__energy>  (21) 
-7.2599999999999998

>  <m_primary>  (21) 
energy

>  <meeko>  (21) 
{"free_energy": -6.46, "intermolecular_energy": -9.75, "internal_energy": -1.27, "cluster_size": 6, "cluster_id": 2, "rank_in_cluster": 3}

>  <energy>  (21) 
-7.26

>  <cluster_rmsd>  (21) 
0.0

>  <rmsd>  (21) 
273.12

>  <cluster>  (21) 
1

$$$$
JBHRSOAXAGIKHA-SRRPOTTFNA-N
     RDKit          3D

 41 42  0  0  0  0  0  0  0  0999 V2000
  142.6570   75.6510  221.2330 H   0  0  0  0  0  0  0  0  0  0  0  0
  142.4360   74.7310  220.8690 O   0  0  0  0  0  0  0  0  0  0  0  0
  141.3120   74.0170  221.2840 C   0  0  0  0  0  0  0  0  0  0  0  0
  140.2890   74.7510  221.9710 N   0  0  0  0  0  0  0  0  0  0  0  0
  140.4750   76.0030  222.5730 N   0  0  0  0  0  0  0  0  0  0  0  0
  140.2020   77.1250  221.9760 C   0  0  0  0  0  0  0  0  0  0  0  0
  139.4574   77.1150  221.1664 H   0  0  0  0  0  0  0  0  0  0  0  0
  140.8370   78.4140  222.3250 C   0  0  0  0  0  0  0  0  0  0  0  0
  141.6080   78.4980  223.4920 C   0  0  0  0  0  0  0  0  0  0  0  0
  141.7350   77.6098  224.1284 H   0  0  0  0  0  0  0  0  0  0  0  0
  142.2160   79.7020  223.8520 C   0  0  0  0  0  0  0  0  0  0  0  0
  142.8364   79.7533  224.7589 H   0  0  0  0  0  0  0  0  0  0  0  0
  142.0390   80.8420  223.0640 C   0  0  0  0  0  0  0  0  0  0  0  0
  142.5402   81.7814  223.3404 H   0  0  0  0  0  0  0  0  0  0  0  0
  141.2240   80.7950  221.9200 C   0  0  0  0  0  0  0  0  0  0  0  0
  141.0500   82.0160  221.0520 C   0  0  0  0  0  0  0  0  0  0  0  0
  141.4810   83.1510  221.7160 F   0  0  0  0  0  0  0  0  0  0  0  0
  141.7820   81.8970  219.8820 F   0  0  0  0  0  0  0  0  0  0  0  0
  139.7130   82.1590  220.7330 F   0  0  0  0  0  0  0  0  0  0  0  0
  140.6360   79.5720  221.5490 C   0  0  0  0  0  0  0  0  0  0  0  0
  140.0131   79.5196  220.6439 H   0  0  0  0  0  0  0  0  0  0  0  0
  141.2600   72.6900  221.0450 C   0  0  0  0  0  0  0  0  0  0  0  0
  141.7554   72.3331  220.1300 H   0  0  0  0  0  0  0  0  0  0  0  0
  140.5930   71.6480  221.9030 C   0  0  0  0  0  0  0  0  0  0  0  0
  139.7701   71.1959  221.3299 H   0  0  0  0  0  0  0  0  0  0  0  0
  141.3582   70.9063  222.1759 H   0  0  0  0  0  0  0  0  0  0  0  0
  140.0230   72.2230  223.2080 C   0  0  0  0  0  0  0  0  0  0  0  0
  140.8523   72.5781  223.8374 H   0  0  0  0  0  0  0  0  0  0  0  0
  139.3458   73.0535  222.9595 H   0  0  0  0  0  0  0  0  0  0  0  0
  139.2840   71.2300  223.9240 O   0  0  0  0  0  0  0  0  0  0  0  0
  139.7150   70.5400  225.0700 C   0  0  0  0  0  0  0  0  0  0  0  0
  140.3190   71.1900  226.1650 C   0  0  0  0  0  0  0  0  0  0  0  0
  140.4616   72.2805  226.1432 H   0  0  0  0  0  0  0  0  0  0  0  0
  140.7380   70.4560  227.2790 C   0  0  0  0  0  0  0  0  0  0  0  0
  141.2161   70.9696  228.1261 H   0  0  0  0  0  0  0  0  0  0  0  0
  140.5510   69.0720  227.3190 C   0  0  0  0  0  0  0  0  0  0  0  0
  141.0780   68.1550  228.7180 Cl  0  0  0  0  0  0  0  0  0  0  0  0
  139.9390   68.4200  226.2450 C   0  0  0  0  0  0  0  0  0  0  0  0
  139.7877   67.3309  226.2781 H   0  0  0  0  0  0  0  0  0  0  0  0
  139.5180   69.1500  225.1270 C   0  0  0  0  0  0  0  0  0  0  0  0
  138.7590   68.3030  223.7870 Cl  0  0  0  0  0  0  0  0  0  0  0  0
  1  2  1  0
  2  3  1  0
  3  4  1  0
  4  5  1  0
  5  6  2  0
  6  7  1  0
  6  8  1  0
  8  9  2  0
  9 10  1  0
  9 11  1  0
 11 12  1  0
 11 13  2  0
 13 14  1  0
 13 15  1  0
 15 16  1  0
 16 17  1  0
 16 18  1  0
 16 19  1  0
 15 20  2  0
 20 21  1  0
  3 22  2  0
 22 23  1  0
 22 24  1  0
 24 25  1  0
 24 26  1  0
 24 27  1  0
 27 28  1  0
 27 29  1  0
 27 30  1  0
 30 31  1  0
 31 32  2  0
 32 33  1  0
 32 34  1  0
 34 35  1  0
 34 36  2  0
 36 37  1  0
 36 38  1  0
 38 39  1  0
 38 40  2  0
 40 41  1  0
 20  8  1  0
 40 31  1  0
M  CHG  1   4  -1
M  END
>  <UniqueID>  (22) 
18

>  <SMILES>  (22) 
O/C(=C/CCOc1ccc(Cl)cc1Cl)[N-]/N=C\c1cccc(C(F)(F)F)c1

>  <Energy>  (22) 
48.445992467673584

>  <Genealogy>  (22) 
O=C(CCCOc1ccc(Cl)cc1Cl)[N-]N=Cc1cccc(C(F)(F)F)c1 (protonated)
OC(=CCCOc1ccc(Cl)cc1Cl)[N-]N=Cc1cccc(C(F)(F)F)c1 (tautomer)
O/C(=C/CCOc1ccc(Cl)cc1Cl)[N-]/N=C\c1cccc(C(F)(F)F)c1 (cis-trans isomerization)
O/C(=C/CCOc1ccc(Cl)cc1Cl)[N-]/N=C\c1cccc(C(F)(F)F)c1 (3D coordinates assigned)
O/C(=C/CCOc1ccc(Cl)cc1Cl)[N-]/N=C\c1cccc(C(F)(F)F)c1 (optimized conformer: 48.445992467673584 kcal/mol)

>  <smiles>  (22) 
O=C(CCCOc1ccc(Cl)cc1Cl)NN=Cc1cccc(C(F)(F)F)c1

>  <score_type>  (22) 
oracle

>  <origin>  (22) 
autodockgpu

>  <m_score__min__energy>  (22) 
-7.2599999999999998

>  <m_primary>  (22) 
energy

>  <meeko>  (22) 
{"free_energy": -6.52, "intermolecular_energy": -9.8, "internal_energy": -0.8, "cluster_size": 3, "cluster_id": 3, "rank_in_cluster": 1}

>  <energy>  (22) 
-7.16

>  <cluster_rmsd>  (22) 
0.52

>  <rmsd>  (22) 
272.89

>  <cluster>  (22) 
1

$$$$
JBHRSOAXAGIKHA-SRRPOTTFNA-N
     RDKit          3D

 41 42  0  0  0  0  0  0  0  0999 V2000
  142.2170   75.3210  222.0090 H   0  0  0  0  0  0  0  0  0  0  0  0
  141.6010   75.3010  221.2040 O   0  0  0  0  0  0  0  0  0  0  0  0
  140.2580   74.9390  221.3030 C   0  0  0  0  0  0  0  0  0  0  0  0
  139.9090   73.9980  222.3290 N   0  0  0  0  0  0  0  0  0  0  0  0
  140.7080   72.9150  222.7210 N   0  0  0  0  0  0  0  0  0  0  0  0
  140.2420   71.7120  222.8790 C   0  0  0  0  0  0  0  0  0  0  0  0
  139.9166   71.1595  221.9852 H   0  0  0  0  0  0  0  0  0  0  0  0
  140.1250   71.0450  224.1930 C   0  0  0  0  0  0  0  0  0  0  0  0
  139.5010   69.7920  224.2660 C   0  0  0  0  0  0  0  0  0  0  0  0
  139.1121   69.3211  223.3511 H   0  0  0  0  0  0  0  0  0  0  0  0
  139.3700   69.1380  225.4920 C   0  0  0  0  0  0  0  0  0  0  0  0
  138.8970   68.1459  225.5366 H   0  0  0  0  0  0  0  0  0  0  0  0
  139.8380   69.7400  226.6630 C   0  0  0  0  0  0  0  0  0  0  0  0
  139.7541   69.2088  227.6226 H   0  0  0  0  0  0  0  0  0  0  0  0
  140.4150   71.0200  226.6210 C   0  0  0  0  0  0  0  0  0  0  0  0
  140.9450   71.6640  227.8790 C   0  0  0  0  0  0  0  0  0  0  0  0
  139.9110   72.2150  228.6160 F   0  0  0  0  0  0  0  0  0  0  0  0
  141.5920   70.7330  228.6740 F   0  0  0  0  0  0  0  0  0  0  0  0
  141.8380   72.6610  227.5370 F   0  0  0  0  0  0  0  0  0  0  0  0
  140.5680   71.6610  225.3790 C   0  0  0  0  0  0  0  0  0  0  0  0
  141.0387   72.6542  225.3334 H   0  0  0  0  0  0  0  0  0  0  0  0
  139.3770   75.4650  220.4280 C   0  0  0  0  0  0  0  0  0  0  0  0
  139.5122   75.1967  219.3698 H   0  0  0  0  0  0  0  0  0  0  0  0
  138.2270   76.3820  220.7510 C   0  0  0  0  0  0  0  0  0  0  0  0
  138.4945   77.4029  220.4409 H   0  0  0  0  0  0  0  0  0  0  0  0
  137.3449   76.0076  220.2109 H   0  0  0  0  0  0  0  0  0  0  0  0
  137.8780   76.4000  222.2460 C   0  0  0  0  0  0  0  0  0  0  0  0
  136.8471   76.0403  222.3793 H   0  0  0  0  0  0  0  0  0  0  0  0
  138.5851   75.7477  222.7794 H   0  0  0  0  0  0  0  0  0  0  0  0
  137.9850   77.7220  222.7800 O   0  0  0  0  0  0  0  0  0  0  0  0
  139.1770   78.4290  223.0110 C   0  0  0  0  0  0  0  0  0  0  0  0
  140.4490   77.8840  222.7430 C   0  0  0  0  0  0  0  0  0  0  0  0
  140.5325   76.8679  222.3299 H   0  0  0  0  0  0  0  0  0  0  0  0
  141.6050   78.6270  222.9990 C   0  0  0  0  0  0  0  0  0  0  0  0
  142.5939   78.1907  222.7948 H   0  0  0  0  0  0  0  0  0  0  0  0
  141.5080   79.9210  223.5130 C   0  0  0  0  0  0  0  0  0  0  0  0
  142.9620   80.8500  223.8330 Cl  0  0  0  0  0  0  0  0  0  0  0  0
  140.2520   80.4780  223.7680 C   0  0  0  0  0  0  0  0  0  0  0  0
  140.1758   81.4997  224.1685 H   0  0  0  0  0  0  0  0  0  0  0  0
  139.0910   79.7390  223.5150 C   0  0  0  0  0  0  0  0  0  0  0  0
  137.5240   80.4610  223.8520 Cl  0  0  0  0  0  0  0  0  0  0  0  0
  1  2  1  0
  2  3  1  0
  3  4  1  0
  4  5  1  0
  5  6  2  0
  6  7  1  0
  6  8  1  0
  8  9  2  0
  9 10  1  0
  9 11  1  0
 11 12  1  0
 11 13  2  0
 13 14  1  0
 13 15  1  0
 15 16  1  0
 16 17  1  0
 16 18  1  0
 16 19  1  0
 15 20  2  0
 20 21  1  0
  3 22  2  0
 22 23  1  0
 22 24  1  0
 24 25  1  0
 24 26  1  0
 24 27  1  0
 27 28  1  0
 27 29  1  0
 27 30  1  0
 30 31  1  0
 31 32  2  0
 32 33  1  0
 32 34  1  0
 34 35  1  0
 34 36  2  0
 36 37  1  0
 36 38  1  0
 38 39  1  0
 38 40  2  0
 40 41  1  0
 20  8  1  0
 40 31  1  0
M  CHG  1   4  -1
M  END
>  <UniqueID>  (23) 
18

>  <SMILES>  (23) 
O/C(=C/CCOc1ccc(Cl)cc1Cl)[N-]/N=C\c1cccc(C(F)(F)F)c1

>  <Energy>  (23) 
48.445992467673584

>  <Genealogy>  (23) 
O=C(CCCOc1ccc(Cl)cc1Cl)[N-]N=Cc1cccc(C(F)(F)F)c1 (protonated)
OC(=CCCOc1ccc(Cl)cc1Cl)[N-]N=Cc1cccc(C(F)(F)F)c1 (tautomer)
O/C(=C/CCOc1ccc(Cl)cc1Cl)[N-]/N=C\c1cccc(C(F)(F)F)c1 (cis-trans isomerization)
O/C(=C/CCOc1ccc(Cl)cc1Cl)[N-]/N=C\c1cccc(C(F)(F)F)c1 (3D coordinates assigned)
O/C(=C/CCOc1ccc(Cl)cc1Cl)[N-]/N=C\c1cccc(C(F)(F)F)c1 (optimized conformer: 48.445992467673584 kcal/mol)

>  <smiles>  (23) 
O=C(CCCOc1ccc(Cl)cc1Cl)NN=Cc1cccc(C(F)(F)F)c1

>  <score_type>  (23) 
oracle

>  <origin>  (23) 
autodockgpu

>  <m_score__min__energy>  (23) 
-7.2599999999999998

>  <m_primary>  (23) 
energy

>  <meeko>  (23) 
{"free_energy": -6.96, "intermolecular_energy": -10.24, "internal_energy": -0.9, "cluster_size": 6, "cluster_id": 2, "rank_in_cluster": 1}

>  <energy>  (23) 
-6.76

>  <cluster_rmsd>  (23) 
1.31

>  <rmsd>  (23) 
272.77

>  <cluster>  (23) 
1

$$$$
JBHRSOAXAGIKHA-SRRPOTTFNA-N
     RDKit          3D

 41 42  0  0  0  0  0  0  0  0999 V2000
  139.1410   73.6570  223.0900 H   0  0  0  0  0  0  0  0  0  0  0  0
  139.5730   74.4340  222.6030 O   0  0  0  0  0  0  0  0  0  0  0  0
  139.8810   73.1620  220.6370 C   0  0  0  0  0  0  0  0  0  0  0  0
  140.3840   75.5700  220.6330 N   0  0  0  0  0  0  0  0  0  0  0  0
  141.1740   76.5500  221.2480 N   0  0  0  0  0  0  0  0  0  0  0  0
  139.9560   74.3540  221.2640 C   0  0  0  0  0  0  0  0  0  0  0  0
  139.8463   73.1833  219.5377 H   0  0  0  0  0  0  0  0  0  0  0  0
  141.2390   78.6680  222.4810 C   0  0  0  0  0  0  0  0  0  0  0  0
  142.0190   78.9060  223.6210 C   0  0  0  0  0  0  0  0  0  0  0  0
  142.2581   78.0766  224.3029 H   0  0  0  0  0  0  0  0  0  0  0  0
  142.4940   80.1890  223.8960 C   0  0  0  0  0  0  0  0  0  0  0  0
  143.1231   80.3626  224.7815 H   0  0  0  0  0  0  0  0  0  0  0  0
  142.1730   81.2540  223.0500 C   0  0  0  0  0  0  0  0  0  0  0  0
  142.5697   82.2583  223.2596 H   0  0  0  0  0  0  0  0  0  0  0  0
  141.3460   81.0480  221.9330 C   0  0  0  0  0  0  0  0  0  0  0  0
  141.0180   82.1900  221.0020 C   0  0  0  0  0  0  0  0  0  0  0  0
  141.6920   82.0480  219.8010 F   0  0  0  0  0  0  0  0  0  0  0  0
  139.6610   82.2310  220.7330 F   0  0  0  0  0  0  0  0  0  0  0  0
  141.3960   83.3800  221.5940 F   0  0  0  0  0  0  0  0  0  0  0  0
  140.8930   79.7480  221.6470 C   0  0  0  0  0  0  0  0  0  0  0  0
  140.2621   79.5732  220.7630 H   0  0  0  0  0  0  0  0  0  0  0  0
  140.7470   77.2970  222.2220 C   0  0  0  0  0  0  0  0  0  0  0  0
  139.9765   76.8869  222.8914 H   0  0  0  0  0  0  0  0  0  0  0  0
  139.8400   71.8050  221.2890 C   0  0  0  0  0  0  0  0  0  0  0  0
  138.7992   71.5796  221.5648 H   0  0  0  0  0  0  0  0  0  0  0  0
  140.2385   71.0792  220.5649 H   0  0  0  0  0  0  0  0  0  0  0  0
  140.7100   71.7210  222.5510 C   0  0  0  0  0  0  0  0  0  0  0  0
  141.2930   70.7885  222.5252 H   0  0  0  0  0  0  0  0  0  0  0  0
  141.3806   72.5926  222.5744 H   0  0  0  0  0  0  0  0  0  0  0  0
  139.9010   71.7350  223.7300 O   0  0  0  0  0  0  0  0  0  0  0  0
  140.1420   71.0100  224.9100 C   0  0  0  0  0  0  0  0  0  0  0  0
  140.8670   71.5420  225.9950 C   0  0  0  0  0  0  0  0  0  0  0  0
  141.2630   72.5667  225.9379 H   0  0  0  0  0  0  0  0  0  0  0  0
  141.0860   70.7760  227.1430 C   0  0  0  0  0  0  0  0  0  0  0  0
  141.6605   71.1961  227.9817 H   0  0  0  0  0  0  0  0  0  0  0  0
  140.5770   69.4780  227.2280 C   0  0  0  0  0  0  0  0  0  0  0  0
  140.8530   68.5190  228.6710 Cl  0  0  0  0  0  0  0  0  0  0  0  0
  139.8420   68.9460  226.1650 C   0  0  0  0  0  0  0  0  0  0  0  0
  139.4363   67.9259  226.2343 H   0  0  0  0  0  0  0  0  0  0  0  0
  139.6210   69.7090  225.0120 C   0  0  0  0  0  0  0  0  0  0  0  0
  138.7010   69.0110  223.6870 Cl  0  0  0  0  0  0  0  0  0  0  0  0
  1  2  1  0
  2  3  1  0
  3  4  1  0
  4  5  1  0
  5  6  2  0
  6  7  1  0
  6  8  1  0
  8  9  2  0
  9 10  1  0
  9 11  1  0
 11 12  1  0
 11 13  2  0
 13 14  1  0
 13 15  1  0
 15 16  1  0
 16 17  1  0
 16 18  1  0
 16 19  1  0
 15 20  2  0
 20 21  1  0
  3 22  2  0
 22 23  1  0
 22 24  1  0
 24 25  1  0
 24 26  1  0
 24 27  1  0
 27 28  1  0
 27 29  1  0
 27 30  1  0
 30 31  1  0
 31 32  2  0
 32 33  1  0
 32 34  1  0
 34 35  1  0
 34 36  2  0
 36 37  1  0
 36 38  1  0
 38 39  1  0
 38 40  2  0
 40 41  1  0
 20  8  1  0
 40 31  1  0
M  CHG  1   4  -1
M  END
>  <UniqueID>  (24) 
18

>  <SMILES>  (24) 
O/C(=C/CCOc1ccc(Cl)cc1Cl)[N-]/N=C\c1cccc(C(F)(F)F)c1

>  <Energy>  (24) 
48.445992467673584

>  <Genealogy>  (24) 
O=C(CCCOc1ccc(Cl)cc1Cl)[N-]N=Cc1cccc(C(F)(F)F)c1 (protonated)
OC(=CCCOc1ccc(Cl)cc1Cl)[N-]N=Cc1cccc(C(F)(F)F)c1 (tautomer)
O/C(=C/CCOc1ccc(Cl)cc1Cl)[N-]/N=C\c1cccc(C(F)(F)F)c1 (cis-trans isomerization)
O/C(=C/CCOc1ccc(Cl)cc1Cl)[N-]/N=C\c1cccc(C(F)(F)F)c1 (3D coordinates assigned)
O/C(=C/CCOc1ccc(Cl)cc1Cl)[N-]/N=C\c1cccc(C(F)(F)F)c1 (optimized conformer: 48.445992467673584 kcal/mol)

>  <smiles>  (24) 
O=C(CCCOc1ccc(Cl)cc1Cl)NN=Cc1cccc(C(F)(F)F)c1

>  <score_type>  (24) 
oracle

>  <origin>  (24) 
autodockgpu

>  <m_score__min__energy>  (24) 
-7.2599999999999998

>  <m_primary>  (24) 
energy

>  <meeko>  (24) 
{"free_energy": -6.39, "intermolecular_energy": -9.68, "internal_energy": -1.13, "cluster_size": 3, "cluster_id": 3, "rank_in_cluster": 3}

>  <energy>  (24) 
-6.4

>  <cluster_rmsd>  (24) 
1.87

>  <rmsd>  (24) 
273.03

>  <cluster>  (24) 
1

$$$$
JBHRSOAXAGIKHA-SRRPOTTFNA-N
     RDKit          3D

 41 42  0  0  0  0  0  0  0  0999 V2000
  138.0570   73.5040  222.9990 H   0  0  0  0  0  0  0  0  0  0  0  0
  137.5360   72.6840  222.7110 O   0  0  0  0  0  0  0  0  0  0  0  0
  138.7880   72.0460  220.8120 C   0  0  0  0  0  0  0  0  0  0  0  0
  137.9250   70.3290  222.3480 N   0  0  0  0  0  0  0  0  0  0  0  0
  138.1730   69.8710  223.6490 N   0  0  0  0  0  0  0  0  0  0  0  0
  138.0990   71.6860  221.9150 C   0  0  0  0  0  0  0  0  0  0  0  0
  138.2617   71.9579  219.8501 H   0  0  0  0  0  0  0  0  0  0  0  0
  139.8030   69.2930  225.3860 C   0  0  0  0  0  0  0  0  0  0  0  0
  139.9430   68.0670  226.0520 C   0  0  0  0  0  0  0  0  0  0  0  0
  139.6736   67.1321  225.5388 H   0  0  0  0  0  0  0  0  0  0  0  0
  140.4220   68.0260  227.3620 C   0  0  0  0  0  0  0  0  0  0  0  0
  140.5488   67.0583  227.8694 H   0  0  0  0  0  0  0  0  0  0  0  0
  140.7410   69.2100  228.0310 C   0  0  0  0  0  0  0  0  0  0  0  0
  141.1401   69.1690  229.0552 H   0  0  0  0  0  0  0  0  0  0  0  0
  140.5550   70.4530  227.4030 C   0  0  0  0  0  0  0  0  0  0  0  0
  140.9230   71.7330  228.1130 C   0  0  0  0  0  0  0  0  0  0  0  0
  139.8230   72.2600  228.7670 F   0  0  0  0  0  0  0  0  0  0  0  0
  141.9170   71.5080  229.0500 F   0  0  0  0  0  0  0  0  0  0  0  0
  141.3790   72.6500  227.1850 F   0  0  0  0  0  0  0  0  0  0  0  0
  140.0970   70.4850  226.0740 C   0  0  0  0  0  0  0  0  0  0  0  0
  139.9671   71.4523  225.5665 H   0  0  0  0  0  0  0  0  0  0  0  0
  139.2870   69.3010  224.0000 C   0  0  0  0  0  0  0  0  0  0  0  0
  139.8793   68.7962  223.2226 H   0  0  0  0  0  0  0  0  0  0  0  0
  140.2040   72.5560  220.7640 C   0  0  0  0  0  0  0  0  0  0  0  0
  140.8874   71.6941  220.7661 H   0  0  0  0  0  0  0  0  0  0  0  0
  140.3064   73.1584  219.8493 H   0  0  0  0  0  0  0  0  0  0  0  0
  140.5550   73.4620  221.9530 C   0  0  0  0  0  0  0  0  0  0  0  0
  140.6594   72.8447  222.8575 H   0  0  0  0  0  0  0  0  0  0  0  0
  141.4985   73.9823  221.7315 H   0  0  0  0  0  0  0  0  0  0  0  0
  139.5340   74.4400  222.1690 O   0  0  0  0  0  0  0  0  0  0  0  0
  139.7320   75.8200  222.3470 C   0  0  0  0  0  0  0  0  0  0  0  0
  141.0070   76.4190  222.2870 C   0  0  0  0  0  0  0  0  0  0  0  0
  141.8935   75.7992  222.0872 H   0  0  0  0  0  0  0  0  0  0  0  0
  141.1510   77.7960  222.4800 C   0  0  0  0  0  0  0  0  0  0  0  0
  142.1502   78.2543  222.4404 H   0  0  0  0  0  0  0  0  0  0  0  0
  140.0290   78.5910  222.7230 C   0  0  0  0  0  0  0  0  0  0  0  0
  140.2140   80.3190  222.9640 Cl  0  0  0  0  0  0  0  0  0  0  0  0
  138.7590   78.0110  222.7680 C   0  0  0  0  0  0  0  0  0  0  0  0
  137.8751   78.6388  222.9539 H   0  0  0  0  0  0  0  0  0  0  0  0
  138.6090   76.6320  222.5770 C   0  0  0  0  0  0  0  0  0  0  0  0
  137.0000   75.9270  222.6480 Cl  0  0  0  0  0  0  0  0  0  0  0  0
  1  2  1  0
  2  3  1  0
  3  4  1  0
  4  5  1  0
  5  6  2  0
  6  7  1  0
  6  8  1  0
  8  9  2  0
  9 10  1  0
  9 11  1  0
 11 12  1  0
 11 13  2  0
 13 14  1  0
 13 15  1  0
 15 16  1  0
 16 17  1  0
 16 18  1  0
 16 19  1  0
 15 20  2  0
 20 21  1  0
  3 22  2  0
 22 23  1  0
 22 24  1  0
 24 25  1  0
 24 26  1  0
 24 27  1  0
 27 28  1  0
 27 29  1  0
 27 30  1  0
 30 31  1  0
 31 32  2  0
 32 33  1  0
 32 34  1  0
 34 35  1  0
 34 36  2  0
 36 37  1  0
 36 38  1  0
 38 39  1  0
 38 40  2  0
 40 41  1  0
 20  8  1  0
 40 31  1  0
M  CHG  1   4  -1
M  END
>  <UniqueID>  (25) 
18

>  <SMILES>  (25) 
O/C(=C/CCOc1ccc(Cl)cc1Cl)[N-]/N=C\c1cccc(C(F)(F)F)c1

>  <Energy>  (25) 
48.445992467673584

>  <Genealogy>  (25) 
O=C(CCCOc1ccc(Cl)cc1Cl)[N-]N=Cc1cccc(C(F)(F)F)c1 (protonated)
OC(=CCCOc1ccc(Cl)cc1Cl)[N-]N=Cc1cccc(C(F)(F)F)c1 (tautomer)
O/C(=C/CCOc1ccc(Cl)cc1Cl)[N-]/N=C\c1cccc(C(F)(F)F)c1 (cis-trans isomerization)
O/C(=C/CCOc1ccc(Cl)cc1Cl)[N-]/N=C\c1cccc(C(F)(F)F)c1 (3D coordinates assigned)
O/C(=C/CCOc1ccc(Cl)cc1Cl)[N-]/N=C\c1cccc(C(F)(F)F)c1 (optimized conformer: 48.445992467673584 kcal/mol)

>  <smiles>  (25) 
O=C(CCCOc1ccc(Cl)cc1Cl)NN=Cc1cccc(C(F)(F)F)c1

>  <score_type>  (25) 
oracle

>  <origin>  (25) 
autodockgpu

>  <m_score__min__energy>  (25) 
-7.2599999999999998

>  <m_primary>  (25) 
energy

>  <meeko>  (25) 
{"free_energy": -5.85, "intermolecular_energy": -9.13, "internal_energy": -1.43, "cluster_size": 1, "cluster_id": 7, "rank_in_cluster": 1}

>  <energy>  (25) 
-6.96

>  <cluster_rmsd>  (25) 
0.0

>  <rmsd>  (25) 
272.96

>  <cluster>  (25) 
2

$$$$
JBHRSOAXAGIKHA-SRRPOTTFNA-N
     RDKit          3D

 41 42  0  0  0  0  0  0  0  0999 V2000
  138.6530   73.0970  223.0940 H   0  0  0  0  0  0  0  0  0  0  0  0
  139.0430   73.6550  222.3430 O   0  0  0  0  0  0  0  0  0  0  0  0
  140.8980   72.3590  221.6660 C   0  0  0  0  0  0  0  0  0  0  0  0
  141.1270   74.7950  221.9150 N   0  0  0  0  0  0  0  0  0  0  0  0
  140.6160   76.0520  222.2660 N   0  0  0  0  0  0  0  0  0  0  0  0
  140.3850   73.5680  221.9710 C   0  0  0  0  0  0  0  0  0  0  0  0
  141.9721   72.2160  221.8551 H   0  0  0  0  0  0  0  0  0  0  0  0
  140.9810   78.4660  222.4740 C   0  0  0  0  0  0  0  0  0  0  0  0
  142.1620   79.1140  222.8610 C   0  0  0  0  0  0  0  0  0  0  0  0
  143.1360   78.6529  222.6402 H   0  0  0  0  0  0  0  0  0  0  0  0
  142.1100   80.3410  223.5250 C   0  0  0  0  0  0  0  0  0  0  0  0
  143.0424   80.8526  223.8057 H   0  0  0  0  0  0  0  0  0  0  0  0
  140.8770   80.9210  223.8340 C   0  0  0  0  0  0  0  0  0  0  0  0
  140.8429   81.8988  224.3368 H   0  0  0  0  0  0  0  0  0  0  0  0
  139.6810   80.2620  223.5060 C   0  0  0  0  0  0  0  0  0  0  0  0
  138.3460   80.8960  223.8140 C   0  0  0  0  0  0  0  0  0  0  0  0
  137.3170   80.0000  223.5850 F   0  0  0  0  0  0  0  0  0  0  0  0
  138.2850   81.2950  225.1380 F   0  0  0  0  0  0  0  0  0  0  0  0
  138.1720   82.0020  223.0030 F   0  0  0  0  0  0  0  0  0  0  0  0
  139.7410   79.0390  222.8130 C   0  0  0  0  0  0  0  0  0  0  0  0
  138.8093   78.5255  222.5333 H   0  0  0  0  0  0  0  0  0  0  0  0
  141.0730   77.1650  221.7760 C   0  0  0  0  0  0  0  0  0  0  0  0
  141.5549   77.1385  220.7876 H   0  0  0  0  0  0  0  0  0  0  0  0
  140.1500   71.1850  221.0930 C   0  0  0  0  0  0  0  0  0  0  0  0
  139.4763   71.5498  220.3036 H   0  0  0  0  0  0  0  0  0  0  0  0
  140.8963   70.4784  220.7011 H   0  0  0  0  0  0  0  0  0  0  0  0
  139.3150   70.4370  222.1420 C   0  0  0  0  0  0  0  0  0  0  0  0
  138.2677   70.3980  221.8078 H   0  0  0  0  0  0  0  0  0  0  0  0
  139.7203   69.4206  222.2544 H   0  0  0  0  0  0  0  0  0  0  0  0
  139.3780   71.0970  223.4090 O   0  0  0  0  0  0  0  0  0  0  0  0
  139.7820   70.5190  224.6250 C   0  0  0  0  0  0  0  0  0  0  0  0
  141.0240   70.8060  225.2270 C   0  0  0  0  0  0  0  0  0  0  0  0
  141.7161   71.5113  224.7438 H   0  0  0  0  0  0  0  0  0  0  0  0
  141.3810   70.1990  226.4350 C   0  0  0  0  0  0  0  0  0  0  0  0
  142.3553   70.4224  226.8942 H   0  0  0  0  0  0  0  0  0  0  0  0
  140.5040   69.3100  227.0600 C   0  0  0  0  0  0  0  0  0  0  0  0
  140.9570   68.5490  228.5750 Cl  0  0  0  0  0  0  0  0  0  0  0  0
  139.2640   69.0310  226.4800 C   0  0  0  0  0  0  0  0  0  0  0  0
  138.5712   68.3346  226.9750 H   0  0  0  0  0  0  0  0  0  0  0  0
  138.9010   69.6350  225.2710 C   0  0  0  0  0  0  0  0  0  0  0  0
  137.3380   69.2590  224.5600 Cl  0  0  0  0  0  0  0  0  0  0  0  0
  1  2  1  0
  2  3  1  0
  3  4  1  0
  4  5  1  0
  5  6  2  0
  6  7  1  0
  6  8  1  0
  8  9  2  0
  9 10  1  0
  9 11  1  0
 11 12  1  0
 11 13  2  0
 13 14  1  0
 13 15  1  0
 15 16  1  0
 16 17  1  0
 16 18  1  0
 16 19  1  0
 15 20  2  0
 20 21  1  0
  3 22  2  0
 22 23  1  0
 22 24  1  0
 24 25  1  0
 24 26  1  0
 24 27  1  0
 27 28  1  0
 27 29  1  0
 27 30  1  0
 30 31  1  0
 31 32  2  0
 32 33  1  0
 32 34  1  0
 34 35  1  0
 34 36  2  0
 36 37  1  0
 36 38  1  0
 38 39  1  0
 38 40  2  0
 40 41  1  0
 20  8  1  0
 40 31  1  0
M  CHG  1   4  -1
M  END
>  <UniqueID>  (26) 
18

>  <SMILES>  (26) 
O/C(=C/CCOc1ccc(Cl)cc1Cl)[N-]/N=C\c1cccc(C(F)(F)F)c1

>  <Energy>  (26) 
48.445992467673584

>  <Genealogy>  (26) 
O=C(CCCOc1ccc(Cl)cc1Cl)[N-]N=Cc1cccc(C(F)(F)F)c1 (protonated)
OC(=CCCOc1ccc(Cl)cc1Cl)[N-]N=Cc1cccc(C(F)(F)F)c1 (tautomer)
O/C(=C/CCOc1ccc(Cl)cc1Cl)[N-]/N=C\c1cccc(C(F)(F)F)c1 (cis-trans isomerization)
O/C(=C/CCOc1ccc(Cl)cc1Cl)[N-]/N=C\c1cccc(C(F)(F)F)c1 (3D coordinates assigned)
O/C(=C/CCOc1ccc(Cl)cc1Cl)[N-]/N=C\c1cccc(C(F)(F)F)c1 (optimized conformer: 48.445992467673584 kcal/mol)

>  <smiles>  (26) 
O=C(CCCOc1ccc(Cl)cc1Cl)NN=Cc1cccc(C(F)(F)F)c1

>  <score_type>  (26) 
oracle

>  <origin>  (26) 
autodockgpu

>  <m_score__min__energy>  (26) 
-7.2599999999999998

>  <m_primary>  (26) 
energy

>  <meeko>  (26) 
{"free_energy": -6.26, "intermolecular_energy": -9.54, "internal_energy": -1.14, "cluster_size": 2, "cluster_id": 6, "rank_in_cluster": 1}

>  <energy>  (26) 
-6.76

>  <cluster_rmsd>  (26) 
1.77

>  <rmsd>  (26) 
272.64

>  <cluster>  (26) 
2

$$$$
JBHRSOAXAGIKHA-SRRPOTTFNA-N
     RDKit          3D

 41 42  0  0  0  0  0  0  0  0999 V2000
  142.0740   76.3830  222.0890 H   0  0  0  0  0  0  0  0  0  0  0  0
  141.0930   76.2630  222.3150 O   0  0  0  0  0  0  0  0  0  0  0  0
  140.3400   75.1970  221.8220 C   0  0  0  0  0  0  0  0  0  0  0  0
  140.7670   73.8750  222.1810 N   0  0  0  0  0  0  0  0  0  0  0  0
  139.9270   72.8790  222.6970 N   0  0  0  0  0  0  0  0  0  0  0  0
  140.3320   71.6710  222.9500 C   0  0  0  0  0  0  0  0  0  0  0  0
  140.7713   71.0873  222.1276 H   0  0  0  0  0  0  0  0  0  0  0  0
  140.2350   71.0370  224.2830 C   0  0  0  0  0  0  0  0  0  0  0  0
  139.6430   69.7710  224.3910 C   0  0  0  0  0  0  0  0  0  0  0  0
  139.2643   69.2660  223.4901 H   0  0  0  0  0  0  0  0  0  0  0  0
  139.5310   69.1470  225.6350 C   0  0  0  0  0  0  0  0  0  0  0  0
  139.0839   68.1446  225.7076 H   0  0  0  0  0  0  0  0  0  0  0  0
  139.9850   69.7920  226.7870 C   0  0  0  0  0  0  0  0  0  0  0  0
  139.9157   69.2850  227.7607 H   0  0  0  0  0  0  0  0  0  0  0  0
  140.5300   71.0850  226.7100 C   0  0  0  0  0  0  0  0  0  0  0  0
  141.0450   71.7750  227.9490 C   0  0  0  0  0  0  0  0  0  0  0  0
  139.9940   72.2380  228.7210 F   0  0  0  0  0  0  0  0  0  0  0  0
  141.7970   70.9060  228.7200 F   0  0  0  0  0  0  0  0  0  0  0  0
  141.8370   72.8450  227.5750 F   0  0  0  0  0  0  0  0  0  0  0  0
  140.6640   71.6960  225.4500 C   0  0  0  0  0  0  0  0  0  0  0  0
  141.1088   72.6994  225.3762 H   0  0  0  0  0  0  0  0  0  0  0  0
  139.2830   75.4610  221.0270 C   0  0  0  0  0  0  0  0  0  0  0  0
  138.3620   75.7981  221.5250 H   0  0  0  0  0  0  0  0  0  0  0  0
  139.2360   75.3410  219.5270 C   0  0  0  0  0  0  0  0  0  0  0  0
  138.1835   75.3484  219.2074 H   0  0  0  0  0  0  0  0  0  0  0  0
  139.7970   76.1907  219.1108 H   0  0  0  0  0  0  0  0  0  0  0  0
  139.8960   74.0560  219.0080 C   0  0  0  0  0  0  0  0  0  0  0  0
  139.9292   73.3149  219.8202 H   0  0  0  0  0  0  0  0  0  0  0  0
  139.3045   73.6740  218.1629 H   0  0  0  0  0  0  0  0  0  0  0  0
  141.2280   74.3130  218.5540 O   0  0  0  0  0  0  0  0  0  0  0  0
  142.4110   74.0580  219.2690 C   0  0  0  0  0  0  0  0  0  0  0  0
  142.7640   72.7710  219.7200 C   0  0  0  0  0  0  0  0  0  0  0  0
  142.1030   71.9174  219.5090 H   0  0  0  0  0  0  0  0  0  0  0  0
  143.9490   72.5720  220.4340 C   0  0  0  0  0  0  0  0  0  0  0  0
  144.2121   71.5652  220.7905 H   0  0  0  0  0  0  0  0  0  0  0  0
  144.8000   73.6480  220.6960 C   0  0  0  0  0  0  0  0  0  0  0  0
  146.2870   73.3950  221.5920 Cl  0  0  0  0  0  0  0  0  0  0  0  0
  144.4680   74.9260  220.2380 C   0  0  0  0  0  0  0  0  0  0  0  0
  145.1406   75.7728  220.4393 H   0  0  0  0  0  0  0  0  0  0  0  0
  143.2820   75.1310  219.5240 C   0  0  0  0  0  0  0  0  0  0  0  0
  142.8860   76.7510  218.9680 Cl  0  0  0  0  0  0  0  0  0  0  0  0
  1  2  1  0
  2  3  1  0
  3  4  1  0
  4  5  1  0
  5  6  2  0
  6  7  1  0
  6  8  1  0
  8  9  2  0
  9 10  1  0
  9 11  1  0
 11 12  1  0
 11 13  2  0
 13 14  1  0
 13 15  1  0
 15 16  1  0
 16 17  1  0
 16 18  1  0
 16 19  1  0
 15 20  2  0
 20 21  1  0
  3 22  2  0
 22 23  1  0
 22 24  1  0
 24 25  1  0
 24 26  1  0
 24 27  1  0
 27 28  1  0
 27 29  1  0
 27 30  1  0
 30 31  1  0
 31 32  2  0
 32 33  1  0
 32 34  1  0
 34 35  1  0
 34 36  2  0
 36 37  1  0
 36 38  1  0
 38 39  1  0
 38 40  2  0
 40 41  1  0
 20  8  1  0
 40 31  1  0
M  CHG  1   4  -1
M  END
>  <UniqueID>  (27) 
18

>  <SMILES>  (27) 
O/C(=C/CCOc1ccc(Cl)cc1Cl)[N-]/N=C\c1cccc(C(F)(F)F)c1

>  <Energy>  (27) 
48.445992467673584

>  <Genealogy>  (27) 
O=C(CCCOc1ccc(Cl)cc1Cl)[N-]N=Cc1cccc(C(F)(F)F)c1 (protonated)
OC(=CCCOc1ccc(Cl)cc1Cl)[N-]N=Cc1cccc(C(F)(F)F)c1 (tautomer)
O/C(=C/CCOc1ccc(Cl)cc1Cl)[N-]/N=C\c1cccc(C(F)(F)F)c1 (cis-trans isomerization)
O/C(=C/CCOc1ccc(Cl)cc1Cl)[N-]/N=C\c1cccc(C(F)(F)F)c1 (3D coordinates assigned)
O/C(=C/CCOc1ccc(Cl)cc1Cl)[N-]/N=C\c1cccc(C(F)(F)F)c1 (optimized conformer: 48.445992467673584 kcal/mol)

>  <smiles>  (27) 
O=C(CCCOc1ccc(Cl)cc1Cl)NN=Cc1cccc(C(F)(F)F)c1

>  <score_type>  (27) 
oracle

>  <origin>  (27) 
autodockgpu

>  <m_score__min__energy>  (27) 
-7.2599999999999998

>  <m_primary>  (27) 
energy

>  <meeko>  (27) 
{"free_energy": -6.4, "intermolecular_energy": -9.68, "internal_energy": -1.39, "cluster_size": 2, "cluster_id": 4, "rank_in_cluster": 1}

>  <energy>  (27) 
-6.46

>  <cluster_rmsd>  (27) 
1.5

>  <rmsd>  (27) 
272.78

>  <cluster>  (27) 
2

$$$$
JBHRSOAXAGIKHA-SRRPOTTFNA-N
     RDKit          3D

 41 42  0  0  0  0  0  0  0  0999 V2000
  138.6280   74.5570  223.0950 H   0  0  0  0  0  0  0  0  0  0  0  0
  139.1300   75.0240  222.3490 O   0  0  0  0  0  0  0  0  0  0  0  0
  140.2160   74.4360  221.7010 C   0  0  0  0  0  0  0  0  0  0  0  0
  140.7670   73.2510  222.2940 N   0  0  0  0  0  0  0  0  0  0  0  0
  140.1970   72.5620  223.3740 N   0  0  0  0  0  0  0  0  0  0  0  0
  140.6690   71.4400  223.8280 C   0  0  0  0  0  0  0  0  0  0  0  0
  141.0191   70.6921  223.1013 H   0  0  0  0  0  0  0  0  0  0  0  0
  140.7620   71.1120  225.2670 C   0  0  0  0  0  0  0  0  0  0  0  0
  141.0350   72.1390  226.1810 C   0  0  0  0  0  0  0  0  0  0  0  0
  141.1729   73.1692  225.8208 H   0  0  0  0  0  0  0  0  0  0  0  0
  141.1330   71.8620  227.5460 C   0  0  0  0  0  0  0  0  0  0  0  0
  141.3264   72.6773  228.2587 H   0  0  0  0  0  0  0  0  0  0  0  0
  140.9860   70.5520  228.0090 C   0  0  0  0  0  0  0  0  0  0  0  0
  141.0413   70.3439  229.0877 H   0  0  0  0  0  0  0  0  0  0  0  0
  140.7680   69.4990  227.1050 C   0  0  0  0  0  0  0  0  0  0  0  0
  140.5830   68.0870  227.6030 C   0  0  0  0  0  0  0  0  0  0  0  0
  141.0600   67.9600  228.8960 F   0  0  0  0  0  0  0  0  0  0  0  0
  139.2440   67.7350  227.5990 F   0  0  0  0  0  0  0  0  0  0  0  0
  141.2770   67.2210  226.7790 F   0  0  0  0  0  0  0  0  0  0  0  0
  140.6440   69.7900  225.7340 C   0  0  0  0  0  0  0  0  0  0  0  0
  140.4528   68.9755  225.0198 H   0  0  0  0  0  0  0  0  0  0  0  0
  140.6990   75.0170  220.5840 C   0  0  0  0  0  0  0  0  0  0  0  0
  140.1172   74.8738  219.6615 H   0  0  0  0  0  0  0  0  0  0  0  0
  141.9540   75.8420  220.4710 C   0  0  0  0  0  0  0  0  0  0  0  0
  142.5647   75.6767  221.3708 H   0  0  0  0  0  0  0  0  0  0  0  0
  142.4765   75.5237  219.5568 H   0  0  0  0  0  0  0  0  0  0  0  0
  141.6720   77.3460  220.3400 C   0  0  0  0  0  0  0  0  0  0  0  0
  142.3652   77.7794  219.6040 H   0  0  0  0  0  0  0  0  0  0  0  0
  140.6303   77.4805  220.0133 H   0  0  0  0  0  0  0  0  0  0  0  0
  141.8460   78.0100  221.5940 O   0  0  0  0  0  0  0  0  0  0  0  0
  140.8450   78.6660  222.3310 C   0  0  0  0  0  0  0  0  0  0  0  0
  139.5050   78.2270  222.3520 C   0  0  0  0  0  0  0  0  0  0  0  0
  139.2130   77.3336  221.7806 H   0  0  0  0  0  0  0  0  0  0  0  0
  138.5460   78.9210  223.0950 C   0  0  0  0  0  0  0  0  0  0  0  0
  137.5012   78.5769  223.0993 H   0  0  0  0  0  0  0  0  0  0  0  0
  138.9100   80.0500  223.8320 C   0  0  0  0  0  0  0  0  0  0  0  0
  137.7030   80.9180  224.7630 Cl  0  0  0  0  0  0  0  0  0  0  0  0
  140.2390   80.4840  223.8310 C   0  0  0  0  0  0  0  0  0  0  0  0
  140.5274   81.3700  224.4157 H   0  0  0  0  0  0  0  0  0  0  0  0
  141.2030   79.7940  223.0880 C   0  0  0  0  0  0  0  0  0  0  0  0
  142.8650   80.3680  223.0990 Cl  0  0  0  0  0  0  0  0  0  0  0  0
  1  2  1  0
  2  3  1  0
  3  4  1  0
  4  5  1  0
  5  6  2  0
  6  7  1  0
  6  8  1  0
  8  9  2  0
  9 10  1  0
  9 11  1  0
 11 12  1  0
 11 13  2  0
 13 14  1  0
 13 15  1  0
 15 16  1  0
 16 17  1  0
 16 18  1  0
 16 19  1  0
 15 20  2  0
 20 21  1  0
  3 22  2  0
 22 23  1  0
 22 24  1  0
 24 25  1  0
 24 26  1  0
 24 27  1  0
 27 28  1  0
 27 29  1  0
 27 30  1  0
 30 31  1  0
 31 32  2  0
 32 33  1  0
 32 34  1  0
 34 35  1  0
 34 36  2  0
 36 37  1  0
 36 38  1  0
 38 39  1  0
 38 40  2  0
 40 41  1  0
 20  8  1  0
 40 31  1  0
M  CHG  1   4  -1
M  END
>  <UniqueID>  (28) 
18

>  <SMILES>  (28) 
O/C(=C/CCOc1ccc(Cl)cc1Cl)[N-]/N=C\c1cccc(C(F)(F)F)c1

>  <Energy>  (28) 
48.445992467673584

>  <Genealogy>  (28) 
O=C(CCCOc1ccc(Cl)cc1Cl)[N-]N=Cc1cccc(C(F)(F)F)c1 (protonated)
OC(=CCCOc1ccc(Cl)cc1Cl)[N-]N=Cc1cccc(C(F)(F)F)c1 (tautomer)
O/C(=C/CCOc1ccc(Cl)cc1Cl)[N-]/N=C\c1cccc(C(F)(F)F)c1 (cis-trans isomerization)
O/C(=C/CCOc1ccc(Cl)cc1Cl)[N-]/N=C\c1cccc(C(F)(F)F)c1 (3D coordinates assigned)
O/C(=C/CCOc1ccc(Cl)cc1Cl)[N-]/N=C\c1cccc(C(F)(F)F)c1 (optimized conformer: 48.445992467673584 kcal/mol)

>  <smiles>  (28) 
O=C(CCCOc1ccc(Cl)cc1Cl)NN=Cc1cccc(C(F)(F)F)c1

>  <score_type>  (28) 
oracle

>  <origin>  (28) 
autodockgpu

>  <m_score__min__energy>  (28) 
-7.2599999999999998

>  <m_primary>  (28) 
energy

>  <meeko>  (28) 
{"free_energy": -7.26, "intermolecular_energy": -10.54, "internal_energy": -0.94, "cluster_size": 4, "cluster_id": 1, "rank_in_cluster": 1}

>  <energy>  (28) 
-6.31

>  <cluster_rmsd>  (28) 
1.87

>  <rmsd>  (28) 
272.81

>  <cluster>  (28) 
2

$$$$
JBHRSOAXAGIKHA-SRRPOTTFNA-N
     RDKit          3D

 41 42  0  0  0  0  0  0  0  0999 V2000
  138.8820   74.6420  222.9540 H   0  0  0  0  0  0  0  0  0  0  0  0
  139.5290   75.1040  222.3270 O   0  0  0  0  0  0  0  0  0  0  0  0
  141.4680   75.1390  220.9780 C   0  0  0  0  0  0  0  0  0  0  0  0
  140.9450   73.1490  222.3260 N   0  0  0  0  0  0  0  0  0  0  0  0
  140.1350   72.4530  223.2340 N   0  0  0  0  0  0  0  0  0  0  0  0
  140.6750   74.4730  221.8420 C   0  0  0  0  0  0  0  0  0  0  0  0
  142.5448   75.1485  221.2028 H   0  0  0  0  0  0  0  0  0  0  0  0
  140.6100   71.0320  225.1730 C   0  0  0  0  0  0  0  0  0  0  0  0
  140.9890   72.0850  226.0170 C   0  0  0  0  0  0  0  0  0  0  0  0
  141.1623   73.0868  225.5971 H   0  0  0  0  0  0  0  0  0  0  0  0
  141.1480   71.8700  227.3880 C   0  0  0  0  0  0  0  0  0  0  0  0
  141.4250   72.7067  228.0462 H   0  0  0  0  0  0  0  0  0  0  0  0
  140.9560   70.5950  227.9250 C   0  0  0  0  0  0  0  0  0  0  0  0
  141.0592   70.4372  229.0087 H   0  0  0  0  0  0  0  0  0  0  0  0
  140.6320   69.5130  227.0900 C   0  0  0  0  0  0  0  0  0  0  0  0
  140.3990   68.1400  227.6690 C   0  0  0  0  0  0  0  0  0  0  0  0
  139.1900   67.6260  227.2340 F   0  0  0  0  0  0  0  0  0  0  0  0
  141.4020   67.2660  227.2850 F   0  0  0  0  0  0  0  0  0  0  0  0
  140.3820   68.2260  229.0480 F   0  0  0  0  0  0  0  0  0  0  0  0
  140.4470   69.7430  225.7140 C   0  0  0  0  0  0  0  0  0  0  0  0
  140.1722   68.9066  225.0545 H   0  0  0  0  0  0  0  0  0  0  0  0
  140.4560   71.2940  223.7260 C   0  0  0  0  0  0  0  0  0  0  0  0
  140.6225   70.4612  223.0269 H   0  0  0  0  0  0  0  0  0  0  0  0
  141.0300   75.8710  219.7370 C   0  0  0  0  0  0  0  0  0  0  0  0
  141.6756   76.7514  219.6025 H   0  0  0  0  0  0  0  0  0  0  0  0
  141.1130   75.1698  218.8936 H   0  0  0  0  0  0  0  0  0  0  0  0
  139.5700   76.3400  219.8040 C   0  0  0  0  0  0  0  0  0  0  0  0
  139.0908   76.1654  218.8294 H   0  0  0  0  0  0  0  0  0  0  0  0
  139.0551   75.7726  220.5932 H   0  0  0  0  0  0  0  0  0  0  0  0
  139.4940   77.7330  220.1200 O   0  0  0  0  0  0  0  0  0  0  0  0
  140.2920   78.4150  221.0540 C   0  0  0  0  0  0  0  0  0  0  0  0
  140.1190   78.2770  222.4460 C   0  0  0  0  0  0  0  0  0  0  0  0
  139.3378   77.6080  222.8360 H   0  0  0  0  0  0  0  0  0  0  0  0
  140.9340   78.9850  223.3340 C   0  0  0  0  0  0  0  0  0  0  0  0
  140.7865   78.8778  224.4188 H   0  0  0  0  0  0  0  0  0  0  0  0
  141.9350   79.8280  222.8470 C   0  0  0  0  0  0  0  0  0  0  0  0
  142.9570   80.7150  223.9650 Cl  0  0  0  0  0  0  0  0  0  0  0  0
  142.1260   79.9610  221.4690 C   0  0  0  0  0  0  0  0  0  0  0  0
  142.9175   80.6217  221.0856 H   0  0  0  0  0  0  0  0  0  0  0  0
  141.3120   79.2550  220.5760 C   0  0  0  0  0  0  0  0  0  0  0  0
  141.5690   79.4470  218.8480 Cl  0  0  0  0  0  0  0  0  0  0  0  0
  1  2  1  0
  2  3  1  0
  3  4  1  0
  4  5  1  0
  5  6  2  0
  6  7  1  0
  6  8  1  0
  8  9  2  0
  9 10  1  0
  9 11  1  0
 11 12  1  0
 11 13  2  0
 13 14  1  0
 13 15  1  0
 15 16  1  0
 16 17  1  0
 16 18  1  0
 16 19  1  0
 15 20  2  0
 20 21  1  0
  3 22  2  0
 22 23  1  0
 22 24  1  0
 24 25  1  0
 24 26  1  0
 24 27  1  0
 27 28  1  0
 27 29  1  0
 27 30  1  0
 30 31  1  0
 31 32  2  0
 32 33  1  0
 32 34  1  0
 34 35  1  0
 34 36  2  0
 36 37  1  0
 36 38  1  0
 38 39  1  0
 38 40  2  0
 40 41  1  0
 20  8  1  0
 40 31  1  0
M  CHG  1   4  -1
M  END
>  <UniqueID>  (29) 
18

>  <SMILES>  (29) 
O/C(=C/CCOc1ccc(Cl)cc1Cl)[N-]/N=C\c1cccc(C(F)(F)F)c1

>  <Energy>  (29) 
48.445992467673584

>  <Genealogy>  (29) 
O=C(CCCOc1ccc(Cl)cc1Cl)[N-]N=Cc1cccc(C(F)(F)F)c1 (protonated)
OC(=CCCOc1ccc(Cl)cc1Cl)[N-]N=Cc1cccc(C(F)(F)F)c1 (tautomer)
O/C(=C/CCOc1ccc(Cl)cc1Cl)[N-]/N=C\c1cccc(C(F)(F)F)c1 (cis-trans isomerization)
O/C(=C/CCOc1ccc(Cl)cc1Cl)[N-]/N=C\c1cccc(C(F)(F)F)c1 (3D coordinates assigned)
O/C(=C/CCOc1ccc(Cl)cc1Cl)[N-]/N=C\c1cccc(C(F)(F)F)c1 (optimized conformer: 48.445992467673584 kcal/mol)

>  <smiles>  (29) 
O=C(CCCOc1ccc(Cl)cc1Cl)NN=Cc1cccc(C(F)(F)F)c1

>  <score_type>  (29) 
oracle

>  <origin>  (29) 
autodockgpu

>  <m_score__min__energy>  (29) 
-7.2599999999999998

>  <m_primary>  (29) 
energy

>  <meeko>  (29) 
{"free_energy": -6.76, "intermolecular_energy": -10.04, "internal_energy": -1.11, "cluster_size": 4, "cluster_id": 1, "rank_in_cluster": 3}

>  <energy>  (29) 
-6.31

>  <cluster_rmsd>  (29) 
1.43

>  <rmsd>  (29) 
272.77

>  <cluster>  (29) 
2

$$$$
JBHRSOAXAGIKHA-SRRPOTTFNA-N
     RDKit          3D

 41 42  0  0  0  0  0  0  0  0999 V2000
  142.0020   76.1420  221.9980 H   0  0  0  0  0  0  0  0  0  0  0  0
  141.5200   75.3560  221.5770 O   0  0  0  0  0  0  0  0  0  0  0  0
  139.3150   75.9300  222.1990 C   0  0  0  0  0  0  0  0  0  0  0  0
  139.9800   73.5650  222.0750 N   0  0  0  0  0  0  0  0  0  0  0  0
  140.6640   72.6930  222.9330 N   0  0  0  0  0  0  0  0  0  0  0  0
  140.2370   74.9730  221.9690 C   0  0  0  0  0  0  0  0  0  0  0  0
  138.2961   75.5880  222.4332 H   0  0  0  0  0  0  0  0  0  0  0  0
  140.3640   71.0880  224.7610 C   0  0  0  0  0  0  0  0  0  0  0  0
  140.9210   71.9460  225.7190 C   0  0  0  0  0  0  0  0  0  0  0  0
  141.1825   72.9780  225.4423 H   0  0  0  0  0  0  0  0  0  0  0  0
  141.1460   71.4990  227.0220 C   0  0  0  0  0  0  0  0  0  0  0  0
  141.5631   72.1859  227.7731 H   0  0  0  0  0  0  0  0  0  0  0  0
  140.8430   70.1820  227.3750 C   0  0  0  0  0  0  0  0  0  0  0  0
  141.0013   69.8427  228.4093 H   0  0  0  0  0  0  0  0  0  0  0  0
  140.3370   69.2880  226.4160 C   0  0  0  0  0  0  0  0  0  0  0  0
  139.9840   67.8720  226.7990 C   0  0  0  0  0  0  0  0  0  0  0  0
  138.8650   67.4450  226.1040 F   0  0  0  0  0  0  0  0  0  0  0  0
  141.0270   67.0090  226.5100 F   0  0  0  0  0  0  0  0  0  0  0  0
  139.7200   67.8210  228.1540 F   0  0  0  0  0  0  0  0  0  0  0  0
  140.0870   69.7540  225.1120 C   0  0  0  0  0  0  0  0  0  0  0  0
  139.6707   69.0683  224.3593 H   0  0  0  0  0  0  0  0  0  0  0  0
  140.1430   71.5930  223.3880 C   0  0  0  0  0  0  0  0  0  0  0  0
  139.5021   71.0046  222.7150 H   0  0  0  0  0  0  0  0  0  0  0  0
  139.5380   77.4190  222.1680 C   0  0  0  0  0  0  0  0  0  0  0  0
  139.7583   77.7192  221.1330 H   0  0  0  0  0  0  0  0  0  0  0  0
  138.6231   77.8973  222.5476 H   0  0  0  0  0  0  0  0  0  0  0  0
  140.6990   77.8690  223.0660 C   0  0  0  0  0  0  0  0  0  0  0  0
  140.3680   78.7159  223.6850 H   0  0  0  0  0  0  0  0  0  0  0  0
  141.0000   77.0228  223.7011 H   0  0  0  0  0  0  0  0  0  0  0  0
  141.8240   78.2740  222.2820 O   0  0  0  0  0  0  0  0  0  0  0  0
  141.8210   79.2490  221.2700 C   0  0  0  0  0  0  0  0  0  0  0  0
  141.8110   78.9230  219.8990 C   0  0  0  0  0  0  0  0  0  0  0  0
  141.7992   77.8678  219.5883 H   0  0  0  0  0  0  0  0  0  0  0  0
  141.8160   79.9320  218.9310 C   0  0  0  0  0  0  0  0  0  0  0  0
  141.8152   79.6681  217.8631 H   0  0  0  0  0  0  0  0  0  0  0  0
  141.8220   81.2740  219.3170 C   0  0  0  0  0  0  0  0  0  0  0  0
  141.8300   82.5370  218.1000 Cl  0  0  0  0  0  0  0  0  0  0  0  0
  141.8170   81.6090  220.6740 C   0  0  0  0  0  0  0  0  0  0  0  0
  141.8170   82.6662  220.9780 H   0  0  0  0  0  0  0  0  0  0  0  0
  141.8120   80.6030  221.6470 C   0  0  0  0  0  0  0  0  0  0  0  0
  141.8130   81.0540  223.3450 Cl  0  0  0  0  0  0  0  0  0  0  0  0
  1  2  1  0
  2  3  1  0
  3  4  1  0
  4  5  1  0
  5  6  2  0
  6  7  1  0
  6  8  1  0
  8  9  2  0
  9 10  1  0
  9 11  1  0
 11 12  1  0
 11 13  2  0
 13 14  1  0
 13 15  1  0
 15 16  1  0
 16 17  1  0
 16 18  1  0
 16 19  1  0
 15 20  2  0
 20 21  1  0
  3 22  2  0
 22 23  1  0
 22 24  1  0
 24 25  1  0
 24 26  1  0
 24 27  1  0
 27 28  1  0
 27 29  1  0
 27 30  1  0
 30 31  1  0
 31 32  2  0
 32 33  1  0
 32 34  1  0
 34 35  1  0
 34 36  2  0
 36 37  1  0
 36 38  1  0
 38 39  1  0
 38 40  2  0
 40 41  1  0
 20  8  1  0
 40 31  1  0
M  CHG  1   4  -1
M  END
>  <UniqueID>  (30) 
18

>  <SMILES>  (30) 
O/C(=C/CCOc1ccc(Cl)cc1Cl)[N-]/N=C\c1cccc(C(F)(F)F)c1

>  <Energy>  (30) 
48.445992467673584

>  <Genealogy>  (30) 
O=C(CCCOc1ccc(Cl)cc1Cl)[N-]N=Cc1cccc(C(F)(F)F)c1 (protonated)
OC(=CCCOc1ccc(Cl)cc1Cl)[N-]N=Cc1cccc(C(F)(F)F)c1 (tautomer)
O/C(=C/CCOc1ccc(Cl)cc1Cl)[N-]/N=C\c1cccc(C(F)(F)F)c1 (cis-trans isomerization)
O/C(=C/CCOc1ccc(Cl)cc1Cl)[N-]/N=C\c1cccc(C(F)(F)F)c1 (3D coordinates assigned)
O/C(=C/CCOc1ccc(Cl)cc1Cl)[N-]/N=C\c1cccc(C(F)(F)F)c1 (optimized conformer: 48.445992467673584 kcal/mol)

>  <smiles>  (30) 
O=C(CCCOc1ccc(Cl)cc1Cl)NN=Cc1cccc(C(F)(F)F)c1

>  <score_type>  (30) 
oracle

>  <origin>  (30) 
autodockgpu

>  <m_score__min__energy>  (30) 
-7.2599999999999998

>  <m_primary>  (30) 
energy

>  <meeko>  (30) 
{"free_energy": -6.39, "intermolecular_energy": -9.67, "internal_energy": -1.28, "cluster_size": 1, "cluster_id": 5, "rank_in_cluster": 1}

>  <energy>  (30) 
-6.29

>  <cluster_rmsd>  (30) 
1.98

>  <rmsd>  (30) 
272.64

>  <cluster>  (30) 
2

$$$$
JBHRSOAXAGIKHA-SRRPOTTFNA-N
     RDKit          3D

 41 42  0  0  0  0  0  0  0  0999 V2000
  137.7160   74.1830  222.8520 H   0  0  0  0  0  0  0  0  0  0  0  0
  137.9830   74.4090  221.9000 O   0  0  0  0  0  0  0  0  0  0  0  0
  139.2450   74.1070  221.3890 C   0  0  0  0  0  0  0  0  0  0  0  0
  140.2880   73.8420  222.3390 N   0  0  0  0  0  0  0  0  0  0  0  0
  140.7510   72.5620  222.6760 N   0  0  0  0  0  0  0  0  0  0  0  0
  139.9600   71.5870  223.0100 C   0  0  0  0  0  0  0  0  0  0  0  0
  139.2349   71.2274  222.2651 H   0  0  0  0  0  0  0  0  0  0  0  0
  139.9810   70.9340  224.3370 C   0  0  0  0  0  0  0  0  0  0  0  0
  139.4740   69.6320  224.4600 C   0  0  0  0  0  0  0  0  0  0  0  0
  139.0736   69.1148  223.5756 H   0  0  0  0  0  0  0  0  0  0  0  0
  139.4750   68.9890  225.7000 C   0  0  0  0  0  0  0  0  0  0  0  0
  139.0965   67.9596  225.7842 H   0  0  0  0  0  0  0  0  0  0  0  0
  139.9550   69.6490  226.8330 C   0  0  0  0  0  0  0  0  0  0  0  0
  139.9732   69.1287  227.8020 H   0  0  0  0  0  0  0  0  0  0  0  0
  140.4150   70.9740  226.7430 C   0  0  0  0  0  0  0  0  0  0  0  0
  140.9590   71.6810  227.9590 C   0  0  0  0  0  0  0  0  0  0  0  0
  141.8030   72.7130  227.5860 F   0  0  0  0  0  0  0  0  0  0  0  0
  139.9320   72.2170  228.7180 F   0  0  0  0  0  0  0  0  0  0  0  0
  141.6640   70.7780  228.7320 F   0  0  0  0  0  0  0  0  0  0  0  0
  140.4360   71.6060  225.4860 C   0  0  0  0  0  0  0  0  0  0  0  0
  140.8121   72.6362  225.4009 H   0  0  0  0  0  0  0  0  0  0  0  0
  139.4220   74.1050  220.0520 C   0  0  0  0  0  0  0  0  0  0  0  0
  138.6827   73.5490  219.4568 H   0  0  0  0  0  0  0  0  0  0  0  0
  140.5280   74.7860  219.2910 C   0  0  0  0  0  0  0  0  0  0  0  0
  141.1714   74.0150  218.8421 H   0  0  0  0  0  0  0  0  0  0  0  0
  140.0588   75.4236  218.5273 H   0  0  0  0  0  0  0  0  0  0  0  0
  141.3950   75.6920  220.1780 C   0  0  0  0  0  0  0  0  0  0  0  0
  141.5823   75.1852  221.1362 H   0  0  0  0  0  0  0  0  0  0  0  0
  142.3429   75.8909  219.6566 H   0  0  0  0  0  0  0  0  0  0  0  0
  140.7410   76.9390  220.4280 O   0  0  0  0  0  0  0  0  0  0  0  0
  141.1580   77.9260  221.3370 C   0  0  0  0  0  0  0  0  0  0  0  0
  141.0720   77.7580  222.7340 C   0  0  0  0  0  0  0  0  0  0  0  0
  140.6707   76.8216  223.1487 H   0  0  0  0  0  0  0  0  0  0  0  0
  141.4940   78.7750  223.5950 C   0  0  0  0  0  0  0  0  0  0  0  0
  141.4156   78.6394  224.6838 H   0  0  0  0  0  0  0  0  0  0  0  0
  142.0150   79.9630  223.0770 C   0  0  0  0  0  0  0  0  0  0  0  0
  142.5430   81.2370  224.1620 Cl  0  0  0  0  0  0  0  0  0  0  0  0
  142.1200   80.1330  221.6940 C   0  0  0  0  0  0  0  0  0  0  0  0
  142.5347   81.0665  221.2860 H   0  0  0  0  0  0  0  0  0  0  0  0
  141.6990   79.1190  220.8270 C   0  0  0  0  0  0  0  0  0  0  0  0
  141.8350   79.3640  219.0920 Cl  0  0  0  0  0  0  0  0  0  0  0  0
  1  2  1  0
  2  3  1  0
  3  4  1  0
  4  5  1  0
  5  6  2  0
  6  7  1  0
  6  8  1  0
  8  9  2  0
  9 10  1  0
  9 11  1  0
 11 12  1  0
 11 13  2  0
 13 14  1  0
 13 15  1  0
 15 16  1  0
 16 17  1  0
 16 18  1  0
 16 19  1  0
 15 20  2  0
 20 21  1  0
  3 22  2  0
 22 23  1  0
 22 24  1  0
 24 25  1  0
 24 26  1  0
 24 27  1  0
 27 28  1  0
 27 29  1  0
 27 30  1  0
 30 31  1  0
 31 32  2  0
 32 33  1  0
 32 34  1  0
 34 35  1  0
 34 36  2  0
 36 37  1  0
 36 38  1  0
 38 39  1  0
 38 40  2  0
 40 41  1  0
 20  8  1  0
 40 31  1  0
M  CHG  1   4  -1
M  END
>  <UniqueID>  (31) 
18

>  <SMILES>  (31) 
O/C(=C/CCOc1ccc(Cl)cc1Cl)[N-]/N=C\c1cccc(C(F)(F)F)c1

>  <Energy>  (31) 
48.445992467673584

>  <Genealogy>  (31) 
O=C(CCCOc1ccc(Cl)cc1Cl)[N-]N=Cc1cccc(C(F)(F)F)c1 (protonated)
OC(=CCCOc1ccc(Cl)cc1Cl)[N-]N=Cc1cccc(C(F)(F)F)c1 (tautomer)
O/C(=C/CCOc1ccc(Cl)cc1Cl)[N-]/N=C\c1cccc(C(F)(F)F)c1 (cis-trans isomerization)
O/C(=C/CCOc1ccc(Cl)cc1Cl)[N-]/N=C\c1cccc(C(F)(F)F)c1 (3D coordinates assigned)
O/C(=C/CCOc1ccc(Cl)cc1Cl)[N-]/N=C\c1cccc(C(F)(F)F)c1 (optimized conformer: 48.445992467673584 kcal/mol)

>  <smiles>  (31) 
O=C(CCCOc1ccc(Cl)cc1Cl)NN=Cc1cccc(C(F)(F)F)c1

>  <score_type>  (31) 
oracle

>  <origin>  (31) 
autodockgpu

>  <m_score__min__energy>  (31) 
-7.2599999999999998

>  <m_primary>  (31) 
energy

>  <meeko>  (31) 
{"free_energy": -6.76, "intermolecular_energy": -10.04, "internal_energy": -0.69, "cluster_size": 6, "cluster_id": 2, "rank_in_cluster": 2}

>  <energy>  (31) 
-6.52

>  <cluster_rmsd>  (31) 
0.0

>  <rmsd>  (31) 
272.7

>  <cluster>  (31) 
3

$$$$
JBHRSOAXAGIKHA-SRRPOTTFNA-N
     RDKit          3D

 41 42  0  0  0  0  0  0  0  0999 V2000
  142.0640   76.3950  222.3550 H   0  0  0  0  0  0  0  0  0  0  0  0
  141.1020   76.3800  222.6770 O   0  0  0  0  0  0  0  0  0  0  0  0
  140.1010   75.6850  221.9980 C   0  0  0  0  0  0  0  0  0  0  0  0
  140.2840   74.2710  221.8360 N   0  0  0  0  0  0  0  0  0  0  0  0
  139.7870   73.2980  222.7140 N   0  0  0  0  0  0  0  0  0  0  0  0
  140.4210   72.1960  222.9820 C   0  0  0  0  0  0  0  0  0  0  0  0
  141.1612   71.8320  222.2543 H   0  0  0  0  0  0  0  0  0  0  0  0
  140.2020   71.4040  224.2120 C   0  0  0  0  0  0  0  0  0  0  0  0
  139.4800   70.2050  224.1280 C   0  0  0  0  0  0  0  0  0  0  0  0
  139.0911   69.8675  223.1560 H   0  0  0  0  0  0  0  0  0  0  0  0
  139.2520   69.4370  225.2720 C   0  0  0  0  0  0  0  0  0  0  0  0
  138.7018   68.4877  225.1942 H   0  0  0  0  0  0  0  0  0  0  0  0
  139.7200   69.8700  226.5140 C   0  0  0  0  0  0  0  0  0  0  0  0
  139.5579   69.2481  227.4067 H   0  0  0  0  0  0  0  0  0  0  0  0
  140.3970   71.0960  226.6300 C   0  0  0  0  0  0  0  0  0  0  0  0
  140.9260   71.5560  227.9660 C   0  0  0  0  0  0  0  0  0  0  0  0
  139.8960   72.0200  228.7650 F   0  0  0  0  0  0  0  0  0  0  0  0
  141.5540   70.5170  228.6310 F   0  0  0  0  0  0  0  0  0  0  0  0
  141.8370   72.5760  227.7660 F   0  0  0  0  0  0  0  0  0  0  0  0
  140.6460   71.8520  225.4700 C   0  0  0  0  0  0  0  0  0  0  0  0
  141.1933   72.8030  225.5471 H   0  0  0  0  0  0  0  0  0  0  0  0
  139.0450   76.3710  221.5170 C   0  0  0  0  0  0  0  0  0  0  0  0
  139.2379   77.0425  220.6674 H   0  0  0  0  0  0  0  0  0  0  0  0
  137.6280   76.3120  222.0240 C   0  0  0  0  0  0  0  0  0  0  0  0
  137.5618   76.9023  222.9498 H   0  0  0  0  0  0  0  0  0  0  0  0
  136.9779   76.7152  221.2336 H   0  0  0  0  0  0  0  0  0  0  0  0
  137.1580   74.8810  222.3210 C   0  0  0  0  0  0  0  0  0  0  0  0
  136.8266   74.4091  221.3843 H   0  0  0  0  0  0  0  0  0  0  0  0
  137.9966   74.3194  222.7586 H   0  0  0  0  0  0  0  0  0  0  0  0
  136.0740   74.8830  223.2530 O   0  0  0  0  0  0  0  0  0  0  0  0
  135.5960   73.7730  223.9710 C   0  0  0  0  0  0  0  0  0  0  0  0
  135.9320   72.4470  223.6330 C   0  0  0  0  0  0  0  0  0  0  0  0
  136.5976   72.2522  222.7792 H   0  0  0  0  0  0  0  0  0  0  0  0
  135.4240   71.3770  224.3770 C   0  0  0  0  0  0  0  0  0  0  0  0
  135.6854   70.3445  224.1019 H   0  0  0  0  0  0  0  0  0  0  0  0
  134.5860   71.6160  225.4680 C   0  0  0  0  0  0  0  0  0  0  0  0
  133.9500   70.2720  226.3980 Cl  0  0  0  0  0  0  0  0  0  0  0  0
  134.2600   72.9280  225.8220 C   0  0  0  0  0  0  0  0  0  0  0  0
  133.6048   73.1165  226.6852 H   0  0  0  0  0  0  0  0  0  0  0  0
  134.7650   74.0030  225.0810 C   0  0  0  0  0  0  0  0  0  0  0  0
  134.3310   75.6420  225.5440 Cl  0  0  0  0  0  0  0  0  0  0  0  0
  1  2  1  0
  2  3  1  0
  3  4  1  0
  4  5  1  0
  5  6  2  0
  6  7  1  0
  6  8  1  0
  8  9  2  0
  9 10  1  0
  9 11  1  0
 11 12  1  0
 11 13  2  0
 13 14  1  0
 13 15  1  0
 15 16  1  0
 16 17  1  0
 16 18  1  0
 16 19  1  0
 15 20  2  0
 20 21  1  0
  3 22  2  0
 22 23  1  0
 22 24  1  0
 24 25  1  0
 24 26  1  0
 24 27  1  0
 27 28  1  0
 27 29  1  0
 27 30  1  0
 30 31  1  0
 31 32  2  0
 32 33  1  0
 32 34  1  0
 34 35  1  0
 34 36  2  0
 36 37  1  0
 36 38  1  0
 38 39  1  0
 38 40  2  0
 40 41  1  0
 20  8  1  0
 40 31  1  0
M  CHG  1   4  -1
M  END
>  <UniqueID>  (32) 
18

>  <SMILES>  (32) 
O/C(=C/CCOc1ccc(Cl)cc1Cl)[N-]/N=C\c1cccc(C(F)(F)F)c1

>  <Energy>  (32) 
48.445992467673584

>  <Genealogy>  (32) 
O=C(CCCOc1ccc(Cl)cc1Cl)[N-]N=Cc1cccc(C(F)(F)F)c1 (protonated)
OC(=CCCOc1ccc(Cl)cc1Cl)[N-]N=Cc1cccc(C(F)(F)F)c1 (tautomer)
O/C(=C/CCOc1ccc(Cl)cc1Cl)[N-]/N=C\c1cccc(C(F)(F)F)c1 (cis-trans isomerization)
O/C(=C/CCOc1ccc(Cl)cc1Cl)[N-]/N=C\c1cccc(C(F)(F)F)c1 (3D coordinates assigned)
O/C(=C/CCOc1ccc(Cl)cc1Cl)[N-]/N=C\c1cccc(C(F)(F)F)c1 (optimized conformer: 48.445992467673584 kcal/mol)

>  <smiles>  (32) 
O=C(CCCOc1ccc(Cl)cc1Cl)NN=Cc1cccc(C(F)(F)F)c1

>  <score_type>  (32) 
oracle

>  <origin>  (32) 
autodockgpu

>  <m_score__min__energy>  (32) 
-7.2599999999999998

>  <m_primary>  (32) 
energy

>  <meeko>  (32) 
{"free_energy": -5.6, "intermolecular_energy": -8.88, "internal_energy": -1.21, "cluster_size": 1, "cluster_id": 8, "rank_in_cluster": 1}

>  <energy>  (32) 
-6.48

>  <cluster_rmsd>  (32) 
0.31

>  <rmsd>  (32) 
272.75

>  <cluster>  (32) 
3

$$$$
JBHRSOAXAGIKHA-SRRPOTTFNA-N
     RDKit          3D

 41 42  0  0  0  0  0  0  0  0999 V2000
  141.8510   76.0040  222.1870 H   0  0  0  0  0  0  0  0  0  0  0  0
  141.1050   75.6830  221.5810 O   0  0  0  0  0  0  0  0  0  0  0  0
  138.9540   76.2800  222.3550 C   0  0  0  0  0  0  0  0  0  0  0  0
  139.5970   73.9100  222.2220 N   0  0  0  0  0  0  0  0  0  0  0  0
  140.4930   72.9940  222.7900 N   0  0  0  0  0  0  0  0  0  0  0  0
  139.8530   75.3150  222.0730 C   0  0  0  0  0  0  0  0  0  0  0  0
  138.9503   76.6664  223.3849 H   0  0  0  0  0  0  0  0  0  0  0  0
  140.1640   71.0290  224.2180 C   0  0  0  0  0  0  0  0  0  0  0  0
  139.6030   69.7460  224.2740 C   0  0  0  0  0  0  0  0  0  0  0  0
  139.2219   69.2753  223.3557 H   0  0  0  0  0  0  0  0  0  0  0  0
  139.5250   69.0620  225.4880 C   0  0  0  0  0  0  0  0  0  0  0  0
  139.1022   68.0470  225.5190 H   0  0  0  0  0  0  0  0  0  0  0  0
  139.9820   69.6620  226.6640 C   0  0  0  0  0  0  0  0  0  0  0  0
  139.9398   69.1079  227.6133 H   0  0  0  0  0  0  0  0  0  0  0  0
  140.4950   70.9690  226.6400 C   0  0  0  0  0  0  0  0  0  0  0  0
  141.0140   71.6120  227.9030 C   0  0  0  0  0  0  0  0  0  0  0  0
  139.9670   72.0920  228.6710 F   0  0  0  0  0  0  0  0  0  0  0  0
  141.7250   70.7000  228.6640 F   0  0  0  0  0  0  0  0  0  0  0  0
  141.8460   72.6640  227.5680 F   0  0  0  0  0  0  0  0  0  0  0  0
  140.5960   71.6430  225.4090 C   0  0  0  0  0  0  0  0  0  0  0  0
  141.0164   72.6590  225.3769 H   0  0  0  0  0  0  0  0  0  0  0  0
  140.2270   71.7280  222.9160 C   0  0  0  0  0  0  0  0  0  0  0  0
  140.0382   71.1437  222.0033 H   0  0  0  0  0  0  0  0  0  0  0  0
  137.9550   76.8820  221.4030 C   0  0  0  0  0  0  0  0  0  0  0  0
  137.1491   76.1528  221.2332 H   0  0  0  0  0  0  0  0  0  0  0  0
  137.5803   77.8088  221.8620 H   0  0  0  0  0  0  0  0  0  0  0  0
  138.5690   77.2570  220.0470 C   0  0  0  0  0  0  0  0  0  0  0  0
  139.3938   76.5649  219.8217 H   0  0  0  0  0  0  0  0  0  0  0  0
  137.7869   77.1876  219.2766 H   0  0  0  0  0  0  0  0  0  0  0  0
  139.0730   78.5950  220.0660 O   0  0  0  0  0  0  0  0  0  0  0  0
  139.9300   79.1440  221.0350 C   0  0  0  0  0  0  0  0  0  0  0  0
  139.4580   79.9020  222.1250 C   0  0  0  0  0  0  0  0  0  0  0  0
  138.3783   80.0762  222.2433 H   0  0  0  0  0  0  0  0  0  0  0  0
  140.3540   80.4340  223.0570 C   0  0  0  0  0  0  0  0  0  0  0  0
  139.9780   81.0320  223.9002 H   0  0  0  0  0  0  0  0  0  0  0  0
  141.7250   80.2080  222.9200 C   0  0  0  0  0  0  0  0  0  0  0  0
  142.8470   80.8780  224.0920 Cl  0  0  0  0  0  0  0  0  0  0  0  0
  142.2030   79.4450  221.8520 C   0  0  0  0  0  0  0  0  0  0  0  0
  143.2828   79.2635  221.7472 H   0  0  0  0  0  0  0  0  0  0  0  0
  141.3110   78.9110  220.9150 C   0  0  0  0  0  0  0  0  0  0  0  0
  141.9400   77.9620  219.5760 Cl  0  0  0  0  0  0  0  0  0  0  0  0
  1  2  1  0
  2  3  1  0
  3  4  1  0
  4  5  1  0
  5  6  2  0
  6  7  1  0
  6  8  1  0
  8  9  2  0
  9 10  1  0
  9 11  1  0
 11 12  1  0
 11 13  2  0
 13 14  1  0
 13 15  1  0
 15 16  1  0
 16 17  1  0
 16 18  1  0
 16 19  1  0
 15 20  2  0
 20 21  1  0
  3 22  2  0
 22 23  1  0
 22 24  1  0
 24 25  1  0
 24 26  1  0
 24 27  1  0
 27 28  1  0
 27 29  1  0
 27 30  1  0
 30 31  1  0
 31 32  2  0
 32 33  1  0
 32 34  1  0
 34 35  1  0
 34 36  2  0
 36 37  1  0
 36 38  1  0
 38 39  1  0
 38 40  2  0
 40 41  1  0
 20  8  1  0
 40 31  1  0
M  CHG  1   4  -1
M  END
>  <UniqueID>  (33) 
18

>  <SMILES>  (33) 
O/C(=C/CCOc1ccc(Cl)cc1Cl)[N-]/N=C\c1cccc(C(F)(F)F)c1

>  <Energy>  (33) 
48.445992467673584

>  <Genealogy>  (33) 
O=C(CCCOc1ccc(Cl)cc1Cl)[N-]N=Cc1cccc(C(F)(F)F)c1 (protonated)
OC(=CCCOc1ccc(Cl)cc1Cl)[N-]N=Cc1cccc(C(F)(F)F)c1 (tautomer)
O/C(=C/CCOc1ccc(Cl)cc1Cl)[N-]/N=C\c1cccc(C(F)(F)F)c1 (cis-trans isomerization)
O/C(=C/CCOc1ccc(Cl)cc1Cl)[N-]/N=C\c1cccc(C(F)(F)F)c1 (3D coordinates assigned)
O/C(=C/CCOc1ccc(Cl)cc1Cl)[N-]/N=C\c1cccc(C(F)(F)F)c1 (optimized conformer: 48.445992467673584 kcal/mol)

>  <smiles>  (33) 
O=C(CCCOc1ccc(Cl)cc1Cl)NN=Cc1cccc(C(F)(F)F)c1

>  <score_type>  (33) 
oracle

>  <origin>  (33) 
autodockgpu

>  <m_score__min__energy>  (33) 
-7.2599999999999998

>  <m_primary>  (33) 
energy

>  <meeko>  (33) 
{"free_energy": -6.31, "intermolecular_energy": -9.59, "internal_energy": -0.96, "cluster_size": 6, "cluster_id": 2, "rank_in_cluster": 5}

>  <energy>  (33) 
-6.39

>  <cluster_rmsd>  (33) 
1.29

>  <rmsd>  (33) 
272.63

>  <cluster>  (33) 
3

$$$$
JBHRSOAXAGIKHA-SRRPOTTFNA-N
     RDKit          3D

 41 42  0  0  0  0  0  0  0  0999 V2000
  138.7550   74.9160  223.4450 H   0  0  0  0  0  0  0  0  0  0  0  0
  139.2270   75.4260  222.7070 O   0  0  0  0  0  0  0  0  0  0  0  0
  140.1250   74.8110  221.8340 C   0  0  0  0  0  0  0  0  0  0  0  0
  140.5910   73.5020  222.1930 N   0  0  0  0  0  0  0  0  0  0  0  0
  139.9540   72.6530  223.1090 N   0  0  0  0  0  0  0  0  0  0  0  0
  140.4400   71.5020  223.4650 C   0  0  0  0  0  0  0  0  0  0  0  0
  140.8011   70.8249  222.6769 H   0  0  0  0  0  0  0  0  0  0  0  0
  140.5350   71.0510  224.8700 C   0  0  0  0  0  0  0  0  0  0  0  0
  140.9800   71.9560  225.8450 C   0  0  0  0  0  0  0  0  0  0  0  0
  141.2477   72.9832  225.5564 H   0  0  0  0  0  0  0  0  0  0  0  0
  141.0850   71.5600  227.1800 C   0  0  0  0  0  0  0  0  0  0  0  0
  141.4145   72.2819  227.9418 H   0  0  0  0  0  0  0  0  0  0  0  0
  140.7730   70.2500  227.5510 C   0  0  0  0  0  0  0  0  0  0  0  0
  140.8361   69.9511  228.6077 H   0  0  0  0  0  0  0  0  0  0  0  0
  140.3790   69.3120  226.5820 C   0  0  0  0  0  0  0  0  0  0  0  0
  140.0160   67.9030  226.9820 C   0  0  0  0  0  0  0  0  0  0  0  0
  138.9050   67.4690  226.2810 F   0  0  0  0  0  0  0  0  0  0  0  0
  141.0600   67.0320  226.7200 F   0  0  0  0  0  0  0  0  0  0  0  0
  139.7360   67.8740  228.3350 F   0  0  0  0  0  0  0  0  0  0  0  0
  140.2500   69.7250  225.2440 C   0  0  0  0  0  0  0  0  0  0  0  0
  139.9226   69.0032  224.4812 H   0  0  0  0  0  0  0  0  0  0  0  0
  140.5200   75.4780  220.7310 C   0  0  0  0  0  0  0  0  0  0  0  0
  139.7724   75.6008  219.9335 H   0  0  0  0  0  0  0  0  0  0  0  0
  141.8810   76.0720  220.4800 C   0  0  0  0  0  0  0  0  0  0  0  0
  142.5047   75.9085  221.3712 H   0  0  0  0  0  0  0  0  0  0  0  0
  142.2976   75.5762  219.5908 H   0  0  0  0  0  0  0  0  0  0  0  0
  141.8330   77.5780  220.1860 C   0  0  0  0  0  0  0  0  0  0  0  0
  142.6465   77.8355  219.4919 H   0  0  0  0  0  0  0  0  0  0  0  0
  140.8566   77.8179  219.7398 H   0  0  0  0  0  0  0  0  0  0  0  0
  141.9850   78.3380  221.3880 O   0  0  0  0  0  0  0  0  0  0  0  0
  140.9490   78.9100  222.1450 C   0  0  0  0  0  0  0  0  0  0  0  0
  139.6100   78.4780  222.0500 C   0  0  0  0  0  0  0  0  0  0  0  0
  139.3473   77.6577  221.3658 H   0  0  0  0  0  0  0  0  0  0  0  0
  138.6150   79.0860  222.8200 C   0  0  0  0  0  0  0  0  0  0  0  0
  137.5718   78.7480  222.7340 H   0  0  0  0  0  0  0  0  0  0  0  0
  138.9410   80.1210  223.6980 C   0  0  0  0  0  0  0  0  0  0  0  0
  137.6880   80.8820  224.6630 Cl  0  0  0  0  0  0  0  0  0  0  0  0
  140.2670   80.5470  223.8130 C   0  0  0  0  0  0  0  0  0  0  0  0
  140.5246   81.3583  224.5098 H   0  0  0  0  0  0  0  0  0  0  0  0
  141.2680   79.9430  223.0430 C   0  0  0  0  0  0  0  0  0  0  0  0
  142.9260   80.5040  223.2010 Cl  0  0  0  0  0  0  0  0  0  0  0  0
  1  2  1  0
  2  3  1  0
  3  4  1  0
  4  5  1  0
  5  6  2  0
  6  7  1  0
  6  8  1  0
  8  9  2  0
  9 10  1  0
  9 11  1  0
 11 12  1  0
 11 13  2  0
 13 14  1  0
 13 15  1  0
 15 16  1  0
 16 17  1  0
 16 18  1  0
 16 19  1  0
 15 20  2  0
 20 21  1  0
  3 22  2  0
 22 23  1  0
 22 24  1  0
 24 25  1  0
 24 26  1  0
 24 27  1  0
 27 28  1  0
 27 29  1  0
 27 30  1  0
 30 31  1  0
 31 32  2  0
 32 33  1  0
 32 34  1  0
 34 35  1  0
 34 36  2  0
 36 37  1  0
 36 38  1  0
 38 39  1  0
 38 40  2  0
 40 41  1  0
 20  8  1  0
 40 31  1  0
M  CHG  1   4  -1
M  END
>  <UniqueID>  (34) 
18

>  <SMILES>  (34) 
O/C(=C/CCOc1ccc(Cl)cc1Cl)[N-]/N=C\c1cccc(C(F)(F)F)c1

>  <Energy>  (34) 
48.445992467673584

>  <Genealogy>  (34) 
O=C(CCCOc1ccc(Cl)cc1Cl)[N-]N=Cc1cccc(C(F)(F)F)c1 (protonated)
OC(=CCCOc1ccc(Cl)cc1Cl)[N-]N=Cc1cccc(C(F)(F)F)c1 (tautomer)
O/C(=C/CCOc1ccc(Cl)cc1Cl)[N-]/N=C\c1cccc(C(F)(F)F)c1 (cis-trans isomerization)
O/C(=C/CCOc1ccc(Cl)cc1Cl)[N-]/N=C\c1cccc(C(F)(F)F)c1 (3D coordinates assigned)
O/C(=C/CCOc1ccc(Cl)cc1Cl)[N-]/N=C\c1cccc(C(F)(F)F)c1 (optimized conformer: 48.445992467673584 kcal/mol)

>  <smiles>  (34) 
O=C(CCCOc1ccc(Cl)cc1Cl)NN=Cc1cccc(C(F)(F)F)c1

>  <score_type>  (34) 
oracle

>  <origin>  (34) 
autodockgpu

>  <m_score__min__energy>  (34) 
-7.2599999999999998

>  <m_primary>  (34) 
energy

>  <meeko>  (34) 
{"free_energy": -7.16, "intermolecular_energy": -10.44, "internal_energy": -0.96, "cluster_size": 4, "cluster_id": 1, "rank_in_cluster": 2}

>  <energy>  (34) 
-6.4

>  <cluster_rmsd>  (34) 
0.0

>  <rmsd>  (34) 
272.18

>  <cluster>  (34) 
4

$$$$
JBHRSOAXAGIKHA-SRRPOTTFNA-N
     RDKit          3D

 41 42  0  0  0  0  0  0  0  0999 V2000
  141.9400   76.7470  222.5220 H   0  0  0  0  0  0  0  0  0  0  0  0
  141.1210   76.1820  222.7160 O   0  0  0  0  0  0  0  0  0  0  0  0
  141.1210   75.2330  220.5530 C   0  0  0  0  0  0  0  0  0  0  0  0
  139.6690   74.2980  222.3040 N   0  0  0  0  0  0  0  0  0  0  0  0
  139.8110   72.9040  222.2510 N   0  0  0  0  0  0  0  0  0  0  0  0
  140.6390   75.2350  221.8120 C   0  0  0  0  0  0  0  0  0  0  0  0
  140.7576   74.4374  219.8859 H   0  0  0  0  0  0  0  0  0  0  0  0
  140.3350   71.4540  224.1560 C   0  0  0  0  0  0  0  0  0  0  0  0
  139.5310   70.3160  224.0020 C   0  0  0  0  0  0  0  0  0  0  0  0
  139.1740   70.0298  223.0017 H   0  0  0  0  0  0  0  0  0  0  0  0
  139.1810   69.5440  225.1110 C   0  0  0  0  0  0  0  0  0  0  0  0
  138.5677   68.6405  224.9784 H   0  0  0  0  0  0  0  0  0  0  0  0
  139.6070   69.9150  226.3890 C   0  0  0  0  0  0  0  0  0  0  0  0
  139.3473   69.2891  227.2555 H   0  0  0  0  0  0  0  0  0  0  0  0
  140.3650   71.0830  226.5730 C   0  0  0  0  0  0  0  0  0  0  0  0
  140.8500   71.4740  227.9480 C   0  0  0  0  0  0  0  0  0  0  0  0
  141.7820   72.4930  227.8640 F   0  0  0  0  0  0  0  0  0  0  0  0
  139.7980   71.9130  228.7340 F   0  0  0  0  0  0  0  0  0  0  0  0
  141.4340   70.3760  228.5520 F   0  0  0  0  0  0  0  0  0  0  0  0
  140.7370   71.8410  225.4480 C   0  0  0  0  0  0  0  0  0  0  0  0
  141.3486   72.7458  225.5795 H   0  0  0  0  0  0  0  0  0  0  0  0
  140.6830   72.2530  222.9610 C   0  0  0  0  0  0  0  0  0  0  0  0
  141.7390   72.2987  222.6563 H   0  0  0  0  0  0  0  0  0  0  0  0
  142.1070   76.2100  219.9670 C   0  0  0  0  0  0  0  0  0  0  0  0
  143.0168   76.2038  220.5852 H   0  0  0  0  0  0  0  0  0  0  0  0
  142.3117   75.8926  218.9339 H   0  0  0  0  0  0  0  0  0  0  0  0
  141.5640   77.6450  219.9090 C   0  0  0  0  0  0  0  0  0  0  0  0
  142.0692   78.1885  219.0970 H   0  0  0  0  0  0  0  0  0  0  0  0
  140.4799   77.6030  219.7275 H   0  0  0  0  0  0  0  0  0  0  0  0
  141.7940   78.3290  221.1440 O   0  0  0  0  0  0  0  0  0  0  0  0
  140.8130   78.9150  221.9610 C   0  0  0  0  0  0  0  0  0  0  0  0
  139.4430   78.6000  221.8510 C   0  0  0  0  0  0  0  0  0  0  0  0
  139.1094   77.8639  221.1048 H   0  0  0  0  0  0  0  0  0  0  0  0
  138.5060   79.2180  222.6850 C   0  0  0  0  0  0  0  0  0  0  0  0
  137.4383   78.9721  222.5874 H   0  0  0  0  0  0  0  0  0  0  0  0
  138.9220   80.1460  223.6410 C   0  0  0  0  0  0  0  0  0  0  0  0
  137.7430   80.9200  224.6850 Cl  0  0  0  0  0  0  0  0  0  0  0  0
  140.2790   80.4540  223.7700 C   0  0  0  0  0  0  0  0  0  0  0  0
  140.6070   81.1815  224.5271 H   0  0  0  0  0  0  0  0  0  0  0  0
  141.2220   79.8390  222.9380 C   0  0  0  0  0  0  0  0  0  0  0  0
  142.9210   80.2520  223.1170 Cl  0  0  0  0  0  0  0  0  0  0  0  0
  1  2  1  0
  2  3  1  0
  3  4  1  0
  4  5  1  0
  5  6  2  0
  6  7  1  0
  6  8  1  0
  8  9  2  0
  9 10  1  0
  9 11  1  0
 11 12  1  0
 11 13  2  0
 13 14  1  0
 13 15  1  0
 15 16  1  0
 16 17  1  0
 16 18  1  0
 16 19  1  0
 15 20  2  0
 20 21  1  0
  3 22  2  0
 22 23  1  0
 22 24  1  0
 24 25  1  0
 24 26  1  0
 24 27  1  0
 27 28  1  0
 27 29  1  0
 27 30  1  0
 30 31  1  0
 31 32  2  0
 32 33  1  0
 32 34  1  0
 34 35  1  0
 34 36  2  0
 36 37  1  0
 36 38  1  0
 38 39  1  0
 38 40  2  0
 40 41  1  0
 20  8  1  0
 40 31  1  0
M  CHG  1   4  -1
M  END
>  <UniqueID>  (35) 
18

>  <SMILES>  (35) 
O/C(=C/CCOc1ccc(Cl)cc1Cl)[N-]/N=C\c1cccc(C(F)(F)F)c1

>  <Energy>  (35) 
48.445992467673584

>  <Genealogy>  (35) 
O=C(CCCOc1ccc(Cl)cc1Cl)[N-]N=Cc1cccc(C(F)(F)F)c1 (protonated)
OC(=CCCOc1ccc(Cl)cc1Cl)[N-]N=Cc1cccc(C(F)(F)F)c1 (tautomer)
O/C(=C/CCOc1ccc(Cl)cc1Cl)[N-]/N=C\c1cccc(C(F)(F)F)c1 (cis-trans isomerization)
O/C(=C/CCOc1ccc(Cl)cc1Cl)[N-]/N=C\c1cccc(C(F)(F)F)c1 (3D coordinates assigned)
O/C(=C/CCOc1ccc(Cl)cc1Cl)[N-]/N=C\c1cccc(C(F)(F)F)c1 (optimized conformer: 48.445992467673584 kcal/mol)

>  <smiles>  (35) 
O=C(CCCOc1ccc(Cl)cc1Cl)NN=Cc1cccc(C(F)(F)F)c1

>  <score_type>  (35) 
oracle

>  <origin>  (35) 
autodockgpu

>  <m_score__min__energy>  (35) 
-7.2599999999999998

>  <m_primary>  (35) 
energy

>  <meeko>  (35) 
{"free_energy": -6.4, "intermolecular_energy": -9.68, "internal_energy": -1.41, "cluster_size": 4, "cluster_id": 1, "rank_in_cluster": 4}

>  <energy>  (35) 
-6.15

>  <cluster_rmsd>  (35) 
1.86

>  <rmsd>  (35) 
272.28

>  <cluster>  (35) 
4

$$$$
JBHRSOAXAGIKHA-SRRPOTTFNA-N
     RDKit          3D

 41 42  0  0  0  0  0  0  0  0999 V2000
  142.5670   75.7210  221.2890 H   0  0  0  0  0  0  0  0  0  0  0  0
  142.2830   74.8350  220.8870 O   0  0  0  0  0  0  0  0  0  0  0  0
  141.0640   74.2320  221.2010 C   0  0  0  0  0  0  0  0  0  0  0  0
  140.1380   75.0000  221.9830 N   0  0  0  0  0  0  0  0  0  0  0  0
  140.4600   76.1840  222.6620 N   0  0  0  0  0  0  0  0  0  0  0  0
  140.0590   77.3560  222.2710 C   0  0  0  0  0  0  0  0  0  0  0  0
  139.1143   77.4221  221.7113 H   0  0  0  0  0  0  0  0  0  0  0  0
  140.8030   78.6070  222.5370 C   0  0  0  0  0  0  0  0  0  0  0  0
  141.7640   78.6220  223.5570 C   0  0  0  0  0  0  0  0  0  0  0  0
  141.9554   77.7099  224.1413 H   0  0  0  0  0  0  0  0  0  0  0  0
  142.4800   79.7880  223.8360 C   0  0  0  0  0  0  0  0  0  0  0  0
  143.2468   79.7854  224.6247 H   0  0  0  0  0  0  0  0  0  0  0  0
  142.2250   80.9580  223.1160 C   0  0  0  0  0  0  0  0  0  0  0  0
  142.8090   81.8667  223.3241 H   0  0  0  0  0  0  0  0  0  0  0  0
  141.2270   80.9800  222.1280 C   0  0  0  0  0  0  0  0  0  0  0  0
  140.9650   82.2350  221.3310 C   0  0  0  0  0  0  0  0  0  0  0  0
  139.6100   82.5110  221.2880 F   0  0  0  0  0  0  0  0  0  0  0  0
  141.6100   83.3210  221.8970 F   0  0  0  0  0  0  0  0  0  0  0  0
  141.4310   82.0570  220.0410 F   0  0  0  0  0  0  0  0  0  0  0  0
  140.5280   79.7950  221.8340 C   0  0  0  0  0  0  0  0  0  0  0  0
  139.7592   79.7969  221.0472 H   0  0  0  0  0  0  0  0  0  0  0  0
  140.8360   72.9710  220.7820 C   0  0  0  0  0  0  0  0  0  0  0  0
  140.8021   72.8105  219.6943 H   0  0  0  0  0  0  0  0  0  0  0  0
  140.6230   71.7600  221.6510 C   0  0  0  0  0  0  0  0  0  0  0  0
  139.8205   71.1495  221.2112 H   0  0  0  0  0  0  0  0  0  0  0  0
  141.5769   71.2139  221.6945 H   0  0  0  0  0  0  0  0  0  0  0  0
  140.2320   72.1180  223.0920 C   0  0  0  0  0  0  0  0  0  0  0  0
  141.1424   72.3443  223.6664 H   0  0  0  0  0  0  0  0  0  0  0  0
  139.5652   72.9925  223.0680 H   0  0  0  0  0  0  0  0  0  0  0  0
  139.5410   71.0340  223.7180 O   0  0  0  0  0  0  0  0  0  0  0  0
  139.9180   70.3880  224.9080 C   0  0  0  0  0  0  0  0  0  0  0  0
  140.5630   71.0590  225.9660 C   0  0  0  0  0  0  0  0  0  0  0  0
  140.7844   72.1329  225.8786 H   0  0  0  0  0  0  0  0  0  0  0  0
  140.9230   70.3670  227.1260 C   0  0  0  0  0  0  0  0  0  0  0  0
  141.4331   70.8963  227.9443 H   0  0  0  0  0  0  0  0  0  0  0  0
  140.6370   69.0060  227.2490 C   0  0  0  0  0  0  0  0  0  0  0  0
  141.0920   68.1410  228.7070 Cl  0  0  0  0  0  0  0  0  0  0  0  0
  139.9830   68.3340  226.2130 C   0  0  0  0  0  0  0  0  0  0  0  0
  139.7524   67.2631  226.3127 H   0  0  0  0  0  0  0  0  0  0  0  0
  139.6210   69.0210  225.0490 C   0  0  0  0  0  0  0  0  0  0  0  0
  138.8070   68.1500  223.7570 Cl  0  0  0  0  0  0  0  0  0  0  0  0
  1  2  1  0
  2  3  1  0
  3  4  1  0
  4  5  1  0
  5  6  2  0
  6  7  1  0
  6  8  1  0
  8  9  2  0
  9 10  1  0
  9 11  1  0
 11 12  1  0
 11 13  2  0
 13 14  1  0
 13 15  1  0
 15 16  1  0
 16 17  1  0
 16 18  1  0
 16 19  1  0
 15 20  2  0
 20 21  1  0
  3 22  2  0
 22 23  1  0
 22 24  1  0
 24 25  1  0
 24 26  1  0
 24 27  1  0
 27 28  1  0
 27 29  1  0
 27 30  1  0
 30 31  1  0
 31 32  2  0
 32 33  1  0
 32 34  1  0
 34 35  1  0
 34 36  2  0
 36 37  1  0
 36 38  1  0
 38 39  1  0
 38 40  2  0
 40 41  1  0
 20  8  1  0
 40 31  1  0
M  CHG  1   4  -1
M  END
>  <UniqueID>  (36) 
18

>  <SMILES>  (36) 
O/C(=C/CCOc1ccc(Cl)cc1Cl)[N-]/N=C\c1cccc(C(F)(F)F)c1

>  <Energy>  (36) 
48.445992467673584

>  <Genealogy>  (36) 
O=C(CCCOc1ccc(Cl)cc1Cl)[N-]N=Cc1cccc(C(F)(F)F)c1 (protonated)
OC(=CCCOc1ccc(Cl)cc1Cl)[N-]N=Cc1cccc(C(F)(F)F)c1 (tautomer)
O/C(=C/CCOc1ccc(Cl)cc1Cl)[N-]/N=C\c1cccc(C(F)(F)F)c1 (cis-trans isomerization)
O/C(=C/CCOc1ccc(Cl)cc1Cl)[N-]/N=C\c1cccc(C(F)(F)F)c1 (3D coordinates assigned)
O/C(=C/CCOc1ccc(Cl)cc1Cl)[N-]/N=C\c1cccc(C(F)(F)F)c1 (optimized conformer: 48.445992467673584 kcal/mol)

>  <smiles>  (36) 
O=C(CCCOc1ccc(Cl)cc1Cl)NN=Cc1cccc(C(F)(F)F)c1

>  <score_type>  (36) 
oracle

>  <origin>  (36) 
autodockgpu

>  <m_score__min__energy>  (36) 
-7.2599999999999998

>  <m_primary>  (36) 
energy

>  <meeko>  (36) 
{"free_energy": -6.48, "intermolecular_energy": -9.76, "internal_energy": -0.87, "cluster_size": 3, "cluster_id": 3, "rank_in_cluster": 2}

>  <energy>  (36) 
-6.39

>  <cluster_rmsd>  (36) 
0.0

>  <rmsd>  (36) 
272.68

>  <cluster>  (36) 
5

$$$$
JBHRSOAXAGIKHA-SRRPOTTFNA-N
     RDKit          3D

 41 42  0  0  0  0  0  0  0  0999 V2000
  141.8260   76.5120  222.3970 H   0  0  0  0  0  0  0  0  0  0  0  0
  140.8630   76.2600  222.5870 O   0  0  0  0  0  0  0  0  0  0  0  0
  139.8120   75.7870  220.5250 C   0  0  0  0  0  0  0  0  0  0  0  0
  139.8390   74.0920  222.3070 N   0  0  0  0  0  0  0  0  0  0  0  0
  140.7670   73.0540  222.4660 N   0  0  0  0  0  0  0  0  0  0  0  0
  140.1470   75.3860  221.7680 C   0  0  0  0  0  0  0  0  0  0  0  0
  138.9511   75.2849  220.0594 H   0  0  0  0  0  0  0  0  0  0  0  0
  140.1710   71.1530  223.8940 C   0  0  0  0  0  0  0  0  0  0  0  0
  139.3920   69.9890  223.9300 C   0  0  0  0  0  0  0  0  0  0  0  0
  138.9821   69.5760  222.9965 H   0  0  0  0  0  0  0  0  0  0  0  0
  139.1330   69.3500  225.1450 C   0  0  0  0  0  0  0  0  0  0  0  0
  138.5390   68.4243  225.1621 H   0  0  0  0  0  0  0  0  0  0  0  0
  139.6260   69.8830  226.3380 C   0  0  0  0  0  0  0  0  0  0  0  0
  139.4371   69.3628  227.2886 H   0  0  0  0  0  0  0  0  0  0  0  0
  140.3620   71.0800  226.3310 C   0  0  0  0  0  0  0  0  0  0  0  0
  140.9190   71.6450  227.6140 C   0  0  0  0  0  0  0  0  0  0  0  0
  139.9170   72.2430  228.3580 F   0  0  0  0  0  0  0  0  0  0  0  0
  141.4920   70.6470  228.3840 F   0  0  0  0  0  0  0  0  0  0  0  0
  141.8830   72.5890  227.3130 F   0  0  0  0  0  0  0  0  0  0  0  0
  140.6420   71.7030  225.1010 C   0  0  0  0  0  0  0  0  0  0  0  0
  141.2350   72.6293  225.0824 H   0  0  0  0  0  0  0  0  0  0  0  0
  140.4220   71.8070  222.5910 C   0  0  0  0  0  0  0  0  0  0  0  0
  140.3105   71.2047  221.6773 H   0  0  0  0  0  0  0  0  0  0  0  0
  140.4960   76.8520  219.7090 C   0  0  0  0  0  0  0  0  0  0  0  0
  140.3897   76.6002  218.6435 H   0  0  0  0  0  0  0  0  0  0  0  0
  140.0179   77.8123  219.9524 H   0  0  0  0  0  0  0  0  0  0  0  0
  141.9910   76.9860  220.0340 C   0  0  0  0  0  0  0  0  0  0  0  0
  142.3816   76.0052  220.3430 H   0  0  0  0  0  0  0  0  0  0  0  0
  142.5151   77.3429  219.1351 H   0  0  0  0  0  0  0  0  0  0  0  0
  142.2020   77.9270  221.0890 O   0  0  0  0  0  0  0  0  0  0  0  0
  141.8460   79.2860  221.0720 C   0  0  0  0  0  0  0  0  0  0  0  0
  141.6900   80.0160  219.8770 C   0  0  0  0  0  0  0  0  0  0  0  0
  141.8429   79.5179  218.9082 H   0  0  0  0  0  0  0  0  0  0  0  0
  141.3420   81.3700  219.9150 C   0  0  0  0  0  0  0  0  0  0  0  0
  141.2296   81.9342  218.9774 H   0  0  0  0  0  0  0  0  0  0  0  0
  141.1370   82.0070  221.1400 C   0  0  0  0  0  0  0  0  0  0  0  0
  140.7010   83.7060  221.1840 Cl  0  0  0  0  0  0  0  0  0  0  0  0
  141.2730   81.2890  222.3320 C   0  0  0  0  0  0  0  0  0  0  0  0
  141.1047   81.7895  223.2970 H   0  0  0  0  0  0  0  0  0  0  0  0
  141.6230   79.9340  222.2990 C   0  0  0  0  0  0  0  0  0  0  0  0
  141.7960   79.0580  223.8130 Cl  0  0  0  0  0  0  0  0  0  0  0  0
  1  2  1  0
  2  3  1  0
  3  4  1  0
  4  5  1  0
  5  6  2  0
  6  7  1  0
  6  8  1  0
  8  9  2  0
  9 10  1  0
  9 11  1  0
 11 12  1  0
 11 13  2  0
 13 14  1  0
 13 15  1  0
 15 16  1  0
 16 17  1  0
 16 18  1  0
 16 19  1  0
 15 20  2  0
 20 21  1  0
  3 22  2  0
 22 23  1  0
 22 24  1  0
 24 25  1  0
 24 26  1  0
 24 27  1  0
 27 28  1  0
 27 29  1  0
 27 30  1  0
 30 31  1  0
 31 32  2  0
 32 33  1  0
 32 34  1  0
 34 35  1  0
 34 36  2  0
 36 37  1  0
 36 38  1  0
 38 39  1  0
 38 40  2  0
 40 41  1  0
 20  8  1  0
 40 31  1  0
M  CHG  1   4  -1
M  END
>  <UniqueID>  (37) 
18

>  <SMILES>  (37) 
O/C(=C/CCOc1ccc(Cl)cc1Cl)[N-]/N=C\c1cccc(C(F)(F)F)c1

>  <Energy>  (37) 
48.445992467673584

>  <Genealogy>  (37) 
O=C(CCCOc1ccc(Cl)cc1Cl)[N-]N=Cc1cccc(C(F)(F)F)c1 (protonated)
OC(=CCCOc1ccc(Cl)cc1Cl)[N-]N=Cc1cccc(C(F)(F)F)c1 (tautomer)
O/C(=C/CCOc1ccc(Cl)cc1Cl)[N-]/N=C\c1cccc(C(F)(F)F)c1 (cis-trans isomerization)
O/C(=C/CCOc1ccc(Cl)cc1Cl)[N-]/N=C\c1cccc(C(F)(F)F)c1 (3D coordinates assigned)
O/C(=C/CCOc1ccc(Cl)cc1Cl)[N-]/N=C\c1cccc(C(F)(F)F)c1 (optimized conformer: 48.445992467673584 kcal/mol)

>  <smiles>  (37) 
O=C(CCCOc1ccc(Cl)cc1Cl)NN=Cc1cccc(C(F)(F)F)c1

>  <score_type>  (37) 
oracle

>  <origin>  (37) 
autodockgpu

>  <m_score__min__energy>  (37) 
-7.2599999999999998

>  <m_primary>  (37) 
energy

>  <meeko>  (37) 
{"free_energy": -6.31, "intermolecular_energy": -9.59, "internal_energy": -1.33, "cluster_size": 6, "cluster_id": 2, "rank_in_cluster": 4}

>  <energy>  (37) 
-6.26

>  <cluster_rmsd>  (37) 
0.0

>  <rmsd>  (37) 
272.59

>  <cluster>  (37) 
6

$$$$
JBHRSOAXAGIKHA-SRRPOTTFNA-N
     RDKit          3D

 41 42  0  0  0  0  0  0  0  0999 V2000
  138.4120   75.5260  223.4300 H   0  0  0  0  0  0  0  0  0  0  0  0
  138.9520   75.9480  222.6840 O   0  0  0  0  0  0  0  0  0  0  0  0
  140.0180   75.2890  222.0710 C   0  0  0  0  0  0  0  0  0  0  0  0
  139.9310   73.8600  221.9700 N   0  0  0  0  0  0  0  0  0  0  0  0
  140.7120   72.9600  222.7090 N   0  0  0  0  0  0  0  0  0  0  0  0
  140.3820   71.7170  222.8880 C   0  0  0  0  0  0  0  0  0  0  0  0
  140.1268   71.1150  222.0034 H   0  0  0  0  0  0  0  0  0  0  0  0
  140.3300   71.0650  224.2150 C   0  0  0  0  0  0  0  0  0  0  0  0
  139.8470   69.7530  224.3090 C   0  0  0  0  0  0  0  0  0  0  0  0
  139.5179   69.2252  223.4018 H   0  0  0  0  0  0  0  0  0  0  0  0
  139.7810   69.1120  225.5470 C   0  0  0  0  0  0  0  0  0  0  0  0
  139.4208   68.0745  225.6087 H   0  0  0  0  0  0  0  0  0  0  0  0
  140.1710   69.7840  226.7080 C   0  0  0  0  0  0  0  0  0  0  0  0
  140.1389   69.2651  227.6774 H   0  0  0  0  0  0  0  0  0  0  0  0
  140.6040   71.1190  226.6440 C   0  0  0  0  0  0  0  0  0  0  0  0
  141.0510   71.8400  227.8920 C   0  0  0  0  0  0  0  0  0  0  0  0
  141.8210   71.0090  228.6860 F   0  0  0  0  0  0  0  0  0  0  0  0
  141.8090   72.9540  227.5720 F   0  0  0  0  0  0  0  0  0  0  0  0
  139.9380   72.2440  228.6050 F   0  0  0  0  0  0  0  0  0  0  0  0
  140.6940   71.7490  225.3900 C   0  0  0  0  0  0  0  0  0  0  0  0
  141.0525   72.7870  225.3268 H   0  0  0  0  0  0  0  0  0  0  0  0
  141.0680   76.0150  221.6370 C   0  0  0  0  0  0  0  0  0  0  0  0
  141.7664   76.3809  222.4040 H   0  0  0  0  0  0  0  0  0  0  0  0
  141.3820   76.3760  220.2090 C   0  0  0  0  0  0  0  0  0  0  0  0
  140.6269   75.9136  219.5563 H   0  0  0  0  0  0  0  0  0  0  0  0
  141.3703   77.4736  220.1368 H   0  0  0  0  0  0  0  0  0  0  0  0
  142.7720   75.9010  219.7620 C   0  0  0  0  0  0  0  0  0  0  0  0
  142.7018   75.4885  218.7447 H   0  0  0  0  0  0  0  0  0  0  0  0
  143.4600   76.7591  219.7818 H   0  0  0  0  0  0  0  0  0  0  0  0
  143.2740   74.8920  220.6430 O   0  0  0  0  0  0  0  0  0  0  0  0
  143.9890   73.7430  220.2650 C   0  0  0  0  0  0  0  0  0  0  0  0
  145.3780   73.6130  220.4630 C   0  0  0  0  0  0  0  0  0  0  0  0
  145.9417   74.4303  220.9365 H   0  0  0  0  0  0  0  0  0  0  0  0
  146.0440   72.4510  220.0610 C   0  0  0  0  0  0  0  0  0  0  0  0
  147.1301   72.3615  220.2108 H   0  0  0  0  0  0  0  0  0  0  0  0
  145.3340   71.4040  219.4700 C   0  0  0  0  0  0  0  0  0  0  0  0
  146.1730   69.9470  218.9680 Cl  0  0  0  0  0  0  0  0  0  0  0  0
  143.9530   71.5150  219.2840 C   0  0  0  0  0  0  0  0  0  0  0  0
  143.3929   70.6881  218.8231 H   0  0  0  0  0  0  0  0  0  0  0  0
  143.2820   72.6760  219.6830 C   0  0  0  0  0  0  0  0  0  0  0  0
  141.5460   72.7930  219.4300 Cl  0  0  0  0  0  0  0  0  0  0  0  0
  1  2  1  0
  2  3  1  0
  3  4  1  0
  4  5  1  0
  5  6  2  0
  6  7  1  0
  6  8  1  0
  8  9  2  0
  9 10  1  0
  9 11  1  0
 11 12  1  0
 11 13  2  0
 13 14  1  0
 13 15  1  0
 15 16  1  0
 16 17  1  0
 16 18  1  0
 16 19  1  0
 15 20  2  0
 20 21  1  0
  3 22  2  0
 22 23  1  0
 22 24  1  0
 24 25  1  0
 24 26  1  0
 24 27  1  0
 27 28  1  0
 27 29  1  0
 27 30  1  0
 30 31  1  0
 31 32  2  0
 32 33  1  0
 32 34  1  0
 34 35  1  0
 34 36  2  0
 36 37  1  0
 36 38  1  0
 38 39  1  0
 38 40  2  0
 40 41  1  0
 20  8  1  0
 40 31  1  0
M  CHG  1   4  -1
M  END
>  <UniqueID>  (38) 
18

>  <SMILES>  (38) 
O/C(=C/CCOc1ccc(Cl)cc1Cl)[N-]/N=C\c1cccc(C(F)(F)F)c1

>  <Energy>  (38) 
48.445992467673584

>  <Genealogy>  (38) 
O=C(CCCOc1ccc(Cl)cc1Cl)[N-]N=Cc1cccc(C(F)(F)F)c1 (protonated)
OC(=CCCOc1ccc(Cl)cc1Cl)[N-]N=Cc1cccc(C(F)(F)F)c1 (tautomer)
O/C(=C/CCOc1ccc(Cl)cc1Cl)[N-]/N=C\c1cccc(C(F)(F)F)c1 (cis-trans isomerization)
O/C(=C/CCOc1ccc(Cl)cc1Cl)[N-]/N=C\c1cccc(C(F)(F)F)c1 (3D coordinates assigned)
O/C(=C/CCOc1ccc(Cl)cc1Cl)[N-]/N=C\c1cccc(C(F)(F)F)c1 (optimized conformer: 48.445992467673584 kcal/mol)

>  <smiles>  (38) 
O=C(CCCOc1ccc(Cl)cc1Cl)NN=Cc1cccc(C(F)(F)F)c1

>  <score_type>  (38) 
oracle

>  <origin>  (38) 
autodockgpu

>  <m_score__min__energy>  (38) 
-7.2599999999999998

>  <m_primary>  (38) 
energy

>  <meeko>  (38) 
{"free_energy": -6.15, "intermolecular_energy": -9.43, "internal_energy": -0.9, "cluster_size": 2, "cluster_id": 4, "rank_in_cluster": 2}

>  <energy>  (38) 
-6.07

>  <cluster_rmsd>  (38) 
1.08

>  <rmsd>  (38) 
272.63

>  <cluster>  (38) 
6

$$$$
JBHRSOAXAGIKHA-SRRPOTTFNA-N
     RDKit          3D

 41 42  0  0  0  0  0  0  0  0999 V2000
  141.9020   76.5860  221.7580 H   0  0  0  0  0  0  0  0  0  0  0  0
  141.5220   75.8430  221.1830 O   0  0  0  0  0  0  0  0  0  0  0  0
  139.2210   75.4920  221.5850 C   0  0  0  0  0  0  0  0  0  0  0  0
  140.8370   73.7000  222.0580 N   0  0  0  0  0  0  0  0  0  0  0  0
  139.9740   72.8270  222.7330 N   0  0  0  0  0  0  0  0  0  0  0  0
  140.4840   75.0200  221.6200 C   0  0  0  0  0  0  0  0  0  0  0  0
  138.6426   75.2876  220.6720 H   0  0  0  0  0  0  0  0  0  0  0  0
  140.1700   70.9200  224.2600 C   0  0  0  0  0  0  0  0  0  0  0  0
  139.5700   69.6570  224.3600 C   0  0  0  0  0  0  0  0  0  0  0  0
  139.1710   69.1682  223.4590 H   0  0  0  0  0  0  0  0  0  0  0  0
  139.4760   69.0160  225.5970 C   0  0  0  0  0  0  0  0  0  0  0  0
  139.0227   68.0159  225.6633 H   0  0  0  0  0  0  0  0  0  0  0  0
  139.9560   69.6410  226.7510 C   0  0  0  0  0  0  0  0  0  0  0  0
  139.9004   69.1206  227.7185 H   0  0  0  0  0  0  0  0  0  0  0  0
  140.5090   70.9300  226.6820 C   0  0  0  0  0  0  0  0  0  0  0  0
  141.0520   71.5990  227.9210 C   0  0  0  0  0  0  0  0  0  0  0  0
  141.9020   72.6370  227.5820 F   0  0  0  0  0  0  0  0  0  0  0  0
  140.0250   72.1160  228.6920 F   0  0  0  0  0  0  0  0  0  0  0  0
  141.7510   70.6690  228.6680 F   0  0  0  0  0  0  0  0  0  0  0  0
  140.6250   71.5590  225.4290 C   0  0  0  0  0  0  0  0  0  0  0  0
  141.0757   72.5602  225.3620 H   0  0  0  0  0  0  0  0  0  0  0  0
  140.2490   71.5730  222.9350 C   0  0  0  0  0  0  0  0  0  0  0  0
  140.5576   70.9634  222.0729 H   0  0  0  0  0  0  0  0  0  0  0  0
  138.5220   76.2700  222.6680 C   0  0  0  0  0  0  0  0  0  0  0  0
  137.4364   76.2000  222.5053 H   0  0  0  0  0  0  0  0  0  0  0  0
  138.8209   75.8338  223.6325 H   0  0  0  0  0  0  0  0  0  0  0  0
  138.9190   77.7530  222.6910 C   0  0  0  0  0  0  0  0  0  0  0  0
  138.3039   78.3018  221.9626 H   0  0  0  0  0  0  0  0  0  0  0  0
  138.7547   78.1451  223.7055 H   0  0  0  0  0  0  0  0  0  0  0  0
  140.2990   77.9170  222.3560 O   0  0  0  0  0  0  0  0  0  0  0  0
  140.8090   78.6730  221.2860 C   0  0  0  0  0  0  0  0  0  0  0  0
  140.4910   78.3960  219.9410 C   0  0  0  0  0  0  0  0  0  0  0  0
  139.8143   77.5632  219.6991 H   0  0  0  0  0  0  0  0  0  0  0  0
  141.0310   79.1740  218.9130 C   0  0  0  0  0  0  0  0  0  0  0  0
  140.7849   78.9459  217.8654 H   0  0  0  0  0  0  0  0  0  0  0  0
  141.8820   80.2400  219.2120 C   0  0  0  0  0  0  0  0  0  0  0  0
  142.5580   81.2140  217.9180 Cl  0  0  0  0  0  0  0  0  0  0  0  0
  142.1910   80.5340  220.5430 C   0  0  0  0  0  0  0  0  0  0  0  0
  142.8570   81.3770  220.7790 H   0  0  0  0  0  0  0  0  0  0  0  0
  141.6540   79.7570  221.5760 C   0  0  0  0  0  0  0  0  0  0  0  0
  142.0660   80.1440  223.2410 Cl  0  0  0  0  0  0  0  0  0  0  0  0
  1  2  1  0
  2  3  1  0
  3  4  1  0
  4  5  1  0
  5  6  2  0
  6  7  1  0
  6  8  1  0
  8  9  2  0
  9 10  1  0
  9 11  1  0
 11 12  1  0
 11 13  2  0
 13 14  1  0
 13 15  1  0
 15 16  1  0
 16 17  1  0
 16 18  1  0
 16 19  1  0
 15 20  2  0
 20 21  1  0
  3 22  2  0
 22 23  1  0
 22 24  1  0
 24 25  1  0
 24 26  1  0
 24 27  1  0
 27 28  1  0
 27 29  1  0
 27 30  1  0
 30 31  1  0
 31 32  2  0
 32 33  1  0
 32 34  1  0
 34 35  1  0
 34 36  2  0
 36 37  1  0
 36 38  1  0
 38 39  1  0
 38 40  2  0
 40 41  1  0
 20  8  1  0
 40 31  1  0
M  CHG  1   4  -1
M  END
>  <UniqueID>  (39) 
18

>  <SMILES>  (39) 
O/C(=C/CCOc1ccc(Cl)cc1Cl)[N-]/N=C\c1cccc(C(F)(F)F)c1

>  <Energy>  (39) 
48.445992467673584

>  <Genealogy>  (39) 
O=C(CCCOc1ccc(Cl)cc1Cl)[N-]N=Cc1cccc(C(F)(F)F)c1 (protonated)
OC(=CCCOc1ccc(Cl)cc1Cl)[N-]N=Cc1cccc(C(F)(F)F)c1 (tautomer)
O/C(=C/CCOc1ccc(Cl)cc1Cl)[N-]/N=C\c1cccc(C(F)(F)F)c1 (cis-trans isomerization)
O/C(=C/CCOc1ccc(Cl)cc1Cl)[N-]/N=C\c1cccc(C(F)(F)F)c1 (3D coordinates assigned)
O/C(=C/CCOc1ccc(Cl)cc1Cl)[N-]/N=C\c1cccc(C(F)(F)F)c1 (optimized conformer: 48.445992467673584 kcal/mol)

>  <smiles>  (39) 
O=C(CCCOc1ccc(Cl)cc1Cl)NN=Cc1cccc(C(F)(F)F)c1

>  <score_type>  (39) 
oracle

>  <origin>  (39) 
autodockgpu

>  <m_score__min__energy>  (39) 
-7.2599999999999998

>  <m_primary>  (39) 
energy

>  <meeko>  (39) 
{"free_energy": -6.29, "intermolecular_energy": -9.57, "internal_energy": -1.28, "cluster_size": 6, "cluster_id": 2, "rank_in_cluster": 6}

>  <energy>  (39) 
-5.85

>  <cluster_rmsd>  (39) 
0.0

>  <rmsd>  (39) 
272.36

>  <cluster>  (39) 
7

$$$$
JBHRSOAXAGIKHA-SRRPOTTFNA-N
     RDKit          3D

 41 42  0  0  0  0  0  0  0  0999 V2000
  139.1950   73.9740  223.0530 H   0  0  0  0  0  0  0  0  0  0  0  0
  139.3860   74.9120  222.7200 O   0  0  0  0  0  0  0  0  0  0  0  0
  139.9800   75.1550  221.4810 C   0  0  0  0  0  0  0  0  0  0  0  0
  139.8930   76.4920  220.9660 N   0  0  0  0  0  0  0  0  0  0  0  0
  140.9200   77.1470  220.2730 N   0  0  0  0  0  0  0  0  0  0  0  0
  141.8290   77.8630  220.8630 C   0  0  0  0  0  0  0  0  0  0  0  0
  142.8811   77.6934  220.5906 H   0  0  0  0  0  0  0  0  0  0  0  0
  141.5290   78.8930  221.8800 C   0  0  0  0  0  0  0  0  0  0  0  0
  142.5910   79.5420  222.5240 C   0  0  0  0  0  0  0  0  0  0  0  0
  143.6280   79.2826  222.2646 H   0  0  0  0  0  0  0  0  0  0  0  0
  142.3410   80.5160  223.4930 C   0  0  0  0  0  0  0  0  0  0  0  0
  143.1805   81.0349  223.9787 H   0  0  0  0  0  0  0  0  0  0  0  0
  141.0270   80.8330  223.8470 C   0  0  0  0  0  0  0  0  0  0  0  0
  140.8361   81.6176  224.5939 H   0  0  0  0  0  0  0  0  0  0  0  0
  139.9490   80.1560  223.2550 C   0  0  0  0  0  0  0  0  0  0  0  0
  138.5280   80.5130  223.6160 C   0  0  0  0  0  0  0  0  0  0  0  0
  138.4260   80.8050  224.9650 F   0  0  0  0  0  0  0  0  0  0  0  0
  138.1020   81.6190  222.9010 F   0  0  0  0  0  0  0  0  0  0  0  0
  137.7030   79.4430  223.3220 F   0  0  0  0  0  0  0  0  0  0  0  0
  140.2080   79.1950  222.2610 C   0  0  0  0  0  0  0  0  0  0  0  0
  139.3693   78.6739  221.7762 H   0  0  0  0  0  0  0  0  0  0  0  0
  140.5730   74.1320  220.8320 C   0  0  0  0  0  0  0  0  0  0  0  0
  141.3133   74.3973  220.0628 H   0  0  0  0  0  0  0  0  0  0  0  0
  140.3240   72.6630  221.0540 C   0  0  0  0  0  0  0  0  0  0  0  0
  139.2420   72.5045  221.1732 H   0  0  0  0  0  0  0  0  0  0  0  0
  140.7229   72.1251  220.1814 H   0  0  0  0  0  0  0  0  0  0  0  0
  141.0390   72.1170  222.2980 C   0  0  0  0  0  0  0  0  0  0  0  0
  141.2329   71.0431  222.1595 H   0  0  0  0  0  0  0  0  0  0  0  0
  141.9840   72.6646  222.4286 H   0  0  0  0  0  0  0  0  0  0  0  0
  140.2390   72.3010  223.4690 O   0  0  0  0  0  0  0  0  0  0  0  0
  140.2810   71.5170  224.6340 C   0  0  0  0  0  0  0  0  0  0  0  0
  141.0270   71.8840  225.7720 C   0  0  0  0  0  0  0  0  0  0  0  0
  141.6012   72.8222  225.7697 H   0  0  0  0  0  0  0  0  0  0  0  0
  141.0420   71.0640  226.9030 C   0  0  0  0  0  0  0  0  0  0  0  0
  141.6342   71.3545  227.7833 H   0  0  0  0  0  0  0  0  0  0  0  0
  140.3070   69.8760  226.9190 C   0  0  0  0  0  0  0  0  0  0  0  0
  140.3290   68.8490  228.3410 Cl  0  0  0  0  0  0  0  0  0  0  0  0
  139.5510   69.5100  225.8030 C   0  0  0  0  0  0  0  0  0  0  0  0
  138.9681   68.5773  225.8174 H   0  0  0  0  0  0  0  0  0  0  0  0
  139.5330   70.3270  224.6660 C   0  0  0  0  0  0  0  0  0  0  0  0
  138.5800   69.8370  223.2730 Cl  0  0  0  0  0  0  0  0  0  0  0  0
  1  2  1  0
  2  3  1  0
  3  4  1  0
  4  5  1  0
  5  6  2  0
  6  7  1  0
  6  8  1  0
  8  9  2  0
  9 10  1  0
  9 11  1  0
 11 12  1  0
 11 13  2  0
 13 14  1  0
 13 15  1  0
 15 16  1  0
 16 17  1  0
 16 18  1  0
 16 19  1  0
 15 20  2  0
 20 21  1  0
  3 22  2  0
 22 23  1  0
 22 24  1  0
 24 25  1  0
 24 26  1  0
 24 27  1  0
 27 28  1  0
 27 29  1  0
 27 30  1  0
 30 31  1  0
 31 32  2  0
 32 33  1  0
 32 34  1  0
 34 35  1  0
 34 36  2  0
 36 37  1  0
 36 38  1  0
 38 39  1  0
 38 40  2  0
 40 41  1  0
 20  8  1  0
 40 31  1  0
M  CHG  1   4  -1
M  END
>  <UniqueID>  (40) 
18

>  <SMILES>  (40) 
O/C(=C/CCOc1ccc(Cl)cc1Cl)[N-]/N=C\c1cccc(C(F)(F)F)c1

>  <Energy>  (40) 
48.445992467673584

>  <Genealogy>  (40) 
O=C(CCCOc1ccc(Cl)cc1Cl)[N-]N=Cc1cccc(C(F)(F)F)c1 (protonated)
OC(=CCCOc1ccc(Cl)cc1Cl)[N-]N=Cc1cccc(C(F)(F)F)c1 (tautomer)
O/C(=C/CCOc1ccc(Cl)cc1Cl)[N-]/N=C\c1cccc(C(F)(F)F)c1 (cis-trans isomerization)
O/C(=C/CCOc1ccc(Cl)cc1Cl)[N-]/N=C\c1cccc(C(F)(F)F)c1 (3D coordinates assigned)
O/C(=C/CCOc1ccc(Cl)cc1Cl)[N-]/N=C\c1cccc(C(F)(F)F)c1 (optimized conformer: 48.445992467673584 kcal/mol)

>  <smiles>  (40) 
O=C(CCCOc1ccc(Cl)cc1Cl)NN=Cc1cccc(C(F)(F)F)c1

>  <score_type>  (40) 
oracle

>  <origin>  (40) 
autodockgpu

>  <m_score__min__energy>  (40) 
-7.2599999999999998

>  <m_primary>  (40) 
energy

>  <meeko>  (40) 
{"free_energy": -6.07, "intermolecular_energy": -9.35, "internal_energy": -1.27, "cluster_size": 2, "cluster_id": 6, "rank_in_cluster": 2}

>  <energy>  (40) 
-5.6

>  <cluster_rmsd>  (40) 
0.0

>  <rmsd>  (40) 
272.11

>  <cluster>  (40) 
8

$$$$
VHXSVHVNRGGTDL-PKHXXGQGNA-M
     RDKit          3D

 41 42  0  0  0  0  0  0  0  0999 V2000
  139.8510   70.6643  222.7705 H   0  0  0  0  0  0  0  0  0  0  0  0
  140.1550   71.3860  223.5430 C   0  0  0  0  0  0  0  0  0  0  0  0
  140.3320   72.6220  223.2750 N   0  0  0  0  0  0  0  0  0  0  0  0
  140.4540   73.1620  222.0020 N   0  0  0  0  0  0  0  0  0  0  0  0
  139.8910   74.4000  221.5870 C   0  0  0  0  0  0  0  0  0  0  0  0
  138.8200   74.4960  220.9380 O   0  0  0  0  0  0  0  0  0  0  0  0
  140.6650   75.6370  221.9720 C   0  0  0  0  0  0  0  0  0  0  0  0
  139.9581   76.4504  222.1925 H   0  0  0  0  0  0  0  0  0  0  0  0
  141.2754   75.4088  222.8582 H   0  0  0  0  0  0  0  0  0  0  0  0
  141.5730   76.0640  220.8620 C   0  0  0  0  0  0  0  0  0  0  0  0
  142.6010   76.1217  221.2490 H   0  0  0  0  0  0  0  0  0  0  0  0
  141.4872   75.3220  220.0545 H   0  0  0  0  0  0  0  0  0  0  0  0
  141.1860   77.4350  220.2820 C   0  0  0  0  0  0  0  0  0  0  0  0
  142.1003   77.9843  220.0130 H   0  0  0  0  0  0  0  0  0  0  0  0
  140.5591   77.2781  219.3919 H   0  0  0  0  0  0  0  0  0  0  0  0
  140.5110   78.1290  221.1520 O   0  0  0  0  0  0  0  0  0  0  0  0
  139.8460   78.8130  222.0100 C   0  0  0  0  0  0  0  0  0  0  0  0
  138.4490   78.7540  222.1030 C   0  0  0  0  0  0  0  0  0  0  0  0
  137.8980   78.0956  221.4153 H   0  0  0  0  0  0  0  0  0  0  0  0
  137.7420   79.4930  223.0270 C   0  0  0  0  0  0  0  0  0  0  0  0
  136.6451   79.4354  223.0867 H   0  0  0  0  0  0  0  0  0  0  0  0
  138.4620   80.3050  223.8710 C   0  0  0  0  0  0  0  0  0  0  0  0
  137.5960   81.2520  225.0510 Cl  0  0  0  0  0  0  0  0  0  0  0  0
  139.8310   80.4170  223.8410 C   0  0  0  0  0  0  0  0  0  0  0  0
  140.3652   81.0808  224.5367 H   0  0  0  0  0  0  0  0  0  0  0  0
  140.5060   79.6690  222.9100 C   0  0  0  0  0  0  0  0  0  0  0  0
  142.2430   79.7840  222.8390 Cl  0  0  0  0  0  0  0  0  0  0  0  0
  140.3790   70.9770  224.9400 C   0  0  0  0  0  0  0  0  0  0  0  0
  140.8640   71.9030  225.8320 C   0  0  0  0  0  0  0  0  0  0  0  0
  141.0780   72.9296  225.4997 H   0  0  0  0  0  0  0  0  0  0  0  0
  141.0820   71.5410  227.1470 C   0  0  0  0  0  0  0  0  0  0  0  0
  141.4671   72.2555  227.8895 H   0  0  0  0  0  0  0  0  0  0  0  0
  140.7890   70.2290  227.4790 C   0  0  0  0  0  0  0  0  0  0  0  0
  140.9534   69.9099  228.5188 H   0  0  0  0  0  0  0  0  0  0  0  0
  140.3080   69.3070  226.5930 C   0  0  0  0  0  0  0  0  0  0  0  0
  140.0020   67.9020  226.9750 C   0  0  0  0  0  0  0  0  0  0  0  0
  138.8520   67.5100  226.3170 F   0  0  0  0  0  0  0  0  0  0  0  0
  139.8010   67.8430  228.3290 F   0  0  0  0  0  0  0  0  0  0  0  0
  141.0490   67.0530  226.6720 F   0  0  0  0  0  0  0  0  0  0  0  0
  140.0940   69.6810  225.2810 C   0  0  0  0  0  0  0  0  0  0  0  0
  139.7096   68.9661  224.5385 H   0  0  0  0  0  0  0  0  0  0  0  0
  1  2  1  0
  2  3  2  0
  3  4  1  0
  4  5  1  0
  5  6  2  0
  5  7  1  0
  7  8  1  0
  7  9  1  0
  7 10  1  0
 10 11  1  0
 10 12  1  0
 10 13  1  0
 13 14  1  0
 13 15  1  0
 13 16  1  0
 16 17  1  0
 17 18  2  0
 18 19  1  0
 18 20  1  0
 20 21  1  0
 20 22  2  0
 22 23  1  0
 22 24  1  0
 24 25  1  0
 24 26  2  0
 26 27  1  0
  2 28  1  0
 28 29  2  0
 29 30  1  0
 29 31  1  0
 31 32  1  0
 31 33  2  0
 33 34  1  0
 33 35  1  0
 35 36  1  0
 36 37  1  0
 36 38  1  0
 36 39  1  0
 35 40  2  0
 40 41  1  0
 26 17  1  0
 40 28  1  0
M  CHG  1   4  -1
M  END
>  <UniqueID>  (41) 
19

>  <SMILES>  (41) 
O=C(CCCOc1ccc(Cl)cc1Cl)[N-]/N=C/c1cccc(C(F)(F)F)c1

>  <Energy>  (41) 
140.77416357126367

>  <Genealogy>  (41) 
O=C(CCCOc1ccc(Cl)cc1Cl)[N-]N=Cc1cccc(C(F)(F)F)c1 (protonated)
O=C(CCCOc1ccc(Cl)cc1Cl)[N-]/N=C/c1cccc(C(F)(F)F)c1 (cis-trans isomerization)
O=C(CCCOc1ccc(Cl)cc1Cl)[N-]/N=C/c1cccc(C(F)(F)F)c1 (3D coordinates assigned)
O=C(CCCOc1ccc(Cl)cc1Cl)[N-]/N=C/c1cccc(C(F)(F)F)c1 (optimized conformer: 140.77416357126367 kcal/mol)

>  <smiles>  (41) 
O=C(CCCOc1ccc(Cl)cc1Cl)NN=Cc1cccc(C(F)(F)F)c1

>  <score_type>  (41) 
oracle

>  <origin>  (41) 
autodockgpu

>  <m_score__min__energy>  (41) 
-6.6200000000000001

>  <m_primary>  (41) 
energy

>  <meeko>  (41) 
{"free_energy": -6.19, "intermolecular_energy": -9.17, "internal_energy": -0.84, "cluster_size": 4, "cluster_id": 2, "rank_in_cluster": 3}

>  <energy>  (41) 
-6.62

>  <cluster_rmsd>  (41) 
0.0

>  <rmsd>  (41) 
273.72

>  <cluster>  (41) 
1

$$$$
VHXSVHVNRGGTDL-PKHXXGQGNA-M
     RDKit          3D

 41 42  0  0  0  0  0  0  0  0999 V2000
  140.1109   70.9586  222.1139 H   0  0  0  0  0  0  0  0  0  0  0  0
  140.3020   71.5140  223.0440 C   0  0  0  0  0  0  0  0  0  0  0  0
  140.6610   72.7390  223.0330 N   0  0  0  0  0  0  0  0  0  0  0  0
  140.2600   73.6890  222.1040 N   0  0  0  0  0  0  0  0  0  0  0  0
  138.9230   74.1410  221.9290 C   0  0  0  0  0  0  0  0  0  0  0  0
  138.0040   73.4310  221.4510 O   0  0  0  0  0  0  0  0  0  0  0  0
  138.6470   75.5620  222.3580 C   0  0  0  0  0  0  0  0  0  0  0  0
  138.5797   75.6008  223.4553 H   0  0  0  0  0  0  0  0  0  0  0  0
  139.4666   76.2032  222.0015 H   0  0  0  0  0  0  0  0  0  0  0  0
  137.3620   76.0550  221.7700 C   0  0  0  0  0  0  0  0  0  0  0  0
  137.0455   75.3591  220.9791 H   0  0  0  0  0  0  0  0  0  0  0  0
  136.6206   76.1078  222.5809 H   0  0  0  0  0  0  0  0  0  0  0  0
  137.4960   77.4620  221.1650 C   0  0  0  0  0  0  0  0  0  0  0  0
  137.6163   77.3761  220.0750 H   0  0  0  0  0  0  0  0  0  0  0  0
  136.5899   78.0375  221.4055 H   0  0  0  0  0  0  0  0  0  0  0  0
  138.5280   78.0810  221.6610 O   0  0  0  0  0  0  0  0  0  0  0  0
  139.5450   78.6910  222.1500 C   0  0  0  0  0  0  0  0  0  0  0  0
  140.8620   78.3510  221.8150 C   0  0  0  0  0  0  0  0  0  0  0  0
  141.0342   77.5287  221.1050 H   0  0  0  0  0  0  0  0  0  0  0  0
  141.9500   79.0120  222.3450 C   0  0  0  0  0  0  0  0  0  0  0  0
  142.9780   78.7328  222.0708 H   0  0  0  0  0  0  0  0  0  0  0  0
  141.6990   80.0330  223.2290 C   0  0  0  0  0  0  0  0  0  0  0  0
  143.0540   80.8880  223.9160 Cl  0  0  0  0  0  0  0  0  0  0  0  0
  140.4370   80.4250  223.6080 C   0  0  0  0  0  0  0  0  0  0  0  0
  140.2842   81.2492  224.3203 H   0  0  0  0  0  0  0  0  0  0  0  0
  139.3760   79.7480  223.0630 C   0  0  0  0  0  0  0  0  0  0  0  0
  137.7590   80.2130  223.5180 Cl  0  0  0  0  0  0  0  0  0  0  0  0
  140.1570   70.8830  224.3670 C   0  0  0  0  0  0  0  0  0  0  0  0
  139.5530   69.6530  224.4530 C   0  0  0  0  0  0  0  0  0  0  0  0
  139.1868   69.1541  223.5436 H   0  0  0  0  0  0  0  0  0  0  0  0
  139.4060   69.0430  225.6840 C   0  0  0  0  0  0  0  0  0  0  0  0
  138.9286   68.0578  225.7907 H   0  0  0  0  0  0  0  0  0  0  0  0
  139.8930   69.7410  226.7750 C   0  0  0  0  0  0  0  0  0  0  0  0
  139.7909   69.2816  227.7693 H   0  0  0  0  0  0  0  0  0  0  0  0
  140.4930   70.9660  226.6930 C   0  0  0  0  0  0  0  0  0  0  0  0
  141.0070   71.6970  227.8820 C   0  0  0  0  0  0  0  0  0  0  0  0
  141.6920   70.8030  228.6830 F   0  0  0  0  0  0  0  0  0  0  0  0
  139.9470   72.2180  228.5770 F   0  0  0  0  0  0  0  0  0  0  0  0
  141.8250   72.7490  227.5190 F   0  0  0  0  0  0  0  0  0  0  0  0
  140.6350   71.5640  225.4560 C   0  0  0  0  0  0  0  0  0  0  0  0
  141.1133   72.5488  225.3491 H   0  0  0  0  0  0  0  0  0  0  0  0
  1  2  1  0
  2  3  2  0
  3  4  1  0
  4  5  1  0
  5  6  2  0
  5  7  1  0
  7  8  1  0
  7  9  1  0
  7 10  1  0
 10 11  1  0
 10 12  1  0
 10 13  1  0
 13 14  1  0
 13 15  1  0
 13 16  1  0
 16 17  1  0
 17 18  2  0
 18 19  1  0
 18 20  1  0
 20 21  1  0
 20 22  2  0
 22 23  1  0
 22 24  1  0
 24 25  1  0
 24 26  2  0
 26 27  1  0
  2 28  1  0
 28 29  2  0
 29 30  1  0
 29 31  1  0
 31 32  1  0
 31 33  2  0
 33 34  1  0
 33 35  1  0
 35 36  1  0
 36 37  1  0
 36 38  1  0
 36 39  1  0
 35 40  2  0
 40 41  1  0
 26 17  1  0
 40 28  1  0
M  CHG  1   4  -1
M  END
>  <UniqueID>  (42) 
19

>  <SMILES>  (42) 
O=C(CCCOc1ccc(Cl)cc1Cl)[N-]/N=C/c1cccc(C(F)(F)F)c1

>  <Energy>  (42) 
140.77416357126367

>  <Genealogy>  (42) 
O=C(CCCOc1ccc(Cl)cc1Cl)[N-]N=Cc1cccc(C(F)(F)F)c1 (protonated)
O=C(CCCOc1ccc(Cl)cc1Cl)[N-]/N=C/c1cccc(C(F)(F)F)c1 (cis-trans isomerization)
O=C(CCCOc1ccc(Cl)cc1Cl)[N-]/N=C/c1cccc(C(F)(F)F)c1 (3D coordinates assigned)
O=C(CCCOc1ccc(Cl)cc1Cl)[N-]/N=C/c1cccc(C(F)(F)F)c1 (optimized conformer: 140.77416357126367 kcal/mol)

>  <smiles>  (42) 
O=C(CCCOc1ccc(Cl)cc1Cl)NN=Cc1cccc(C(F)(F)F)c1

>  <score_type>  (42) 
oracle

>  <origin>  (42) 
autodockgpu

>  <m_score__min__energy>  (42) 
-6.6200000000000001

>  <m_primary>  (42) 
energy

>  <meeko>  (42) 
{"free_energy": -6.38, "intermolecular_energy": -9.36, "internal_energy": -0.8, "cluster_size": 10, "cluster_id": 1, "rank_in_cluster": 8}

>  <energy>  (42) 
-6.51

>  <cluster_rmsd>  (42) 
0.73

>  <rmsd>  (42) 
273.67

>  <cluster>  (42) 
1

$$$$
VHXSVHVNRGGTDL-PKHXXGQGNA-M
     RDKit          3D

 41 42  0  0  0  0  0  0  0  0999 V2000
  139.1844   71.1894  223.0450 H   0  0  0  0  0  0  0  0  0  0  0  0
  139.9810   71.6120  223.6750 C   0  0  0  0  0  0  0  0  0  0  0  0
  140.6690   72.6200  223.3010 N   0  0  0  0  0  0  0  0  0  0  0  0
  140.6800   73.1600  222.0220 N   0  0  0  0  0  0  0  0  0  0  0  0
  140.4910   74.5370  221.7190 C   0  0  0  0  0  0  0  0  0  0  0  0
  139.5940   75.2480  222.2350 O   0  0  0  0  0  0  0  0  0  0  0  0
  141.4500   75.1270  220.7140 C   0  0  0  0  0  0  0  0  0  0  0  0
  141.8854   76.0480  221.1290 H   0  0  0  0  0  0  0  0  0  0  0  0
  142.2392   74.3896  220.5056 H   0  0  0  0  0  0  0  0  0  0  0  0
  140.7470   75.4510  219.4330 C   0  0  0  0  0  0  0  0  0  0  0  0
  141.0323   74.7063  218.6754 H   0  0  0  0  0  0  0  0  0  0  0  0
  139.6650   75.4315  219.6303 H   0  0  0  0  0  0  0  0  0  0  0  0
  141.1020   76.8510  218.9070 C   0  0  0  0  0  0  0  0  0  0  0  0
  142.0119   76.7854  218.2924 H   0  0  0  0  0  0  0  0  0  0  0  0
  140.2604   77.2259  218.3060 H   0  0  0  0  0  0  0  0  0  0  0  0
  141.3110   77.6750  219.8920 O   0  0  0  0  0  0  0  0  0  0  0  0
  141.5170   78.4880  220.8640 C   0  0  0  0  0  0  0  0  0  0  0  0
  141.4130   78.1010  222.2060 C   0  0  0  0  0  0  0  0  0  0  0  0
  141.1444   77.0602  222.4398 H   0  0  0  0  0  0  0  0  0  0  0  0
  141.6360   78.9810  223.2440 C   0  0  0  0  0  0  0  0  0  0  0  0
  141.5508   78.6611  224.2930 H   0  0  0  0  0  0  0  0  0  0  0  0
  141.9690   80.2740  222.9160 C   0  0  0  0  0  0  0  0  0  0  0  0
  142.2580   81.4090  224.2060 Cl  0  0  0  0  0  0  0  0  0  0  0  0
  142.0900   80.7280  221.6250 C   0  0  0  0  0  0  0  0  0  0  0  0
  142.3594   81.7726  221.4098 H   0  0  0  0  0  0  0  0  0  0  0  0
  141.8620   79.8290  220.6150 C   0  0  0  0  0  0  0  0  0  0  0  0
  142.0030   80.3660  218.9630 Cl  0  0  0  0  0  0  0  0  0  0  0  0
  140.3090   71.0440  224.9940 C   0  0  0  0  0  0  0  0  0  0  0  0
  140.7470   71.8850  225.9870 C   0  0  0  0  0  0  0  0  0  0  0  0
  140.8477   72.9629  225.7920 H   0  0  0  0  0  0  0  0  0  0  0  0
  141.0610   71.3740  227.2320 C   0  0  0  0  0  0  0  0  0  0  0  0
  141.4134   72.0170  228.0520 H   0  0  0  0  0  0  0  0  0  0  0  0
  140.9070   70.0070  227.3890 C   0  0  0  0  0  0  0  0  0  0  0  0
  141.1498   69.5694  228.3686 H   0  0  0  0  0  0  0  0  0  0  0  0
  140.4720   69.1680  226.4020 C   0  0  0  0  0  0  0  0  0  0  0  0
  140.3160   67.7020  226.5970 C   0  0  0  0  0  0  0  0  0  0  0  0
  140.2860   67.0960  225.3560 F   0  0  0  0  0  0  0  0  0  0  0  0
  139.1380   67.4630  227.2540 F   0  0  0  0  0  0  0  0  0  0  0  0
  141.3360   67.1800  227.3680 F   0  0  0  0  0  0  0  0  0  0  0  0
  140.1610   69.6920  225.1630 C   0  0  0  0  0  0  0  0  0  0  0  0
  139.8080   69.0491  224.3432 H   0  0  0  0  0  0  0  0  0  0  0  0
  1  2  1  0
  2  3  2  0
  3  4  1  0
  4  5  1  0
  5  6  2  0
  5  7  1  0
  7  8  1  0
  7  9  1  0
  7 10  1  0
 10 11  1  0
 10 12  1  0
 10 13  1  0
 13 14  1  0
 13 15  1  0
 13 16  1  0
 16 17  1  0
 17 18  2  0
 18 19  1  0
 18 20  1  0
 20 21  1  0
 20 22  2  0
 22 23  1  0
 22 24  1  0
 24 25  1  0
 24 26  2  0
 26 27  1  0
  2 28  1  0
 28 29  2  0
 29 30  1  0
 29 31  1  0
 31 32  1  0
 31 33  2  0
 33 34  1  0
 33 35  1  0
 35 36  1  0
 36 37  1  0
 36 38  1  0
 36 39  1  0
 35 40  2  0
 40 41  1  0
 26 17  1  0
 40 28  1  0
M  CHG  1   4  -1
M  END
>  <UniqueID>  (43) 
19

>  <SMILES>  (43) 
O=C(CCCOc1ccc(Cl)cc1Cl)[N-]/N=C/c1cccc(C(F)(F)F)c1

>  <Energy>  (43) 
140.77416357126367

>  <Genealogy>  (43) 
O=C(CCCOc1ccc(Cl)cc1Cl)[N-]N=Cc1cccc(C(F)(F)F)c1 (protonated)
O=C(CCCOc1ccc(Cl)cc1Cl)[N-]/N=C/c1cccc(C(F)(F)F)c1 (cis-trans isomerization)
O=C(CCCOc1ccc(Cl)cc1Cl)[N-]/N=C/c1cccc(C(F)(F)F)c1 (3D coordinates assigned)
O=C(CCCOc1ccc(Cl)cc1Cl)[N-]/N=C/c1cccc(C(F)(F)F)c1 (optimized conformer: 140.77416357126367 kcal/mol)

>  <smiles>  (43) 
O=C(CCCOc1ccc(Cl)cc1Cl)NN=Cc1cccc(C(F)(F)F)c1

>  <score_type>  (43) 
oracle

>  <origin>  (43) 
autodockgpu

>  <m_score__min__energy>  (43) 
-6.6200000000000001

>  <m_primary>  (43) 
energy

>  <meeko>  (43) 
{"free_energy": -6.52, "intermolecular_energy": -9.5, "internal_energy": -0.81, "cluster_size": 4, "cluster_id": 2, "rank_in_cluster": 2}

>  <energy>  (43) 
-6.5

>  <cluster_rmsd>  (43) 
1.13

>  <rmsd>  (43) 
273.71

>  <cluster>  (43) 
1

$$$$
VHXSVHVNRGGTDL-PKHXXGQGNA-M
     RDKit          3D

 41 42  0  0  0  0  0  0  0  0999 V2000
  139.0257   69.6890  223.0426 H   0  0  0  0  0  0  0  0  0  0  0  0
  139.6860   70.3320  223.6430 C   0  0  0  0  0  0  0  0  0  0  0  0
  140.2180   71.3870  223.1590 N   0  0  0  0  0  0  0  0  0  0  0  0
  140.3950   71.6550  221.8090 N   0  0  0  0  0  0  0  0  0  0  0  0
  141.5890   72.1690  221.2310 C   0  0  0  0  0  0  0  0  0  0  0  0
  142.6990   71.5850  221.2910 O   0  0  0  0  0  0  0  0  0  0  0  0
  141.4580   73.4930  220.5190 C   0  0  0  0  0  0  0  0  0  0  0  0
  142.4477   73.8061  220.1550 H   0  0  0  0  0  0  0  0  0  0  0  0
  140.7605   73.3727  219.6770 H   0  0  0  0  0  0  0  0  0  0  0  0
  140.9200   74.5420  221.4410 C   0  0  0  0  0  0  0  0  0  0  0  0
  140.0379   74.1378  221.9592 H   0  0  0  0  0  0  0  0  0  0  0  0
  141.7186   74.8064  222.1498 H   0  0  0  0  0  0  0  0  0  0  0  0
  140.5110   75.8240  220.6970 C   0  0  0  0  0  0  0  0  0  0  0  0
  140.9850   75.8323  219.7044 H   0  0  0  0  0  0  0  0  0  0  0  0
  139.4157   75.8407  220.5970 H   0  0  0  0  0  0  0  0  0  0  0  0
  140.8870   76.8800  221.3590 O   0  0  0  0  0  0  0  0  0  0  0  0
  141.2570   77.9220  222.0110 C   0  0  0  0  0  0  0  0  0  0  0  0
  141.3570   77.9420  223.4070 C   0  0  0  0  0  0  0  0  0  0  0  0
  141.1087   77.0305  223.9704 H   0  0  0  0  0  0  0  0  0  0  0  0
  141.7560   79.0650  224.1000 C   0  0  0  0  0  0  0  0  0  0  0  0
  141.8299   79.0638  225.1975 H   0  0  0  0  0  0  0  0  0  0  0  0
  142.0580   80.1870  223.3640 C   0  0  0  0  0  0  0  0  0  0  0  0
  142.5660   81.6230  224.2120 Cl  0  0  0  0  0  0  0  0  0  0  0  0
  141.9840   80.2450  221.9930 C   0  0  0  0  0  0  0  0  0  0  0  0
  142.2358   81.1653  221.4456 H   0  0  0  0  0  0  0  0  0  0  0  0
  141.5840   79.1110  221.3340 C   0  0  0  0  0  0  0  0  0  0  0  0
  141.4760   79.1440  219.5950 Cl  0  0  0  0  0  0  0  0  0  0  0  0
  140.0030   70.0210  225.0480 C   0  0  0  0  0  0  0  0  0  0  0  0
  139.9710   68.7110  225.4600 C   0  0  0  0  0  0  0  0  0  0  0  0
  139.7128   67.9145  224.7467 H   0  0  0  0  0  0  0  0  0  0  0  0
  140.2640   68.3970  226.7730 C   0  0  0  0  0  0  0  0  0  0  0  0
  140.2501   67.3598  227.1390 H   0  0  0  0  0  0  0  0  0  0  0  0
  140.5760   69.4600  227.6020 C   0  0  0  0  0  0  0  0  0  0  0  0
  140.8138   69.2418  228.6536 H   0  0  0  0  0  0  0  0  0  0  0  0
  140.6070   70.7640  227.1950 C   0  0  0  0  0  0  0  0  0  0  0  0
  140.9440   71.8890  228.1080 C   0  0  0  0  0  0  0  0  0  0  0  0
  139.7860   72.3050  228.7370 F   0  0  0  0  0  0  0  0  0  0  0  0
  141.4630   72.9200  227.3700 F   0  0  0  0  0  0  0  0  0  0  0  0
  141.8970   71.5210  229.0370 F   0  0  0  0  0  0  0  0  0  0  0  0
  140.3130   71.0650  225.8800 C   0  0  0  0  0  0  0  0  0  0  0  0
  140.3270   72.1024  225.5144 H   0  0  0  0  0  0  0  0  0  0  0  0
  1  2  1  0
  2  3  2  0
  3  4  1  0
  4  5  1  0
  5  6  2  0
  5  7  1  0
  7  8  1  0
  7  9  1  0
  7 10  1  0
 10 11  1  0
 10 12  1  0
 10 13  1  0
 13 14  1  0
 13 15  1  0
 13 16  1  0
 16 17  1  0
 17 18  2  0
 18 19  1  0
 18 20  1  0
 20 21  1  0
 20 22  2  0
 22 23  1  0
 22 24  1  0
 24 25  1  0
 24 26  2  0
 26 27  1  0
  2 28  1  0
 28 29  2  0
 29 30  1  0
 29 31  1  0
 31 32  1  0
 31 33  2  0
 33 34  1  0
 33 35  1  0
 35 36  1  0
 36 37  1  0
 36 38  1  0
 36 39  1  0
 35 40  2  0
 40 41  1  0
 26 17  1  0
 40 28  1  0
M  CHG  1   4  -1
M  END
>  <UniqueID>  (44) 
19

>  <SMILES>  (44) 
O=C(CCCOc1ccc(Cl)cc1Cl)[N-]/N=C/c1cccc(C(F)(F)F)c1

>  <Energy>  (44) 
140.77416357126367

>  <Genealogy>  (44) 
O=C(CCCOc1ccc(Cl)cc1Cl)[N-]N=Cc1cccc(C(F)(F)F)c1 (protonated)
O=C(CCCOc1ccc(Cl)cc1Cl)[N-]/N=C/c1cccc(C(F)(F)F)c1 (cis-trans isomerization)
O=C(CCCOc1ccc(Cl)cc1Cl)[N-]/N=C/c1cccc(C(F)(F)F)c1 (3D coordinates assigned)
O=C(CCCOc1ccc(Cl)cc1Cl)[N-]/N=C/c1cccc(C(F)(F)F)c1 (optimized conformer: 140.77416357126367 kcal/mol)

>  <smiles>  (44) 
O=C(CCCOc1ccc(Cl)cc1Cl)NN=Cc1cccc(C(F)(F)F)c1

>  <score_type>  (44) 
oracle

>  <origin>  (44) 
autodockgpu

>  <m_score__min__energy>  (44) 
-6.6200000000000001

>  <m_primary>  (44) 
energy

>  <meeko>  (44) 
{"free_energy": -6.28, "intermolecular_energy": -9.27, "internal_energy": -0.68, "cluster_size": 10, "cluster_id": 1, "rank_in_cluster": 10}

>  <energy>  (44) 
-6.49

>  <cluster_rmsd>  (44) 
1.39

>  <rmsd>  (44) 
273.52

>  <cluster>  (44) 
1

$$$$
VHXSVHVNRGGTDL-PKHXXGQGNA-M
     RDKit          3D

 41 42  0  0  0  0  0  0  0  0999 V2000
  140.2578   70.7745  222.1957 H   0  0  0  0  0  0  0  0  0  0  0  0
  140.3790   71.3890  223.1000 C   0  0  0  0  0  0  0  0  0  0  0  0
  140.6970   72.6240  223.0350 N   0  0  0  0  0  0  0  0  0  0  0  0
  139.8780   73.6440  222.5710 N   0  0  0  0  0  0  0  0  0  0  0  0
  139.8530   74.1210  221.2310 C   0  0  0  0  0  0  0  0  0  0  0  0
  139.6490   73.3860  220.2330 O   0  0  0  0  0  0  0  0  0  0  0  0
  140.0920   75.6010  221.0550 C   0  0  0  0  0  0  0  0  0  0  0  0
  139.4904   75.9653  220.2091 H   0  0  0  0  0  0  0  0  0  0  0  0
  139.8020   76.1174  221.9819 H   0  0  0  0  0  0  0  0  0  0  0  0
  141.5380   75.8780  220.7840 C   0  0  0  0  0  0  0  0  0  0  0  0
  142.1358   75.4820  221.6182 H   0  0  0  0  0  0  0  0  0  0  0  0
  141.8000   75.3910  219.8331 H   0  0  0  0  0  0  0  0  0  0  0  0
  141.8300   77.3800  220.6370 C   0  0  0  0  0  0  0  0  0  0  0  0
  142.8810   77.5707  220.8999 H   0  0  0  0  0  0  0  0  0  0  0  0
  141.6363   77.6770  219.5957 H   0  0  0  0  0  0  0  0  0  0  0  0
  141.0610   78.0780  221.4200 O   0  0  0  0  0  0  0  0  0  0  0  0
  140.3010   78.7660  222.1930 C   0  0  0  0  0  0  0  0  0  0  0  0
  138.9220   78.5420  222.2910 C   0  0  0  0  0  0  0  0  0  0  0  0
  138.4684   77.7456  221.6828 H   0  0  0  0  0  0  0  0  0  0  0  0
  138.1140   79.2860  223.1240 C   0  0  0  0  0  0  0  0  0  0  0  0
  137.0324   79.0970  223.1897 H   0  0  0  0  0  0  0  0  0  0  0  0
  138.7130   80.2730  223.8690 C   0  0  0  0  0  0  0  0  0  0  0  0
  137.7170   81.2310  224.9320 Cl  0  0  0  0  0  0  0  0  0  0  0  0
  140.0580   80.5540  223.8270 C   0  0  0  0  0  0  0  0  0  0  0  0
  140.4939   81.3555  224.4415 H   0  0  0  0  0  0  0  0  0  0  0  0
  140.8350   79.7960  222.9890 C   0  0  0  0  0  0  0  0  0  0  0  0
  142.5450   80.1200  222.9060 Cl  0  0  0  0  0  0  0  0  0  0  0  0
  140.1830   70.8300  224.4480 C   0  0  0  0  0  0  0  0  0  0  0  0
  139.5300   69.6290  224.5800 C   0  0  0  0  0  0  0  0  0  0  0  0
  139.1631   69.0999  223.6881 H   0  0  0  0  0  0  0  0  0  0  0  0
  139.3350   69.0870  225.8360 C   0  0  0  0  0  0  0  0  0  0  0  0
  138.8175   68.1271  225.9803 H   0  0  0  0  0  0  0  0  0  0  0  0
  139.8270   69.8190  226.9020 C   0  0  0  0  0  0  0  0  0  0  0  0
  139.6872   69.4134  227.9149 H   0  0  0  0  0  0  0  0  0  0  0  0
  140.4760   71.0150  226.7740 C   0  0  0  0  0  0  0  0  0  0  0  0
  140.9950   71.7830  227.9380 C   0  0  0  0  0  0  0  0  0  0  0  0
  141.7820   72.8150  227.4650 F   0  0  0  0  0  0  0  0  0  0  0  0
  141.7510   70.9490  228.7190 F   0  0  0  0  0  0  0  0  0  0  0  0
  139.9690   72.2720  228.7210 F   0  0  0  0  0  0  0  0  0  0  0  0
  140.6650   71.5450  225.5130 C   0  0  0  0  0  0  0  0  0  0  0  0
  141.1828   72.5047  225.3689 H   0  0  0  0  0  0  0  0  0  0  0  0
  1  2  1  0
  2  3  2  0
  3  4  1  0
  4  5  1  0
  5  6  2  0
  5  7  1  0
  7  8  1  0
  7  9  1  0
  7 10  1  0
 10 11  1  0
 10 12  1  0
 10 13  1  0
 13 14  1  0
 13 15  1  0
 13 16  1  0
 16 17  1  0
 17 18  2  0
 18 19  1  0
 18 20  1  0
 20 21  1  0
 20 22  2  0
 22 23  1  0
 22 24  1  0
 24 25  1  0
 24 26  2  0
 26 27  1  0
  2 28  1  0
 28 29  2  0
 29 30  1  0
 29 31  1  0
 31 32  1  0
 31 33  2  0
 33 34  1  0
 33 35  1  0
 35 36  1  0
 36 37  1  0
 36 38  1  0
 36 39  1  0
 35 40  2  0
 40 41  1  0
 26 17  1  0
 40 28  1  0
M  CHG  1   4  -1
M  END
>  <UniqueID>  (45) 
19

>  <SMILES>  (45) 
O=C(CCCOc1ccc(Cl)cc1Cl)[N-]/N=C/c1cccc(C(F)(F)F)c1

>  <Energy>  (45) 
140.77416357126367

>  <Genealogy>  (45) 
O=C(CCCOc1ccc(Cl)cc1Cl)[N-]N=Cc1cccc(C(F)(F)F)c1 (protonated)
O=C(CCCOc1ccc(Cl)cc1Cl)[N-]/N=C/c1cccc(C(F)(F)F)c1 (cis-trans isomerization)
O=C(CCCOc1ccc(Cl)cc1Cl)[N-]/N=C/c1cccc(C(F)(F)F)c1 (3D coordinates assigned)
O=C(CCCOc1ccc(Cl)cc1Cl)[N-]/N=C/c1cccc(C(F)(F)F)c1 (optimized conformer: 140.77416357126367 kcal/mol)

>  <smiles>  (45) 
O=C(CCCOc1ccc(Cl)cc1Cl)NN=Cc1cccc(C(F)(F)F)c1

>  <score_type>  (45) 
oracle

>  <origin>  (45) 
autodockgpu

>  <m_score__min__energy>  (45) 
-6.6200000000000001

>  <m_primary>  (45) 
energy

>  <meeko>  (45) 
{"free_energy": -6.37, "intermolecular_energy": -9.35, "internal_energy": -0.74, "cluster_size": 10, "cluster_id": 1, "rank_in_cluster": 9}

>  <energy>  (45) 
-6.44

>  <cluster_rmsd>  (45) 
1.32

>  <rmsd>  (45) 
273.48

>  <cluster>  (45) 
1

$$$$
VHXSVHVNRGGTDL-PKHXXGQGNA-M
     RDKit          3D

 41 42  0  0  0  0  0  0  0  0999 V2000
  139.2115   76.0125  223.2131 H   0  0  0  0  0  0  0  0  0  0  0  0
  139.8860   75.9740  222.3450 C   0  0  0  0  0  0  0  0  0  0  0  0
  140.0830   74.8930  221.6950 N   0  0  0  0  0  0  0  0  0  0  0  0
  141.0570   73.9460  221.9800 N   0  0  0  0  0  0  0  0  0  0  0  0
  141.0880   72.6260  221.4510 C   0  0  0  0  0  0  0  0  0  0  0  0
  142.1130   71.9010  221.4450 O   0  0  0  0  0  0  0  0  0  0  0  0
  139.7880   72.1180  220.8760 C   0  0  0  0  0  0  0  0  0  0  0  0
  139.0891   72.9602  220.7655 H   0  0  0  0  0  0  0  0  0  0  0  0
  139.9914   71.6579  219.8978 H   0  0  0  0  0  0  0  0  0  0  0  0
  139.1760   71.0870  221.7730 C   0  0  0  0  0  0  0  0  0  0  0  0
  138.3380   70.6104  221.2432 H   0  0  0  0  0  0  0  0  0  0  0  0
  139.9586   70.3574  222.0283 H   0  0  0  0  0  0  0  0  0  0  0  0
  138.6510   71.6900  223.0860 C   0  0  0  0  0  0  0  0  0  0  0  0
  138.9452   72.7485  223.1402 H   0  0  0  0  0  0  0  0  0  0  0  0
  137.5551   71.5969  223.1045 H   0  0  0  0  0  0  0  0  0  0  0  0
  139.1420   71.0570  224.1120 O   0  0  0  0  0  0  0  0  0  0  0  0
  139.6260   70.4330  225.1240 C   0  0  0  0  0  0  0  0  0  0  0  0
  140.2360   71.0950  226.1970 C   0  0  0  0  0  0  0  0  0  0  0  0
  140.3039   72.1927  226.1746 H   0  0  0  0  0  0  0  0  0  0  0  0
  140.7540   70.4180  227.2800 C   0  0  0  0  0  0  0  0  0  0  0  0
  141.2302   70.9535  228.1146 H   0  0  0  0  0  0  0  0  0  0  0  0
  140.6520   69.0470  227.2760 C   0  0  0  0  0  0  0  0  0  0  0  0
  141.2970   68.1620  228.6320 Cl  0  0  0  0  0  0  0  0  0  0  0  0
  140.0680   68.3270  226.2610 C   0  0  0  0  0  0  0  0  0  0  0  0
  140.0089   67.2293  226.3000 H   0  0  0  0  0  0  0  0  0  0  0  0
  139.5620   69.0300  225.1980 C   0  0  0  0  0  0  0  0  0  0  0  0
  138.8150   68.1540  223.8900 Cl  0  0  0  0  0  0  0  0  0  0  0  0
  140.6090   77.1670  221.8720 C   0  0  0  0  0  0  0  0  0  0  0  0
  141.0940   77.1830  220.5870 C   0  0  0  0  0  0  0  0  0  0  0  0
  140.9396   76.3155  219.9285 H   0  0  0  0  0  0  0  0  0  0  0  0
  141.7760   78.2910  220.1240 C   0  0  0  0  0  0  0  0  0  0  0  0
  142.1783   78.3398  219.1014 H   0  0  0  0  0  0  0  0  0  0  0  0
  141.9250   79.3360  221.0180 C   0  0  0  0  0  0  0  0  0  0  0  0
  142.4633   80.2330  220.6781 H   0  0  0  0  0  0  0  0  0  0  0  0
  141.4450   79.3230  222.2970 C   0  0  0  0  0  0  0  0  0  0  0  0
  141.6210   80.4600  223.2400 C   0  0  0  0  0  0  0  0  0  0  0  0
  142.5880   80.1170  224.1650 F   0  0  0  0  0  0  0  0  0  0  0  0
  140.4330   80.6940  223.8810 F   0  0  0  0  0  0  0  0  0  0  0  0
  141.9710   81.6200  222.5770 F   0  0  0  0  0  0  0  0  0  0  0  0
  140.7650   78.2090  222.7480 C   0  0  0  0  0  0  0  0  0  0  0  0
  140.3640   78.1600  223.7711 H   0  0  0  0  0  0  0  0  0  0  0  0
  1  2  1  0
  2  3  2  0
  3  4  1  0
  4  5  1  0
  5  6  2  0
  5  7  1  0
  7  8  1  0
  7  9  1  0
  7 10  1  0
 10 11  1  0
 10 12  1  0
 10 13  1  0
 13 14  1  0
 13 15  1  0
 13 16  1  0
 16 17  1  0
 17 18  2  0
 18 19  1  0
 18 20  1  0
 20 21  1  0
 20 22  2  0
 22 23  1  0
 22 24  1  0
 24 25  1  0
 24 26  2  0
 26 27  1  0
  2 28  1  0
 28 29  2  0
 29 30  1  0
 29 31  1  0
 31 32  1  0
 31 33  2  0
 33 34  1  0
 33 35  1  0
 35 36  1  0
 36 37  1  0
 36 38  1  0
 36 39  1  0
 35 40  2  0
 40 41  1  0
 26 17  1  0
 40 28  1  0
M  CHG  1   4  -1
M  END
>  <UniqueID>  (46) 
19

>  <SMILES>  (46) 
O=C(CCCOc1ccc(Cl)cc1Cl)[N-]/N=C/c1cccc(C(F)(F)F)c1

>  <Energy>  (46) 
140.77416357126367

>  <Genealogy>  (46) 
O=C(CCCOc1ccc(Cl)cc1Cl)[N-]N=Cc1cccc(C(F)(F)F)c1 (protonated)
O=C(CCCOc1ccc(Cl)cc1Cl)[N-]/N=C/c1cccc(C(F)(F)F)c1 (cis-trans isomerization)
O=C(CCCOc1ccc(Cl)cc1Cl)[N-]/N=C/c1cccc(C(F)(F)F)c1 (3D coordinates assigned)
O=C(CCCOc1ccc(Cl)cc1Cl)[N-]/N=C/c1cccc(C(F)(F)F)c1 (optimized conformer: 140.77416357126367 kcal/mol)

>  <smiles>  (46) 
O=C(CCCOc1ccc(Cl)cc1Cl)NN=Cc1cccc(C(F)(F)F)c1

>  <score_type>  (46) 
oracle

>  <origin>  (46) 
autodockgpu

>  <m_score__min__energy>  (46) 
-6.6200000000000001

>  <m_primary>  (46) 
energy

>  <meeko>  (46) 
{"free_energy": -5.96, "intermolecular_energy": -8.95, "internal_energy": -0.87, "cluster_size": 2, "cluster_id": 3, "rank_in_cluster": 2}

>  <energy>  (46) 
-6.43

>  <cluster_rmsd>  (46) 
1.4

>  <rmsd>  (46) 
273.37

>  <cluster>  (46) 
1

$$$$
VHXSVHVNRGGTDL-PKHXXGQGNA-M
     RDKit          3D

 41 42  0  0  0  0  0  0  0  0999 V2000
  141.3458   71.2879  222.3207 H   0  0  0  0  0  0  0  0  0  0  0  0
  140.6130   71.6750  223.0440 C   0  0  0  0  0  0  0  0  0  0  0  0
  139.9120   72.7130  222.7990 N   0  0  0  0  0  0  0  0  0  0  0  0
  140.3150   73.7970  222.0310 N   0  0  0  0  0  0  0  0  0  0  0  0
  139.5130   74.4410  221.0500 C   0  0  0  0  0  0  0  0  0  0  0  0
  139.9690   74.9250  219.9840 O   0  0  0  0  0  0  0  0  0  0  0  0
  138.0370   74.5220  221.3560 C   0  0  0  0  0  0  0  0  0  0  0  0
  137.4877   74.7365  220.4274 H   0  0  0  0  0  0  0  0  0  0  0  0
  137.7122   73.5606  221.7804 H   0  0  0  0  0  0  0  0  0  0  0  0
  137.7580   75.6040  222.3520 C   0  0  0  0  0  0  0  0  0  0  0  0
  136.7844   75.4067  222.8245 H   0  0  0  0  0  0  0  0  0  0  0  0
  138.5731   75.5982  223.0906 H   0  0  0  0  0  0  0  0  0  0  0  0
  137.7200   76.9990  221.7070 C   0  0  0  0  0  0  0  0  0  0  0  0
  137.8208   76.8954  220.6165 H   0  0  0  0  0  0  0  0  0  0  0  0
  136.7624   77.4785  221.9582 H   0  0  0  0  0  0  0  0  0  0  0  0
  138.6900   77.7410  222.1570 O   0  0  0  0  0  0  0  0  0  0  0  0
  139.6470   78.4720  222.6010 C   0  0  0  0  0  0  0  0  0  0  0  0
  140.9950   78.1230  222.4510 C   0  0  0  0  0  0  0  0  0  0  0  0
  141.2468   77.1860  221.9327 H   0  0  0  0  0  0  0  0  0  0  0  0
  142.0170   78.9140  222.9310 C   0  0  0  0  0  0  0  0  0  0  0  0
  143.0710   78.6254  222.8054 H   0  0  0  0  0  0  0  0  0  0  0  0
  141.6660   80.0780  223.5730 C   0  0  0  0  0  0  0  0  0  0  0  0
  142.9360   81.1000  224.1910 Cl  0  0  0  0  0  0  0  0  0  0  0  0
  140.3680   80.4880  223.7590 C   0  0  0  0  0  0  0  0  0  0  0  0
  140.1349   81.4284  224.2798 H   0  0  0  0  0  0  0  0  0  0  0  0
  139.3740   79.6790  223.2700 C   0  0  0  0  0  0  0  0  0  0  0  0
  137.7140   80.1620  223.4870 Cl  0  0  0  0  0  0  0  0  0  0  0  0
  140.3900   71.0220  224.3460 C   0  0  0  0  0  0  0  0  0  0  0  0
  139.7800   69.7920  224.3750 C   0  0  0  0  0  0  0  0  0  0  0  0
  139.4673   69.3096  223.4372 H   0  0  0  0  0  0  0  0  0  0  0  0
  139.5600   69.1620  225.5840 C   0  0  0  0  0  0  0  0  0  0  0  0
  139.0756   68.1763  225.6455 H   0  0  0  0  0  0  0  0  0  0  0  0
  139.9830   69.8400  226.7140 C   0  0  0  0  0  0  0  0  0  0  0  0
  139.8214   69.3643  227.6926 H   0  0  0  0  0  0  0  0  0  0  0  0
  140.5890   71.0640  226.6880 C   0  0  0  0  0  0  0  0  0  0  0  0
  141.0340   71.7730  227.9180 C   0  0  0  0  0  0  0  0  0  0  0  0
  139.9150   72.2040  228.6040 F   0  0  0  0  0  0  0  0  0  0  0  0
  141.7970   72.8530  227.5580 F   0  0  0  0  0  0  0  0  0  0  0  0
  141.8130   70.9620  228.7190 F   0  0  0  0  0  0  0  0  0  0  0  0
  140.8040   71.6830  225.4720 C   0  0  0  0  0  0  0  0  0  0  0  0
  141.2888   72.6685  225.4103 H   0  0  0  0  0  0  0  0  0  0  0  0
  1  2  1  0
  2  3  2  0
  3  4  1  0
  4  5  1  0
  5  6  2  0
  5  7  1  0
  7  8  1  0
  7  9  1  0
  7 10  1  0
 10 11  1  0
 10 12  1  0
 10 13  1  0
 13 14  1  0
 13 15  1  0
 13 16  1  0
 16 17  1  0
 17 18  2  0
 18 19  1  0
 18 20  1  0
 20 21  1  0
 20 22  2  0
 22 23  1  0
 22 24  1  0
 24 25  1  0
 24 26  2  0
 26 27  1  0
  2 28  1  0
 28 29  2  0
 29 30  1  0
 29 31  1  0
 31 32  1  0
 31 33  2  0
 33 34  1  0
 33 35  1  0
 35 36  1  0
 36 37  1  0
 36 38  1  0
 36 39  1  0
 35 40  2  0
 40 41  1  0
 26 17  1  0
 40 28  1  0
M  CHG  1   4  -1
M  END
>  <UniqueID>  (47) 
19

>  <SMILES>  (47) 
O=C(CCCOc1ccc(Cl)cc1Cl)[N-]/N=C/c1cccc(C(F)(F)F)c1

>  <Energy>  (47) 
140.77416357126367

>  <Genealogy>  (47) 
O=C(CCCOc1ccc(Cl)cc1Cl)[N-]N=Cc1cccc(C(F)(F)F)c1 (protonated)
O=C(CCCOc1ccc(Cl)cc1Cl)[N-]/N=C/c1cccc(C(F)(F)F)c1 (cis-trans isomerization)
O=C(CCCOc1ccc(Cl)cc1Cl)[N-]/N=C/c1cccc(C(F)(F)F)c1 (3D coordinates assigned)
O=C(CCCOc1ccc(Cl)cc1Cl)[N-]/N=C/c1cccc(C(F)(F)F)c1 (optimized conformer: 140.77416357126367 kcal/mol)

>  <smiles>  (47) 
O=C(CCCOc1ccc(Cl)cc1Cl)NN=Cc1cccc(C(F)(F)F)c1

>  <score_type>  (47) 
oracle

>  <origin>  (47) 
autodockgpu

>  <m_score__min__energy>  (47) 
-6.6200000000000001

>  <m_primary>  (47) 
energy

>  <meeko>  (47) 
{"free_energy": -6.51, "intermolecular_energy": -9.49, "internal_energy": -0.85, "cluster_size": 10, "cluster_id": 1, "rank_in_cluster": 2}

>  <energy>  (47) 
-6.38

>  <cluster_rmsd>  (47) 
1.53

>  <rmsd>  (47) 
273.36

>  <cluster>  (47) 
1

$$$$
VHXSVHVNRGGTDL-PKHXXGQGNA-M
     RDKit          3D

 41 42  0  0  0  0  0  0  0  0999 V2000
  141.7957   76.3310  221.4454 H   0  0  0  0  0  0  0  0  0  0  0  0
  141.0760   76.9790  221.9670 C   0  0  0  0  0  0  0  0  0  0  0  0
  139.9230   76.5570  222.3160 N   0  0  0  0  0  0  0  0  0  0  0  0
  139.5400   75.2250  222.3920 N   0  0  0  0  0  0  0  0  0  0  0  0
  139.3960   74.3560  221.2750 C   0  0  0  0  0  0  0  0  0  0  0  0
  138.3460   74.2670  220.5920 O   0  0  0  0  0  0  0  0  0  0  0  0
  140.6020   73.5140  220.9370 C   0  0  0  0  0  0  0  0  0  0  0  0
  140.4213   72.9910  219.9863 H   0  0  0  0  0  0  0  0  0  0  0  0
  141.4785   74.1731  220.8518 H   0  0  0  0  0  0  0  0  0  0  0  0
  140.8650   72.5040  222.0100 C   0  0  0  0  0  0  0  0  0  0  0  0
  141.3844   71.6427  221.5647 H   0  0  0  0  0  0  0  0  0  0  0  0
  141.4785   72.9888  222.7837 H   0  0  0  0  0  0  0  0  0  0  0  0
  139.5720   72.0090  222.6790 C   0  0  0  0  0  0  0  0  0  0  0  0
  138.9245   72.8715  222.8955 H   0  0  0  0  0  0  0  0  0  0  0  0
  139.0645   71.3126  221.9953 H   0  0  0  0  0  0  0  0  0  0  0  0
  139.8380   71.3850  223.7900 O   0  0  0  0  0  0  0  0  0  0  0  0
  140.1000   70.7680  224.8850 C   0  0  0  0  0  0  0  0  0  0  0  0
  140.8060   71.3650  225.9360 C   0  0  0  0  0  0  0  0  0  0  0  0
  141.1514   72.4031  225.8220 H   0  0  0  0  0  0  0  0  0  0  0  0
  141.0830   70.6960  227.1090 C   0  0  0  0  0  0  0  0  0  0  0  0
  141.6389   71.1799  227.9256 H   0  0  0  0  0  0  0  0  0  0  0  0
  140.6370   69.4000  227.2180 C   0  0  0  0  0  0  0  0  0  0  0  0
  140.9710   68.5280  228.6890 Cl  0  0  0  0  0  0  0  0  0  0  0  0
  139.9380   68.7470  226.2310 C   0  0  0  0  0  0  0  0  0  0  0  0
  139.5994   67.7087  226.3623 H   0  0  0  0  0  0  0  0  0  0  0  0
  139.6790   69.4400  225.0760 C   0  0  0  0  0  0  0  0  0  0  0  0
  138.7970   68.6460  223.8000 Cl  0  0  0  0  0  0  0  0  0  0  0  0
  141.3930   78.3790  222.2990 C   0  0  0  0  0  0  0  0  0  0  0  0
  141.9500   78.6610  223.5220 C   0  0  0  0  0  0  0  0  0  0  0  0
  142.1536   77.8490  224.2356 H   0  0  0  0  0  0  0  0  0  0  0  0
  142.2540   79.9670  223.8540 C   0  0  0  0  0  0  0  0  0  0  0  0
  142.7017   80.2305  224.8236 H   0  0  0  0  0  0  0  0  0  0  0  0
  141.9640   80.9250  222.8990 C   0  0  0  0  0  0  0  0  0  0  0  0
  142.1941   81.9747  223.1341 H   0  0  0  0  0  0  0  0  0  0  0  0
  141.4090   80.6470  221.6810 C   0  0  0  0  0  0  0  0  0  0  0  0
  141.1060   81.6970  220.6710 C   0  0  0  0  0  0  0  0  0  0  0  0
  139.7630   81.6240  220.3530 F   0  0  0  0  0  0  0  0  0  0  0  0
  141.8580   81.4660  219.5500 F   0  0  0  0  0  0  0  0  0  0  0  0
  141.4270   82.9570  221.1360 F   0  0  0  0  0  0  0  0  0  0  0  0
  141.1100   79.3380  221.3610 C   0  0  0  0  0  0  0  0  0  0  0  0
  140.6622   79.0746  220.3914 H   0  0  0  0  0  0  0  0  0  0  0  0
  1  2  1  0
  2  3  2  0
  3  4  1  0
  4  5  1  0
  5  6  2  0
  5  7  1  0
  7  8  1  0
  7  9  1  0
  7 10  1  0
 10 11  1  0
 10 12  1  0
 10 13  1  0
 13 14  1  0
 13 15  1  0
 13 16  1  0
 16 17  1  0
 17 18  2  0
 18 19  1  0
 18 20  1  0
 20 21  1  0
 20 22  2  0
 22 23  1  0
 22 24  1  0
 24 25  1  0
 24 26  2  0
 26 27  1  0
  2 28  1  0
 28 29  2  0
 29 30  1  0
 29 31  1  0
 31 32  1  0
 31 33  2  0
 33 34  1  0
 33 35  1  0
 35 36  1  0
 36 37  1  0
 36 38  1  0
 36 39  1  0
 35 40  2  0
 40 41  1  0
 26 17  1  0
 40 28  1  0
M  CHG  1   4  -1
M  END
>  <UniqueID>  (48) 
19

>  <SMILES>  (48) 
O=C(CCCOc1ccc(Cl)cc1Cl)[N-]/N=C/c1cccc(C(F)(F)F)c1

>  <Energy>  (48) 
140.77416357126367

>  <Genealogy>  (48) 
O=C(CCCOc1ccc(Cl)cc1Cl)[N-]N=Cc1cccc(C(F)(F)F)c1 (protonated)
O=C(CCCOc1ccc(Cl)cc1Cl)[N-]/N=C/c1cccc(C(F)(F)F)c1 (cis-trans isomerization)
O=C(CCCOc1ccc(Cl)cc1Cl)[N-]/N=C/c1cccc(C(F)(F)F)c1 (3D coordinates assigned)
O=C(CCCOc1ccc(Cl)cc1Cl)[N-]/N=C/c1cccc(C(F)(F)F)c1 (optimized conformer: 140.77416357126367 kcal/mol)

>  <smiles>  (48) 
O=C(CCCOc1ccc(Cl)cc1Cl)NN=Cc1cccc(C(F)(F)F)c1

>  <score_type>  (48) 
oracle

>  <origin>  (48) 
autodockgpu

>  <m_score__min__energy>  (48) 
-6.6200000000000001

>  <m_primary>  (48) 
energy

>  <meeko>  (48) 
{"free_energy": -6.3, "intermolecular_energy": -9.28, "internal_energy": -0.75, "cluster_size": 2, "cluster_id": 3, "rank_in_cluster": 1}

>  <energy>  (48) 
-6.38

>  <cluster_rmsd>  (48) 
1.07

>  <rmsd>  (48) 
273.59

>  <cluster>  (48) 
1

$$$$
VHXSVHVNRGGTDL-PKHXXGQGNA-M
     RDKit          3D

 41 42  0  0  0  0  0  0  0  0999 V2000
  139.7200   68.1701  223.8643 H   0  0  0  0  0  0  0  0  0  0  0  0
  139.1820   68.6020  224.7210 C   0  0  0  0  0  0  0  0  0  0  0  0
  137.9440   68.9060  224.6530 N   0  0  0  0  0  0  0  0  0  0  0  0
  137.2100   69.0440  223.4820 N   0  0  0  0  0  0  0  0  0  0  0  0
  136.5940   70.2490  223.0470 C   0  0  0  0  0  0  0  0  0  0  0  0
  135.4670   70.2960  222.4950 O   0  0  0  0  0  0  0  0  0  0  0  0
  137.3810   71.5150  223.2860 C   0  0  0  0  0  0  0  0  0  0  0  0
  136.7653   72.3814  223.0025 H   0  0  0  0  0  0  0  0  0  0  0  0
  137.6488   71.5680  224.3516 H   0  0  0  0  0  0  0  0  0  0  0  0
  138.6390   71.5200  222.4740 C   0  0  0  0  0  0  0  0  0  0  0  0
  139.4667   71.1599  223.1028 H   0  0  0  0  0  0  0  0  0  0  0  0
  138.4792   70.8658  221.6042 H   0  0  0  0  0  0  0  0  0  0  0  0
  138.9920   72.9210  221.9480 C   0  0  0  0  0  0  0  0  0  0  0  0
  138.3641   73.1471  221.0736 H   0  0  0  0  0  0  0  0  0  0  0  0
  138.8116   73.6547  222.7475 H   0  0  0  0  0  0  0  0  0  0  0  0
  140.2450   72.9800  221.6010 O   0  0  0  0  0  0  0  0  0  0  0  0
  141.4810   73.0380  221.2590 C   0  0  0  0  0  0  0  0  0  0  0  0
  142.3060   71.9080  221.2140 C   0  0  0  0  0  0  0  0  0  0  0  0
  141.8815   70.9293  221.4821 H   0  0  0  0  0  0  0  0  0  0  0  0
  143.6330   71.9800  220.8450 C   0  0  0  0  0  0  0  0  0  0  0  0
  144.2676   71.0821  220.8143 H   0  0  0  0  0  0  0  0  0  0  0  0
  144.1310   73.2190  220.5170 C   0  0  0  0  0  0  0  0  0  0  0  0
  145.8040   73.3420  220.0460 Cl  0  0  0  0  0  0  0  0  0  0  0  0
  143.3850   74.3720  220.5370 C   0  0  0  0  0  0  0  0  0  0  0  0
  143.8262   75.3425  220.2658 H   0  0  0  0  0  0  0  0  0  0  0  0
  142.0690   74.2670  220.9080 C   0  0  0  0  0  0  0  0  0  0  0  0
  141.0890   75.7080  220.9480 Cl  0  0  0  0  0  0  0  0  0  0  0  0
  139.8520   68.8600  226.0070 C   0  0  0  0  0  0  0  0  0  0  0  0
  140.2960   67.7930  226.7500 C   0  0  0  0  0  0  0  0  0  0  0  0
  140.1493   66.7665  226.3828 H   0  0  0  0  0  0  0  0  0  0  0  0
  140.9270   68.0120  227.9590 C   0  0  0  0  0  0  0  0  0  0  0  0
  141.2968   67.1825  228.5796 H   0  0  0  0  0  0  0  0  0  0  0  0
  141.0680   69.3330  228.3460 C   0  0  0  0  0  0  0  0  0  0  0  0
  141.5656   69.5398  229.3049 H   0  0  0  0  0  0  0  0  0  0  0  0
  140.6270   70.3960  227.6100 C   0  0  0  0  0  0  0  0  0  0  0  0
  140.7900   71.8080  228.0500 C   0  0  0  0  0  0  0  0  0  0  0  0
  141.0350   72.5880  226.9360 F   0  0  0  0  0  0  0  0  0  0  0  0
  141.8550   71.8860  228.9090 F   0  0  0  0  0  0  0  0  0  0  0  0
  139.6760   72.2620  228.7260 F   0  0  0  0  0  0  0  0  0  0  0  0
  139.9980   70.1640  226.4030 C   0  0  0  0  0  0  0  0  0  0  0  0
  139.6282   70.9939  225.7829 H   0  0  0  0  0  0  0  0  0  0  0  0
  1  2  1  0
  2  3  2  0
  3  4  1  0
  4  5  1  0
  5  6  2  0
  5  7  1  0
  7  8  1  0
  7  9  1  0
  7 10  1  0
 10 11  1  0
 10 12  1  0
 10 13  1  0
 13 14  1  0
 13 15  1  0
 13 16  1  0
 16 17  1  0
 17 18  2  0
 18 19  1  0
 18 20  1  0
 20 21  1  0
 20 22  2  0
 22 23  1  0
 22 24  1  0
 24 25  1  0
 24 26  2  0
 26 27  1  0
  2 28  1  0
 28 29  2  0
 29 30  1  0
 29 31  1  0
 31 32  1  0
 31 33  2  0
 33 34  1  0
 33 35  1  0
 35 36  1  0
 36 37  1  0
 36 38  1  0
 36 39  1  0
 35 40  2  0
 40 41  1  0
 26 17  1  0
 40 28  1  0
M  CHG  1   4  -1
M  END
>  <UniqueID>  (49) 
19

>  <SMILES>  (49) 
O=C(CCCOc1ccc(Cl)cc1Cl)[N-]/N=C/c1cccc(C(F)(F)F)c1

>  <Energy>  (49) 
140.77416357126367

>  <Genealogy>  (49) 
O=C(CCCOc1ccc(Cl)cc1Cl)[N-]N=Cc1cccc(C(F)(F)F)c1 (protonated)
O=C(CCCOc1ccc(Cl)cc1Cl)[N-]/N=C/c1cccc(C(F)(F)F)c1 (cis-trans isomerization)
O=C(CCCOc1ccc(Cl)cc1Cl)[N-]/N=C/c1cccc(C(F)(F)F)c1 (3D coordinates assigned)
O=C(CCCOc1ccc(Cl)cc1Cl)[N-]/N=C/c1cccc(C(F)(F)F)c1 (optimized conformer: 140.77416357126367 kcal/mol)

>  <smiles>  (49) 
O=C(CCCOc1ccc(Cl)cc1Cl)NN=Cc1cccc(C(F)(F)F)c1

>  <score_type>  (49) 
oracle

>  <origin>  (49) 
autodockgpu

>  <m_score__min__energy>  (49) 
-6.6200000000000001

>  <m_primary>  (49) 
energy

>  <meeko>  (49) 
{"free_energy": -5.74, "intermolecular_energy": -8.72, "internal_energy": -0.86, "cluster_size": 1, "cluster_id": 6, "rank_in_cluster": 1}

>  <energy>  (49) 
-6.37

>  <cluster_rmsd>  (49) 
1.21

>  <rmsd>  (49) 
273.7

>  <cluster>  (49) 
1

$$$$
VHXSVHVNRGGTDL-PKHXXGQGNA-M
     RDKit          3D

 41 42  0  0  0  0  0  0  0  0999 V2000
  140.1662   70.7376  222.2501 H   0  0  0  0  0  0  0  0  0  0  0  0
  140.0970   71.3650  223.1510 C   0  0  0  0  0  0  0  0  0  0  0  0
  140.0810   72.6390  223.0820 N   0  0  0  0  0  0  0  0  0  0  0  0
  140.7740   73.4060  222.1550 N   0  0  0  0  0  0  0  0  0  0  0  0
  140.3890   74.7060  221.7250 C   0  0  0  0  0  0  0  0  0  0  0  0
  139.9470   75.5930  222.4960 O   0  0  0  0  0  0  0  0  0  0  0  0
  140.5400   74.9820  220.2490 C   0  0  0  0  0  0  0  0  0  0  0  0
  141.1059   75.9154  220.1129 H   0  0  0  0  0  0  0  0  0  0  0  0
  141.0737   74.1390  219.7859 H   0  0  0  0  0  0  0  0  0  0  0  0
  139.2010   75.1200  219.5930 C   0  0  0  0  0  0  0  0  0  0  0  0
  139.2617   74.7057  218.5758 H   0  0  0  0  0  0  0  0  0  0  0  0
  138.4691   74.5753  220.2075 H   0  0  0  0  0  0  0  0  0  0  0  0
  138.7400   76.5830  219.5030 C   0  0  0  0  0  0  0  0  0  0  0  0
  138.8718   76.9401  218.4710 H   0  0  0  0  0  0  0  0  0  0  0  0
  137.6806   76.6381  219.7940 H   0  0  0  0  0  0  0  0  0  0  0  0
  139.4340   77.3350  220.3070 O   0  0  0  0  0  0  0  0  0  0  0  0
  140.1170   78.0780  221.1000 C   0  0  0  0  0  0  0  0  0  0  0  0
  139.6170   78.5320  222.3270 C   0  0  0  0  0  0  0  0  0  0  0  0
  138.5988   78.2426  222.6260 H   0  0  0  0  0  0  0  0  0  0  0  0
  140.3590   79.3300  223.1730 C   0  0  0  0  0  0  0  0  0  0  0  0
  139.9515   79.6788  224.1334 H   0  0  0  0  0  0  0  0  0  0  0  0
  141.6270   79.6720  222.7690 C   0  0  0  0  0  0  0  0  0  0  0  0
  142.5890   80.6790  223.8170 Cl  0  0  0  0  0  0  0  0  0  0  0  0
  142.1870   79.2660  221.5810 C   0  0  0  0  0  0  0  0  0  0  0  0
  143.2070   79.5653  221.2982 H   0  0  0  0  0  0  0  0  0  0  0  0
  141.4240   78.4730  220.7620 C   0  0  0  0  0  0  0  0  0  0  0  0
  142.0970   77.9390  219.2460 Cl  0  0  0  0  0  0  0  0  0  0  0  0
  140.0180   70.7780  224.5000 C   0  0  0  0  0  0  0  0  0  0  0  0
  139.4930   69.5170  224.6450 C   0  0  0  0  0  0  0  0  0  0  0  0
  139.1413   68.9612  223.7633 H   0  0  0  0  0  0  0  0  0  0  0  0
  139.4080   68.9490  225.9010 C   0  0  0  0  0  0  0  0  0  0  0  0
  138.9936   67.9419  226.0558 H   0  0  0  0  0  0  0  0  0  0  0  0
  139.8730   69.7170  226.9540 C   0  0  0  0  0  0  0  0  0  0  0  0
  139.8185   69.2917  227.9670 H   0  0  0  0  0  0  0  0  0  0  0  0
  140.3960   70.9720  226.8120 C   0  0  0  0  0  0  0  0  0  0  0  0
  140.8880   71.7780  227.9620 C   0  0  0  0  0  0  0  0  0  0  0  0
  139.8050   72.1390  228.7390 F   0  0  0  0  0  0  0  0  0  0  0  0
  141.5070   72.9030  227.4830 F   0  0  0  0  0  0  0  0  0  0  0  0
  141.8140   71.0800  228.7120 F   0  0  0  0  0  0  0  0  0  0  0  0
  140.4750   71.5290  225.5510 C   0  0  0  0  0  0  0  0  0  0  0  0
  140.8887   72.5364  225.3962 H   0  0  0  0  0  0  0  0  0  0  0  0
  1  2  1  0
  2  3  2  0
  3  4  1  0
  4  5  1  0
  5  6  2  0
  5  7  1  0
  7  8  1  0
  7  9  1  0
  7 10  1  0
 10 11  1  0
 10 12  1  0
 10 13  1  0
 13 14  1  0
 13 15  1  0
 13 16  1  0
 16 17  1  0
 17 18  2  0
 18 19  1  0
 18 20  1  0
 20 21  1  0
 20 22  2  0
 22 23  1  0
 22 24  1  0
 24 25  1  0
 24 26  2  0
 26 27  1  0
  2 28  1  0
 28 29  2  0
 29 30  1  0
 29 31  1  0
 31 32  1  0
 31 33  2  0
 33 34  1  0
 33 35  1  0
 35 36  1  0
 36 37  1  0
 36 38  1  0
 36 39  1  0
 35 40  2  0
 40 41  1  0
 26 17  1  0
 40 28  1  0
M  CHG  1   4  -1
M  END
>  <UniqueID>  (50) 
19

>  <SMILES>  (50) 
O=C(CCCOc1ccc(Cl)cc1Cl)[N-]/N=C/c1cccc(C(F)(F)F)c1

>  <Energy>  (50) 
140.77416357126367

>  <Genealogy>  (50) 
O=C(CCCOc1ccc(Cl)cc1Cl)[N-]N=Cc1cccc(C(F)(F)F)c1 (protonated)
O=C(CCCOc1ccc(Cl)cc1Cl)[N-]/N=C/c1cccc(C(F)(F)F)c1 (cis-trans isomerization)
O=C(CCCOc1ccc(Cl)cc1Cl)[N-]/N=C/c1cccc(C(F)(F)F)c1 (3D coordinates assigned)
O=C(CCCOc1ccc(Cl)cc1Cl)[N-]/N=C/c1cccc(C(F)(F)F)c1 (optimized conformer: 140.77416357126367 kcal/mol)

>  <smiles>  (50) 
O=C(CCCOc1ccc(Cl)cc1Cl)NN=Cc1cccc(C(F)(F)F)c1

>  <score_type>  (50) 
oracle

>  <origin>  (50) 
autodockgpu

>  <m_score__min__energy>  (50) 
-6.6200000000000001

>  <m_primary>  (50) 
energy

>  <meeko>  (50) 
{"free_energy": -6.38, "intermolecular_energy": -9.36, "internal_energy": -0.9, "cluster_size": 10, "cluster_id": 1, "rank_in_cluster": 7}

>  <energy>  (50) 
-6.28

>  <cluster_rmsd>  (50) 
1.54

>  <rmsd>  (50) 
273.9

>  <cluster>  (50) 
1

$$$$
VHXSVHVNRGGTDL-PKHXXGQGNA-M
     RDKit          3D

 41 42  0  0  0  0  0  0  0  0999 V2000
  141.1116   70.9893  222.2637 H   0  0  0  0  0  0  0  0  0  0  0  0
  140.5750   71.5170  223.0660 C   0  0  0  0  0  0  0  0  0  0  0  0
  140.1420   72.7090  222.9140 N   0  0  0  0  0  0  0  0  0  0  0  0
  140.6160   73.6270  221.9870 N   0  0  0  0  0  0  0  0  0  0  0  0
  139.9340   74.8120  221.5950 C   0  0  0  0  0  0  0  0  0  0  0  0
  139.2410   75.5090  222.3760 O   0  0  0  0  0  0  0  0  0  0  0  0
  140.0820   75.2070  220.1450 C   0  0  0  0  0  0  0  0  0  0  0  0
  140.6826   74.4471  219.6236 H   0  0  0  0  0  0  0  0  0  0  0  0
  139.0808   75.2785  219.6950 H   0  0  0  0  0  0  0  0  0  0  0  0
  140.7590   76.5360  220.0230 C   0  0  0  0  0  0  0  0  0  0  0  0
  141.5379   76.4657  219.2495 H   0  0  0  0  0  0  0  0  0  0  0  0
  139.9925   77.2791  219.7578 H   0  0  0  0  0  0  0  0  0  0  0  0
  141.4110   76.9860  221.3400 C   0  0  0  0  0  0  0  0  0  0  0  0
  141.5737   76.1070  221.9810 H   0  0  0  0  0  0  0  0  0  0  0  0
  142.3696   77.4744  221.1110 H   0  0  0  0  0  0  0  0  0  0  0  0
  140.6480   77.8350  221.9650 O   0  0  0  0  0  0  0  0  0  0  0  0
  139.8950   78.6720  222.5820 C   0  0  0  0  0  0  0  0  0  0  0  0
  138.5080   78.5080  222.6810 C   0  0  0  0  0  0  0  0  0  0  0  0
  138.0421   77.6285  222.2126 H   0  0  0  0  0  0  0  0  0  0  0  0
  137.7060   79.4120  223.3460 C   0  0  0  0  0  0  0  0  0  0  0  0
  136.6175   79.2687  223.4142 H   0  0  0  0  0  0  0  0  0  0  0  0
  138.3210   80.4990  223.9200 C   0  0  0  0  0  0  0  0  0  0  0  0
  137.3350   81.6590  224.7670 Cl  0  0  0  0  0  0  0  0  0  0  0  0
  139.6750   80.7290  223.8650 C   0  0  0  0  0  0  0  0  0  0  0  0
  140.1238   81.6148  224.3383 H   0  0  0  0  0  0  0  0  0  0  0  0
  140.4450   79.8110  223.1970 C   0  0  0  0  0  0  0  0  0  0  0  0
  142.1660   80.0670  223.1030 Cl  0  0  0  0  0  0  0  0  0  0  0  0
  140.3180   70.8860  224.3720 C   0  0  0  0  0  0  0  0  0  0  0  0
  139.6160   69.7060  224.4120 C   0  0  0  0  0  0  0  0  0  0  0  0
  139.2560   69.2469  223.4794 H   0  0  0  0  0  0  0  0  0  0  0  0
  139.3630   69.0970  225.6260 C   0  0  0  0  0  0  0  0  0  0  0  0
  138.8050   68.1517  225.6966 H   0  0  0  0  0  0  0  0  0  0  0  0
  139.8510   69.7430  226.7480 C   0  0  0  0  0  0  0  0  0  0  0  0
  139.6660   69.2830  227.7300 H   0  0  0  0  0  0  0  0  0  0  0  0
  140.5490   70.9180  226.7110 C   0  0  0  0  0  0  0  0  0  0  0  0
  141.0620   71.5930  227.9340 C   0  0  0  0  0  0  0  0  0  0  0  0
  141.7810   70.6730  228.6730 F   0  0  0  0  0  0  0  0  0  0  0  0
  139.9990   72.0460  228.6710 F   0  0  0  0  0  0  0  0  0  0  0  0
  141.8470   72.6840  227.6200 F   0  0  0  0  0  0  0  0  0  0  0  0
  140.7950   71.5160  225.4910 C   0  0  0  0  0  0  0  0  0  0  0  0
  141.3524   72.4617  225.4204 H   0  0  0  0  0  0  0  0  0  0  0  0
  1  2  1  0
  2  3  2  0
  3  4  1  0
  4  5  1  0
  5  6  2  0
  5  7  1  0
  7  8  1  0
  7  9  1  0
  7 10  1  0
 10 11  1  0
 10 12  1  0
 10 13  1  0
 13 14  1  0
 13 15  1  0
 13 16  1  0
 16 17  1  0
 17 18  2  0
 18 19  1  0
 18 20  1  0
 20 21  1  0
 20 22  2  0
 22 23  1  0
 22 24  1  0
 24 25  1  0
 24 26  2  0
 26 27  1  0
  2 28  1  0
 28 29  2  0
 29 30  1  0
 29 31  1  0
 31 32  1  0
 31 33  2  0
 33 34  1  0
 33 35  1  0
 35 36  1  0
 36 37  1  0
 36 38  1  0
 36 39  1  0
 35 40  2  0
 40 41  1  0
 26 17  1  0
 40 28  1  0
M  CHG  1   4  -1
M  END
>  <UniqueID>  (51) 
19

>  <SMILES>  (51) 
O=C(CCCOc1ccc(Cl)cc1Cl)[N-]/N=C/c1cccc(C(F)(F)F)c1

>  <Energy>  (51) 
140.77416357126367

>  <Genealogy>  (51) 
O=C(CCCOc1ccc(Cl)cc1Cl)[N-]N=Cc1cccc(C(F)(F)F)c1 (protonated)
O=C(CCCOc1ccc(Cl)cc1Cl)[N-]/N=C/c1cccc(C(F)(F)F)c1 (cis-trans isomerization)
O=C(CCCOc1ccc(Cl)cc1Cl)[N-]/N=C/c1cccc(C(F)(F)F)c1 (3D coordinates assigned)
O=C(CCCOc1ccc(Cl)cc1Cl)[N-]/N=C/c1cccc(C(F)(F)F)c1 (optimized conformer: 140.77416357126367 kcal/mol)

>  <smiles>  (51) 
O=C(CCCOc1ccc(Cl)cc1Cl)NN=Cc1cccc(C(F)(F)F)c1

>  <score_type>  (51) 
oracle

>  <origin>  (51) 
autodockgpu

>  <m_score__min__energy>  (51) 
-6.6200000000000001

>  <m_primary>  (51) 
energy

>  <meeko>  (51) 
{"free_energy": -6.5, "intermolecular_energy": -9.48, "internal_energy": -0.73, "cluster_size": 10, "cluster_id": 1, "rank_in_cluster": 3}

>  <energy>  (51) 
-6.57

>  <cluster_rmsd>  (51) 
0.0

>  <rmsd>  (51) 
273.59

>  <cluster>  (51) 
2

$$$$
VHXSVHVNRGGTDL-PKHXXGQGNA-M
     RDKit          3D

 41 42  0  0  0  0  0  0  0  0999 V2000
  141.3408   71.1969  222.4795 H   0  0  0  0  0  0  0  0  0  0  0  0
  140.4900   71.5090  223.1030 C   0  0  0  0  0  0  0  0  0  0  0  0
  139.6560   72.3910  222.7080 N   0  0  0  0  0  0  0  0  0  0  0  0
  139.9360   73.7370  222.5170 N   0  0  0  0  0  0  0  0  0  0  0  0
  140.7320   74.2600  221.4600 C   0  0  0  0  0  0  0  0  0  0  0  0
  141.8750   73.8270  221.1680 O   0  0  0  0  0  0  0  0  0  0  0  0
  140.1240   75.3990  220.6790 C   0  0  0  0  0  0  0  0  0  0  0  0
  140.5097   76.3516  221.0713 H   0  0  0  0  0  0  0  0  0  0  0  0
  140.3946   75.2836  219.6191 H   0  0  0  0  0  0  0  0  0  0  0  0
  138.6320   75.3880  220.7970 C   0  0  0  0  0  0  0  0  0  0  0  0
  138.2052   75.9075  219.9264 H   0  0  0  0  0  0  0  0  0  0  0  0
  138.3071   74.3379  220.8397 H   0  0  0  0  0  0  0  0  0  0  0  0
  138.1390   76.0830  222.0770 C   0  0  0  0  0  0  0  0  0  0  0  0
  137.1399   76.5062  221.8964 H   0  0  0  0  0  0  0  0  0  0  0  0
  138.0981   75.3419  222.8889 H   0  0  0  0  0  0  0  0  0  0  0  0
  138.9520   77.0390  222.4230 O   0  0  0  0  0  0  0  0  0  0  0  0
  139.7520   77.9820  222.7650 C   0  0  0  0  0  0  0  0  0  0  0  0
  141.1420   77.8140  222.8060 C   0  0  0  0  0  0  0  0  0  0  0  0
  141.5673   76.8366  222.5345 H   0  0  0  0  0  0  0  0  0  0  0  0
  141.9950   78.8320  223.1750 C   0  0  0  0  0  0  0  0  0  0  0  0
  143.0846   78.6835  223.2019 H   0  0  0  0  0  0  0  0  0  0  0  0
  141.4300   80.0400  223.5080 C   0  0  0  0  0  0  0  0  0  0  0  0
  142.4830   81.3470  223.9780 Cl  0  0  0  0  0  0  0  0  0  0  0  0
  140.0780   80.2820  223.4920 C   0  0  0  0  0  0  0  0  0  0  0  0
  139.6704   81.2660  223.7669 H   0  0  0  0  0  0  0  0  0  0  0  0
  139.2560   79.2490  223.1200 C   0  0  0  0  0  0  0  0  0  0  0  0
  137.5340   79.5150  223.0890 Cl  0  0  0  0  0  0  0  0  0  0  0  0
  140.2540   70.9310  224.4370 C   0  0  0  0  0  0  0  0  0  0  0  0
  139.6090   69.7220  224.5330 C   0  0  0  0  0  0  0  0  0  0  0  0
  139.2780   69.2002  223.6230 H   0  0  0  0  0  0  0  0  0  0  0  0
  139.3770   69.1630  225.7740 C   0  0  0  0  0  0  0  0  0  0  0  0
  138.8648   68.1964  225.8890 H   0  0  0  0  0  0  0  0  0  0  0  0
  139.8250   69.8870  226.8650 C   0  0  0  0  0  0  0  0  0  0  0  0
  139.6545   69.4682  227.8678 H   0  0  0  0  0  0  0  0  0  0  0  0
  140.4660   71.0900  226.7730 C   0  0  0  0  0  0  0  0  0  0  0  0
  140.9370   71.8490  227.9630 C   0  0  0  0  0  0  0  0  0  0  0  0
  139.8340   72.2430  228.6960 F   0  0  0  0  0  0  0  0  0  0  0  0
  141.6270   72.9550  227.5410 F   0  0  0  0  0  0  0  0  0  0  0  0
  141.7940   71.0950  228.7410 F   0  0  0  0  0  0  0  0  0  0  0  0
  140.6920   71.6380  225.5260 C   0  0  0  0  0  0  0  0  0  0  0  0
  141.2039   72.6048  225.4112 H   0  0  0  0  0  0  0  0  0  0  0  0
  1  2  1  0
  2  3  2  0
  3  4  1  0
  4  5  1  0
  5  6  2  0
  5  7  1  0
  7  8  1  0
  7  9  1  0
  7 10  1  0
 10 11  1  0
 10 12  1  0
 10 13  1  0
 13 14  1  0
 13 15  1  0
 13 16  1  0
 16 17  1  0
 17 18  2  0
 18 19  1  0
 18 20  1  0
 20 21  1  0
 20 22  2  0
 22 23  1  0
 22 24  1  0
 24 25  1  0
 24 26  2  0
 26 27  1  0
  2 28  1  0
 28 29  2  0
 29 30  1  0
 29 31  1  0
 31 32  1  0
 31 33  2  0
 33 34  1  0
 33 35  1  0
 35 36  1  0
 36 37  1  0
 36 38  1  0
 36 39  1  0
 35 40  2  0
 40 41  1  0
 26 17  1  0
 40 28  1  0
M  CHG  1   4  -1
M  END
>  <UniqueID>  (52) 
19

>  <SMILES>  (52) 
O=C(CCCOc1ccc(Cl)cc1Cl)[N-]/N=C/c1cccc(C(F)(F)F)c1

>  <Energy>  (52) 
140.77416357126367

>  <Genealogy>  (52) 
O=C(CCCOc1ccc(Cl)cc1Cl)[N-]N=Cc1cccc(C(F)(F)F)c1 (protonated)
O=C(CCCOc1ccc(Cl)cc1Cl)[N-]/N=C/c1cccc(C(F)(F)F)c1 (cis-trans isomerization)
O=C(CCCOc1ccc(Cl)cc1Cl)[N-]/N=C/c1cccc(C(F)(F)F)c1 (3D coordinates assigned)
O=C(CCCOc1ccc(Cl)cc1Cl)[N-]/N=C/c1cccc(C(F)(F)F)c1 (optimized conformer: 140.77416357126367 kcal/mol)

>  <smiles>  (52) 
O=C(CCCOc1ccc(Cl)cc1Cl)NN=Cc1cccc(C(F)(F)F)c1

>  <score_type>  (52) 
oracle

>  <origin>  (52) 
autodockgpu

>  <m_score__min__energy>  (52) 
-6.6200000000000001

>  <m_primary>  (52) 
energy

>  <meeko>  (52) 
{"free_energy": -6.62, "intermolecular_energy": -9.6, "internal_energy": -0.84, "cluster_size": 10, "cluster_id": 1, "rank_in_cluster": 1}

>  <energy>  (52) 
-6.52

>  <cluster_rmsd>  (52) 
1.48

>  <rmsd>  (52) 
273.39

>  <cluster>  (52) 
2

$$$$
VHXSVHVNRGGTDL-PKHXXGQGNA-M
     RDKit          3D

 41 42  0  0  0  0  0  0  0  0999 V2000
  141.1266   71.1169  222.2994 H   0  0  0  0  0  0  0  0  0  0  0  0
  140.5110   71.5810  223.0840 C   0  0  0  0  0  0  0  0  0  0  0  0
  139.9490   72.7150  222.9140 N   0  0  0  0  0  0  0  0  0  0  0  0
  140.4170   73.7330  222.0940 N   0  0  0  0  0  0  0  0  0  0  0  0
  139.7570   74.9750  221.8830 C   0  0  0  0  0  0  0  0  0  0  0  0
  139.7650   75.9180  222.7120 O   0  0  0  0  0  0  0  0  0  0  0  0
  139.0200   75.1130  220.5730 C   0  0  0  0  0  0  0  0  0  0  0  0
  139.7133   75.4913  219.8073 H   0  0  0  0  0  0  0  0  0  0  0  0
  138.6298   74.1265  220.2824 H   0  0  0  0  0  0  0  0  0  0  0  0
  137.8710   76.0630  220.7070 C   0  0  0  0  0  0  0  0  0  0  0  0
  137.0010   75.6410  220.1825 H   0  0  0  0  0  0  0  0  0  0  0  0
  137.6699   76.1960  221.7803 H   0  0  0  0  0  0  0  0  0  0  0  0
  138.1810   77.4470  220.1140 C   0  0  0  0  0  0  0  0  0  0  0  0
  138.5972   77.3218  219.1035 H   0  0  0  0  0  0  0  0  0  0  0  0
  137.2497   78.0310  220.0737 H   0  0  0  0  0  0  0  0  0  0  0  0
  139.0420   78.0830  220.8550 O   0  0  0  0  0  0  0  0  0  0  0  0
  139.8920   78.7090  221.5850 C   0  0  0  0  0  0  0  0  0  0  0  0
  139.5080   79.5560  222.6320 C   0  0  0  0  0  0  0  0  0  0  0  0
  138.4363   79.6913  222.8399 H   0  0  0  0  0  0  0  0  0  0  0  0
  140.4270   80.2260  223.4110 C   0  0  0  0  0  0  0  0  0  0  0  0
  140.1085   80.8876  224.2300 H   0  0  0  0  0  0  0  0  0  0  0  0
  141.7580   80.0340  223.1230 C   0  0  0  0  0  0  0  0  0  0  0  0
  142.9440   80.8670  224.0910 Cl  0  0  0  0  0  0  0  0  0  0  0  0
  142.2120   79.2210  222.1130 C   0  0  0  0  0  0  0  0  0  0  0  0
  143.2878   79.0984  221.9188 H   0  0  0  0  0  0  0  0  0  0  0  0
  141.2730   78.5680  221.3560 C   0  0  0  0  0  0  0  0  0  0  0  0
  141.8080   77.5290  220.0640 Cl  0  0  0  0  0  0  0  0  0  0  0  0
  140.2920   70.9270  224.3850 C   0  0  0  0  0  0  0  0  0  0  0  0
  139.6540   69.7110  224.4180 C   0  0  0  0  0  0  0  0  0  0  0  0
  139.3160   69.2401  223.4831 H   0  0  0  0  0  0  0  0  0  0  0  0
  139.4380   69.0810  225.6280 C   0  0  0  0  0  0  0  0  0  0  0  0
  138.9305   68.1072  225.6928 H   0  0  0  0  0  0  0  0  0  0  0  0
  139.8950   69.7420  226.7540 C   0  0  0  0  0  0  0  0  0  0  0  0
  139.7379   69.2650  227.7327 H   0  0  0  0  0  0  0  0  0  0  0  0
  140.5300   70.9520  226.7240 C   0  0  0  0  0  0  0  0  0  0  0  0
  141.0110   71.6440  227.9510 C   0  0  0  0  0  0  0  0  0  0  0  0
  141.8420   72.6800  227.5720 F   0  0  0  0  0  0  0  0  0  0  0  0
  141.7110   70.7500  228.7190 F   0  0  0  0  0  0  0  0  0  0  0  0
  139.9610   72.1160  228.7130 F   0  0  0  0  0  0  0  0  0  0  0  0
  140.7400   71.5720  225.5080 C   0  0  0  0  0  0  0  0  0  0  0  0
  141.2473   72.5459  225.4434 H   0  0  0  0  0  0  0  0  0  0  0  0
  1  2  1  0
  2  3  2  0
  3  4  1  0
  4  5  1  0
  5  6  2  0
  5  7  1  0
  7  8  1  0
  7  9  1  0
  7 10  1  0
 10 11  1  0
 10 12  1  0
 10 13  1  0
 13 14  1  0
 13 15  1  0
 13 16  1  0
 16 17  1  0
 17 18  2  0
 18 19  1  0
 18 20  1  0
 20 21  1  0
 20 22  2  0
 22 23  1  0
 22 24  1  0
 24 25  1  0
 24 26  2  0
 26 27  1  0
  2 28  1  0
 28 29  2  0
 29 30  1  0
 29 31  1  0
 31 32  1  0
 31 33  2  0
 33 34  1  0
 33 35  1  0
 35 36  1  0
 36 37  1  0
 36 38  1  0
 36 39  1  0
 35 40  2  0
 40 41  1  0
 26 17  1  0
 40 28  1  0
M  CHG  1   4  -1
M  END
>  <UniqueID>  (53) 
19

>  <SMILES>  (53) 
O=C(CCCOc1ccc(Cl)cc1Cl)[N-]/N=C/c1cccc(C(F)(F)F)c1

>  <Energy>  (53) 
140.77416357126367

>  <Genealogy>  (53) 
O=C(CCCOc1ccc(Cl)cc1Cl)[N-]N=Cc1cccc(C(F)(F)F)c1 (protonated)
O=C(CCCOc1ccc(Cl)cc1Cl)[N-]/N=C/c1cccc(C(F)(F)F)c1 (cis-trans isomerization)
O=C(CCCOc1ccc(Cl)cc1Cl)[N-]/N=C/c1cccc(C(F)(F)F)c1 (3D coordinates assigned)
O=C(CCCOc1ccc(Cl)cc1Cl)[N-]/N=C/c1cccc(C(F)(F)F)c1 (optimized conformer: 140.77416357126367 kcal/mol)

>  <smiles>  (53) 
O=C(CCCOc1ccc(Cl)cc1Cl)NN=Cc1cccc(C(F)(F)F)c1

>  <score_type>  (53) 
oracle

>  <origin>  (53) 
autodockgpu

>  <m_score__min__energy>  (53) 
-6.6200000000000001

>  <m_primary>  (53) 
energy

>  <meeko>  (53) 
{"free_energy": -6.49, "intermolecular_energy": -9.47, "internal_energy": -1.0, "cluster_size": 10, "cluster_id": 1, "rank_in_cluster": 4}

>  <energy>  (53) 
-6.19

>  <cluster_rmsd>  (53) 
1.74

>  <rmsd>  (53) 
273.45

>  <cluster>  (53) 
2

$$$$
VHXSVHVNRGGTDL-PKHXXGQGNA-M
     RDKit          3D

 41 42  0  0  0  0  0  0  0  0999 V2000
  140.9038   72.9264  224.0907 H   0  0  0  0  0  0  0  0  0  0  0  0
  140.7000   71.8720  224.3290 C   0  0  0  0  0  0  0  0  0  0  0  0
  140.3600   71.0330  223.4280 N   0  0  0  0  0  0  0  0  0  0  0  0
  139.2290   71.1220  222.6280 N   0  0  0  0  0  0  0  0  0  0  0  0
  138.4500   72.2980  222.4500 C   0  0  0  0  0  0  0  0  0  0  0  0
  137.2300   72.3760  222.7390 O   0  0  0  0  0  0  0  0  0  0  0  0
  139.1780   73.4900  221.8780 C   0  0  0  0  0  0  0  0  0  0  0  0
  138.5214   74.0029  221.1598 H   0  0  0  0  0  0  0  0  0  0  0  0
  139.4474   74.1670  222.7020 H   0  0  0  0  0  0  0  0  0  0  0  0
  140.4310   73.0630  221.1790 C   0  0  0  0  0  0  0  0  0  0  0  0
  141.2267   72.9344  221.9276 H   0  0  0  0  0  0  0  0  0  0  0  0
  140.2166   72.1214  220.6523 H   0  0  0  0  0  0  0  0  0  0  0  0
  140.8980   74.0880  220.1340 C   0  0  0  0  0  0  0  0  0  0  0  0
  141.8617   73.7628  219.7150 H   0  0  0  0  0  0  0  0  0  0  0  0
  140.1391   74.1542  219.3404 H   0  0  0  0  0  0  0  0  0  0  0  0
  141.0420   75.2640  220.6740 O   0  0  0  0  0  0  0  0  0  0  0  0
  141.1850   76.4230  221.2060 C   0  0  0  0  0  0  0  0  0  0  0  0
  140.7110   76.7280  222.4880 C   0  0  0  0  0  0  0  0  0  0  0  0
  140.1960   75.9453  223.0644 H   0  0  0  0  0  0  0  0  0  0  0  0
  140.8680   77.9760  223.0520 C   0  0  0  0  0  0  0  0  0  0  0  0
  140.4898   78.1995  224.0605 H   0  0  0  0  0  0  0  0  0  0  0  0
  141.5160   78.9300  222.3040 C   0  0  0  0  0  0  0  0  0  0  0  0
  141.7300   80.5180  222.9910 Cl  0  0  0  0  0  0  0  0  0  0  0  0
  142.0080   78.7080  221.0410 C   0  0  0  0  0  0  0  0  0  0  0  0
  142.5201   79.5032  220.4794 H   0  0  0  0  0  0  0  0  0  0  0  0
  141.8360   77.4560  220.5070 C   0  0  0  0  0  0  0  0  0  0  0  0
  142.4440   77.1330  218.9070 Cl  0  0  0  0  0  0  0  0  0  0  0  0
  140.8050   71.3540  225.7040 C   0  0  0  0  0  0  0  0  0  0  0  0
  141.0140   72.2400  226.7320 C   0  0  0  0  0  0  0  0  0  0  0  0
  141.0993   73.3166  226.5228 H   0  0  0  0  0  0  0  0  0  0  0  0
  141.1170   71.7770  228.0290 C   0  0  0  0  0  0  0  0  0  0  0  0
  141.2842   72.4573  228.8770 H   0  0  0  0  0  0  0  0  0  0  0  0
  140.9980   70.4090  228.2020 C   0  0  0  0  0  0  0  0  0  0  0  0
  141.0746   70.0088  229.2237 H   0  0  0  0  0  0  0  0  0  0  0  0
  140.7910   69.5250  227.1800 C   0  0  0  0  0  0  0  0  0  0  0  0
  140.6680   68.0570  227.3930 C   0  0  0  0  0  0  0  0  0  0  0  0
  141.1030   67.7620  228.6700 F   0  0  0  0  0  0  0  0  0  0  0  0
  141.4550   67.4080  226.4770 F   0  0  0  0  0  0  0  0  0  0  0  0
  139.3700   67.6240  227.2080 F   0  0  0  0  0  0  0  0  0  0  0  0
  140.6900   70.0010  225.8880 C   0  0  0  0  0  0  0  0  0  0  0  0
  140.5238   69.3208  225.0396 H   0  0  0  0  0  0  0  0  0  0  0  0
  1  2  1  0
  2  3  2  0
  3  4  1  0
  4  5  1  0
  5  6  2  0
  5  7  1  0
  7  8  1  0
  7  9  1  0
  7 10  1  0
 10 11  1  0
 10 12  1  0
 10 13  1  0
 13 14  1  0
 13 15  1  0
 13 16  1  0
 16 17  1  0
 17 18  2  0
 18 19  1  0
 18 20  1  0
 20 21  1  0
 20 22  2  0
 22 23  1  0
 22 24  1  0
 24 25  1  0
 24 26  2  0
 26 27  1  0
  2 28  1  0
 28 29  2  0
 29 30  1  0
 29 31  1  0
 31 32  1  0
 31 33  2  0
 33 34  1  0
 33 35  1  0
 35 36  1  0
 36 37  1  0
 36 38  1  0
 36 39  1  0
 35 40  2  0
 40 41  1  0
 26 17  1  0
 40 28  1  0
M  CHG  1   4  -1
M  END
>  <UniqueID>  (54) 
19

>  <SMILES>  (54) 
O=C(CCCOc1ccc(Cl)cc1Cl)[N-]/N=C/c1cccc(C(F)(F)F)c1

>  <Energy>  (54) 
140.77416357126367

>  <Genealogy>  (54) 
O=C(CCCOc1ccc(Cl)cc1Cl)[N-]N=Cc1cccc(C(F)(F)F)c1 (protonated)
O=C(CCCOc1ccc(Cl)cc1Cl)[N-]/N=C/c1cccc(C(F)(F)F)c1 (cis-trans isomerization)
O=C(CCCOc1ccc(Cl)cc1Cl)[N-]/N=C/c1cccc(C(F)(F)F)c1 (3D coordinates assigned)
O=C(CCCOc1ccc(Cl)cc1Cl)[N-]/N=C/c1cccc(C(F)(F)F)c1 (optimized conformer: 140.77416357126367 kcal/mol)

>  <smiles>  (54) 
O=C(CCCOc1ccc(Cl)cc1Cl)NN=Cc1cccc(C(F)(F)F)c1

>  <score_type>  (54) 
oracle

>  <origin>  (54) 
autodockgpu

>  <m_score__min__energy>  (54) 
-6.6200000000000001

>  <m_primary>  (54) 
energy

>  <meeko>  (54) 
{"free_energy": -5.77, "intermolecular_energy": -8.75, "internal_energy": -0.71, "cluster_size": 4, "cluster_id": 2, "rank_in_cluster": 4}

>  <energy>  (54) 
-5.77

>  <cluster_rmsd>  (54) 
1.55

>  <rmsd>  (54) 
273.35

>  <cluster>  (54) 
2

$$$$
VHXSVHVNRGGTDL-PKHXXGQGNA-M
     RDKit          3D

 41 42  0  0  0  0  0  0  0  0999 V2000
  137.4461   72.3424  223.4583 H   0  0  0  0  0  0  0  0  0  0  0  0
  136.3530   72.2280  223.4140 C   0  0  0  0  0  0  0  0  0  0  0  0
  135.7910   71.4820  222.5440 N   0  0  0  0  0  0  0  0  0  0  0  0
  134.9780   70.3910  222.8210 N   0  0  0  0  0  0  0  0  0  0  0  0
  135.4480   69.0790  223.1050 C   0  0  0  0  0  0  0  0  0  0  0  0
  135.3440   68.5280  224.2290 O   0  0  0  0  0  0  0  0  0  0  0  0
  136.1030   68.3520  221.9550 C   0  0  0  0  0  0  0  0  0  0  0  0
  135.9207   67.2723  222.0604 H   0  0  0  0  0  0  0  0  0  0  0  0
  135.6730   68.7232  221.0130 H   0  0  0  0  0  0  0  0  0  0  0  0
  137.5790   68.6010  221.9390 C   0  0  0  0  0  0  0  0  0  0  0  0
  137.9660   68.3651  220.9367 H   0  0  0  0  0  0  0  0  0  0  0  0
  137.7432   69.6577  222.1967 H   0  0  0  0  0  0  0  0  0  0  0  0
  138.3300   67.7450  222.9720 C   0  0  0  0  0  0  0  0  0  0  0  0
  137.6306   67.0240  223.4204 H   0  0  0  0  0  0  0  0  0  0  0  0
  139.1499   67.2161  222.4640 H   0  0  0  0  0  0  0  0  0  0  0  0
  138.8330   68.4930  223.9110 O   0  0  0  0  0  0  0  0  0  0  0  0
  139.3290   69.2290  224.8380 C   0  0  0  0  0  0  0  0  0  0  0  0
  139.4460   68.7960  226.1640 C   0  0  0  0  0  0  0  0  0  0  0  0
  139.1006   67.7850  226.4258 H   0  0  0  0  0  0  0  0  0  0  0  0
  139.9800   69.5950  227.1530 C   0  0  0  0  0  0  0  0  0  0  0  0
  140.0649   69.2399  228.1906 H   0  0  0  0  0  0  0  0  0  0  0  0
  140.4020   70.8520  226.7920 C   0  0  0  0  0  0  0  0  0  0  0  0
  141.0820   71.8850  228.0210 Cl  0  0  0  0  0  0  0  0  0  0  0  0
  140.3190   71.3480  225.5130 C   0  0  0  0  0  0  0  0  0  0  0  0
  140.6690   72.3620  225.2697 H   0  0  0  0  0  0  0  0  0  0  0  0
  139.7830   70.5300  224.5520 C   0  0  0  0  0  0  0  0  0  0  0  0
  139.6590   71.1220  222.9180 Cl  0  0  0  0  0  0  0  0  0  0  0  0
  135.4620   72.9280  224.3560 C   0  0  0  0  0  0  0  0  0  0  0  0
  135.4380   74.3010  224.3520 C   0  0  0  0  0  0  0  0  0  0  0  0
  136.0764   74.8612  223.6530 H   0  0  0  0  0  0  0  0  0  0  0  0
  134.6110   74.9770  225.2270 C   0  0  0  0  0  0  0  0  0  0  0  0
  134.5657   76.0758  225.2521 H   0  0  0  0  0  0  0  0  0  0  0  0
  133.8420   74.1940  226.0710 C   0  0  0  0  0  0  0  0  0  0  0  0
  133.1721   74.7031  226.7795 H   0  0  0  0  0  0  0  0  0  0  0  0
  133.8640   72.8280  226.0780 C   0  0  0  0  0  0  0  0  0  0  0  0
  133.0280   72.0100  226.9970 C   0  0  0  0  0  0  0  0  0  0  0  0
  132.3820   71.0400  226.2550 F   0  0  0  0  0  0  0  0  0  0  0  0
  132.1020   72.8220  227.5980 F   0  0  0  0  0  0  0  0  0  0  0  0
  133.7860   71.4330  227.9960 F   0  0  0  0  0  0  0  0  0  0  0  0
  134.6960   72.1640  225.1980 C   0  0  0  0  0  0  0  0  0  0  0  0
  134.7422   71.0652  225.1737 H   0  0  0  0  0  0  0  0  0  0  0  0
  1  2  1  0
  2  3  2  0
  3  4  1  0
  4  5  1  0
  5  6  2  0
  5  7  1  0
  7  8  1  0
  7  9  1  0
  7 10  1  0
 10 11  1  0
 10 12  1  0
 10 13  1  0
 13 14  1  0
 13 15  1  0
 13 16  1  0
 16 17  1  0
 17 18  2  0
 18 19  1  0
 18 20  1  0
 20 21  1  0
 20 22  2  0
 22 23  1  0
 22 24  1  0
 24 25  1  0
 24 26  2  0
 26 27  1  0
  2 28  1  0
 28 29  2  0
 29 30  1  0
 29 31  1  0
 31 32  1  0
 31 33  2  0
 33 34  1  0
 33 35  1  0
 35 36  1  0
 36 37  1  0
 36 38  1  0
 36 39  1  0
 35 40  2  0
 40 41  1  0
 26 17  1  0
 40 28  1  0
M  CHG  1   4  -1
M  END
>  <UniqueID>  (55) 
19

>  <SMILES>  (55) 
O=C(CCCOc1ccc(Cl)cc1Cl)[N-]/N=C/c1cccc(C(F)(F)F)c1

>  <Energy>  (55) 
140.77416357126367

>  <Genealogy>  (55) 
O=C(CCCOc1ccc(Cl)cc1Cl)[N-]N=Cc1cccc(C(F)(F)F)c1 (protonated)
O=C(CCCOc1ccc(Cl)cc1Cl)[N-]/N=C/c1cccc(C(F)(F)F)c1 (cis-trans isomerization)
O=C(CCCOc1ccc(Cl)cc1Cl)[N-]/N=C/c1cccc(C(F)(F)F)c1 (3D coordinates assigned)
O=C(CCCOc1ccc(Cl)cc1Cl)[N-]/N=C/c1cccc(C(F)(F)F)c1 (optimized conformer: 140.77416357126367 kcal/mol)

>  <smiles>  (55) 
O=C(CCCOc1ccc(Cl)cc1Cl)NN=Cc1cccc(C(F)(F)F)c1

>  <score_type>  (55) 
oracle

>  <origin>  (55) 
autodockgpu

>  <m_score__min__energy>  (55) 
-6.6200000000000001

>  <m_primary>  (55) 
energy

>  <meeko>  (55) 
{"free_energy": -4.78, "intermolecular_energy": -7.76, "internal_energy": -1.43, "cluster_size": 1, "cluster_id": 7, "rank_in_cluster": 1}

>  <energy>  (55) 
-6.3

>  <cluster_rmsd>  (55) 
0.0

>  <rmsd>  (55) 
273.29

>  <cluster>  (55) 
3

$$$$
VHXSVHVNRGGTDL-PKHXXGQGNA-M
     RDKit          3D

 41 42  0  0  0  0  0  0  0  0999 V2000
  141.6912   75.4331  220.9962 H   0  0  0  0  0  0  0  0  0  0  0  0
  140.8140   75.4830  221.6580 C   0  0  0  0  0  0  0  0  0  0  0  0
  140.1750   74.4340  222.0070 N   0  0  0  0  0  0  0  0  0  0  0  0
  140.7470   73.2630  222.4880 N   0  0  0  0  0  0  0  0  0  0  0  0
  140.9620   72.0880  221.7160 C   0  0  0  0  0  0  0  0  0  0  0  0
  142.0600   71.7970  221.1800 O   0  0  0  0  0  0  0  0  0  0  0  0
  139.7710   71.1730  221.5640 C   0  0  0  0  0  0  0  0  0  0  0  0
  139.4446   71.1774  220.5135 H   0  0  0  0  0  0  0  0  0  0  0  0
  140.0650   70.1580  221.8694 H   0  0  0  0  0  0  0  0  0  0  0  0
  138.6380   71.6260  222.4320 C   0  0  0  0  0  0  0  0  0  0  0  0
  139.0403   72.2613  223.2348 H   0  0  0  0  0  0  0  0  0  0  0  0
  137.9296   72.1784  221.7971 H   0  0  0  0  0  0  0  0  0  0  0  0
  137.8790   70.4500  223.0670 C   0  0  0  0  0  0  0  0  0  0  0  0
  136.8763   70.7878  223.3679 H   0  0  0  0  0  0  0  0  0  0  0  0
  137.8029   69.6383  222.3285 H   0  0  0  0  0  0  0  0  0  0  0  0
  138.5120   70.0050  224.1140 O   0  0  0  0  0  0  0  0  0  0  0  0
  139.1360   69.5670  225.1460 C   0  0  0  0  0  0  0  0  0  0  0  0
  138.8280   68.3420  225.7510 C   0  0  0  0  0  0  0  0  0  0  0  0
  138.0200   67.7281  225.3263 H   0  0  0  0  0  0  0  0  0  0  0  0
  139.5030   67.8790  226.8610 C   0  0  0  0  0  0  0  0  0  0  0  0
  139.2481   66.9145  227.3244 H   0  0  0  0  0  0  0  0  0  0  0  0
  140.5070   68.6710  227.3650 C   0  0  0  0  0  0  0  0  0  0  0  0
  141.3790   68.1130  228.7670 Cl  0  0  0  0  0  0  0  0  0  0  0  0
  140.8670   69.8840  226.8280 C   0  0  0  0  0  0  0  0  0  0  0  0
  141.6777   70.4845  227.2664 H   0  0  0  0  0  0  0  0  0  0  0  0
  140.1770   70.3170  225.7250 C   0  0  0  0  0  0  0  0  0  0  0  0
  140.6020   71.8500  225.0150 Cl  0  0  0  0  0  0  0  0  0  0  0  0
  140.3150   76.7630  222.1880 C   0  0  0  0  0  0  0  0  0  0  0  0
  138.9710   76.9020  222.4330 C   0  0  0  0  0  0  0  0  0  0  0  0
  138.2853   76.0651  222.2344 H   0  0  0  0  0  0  0  0  0  0  0  0
  138.4820   78.0940  222.9290 C   0  0  0  0  0  0  0  0  0  0  0  0
  137.4119   78.2408  223.1370 H   0  0  0  0  0  0  0  0  0  0  0  0
  139.4130   79.0940  223.1500 C   0  0  0  0  0  0  0  0  0  0  0  0
  139.0541   80.0558  223.5452 H   0  0  0  0  0  0  0  0  0  0  0  0
  140.7510   78.9590  222.9070 C   0  0  0  0  0  0  0  0  0  0  0  0
  141.7320   80.0510  223.1510 C   0  0  0  0  0  0  0  0  0  0  0  0
  141.0410   81.2420  223.2690 F   0  0  0  0  0  0  0  0  0  0  0  0
  142.5920   80.1220  222.0870 F   0  0  0  0  0  0  0  0  0  0  0  0
  142.4870   79.8120  224.2820 F   0  0  0  0  0  0  0  0  0  0  0  0
  141.2270   77.7620  222.4110 C   0  0  0  0  0  0  0  0  0  0  0  0
  142.2971   77.6153  222.2026 H   0  0  0  0  0  0  0  0  0  0  0  0
  1  2  1  0
  2  3  2  0
  3  4  1  0
  4  5  1  0
  5  6  2  0
  5  7  1  0
  7  8  1  0
  7  9  1  0
  7 10  1  0
 10 11  1  0
 10 12  1  0
 10 13  1  0
 13 14  1  0
 13 15  1  0
 13 16  1  0
 16 17  1  0
 17 18  2  0
 18 19  1  0
 18 20  1  0
 20 21  1  0
 20 22  2  0
 22 23  1  0
 22 24  1  0
 24 25  1  0
 24 26  2  0
 26 27  1  0
  2 28  1  0
 28 29  2  0
 29 30  1  0
 29 31  1  0
 31 32  1  0
 31 33  2  0
 33 34  1  0
 33 35  1  0
 35 36  1  0
 36 37  1  0
 36 38  1  0
 36 39  1  0
 35 40  2  0
 40 41  1  0
 26 17  1  0
 40 28  1  0
M  CHG  1   4  -1
M  END
>  <UniqueID>  (56) 
19

>  <SMILES>  (56) 
O=C(CCCOc1ccc(Cl)cc1Cl)[N-]/N=C/c1cccc(C(F)(F)F)c1

>  <Energy>  (56) 
140.77416357126367

>  <Genealogy>  (56) 
O=C(CCCOc1ccc(Cl)cc1Cl)[N-]N=Cc1cccc(C(F)(F)F)c1 (protonated)
O=C(CCCOc1ccc(Cl)cc1Cl)[N-]/N=C/c1cccc(C(F)(F)F)c1 (cis-trans isomerization)
O=C(CCCOc1ccc(Cl)cc1Cl)[N-]/N=C/c1cccc(C(F)(F)F)c1 (3D coordinates assigned)
O=C(CCCOc1ccc(Cl)cc1Cl)[N-]/N=C/c1cccc(C(F)(F)F)c1 (optimized conformer: 140.77416357126367 kcal/mol)

>  <smiles>  (56) 
O=C(CCCOc1ccc(Cl)cc1Cl)NN=Cc1cccc(C(F)(F)F)c1

>  <score_type>  (56) 
oracle

>  <origin>  (56) 
autodockgpu

>  <m_score__min__energy>  (56) 
-6.6200000000000001

>  <m_primary>  (56) 
energy

>  <meeko>  (56) 
{"free_energy": -6.06, "intermolecular_energy": -9.05, "internal_energy": -0.73, "cluster_size": 1, "cluster_id": 5, "rank_in_cluster": 1}

>  <energy>  (56) 
-5.96

>  <cluster_rmsd>  (56) 
1.76

>  <rmsd>  (56) 
273.23

>  <cluster>  (56) 
3

$$$$
VHXSVHVNRGGTDL-PKHXXGQGNA-M
     RDKit          3D

 41 42  0  0  0  0  0  0  0  0999 V2000
  139.6346   70.5537  223.3109 H   0  0  0  0  0  0  0  0  0  0  0  0
  140.2240   71.2600  223.9140 C   0  0  0  0  0  0  0  0  0  0  0  0
  140.6950   72.3370  223.4170 N   0  0  0  0  0  0  0  0  0  0  0  0
  139.9670   73.2830  222.7080 N   0  0  0  0  0  0  0  0  0  0  0  0
  140.4770   74.0620  221.6320 C   0  0  0  0  0  0  0  0  0  0  0  0
  141.6640   74.4670  221.5660 O   0  0  0  0  0  0  0  0  0  0  0  0
  139.4940   74.3930  220.5360 C   0  0  0  0  0  0  0  0  0  0  0  0
  139.9917   75.0223  219.7835 H   0  0  0  0  0  0  0  0  0  0  0  0
  139.1450   73.4543  220.0810 H   0  0  0  0  0  0  0  0  0  0  0  0
  138.3110   75.1280  221.0850 C   0  0  0  0  0  0  0  0  0  0  0  0
  137.3950   74.6014  220.7791 H   0  0  0  0  0  0  0  0  0  0  0  0
  138.4132   75.1571  222.1799 H   0  0  0  0  0  0  0  0  0  0  0  0
  138.2370   76.5790  220.5830 C   0  0  0  0  0  0  0  0  0  0  0  0
  138.4630   76.6004  219.5067 H   0  0  0  0  0  0  0  0  0  0  0  0
  137.2241   76.9655  220.7689 H   0  0  0  0  0  0  0  0  0  0  0  0
  139.0930   77.3300  221.2140 O   0  0  0  0  0  0  0  0  0  0  0  0
  139.9370   78.0690  221.8360 C   0  0  0  0  0  0  0  0  0  0  0  0
  139.6140   78.7610  223.0100 C   0  0  0  0  0  0  0  0  0  0  0  0
  138.5965   78.6692  223.4177 H   0  0  0  0  0  0  0  0  0  0  0  0
  140.5270   79.5530  223.6720 C   0  0  0  0  0  0  0  0  0  0  0  0
  140.2570   80.0887  224.5940 H   0  0  0  0  0  0  0  0  0  0  0  0
  141.7890   79.6470  223.1340 C   0  0  0  0  0  0  0  0  0  0  0  0
  142.9660   80.6420  223.9490 Cl  0  0  0  0  0  0  0  0  0  0  0  0
  142.1810   79.0010  221.9870 C   0  0  0  0  0  0  0  0  0  0  0  0
  143.2025   79.1067  221.5927 H   0  0  0  0  0  0  0  0  0  0  0  0
  141.2500   78.2190  221.3520 C   0  0  0  0  0  0  0  0  0  0  0  0
  141.7070   77.3840  219.8930 Cl  0  0  0  0  0  0  0  0  0  0  0  0
  140.5110   71.0120  225.3380 C   0  0  0  0  0  0  0  0  0  0  0  0
  140.9500   72.0550  226.1170 C   0  0  0  0  0  0  0  0  0  0  0  0
  141.0813   73.0546  225.6772 H   0  0  0  0  0  0  0  0  0  0  0  0
  141.2260   71.8450  227.4540 C   0  0  0  0  0  0  0  0  0  0  0  0
  141.5779   72.6559  228.1087 H   0  0  0  0  0  0  0  0  0  0  0  0
  141.0350   70.5570  227.9240 C   0  0  0  0  0  0  0  0  0  0  0  0
  141.2472   70.3577  228.9848 H   0  0  0  0  0  0  0  0  0  0  0  0
  140.5990   69.5180  227.1510 C   0  0  0  0  0  0  0  0  0  0  0  0
  140.4030   68.1420  227.6810 C   0  0  0  0  0  0  0  0  0  0  0  0
  140.3750   68.2040  229.0610 F   0  0  0  0  0  0  0  0  0  0  0  0
  141.4500   67.3560  227.2760 F   0  0  0  0  0  0  0  0  0  0  0  0
  139.2420   67.5720  227.1970 F   0  0  0  0  0  0  0  0  0  0  0  0
  140.3270   69.7410  225.8160 C   0  0  0  0  0  0  0  0  0  0  0  0
  139.9761   68.9297  225.1613 H   0  0  0  0  0  0  0  0  0  0  0  0
  1  2  1  0
  2  3  2  0
  3  4  1  0
  4  5  1  0
  5  6  2  0
  5  7  1  0
  7  8  1  0
  7  9  1  0
  7 10  1  0
 10 11  1  0
 10 12  1  0
 10 13  1  0
 13 14  1  0
 13 15  1  0
 13 16  1  0
 16 17  1  0
 17 18  2  0
 18 19  1  0
 18 20  1  0
 20 21  1  0
 20 22  2  0
 22 23  1  0
 22 24  1  0
 24 25  1  0
 24 26  2  0
 26 27  1  0
  2 28  1  0
 28 29  2  0
 29 30  1  0
 29 31  1  0
 31 32  1  0
 31 33  2  0
 33 34  1  0
 33 35  1  0
 35 36  1  0
 36 37  1  0
 36 38  1  0
 36 39  1  0
 35 40  2  0
 40 41  1  0
 26 17  1  0
 40 28  1  0
M  CHG  1   4  -1
M  END
>  <UniqueID>  (57) 
19

>  <SMILES>  (57) 
O=C(CCCOc1ccc(Cl)cc1Cl)[N-]/N=C/c1cccc(C(F)(F)F)c1

>  <Energy>  (57) 
140.77416357126367

>  <Genealogy>  (57) 
O=C(CCCOc1ccc(Cl)cc1Cl)[N-]N=Cc1cccc(C(F)(F)F)c1 (protonated)
O=C(CCCOc1ccc(Cl)cc1Cl)[N-]/N=C/c1cccc(C(F)(F)F)c1 (cis-trans isomerization)
O=C(CCCOc1ccc(Cl)cc1Cl)[N-]/N=C/c1cccc(C(F)(F)F)c1 (3D coordinates assigned)
O=C(CCCOc1ccc(Cl)cc1Cl)[N-]/N=C/c1cccc(C(F)(F)F)c1 (optimized conformer: 140.77416357126367 kcal/mol)

>  <smiles>  (57) 
O=C(CCCOc1ccc(Cl)cc1Cl)NN=Cc1cccc(C(F)(F)F)c1

>  <score_type>  (57) 
oracle

>  <origin>  (57) 
autodockgpu

>  <m_score__min__energy>  (57) 
-6.6200000000000001

>  <m_primary>  (57) 
energy

>  <meeko>  (57) 
{"free_energy": -6.57, "intermolecular_energy": -9.55, "internal_energy": -0.96, "cluster_size": 4, "cluster_id": 2, "rank_in_cluster": 1}

>  <energy>  (57) 
-6.29

>  <cluster_rmsd>  (57) 
0.0

>  <rmsd>  (57) 
273.63

>  <cluster>  (57) 
4

$$$$
VHXSVHVNRGGTDL-PKHXXGQGNA-M
     RDKit          3D

 41 42  0  0  0  0  0  0  0  0999 V2000
  139.0427   68.2119  223.8892 H   0  0  0  0  0  0  0  0  0  0  0  0
  139.0010   69.0970  224.5410 C   0  0  0  0  0  0  0  0  0  0  0  0
  138.3190   70.1300  224.2280 N   0  0  0  0  0  0  0  0  0  0  0  0
  138.6530   71.0510  223.2450 N   0  0  0  0  0  0  0  0  0  0  0  0
  139.8620   71.8000  223.2090 C   0  0  0  0  0  0  0  0  0  0  0  0
  140.8910   71.4930  223.8590 O   0  0  0  0  0  0  0  0  0  0  0  0
  139.8510   73.0250  222.3270 C   0  0  0  0  0  0  0  0  0  0  0  0
  138.9449   73.0124  221.7035 H   0  0  0  0  0  0  0  0  0  0  0  0
  139.8632   73.9201  222.9663 H   0  0  0  0  0  0  0  0  0  0  0  0
  141.0570   73.0520  221.4400 C   0  0  0  0  0  0  0  0  0  0  0  0
  141.9411   73.2818  222.0529 H   0  0  0  0  0  0  0  0  0  0  0  0
  141.1433   72.0653  220.9616 H   0  0  0  0  0  0  0  0  0  0  0  0
  140.9420   74.1040  220.3260 C   0  0  0  0  0  0  0  0  0  0  0  0
  141.7406   73.9371  219.5882 H   0  0  0  0  0  0  0  0  0  0  0  0
  139.9552   74.0074  219.8497 H   0  0  0  0  0  0  0  0  0  0  0  0
  141.0550   75.3060  220.8130 O   0  0  0  0  0  0  0  0  0  0  0  0
  141.1670   76.4910  221.2940 C   0  0  0  0  0  0  0  0  0  0  0  0
  140.7650   76.8180  222.5940 C   0  0  0  0  0  0  0  0  0  0  0  0
  140.3364   76.0307  223.2315 H   0  0  0  0  0  0  0  0  0  0  0  0
  140.8880   78.0940  223.1030 C   0  0  0  0  0  0  0  0  0  0  0  0
  140.5669   78.3347  224.1272 H   0  0  0  0  0  0  0  0  0  0  0  0
  141.4280   79.0530  222.2790 C   0  0  0  0  0  0  0  0  0  0  0  0
  141.5980   80.6750  222.8930 Cl  0  0  0  0  0  0  0  0  0  0  0  0
  141.8450   78.8090  220.9920 C   0  0  0  0  0  0  0  0  0  0  0  0
  142.2712   79.6085  220.3682 H   0  0  0  0  0  0  0  0  0  0  0  0
  141.7090   77.5300  220.5160 C   0  0  0  0  0  0  0  0  0  0  0  0
  142.2240   77.1800  218.8880 Cl  0  0  0  0  0  0  0  0  0  0  0  0
  139.7290   69.1520  225.8200 C   0  0  0  0  0  0  0  0  0  0  0  0
  140.1070   67.9760  226.4190 C   0  0  0  0  0  0  0  0  0  0  0  0
  139.8667   67.0134  225.9440 H   0  0  0  0  0  0  0  0  0  0  0  0
  140.7900   68.0040  227.6200 C   0  0  0  0  0  0  0  0  0  0  0  0
  141.1097   67.0824  228.1283 H   0  0  0  0  0  0  0  0  0  0  0  0
  141.0490   69.2570  228.1470 C   0  0  0  0  0  0  0  0  0  0  0  0
  141.5911   69.3129  229.1025 H   0  0  0  0  0  0  0  0  0  0  0  0
  140.6730   70.4290  227.5540 C   0  0  0  0  0  0  0  0  0  0  0  0
  140.9640   71.7640  228.1430 C   0  0  0  0  0  0  0  0  0  0  0  0
  141.9550   71.6160  229.0940 F   0  0  0  0  0  0  0  0  0  0  0  0
  139.8260   72.2450  228.7360 F   0  0  0  0  0  0  0  0  0  0  0  0
  141.3470   72.6730  227.1780 F   0  0  0  0  0  0  0  0  0  0  0  0
  139.9920   70.3870  226.3540 C   0  0  0  0  0  0  0  0  0  0  0  0
  139.6727   71.3088  225.8458 H   0  0  0  0  0  0  0  0  0  0  0  0
  1  2  1  0
  2  3  2  0
  3  4  1  0
  4  5  1  0
  5  6  2  0
  5  7  1  0
  7  8  1  0
  7  9  1  0
  7 10  1  0
 10 11  1  0
 10 12  1  0
 10 13  1  0
 13 14  1  0
 13 15  1  0
 13 16  1  0
 16 17  1  0
 17 18  2  0
 18 19  1  0
 18 20  1  0
 20 21  1  0
 20 22  2  0
 22 23  1  0
 22 24  1  0
 24 25  1  0
 24 26  2  0
 26 27  1  0
  2 28  1  0
 28 29  2  0
 29 30  1  0
 29 31  1  0
 31 32  1  0
 31 33  2  0
 33 34  1  0
 33 35  1  0
 35 36  1  0
 36 37  1  0
 36 38  1  0
 36 39  1  0
 35 40  2  0
 40 41  1  0
 26 17  1  0
 40 28  1  0
M  CHG  1   4  -1
M  END
>  <UniqueID>  (58) 
19

>  <SMILES>  (58) 
O=C(CCCOc1ccc(Cl)cc1Cl)[N-]/N=C/c1cccc(C(F)(F)F)c1

>  <Energy>  (58) 
140.77416357126367

>  <Genealogy>  (58) 
O=C(CCCOc1ccc(Cl)cc1Cl)[N-]N=Cc1cccc(C(F)(F)F)c1 (protonated)
O=C(CCCOc1ccc(Cl)cc1Cl)[N-]/N=C/c1cccc(C(F)(F)F)c1 (cis-trans isomerization)
O=C(CCCOc1ccc(Cl)cc1Cl)[N-]/N=C/c1cccc(C(F)(F)F)c1 (3D coordinates assigned)
O=C(CCCOc1ccc(Cl)cc1Cl)[N-]/N=C/c1cccc(C(F)(F)F)c1 (optimized conformer: 140.77416357126367 kcal/mol)

>  <smiles>  (58) 
O=C(CCCOc1ccc(Cl)cc1Cl)NN=Cc1cccc(C(F)(F)F)c1

>  <score_type>  (58) 
oracle

>  <origin>  (58) 
autodockgpu

>  <m_score__min__energy>  (58) 
-6.6200000000000001

>  <m_primary>  (58) 
energy

>  <meeko>  (58) 
{"free_energy": -6.29, "intermolecular_energy": -9.27, "internal_energy": -0.82, "cluster_size": 1, "cluster_id": 4, "rank_in_cluster": 1}

>  <energy>  (58) 
-6.06

>  <cluster_rmsd>  (58) 
0.0

>  <rmsd>  (58) 
273.26

>  <cluster>  (58) 
5

$$$$
VHXSVHVNRGGTDL-PKHXXGQGNA-M
     RDKit          3D

 41 42  0  0  0  0  0  0  0  0999 V2000
  140.5851   71.0474  222.1839 H   0  0  0  0  0  0  0  0  0  0  0  0
  140.3740   71.6170  223.1010 C   0  0  0  0  0  0  0  0  0  0  0  0
  140.3060   72.8910  223.0990 N   0  0  0  0  0  0  0  0  0  0  0  0
  139.9210   73.6770  222.0210 N   0  0  0  0  0  0  0  0  0  0  0  0
  138.8300   73.3910  221.1550 C   0  0  0  0  0  0  0  0  0  0  0  0
  138.8800   72.5460  220.2260 O   0  0  0  0  0  0  0  0  0  0  0  0
  137.5660   74.1750  221.4080 C   0  0  0  0  0  0  0  0  0  0  0  0
  136.7860   73.8361  220.7104 H   0  0  0  0  0  0  0  0  0  0  0  0
  137.2497   74.0069  222.4480 H   0  0  0  0  0  0  0  0  0  0  0  0
  137.7990   75.6400  221.2090 C   0  0  0  0  0  0  0  0  0  0  0  0
  138.8645   75.8013  220.9881 H   0  0  0  0  0  0  0  0  0  0  0  0
  137.1599   75.9709  220.3771 H   0  0  0  0  0  0  0  0  0  0  0  0
  137.4210   76.4680  222.4480 C   0  0  0  0  0  0  0  0  0  0  0  0
  136.4647   76.9790  222.2628 H   0  0  0  0  0  0  0  0  0  0  0  0
  137.3318   75.7921  223.3112 H   0  0  0  0  0  0  0  0  0  0  0  0
  138.3370   77.3560  222.7050 O   0  0  0  0  0  0  0  0  0  0  0  0
  139.2400   78.2320  222.9600 C   0  0  0  0  0  0  0  0  0  0  0  0
  138.9510   79.4590  223.5700 C   0  0  0  0  0  0  0  0  0  0  0  0
  137.9095   79.6843  223.8430 H   0  0  0  0  0  0  0  0  0  0  0  0
  139.9270   80.3940  223.8400 C   0  0  0  0  0  0  0  0  0  0  0  0
  139.6831   81.3531  224.3203 H   0  0  0  0  0  0  0  0  0  0  0  0
  141.2180   80.0800  223.4850 C   0  0  0  0  0  0  0  0  0  0  0  0
  142.4750   81.2420  223.8130 Cl  0  0  0  0  0  0  0  0  0  0  0  0
  141.5800   78.8990  222.8830 C   0  0  0  0  0  0  0  0  0  0  0  0
  142.6266   78.6911  222.6159 H   0  0  0  0  0  0  0  0  0  0  0  0
  140.5850   77.9890  222.6280 C   0  0  0  0  0  0  0  0  0  0  0  0
  141.0030   76.4790  221.8650 Cl  0  0  0  0  0  0  0  0  0  0  0  0
  140.1550   70.9480  224.3960 C   0  0  0  0  0  0  0  0  0  0  0  0
  139.4940   69.7450  224.4180 C   0  0  0  0  0  0  0  0  0  0  0  0
  139.1372   69.2949  223.4799 H   0  0  0  0  0  0  0  0  0  0  0  0
  139.2780   69.1010  225.6210 C   0  0  0  0  0  0  0  0  0  0  0  0
  138.7540   68.1355  225.6773 H   0  0  0  0  0  0  0  0  0  0  0  0
  139.7580   69.7390  226.7510 C   0  0  0  0  0  0  0  0  0  0  0  0
  139.6004   69.2522  227.7247 H   0  0  0  0  0  0  0  0  0  0  0  0
  140.4160   70.9370  226.7320 C   0  0  0  0  0  0  0  0  0  0  0  0
  140.9210   71.6020  227.9630 C   0  0  0  0  0  0  0  0  0  0  0  0
  141.7610   72.6330  227.5910 F   0  0  0  0  0  0  0  0  0  0  0  0
  141.6170   70.6880  228.7090 F   0  0  0  0  0  0  0  0  0  0  0  0
  139.8870   72.0760  228.7460 F   0  0  0  0  0  0  0  0  0  0  0  0
  140.6260   71.5700  225.5230 C   0  0  0  0  0  0  0  0  0  0  0  0
  141.1505   72.5352  225.4665 H   0  0  0  0  0  0  0  0  0  0  0  0
  1  2  1  0
  2  3  2  0
  3  4  1  0
  4  5  1  0
  5  6  2  0
  5  7  1  0
  7  8  1  0
  7  9  1  0
  7 10  1  0
 10 11  1  0
 10 12  1  0
 10 13  1  0
 13 14  1  0
 13 15  1  0
 13 16  1  0
 16 17  1  0
 17 18  2  0
 18 19  1  0
 18 20  1  0
 20 21  1  0
 20 22  2  0
 22 23  1  0
 22 24  1  0
 24 25  1  0
 24 26  2  0
 26 27  1  0
  2 28  1  0
 28 29  2  0
 29 30  1  0
 29 31  1  0
 31 32  1  0
 31 33  2  0
 33 34  1  0
 33 35  1  0
 35 36  1  0
 36 37  1  0
 36 38  1  0
 36 39  1  0
 35 40  2  0
 40 41  1  0
 26 17  1  0
 40 28  1  0
M  CHG  1   4  -1
M  END
>  <UniqueID>  (59) 
19

>  <SMILES>  (59) 
O=C(CCCOc1ccc(Cl)cc1Cl)[N-]/N=C/c1cccc(C(F)(F)F)c1

>  <Energy>  (59) 
140.77416357126367

>  <Genealogy>  (59) 
O=C(CCCOc1ccc(Cl)cc1Cl)[N-]N=Cc1cccc(C(F)(F)F)c1 (protonated)
O=C(CCCOc1ccc(Cl)cc1Cl)[N-]/N=C/c1cccc(C(F)(F)F)c1 (cis-trans isomerization)
O=C(CCCOc1ccc(Cl)cc1Cl)[N-]/N=C/c1cccc(C(F)(F)F)c1 (3D coordinates assigned)
O=C(CCCOc1ccc(Cl)cc1Cl)[N-]/N=C/c1cccc(C(F)(F)F)c1 (optimized conformer: 140.77416357126367 kcal/mol)

>  <smiles>  (59) 
O=C(CCCOc1ccc(Cl)cc1Cl)NN=Cc1cccc(C(F)(F)F)c1

>  <score_type>  (59) 
oracle

>  <origin>  (59) 
autodockgpu

>  <m_score__min__energy>  (59) 
-6.6200000000000001

>  <m_primary>  (59) 
energy

>  <meeko>  (59) 
{"free_energy": -6.44, "intermolecular_energy": -9.42, "internal_energy": -0.72, "cluster_size": 10, "cluster_id": 1, "rank_in_cluster": 5}

>  <energy>  (59) 
-5.74

>  <cluster_rmsd>  (59) 
0.0

>  <rmsd>  (59) 
272.96

>  <cluster>  (59) 
6

$$$$
VHXSVHVNRGGTDL-PKHXXGQGNA-M
     RDKit          3D

 41 42  0  0  0  0  0  0  0  0999 V2000
  139.6307   71.0855  222.1751 H   0  0  0  0  0  0  0  0  0  0  0  0
  140.0220   71.5660  223.0840 C   0  0  0  0  0  0  0  0  0  0  0  0
  140.5390   72.7340  223.0570 N   0  0  0  0  0  0  0  0  0  0  0  0
  140.2700   73.7140  222.1130 N   0  0  0  0  0  0  0  0  0  0  0  0
  139.1270   73.7350  221.2660 C   0  0  0  0  0  0  0  0  0  0  0  0
  139.1890   73.7260  220.0110 O   0  0  0  0  0  0  0  0  0  0  0  0
  137.7900   73.7720  221.9660 C   0  0  0  0  0  0  0  0  0  0  0  0
  137.0191   73.3694  221.2925 H   0  0  0  0  0  0  0  0  0  0  0  0
  137.8541   73.1648  222.8810 H   0  0  0  0  0  0  0  0  0  0  0  0
  137.4270   75.1740  222.3450 C   0  0  0  0  0  0  0  0  0  0  0  0
  136.3380   75.2298  222.4897 H   0  0  0  0  0  0  0  0  0  0  0  0
  137.9705   75.4223  223.2685 H   0  0  0  0  0  0  0  0  0  0  0  0
  137.8350   76.1970  221.2730 C   0  0  0  0  0  0  0  0  0  0  0  0
  138.2897   75.6672  220.4230 H   0  0  0  0  0  0  0  0  0  0  0  0
  136.9380   76.7437  220.9468 H   0  0  0  0  0  0  0  0  0  0  0  0
  138.6930   77.0500  221.7530 O   0  0  0  0  0  0  0  0  0  0  0  0
  139.5400   77.8900  222.2250 C   0  0  0  0  0  0  0  0  0  0  0  0
  139.1810   78.8930  223.1340 C   0  0  0  0  0  0  0  0  0  0  0  0
  138.1323   78.9655  223.4580 H   0  0  0  0  0  0  0  0  0  0  0  0
  140.0970   79.7930  223.6370 C   0  0  0  0  0  0  0  0  0  0  0  0
  139.7982   80.5753  224.3502 H   0  0  0  0  0  0  0  0  0  0  0  0
  141.3990   79.6730  223.2110 C   0  0  0  0  0  0  0  0  0  0  0  0
  142.5800   80.7950  223.8290 Cl  0  0  0  0  0  0  0  0  0  0  0  0
  141.8280   78.7170  222.3220 C   0  0  0  0  0  0  0  0  0  0  0  0
  142.8809   78.6594  222.0089 H   0  0  0  0  0  0  0  0  0  0  0  0
  140.8920   77.8370  221.8400 C   0  0  0  0  0  0  0  0  0  0  0  0
  141.3960   76.6100  220.7100 Cl  0  0  0  0  0  0  0  0  0  0  0  0
  139.9770   70.8960  224.3950 C   0  0  0  0  0  0  0  0  0  0  0  0
  139.4430   69.6340  224.4760 C   0  0  0  0  0  0  0  0  0  0  0  0
  139.0582   69.1390  223.5721 H   0  0  0  0  0  0  0  0  0  0  0  0
  139.3900   68.9870  225.6960 C   0  0  0  0  0  0  0  0  0  0  0  0
  138.9691   67.9760  225.7994 H   0  0  0  0  0  0  0  0  0  0  0  0
  139.8960   69.6820  226.7800 C   0  0  0  0  0  0  0  0  0  0  0  0
  139.8693   69.1930  227.7650 H   0  0  0  0  0  0  0  0  0  0  0  0
  140.4270   70.9390  226.7020 C   0  0  0  0  0  0  0  0  0  0  0  0
  140.9640   71.6660  227.8840 C   0  0  0  0  0  0  0  0  0  0  0  0
  141.6070   70.7570  228.7020 F   0  0  0  0  0  0  0  0  0  0  0  0
  139.9210   72.2390  228.5640 F   0  0  0  0  0  0  0  0  0  0  0  0
  141.8250   72.6780  227.5110 F   0  0  0  0  0  0  0  0  0  0  0  0
  140.4740   71.5740  225.4770 C   0  0  0  0  0  0  0  0  0  0  0  0
  140.8942   72.5853  225.3736 H   0  0  0  0  0  0  0  0  0  0  0  0
  1  2  1  0
  2  3  2  0
  3  4  1  0
  4  5  1  0
  5  6  2  0
  5  7  1  0
  7  8  1  0
  7  9  1  0
  7 10  1  0
 10 11  1  0
 10 12  1  0
 10 13  1  0
 13 14  1  0
 13 15  1  0
 13 16  1  0
 16 17  1  0
 17 18  2  0
 18 19  1  0
 18 20  1  0
 20 21  1  0
 20 22  2  0
 22 23  1  0
 22 24  1  0
 24 25  1  0
 24 26  2  0
 26 27  1  0
  2 28  1  0
 28 29  2  0
 29 30  1  0
 29 31  1  0
 31 32  1  0
 31 33  2  0
 33 34  1  0
 33 35  1  0
 35 36  1  0
 36 37  1  0
 36 38  1  0
 36 39  1  0
 35 40  2  0
 40 41  1  0
 26 17  1  0
 40 28  1  0
M  CHG  1   4  -1
M  END
>  <UniqueID>  (60) 
19

>  <SMILES>  (60) 
O=C(CCCOc1ccc(Cl)cc1Cl)[N-]/N=C/c1cccc(C(F)(F)F)c1

>  <Energy>  (60) 
140.77416357126367

>  <Genealogy>  (60) 
O=C(CCCOc1ccc(Cl)cc1Cl)[N-]N=Cc1cccc(C(F)(F)F)c1 (protonated)
O=C(CCCOc1ccc(Cl)cc1Cl)[N-]/N=C/c1cccc(C(F)(F)F)c1 (cis-trans isomerization)
O=C(CCCOc1ccc(Cl)cc1Cl)[N-]/N=C/c1cccc(C(F)(F)F)c1 (3D coordinates assigned)
O=C(CCCOc1ccc(Cl)cc1Cl)[N-]/N=C/c1cccc(C(F)(F)F)c1 (optimized conformer: 140.77416357126367 kcal/mol)

>  <smiles>  (60) 
O=C(CCCOc1ccc(Cl)cc1Cl)NN=Cc1cccc(C(F)(F)F)c1

>  <score_type>  (60) 
oracle

>  <origin>  (60) 
autodockgpu

>  <m_score__min__energy>  (60) 
-6.6200000000000001

>  <m_primary>  (60) 
energy

>  <meeko>  (60) 
{"free_energy": -6.43, "intermolecular_energy": -9.41, "internal_energy": -0.89, "cluster_size": 10, "cluster_id": 1, "rank_in_cluster": 6}

>  <energy>  (60) 
-4.78

>  <cluster_rmsd>  (60) 
0.0

>  <rmsd>  (60) 
271.6

>  <cluster>  (60) 
7

$$$$
JBHRSOAXAGIKHA-MUXIEFDRNA-N
     RDKit          3D

 41 42  0  0  0  0  0  0  0  0999 V2000
  138.2960   73.5340  223.0480 H   0  0  0  0  0  0  0  0  0  0  0  0
  138.6430   72.6420  222.7220 O   0  0  0  0  0  0  0  0  0  0  0  0
  139.9000   72.5380  222.1330 C   0  0  0  0  0  0  0  0  0  0  0  0
  140.6980   73.7200  221.9970 N   0  0  0  0  0  0  0  0  0  0  0  0
  140.1850   75.0070  222.2270 N   0  0  0  0  0  0  0  0  0  0  0  0
  140.7530   76.0870  221.7800 C   0  0  0  0  0  0  0  0  0  0  0  0
  141.5046   75.9855  220.9833 H   0  0  0  0  0  0  0  0  0  0  0  0
  140.4470   77.4460  222.2810 C   0  0  0  0  0  0  0  0  0  0  0  0
  139.1480   77.7310  222.7220 C   0  0  0  0  0  0  0  0  0  0  0  0
  138.3651   76.9616  222.6510 H   0  0  0  0  0  0  0  0  0  0  0  0
  138.8420   78.9860  223.2510 C   0  0  0  0  0  0  0  0  0  0  0  0
  137.8174   79.2041  223.5865 H   0  0  0  0  0  0  0  0  0  0  0  0
  139.8320   79.9660  223.3560 C   0  0  0  0  0  0  0  0  0  0  0  0
  139.5851   80.9504  223.7803 H   0  0  0  0  0  0  0  0  0  0  0  0
  141.1420   79.7000  222.9220 C   0  0  0  0  0  0  0  0  0  0  0  0
  142.2330   80.7260  223.0980 C   0  0  0  0  0  0  0  0  0  0  0  0
  142.0510   81.3820  224.3010 F   0  0  0  0  0  0  0  0  0  0  0  0
  143.4760   80.1150  223.1010 F   0  0  0  0  0  0  0  0  0  0  0  0
  142.2100   81.6530  222.0700 F   0  0  0  0  0  0  0  0  0  0  0  0
  141.4470   78.4270  222.4130 C   0  0  0  0  0  0  0  0  0  0  0  0
  142.4797   78.1942  222.1140 H   0  0  0  0  0  0  0  0  0  0  0  0
  140.3330   71.3540  221.6760 C   0  0  0  0  0  0  0  0  0  0  0  0
  140.0254   70.4405  222.2060 H   0  0  0  0  0  0  0  0  0  0  0  0
  141.2210   71.2220  220.4700 C   0  0  0  0  0  0  0  0  0  0  0  0
  141.1689   70.1856  220.1050 H   0  0  0  0  0  0  0  0  0  0  0  0
  140.8648   71.9353  219.7122 H   0  0  0  0  0  0  0  0  0  0  0  0
  142.6850   71.5620  220.7800 C   0  0  0  0  0  0  0  0  0  0  0  0
  142.7284   72.1505  221.7083 H   0  0  0  0  0  0  0  0  0  0  0  0
  143.2459   70.6223  220.8914 H   0  0  0  0  0  0  0  0  0  0  0  0
  143.2740   72.3200  219.7180 O   0  0  0  0  0  0  0  0  0  0  0  0
  143.0260   73.6800  219.4690 C   0  0  0  0  0  0  0  0  0  0  0  0
  141.8810   74.1140  218.7740 C   0  0  0  0  0  0  0  0  0  0  0  0
  141.1660   73.3754  218.3824 H   0  0  0  0  0  0  0  0  0  0  0  0
  141.6480   75.4780  218.5790 C   0  0  0  0  0  0  0  0  0  0  0  0
  140.7510   75.8095  218.0354 H   0  0  0  0  0  0  0  0  0  0  0  0
  142.5520   76.4210  219.0730 C   0  0  0  0  0  0  0  0  0  0  0  0
  142.2390   78.1340  218.8550 Cl  0  0  0  0  0  0  0  0  0  0  0  0
  143.7040   76.0000  219.7410 C   0  0  0  0  0  0  0  0  0  0  0  0
  144.4213   76.7431  220.1195 H   0  0  0  0  0  0  0  0  0  0  0  0
  143.9480   74.6340  219.9300 C   0  0  0  0  0  0  0  0  0  0  0  0
  145.3910   74.1310  220.7970 Cl  0  0  0  0  0  0  0  0  0  0  0  0
  1  2  1  0
  2  3  1  0
  3  4  1  0
  4  5  1  0
  5  6  2  0
  6  7  1  0
  6  8  1  0
  8  9  2  0
  9 10  1  0
  9 11  1  0
 11 12  1  0
 11 13  2  0
 13 14  1  0
 13 15  1  0
 15 16  1  0
 16 17  1  0
 16 18  1  0
 16 19  1  0
 15 20  2  0
 20 21  1  0
  3 22  2  0
 22 23  1  0
 22 24  1  0
 24 25  1  0
 24 26  1  0
 24 27  1  0
 27 28  1  0
 27 29  1  0
 27 30  1  0
 30 31  1  0
 31 32  2  0
 32 33  1  0
 32 34  1  0
 34 35  1  0
 34 36  2  0
 36 37  1  0
 36 38  1  0
 38 39  1  0
 38 40  2  0
 40 41  1  0
 20  8  1  0
 40 31  1  0
M  CHG  1   4  -1
M  END
>  <UniqueID>  (61) 
20

>  <SMILES>  (61) 
O/C(=C\CCOc1ccc(Cl)cc1Cl)[N-]/N=C\c1cccc(C(F)(F)F)c1

>  <Energy>  (61) 
41.151461544442085

>  <Genealogy>  (61) 
O=C(CCCOc1ccc(Cl)cc1Cl)[N-]N=Cc1cccc(C(F)(F)F)c1 (protonated)
OC(=CCCOc1ccc(Cl)cc1Cl)[N-]N=Cc1cccc(C(F)(F)F)c1 (tautomer)
O/C(=C\CCOc1ccc(Cl)cc1Cl)[N-]/N=C\c1cccc(C(F)(F)F)c1 (cis-trans isomerization)
O/C(=C\CCOc1ccc(Cl)cc1Cl)[N-]/N=C\c1cccc(C(F)(F)F)c1 (3D coordinates assigned)
O/C(=C\CCOc1ccc(Cl)cc1Cl)[N-]/N=C\c1cccc(C(F)(F)F)c1 (optimized conformer: 41.151461544442085 kcal/mol)

>  <smiles>  (61) 
O=C(CCCOc1ccc(Cl)cc1Cl)NN=Cc1cccc(C(F)(F)F)c1

>  <score_type>  (61) 
oracle

>  <origin>  (61) 
autodockgpu

>  <m_score__min__energy>  (61) 
-7.1100000000000003

>  <m_primary>  (61) 
energy

>  <meeko>  (61) 
{"free_energy": -5.25, "intermolecular_energy": -8.53, "internal_energy": -1.96, "cluster_size": 1, "cluster_id": 7, "rank_in_cluster": 1}

>  <energy>  (61) 
-7.11

>  <cluster_rmsd>  (61) 
0.0

>  <rmsd>  (61) 
273.86

>  <cluster>  (61) 
1

$$$$
JBHRSOAXAGIKHA-MUXIEFDRNA-N
     RDKit          3D

 41 42  0  0  0  0  0  0  0  0999 V2000
  138.4030   74.8110  222.8390 H   0  0  0  0  0  0  0  0  0  0  0  0
  138.9880   75.4710  222.3420 O   0  0  0  0  0  0  0  0  0  0  0  0
  140.2850   75.1350  221.9670 C   0  0  0  0  0  0  0  0  0  0  0  0
  140.7130   73.7750  222.1100 N   0  0  0  0  0  0  0  0  0  0  0  0
  139.9050   72.7870  222.6930 N   0  0  0  0  0  0  0  0  0  0  0  0
  140.3340   71.5920  222.9720 C   0  0  0  0  0  0  0  0  0  0  0  0
  140.8497   71.0288  222.1802 H   0  0  0  0  0  0  0  0  0  0  0  0
  140.1690   70.9450  224.2930 C   0  0  0  0  0  0  0  0  0  0  0  0
  139.6420   69.6470  224.3540 C   0  0  0  0  0  0  0  0  0  0  0  0
  139.3183   69.1441  223.4308 H   0  0  0  0  0  0  0  0  0  0  0  0
  139.5260   68.9900  225.5790 C   0  0  0  0  0  0  0  0  0  0  0  0
  139.1038   67.9750  225.6185 H   0  0  0  0  0  0  0  0  0  0  0  0
  139.9440   69.6160  226.7560 C   0  0  0  0  0  0  0  0  0  0  0  0
  139.8562   69.0885  227.7173 H   0  0  0  0  0  0  0  0  0  0  0  0
  140.4760   70.9160  226.7180 C   0  0  0  0  0  0  0  0  0  0  0  0
  140.9960   71.5710  227.9730 C   0  0  0  0  0  0  0  0  0  0  0  0
  141.6960   70.6390  228.7160 F   0  0  0  0  0  0  0  0  0  0  0  0
  141.8420   72.6210  227.6550 F   0  0  0  0  0  0  0  0  0  0  0  0
  139.9550   72.0700  228.7370 F   0  0  0  0  0  0  0  0  0  0  0  0
  140.6120   71.5610  225.4770 C   0  0  0  0  0  0  0  0  0  0  0  0
  141.0705   72.5598  225.4311 H   0  0  0  0  0  0  0  0  0  0  0  0
  141.1200   76.0790  221.5120 C   0  0  0  0  0  0  0  0  0  0  0  0
  141.6612   76.6992  222.2417 H   0  0  0  0  0  0  0  0  0  0  0  0
  141.3490   76.3270  220.0470 C   0  0  0  0  0  0  0  0  0  0  0  0
  140.5606   75.8161  219.4749 H   0  0  0  0  0  0  0  0  0  0  0  0
  141.3257   77.4146  219.8836 H   0  0  0  0  0  0  0  0  0  0  0  0
  142.7150   75.8120  219.5720 C   0  0  0  0  0  0  0  0  0  0  0  0
  142.5989   75.3455  218.5826 H   0  0  0  0  0  0  0  0  0  0  0  0
  143.4102   76.6628  219.5189 H   0  0  0  0  0  0  0  0  0  0  0  0
  143.2470   74.8460  220.4850 O   0  0  0  0  0  0  0  0  0  0  0  0
  143.3580   73.4700  220.2240 C   0  0  0  0  0  0  0  0  0  0  0  0
  142.2550   72.6980  219.8130 C   0  0  0  0  0  0  0  0  0  0  0  0
  141.2643   73.1667  219.7188 H   0  0  0  0  0  0  0  0  0  0  0  0
  142.4110   71.3400  219.5240 C   0  0  0  0  0  0  0  0  0  0  0  0
  141.5443   70.7439  219.2023 H   0  0  0  0  0  0  0  0  0  0  0  0
  143.6660   70.7380  219.6430 C   0  0  0  0  0  0  0  0  0  0  0  0
  143.8660   69.0400  219.2490 Cl  0  0  0  0  0  0  0  0  0  0  0  0
  144.7620   71.4900  220.0760 C   0  0  0  0  0  0  0  0  0  0  0  0
  145.7476   71.0130  220.1813 H   0  0  0  0  0  0  0  0  0  0  0  0
  144.6080   72.8490  220.3760 C   0  0  0  0  0  0  0  0  0  0  0  0
  146.0070   73.7790  220.8910 Cl  0  0  0  0  0  0  0  0  0  0  0  0
  1  2  1  0
  2  3  1  0
  3  4  1  0
  4  5  1  0
  5  6  2  0
  6  7  1  0
  6  8  1  0
  8  9  2  0
  9 10  1  0
  9 11  1  0
 11 12  1  0
 11 13  2  0
 13 14  1  0
 13 15  1  0
 15 16  1  0
 16 17  1  0
 16 18  1  0
 16 19  1  0
 15 20  2  0
 20 21  1  0
  3 22  2  0
 22 23  1  0
 22 24  1  0
 24 25  1  0
 24 26  1  0
 24 27  1  0
 27 28  1  0
 27 29  1  0
 27 30  1  0
 30 31  1  0
 31 32  2  0
 32 33  1  0
 32 34  1  0
 34 35  1  0
 34 36  2  0
 36 37  1  0
 36 38  1  0
 38 39  1  0
 38 40  2  0
 40 41  1  0
 20  8  1  0
 40 31  1  0
M  CHG  1   4  -1
M  END
>  <UniqueID>  (62) 
20

>  <SMILES>  (62) 
O/C(=C\CCOc1ccc(Cl)cc1Cl)[N-]/N=C\c1cccc(C(F)(F)F)c1

>  <Energy>  (62) 
41.151461544442085

>  <Genealogy>  (62) 
O=C(CCCOc1ccc(Cl)cc1Cl)[N-]N=Cc1cccc(C(F)(F)F)c1 (protonated)
OC(=CCCOc1ccc(Cl)cc1Cl)[N-]N=Cc1cccc(C(F)(F)F)c1 (tautomer)
O/C(=C\CCOc1ccc(Cl)cc1Cl)[N-]/N=C\c1cccc(C(F)(F)F)c1 (cis-trans isomerization)
O/C(=C\CCOc1ccc(Cl)cc1Cl)[N-]/N=C\c1cccc(C(F)(F)F)c1 (3D coordinates assigned)
O/C(=C\CCOc1ccc(Cl)cc1Cl)[N-]/N=C\c1cccc(C(F)(F)F)c1 (optimized conformer: 41.151461544442085 kcal/mol)

>  <smiles>  (62) 
O=C(CCCOc1ccc(Cl)cc1Cl)NN=Cc1cccc(C(F)(F)F)c1

>  <score_type>  (62) 
oracle

>  <origin>  (62) 
autodockgpu

>  <m_score__min__energy>  (62) 
-7.1100000000000003

>  <m_primary>  (62) 
energy

>  <meeko>  (62) 
{"free_energy": -6.34, "intermolecular_energy": -9.62, "internal_energy": -1.22, "cluster_size": 2, "cluster_id": 4, "rank_in_cluster": 1}

>  <energy>  (62) 
-6.66

>  <cluster_rmsd>  (62) 
1.62

>  <rmsd>  (62) 
273.53

>  <cluster>  (62) 
1

$$$$
JBHRSOAXAGIKHA-MUXIEFDRNA-N
     RDKit          3D

 41 42  0  0  0  0  0  0  0  0999 V2000
  139.1960   73.5720  223.0800 H   0  0  0  0  0  0  0  0  0  0  0  0
  139.2010   74.2700  222.3470 O   0  0  0  0  0  0  0  0  0  0  0  0
  141.3590   73.6300  221.6150 C   0  0  0  0  0  0  0  0  0  0  0  0
  140.4130   75.6940  220.7930 N   0  0  0  0  0  0  0  0  0  0  0  0
  140.3350   76.9840  221.3400 N   0  0  0  0  0  0  0  0  0  0  0  0
  140.3490   74.5110  221.5990 C   0  0  0  0  0  0  0  0  0  0  0  0
  142.3451   73.9661  221.9681 H   0  0  0  0  0  0  0  0  0  0  0  0
  141.3840   78.7780  222.6440 C   0  0  0  0  0  0  0  0  0  0  0  0
  142.1750   79.0760  223.7630 C   0  0  0  0  0  0  0  0  0  0  0  0
  142.4944   78.2682  224.4378 H   0  0  0  0  0  0  0  0  0  0  0  0
  142.5590   80.3910  224.0250 C   0  0  0  0  0  0  0  0  0  0  0  0
  143.1722   80.6166  224.9099 H   0  0  0  0  0  0  0  0  0  0  0  0
  142.1680   81.4230  223.1680 C   0  0  0  0  0  0  0  0  0  0  0  0
  142.4810   82.4565  223.3774 H   0  0  0  0  0  0  0  0  0  0  0  0
  141.3770   81.1470  222.0400 C   0  0  0  0  0  0  0  0  0  0  0  0
  141.0120   82.2430  221.0700 C   0  0  0  0  0  0  0  0  0  0  0  0
  141.4130   83.4610  221.5880 F   0  0  0  0  0  0  0  0  0  0  0  0
  141.6420   82.0410  219.8540 F   0  0  0  0  0  0  0  0  0  0  0  0
  139.6460   82.2720  220.8510 F   0  0  0  0  0  0  0  0  0  0  0  0
  141.0150   79.8170  221.7700 C   0  0  0  0  0  0  0  0  0  0  0  0
  140.4359   79.5849  220.8641 H   0  0  0  0  0  0  0  0  0  0  0  0
  141.0430   77.3660  222.3610 C   0  0  0  0  0  0  0  0  0  0  0  0
  141.4099   76.5952  223.0547 H   0  0  0  0  0  0  0  0  0  0  0  0
  141.2020   72.2020  221.1710 C   0  0  0  0  0  0  0  0  0  0  0  0
  140.9336   72.1914  220.1043 H   0  0  0  0  0  0  0  0  0  0  0  0
  142.1576   71.6880  221.3518 H   0  0  0  0  0  0  0  0  0  0  0  0
  140.1150   71.4590  221.9600 C   0  0  0  0  0  0  0  0  0  0  0  0
  139.1566   71.5549  221.4288 H   0  0  0  0  0  0  0  0  0  0  0  0
  140.4060   70.4016  222.0448 H   0  0  0  0  0  0  0  0  0  0  0  0
  139.9750   71.9990  223.2780 O   0  0  0  0  0  0  0  0  0  0  0  0
  140.0810   71.2560  224.4660 C   0  0  0  0  0  0  0  0  0  0  0  0
  141.0880   71.5120  225.4170 C   0  0  0  0  0  0  0  0  0  0  0  0
  141.8384   72.2926  225.2233 H   0  0  0  0  0  0  0  0  0  0  0  0
  141.1380   70.7790  226.6050 C   0  0  0  0  0  0  0  0  0  0  0  0
  141.9262   70.9853  227.3440 H   0  0  0  0  0  0  0  0  0  0  0  0
  140.1900   69.7850  226.8570 C   0  0  0  0  0  0  0  0  0  0  0  0
  140.2370   68.8880  228.3650 Cl  0  0  0  0  0  0  0  0  0  0  0  0
  139.2040   69.5050  225.9070 C   0  0  0  0  0  0  0  0  0  0  0  0
  138.4657   68.7126  226.0994 H   0  0  0  0  0  0  0  0  0  0  0  0
  139.1540   70.2310  224.7110 C   0  0  0  0  0  0  0  0  0  0  0  0
  137.8880   69.8790  223.5440 Cl  0  0  0  0  0  0  0  0  0  0  0  0
  1  2  1  0
  2  3  1  0
  3  4  1  0
  4  5  1  0
  5  6  2  0
  6  7  1  0
  6  8  1  0
  8  9  2  0
  9 10  1  0
  9 11  1  0
 11 12  1  0
 11 13  2  0
 13 14  1  0
 13 15  1  0
 15 16  1  0
 16 17  1  0
 16 18  1  0
 16 19  1  0
 15 20  2  0
 20 21  1  0
  3 22  2  0
 22 23  1  0
 22 24  1  0
 24 25  1  0
 24 26  1  0
 24 27  1  0
 27 28  1  0
 27 29  1  0
 27 30  1  0
 30 31  1  0
 31 32  2  0
 32 33  1  0
 32 34  1  0
 34 35  1  0
 34 36  2  0
 36 37  1  0
 36 38  1  0
 38 39  1  0
 38 40  2  0
 40 41  1  0
 20  8  1  0
 40 31  1  0
M  CHG  1   4  -1
M  END
>  <UniqueID>  (63) 
20

>  <SMILES>  (63) 
O/C(=C\CCOc1ccc(Cl)cc1Cl)[N-]/N=C\c1cccc(C(F)(F)F)c1

>  <Energy>  (63) 
41.151461544442085

>  <Genealogy>  (63) 
O=C(CCCOc1ccc(Cl)cc1Cl)[N-]N=Cc1cccc(C(F)(F)F)c1 (protonated)
OC(=CCCOc1ccc(Cl)cc1Cl)[N-]N=Cc1cccc(C(F)(F)F)c1 (tautomer)
O/C(=C\CCOc1ccc(Cl)cc1Cl)[N-]/N=C\c1cccc(C(F)(F)F)c1 (cis-trans isomerization)
O/C(=C\CCOc1ccc(Cl)cc1Cl)[N-]/N=C\c1cccc(C(F)(F)F)c1 (3D coordinates assigned)
O/C(=C\CCOc1ccc(Cl)cc1Cl)[N-]/N=C\c1cccc(C(F)(F)F)c1 (optimized conformer: 41.151461544442085 kcal/mol)

>  <smiles>  (63) 
O=C(CCCOc1ccc(Cl)cc1Cl)NN=Cc1cccc(C(F)(F)F)c1

>  <score_type>  (63) 
oracle

>  <origin>  (63) 
autodockgpu

>  <m_score__min__energy>  (63) 
-7.1100000000000003

>  <m_primary>  (63) 
energy

>  <meeko>  (63) 
{"free_energy": -6.2, "intermolecular_energy": -9.49, "internal_energy": -1.08, "cluster_size": 6, "cluster_id": 3, "rank_in_cluster": 4}

>  <energy>  (63) 
-6.54

>  <cluster_rmsd>  (63) 
1.84

>  <rmsd>  (63) 
273.45

>  <cluster>  (63) 
1

$$$$
JBHRSOAXAGIKHA-MUXIEFDRNA-N
     RDKit          3D

 41 42  0  0  0  0  0  0  0  0999 V2000
  140.1400   74.7940  219.7040 H   0  0  0  0  0  0  0  0  0  0  0  0
  139.3270   75.1270  220.2080 O   0  0  0  0  0  0  0  0  0  0  0  0
  137.8000   74.6030  221.9400 C   0  0  0  0  0  0  0  0  0  0  0  0
  140.1640   74.3150  222.3410 N   0  0  0  0  0  0  0  0  0  0  0  0
  140.6630   73.0040  222.3860 N   0  0  0  0  0  0  0  0  0  0  0  0
  139.0650   74.6920  221.5040 C   0  0  0  0  0  0  0  0  0  0  0  0
  137.2655   73.6499  221.8137 H   0  0  0  0  0  0  0  0  0  0  0  0
  139.8770   71.2330  223.8910 C   0  0  0  0  0  0  0  0  0  0  0  0
  139.4280   69.9050  223.9040 C   0  0  0  0  0  0  0  0  0  0  0  0
  139.0688   69.4402  222.9740 H   0  0  0  0  0  0  0  0  0  0  0  0
  139.4340   69.1690  225.0900 C   0  0  0  0  0  0  0  0  0  0  0  0
  139.0724   68.1301  225.0925 H   0  0  0  0  0  0  0  0  0  0  0  0
  139.8980   69.7480  226.2740 C   0  0  0  0  0  0  0  0  0  0  0  0
  139.9066   69.1603  227.2038 H   0  0  0  0  0  0  0  0  0  0  0  0
  140.3540   71.0780  226.2830 C   0  0  0  0  0  0  0  0  0  0  0  0
  140.9230   71.6860  227.5410 C   0  0  0  0  0  0  0  0  0  0  0  0
  141.4840   70.6880  228.3160 F   0  0  0  0  0  0  0  0  0  0  0  0
  141.9000   72.6160  227.2270 F   0  0  0  0  0  0  0  0  0  0  0  0
  139.9360   72.3250  228.2700 F   0  0  0  0  0  0  0  0  0  0  0  0
  140.3670   71.8020  225.0800 C   0  0  0  0  0  0  0  0  0  0  0  0
  140.7655   72.8272  225.0675 H   0  0  0  0  0  0  0  0  0  0  0  0
  139.9120   71.9660  222.6060 C   0  0  0  0  0  0  0  0  0  0  0  0
  139.2651   71.6121  221.7897 H   0  0  0  0  0  0  0  0  0  0  0  0
  137.0810   75.7500  222.5940 C   0  0  0  0  0  0  0  0  0  0  0  0
  135.9983   75.5615  222.5458 H   0  0  0  0  0  0  0  0  0  0  0  0
  137.4332   75.8168  223.6339 H   0  0  0  0  0  0  0  0  0  0  0  0
  137.3780   77.0930  221.9130 C   0  0  0  0  0  0  0  0  0  0  0  0
  138.2074   76.9600  221.2028 H   0  0  0  0  0  0  0  0  0  0  0  0
  136.4703   77.4274  221.3893 H   0  0  0  0  0  0  0  0  0  0  0  0
  137.7410   78.0890  222.8740 O   0  0  0  0  0  0  0  0  0  0  0  0
  139.0320   78.6200  223.0310 C   0  0  0  0  0  0  0  0  0  0  0  0
  140.1810   77.9300  222.5960 C   0  0  0  0  0  0  0  0  0  0  0  0
  140.0815   76.9309  222.1466 H   0  0  0  0  0  0  0  0  0  0  0  0
  141.4450   78.5070  222.7320 C   0  0  0  0  0  0  0  0  0  0  0  0
  142.3366   77.9628  222.3872 H   0  0  0  0  0  0  0  0  0  0  0  0
  141.5800   79.7740  223.3050 C   0  0  0  0  0  0  0  0  0  0  0  0
  143.1670   80.5090  223.4460 Cl  0  0  0  0  0  0  0  0  0  0  0  0
  140.4500   80.4550  223.7650 C   0  0  0  0  0  0  0  0  0  0  0  0
  140.5580   81.4469  224.2281 H   0  0  0  0  0  0  0  0  0  0  0  0
  139.1800   79.8780  223.6380 C   0  0  0  0  0  0  0  0  0  0  0  0
  137.7720   80.7660  224.1990 Cl  0  0  0  0  0  0  0  0  0  0  0  0
  1  2  1  0
  2  3  1  0
  3  4  1  0
  4  5  1  0
  5  6  2  0
  6  7  1  0
  6  8  1  0
  8  9  2  0
  9 10  1  0
  9 11  1  0
 11 12  1  0
 11 13  2  0
 13 14  1  0
 13 15  1  0
 15 16  1  0
 16 17  1  0
 16 18  1  0
 16 19  1  0
 15 20  2  0
 20 21  1  0
  3 22  2  0
 22 23  1  0
 22 24  1  0
 24 25  1  0
 24 26  1  0
 24 27  1  0
 27 28  1  0
 27 29  1  0
 27 30  1  0
 30 31  1  0
 31 32  2  0
 32 33  1  0
 32 34  1  0
 34 35  1  0
 34 36  2  0
 36 37  1  0
 36 38  1  0
 38 39  1  0
 38 40  2  0
 40 41  1  0
 20  8  1  0
 40 31  1  0
M  CHG  1   4  -1
M  END
>  <UniqueID>  (64) 
20

>  <SMILES>  (64) 
O/C(=C\CCOc1ccc(Cl)cc1Cl)[N-]/N=C\c1cccc(C(F)(F)F)c1

>  <Energy>  (64) 
41.151461544442085

>  <Genealogy>  (64) 
O=C(CCCOc1ccc(Cl)cc1Cl)[N-]N=Cc1cccc(C(F)(F)F)c1 (protonated)
OC(=CCCOc1ccc(Cl)cc1Cl)[N-]N=Cc1cccc(C(F)(F)F)c1 (tautomer)
O/C(=C\CCOc1ccc(Cl)cc1Cl)[N-]/N=C\c1cccc(C(F)(F)F)c1 (cis-trans isomerization)
O/C(=C\CCOc1ccc(Cl)cc1Cl)[N-]/N=C\c1cccc(C(F)(F)F)c1 (3D coordinates assigned)
O/C(=C\CCOc1ccc(Cl)cc1Cl)[N-]/N=C\c1cccc(C(F)(F)F)c1 (optimized conformer: 41.151461544442085 kcal/mol)

>  <smiles>  (64) 
O=C(CCCOc1ccc(Cl)cc1Cl)NN=Cc1cccc(C(F)(F)F)c1

>  <score_type>  (64) 
oracle

>  <origin>  (64) 
autodockgpu

>  <m_score__min__energy>  (64) 
-7.1100000000000003

>  <m_primary>  (64) 
energy

>  <meeko>  (64) 
{"free_energy": -6.23, "intermolecular_energy": -9.51, "internal_energy": -0.88, "cluster_size": 4, "cluster_id": 2, "rank_in_cluster": 4}

>  <energy>  (64) 
-6.27

>  <cluster_rmsd>  (64) 
1.65

>  <rmsd>  (64) 
273.42

>  <cluster>  (64) 
1

$$$$
JBHRSOAXAGIKHA-MUXIEFDRNA-N
     RDKit          3D

 41 42  0  0  0  0  0  0  0  0999 V2000
  138.7250   73.8810  222.9650 H   0  0  0  0  0  0  0  0  0  0  0  0
  139.3560   74.4100  222.3760 O   0  0  0  0  0  0  0  0  0  0  0  0
  140.5610   73.8610  221.9480 C   0  0  0  0  0  0  0  0  0  0  0  0
  140.9890   72.6150  222.5110 N   0  0  0  0  0  0  0  0  0  0  0  0
  140.2510   71.4300  222.3680 N   0  0  0  0  0  0  0  0  0  0  0  0
  139.3390   71.0550  223.2150 C   0  0  0  0  0  0  0  0  0  0  0  0
  138.2846   71.1490  222.9159 H   0  0  0  0  0  0  0  0  0  0  0  0
  139.6360   70.5090  224.5580 C   0  0  0  0  0  0  0  0  0  0  0  0
  139.4950   69.1320  224.7790 C   0  0  0  0  0  0  0  0  0  0  0  0
  139.1259   68.4835  223.9708 H   0  0  0  0  0  0  0  0  0  0  0  0
  139.8200   68.5790  226.0180 C   0  0  0  0  0  0  0  0  0  0  0  0
  139.6979   67.4987  226.1852 H   0  0  0  0  0  0  0  0  0  0  0  0
  140.3000   69.3930  227.0470 C   0  0  0  0  0  0  0  0  0  0  0  0
  140.5612   68.9491  228.0190 H   0  0  0  0  0  0  0  0  0  0  0  0
  140.4510   70.7760  226.8470 C   0  0  0  0  0  0  0  0  0  0  0  0
  141.0370   71.6490  227.9280 C   0  0  0  0  0  0  0  0  0  0  0  0
  140.0110   72.2230  228.6560 F   0  0  0  0  0  0  0  0  0  0  0  0
  141.8280   70.8970  228.7800 F   0  0  0  0  0  0  0  0  0  0  0  0
  141.8190   72.6520  227.3820 F   0  0  0  0  0  0  0  0  0  0  0  0
  140.1440   71.3200  225.5890 C   0  0  0  0  0  0  0  0  0  0  0  0
  140.3027   72.3933  225.4078 H   0  0  0  0  0  0  0  0  0  0  0  0
  141.3140   74.5100  221.0490 C   0  0  0  0  0  0  0  0  0  0  0  0
  142.3765   74.6805  221.2769 H   0  0  0  0  0  0  0  0  0  0  0  0
  140.7680   75.0150  219.7420 C   0  0  0  0  0  0  0  0  0  0  0  0
  141.5854   75.0472  219.0066 H   0  0  0  0  0  0  0  0  0  0  0  0
  139.9679   74.3296  219.4257 H   0  0  0  0  0  0  0  0  0  0  0  0
  140.1600   76.4190  219.8650 C   0  0  0  0  0  0  0  0  0  0  0  0
  139.4672   76.5851  219.0269 H   0  0  0  0  0  0  0  0  0  0  0  0
  139.6282   76.4865  220.8255 H   0  0  0  0  0  0  0  0  0  0  0  0
  141.1780   77.4260  219.8370 O   0  0  0  0  0  0  0  0  0  0  0  0
  141.4520   78.3190  220.8860 C   0  0  0  0  0  0  0  0  0  0  0  0
  141.3730   77.9300  222.2370 C   0  0  0  0  0  0  0  0  0  0  0  0
  141.0593   76.9076  222.4946 H   0  0  0  0  0  0  0  0  0  0  0  0
  141.6910   78.8360  223.2520 C   0  0  0  0  0  0  0  0  0  0  0  0
  141.6277   78.5245  224.3051 H   0  0  0  0  0  0  0  0  0  0  0  0
  142.0890   80.1360  222.9330 C   0  0  0  0  0  0  0  0  0  0  0  0
  142.5190   81.2610  224.2090 Cl  0  0  0  0  0  0  0  0  0  0  0  0
  142.1440   80.5400  221.5960 C   0  0  0  0  0  0  0  0  0  0  0  0
  142.4448   81.5679  221.3452 H   0  0  0  0  0  0  0  0  0  0  0  0
  141.8170   79.6390  220.5750 C   0  0  0  0  0  0  0  0  0  0  0  0
  141.9210   80.1630  218.9010 Cl  0  0  0  0  0  0  0  0  0  0  0  0
  1  2  1  0
  2  3  1  0
  3  4  1  0
  4  5  1  0
  5  6  2  0
  6  7  1  0
  6  8  1  0
  8  9  2  0
  9 10  1  0
  9 11  1  0
 11 12  1  0
 11 13  2  0
 13 14  1  0
 13 15  1  0
 15 16  1  0
 16 17  1  0
 16 18  1  0
 16 19  1  0
 15 20  2  0
 20 21  1  0
  3 22  2  0
 22 23  1  0
 22 24  1  0
 24 25  1  0
 24 26  1  0
 24 27  1  0
 27 28  1  0
 27 29  1  0
 27 30  1  0
 30 31  1  0
 31 32  2  0
 32 33  1  0
 32 34  1  0
 34 35  1  0
 34 36  2  0
 36 37  1  0
 36 38  1  0
 38 39  1  0
 38 40  2  0
 40 41  1  0
 20  8  1  0
 40 31  1  0
M  CHG  1   4  -1
M  END
>  <UniqueID>  (65) 
20

>  <SMILES>  (65) 
O/C(=C\CCOc1ccc(Cl)cc1Cl)[N-]/N=C\c1cccc(C(F)(F)F)c1

>  <Energy>  (65) 
41.151461544442085

>  <Genealogy>  (65) 
O=C(CCCOc1ccc(Cl)cc1Cl)[N-]N=Cc1cccc(C(F)(F)F)c1 (protonated)
OC(=CCCOc1ccc(Cl)cc1Cl)[N-]N=Cc1cccc(C(F)(F)F)c1 (tautomer)
O/C(=C\CCOc1ccc(Cl)cc1Cl)[N-]/N=C\c1cccc(C(F)(F)F)c1 (cis-trans isomerization)
O/C(=C\CCOc1ccc(Cl)cc1Cl)[N-]/N=C\c1cccc(C(F)(F)F)c1 (3D coordinates assigned)
O/C(=C\CCOc1ccc(Cl)cc1Cl)[N-]/N=C\c1cccc(C(F)(F)F)c1 (optimized conformer: 41.151461544442085 kcal/mol)

>  <smiles>  (65) 
O=C(CCCOc1ccc(Cl)cc1Cl)NN=Cc1cccc(C(F)(F)F)c1

>  <score_type>  (65) 
oracle

>  <origin>  (65) 
autodockgpu

>  <m_score__min__energy>  (65) 
-7.1100000000000003

>  <m_primary>  (65) 
energy

>  <meeko>  (65) 
{"free_energy": -6.66, "intermolecular_energy": -9.94, "internal_energy": -0.82, "cluster_size": 5, "cluster_id": 1, "rank_in_cluster": 2}

>  <energy>  (65) 
-6.22

>  <cluster_rmsd>  (65) 
1.9

>  <rmsd>  (65) 
273.11

>  <cluster>  (65) 
1

$$$$
JBHRSOAXAGIKHA-MUXIEFDRNA-N
     RDKit          3D

 41 42  0  0  0  0  0  0  0  0999 V2000
  138.1100   73.1410  223.0920 H   0  0  0  0  0  0  0  0  0  0  0  0
  137.9140   73.7750  222.3270 O   0  0  0  0  0  0  0  0  0  0  0  0
  139.8710   74.1070  221.0380 C   0  0  0  0  0  0  0  0  0  0  0  0
  138.8520   76.0080  222.1230 N   0  0  0  0  0  0  0  0  0  0  0  0
  139.8620   76.9030  221.7380 N   0  0  0  0  0  0  0  0  0  0  0  0
  138.9060   74.6090  221.8200 C   0  0  0  0  0  0  0  0  0  0  0  0
  139.7651   74.1982  219.9469 H   0  0  0  0  0  0  0  0  0  0  0  0
  141.2660   78.6400  222.7550 C   0  0  0  0  0  0  0  0  0  0  0  0
  142.1150   78.9210  223.8340 C   0  0  0  0  0  0  0  0  0  0  0  0
  142.4230   78.1121  224.5128 H   0  0  0  0  0  0  0  0  0  0  0  0
  142.5720   80.2220  224.0520 C   0  0  0  0  0  0  0  0  0  0  0  0
  143.2316   80.4350  224.9061 H   0  0  0  0  0  0  0  0  0  0  0  0
  142.1950   81.2540  223.1900 C   0  0  0  0  0  0  0  0  0  0  0  0
  142.5650   82.2752  223.3640 H   0  0  0  0  0  0  0  0  0  0  0  0
  141.3450   80.9940  222.1010 C   0  0  0  0  0  0  0  0  0  0  0  0
  140.9910   82.0870  221.1240 C   0  0  0  0  0  0  0  0  0  0  0  0
  139.6180   82.1410  220.9780 F   0  0  0  0  0  0  0  0  0  0  0  0
  141.4440   83.3120  221.5860 F   0  0  0  0  0  0  0  0  0  0  0  0
  141.5680   81.8510  219.8890 F   0  0  0  0  0  0  0  0  0  0  0  0
  140.9100   79.6780  221.8750 C   0  0  0  0  0  0  0  0  0  0  0  0
  140.2830   79.4561  220.9988 H   0  0  0  0  0  0  0  0  0  0  0  0
  140.8470   77.2400  222.5160 C   0  0  0  0  0  0  0  0  0  0  0  0
  141.4015   76.4388  223.0265 H   0  0  0  0  0  0  0  0  0  0  0  0
  141.0930   73.4240  221.5880 C   0  0  0  0  0  0  0  0  0  0  0  0
  141.7968   73.2406  220.7627 H   0  0  0  0  0  0  0  0  0  0  0  0
  141.5306   74.0835  222.3519 H   0  0  0  0  0  0  0  0  0  0  0  0
  140.7620   72.0850  222.2600 C   0  0  0  0  0  0  0  0  0  0  0  0
  140.1374   71.4868  221.5803 H   0  0  0  0  0  0  0  0  0  0  0  0
  141.7046   71.5624  222.4800 H   0  0  0  0  0  0  0  0  0  0  0  0
  140.0560   72.2850  223.4890 O   0  0  0  0  0  0  0  0  0  0  0  0
  140.1750   71.4680  224.6260 C   0  0  0  0  0  0  0  0  0  0  0  0
  141.0040   71.8140  225.7100 C   0  0  0  0  0  0  0  0  0  0  0  0
  141.6063   72.7334  225.6663 H   0  0  0  0  0  0  0  0  0  0  0  0
  141.0660   70.9960  226.8410 C   0  0  0  0  0  0  0  0  0  0  0  0
  141.7149   71.2742  227.6845 H   0  0  0  0  0  0  0  0  0  0  0  0
  140.3060   69.8260  226.9030 C   0  0  0  0  0  0  0  0  0  0  0  0
  140.3620   68.8180  228.3380 Cl  0  0  0  0  0  0  0  0  0  0  0  0
  139.5000   69.4610  225.8210 C   0  0  0  0  0  0  0  0  0  0  0  0
  138.9103   68.5335  225.8649 H   0  0  0  0  0  0  0  0  0  0  0  0
  139.4410   70.2720  224.6820 C   0  0  0  0  0  0  0  0  0  0  0  0
  138.3990   69.8040  223.3460 Cl  0  0  0  0  0  0  0  0  0  0  0  0
  1  2  1  0
  2  3  1  0
  3  4  1  0
  4  5  1  0
  5  6  2  0
  6  7  1  0
  6  8  1  0
  8  9  2  0
  9 10  1  0
  9 11  1  0
 11 12  1  0
 11 13  2  0
 13 14  1  0
 13 15  1  0
 15 16  1  0
 16 17  1  0
 16 18  1  0
 16 19  1  0
 15 20  2  0
 20 21  1  0
  3 22  2  0
 22 23  1  0
 22 24  1  0
 24 25  1  0
 24 26  1  0
 24 27  1  0
 27 28  1  0
 27 29  1  0
 27 30  1  0
 30 31  1  0
 31 32  2  0
 32 33  1  0
 32 34  1  0
 34 35  1  0
 34 36  2  0
 36 37  1  0
 36 38  1  0
 38 39  1  0
 38 40  2  0
 40 41  1  0
 20  8  1  0
 40 31  1  0
M  CHG  1   4  -1
M  END
>  <UniqueID>  (66) 
20

>  <SMILES>  (66) 
O/C(=C\CCOc1ccc(Cl)cc1Cl)[N-]/N=C\c1cccc(C(F)(F)F)c1

>  <Energy>  (66) 
41.151461544442085

>  <Genealogy>  (66) 
O=C(CCCOc1ccc(Cl)cc1Cl)[N-]N=Cc1cccc(C(F)(F)F)c1 (protonated)
OC(=CCCOc1ccc(Cl)cc1Cl)[N-]N=Cc1cccc(C(F)(F)F)c1 (tautomer)
O/C(=C\CCOc1ccc(Cl)cc1Cl)[N-]/N=C\c1cccc(C(F)(F)F)c1 (cis-trans isomerization)
O/C(=C\CCOc1ccc(Cl)cc1Cl)[N-]/N=C\c1cccc(C(F)(F)F)c1 (3D coordinates assigned)
O/C(=C\CCOc1ccc(Cl)cc1Cl)[N-]/N=C\c1cccc(C(F)(F)F)c1 (optimized conformer: 41.151461544442085 kcal/mol)

>  <smiles>  (66) 
O=C(CCCOc1ccc(Cl)cc1Cl)NN=Cc1cccc(C(F)(F)F)c1

>  <score_type>  (66) 
oracle

>  <origin>  (66) 
autodockgpu

>  <m_score__min__energy>  (66) 
-7.1100000000000003

>  <m_primary>  (66) 
energy

>  <meeko>  (66) 
{"free_energy": -5.99, "intermolecular_energy": -9.27, "internal_energy": -1.26, "cluster_size": 6, "cluster_id": 3, "rank_in_cluster": 5}

>  <energy>  (66) 
-7.02

>  <cluster_rmsd>  (66) 
0.0

>  <rmsd>  (66) 
273.8

>  <cluster>  (66) 
2

$$$$
JBHRSOAXAGIKHA-MUXIEFDRNA-N
     RDKit          3D

 41 42  0  0  0  0  0  0  0  0999 V2000
  138.8020   75.0990  223.3920 H   0  0  0  0  0  0  0  0  0  0  0  0
  139.3060   75.6410  222.7020 O   0  0  0  0  0  0  0  0  0  0  0  0
  140.1270   75.0190  221.7660 C   0  0  0  0  0  0  0  0  0  0  0  0
  140.5980   73.6930  222.0360 N   0  0  0  0  0  0  0  0  0  0  0  0
  139.8250   72.7420  222.7180 N   0  0  0  0  0  0  0  0  0  0  0  0
  140.2470   71.5410  222.9820 C   0  0  0  0  0  0  0  0  0  0  0  0
  140.7064   70.9624  222.1670 H   0  0  0  0  0  0  0  0  0  0  0  0
  140.1450   70.9070  224.3160 C   0  0  0  0  0  0  0  0  0  0  0  0
  139.6720   69.5910  224.4100 C   0  0  0  0  0  0  0  0  0  0  0  0
  139.3421   69.0626  223.5034 H   0  0  0  0  0  0  0  0  0  0  0  0
  139.6170   68.9470  225.6470 C   0  0  0  0  0  0  0  0  0  0  0  0
  139.2368   67.9169  225.7123 H   0  0  0  0  0  0  0  0  0  0  0  0
  140.0430   69.6060  226.8020 C   0  0  0  0  0  0  0  0  0  0  0  0
  140.0027   69.0900  227.7726 H   0  0  0  0  0  0  0  0  0  0  0  0
  140.5230   70.9250  226.7310 C   0  0  0  0  0  0  0  0  0  0  0  0
  141.0530   71.6180  227.9620 C   0  0  0  0  0  0  0  0  0  0  0  0
  141.7740   70.7130  228.7190 F   0  0  0  0  0  0  0  0  0  0  0  0
  141.8810   72.6690  227.6060 F   0  0  0  0  0  0  0  0  0  0  0  0
  140.0170   72.1240  228.7280 F   0  0  0  0  0  0  0  0  0  0  0  0
  140.5980   71.5570  225.4790 C   0  0  0  0  0  0  0  0  0  0  0  0
  141.0158   72.5720  225.4067 H   0  0  0  0  0  0  0  0  0  0  0  0
  140.4890   75.6690  220.6520 C   0  0  0  0  0  0  0  0  0  0  0  0
  139.7500   75.7826  219.8452 H   0  0  0  0  0  0  0  0  0  0  0  0
  141.8620   76.2500  220.4570 C   0  0  0  0  0  0  0  0  0  0  0  0
  142.4254   76.1473  221.3962 H   0  0  0  0  0  0  0  0  0  0  0  0
  142.3441   75.7010  219.6347 H   0  0  0  0  0  0  0  0  0  0  0  0
  141.8210   77.7340  220.0670 C   0  0  0  0  0  0  0  0  0  0  0  0
  142.6158   77.9347  219.3335 H   0  0  0  0  0  0  0  0  0  0  0  0
  140.8330   77.9549  219.6368 H   0  0  0  0  0  0  0  0  0  0  0  0
  142.0170   78.5730  221.2100 O   0  0  0  0  0  0  0  0  0  0  0  0
  140.9850   79.1330  221.9820 C   0  0  0  0  0  0  0  0  0  0  0  0
  139.6310   78.8120  221.7620 C   0  0  0  0  0  0  0  0  0  0  0  0
  139.3567   78.1277  220.9456 H   0  0  0  0  0  0  0  0  0  0  0  0
  138.6350   79.3580  222.5750 C   0  0  0  0  0  0  0  0  0  0  0  0
  137.5800   79.1018  222.3977 H   0  0  0  0  0  0  0  0  0  0  0  0
  138.9760   80.2290  223.6130 C   0  0  0  0  0  0  0  0  0  0  0  0
  137.7250   80.8880  224.6520 Cl  0  0  0  0  0  0  0  0  0  0  0  0
  140.3140   80.5740  223.8220 C   0  0  0  0  0  0  0  0  0  0  0  0
  140.5813   81.2693  224.6314 H   0  0  0  0  0  0  0  0  0  0  0  0
  141.3150   80.0370  223.0040 C   0  0  0  0  0  0  0  0  0  0  0  0
  142.9930   80.4660  223.3050 Cl  0  0  0  0  0  0  0  0  0  0  0  0
  1  2  1  0
  2  3  1  0
  3  4  1  0
  4  5  1  0
  5  6  2  0
  6  7  1  0
  6  8  1  0
  8  9  2  0
  9 10  1  0
  9 11  1  0
 11 12  1  0
 11 13  2  0
 13 14  1  0
 13 15  1  0
 15 16  1  0
 16 17  1  0
 16 18  1  0
 16 19  1  0
 15 20  2  0
 20 21  1  0
  3 22  2  0
 22 23  1  0
 22 24  1  0
 24 25  1  0
 24 26  1  0
 24 27  1  0
 27 28  1  0
 27 29  1  0
 27 30  1  0
 30 31  1  0
 31 32  2  0
 32 33  1  0
 32 34  1  0
 34 35  1  0
 34 36  2  0
 36 37  1  0
 36 38  1  0
 38 39  1  0
 38 40  2  0
 40 41  1  0
 20  8  1  0
 40 31  1  0
M  CHG  1   4  -1
M  END
>  <UniqueID>  (67) 
20

>  <SMILES>  (67) 
O/C(=C\CCOc1ccc(Cl)cc1Cl)[N-]/N=C\c1cccc(C(F)(F)F)c1

>  <Energy>  (67) 
41.151461544442085

>  <Genealogy>  (67) 
O=C(CCCOc1ccc(Cl)cc1Cl)[N-]N=Cc1cccc(C(F)(F)F)c1 (protonated)
OC(=CCCOc1ccc(Cl)cc1Cl)[N-]N=Cc1cccc(C(F)(F)F)c1 (tautomer)
O/C(=C\CCOc1ccc(Cl)cc1Cl)[N-]/N=C\c1cccc(C(F)(F)F)c1 (cis-trans isomerization)
O/C(=C\CCOc1ccc(Cl)cc1Cl)[N-]/N=C\c1cccc(C(F)(F)F)c1 (3D coordinates assigned)
O/C(=C\CCOc1ccc(Cl)cc1Cl)[N-]/N=C\c1cccc(C(F)(F)F)c1 (optimized conformer: 41.151461544442085 kcal/mol)

>  <smiles>  (67) 
O=C(CCCOc1ccc(Cl)cc1Cl)NN=Cc1cccc(C(F)(F)F)c1

>  <score_type>  (67) 
oracle

>  <origin>  (67) 
autodockgpu

>  <m_score__min__energy>  (67) 
-7.1100000000000003

>  <m_primary>  (67) 
energy

>  <meeko>  (67) 
{"free_energy": -7.02, "intermolecular_energy": -10.31, "internal_energy": -0.93, "cluster_size": 4, "cluster_id": 2, "rank_in_cluster": 1}

>  <energy>  (67) 
-6.71

>  <cluster_rmsd>  (67) 
1.65

>  <rmsd>  (67) 
273.5

>  <cluster>  (67) 
2

$$$$
JBHRSOAXAGIKHA-MUXIEFDRNA-N
     RDKit          3D

 41 42  0  0  0  0  0  0  0  0999 V2000
  142.1740   75.2710  222.0080 H   0  0  0  0  0  0  0  0  0  0  0  0
  141.3190   75.8090  222.0780 O   0  0  0  0  0  0  0  0  0  0  0  0
  140.0870   75.2320  221.7830 C   0  0  0  0  0  0  0  0  0  0  0  0
  139.7720   73.9540  222.3470 N   0  0  0  0  0  0  0  0  0  0  0  0
  140.7590   73.0230  222.7070 N   0  0  0  0  0  0  0  0  0  0  0  0
  140.5150   71.7570  222.8720 C   0  0  0  0  0  0  0  0  0  0  0  0
  140.5262   71.1069  221.9847 H   0  0  0  0  0  0  0  0  0  0  0  0
  140.2230   71.1400  224.1850 C   0  0  0  0  0  0  0  0  0  0  0  0
  139.5630   69.9040  224.2240 C   0  0  0  0  0  0  0  0  0  0  0  0
  139.2330   69.4308  223.2875 H   0  0  0  0  0  0  0  0  0  0  0  0
  139.3220   69.2700  225.4440 C   0  0  0  0  0  0  0  0  0  0  0  0
  138.7952   68.3046  225.4656 H   0  0  0  0  0  0  0  0  0  0  0  0
  139.7480   69.8580  226.6380 C   0  0  0  0  0  0  0  0  0  0  0  0
  139.5619   69.3492  227.5953 H   0  0  0  0  0  0  0  0  0  0  0  0
  140.4130   71.0960  226.6220 C   0  0  0  0  0  0  0  0  0  0  0  0
  140.9390   71.7020  227.8990 C   0  0  0  0  0  0  0  0  0  0  0  0
  141.5610   70.7200  228.6460 F   0  0  0  0  0  0  0  0  0  0  0  0
  141.8540   72.7030  227.6170 F   0  0  0  0  0  0  0  0  0  0  0  0
  139.9100   72.2530  228.6430 F   0  0  0  0  0  0  0  0  0  0  0  0
  140.6720   71.7150  225.3880 C   0  0  0  0  0  0  0  0  0  0  0  0
  141.2328   72.6610  225.3619 H   0  0  0  0  0  0  0  0  0  0  0  0
  139.2320   75.8560  220.9610 C   0  0  0  0  0  0  0  0  0  0  0  0
  138.5826   76.6415  221.3749 H   0  0  0  0  0  0  0  0  0  0  0  0
  139.1220   75.5290  219.4980 C   0  0  0  0  0  0  0  0  0  0  0  0
  138.7129   74.5133  219.3930 H   0  0  0  0  0  0  0  0  0  0  0  0
  138.4634   76.2790  219.0356 H   0  0  0  0  0  0  0  0  0  0  0  0
  140.4780   75.5910  218.7800 C   0  0  0  0  0  0  0  0  0  0  0  0
  140.3135   75.8472  217.7230 H   0  0  0  0  0  0  0  0  0  0  0  0
  141.0988   76.3551  219.2708 H   0  0  0  0  0  0  0  0  0  0  0  0
  141.1590   74.3340  218.8560 O   0  0  0  0  0  0  0  0  0  0  0  0
  142.3990   74.1290  219.4840 C   0  0  0  0  0  0  0  0  0  0  0  0
  143.3100   75.1810  219.6970 C   0  0  0  0  0  0  0  0  0  0  0  0
  143.0705   76.1929  219.3384 H   0  0  0  0  0  0  0  0  0  0  0  0
  144.5160   74.9470  220.3610 C   0  0  0  0  0  0  0  0  0  0  0  0
  145.2219   75.7746  220.5246 H   0  0  0  0  0  0  0  0  0  0  0  0
  144.8280   73.6640  220.8180 C   0  0  0  0  0  0  0  0  0  0  0  0
  146.3300   73.3810  221.6800 Cl  0  0  0  0  0  0  0  0  0  0  0  0
  143.9420   72.6080  220.5880 C   0  0  0  0  0  0  0  0  0  0  0  0
  144.1929   71.5953  220.9366 H   0  0  0  0  0  0  0  0  0  0  0  0
  142.7360   72.8360  219.9150 C   0  0  0  0  0  0  0  0  0  0  0  0
  141.6270   71.4960  219.6630 Cl  0  0  0  0  0  0  0  0  0  0  0  0
  1  2  1  0
  2  3  1  0
  3  4  1  0
  4  5  1  0
  5  6  2  0
  6  7  1  0
  6  8  1  0
  8  9  2  0
  9 10  1  0
  9 11  1  0
 11 12  1  0
 11 13  2  0
 13 14  1  0
 13 15  1  0
 15 16  1  0
 16 17  1  0
 16 18  1  0
 16 19  1  0
 15 20  2  0
 20 21  1  0
  3 22  2  0
 22 23  1  0
 22 24  1  0
 24 25  1  0
 24 26  1  0
 24 27  1  0
 27 28  1  0
 27 29  1  0
 27 30  1  0
 30 31  1  0
 31 32  2  0
 32 33  1  0
 32 34  1  0
 34 35  1  0
 34 36  2  0
 36 37  1  0
 36 38  1  0
 38 39  1  0
 38 40  2  0
 40 41  1  0
 20  8  1  0
 40 31  1  0
M  CHG  1   4  -1
M  END
>  <UniqueID>  (68) 
20

>  <SMILES>  (68) 
O/C(=C\CCOc1ccc(Cl)cc1Cl)[N-]/N=C\c1cccc(C(F)(F)F)c1

>  <Energy>  (68) 
41.151461544442085

>  <Genealogy>  (68) 
O=C(CCCOc1ccc(Cl)cc1Cl)[N-]N=Cc1cccc(C(F)(F)F)c1 (protonated)
OC(=CCCOc1ccc(Cl)cc1Cl)[N-]N=Cc1cccc(C(F)(F)F)c1 (tautomer)
O/C(=C\CCOc1ccc(Cl)cc1Cl)[N-]/N=C\c1cccc(C(F)(F)F)c1 (cis-trans isomerization)
O/C(=C\CCOc1ccc(Cl)cc1Cl)[N-]/N=C\c1cccc(C(F)(F)F)c1 (3D coordinates assigned)
O/C(=C\CCOc1ccc(Cl)cc1Cl)[N-]/N=C\c1cccc(C(F)(F)F)c1 (optimized conformer: 41.151461544442085 kcal/mol)

>  <smiles>  (68) 
O=C(CCCOc1ccc(Cl)cc1Cl)NN=Cc1cccc(C(F)(F)F)c1

>  <score_type>  (68) 
oracle

>  <origin>  (68) 
autodockgpu

>  <m_score__min__energy>  (68) 
-7.1100000000000003

>  <m_primary>  (68) 
energy

>  <meeko>  (68) 
{"free_energy": -5.91, "intermolecular_energy": -9.2, "internal_energy": -1.51, "cluster_size": 2, "cluster_id": 4, "rank_in_cluster": 2}

>  <energy>  (68) 
-6.24

>  <cluster_rmsd>  (68) 
1.6

>  <rmsd>  (68) 
273.54

>  <cluster>  (68) 
2

$$$$
JBHRSOAXAGIKHA-MUXIEFDRNA-N
     RDKit          3D

 41 42  0  0  0  0  0  0  0  0999 V2000
  139.3660   74.4250  223.1820 H   0  0  0  0  0  0  0  0  0  0  0  0
  139.8840   74.4410  222.3120 O   0  0  0  0  0  0  0  0  0  0  0  0
  139.8790   73.3420  221.4590 C   0  0  0  0  0  0  0  0  0  0  0  0
  139.5310   72.0580  221.9890 N   0  0  0  0  0  0  0  0  0  0  0  0
  139.6110   71.7610  223.3590 N   0  0  0  0  0  0  0  0  0  0  0  0
  140.7390   71.6190  223.9900 C   0  0  0  0  0  0  0  0  0  0  0  0
  141.6698   71.8188  223.4389 H   0  0  0  0  0  0  0  0  0  0  0  0
  140.8430   71.2040  225.4070 C   0  0  0  0  0  0  0  0  0  0  0  0
  140.9920   72.1870  226.3940 C   0  0  0  0  0  0  0  0  0  0  0  0
  141.0732   73.2450  226.1040 H   0  0  0  0  0  0  0  0  0  0  0  0
  141.0380   71.8320  227.7430 C   0  0  0  0  0  0  0  0  0  0  0  0
  141.1644   72.6098  228.5105 H   0  0  0  0  0  0  0  0  0  0  0  0
  140.9240   70.4920  228.1220 C   0  0  0  0  0  0  0  0  0  0  0  0
  140.9533   70.2200  229.1874 H   0  0  0  0  0  0  0  0  0  0  0  0
  140.7720   69.4900  227.1480 C   0  0  0  0  0  0  0  0  0  0  0  0
  140.5750   68.0500  227.5520 C   0  0  0  0  0  0  0  0  0  0  0  0
  139.2220   67.7690  227.5930 F   0  0  0  0  0  0  0  0  0  0  0  0
  141.1830   67.2050  226.6380 F   0  0  0  0  0  0  0  0  0  0  0  0
  141.1250   67.8080  228.7980 F   0  0  0  0  0  0  0  0  0  0  0  0
  140.7020   69.8590  225.7950 C   0  0  0  0  0  0  0  0  0  0  0  0
  140.5349   69.0872  225.0292 H   0  0  0  0  0  0  0  0  0  0  0  0
  140.2260   73.4890  220.1720 C   0  0  0  0  0  0  0  0  0  0  0  0
  140.1053   74.4770  219.7036 H   0  0  0  0  0  0  0  0  0  0  0  0
  140.7730   72.3610  219.3420 C   0  0  0  0  0  0  0  0  0  0  0  0
  141.7056   72.0036  219.8029 H   0  0  0  0  0  0  0  0  0  0  0  0
  140.0100   71.5694  219.3085 H   0  0  0  0  0  0  0  0  0  0  0  0
  141.0690   72.7860  217.8970 C   0  0  0  0  0  0  0  0  0  0  0  0
  141.0110   71.9029  217.2437 H   0  0  0  0  0  0  0  0  0  0  0  0
  140.3265   73.5395  217.5953 H   0  0  0  0  0  0  0  0  0  0  0  0
  142.3740   73.3640  217.7870 O   0  0  0  0  0  0  0  0  0  0  0  0
  143.3530   73.3340  218.7940 C   0  0  0  0  0  0  0  0  0  0  0  0
  144.0600   72.1580  219.1110 C   0  0  0  0  0  0  0  0  0  0  0  0
  143.8275   71.2207  218.5842 H   0  0  0  0  0  0  0  0  0  0  0  0
  145.0550   72.1760  220.0910 C   0  0  0  0  0  0  0  0  0  0  0  0
  145.6045   71.2541  220.3319 H   0  0  0  0  0  0  0  0  0  0  0  0
  145.3540   73.3620  220.7660 C   0  0  0  0  0  0  0  0  0  0  0  0
  146.6260   73.3870  221.9750 Cl  0  0  0  0  0  0  0  0  0  0  0  0
  144.6390   74.5270  220.4780 C   0  0  0  0  0  0  0  0  0  0  0  0
  144.8656   75.4577  221.0188 H   0  0  0  0  0  0  0  0  0  0  0  0
  143.6350   74.5130  219.5030 C   0  0  0  0  0  0  0  0  0  0  0  0
  142.7690   75.9980  219.1390 Cl  0  0  0  0  0  0  0  0  0  0  0  0
  1  2  1  0
  2  3  1  0
  3  4  1  0
  4  5  1  0
  5  6  2  0
  6  7  1  0
  6  8  1  0
  8  9  2  0
  9 10  1  0
  9 11  1  0
 11 12  1  0
 11 13  2  0
 13 14  1  0
 13 15  1  0
 15 16  1  0
 16 17  1  0
 16 18  1  0
 16 19  1  0
 15 20  2  0
 20 21  1  0
  3 22  2  0
 22 23  1  0
 22 24  1  0
 24 25  1  0
 24 26  1  0
 24 27  1  0
 27 28  1  0
 27 29  1  0
 27 30  1  0
 30 31  1  0
 31 32  2  0
 32 33  1  0
 32 34  1  0
 34 35  1  0
 34 36  2  0
 36 37  1  0
 36 38  1  0
 38 39  1  0
 38 40  2  0
 40 41  1  0
 20  8  1  0
 40 31  1  0
M  CHG  1   4  -1
M  END
>  <UniqueID>  (69) 
20

>  <SMILES>  (69) 
O/C(=C\CCOc1ccc(Cl)cc1Cl)[N-]/N=C\c1cccc(C(F)(F)F)c1

>  <Energy>  (69) 
41.151461544442085

>  <Genealogy>  (69) 
O=C(CCCOc1ccc(Cl)cc1Cl)[N-]N=Cc1cccc(C(F)(F)F)c1 (protonated)
OC(=CCCOc1ccc(Cl)cc1Cl)[N-]N=Cc1cccc(C(F)(F)F)c1 (tautomer)
O/C(=C\CCOc1ccc(Cl)cc1Cl)[N-]/N=C\c1cccc(C(F)(F)F)c1 (cis-trans isomerization)
O/C(=C\CCOc1ccc(Cl)cc1Cl)[N-]/N=C\c1cccc(C(F)(F)F)c1 (3D coordinates assigned)
O/C(=C\CCOc1ccc(Cl)cc1Cl)[N-]/N=C\c1cccc(C(F)(F)F)c1 (optimized conformer: 41.151461544442085 kcal/mol)

>  <smiles>  (69) 
O=C(CCCOc1ccc(Cl)cc1Cl)NN=Cc1cccc(C(F)(F)F)c1

>  <score_type>  (69) 
oracle

>  <origin>  (69) 
autodockgpu

>  <m_score__min__energy>  (69) 
-7.1100000000000003

>  <m_primary>  (69) 
energy

>  <meeko>  (69) 
{"free_energy": -6.15, "intermolecular_energy": -9.43, "internal_energy": -1.06, "cluster_size": 1, "cluster_id": 5, "rank_in_cluster": 1}

>  <energy>  (69) 
-6.23

>  <cluster_rmsd>  (69) 
1.57

>  <rmsd>  (69) 
273.41

>  <cluster>  (69) 
2

$$$$
JBHRSOAXAGIKHA-MUXIEFDRNA-N
     RDKit          3D

 41 42  0  0  0  0  0  0  0  0999 V2000
  139.2560   73.8480  223.0930 H   0  0  0  0  0  0  0  0  0  0  0  0
  139.5550   74.6740  222.5900 O   0  0  0  0  0  0  0  0  0  0  0  0
  140.1720   73.3810  220.7050 C   0  0  0  0  0  0  0  0  0  0  0  0
  140.5720   75.7620  220.6680 N   0  0  0  0  0  0  0  0  0  0  0  0
  140.4240   77.0370  221.2370 N   0  0  0  0  0  0  0  0  0  0  0  0
  140.1080   74.5710  221.3160 C   0  0  0  0  0  0  0  0  0  0  0  0
  140.4324   73.3512  219.6367 H   0  0  0  0  0  0  0  0  0  0  0  0
  141.3550   78.8150  222.6480 C   0  0  0  0  0  0  0  0  0  0  0  0
  142.1920   79.0890  223.7380 C   0  0  0  0  0  0  0  0  0  0  0  0
  142.5677   78.2629  224.3596 H   0  0  0  0  0  0  0  0  0  0  0  0
  142.5520   80.4030  224.0400 C   0  0  0  0  0  0  0  0  0  0  0  0
  143.2021   80.6090  224.9031 H   0  0  0  0  0  0  0  0  0  0  0  0
  142.0890   81.4580  223.2490 C   0  0  0  0  0  0  0  0  0  0  0  0
  142.3827   82.4908  223.4878 H   0  0  0  0  0  0  0  0  0  0  0  0
  141.2500   81.2060  222.1500 C   0  0  0  0  0  0  0  0  0  0  0  0
  140.8050   82.3310  221.2490 C   0  0  0  0  0  0  0  0  0  0  0  0
  141.1250   82.0210  219.9410 F   0  0  0  0  0  0  0  0  0  0  0  0
  139.4350   82.5140  221.3470 F   0  0  0  0  0  0  0  0  0  0  0  0
  141.4260   83.5170  221.5980 F   0  0  0  0  0  0  0  0  0  0  0  0
  140.9120   79.8780  221.8400 C   0  0  0  0  0  0  0  0  0  0  0  0
  140.2937   79.6669  220.9550 H   0  0  0  0  0  0  0  0  0  0  0  0
  141.0400   77.4070  222.3200 C   0  0  0  0  0  0  0  0  0  0  0  0
  141.3449   76.6280  223.0343 H   0  0  0  0  0  0  0  0  0  0  0  0
  139.9030   72.0830  221.4170 C   0  0  0  0  0  0  0  0  0  0  0  0
  138.8488   72.0638  221.7307 H   0  0  0  0  0  0  0  0  0  0  0  0
  140.1303   71.2638  220.7190 H   0  0  0  0  0  0  0  0  0  0  0  0
  140.7900   71.9020  222.6570 C   0  0  0  0  0  0  0  0  0  0  0  0
  141.2846   70.9209  222.6049 H   0  0  0  0  0  0  0  0  0  0  0  0
  141.5360   72.7102  222.6743 H   0  0  0  0  0  0  0  0  0  0  0  0
  140.0150   71.9720  223.8590 O   0  0  0  0  0  0  0  0  0  0  0  0
  140.2210   71.1720  224.9940 C   0  0  0  0  0  0  0  0  0  0  0  0
  140.9280   71.6400  226.1190 C   0  0  0  0  0  0  0  0  0  0  0  0
  141.3643   72.6497  226.1097 H   0  0  0  0  0  0  0  0  0  0  0  0
  141.0780   70.8290  227.2460 C   0  0  0  0  0  0  0  0  0  0  0  0
  141.6295   71.2025  228.1214 H   0  0  0  0  0  0  0  0  0  0  0  0
  140.5290   69.5440  227.2640 C   0  0  0  0  0  0  0  0  0  0  0  0
  140.6930   68.5400  228.6940 Cl  0  0  0  0  0  0  0  0  0  0  0  0
  139.8500   69.0610  226.1430 C   0  0  0  0  0  0  0  0  0  0  0  0
  139.4287   68.0449  226.1528 H   0  0  0  0  0  0  0  0  0  0  0  0
  139.7040   69.8660  225.0070 C   0  0  0  0  0  0  0  0  0  0  0  0
  138.8210   69.2450  223.6210 Cl  0  0  0  0  0  0  0  0  0  0  0  0
  1  2  1  0
  2  3  1  0
  3  4  1  0
  4  5  1  0
  5  6  2  0
  6  7  1  0
  6  8  1  0
  8  9  2  0
  9 10  1  0
  9 11  1  0
 11 12  1  0
 11 13  2  0
 13 14  1  0
 13 15  1  0
 15 16  1  0
 16 17  1  0
 16 18  1  0
 16 19  1  0
 15 20  2  0
 20 21  1  0
  3 22  2  0
 22 23  1  0
 22 24  1  0
 24 25  1  0
 24 26  1  0
 24 27  1  0
 27 28  1  0
 27 29  1  0
 27 30  1  0
 30 31  1  0
 31 32  2  0
 32 33  1  0
 32 34  1  0
 34 35  1  0
 34 36  2  0
 36 37  1  0
 36 38  1  0
 38 39  1  0
 38 40  2  0
 40 41  1  0
 20  8  1  0
 40 31  1  0
M  CHG  1   4  -1
M  END
>  <UniqueID>  (70) 
20

>  <SMILES>  (70) 
O/C(=C\CCOc1ccc(Cl)cc1Cl)[N-]/N=C\c1cccc(C(F)(F)F)c1

>  <Energy>  (70) 
41.151461544442085

>  <Genealogy>  (70) 
O=C(CCCOc1ccc(Cl)cc1Cl)[N-]N=Cc1cccc(C(F)(F)F)c1 (protonated)
OC(=CCCOc1ccc(Cl)cc1Cl)[N-]N=Cc1cccc(C(F)(F)F)c1 (tautomer)
O/C(=C\CCOc1ccc(Cl)cc1Cl)[N-]/N=C\c1cccc(C(F)(F)F)c1 (cis-trans isomerization)
O/C(=C\CCOc1ccc(Cl)cc1Cl)[N-]/N=C\c1cccc(C(F)(F)F)c1 (3D coordinates assigned)
O/C(=C\CCOc1ccc(Cl)cc1Cl)[N-]/N=C\c1cccc(C(F)(F)F)c1 (optimized conformer: 41.151461544442085 kcal/mol)

>  <smiles>  (70) 
O=C(CCCOc1ccc(Cl)cc1Cl)NN=Cc1cccc(C(F)(F)F)c1

>  <score_type>  (70) 
oracle

>  <origin>  (70) 
autodockgpu

>  <m_score__min__energy>  (70) 
-7.1100000000000003

>  <m_primary>  (70) 
energy

>  <meeko>  (70) 
{"free_energy": -6.39, "intermolecular_energy": -9.67, "internal_energy": -1.09, "cluster_size": 6, "cluster_id": 3, "rank_in_cluster": 3}

>  <energy>  (70) 
-6.53

>  <cluster_rmsd>  (70) 
0.0

>  <rmsd>  (70) 
273.52

>  <cluster>  (70) 
3

$$$$
JBHRSOAXAGIKHA-MUXIEFDRNA-N
     RDKit          3D

 41 42  0  0  0  0  0  0  0  0999 V2000
  139.4250   73.6190  223.0940 H   0  0  0  0  0  0  0  0  0  0  0  0
  139.5500   74.3340  222.3890 O   0  0  0  0  0  0  0  0  0  0  0  0
  141.1150   73.0700  221.1410 C   0  0  0  0  0  0  0  0  0  0  0  0
  141.0820   75.4710  220.8830 N   0  0  0  0  0  0  0  0  0  0  0  0
  140.6850   76.7410  221.3290 N   0  0  0  0  0  0  0  0  0  0  0  0
  140.5970   74.2600  221.4760 C   0  0  0  0  0  0  0  0  0  0  0  0
  141.5702   72.9547  220.1463 H   0  0  0  0  0  0  0  0  0  0  0  0
  141.3790   78.6390  222.7220 C   0  0  0  0  0  0  0  0  0  0  0  0
  142.1750   78.9650  223.8280 C   0  0  0  0  0  0  0  0  0  0  0  0
  142.4840   78.1772  224.5307 H   0  0  0  0  0  0  0  0  0  0  0  0
  142.5780   80.2840  224.0430 C   0  0  0  0  0  0  0  0  0  0  0  0
  143.1955   80.5324  224.9188 H   0  0  0  0  0  0  0  0  0  0  0  0
  142.2000   81.2900  223.1500 C   0  0  0  0  0  0  0  0  0  0  0  0
  142.5269   82.3261  223.3221 H   0  0  0  0  0  0  0  0  0  0  0  0
  141.4040   80.9840  222.0330 C   0  0  0  0  0  0  0  0  0  0  0  0
  141.0520   82.0490  221.0250 C   0  0  0  0  0  0  0  0  0  0  0  0
  141.7210   81.7960  219.8420 F   0  0  0  0  0  0  0  0  0  0  0  0
  139.6890   82.0520  220.7810 F   0  0  0  0  0  0  0  0  0  0  0  0
  141.4110   83.3030  221.4870 F   0  0  0  0  0  0  0  0  0  0  0  0
  141.0230   79.6500  221.8110 C   0  0  0  0  0  0  0  0  0  0  0  0
  140.4396   79.3932  220.9145 H   0  0  0  0  0  0  0  0  0  0  0  0
  141.0180   77.2220  222.4900 C   0  0  0  0  0  0  0  0  0  0  0  0
  141.0324   76.5363  223.3500 H   0  0  0  0  0  0  0  0  0  0  0  0
  141.1000   71.8860  222.0680 C   0  0  0  0  0  0  0  0  0  0  0  0
  141.6944   71.0774  221.6177 H   0  0  0  0  0  0  0  0  0  0  0  0
  141.5224   72.2089  223.0310 H   0  0  0  0  0  0  0  0  0  0  0  0
  139.6800   71.3660  222.3310 C   0  0  0  0  0  0  0  0  0  0  0  0
  138.9794   71.8753  221.6530 H   0  0  0  0  0  0  0  0  0  0  0  0
  139.6669   70.2802  222.1553 H   0  0  0  0  0  0  0  0  0  0  0  0
  139.2840   71.6130  223.6850 O   0  0  0  0  0  0  0  0  0  0  0  0
  139.7400   70.8900  224.7990 C   0  0  0  0  0  0  0  0  0  0  0  0
  140.6720   71.4280  225.7080 C   0  0  0  0  0  0  0  0  0  0  0  0
  141.0872   72.4319  225.5351 H   0  0  0  0  0  0  0  0  0  0  0  0
  141.0720   70.6950  226.8270 C   0  0  0  0  0  0  0  0  0  0  0  0
  141.7994   71.1230  227.5325 H   0  0  0  0  0  0  0  0  0  0  0  0
  140.5500   69.4190  227.0520 C   0  0  0  0  0  0  0  0  0  0  0  0
  141.0310   68.5130  228.4760 Cl  0  0  0  0  0  0  0  0  0  0  0  0
  139.6450   68.8650  226.1420 C   0  0  0  0  0  0  0  0  0  0  0  0
  139.2439   67.8551  226.3129 H   0  0  0  0  0  0  0  0  0  0  0  0
  139.2480   69.5920  225.0140 C   0  0  0  0  0  0  0  0  0  0  0  0
  138.0880   68.8840  223.9000 Cl  0  0  0  0  0  0  0  0  0  0  0  0
  1  2  1  0
  2  3  1  0
  3  4  1  0
  4  5  1  0
  5  6  2  0
  6  7  1  0
  6  8  1  0
  8  9  2  0
  9 10  1  0
  9 11  1  0
 11 12  1  0
 11 13  2  0
 13 14  1  0
 13 15  1  0
 15 16  1  0
 16 17  1  0
 16 18  1  0
 16 19  1  0
 15 20  2  0
 20 21  1  0
  3 22  2  0
 22 23  1  0
 22 24  1  0
 24 25  1  0
 24 26  1  0
 24 27  1  0
 27 28  1  0
 27 29  1  0
 27 30  1  0
 30 31  1  0
 31 32  2  0
 32 33  1  0
 32 34  1  0
 34 35  1  0
 34 36  2  0
 36 37  1  0
 36 38  1  0
 38 39  1  0
 38 40  2  0
 40 41  1  0
 20  8  1  0
 40 31  1  0
M  CHG  1   4  -1
M  END
>  <UniqueID>  (71) 
20

>  <SMILES>  (71) 
O/C(=C\CCOc1ccc(Cl)cc1Cl)[N-]/N=C\c1cccc(C(F)(F)F)c1

>  <Energy>  (71) 
41.151461544442085

>  <Genealogy>  (71) 
O=C(CCCOc1ccc(Cl)cc1Cl)[N-]N=Cc1cccc(C(F)(F)F)c1 (protonated)
OC(=CCCOc1ccc(Cl)cc1Cl)[N-]N=Cc1cccc(C(F)(F)F)c1 (tautomer)
O/C(=C\CCOc1ccc(Cl)cc1Cl)[N-]/N=C\c1cccc(C(F)(F)F)c1 (cis-trans isomerization)
O/C(=C\CCOc1ccc(Cl)cc1Cl)[N-]/N=C\c1cccc(C(F)(F)F)c1 (3D coordinates assigned)
O/C(=C\CCOc1ccc(Cl)cc1Cl)[N-]/N=C\c1cccc(C(F)(F)F)c1 (optimized conformer: 41.151461544442085 kcal/mol)

>  <smiles>  (71) 
O=C(CCCOc1ccc(Cl)cc1Cl)NN=Cc1cccc(C(F)(F)F)c1

>  <score_type>  (71) 
oracle

>  <origin>  (71) 
autodockgpu

>  <m_score__min__energy>  (71) 
-7.1100000000000003

>  <m_primary>  (71) 
energy

>  <meeko>  (71) 
{"free_energy": -6.5, "intermolecular_energy": -9.78, "internal_energy": -1.12, "cluster_size": 6, "cluster_id": 3, "rank_in_cluster": 2}

>  <energy>  (71) 
-6.5

>  <cluster_rmsd>  (71) 
1.17

>  <rmsd>  (71) 
273.4

>  <cluster>  (71) 
3

$$$$
JBHRSOAXAGIKHA-MUXIEFDRNA-N
     RDKit          3D

 41 42  0  0  0  0  0  0  0  0999 V2000
  138.9030   73.5410  223.0680 H   0  0  0  0  0  0  0  0  0  0  0  0
  139.7550   73.7910  222.5810 O   0  0  0  0  0  0  0  0  0  0  0  0
  141.5790   73.1860  221.1990 C   0  0  0  0  0  0  0  0  0  0  0  0
  140.0870   71.4580  221.9840 N   0  0  0  0  0  0  0  0  0  0  0  0
  139.3280   70.9620  223.0560 N   0  0  0  0  0  0  0  0  0  0  0  0
  140.4930   72.8290  221.8970 C   0  0  0  0  0  0  0  0  0  0  0  0
  142.2685   72.3992  220.8591 H   0  0  0  0  0  0  0  0  0  0  0  0
  139.8620   69.6890  225.0840 C   0  0  0  0  0  0  0  0  0  0  0  0
  139.8740   68.4090  225.6550 C   0  0  0  0  0  0  0  0  0  0  0  0
  139.6323   67.5320  225.0366 H   0  0  0  0  0  0  0  0  0  0  0  0
  140.1910   68.2410  227.0040 C   0  0  0  0  0  0  0  0  0  0  0  0
  140.1889   67.2338  227.4461 H   0  0  0  0  0  0  0  0  0  0  0  0
  140.5110   69.3480  227.7950 C   0  0  0  0  0  0  0  0  0  0  0  0
  140.7672   69.2073  228.8554 H   0  0  0  0  0  0  0  0  0  0  0  0
  140.5070   70.6400  227.2420 C   0  0  0  0  0  0  0  0  0  0  0  0
  140.9210   71.8310  228.0690 C   0  0  0  0  0  0  0  0  0  0  0  0
  139.8280   72.2960  228.7770 F   0  0  0  0  0  0  0  0  0  0  0  0
  141.9180   71.4760  228.9610 F   0  0  0  0  0  0  0  0  0  0  0  0
  141.4030   72.8480  227.2630 F   0  0  0  0  0  0  0  0  0  0  0  0
  140.2100   70.7970  225.8780 C   0  0  0  0  0  0  0  0  0  0  0  0
  140.2500   71.7987  225.4252 H   0  0  0  0  0  0  0  0  0  0  0  0
  139.5780   69.8270  223.6380 C   0  0  0  0  0  0  0  0  0  0  0  0
  139.5785   68.9167  223.0204 H   0  0  0  0  0  0  0  0  0  0  0  0
  141.8960   74.6170  220.8600 C   0  0  0  0  0  0  0  0  0  0  0  0
  141.8156   75.2228  221.7746 H   0  0  0  0  0  0  0  0  0  0  0  0
  142.9145   74.6456  220.4455 H   0  0  0  0  0  0  0  0  0  0  0  0
  140.9440   75.1930  219.8020 C   0  0  0  0  0  0  0  0  0  0  0  0
  141.5365   75.6037  218.9712 H   0  0  0  0  0  0  0  0  0  0  0  0
  140.2872   74.3854  219.4465 H   0  0  0  0  0  0  0  0  0  0  0  0
  140.1290   76.2320  220.3530 O   0  0  0  0  0  0  0  0  0  0  0  0
  140.6000   77.2760  221.1670 C   0  0  0  0  0  0  0  0  0  0  0  0
  141.7820   77.9810  220.8660 C   0  0  0  0  0  0  0  0  0  0  0  0
  142.3798   77.6967  219.9875 H   0  0  0  0  0  0  0  0  0  0  0  0
  142.1990   79.0390  221.6770 C   0  0  0  0  0  0  0  0  0  0  0  0
  143.1227   79.5851  221.4351 H   0  0  0  0  0  0  0  0  0  0  0  0
  141.4450   79.4050  222.7950 C   0  0  0  0  0  0  0  0  0  0  0  0
  141.9550   80.7560  223.7930 Cl  0  0  0  0  0  0  0  0  0  0  0  0
  140.2860   78.6950  223.1170 C   0  0  0  0  0  0  0  0  0  0  0  0
  139.6999   78.9754  224.0046 H   0  0  0  0  0  0  0  0  0  0  0  0
  139.8680   77.6270  222.3130 C   0  0  0  0  0  0  0  0  0  0  0  0
  138.3920   76.7670  222.7240 Cl  0  0  0  0  0  0  0  0  0  0  0  0
  1  2  1  0
  2  3  1  0
  3  4  1  0
  4  5  1  0
  5  6  2  0
  6  7  1  0
  6  8  1  0
  8  9  2  0
  9 10  1  0
  9 11  1  0
 11 12  1  0
 11 13  2  0
 13 14  1  0
 13 15  1  0
 15 16  1  0
 16 17  1  0
 16 18  1  0
 16 19  1  0
 15 20  2  0
 20 21  1  0
  3 22  2  0
 22 23  1  0
 22 24  1  0
 24 25  1  0
 24 26  1  0
 24 27  1  0
 27 28  1  0
 27 29  1  0
 27 30  1  0
 30 31  1  0
 31 32  2  0
 32 33  1  0
 32 34  1  0
 34 35  1  0
 34 36  2  0
 36 37  1  0
 36 38  1  0
 38 39  1  0
 38 40  2  0
 40 41  1  0
 20  8  1  0
 40 31  1  0
M  CHG  1   4  -1
M  END
>  <UniqueID>  (72) 
20

>  <SMILES>  (72) 
O/C(=C\CCOc1ccc(Cl)cc1Cl)[N-]/N=C\c1cccc(C(F)(F)F)c1

>  <Energy>  (72) 
41.151461544442085

>  <Genealogy>  (72) 
O=C(CCCOc1ccc(Cl)cc1Cl)[N-]N=Cc1cccc(C(F)(F)F)c1 (protonated)
OC(=CCCOc1ccc(Cl)cc1Cl)[N-]N=Cc1cccc(C(F)(F)F)c1 (tautomer)
O/C(=C\CCOc1ccc(Cl)cc1Cl)[N-]/N=C\c1cccc(C(F)(F)F)c1 (cis-trans isomerization)
O/C(=C\CCOc1ccc(Cl)cc1Cl)[N-]/N=C\c1cccc(C(F)(F)F)c1 (3D coordinates assigned)
O/C(=C\CCOc1ccc(Cl)cc1Cl)[N-]/N=C\c1cccc(C(F)(F)F)c1 (optimized conformer: 41.151461544442085 kcal/mol)

>  <smiles>  (72) 
O=C(CCCOc1ccc(Cl)cc1Cl)NN=Cc1cccc(C(F)(F)F)c1

>  <score_type>  (72) 
oracle

>  <origin>  (72) 
autodockgpu

>  <m_score__min__energy>  (72) 
-7.1100000000000003

>  <m_primary>  (72) 
energy

>  <meeko>  (72) 
{"free_energy": -6.71, "intermolecular_energy": -9.99, "internal_energy": -0.99, "cluster_size": 4, "cluster_id": 2, "rank_in_cluster": 2}

>  <energy>  (72) 
-6.39

>  <cluster_rmsd>  (72) 
1.16

>  <rmsd>  (72) 
273.47

>  <cluster>  (72) 
3

$$$$
JBHRSOAXAGIKHA-MUXIEFDRNA-N
     RDKit          3D

 41 42  0  0  0  0  0  0  0  0999 V2000
  140.6600   72.1740  222.7980 H   0  0  0  0  0  0  0  0  0  0  0  0
  140.7630   73.0790  222.3570 O   0  0  0  0  0  0  0  0  0  0  0  0
  139.6460   73.8290  221.9990 C   0  0  0  0  0  0  0  0  0  0  0  0
  139.6030   75.2160  222.3550 N   0  0  0  0  0  0  0  0  0  0  0  0
  140.0700   76.2280  221.5020 N   0  0  0  0  0  0  0  0  0  0  0  0
  141.0760   76.9960  221.7980 C   0  0  0  0  0  0  0  0  0  0  0  0
  142.0826   76.6699  221.4975 H   0  0  0  0  0  0  0  0  0  0  0  0
  140.9460   78.2840  222.5160 C   0  0  0  0  0  0  0  0  0  0  0  0
  142.0990   79.0350  222.7810 C   0  0  0  0  0  0  0  0  0  0  0  0
  143.0853   78.6422  222.4929 H   0  0  0  0  0  0  0  0  0  0  0  0
  142.0040   80.2780  223.4080 C   0  0  0  0  0  0  0  0  0  0  0  0
  142.9154   80.8565  223.6195 H   0  0  0  0  0  0  0  0  0  0  0  0
  140.7550   80.7900  223.7680 C   0  0  0  0  0  0  0  0  0  0  0  0
  140.6868   81.7735  224.2559 H   0  0  0  0  0  0  0  0  0  0  0  0
  139.5850   80.0550  223.5100 C   0  0  0  0  0  0  0  0  0  0  0  0
  138.2280   80.6320  223.8290 C   0  0  0  0  0  0  0  0  0  0  0  0
  138.0800   80.7150  225.2010 F   0  0  0  0  0  0  0  0  0  0  0  0
  138.1020   81.8980  223.2840 F   0  0  0  0  0  0  0  0  0  0  0  0
  137.2200   79.8360  223.3140 F   0  0  0  0  0  0  0  0  0  0  0  0
  139.6890   78.8150  222.8570 C   0  0  0  0  0  0  0  0  0  0  0  0
  138.7764   78.2529  222.6096 H   0  0  0  0  0  0  0  0  0  0  0  0
  138.6220   73.2460  221.3600 C   0  0  0  0  0  0  0  0  0  0  0  0
  138.0964   73.8146  220.5787 H   0  0  0  0  0  0  0  0  0  0  0  0
  138.1610   71.8470  221.6660 C   0  0  0  0  0  0  0  0  0  0  0  0
  137.1109   71.7451  221.3545 H   0  0  0  0  0  0  0  0  0  0  0  0
  138.8136   71.1516  221.1178 H   0  0  0  0  0  0  0  0  0  0  0  0
  138.2670   71.5090  223.1590 C   0  0  0  0  0  0  0  0  0  0  0  0
  138.0293   72.4069  223.7483 H   0  0  0  0  0  0  0  0  0  0  0  0
  137.5578   70.6991  223.3849 H   0  0  0  0  0  0  0  0  0  0  0  0
  139.5860   71.0650  223.4950 O   0  0  0  0  0  0  0  0  0  0  0  0
  139.9490   70.4800  224.7190 C   0  0  0  0  0  0  0  0  0  0  0  0
  140.6070   71.2090  225.7280 C   0  0  0  0  0  0  0  0  0  0  0  0
  140.8786   72.2606  225.5538 H   0  0  0  0  0  0  0  0  0  0  0  0
  140.9170   70.6050  226.9490 C   0  0  0  0  0  0  0  0  0  0  0  0
  141.4295   71.1821  227.7328 H   0  0  0  0  0  0  0  0  0  0  0  0
  140.5770   69.2690  227.1760 C   0  0  0  0  0  0  0  0  0  0  0  0
  140.9390   68.5220  228.7220 Cl  0  0  0  0  0  0  0  0  0  0  0  0
  139.9480   68.5290  226.1710 C   0  0  0  0  0  0  0  0  0  0  0  0
  139.6918   67.4736  226.3455 H   0  0  0  0  0  0  0  0  0  0  0  0
  139.6430   69.1280  224.9420 C   0  0  0  0  0  0  0  0  0  0  0  0
  138.8280   68.1830  223.7050 Cl  0  0  0  0  0  0  0  0  0  0  0  0
  1  2  1  0
  2  3  1  0
  3  4  1  0
  4  5  1  0
  5  6  2  0
  6  7  1  0
  6  8  1  0
  8  9  2  0
  9 10  1  0
  9 11  1  0
 11 12  1  0
 11 13  2  0
 13 14  1  0
 13 15  1  0
 15 16  1  0
 16 17  1  0
 16 18  1  0
 16 19  1  0
 15 20  2  0
 20 21  1  0
  3 22  2  0
 22 23  1  0
 22 24  1  0
 24 25  1  0
 24 26  1  0
 24 27  1  0
 27 28  1  0
 27 29  1  0
 27 30  1  0
 30 31  1  0
 31 32  2  0
 32 33  1  0
 32 34  1  0
 34 35  1  0
 34 36  2  0
 36 37  1  0
 36 38  1  0
 38 39  1  0
 38 40  2  0
 40 41  1  0
 20  8  1  0
 40 31  1  0
M  CHG  1   4  -1
M  END
>  <UniqueID>  (73) 
20

>  <SMILES>  (73) 
O/C(=C\CCOc1ccc(Cl)cc1Cl)[N-]/N=C\c1cccc(C(F)(F)F)c1

>  <Energy>  (73) 
41.151461544442085

>  <Genealogy>  (73) 
O=C(CCCOc1ccc(Cl)cc1Cl)[N-]N=Cc1cccc(C(F)(F)F)c1 (protonated)
OC(=CCCOc1ccc(Cl)cc1Cl)[N-]N=Cc1cccc(C(F)(F)F)c1 (tautomer)
O/C(=C\CCOc1ccc(Cl)cc1Cl)[N-]/N=C\c1cccc(C(F)(F)F)c1 (cis-trans isomerization)
O/C(=C\CCOc1ccc(Cl)cc1Cl)[N-]/N=C\c1cccc(C(F)(F)F)c1 (3D coordinates assigned)
O/C(=C\CCOc1ccc(Cl)cc1Cl)[N-]/N=C\c1cccc(C(F)(F)F)c1 (optimized conformer: 41.151461544442085 kcal/mol)

>  <smiles>  (73) 
O=C(CCCOc1ccc(Cl)cc1Cl)NN=Cc1cccc(C(F)(F)F)c1

>  <score_type>  (73) 
oracle

>  <origin>  (73) 
autodockgpu

>  <m_score__min__energy>  (73) 
-7.1100000000000003

>  <m_primary>  (73) 
energy

>  <meeko>  (73) 
{"free_energy": -6.02, "intermolecular_energy": -9.3, "internal_energy": -1.33, "cluster_size": 1, "cluster_id": 6, "rank_in_cluster": 1}

>  <energy>  (73) 
-6.2

>  <cluster_rmsd>  (73) 
1.32

>  <rmsd>  (73) 
273.34

>  <cluster>  (73) 
3

$$$$
JBHRSOAXAGIKHA-MUXIEFDRNA-N
     RDKit          3D

 41 42  0  0  0  0  0  0  0  0999 V2000
  142.2030   75.7330  221.6640 H   0  0  0  0  0  0  0  0  0  0  0  0
  141.7540   74.8320  221.5500 O   0  0  0  0  0  0  0  0  0  0  0  0
  139.5490   75.6900  221.4950 C   0  0  0  0  0  0  0  0  0  0  0  0
  139.9020   73.4290  222.2630 N   0  0  0  0  0  0  0  0  0  0  0  0
  140.6830   72.5780  223.0620 N   0  0  0  0  0  0  0  0  0  0  0  0
  140.3880   74.6830  221.7710 C   0  0  0  0  0  0  0  0  0  0  0  0
  139.0073   75.6767  220.5377 H   0  0  0  0  0  0  0  0  0  0  0  0
  140.4810   71.0100  224.9390 C   0  0  0  0  0  0  0  0  0  0  0  0
  140.9080   71.9480  225.8900 C   0  0  0  0  0  0  0  0  0  0  0  0
  141.0989   72.9877  225.5857 H   0  0  0  0  0  0  0  0  0  0  0  0
  141.0920   71.5690  227.2210 C   0  0  0  0  0  0  0  0  0  0  0  0
  141.4359   72.3087  227.9589 H   0  0  0  0  0  0  0  0  0  0  0  0
  140.8410   70.2540  227.6190 C   0  0  0  0  0  0  0  0  0  0  0  0
  140.9813   69.9643  228.6708 H   0  0  0  0  0  0  0  0  0  0  0  0
  140.4100   69.2990  226.6820 C   0  0  0  0  0  0  0  0  0  0  0  0
  140.0680   67.8960  227.1180 C   0  0  0  0  0  0  0  0  0  0  0  0
  139.9430   67.8640  228.4940 F   0  0  0  0  0  0  0  0  0  0  0  0
  138.8720   67.4920  226.5470 F   0  0  0  0  0  0  0  0  0  0  0  0
  141.0540   67.0050  226.7320 F   0  0  0  0  0  0  0  0  0  0  0  0
  140.2050   69.6940  225.3500 C   0  0  0  0  0  0  0  0  0  0  0  0
  139.8240   68.9651  224.6195 H   0  0  0  0  0  0  0  0  0  0  0  0
  140.2400   71.4570  223.5490 C   0  0  0  0  0  0  0  0  0  0  0  0
  139.6516   70.8024  222.8892 H   0  0  0  0  0  0  0  0  0  0  0  0
  139.3160   76.8380  222.4380 C   0  0  0  0  0  0  0  0  0  0  0  0
  138.4447   77.4110  222.0882 H   0  0  0  0  0  0  0  0  0  0  0  0
  139.1471   76.4188  223.4409 H   0  0  0  0  0  0  0  0  0  0  0  0
  140.5240   77.7810  222.5230 C   0  0  0  0  0  0  0  0  0  0  0  0
  140.1673   78.8215  222.5355 H   0  0  0  0  0  0  0  0  0  0  0  0
  141.0817   77.5523  223.4432 H   0  0  0  0  0  0  0  0  0  0  0  0
  141.3990   77.6000  221.4040 O   0  0  0  0  0  0  0  0  0  0  0  0
  141.6960   78.5860  220.4490 C   0  0  0  0  0  0  0  0  0  0  0  0
  141.4920   79.9560  220.7030 C   0  0  0  0  0  0  0  0  0  0  0  0
  141.0592   80.2757  221.6624 H   0  0  0  0  0  0  0  0  0  0  0  0
  141.8360   80.9110  219.7440 C   0  0  0  0  0  0  0  0  0  0  0  0
  141.6744   81.9793  219.9504 H   0  0  0  0  0  0  0  0  0  0  0  0
  142.3850   80.5120  218.5230 C   0  0  0  0  0  0  0  0  0  0  0  0
  142.8460   81.7170  217.3330 Cl  0  0  0  0  0  0  0  0  0  0  0  0
  142.5670   79.1540  218.2510 C   0  0  0  0  0  0  0  0  0  0  0  0
  142.9881   78.8397  217.2846 H   0  0  0  0  0  0  0  0  0  0  0  0
  142.2150   78.1920  219.2050 C   0  0  0  0  0  0  0  0  0  0  0  0
  142.4780   76.4920  218.8490 Cl  0  0  0  0  0  0  0  0  0  0  0  0
  1  2  1  0
  2  3  1  0
  3  4  1  0
  4  5  1  0
  5  6  2  0
  6  7  1  0
  6  8  1  0
  8  9  2  0
  9 10  1  0
  9 11  1  0
 11 12  1  0
 11 13  2  0
 13 14  1  0
 13 15  1  0
 15 16  1  0
 16 17  1  0
 16 18  1  0
 16 19  1  0
 15 20  2  0
 20 21  1  0
  3 22  2  0
 22 23  1  0
 22 24  1  0
 24 25  1  0
 24 26  1  0
 24 27  1  0
 27 28  1  0
 27 29  1  0
 27 30  1  0
 30 31  1  0
 31 32  2  0
 32 33  1  0
 32 34  1  0
 34 35  1  0
 34 36  2  0
 36 37  1  0
 36 38  1  0
 38 39  1  0
 38 40  2  0
 40 41  1  0
 20  8  1  0
 40 31  1  0
M  CHG  1   4  -1
M  END
>  <UniqueID>  (74) 
20

>  <SMILES>  (74) 
O/C(=C\CCOc1ccc(Cl)cc1Cl)[N-]/N=C\c1cccc(C(F)(F)F)c1

>  <Energy>  (74) 
41.151461544442085

>  <Genealogy>  (74) 
O=C(CCCOc1ccc(Cl)cc1Cl)[N-]N=Cc1cccc(C(F)(F)F)c1 (protonated)
OC(=CCCOc1ccc(Cl)cc1Cl)[N-]N=Cc1cccc(C(F)(F)F)c1 (tautomer)
O/C(=C\CCOc1ccc(Cl)cc1Cl)[N-]/N=C\c1cccc(C(F)(F)F)c1 (cis-trans isomerization)
O/C(=C\CCOc1ccc(Cl)cc1Cl)[N-]/N=C\c1cccc(C(F)(F)F)c1 (3D coordinates assigned)
O/C(=C\CCOc1ccc(Cl)cc1Cl)[N-]/N=C\c1cccc(C(F)(F)F)c1 (optimized conformer: 41.151461544442085 kcal/mol)

>  <smiles>  (74) 
O=C(CCCOc1ccc(Cl)cc1Cl)NN=Cc1cccc(C(F)(F)F)c1

>  <score_type>  (74) 
oracle

>  <origin>  (74) 
autodockgpu

>  <m_score__min__energy>  (74) 
-7.1100000000000003

>  <m_primary>  (74) 
energy

>  <meeko>  (74) 
{"free_energy": -6.22, "intermolecular_energy": -9.5, "internal_energy": -1.33, "cluster_size": 5, "cluster_id": 1, "rank_in_cluster": 5}

>  <energy>  (74) 
-5.99

>  <cluster_rmsd>  (74) 
1.47

>  <rmsd>  (74) 
273.34

>  <cluster>  (74) 
3

$$$$
JBHRSOAXAGIKHA-MUXIEFDRNA-N
     RDKit          3D

 41 42  0  0  0  0  0  0  0  0999 V2000
  138.9740   74.5000  223.0420 H   0  0  0  0  0  0  0  0  0  0  0  0
  139.6150   74.8610  222.3460 O   0  0  0  0  0  0  0  0  0  0  0  0
  141.5480   74.5990  221.0040 C   0  0  0  0  0  0  0  0  0  0  0  0
  140.8030   72.7410  222.3550 N   0  0  0  0  0  0  0  0  0  0  0  0
  140.0920   72.2630  223.4670 N   0  0  0  0  0  0  0  0  0  0  0  0
  140.6670   74.0830  221.8720 C   0  0  0  0  0  0  0  0  0  0  0  0
  142.6012   74.6832  221.3100 H   0  0  0  0  0  0  0  0  0  0  0  0
  140.6970   71.0470  225.5100 C   0  0  0  0  0  0  0  0  0  0  0  0
  141.0170   72.2130  226.2190 C   0  0  0  0  0  0  0  0  0  0  0  0
  141.0714   73.1764  225.6909 H   0  0  0  0  0  0  0  0  0  0  0  0
  141.2670   72.1590  227.5910 C   0  0  0  0  0  0  0  0  0  0  0  0
  141.5256   73.0780  228.1375 H   0  0  0  0  0  0  0  0  0  0  0  0
  141.1900   70.9420  228.2730 C   0  0  0  0  0  0  0  0  0  0  0  0
  141.3815   70.9080  229.3557 H   0  0  0  0  0  0  0  0  0  0  0  0
  140.8690   69.7610  227.5820 C   0  0  0  0  0  0  0  0  0  0  0  0
  140.7130   68.4560  228.3220 C   0  0  0  0  0  0  0  0  0  0  0  0
  139.5770   68.5120  229.1090 F   0  0  0  0  0  0  0  0  0  0  0  0
  140.5910   67.4060  227.4290 F   0  0  0  0  0  0  0  0  0  0  0  0
  141.8100   68.2130  229.1300 F   0  0  0  0  0  0  0  0  0  0  0  0
  140.5950   69.8280  226.2060 C   0  0  0  0  0  0  0  0  0  0  0  0
  140.2972   68.9171  225.6661 H   0  0  0  0  0  0  0  0  0  0  0  0
  140.3800   71.1470  224.0680 C   0  0  0  0  0  0  0  0  0  0  0  0
  140.3886   70.2236  223.4702 H   0  0  0  0  0  0  0  0  0  0  0  0
  141.1580   75.0680  219.6290 C   0  0  0  0  0  0  0  0  0  0  0  0
  141.6108   74.3961  218.8850 H   0  0  0  0  0  0  0  0  0  0  0  0
  140.0597   75.0543  219.5690 H   0  0  0  0  0  0  0  0  0  0  0  0
  141.6240   76.5020  219.3460 C   0  0  0  0  0  0  0  0  0  0  0  0
  142.6462   76.6302  219.7316 H   0  0  0  0  0  0  0  0  0  0  0  0
  141.5967   76.6701  218.2593 H   0  0  0  0  0  0  0  0  0  0  0  0
  140.7630   77.4580  219.9760 O   0  0  0  0  0  0  0  0  0  0  0  0
  141.1540   78.3390  220.9970 C   0  0  0  0  0  0  0  0  0  0  0  0
  141.0450   77.9990  222.3590 C   0  0  0  0  0  0  0  0  0  0  0  0
  140.6139   77.0290  222.6475 H   0  0  0  0  0  0  0  0  0  0  0  0
  141.4810   78.8860  223.3460 C   0  0  0  0  0  0  0  0  0  0  0  0
  141.3927   78.6125  224.4078 H   0  0  0  0  0  0  0  0  0  0  0  0
  142.0290   80.1200  222.9870 C   0  0  0  0  0  0  0  0  0  0  0  0
  142.6050   81.2180  224.2290 Cl  0  0  0  0  0  0  0  0  0  0  0  0
  142.1170   80.4780  221.6400 C   0  0  0  0  0  0  0  0  0  0  0  0
  142.5365   81.4552  221.3585 H   0  0  0  0  0  0  0  0  0  0  0  0
  141.6730   79.5970  220.6470 C   0  0  0  0  0  0  0  0  0  0  0  0
  141.8200   80.0600  218.9580 Cl  0  0  0  0  0  0  0  0  0  0  0  0
  1  2  1  0
  2  3  1  0
  3  4  1  0
  4  5  1  0
  5  6  2  0
  6  7  1  0
  6  8  1  0
  8  9  2  0
  9 10  1  0
  9 11  1  0
 11 12  1  0
 11 13  2  0
 13 14  1  0
 13 15  1  0
 15 16  1  0
 16 17  1  0
 16 18  1  0
 16 19  1  0
 15 20  2  0
 20 21  1  0
  3 22  2  0
 22 23  1  0
 22 24  1  0
 24 25  1  0
 24 26  1  0
 24 27  1  0
 27 28  1  0
 27 29  1  0
 27 30  1  0
 30 31  1  0
 31 32  2  0
 32 33  1  0
 32 34  1  0
 34 35  1  0
 34 36  2  0
 36 37  1  0
 36 38  1  0
 38 39  1  0
 38 40  2  0
 40 41  1  0
 20  8  1  0
 40 31  1  0
M  CHG  1   4  -1
M  END
>  <UniqueID>  (75) 
20

>  <SMILES>  (75) 
O/C(=C\CCOc1ccc(Cl)cc1Cl)[N-]/N=C\c1cccc(C(F)(F)F)c1

>  <Energy>  (75) 
41.151461544442085

>  <Genealogy>  (75) 
O=C(CCCOc1ccc(Cl)cc1Cl)[N-]N=Cc1cccc(C(F)(F)F)c1 (protonated)
OC(=CCCOc1ccc(Cl)cc1Cl)[N-]N=Cc1cccc(C(F)(F)F)c1 (tautomer)
O/C(=C\CCOc1ccc(Cl)cc1Cl)[N-]/N=C\c1cccc(C(F)(F)F)c1 (cis-trans isomerization)
O/C(=C\CCOc1ccc(Cl)cc1Cl)[N-]/N=C\c1cccc(C(F)(F)F)c1 (3D coordinates assigned)
O/C(=C\CCOc1ccc(Cl)cc1Cl)[N-]/N=C\c1cccc(C(F)(F)F)c1 (optimized conformer: 41.151461544442085 kcal/mol)

>  <smiles>  (75) 
O=C(CCCOc1ccc(Cl)cc1Cl)NN=Cc1cccc(C(F)(F)F)c1

>  <score_type>  (75) 
oracle

>  <origin>  (75) 
autodockgpu

>  <m_score__min__energy>  (75) 
-7.1100000000000003

>  <m_primary>  (75) 
energy

>  <meeko>  (75) 
{"free_energy": -7.11, "intermolecular_energy": -10.39, "internal_energy": -0.95, "cluster_size": 5, "cluster_id": 1, "rank_in_cluster": 1}

>  <energy>  (75) 
-5.98

>  <cluster_rmsd>  (75) 
1.9

>  <rmsd>  (75) 
273.26

>  <cluster>  (75) 
3

$$$$
JBHRSOAXAGIKHA-MUXIEFDRNA-N
     RDKit          3D

 41 42  0  0  0  0  0  0  0  0999 V2000
  142.6250   75.5200  221.3630 H   0  0  0  0  0  0  0  0  0  0  0  0
  142.2020   74.6820  220.9850 O   0  0  0  0  0  0  0  0  0  0  0  0
  140.8940   74.3340  221.3110 C   0  0  0  0  0  0  0  0  0  0  0  0
  140.1690   75.1620  222.2270 N   0  0  0  0  0  0  0  0  0  0  0  0
  140.6640   76.3920  222.6880 N   0  0  0  0  0  0  0  0  0  0  0  0
  140.1600   77.5380  222.3350 C   0  0  0  0  0  0  0  0  0  0  0  0
  139.1866   77.5405  221.8227 H   0  0  0  0  0  0  0  0  0  0  0  0
  140.8210   78.8390  222.5830 C   0  0  0  0  0  0  0  0  0  0  0  0
  141.7730   78.9340  223.6070 C   0  0  0  0  0  0  0  0  0  0  0  0
  141.9855   78.0590  224.2388 H   0  0  0  0  0  0  0  0  0  0  0  0
  142.4530   80.1320  223.8300 C   0  0  0  0  0  0  0  0  0  0  0  0
  143.1932   80.1994  224.6409 H   0  0  0  0  0  0  0  0  0  0  0  0
  142.1970   81.2460  223.0270 C   0  0  0  0  0  0  0  0  0  0  0  0
  142.7414   82.1853  223.2040 H   0  0  0  0  0  0  0  0  0  0  0  0
  141.2470   81.1720  221.9940 C   0  0  0  0  0  0  0  0  0  0  0  0
  141.0170   82.3480  221.0760 C   0  0  0  0  0  0  0  0  0  0  0  0
  141.7160   82.1510  219.9000 F   0  0  0  0  0  0  0  0  0  0  0  0
  139.6690   82.4750  220.7840 F   0  0  0  0  0  0  0  0  0  0  0  0
  141.4450   83.5240  221.6650 F   0  0  0  0  0  0  0  0  0  0  0  0
  140.5850   79.9550  221.7610 C   0  0  0  0  0  0  0  0  0  0  0  0
  139.8738   79.8743  220.9258 H   0  0  0  0  0  0  0  0  0  0  0  0
  140.3450   73.2260  220.7960 C   0  0  0  0  0  0  0  0  0  0  0  0
  140.3545   73.0927  219.7041 H   0  0  0  0  0  0  0  0  0  0  0  0
  139.7160   72.1560  221.6460 C   0  0  0  0  0  0  0  0  0  0  0  0
  138.7051   72.4813  221.9328 H   0  0  0  0  0  0  0  0  0  0  0  0
  139.6882   71.2298  221.0533 H   0  0  0  0  0  0  0  0  0  0  0  0
  140.5230   71.8720  222.9210 C   0  0  0  0  0  0  0  0  0  0  0  0
  141.2167   71.0401  222.7292 H   0  0  0  0  0  0  0  0  0  0  0  0
  141.0767   72.7825  223.1937 H   0  0  0  0  0  0  0  0  0  0  0  0
  139.6620   71.5210  224.0090 O   0  0  0  0  0  0  0  0  0  0  0  0
  140.0410   70.7420  225.1140 C   0  0  0  0  0  0  0  0  0  0  0  0
  140.7420   71.2880  226.2070 C   0  0  0  0  0  0  0  0  0  0  0  0
  141.0345   72.3483  226.1943 H   0  0  0  0  0  0  0  0  0  0  0  0
  141.0680   70.4910  227.3070 C   0  0  0  0  0  0  0  0  0  0  0  0
  141.6144   70.9253  228.1572 H   0  0  0  0  0  0  0  0  0  0  0  0
  140.7010   69.1430  227.3290 C   0  0  0  0  0  0  0  0  0  0  0  0
  141.0840   68.1530  228.7260 Cl  0  0  0  0  0  0  0  0  0  0  0  0
  140.0300   68.5850  226.2380 C   0  0  0  0  0  0  0  0  0  0  0  0
  139.7531   67.5205  226.2504 H   0  0  0  0  0  0  0  0  0  0  0  0
  139.7090   69.3770  225.1290 C   0  0  0  0  0  0  0  0  0  0  0  0
  138.8400   68.6580  223.7820 Cl  0  0  0  0  0  0  0  0  0  0  0  0
  1  2  1  0
  2  3  1  0
  3  4  1  0
  4  5  1  0
  5  6  2  0
  6  7  1  0
  6  8  1  0
  8  9  2  0
  9 10  1  0
  9 11  1  0
 11 12  1  0
 11 13  2  0
 13 14  1  0
 13 15  1  0
 15 16  1  0
 16 17  1  0
 16 18  1  0
 16 19  1  0
 15 20  2  0
 20 21  1  0
  3 22  2  0
 22 23  1  0
 22 24  1  0
 24 25  1  0
 24 26  1  0
 24 27  1  0
 27 28  1  0
 27 29  1  0
 27 30  1  0
 30 31  1  0
 31 32  2  0
 32 33  1  0
 32 34  1  0
 34 35  1  0
 34 36  2  0
 36 37  1  0
 36 38  1  0
 38 39  1  0
 38 40  2  0
 40 41  1  0
 20  8  1  0
 40 31  1  0
M  CHG  1   4  -1
M  END
>  <UniqueID>  (76) 
20

>  <SMILES>  (76) 
O/C(=C\CCOc1ccc(Cl)cc1Cl)[N-]/N=C\c1cccc(C(F)(F)F)c1

>  <Energy>  (76) 
41.151461544442085

>  <Genealogy>  (76) 
O=C(CCCOc1ccc(Cl)cc1Cl)[N-]N=Cc1cccc(C(F)(F)F)c1 (protonated)
OC(=CCCOc1ccc(Cl)cc1Cl)[N-]N=Cc1cccc(C(F)(F)F)c1 (tautomer)
O/C(=C\CCOc1ccc(Cl)cc1Cl)[N-]/N=C\c1cccc(C(F)(F)F)c1 (cis-trans isomerization)
O/C(=C\CCOc1ccc(Cl)cc1Cl)[N-]/N=C\c1cccc(C(F)(F)F)c1 (3D coordinates assigned)
O/C(=C\CCOc1ccc(Cl)cc1Cl)[N-]/N=C\c1cccc(C(F)(F)F)c1 (optimized conformer: 41.151461544442085 kcal/mol)

>  <smiles>  (76) 
O=C(CCCOc1ccc(Cl)cc1Cl)NN=Cc1cccc(C(F)(F)F)c1

>  <score_type>  (76) 
oracle

>  <origin>  (76) 
autodockgpu

>  <m_score__min__energy>  (76) 
-7.1100000000000003

>  <m_primary>  (76) 
energy

>  <meeko>  (76) 
{"free_energy": -6.53, "intermolecular_energy": -9.81, "internal_energy": -0.86, "cluster_size": 6, "cluster_id": 3, "rank_in_cluster": 1}

>  <energy>  (76) 
-6.34

>  <cluster_rmsd>  (76) 
0.0

>  <rmsd>  (76) 
272.94

>  <cluster>  (76) 
4

$$$$
JBHRSOAXAGIKHA-MUXIEFDRNA-N
     RDKit          3D

 41 42  0  0  0  0  0  0  0  0999 V2000
  142.1680   75.7830  221.8950 H   0  0  0  0  0  0  0  0  0  0  0  0
  141.8510   74.9040  221.5060 O   0  0  0  0  0  0  0  0  0  0  0  0
  140.5210   74.5100  221.6230 C   0  0  0  0  0  0  0  0  0  0  0  0
  140.2320   73.1620  222.0100 N   0  0  0  0  0  0  0  0  0  0  0  0
  140.6920   72.6080  223.2150 N   0  0  0  0  0  0  0  0  0  0  0  0
  140.0850   71.6340  223.8260 C   0  0  0  0  0  0  0  0  0  0  0  0
  139.2543   71.1341  223.3064 H   0  0  0  0  0  0  0  0  0  0  0  0
  140.4470   71.1590  225.1800 C   0  0  0  0  0  0  0  0  0  0  0  0
  140.7900   72.0990  226.1620 C   0  0  0  0  0  0  0  0  0  0  0  0
  140.8284   73.1680  225.9056 H   0  0  0  0  0  0  0  0  0  0  0  0
  141.0830   71.6870  227.4630 C   0  0  0  0  0  0  0  0  0  0  0  0
  141.3596   72.4310  228.2246 H   0  0  0  0  0  0  0  0  0  0  0  0
  141.0260   70.3320  227.8010 C   0  0  0  0  0  0  0  0  0  0  0  0
  141.2498   70.0146  228.8302 H   0  0  0  0  0  0  0  0  0  0  0  0
  140.6840   69.3730  226.8320 C   0  0  0  0  0  0  0  0  0  0  0  0
  140.5500   67.9180  227.2060 C   0  0  0  0  0  0  0  0  0  0  0  0
  141.2280   67.1460  226.2810 F   0  0  0  0  0  0  0  0  0  0  0  0
  141.0860   67.6910  228.4630 F   0  0  0  0  0  0  0  0  0  0  0  0
  139.2210   67.5340  227.2270 F   0  0  0  0  0  0  0  0  0  0  0  0
  140.3670   69.8000  225.5320 C   0  0  0  0  0  0  0  0  0  0  0  0
  140.0521   69.0619  224.7797 H   0  0  0  0  0  0  0  0  0  0  0  0
  139.5370   75.3770  221.3450 C   0  0  0  0  0  0  0  0  0  0  0  0
  139.2184   75.4936  220.2986 H   0  0  0  0  0  0  0  0  0  0  0  0
  138.8500   76.1970  222.4020 C   0  0  0  0  0  0  0  0  0  0  0  0
  137.8359   76.4434  222.0544 H   0  0  0  0  0  0  0  0  0  0  0  0
  138.8255   75.6007  223.3260 H   0  0  0  0  0  0  0  0  0  0  0  0
  139.5970   77.5020  222.7070 C   0  0  0  0  0  0  0  0  0  0  0  0
  139.0346   78.3457  222.2806 H   0  0  0  0  0  0  0  0  0  0  0  0
  139.6844   77.6069  223.7985 H   0  0  0  0  0  0  0  0  0  0  0  0
  140.9130   77.4870  222.1460 O   0  0  0  0  0  0  0  0  0  0  0  0
  141.3600   78.3400  221.1240 C   0  0  0  0  0  0  0  0  0  0  0  0
  141.4020   77.9320  219.7760 C   0  0  0  0  0  0  0  0  0  0  0  0
  141.1080   76.9071  219.5054 H   0  0  0  0  0  0  0  0  0  0  0  0
  141.8150   78.8220  218.7810 C   0  0  0  0  0  0  0  0  0  0  0  0
  141.8442   78.4964  217.7307 H   0  0  0  0  0  0  0  0  0  0  0  0
  142.1910   80.1250  219.1180 C   0  0  0  0  0  0  0  0  0  0  0  0
  142.6780   81.2490  217.8620 Cl  0  0  0  0  0  0  0  0  0  0  0  0
  142.1780   80.5310  220.4550 C   0  0  0  0  0  0  0  0  0  0  0  0
  142.4858   81.5530  220.7211 H   0  0  0  0  0  0  0  0  0  0  0  0
  141.7740   79.6400  221.4570 C   0  0  0  0  0  0  0  0  0  0  0  0
  141.7410   80.1840  223.1270 Cl  0  0  0  0  0  0  0  0  0  0  0  0
  1  2  1  0
  2  3  1  0
  3  4  1  0
  4  5  1  0
  5  6  2  0
  6  7  1  0
  6  8  1  0
  8  9  2  0
  9 10  1  0
  9 11  1  0
 11 12  1  0
 11 13  2  0
 13 14  1  0
 13 15  1  0
 15 16  1  0
 16 17  1  0
 16 18  1  0
 16 19  1  0
 15 20  2  0
 20 21  1  0
  3 22  2  0
 22 23  1  0
 22 24  1  0
 24 25  1  0
 24 26  1  0
 24 27  1  0
 27 28  1  0
 27 29  1  0
 27 30  1  0
 30 31  1  0
 31 32  2  0
 32 33  1  0
 32 34  1  0
 34 35  1  0
 34 36  2  0
 36 37  1  0
 36 38  1  0
 38 39  1  0
 38 40  2  0
 40 41  1  0
 20  8  1  0
 40 31  1  0
M  CHG  1   4  -1
M  END
>  <UniqueID>  (77) 
20

>  <SMILES>  (77) 
O/C(=C\CCOc1ccc(Cl)cc1Cl)[N-]/N=C\c1cccc(C(F)(F)F)c1

>  <Energy>  (77) 
41.151461544442085

>  <Genealogy>  (77) 
O=C(CCCOc1ccc(Cl)cc1Cl)[N-]N=Cc1cccc(C(F)(F)F)c1 (protonated)
OC(=CCCOc1ccc(Cl)cc1Cl)[N-]N=Cc1cccc(C(F)(F)F)c1 (tautomer)
O/C(=C\CCOc1ccc(Cl)cc1Cl)[N-]/N=C\c1cccc(C(F)(F)F)c1 (cis-trans isomerization)
O/C(=C\CCOc1ccc(Cl)cc1Cl)[N-]/N=C\c1cccc(C(F)(F)F)c1 (3D coordinates assigned)
O/C(=C\CCOc1ccc(Cl)cc1Cl)[N-]/N=C\c1cccc(C(F)(F)F)c1 (optimized conformer: 41.151461544442085 kcal/mol)

>  <smiles>  (77) 
O=C(CCCOc1ccc(Cl)cc1Cl)NN=Cc1cccc(C(F)(F)F)c1

>  <score_type>  (77) 
oracle

>  <origin>  (77) 
autodockgpu

>  <m_score__min__energy>  (77) 
-7.1100000000000003

>  <m_primary>  (77) 
energy

>  <meeko>  (77) 
{"free_energy": -6.27, "intermolecular_energy": -9.55, "internal_energy": -1.32, "cluster_size": 5, "cluster_id": 1, "rank_in_cluster": 4}

>  <energy>  (77) 
-5.91

>  <cluster_rmsd>  (77) 
1.52

>  <rmsd>  (77) 
272.9

>  <cluster>  (77) 
4

$$$$
JBHRSOAXAGIKHA-MUXIEFDRNA-N
     RDKit          3D

 41 42  0  0  0  0  0  0  0  0999 V2000
  139.4160   73.7510  223.1370 H   0  0  0  0  0  0  0  0  0  0  0  0
  139.6580   74.3490  222.3560 O   0  0  0  0  0  0  0  0  0  0  0  0
  139.0490   72.7510  220.7180 C   0  0  0  0  0  0  0  0  0  0  0  0
  140.6090   74.4960  220.1240 N   0  0  0  0  0  0  0  0  0  0  0  0
  140.6340   75.8930  219.9830 N   0  0  0  0  0  0  0  0  0  0  0  0
  139.7600   73.8320  221.0680 C   0  0  0  0  0  0  0  0  0  0  0  0
  138.2157   72.8751  220.0107 H   0  0  0  0  0  0  0  0  0  0  0  0
  141.0110   77.7160  221.5810 C   0  0  0  0  0  0  0  0  0  0  0  0
  139.7670   77.5900  222.2140 C   0  0  0  0  0  0  0  0  0  0  0  0
  139.1165   76.7355  221.9761 H   0  0  0  0  0  0  0  0  0  0  0  0
  139.3490   78.5420  223.1440 C   0  0  0  0  0  0  0  0  0  0  0  0
  138.3670   78.4399  223.6289 H   0  0  0  0  0  0  0  0  0  0  0  0
  140.1730   79.6250  223.4620 C   0  0  0  0  0  0  0  0  0  0  0  0
  139.8402   80.3673  224.2024 H   0  0  0  0  0  0  0  0  0  0  0  0
  141.4250   79.7700  222.8400 C   0  0  0  0  0  0  0  0  0  0  0  0
  142.3510   80.8950  223.2300 C   0  0  0  0  0  0  0  0  0  0  0  0
  142.1230   81.9790  222.4020 F   0  0  0  0  0  0  0  0  0  0  0  0
  142.1230   81.2750  224.5420 F   0  0  0  0  0  0  0  0  0  0  0  0
  143.6740   80.5080  223.1140 F   0  0  0  0  0  0  0  0  0  0  0  0
  141.8480   78.7940  221.9230 C   0  0  0  0  0  0  0  0  0  0  0  0
  142.8457   78.8733  221.4667 H   0  0  0  0  0  0  0  0  0  0  0  0
  141.4510   76.6580  220.6430 C   0  0  0  0  0  0  0  0  0  0  0  0
  142.5313   76.5113  220.4966 H   0  0  0  0  0  0  0  0  0  0  0  0
  139.3420   71.3760  221.2510 C   0  0  0  0  0  0  0  0  0  0  0  0
  138.4134   70.9501  221.6589 H   0  0  0  0  0  0  0  0  0  0  0  0
  139.7325   70.7706  220.4197 H   0  0  0  0  0  0  0  0  0  0  0  0
  140.4050   71.3910  222.3580 C   0  0  0  0  0  0  0  0  0  0  0  0
  140.9022   70.4104  222.3919 H   0  0  0  0  0  0  0  0  0  0  0  0
  141.1318   72.1856  222.1336 H   0  0  0  0  0  0  0  0  0  0  0  0
  139.8160   71.6610  223.6350 O   0  0  0  0  0  0  0  0  0  0  0  0
  140.0660   70.9270  224.8060 C   0  0  0  0  0  0  0  0  0  0  0  0
  140.8770   71.4280  225.8430 C   0  0  0  0  0  0  0  0  0  0  0  0
  141.3611   72.4096  225.7328 H   0  0  0  0  0  0  0  0  0  0  0  0
  141.0700   70.6860  227.0100 C   0  0  0  0  0  0  0  0  0  0  0  0
  141.7029   71.0856  227.8161 H   0  0  0  0  0  0  0  0  0  0  0  0
  140.4610   69.4370  227.1560 C   0  0  0  0  0  0  0  0  0  0  0  0
  140.6810   68.5220  228.6370 Cl  0  0  0  0  0  0  0  0  0  0  0  0
  139.6770   68.9190  226.1220 C   0  0  0  0  0  0  0  0  0  0  0  0
  139.2077   67.9302  226.2321 H   0  0  0  0  0  0  0  0  0  0  0  0
  139.4870   69.6550  224.9460 C   0  0  0  0  0  0  0  0  0  0  0  0
  138.4740   68.9930  223.6720 Cl  0  0  0  0  0  0  0  0  0  0  0  0
  1  2  1  0
  2  3  1  0
  3  4  1  0
  4  5  1  0
  5  6  2  0
  6  7  1  0
  6  8  1  0
  8  9  2  0
  9 10  1  0
  9 11  1  0
 11 12  1  0
 11 13  2  0
 13 14  1  0
 13 15  1  0
 15 16  1  0
 16 17  1  0
 16 18  1  0
 16 19  1  0
 15 20  2  0
 20 21  1  0
  3 22  2  0
 22 23  1  0
 22 24  1  0
 24 25  1  0
 24 26  1  0
 24 27  1  0
 27 28  1  0
 27 29  1  0
 27 30  1  0
 30 31  1  0
 31 32  2  0
 32 33  1  0
 32 34  1  0
 34 35  1  0
 34 36  2  0
 36 37  1  0
 36 38  1  0
 38 39  1  0
 38 40  2  0
 40 41  1  0
 20  8  1  0
 40 31  1  0
M  CHG  1   4  -1
M  END
>  <UniqueID>  (78) 
20

>  <SMILES>  (78) 
O/C(=C\CCOc1ccc(Cl)cc1Cl)[N-]/N=C\c1cccc(C(F)(F)F)c1

>  <Energy>  (78) 
41.151461544442085

>  <Genealogy>  (78) 
O=C(CCCOc1ccc(Cl)cc1Cl)[N-]N=Cc1cccc(C(F)(F)F)c1 (protonated)
OC(=CCCOc1ccc(Cl)cc1Cl)[N-]N=Cc1cccc(C(F)(F)F)c1 (tautomer)
O/C(=C\CCOc1ccc(Cl)cc1Cl)[N-]/N=C\c1cccc(C(F)(F)F)c1 (cis-trans isomerization)
O/C(=C\CCOc1ccc(Cl)cc1Cl)[N-]/N=C\c1cccc(C(F)(F)F)c1 (3D coordinates assigned)
O/C(=C\CCOc1ccc(Cl)cc1Cl)[N-]/N=C\c1cccc(C(F)(F)F)c1 (optimized conformer: 41.151461544442085 kcal/mol)

>  <smiles>  (78) 
O=C(CCCOc1ccc(Cl)cc1Cl)NN=Cc1cccc(C(F)(F)F)c1

>  <score_type>  (78) 
oracle

>  <origin>  (78) 
autodockgpu

>  <m_score__min__energy>  (78) 
-7.1100000000000003

>  <m_primary>  (78) 
energy

>  <meeko>  (78) 
{"free_energy": -5.98, "intermolecular_energy": -9.26, "internal_energy": -1.3, "cluster_size": 6, "cluster_id": 3, "rank_in_cluster": 6}

>  <energy>  (78) 
-6.15

>  <cluster_rmsd>  (78) 
0.0

>  <rmsd>  (78) 
272.87

>  <cluster>  (78) 
5

$$$$
JBHRSOAXAGIKHA-MUXIEFDRNA-N
     RDKit          3D

 41 42  0  0  0  0  0  0  0  0999 V2000
  137.6490   73.7160  222.9980 H   0  0  0  0  0  0  0  0  0  0  0  0
  137.9490   74.1080  222.1150 O   0  0  0  0  0  0  0  0  0  0  0  0
  139.4340   75.9460  221.9570 C   0  0  0  0  0  0  0  0  0  0  0  0
  140.3300   73.7060  221.8410 N   0  0  0  0  0  0  0  0  0  0  0  0
  140.6790   72.8080  222.8620 N   0  0  0  0  0  0  0  0  0  0  0  0
  139.2340   74.6200  221.9610 C   0  0  0  0  0  0  0  0  0  0  0  0
  140.3523   76.3387  221.4961 H   0  0  0  0  0  0  0  0  0  0  0  0
  140.0100   70.9670  224.3390 C   0  0  0  0  0  0  0  0  0  0  0  0
  139.5470   69.6450  224.3760 C   0  0  0  0  0  0  0  0  0  0  0  0
  139.2052   69.1592  223.4502 H   0  0  0  0  0  0  0  0  0  0  0  0
  139.5170   68.9410  225.5810 C   0  0  0  0  0  0  0  0  0  0  0  0
  139.1424   67.9070  225.6024 H   0  0  0  0  0  0  0  0  0  0  0  0
  139.9610   69.5450  226.7600 C   0  0  0  0  0  0  0  0  0  0  0  0
  139.9425   68.9813  227.7044 H   0  0  0  0  0  0  0  0  0  0  0  0
  140.4310   70.8690  226.7450 C   0  0  0  0  0  0  0  0  0  0  0  0
  140.9790   71.5040  227.9990 C   0  0  0  0  0  0  0  0  0  0  0  0
  139.9290   71.9470  228.7810 F   0  0  0  0  0  0  0  0  0  0  0  0
  141.7220   70.5850  228.7200 F   0  0  0  0  0  0  0  0  0  0  0  0
  141.7980   72.5760  227.6910 F   0  0  0  0  0  0  0  0  0  0  0  0
  140.4800   71.5620  225.5240 C   0  0  0  0  0  0  0  0  0  0  0  0
  140.8907   72.5820  225.4941 H   0  0  0  0  0  0  0  0  0  0  0  0
  140.0840   71.6660  223.0360 C   0  0  0  0  0  0  0  0  0  0  0  0
  139.6080   71.1914  222.1653 H   0  0  0  0  0  0  0  0  0  0  0  0
  138.4560   76.9190  222.5560 C   0  0  0  0  0  0  0  0  0  0  0  0
  137.7450   76.3631  223.1849 H   0  0  0  0  0  0  0  0  0  0  0  0
  139.0288   77.6505  223.1449 H   0  0  0  0  0  0  0  0  0  0  0  0
  137.6700   77.6910  221.4880 C   0  0  0  0  0  0  0  0  0  0  0  0
  137.7267   77.1444  220.5351 H   0  0  0  0  0  0  0  0  0  0  0  0
  136.6253   77.7814  221.8204 H   0  0  0  0  0  0  0  0  0  0  0  0
  138.2040   79.0060  221.3050 O   0  0  0  0  0  0  0  0  0  0  0  0
  139.3800   79.4850  221.9050 C   0  0  0  0  0  0  0  0  0  0  0  0
  139.3630   80.1840  223.1280 C   0  0  0  0  0  0  0  0  0  0  0  0
  138.4042   80.3947  223.6243 H   0  0  0  0  0  0  0  0  0  0  0  0
  140.5570   80.6110  223.7140 C   0  0  0  0  0  0  0  0  0  0  0  0
  140.5355   81.1555  224.6696 H   0  0  0  0  0  0  0  0  0  0  0  0
  141.7780   80.3480  223.0890 C   0  0  0  0  0  0  0  0  0  0  0  0
  143.2780   80.8580  223.8450 Cl  0  0  0  0  0  0  0  0  0  0  0  0
  141.8040   79.6800  221.8630 C   0  0  0  0  0  0  0  0  0  0  0  0
  142.7652   79.4848  221.3650 H   0  0  0  0  0  0  0  0  0  0  0  0
  140.6100   79.2580  221.2660 C   0  0  0  0  0  0  0  0  0  0  0  0
  140.6710   78.3950  219.7360 Cl  0  0  0  0  0  0  0  0  0  0  0  0
  1  2  1  0
  2  3  1  0
  3  4  1  0
  4  5  1  0
  5  6  2  0
  6  7  1  0
  6  8  1  0
  8  9  2  0
  9 10  1  0
  9 11  1  0
 11 12  1  0
 11 13  2  0
 13 14  1  0
 13 15  1  0
 15 16  1  0
 16 17  1  0
 16 18  1  0
 16 19  1  0
 15 20  2  0
 20 21  1  0
  3 22  2  0
 22 23  1  0
 22 24  1  0
 24 25  1  0
 24 26  1  0
 24 27  1  0
 27 28  1  0
 27 29  1  0
 27 30  1  0
 30 31  1  0
 31 32  2  0
 32 33  1  0
 32 34  1  0
 34 35  1  0
 34 36  2  0
 36 37  1  0
 36 38  1  0
 38 39  1  0
 38 40  2  0
 40 41  1  0
 20  8  1  0
 40 31  1  0
M  CHG  1   4  -1
M  END
>  <UniqueID>  (79) 
20

>  <SMILES>  (79) 
O/C(=C\CCOc1ccc(Cl)cc1Cl)[N-]/N=C\c1cccc(C(F)(F)F)c1

>  <Energy>  (79) 
41.151461544442085

>  <Genealogy>  (79) 
O=C(CCCOc1ccc(Cl)cc1Cl)[N-]N=Cc1cccc(C(F)(F)F)c1 (protonated)
OC(=CCCOc1ccc(Cl)cc1Cl)[N-]N=Cc1cccc(C(F)(F)F)c1 (tautomer)
O/C(=C\CCOc1ccc(Cl)cc1Cl)[N-]/N=C\c1cccc(C(F)(F)F)c1 (cis-trans isomerization)
O/C(=C\CCOc1ccc(Cl)cc1Cl)[N-]/N=C\c1cccc(C(F)(F)F)c1 (3D coordinates assigned)
O/C(=C\CCOc1ccc(Cl)cc1Cl)[N-]/N=C\c1cccc(C(F)(F)F)c1 (optimized conformer: 41.151461544442085 kcal/mol)

>  <smiles>  (79) 
O=C(CCCOc1ccc(Cl)cc1Cl)NN=Cc1cccc(C(F)(F)F)c1

>  <score_type>  (79) 
oracle

>  <origin>  (79) 
autodockgpu

>  <m_score__min__energy>  (79) 
-7.1100000000000003

>  <m_primary>  (79) 
energy

>  <meeko>  (79) 
{"free_energy": -6.24, "intermolecular_energy": -9.52, "internal_energy": -0.82, "cluster_size": 4, "cluster_id": 2, "rank_in_cluster": 3}

>  <energy>  (79) 
-6.02

>  <cluster_rmsd>  (79) 
0.0

>  <rmsd>  (79) 
273.27

>  <cluster>  (79) 
6

$$$$
JBHRSOAXAGIKHA-MUXIEFDRNA-N
     RDKit          3D

 41 42  0  0  0  0  0  0  0  0999 V2000
  137.4640   73.3910  223.1750 H   0  0  0  0  0  0  0  0  0  0  0  0
  137.5910   73.8760  222.2950 O   0  0  0  0  0  0  0  0  0  0  0  0
  138.7490   74.6060  222.0440 C   0  0  0  0  0  0  0  0  0  0  0  0
  139.9950   73.9070  221.9360 N   0  0  0  0  0  0  0  0  0  0  0  0
  140.4370   72.9990  222.9110 N   0  0  0  0  0  0  0  0  0  0  0  0
  139.9470   71.8020  223.0410 C   0  0  0  0  0  0  0  0  0  0  0  0
  139.5132   71.3203  222.1523 H   0  0  0  0  0  0  0  0  0  0  0  0
  139.9390   71.0500  224.3150 C   0  0  0  0  0  0  0  0  0  0  0  0
  139.5560   69.7020  224.3070 C   0  0  0  0  0  0  0  0  0  0  0  0
  139.2258   69.2330  223.3684 H   0  0  0  0  0  0  0  0  0  0  0  0
  139.5910   68.9510  225.4830 C   0  0  0  0  0  0  0  0  0  0  0  0
  139.2803   67.8959  225.4687 H   0  0  0  0  0  0  0  0  0  0  0  0
  140.0190   69.5340  226.6780 C   0  0  0  0  0  0  0  0  0  0  0  0
  140.0502   68.9342  227.5996 H   0  0  0  0  0  0  0  0  0  0  0  0
  140.4100   70.8840  226.7080 C   0  0  0  0  0  0  0  0  0  0  0  0
  140.9420   71.5020  227.9780 C   0  0  0  0  0  0  0  0  0  0  0  0
  139.8840   71.9740  228.7320 F   0  0  0  0  0  0  0  0  0  0  0  0
  141.6380   70.5600  228.7170 F   0  0  0  0  0  0  0  0  0  0  0  0
  141.7990   72.5500  227.6940 F   0  0  0  0  0  0  0  0  0  0  0  0
  140.3940   71.6250  225.5160 C   0  0  0  0  0  0  0  0  0  0  0  0
  140.7416   72.6686  225.5208 H   0  0  0  0  0  0  0  0  0  0  0  0
  138.6930   75.9410  221.9370 C   0  0  0  0  0  0  0  0  0  0  0  0
  138.4272   76.5299  222.8273 H   0  0  0  0  0  0  0  0  0  0  0  0
  138.9780   76.6680  220.6520 C   0  0  0  0  0  0  0  0  0  0  0  0
  138.1616   76.4655  219.9431 H   0  0  0  0  0  0  0  0  0  0  0  0
  139.0543   77.7406  220.8837 H   0  0  0  0  0  0  0  0  0  0  0  0
  140.3040   76.2320  220.0140 C   0  0  0  0  0  0  0  0  0  0  0  0
  140.7590   75.4451  220.6335 H   0  0  0  0  0  0  0  0  0  0  0  0
  140.0971   75.8558  219.0012 H   0  0  0  0  0  0  0  0  0  0  0  0
  141.2140   77.3320  219.9130 O   0  0  0  0  0  0  0  0  0  0  0  0
  141.4840   78.2490  220.9430 C   0  0  0  0  0  0  0  0  0  0  0  0
  141.4220   77.8830  222.3020 C   0  0  0  0  0  0  0  0  0  0  0  0
  141.1248   76.8612  222.5804 H   0  0  0  0  0  0  0  0  0  0  0  0
  141.7360   78.8110  223.2980 C   0  0  0  0  0  0  0  0  0  0  0  0
  141.6870   78.5173  224.3569 H   0  0  0  0  0  0  0  0  0  0  0  0
  142.1120   80.1110  222.9520 C   0  0  0  0  0  0  0  0  0  0  0  0
  142.5360   81.2640  224.2040 Cl  0  0  0  0  0  0  0  0  0  0  0  0
  142.1510   80.4910  221.6080 C   0  0  0  0  0  0  0  0  0  0  0  0
  142.4362   81.5181  221.3364 H   0  0  0  0  0  0  0  0  0  0  0  0
  141.8280   79.5680  220.6060 C   0  0  0  0  0  0  0  0  0  0  0  0
  141.9110   80.0630  218.9220 Cl  0  0  0  0  0  0  0  0  0  0  0  0
  1  2  1  0
  2  3  1  0
  3  4  1  0
  4  5  1  0
  5  6  2  0
  6  7  1  0
  6  8  1  0
  8  9  2  0
  9 10  1  0
  9 11  1  0
 11 12  1  0
 11 13  2  0
 13 14  1  0
 13 15  1  0
 15 16  1  0
 16 17  1  0
 16 18  1  0
 16 19  1  0
 15 20  2  0
 20 21  1  0
  3 22  2  0
 22 23  1  0
 22 24  1  0
 24 25  1  0
 24 26  1  0
 24 27  1  0
 27 28  1  0
 27 29  1  0
 27 30  1  0
 30 31  1  0
 31 32  2  0
 32 33  1  0
 32 34  1  0
 34 35  1  0
 34 36  2  0
 36 37  1  0
 36 38  1  0
 38 39  1  0
 38 40  2  0
 40 41  1  0
 20  8  1  0
 40 31  1  0
M  CHG  1   4  -1
M  END
>  <UniqueID>  (80) 
20

>  <SMILES>  (80) 
O/C(=C\CCOc1ccc(Cl)cc1Cl)[N-]/N=C\c1cccc(C(F)(F)F)c1

>  <Energy>  (80) 
41.151461544442085

>  <Genealogy>  (80) 
O=C(CCCOc1ccc(Cl)cc1Cl)[N-]N=Cc1cccc(C(F)(F)F)c1 (protonated)
OC(=CCCOc1ccc(Cl)cc1Cl)[N-]N=Cc1cccc(C(F)(F)F)c1 (tautomer)
O/C(=C\CCOc1ccc(Cl)cc1Cl)[N-]/N=C\c1cccc(C(F)(F)F)c1 (cis-trans isomerization)
O/C(=C\CCOc1ccc(Cl)cc1Cl)[N-]/N=C\c1cccc(C(F)(F)F)c1 (3D coordinates assigned)
O/C(=C\CCOc1ccc(Cl)cc1Cl)[N-]/N=C\c1cccc(C(F)(F)F)c1 (optimized conformer: 41.151461544442085 kcal/mol)

>  <smiles>  (80) 
O=C(CCCOc1ccc(Cl)cc1Cl)NN=Cc1cccc(C(F)(F)F)c1

>  <score_type>  (80) 
oracle

>  <origin>  (80) 
autodockgpu

>  <m_score__min__energy>  (80) 
-7.1100000000000003

>  <m_primary>  (80) 
energy

>  <meeko>  (80) 
{"free_energy": -6.54, "intermolecular_energy": -9.82, "internal_energy": -0.79, "cluster_size": 5, "cluster_id": 1, "rank_in_cluster": 3}

>  <energy>  (80) 
-5.25

>  <cluster_rmsd>  (80) 
0.0

>  <rmsd>  (80) 
272.61

>  <cluster>  (80) 
7

$$$$
