AQNDWTVLZSMOQU-FMIVXFBMNA-N
     RDKit          3D

 43 46  0  0  0  0  0  0  0  0999 V2000
  139.1710   76.7898  220.5470 H   0  0  0  0  0  0  0  0  0  0  0  0
  139.5640   76.5910  221.5550 C   0  0  0  0  0  0  0  0  0  0  0  0
  139.5680   75.3270  222.0010 C   0  0  0  0  0  0  0  0  0  0  0  0
  138.7532   74.9675  222.6467 H   0  0  0  0  0  0  0  0  0  0  0  0
  140.6670   74.4200  221.6240 C   0  0  0  0  0  0  0  0  0  0  0  0
  141.8370   74.9760  221.2160 N   0  0  0  0  0  0  0  0  0  0  0  0
  142.8910   74.2180  220.8310 C   0  0  0  0  0  0  0  0  0  0  0  0
  144.0870   74.8280  220.4410 C   0  0  0  0  0  0  0  0  0  0  0  0
  144.1725   75.9246  220.4514 H   0  0  0  0  0  0  0  0  0  0  0  0
  145.1740   74.0480  220.0380 C   0  0  0  0  0  0  0  0  0  0  0  0
  146.1130   74.5311  219.7300 H   0  0  0  0  0  0  0  0  0  0  0  0
  145.0690   72.6550  220.0260 C   0  0  0  0  0  0  0  0  0  0  0  0
  145.9261   72.0423  219.7098 H   0  0  0  0  0  0  0  0  0  0  0  0
  143.8770   72.0390  220.4150 C   0  0  0  0  0  0  0  0  0  0  0  0
  143.7959   70.9421  220.3989 H   0  0  0  0  0  0  0  0  0  0  0  0
  142.7780   72.8190  220.8280 C   0  0  0  0  0  0  0  0  0  0  0  0
  141.5600   72.2480  221.2410 C   0  0  0  0  0  0  0  0  0  0  0  0
  141.4320   70.9900  221.2350 O   0  0  0  0  0  0  0  0  0  0  0  0
  140.5160   73.0500  221.6470 N   0  0  0  0  0  0  0  0  0  0  0  0
  139.2330   72.4440  222.0860 C   0  0  0  0  0  0  0  0  0  0  0  0
  138.5352   73.2465  222.3671 H   0  0  0  0  0  0  0  0  0  0  0  0
  138.8269   71.8494  221.2544 H   0  0  0  0  0  0  0  0  0  0  0  0
  139.4360   71.5300  223.2720 C   0  0  0  0  0  0  0  0  0  0  0  0
  138.7760   70.2930  223.3360 C   0  0  0  0  0  0  0  0  0  0  0  0
  138.0658   70.0113  222.5446 H   0  0  0  0  0  0  0  0  0  0  0  0
  139.0150   69.4160  224.3990 C   0  0  0  0  0  0  0  0  0  0  0  0
  138.4945   68.4478  224.4403 H   0  0  0  0  0  0  0  0  0  0  0  0
  139.9130   69.7680  225.4070 C   0  0  0  0  0  0  0  0  0  0  0  0
  140.2520   68.6510  226.7130 Cl  0  0  0  0  0  0  0  0  0  0  0  0
  140.5750   71.0020  225.3530 C   0  0  0  0  0  0  0  0  0  0  0  0
  141.2890   71.2776  226.1431 H   0  0  0  0  0  0  0  0  0  0  0  0
  140.3290   71.8820  224.2970 C   0  0  0  0  0  0  0  0  0  0  0  0
  140.8378   72.8568  224.2679 H   0  0  0  0  0  0  0  0  0  0  0  0
  140.0630   77.7310  222.3540 C   0  0  0  0  0  0  0  0  0  0  0  0
  139.2040   78.5830  223.0740 C   0  0  0  0  0  0  0  0  0  0  0  0
  138.1179   78.4095  223.0558 H   0  0  0  0  0  0  0  0  0  0  0  0
  139.7130   79.6200  223.7920 N   0  0  0  0  0  0  0  0  0  0  0  0
  141.0510   79.8700  223.8390 C   0  0  0  0  0  0  0  0  0  0  0  0
  141.4311   80.7165  224.4297 H   0  0  0  0  0  0  0  0  0  0  0  0
  141.9390   79.0550  223.1400 C   0  0  0  0  0  0  0  0  0  0  0  0
  143.0195   79.2593  223.1661 H   0  0  0  0  0  0  0  0  0  0  0  0
  141.4420   77.9760  222.4060 C   0  0  0  0  0  0  0  0  0  0  0  0
  142.1361   77.3152  221.8661 H   0  0  0  0  0  0  0  0  0  0  0  0
  1  2  1  0
  2  3  2  0
  3  4  1  0
  3  5  1  0
  5  6  2  0
  6  7  1  0
  7  8  2  0
  8  9  1  0
  8 10  1  0
 10 11  1  0
 10 12  2  0
 12 13  1  0
 12 14  1  0
 14 15  1  0
 14 16  2  0
 16 17  1  0
 17 18  2  0
 17 19  1  0
 19 20  1  0
 20 21  1  0
 20 22  1  0
 20 23  1  0
 23 24  2  0
 24 25  1  0
 24 26  1  0
 26 27  1  0
 26 28  2  0
 28 29  1  0
 28 30  1  0
 30 31  1  0
 30 32  2  0
 32 33  1  0
  2 34  1  0
 34 35  2  0
 35 36  1  0
 35 37  1  0
 37 38  2  0
 38 39  1  0
 38 40  1  0
 40 41  1  0
 40 42  2  0
 42 43  1  0
 19  5  1  0
 32 23  1  0
 42 34  1  0
 16  7  1  0
M  END
>  <UniqueID>  (1) 
22

>  <SMILES>  (1) 
O=c1c2ccccc2nc(/C=C/c2cccnc2)n1Cc1ccc(Cl)cc1

>  <Energy>  (1) 
62.9621111436096

>  <Genealogy>  (1) 
O=c1c2ccccc2nc(/C=C/c2cccnc2)n1Cc1ccc(Cl)cc1 (cis-trans isomerization)
O=c1c2ccccc2nc(/C=C/c2cccnc2)n1Cc1ccc(Cl)cc1 (3D coordinates assigned)
O=c1c2ccccc2nc(/C=C/c2cccnc2)n1Cc1ccc(Cl)cc1 (optimized conformer: 62.9621111436096 kcal/mol)

>  <smiles>  (1) 
O=c1c2ccccc2nc(/C=C/c2cccnc2)n1Cc1ccc(Cl)cc1

>  <score_type>  (1) 
oracle

>  <origin>  (1) 
autodockgpu

>  <m_score__min__energy>  (1) 
-7.54

>  <m_primary>  (1) 
energy

>  <meeko>  (1) 
{"free_energy": -7.5, "intermolecular_energy": -8.99, "internal_energy": -1.17, "cluster_size": 1, "cluster_id": 3, "rank_in_cluster": 1}

>  <energy>  (1) 
-7.54

>  <cluster_rmsd>  (1) 
0.0

>  <rmsd>  (1) 
271.37

>  <cluster>  (1) 
1

$$$$
AQNDWTVLZSMOQU-FMIVXFBMNA-N
     RDKit          3D

 43 46  0  0  0  0  0  0  0  0999 V2000
  143.5358   69.9558  220.1296 H   0  0  0  0  0  0  0  0  0  0  0  0
  143.3380   71.0220  219.9450 C   0  0  0  0  0  0  0  0  0  0  0  0
  142.0790   71.4030  219.6910 C   0  0  0  0  0  0  0  0  0  0  0  0
  141.4184   70.7600  219.0909 H   0  0  0  0  0  0  0  0  0  0  0  0
  141.5820   72.6860  220.2180 C   0  0  0  0  0  0  0  0  0  0  0  0
  142.2530   73.8160  219.8780 N   0  0  0  0  0  0  0  0  0  0  0  0
  141.8790   75.0350  220.3340 C   0  0  0  0  0  0  0  0  0  0  0  0
  142.5820   76.1770  219.9410 C   0  0  0  0  0  0  0  0  0  0  0  0
  143.4380   76.0853  219.2563 H   0  0  0  0  0  0  0  0  0  0  0  0
  142.2010   77.4350  220.4150 C   0  0  0  0  0  0  0  0  0  0  0  0
  142.7574   78.3316  220.1042 H   0  0  0  0  0  0  0  0  0  0  0  0
  141.1130   77.5540  221.2840 C   0  0  0  0  0  0  0  0  0  0  0  0
  140.8137   78.5447  221.6567 H   0  0  0  0  0  0  0  0  0  0  0  0
  140.4050   76.4170  221.6800 C   0  0  0  0  0  0  0  0  0  0  0  0
  139.5518   76.5138  222.3675 H   0  0  0  0  0  0  0  0  0  0  0  0
  140.7810   75.1460  221.2010 C   0  0  0  0  0  0  0  0  0  0  0  0
  140.0940   73.9710  221.5600 C   0  0  0  0  0  0  0  0  0  0  0  0
  139.1090   74.0460  222.3500 O   0  0  0  0  0  0  0  0  0  0  0  0
  140.4900   72.7510  221.0590 N   0  0  0  0  0  0  0  0  0  0  0  0
  139.7610   71.5130  221.4360 C   0  0  0  0  0  0  0  0  0  0  0  0
  138.7087   71.6095  221.1305 H   0  0  0  0  0  0  0  0  0  0  0  0
  140.2367   70.6612  220.9280 H   0  0  0  0  0  0  0  0  0  0  0  0
  139.8210   71.2740  222.9270 C   0  0  0  0  0  0  0  0  0  0  0  0
  138.7370   70.6840  223.5960 C   0  0  0  0  0  0  0  0  0  0  0  0
  137.8180   70.4441  223.0411 H   0  0  0  0  0  0  0  0  0  0  0  0
  138.8170   70.3990  224.9630 C   0  0  0  0  0  0  0  0  0  0  0  0
  137.9633   69.9352  225.4788 H   0  0  0  0  0  0  0  0  0  0  0  0
  139.9800   70.7030  225.6730 C   0  0  0  0  0  0  0  0  0  0  0  0
  140.1020   70.3000  227.3730 Cl  0  0  0  0  0  0  0  0  0  0  0  0
  141.0660   71.2940  225.0140 C   0  0  0  0  0  0  0  0  0  0  0  0
  141.9856   71.5275  225.5706 H   0  0  0  0  0  0  0  0  0  0  0  0
  140.9820   71.5870  223.6510 C   0  0  0  0  0  0  0  0  0  0  0  0
  141.8311   72.0661  223.1417 H   0  0  0  0  0  0  0  0  0  0  0  0
  144.4750   71.9680  219.9890 C   0  0  0  0  0  0  0  0  0  0  0  0
  145.2830   72.2330  218.8680 C   0  0  0  0  0  0  0  0  0  0  0  0
  145.0768   71.7290  217.9123 H   0  0  0  0  0  0  0  0  0  0  0  0
  146.3180   73.1100  218.9620 N   0  0  0  0  0  0  0  0  0  0  0  0
  146.6080   73.7530  220.1270 C   0  0  0  0  0  0  0  0  0  0  0  0
  147.4519   74.4573  220.1702 H   0  0  0  0  0  0  0  0  0  0  0  0
  145.8370   73.5200  221.2650 C   0  0  0  0  0  0  0  0  0  0  0  0
  146.0743   74.0282  222.2112 H   0  0  0  0  0  0  0  0  0  0  0  0
  144.7600   72.6340  221.1900 C   0  0  0  0  0  0  0  0  0  0  0  0
  144.1328   72.4578  222.0763 H   0  0  0  0  0  0  0  0  0  0  0  0
  1  2  1  0
  2  3  2  0
  3  4  1  0
  3  5  1  0
  5  6  2  0
  6  7  1  0
  7  8  2  0
  8  9  1  0
  8 10  1  0
 10 11  1  0
 10 12  2  0
 12 13  1  0
 12 14  1  0
 14 15  1  0
 14 16  2  0
 16 17  1  0
 17 18  2  0
 17 19  1  0
 19 20  1  0
 20 21  1  0
 20 22  1  0
 20 23  1  0
 23 24  2  0
 24 25  1  0
 24 26  1  0
 26 27  1  0
 26 28  2  0
 28 29  1  0
 28 30  1  0
 30 31  1  0
 30 32  2  0
 32 33  1  0
  2 34  1  0
 34 35  2  0
 35 36  1  0
 35 37  1  0
 37 38  2  0
 38 39  1  0
 38 40  1  0
 40 41  1  0
 40 42  2  0
 42 43  1  0
 19  5  1  0
 32 23  1  0
 42 34  1  0
 16  7  1  0
M  END
>  <UniqueID>  (2) 
22

>  <SMILES>  (2) 
O=c1c2ccccc2nc(/C=C/c2cccnc2)n1Cc1ccc(Cl)cc1

>  <Energy>  (2) 
62.9621111436096

>  <Genealogy>  (2) 
O=c1c2ccccc2nc(/C=C/c2cccnc2)n1Cc1ccc(Cl)cc1 (cis-trans isomerization)
O=c1c2ccccc2nc(/C=C/c2cccnc2)n1Cc1ccc(Cl)cc1 (3D coordinates assigned)
O=c1c2ccccc2nc(/C=C/c2cccnc2)n1Cc1ccc(Cl)cc1 (optimized conformer: 62.9621111436096 kcal/mol)

>  <smiles>  (2) 
O=c1c2ccccc2nc(/C=C/c2cccnc2)n1Cc1ccc(Cl)cc1

>  <score_type>  (2) 
oracle

>  <origin>  (2) 
autodockgpu

>  <m_score__min__energy>  (2) 
-7.54

>  <m_primary>  (2) 
energy

>  <meeko>  (2) 
{"free_energy": -7.39, "intermolecular_energy": -8.88, "internal_energy": -1.49, "cluster_size": 5, "cluster_id": 1, "rank_in_cluster": 5}

>  <energy>  (2) 
-7.51

>  <cluster_rmsd>  (2) 
0.13

>  <rmsd>  (2) 
271.41

>  <cluster>  (2) 
1

$$$$
AQNDWTVLZSMOQU-FMIVXFBMNA-N
     RDKit          3D

 43 46  0  0  0  0  0  0  0  0999 V2000
  143.4699   69.8703  220.3008 H   0  0  0  0  0  0  0  0  0  0  0  0
  143.2350   70.9260  220.1000 C   0  0  0  0  0  0  0  0  0  0  0  0
  141.9540   71.2690  219.9050 C   0  0  0  0  0  0  0  0  0  0  0  0
  141.2669   70.5728  219.4018 H   0  0  0  0  0  0  0  0  0  0  0  0
  141.4690   72.5820  220.3670 C   0  0  0  0  0  0  0  0  0  0  0  0
  142.1830   73.6820  220.0150 N   0  0  0  0  0  0  0  0  0  0  0  0
  141.8220   74.9250  220.4130 C   0  0  0  0  0  0  0  0  0  0  0  0
  142.5690   76.0350  220.0100 C   0  0  0  0  0  0  0  0  0  0  0  0
  143.4491   75.8982  219.3645 H   0  0  0  0  0  0  0  0  0  0  0  0
  142.2020   77.3180  220.4240 C   0  0  0  0  0  0  0  0  0  0  0  0
  142.7936   78.1889  220.1055 H   0  0  0  0  0  0  0  0  0  0  0  0
  141.0830   77.4950  221.2430 C   0  0  0  0  0  0  0  0  0  0  0  0
  140.7939   78.5054  221.5678 H   0  0  0  0  0  0  0  0  0  0  0  0
  140.3320   76.3900  221.6490 C   0  0  0  0  0  0  0  0  0  0  0  0
  139.4551   76.5320  222.2978 H   0  0  0  0  0  0  0  0  0  0  0  0
  140.6930   75.0940  221.2310 C   0  0  0  0  0  0  0  0  0  0  0  0
  139.9630   73.9500  221.6020 C   0  0  0  0  0  0  0  0  0  0  0  0
  138.9490   74.0770  222.3470 O   0  0  0  0  0  0  0  0  0  0  0  0
  140.3470   72.7030  221.1600 N   0  0  0  0  0  0  0  0  0  0  0  0
  139.5720   71.4980  221.5500 C   0  0  0  0  0  0  0  0  0  0  0  0
  138.5105   71.6623  221.3129 H   0  0  0  0  0  0  0  0  0  0  0  0
  139.9662   70.6358  220.9921 H   0  0  0  0  0  0  0  0  0  0  0  0
  139.7080   71.2130  223.0270 C   0  0  0  0  0  0  0  0  0  0  0  0
  138.8920   70.2500  223.6430 C   0  0  0  0  0  0  0  0  0  0  0  0
  138.1134   69.7390  223.0576 H   0  0  0  0  0  0  0  0  0  0  0  0
  139.0620   69.9360  224.9950 C   0  0  0  0  0  0  0  0  0  0  0  0
  138.4176   69.1811  225.4693 H   0  0  0  0  0  0  0  0  0  0  0  0
  140.0490   70.5800  225.7430 C   0  0  0  0  0  0  0  0  0  0  0  0
  140.2990   70.1510  227.4230 Cl  0  0  0  0  0  0  0  0  0  0  0  0
  140.8670   71.5430  225.1380 C   0  0  0  0  0  0  0  0  0  0  0  0
  141.6495   72.0462  225.7249 H   0  0  0  0  0  0  0  0  0  0  0  0
  140.6900   71.8650  223.7900 C   0  0  0  0  0  0  0  0  0  0  0  0
  141.3237   72.6338  223.3237 H   0  0  0  0  0  0  0  0  0  0  0  0
  144.3470   71.8990  220.0580 C   0  0  0  0  0  0  0  0  0  0  0  0
  145.1040   72.1330  218.8940 C   0  0  0  0  0  0  0  0  0  0  0  0
  144.8744   71.5812  217.9705 H   0  0  0  0  0  0  0  0  0  0  0  0
  146.1180   73.0390  218.9080 N   0  0  0  0  0  0  0  0  0  0  0  0
  146.4370   73.7400  220.0300 C   0  0  0  0  0  0  0  0  0  0  0  0
  147.2635   74.4655  220.0079 H   0  0  0  0  0  0  0  0  0  0  0  0
  145.7180   73.5400  221.2070 C   0  0  0  0  0  0  0  0  0  0  0  0
  145.9785   74.0965  222.1194 H   0  0  0  0  0  0  0  0  0  0  0  0
  144.6630   72.6250  221.2150 C   0  0  0  0  0  0  0  0  0  0  0  0
  144.0771   72.4732  222.1335 H   0  0  0  0  0  0  0  0  0  0  0  0
  1  2  1  0
  2  3  2  0
  3  4  1  0
  3  5  1  0
  5  6  2  0
  6  7  1  0
  7  8  2  0
  8  9  1  0
  8 10  1  0
 10 11  1  0
 10 12  2  0
 12 13  1  0
 12 14  1  0
 14 15  1  0
 14 16  2  0
 16 17  1  0
 17 18  2  0
 17 19  1  0
 19 20  1  0
 20 21  1  0
 20 22  1  0
 20 23  1  0
 23 24  2  0
 24 25  1  0
 24 26  1  0
 26 27  1  0
 26 28  2  0
 28 29  1  0
 28 30  1  0
 30 31  1  0
 30 32  2  0
 32 33  1  0
  2 34  1  0
 34 35  2  0
 35 36  1  0
 35 37  1  0
 37 38  2  0
 38 39  1  0
 38 40  1  0
 40 41  1  0
 40 42  2  0
 42 43  1  0
 19  5  1  0
 32 23  1  0
 42 34  1  0
 16  7  1  0
M  END
>  <UniqueID>  (3) 
22

>  <SMILES>  (3) 
O=c1c2ccccc2nc(/C=C/c2cccnc2)n1Cc1ccc(Cl)cc1

>  <Energy>  (3) 
62.9621111436096

>  <Genealogy>  (3) 
O=c1c2ccccc2nc(/C=C/c2cccnc2)n1Cc1ccc(Cl)cc1 (cis-trans isomerization)
O=c1c2ccccc2nc(/C=C/c2cccnc2)n1Cc1ccc(Cl)cc1 (3D coordinates assigned)
O=c1c2ccccc2nc(/C=C/c2cccnc2)n1Cc1ccc(Cl)cc1 (optimized conformer: 62.9621111436096 kcal/mol)

>  <smiles>  (3) 
O=c1c2ccccc2nc(/C=C/c2cccnc2)n1Cc1ccc(Cl)cc1

>  <score_type>  (3) 
oracle

>  <origin>  (3) 
autodockgpu

>  <m_score__min__energy>  (3) 
-7.54

>  <m_primary>  (3) 
energy

>  <meeko>  (3) 
{"free_energy": -7.54, "intermolecular_energy": -9.03, "internal_energy": -1.39, "cluster_size": 5, "cluster_id": 1, "rank_in_cluster": 1}

>  <energy>  (3) 
-7.49

>  <cluster_rmsd>  (3) 
0.06

>  <rmsd>  (3) 
271.41

>  <cluster>  (3) 
1

$$$$
AQNDWTVLZSMOQU-FMIVXFBMNA-N
     RDKit          3D

 43 46  0  0  0  0  0  0  0  0999 V2000
  135.8904   71.5608  223.8364 H   0  0  0  0  0  0  0  0  0  0  0  0
  135.7340   72.6230  223.5970 C   0  0  0  0  0  0  0  0  0  0  0  0
  136.1590   73.0800  222.4100 C   0  0  0  0  0  0  0  0  0  0  0  0
  135.6078   72.8275  221.4922 H   0  0  0  0  0  0  0  0  0  0  0  0
  137.3660   73.9210  222.3390 C   0  0  0  0  0  0  0  0  0  0  0  0
  137.2050   75.2680  222.3760 N   0  0  0  0  0  0  0  0  0  0  0  0
  138.2580   76.1160  222.2950 C   0  0  0  0  0  0  0  0  0  0  0  0
  138.0520   77.4970  222.3610 C   0  0  0  0  0  0  0  0  0  0  0  0
  137.0337   77.8946  222.4832 H   0  0  0  0  0  0  0  0  0  0  0  0
  139.1370   78.3740  222.2720 C   0  0  0  0  0  0  0  0  0  0  0  0
  138.9713   79.4602  222.3233 H   0  0  0  0  0  0  0  0  0  0  0  0
  140.4310   77.8720  222.1180 C   0  0  0  0  0  0  0  0  0  0  0  0
  141.2837   78.5634  222.0485 H   0  0  0  0  0  0  0  0  0  0  0  0
  140.6440   76.4920  222.0520 C   0  0  0  0  0  0  0  0  0  0  0  0
  141.6639   76.0997  221.9264 H   0  0  0  0  0  0  0  0  0  0  0  0
  139.5550   75.6020  222.1460 C   0  0  0  0  0  0  0  0  0  0  0  0
  139.7170   74.2050  222.0980 C   0  0  0  0  0  0  0  0  0  0  0  0
  140.8760   73.7200  221.9530 O   0  0  0  0  0  0  0  0  0  0  0  0
  138.6250   73.3730  222.2050 N   0  0  0  0  0  0  0  0  0  0  0  0
  138.7990   71.8980  222.1580 C   0  0  0  0  0  0  0  0  0  0  0  0
  137.8576   71.4366  221.8251 H   0  0  0  0  0  0  0  0  0  0  0  0
  139.6149   71.6668  221.4574 H   0  0  0  0  0  0  0  0  0  0  0  0
  139.1650   71.3450  223.5150 C   0  0  0  0  0  0  0  0  0  0  0  0
  138.3850   70.3370  224.1040 C   0  0  0  0  0  0  0  0  0  0  0  0
  137.4728   69.9868  223.5988 H   0  0  0  0  0  0  0  0  0  0  0  0
  138.7600   69.7750  225.3290 C   0  0  0  0  0  0  0  0  0  0  0  0
  138.1441   68.9846  225.7828 H   0  0  0  0  0  0  0  0  0  0  0  0
  139.9160   70.2170  225.9760 C   0  0  0  0  0  0  0  0  0  0  0  0
  140.4150   69.4800  227.4840 Cl  0  0  0  0  0  0  0  0  0  0  0  0
  140.6990   71.2240  225.3960 C   0  0  0  0  0  0  0  0  0  0  0  0
  141.6141   71.5675  225.9006 H   0  0  0  0  0  0  0  0  0  0  0  0
  140.3190   71.7920  224.1780 C   0  0  0  0  0  0  0  0  0  0  0  0
  140.9275   72.5944  223.7355 H   0  0  0  0  0  0  0  0  0  0  0  0
  135.0650   73.4800  224.5990 C   0  0  0  0  0  0  0  0  0  0  0  0
  134.1990   72.9610  225.5800 C   0  0  0  0  0  0  0  0  0  0  0  0
  134.0002   71.8798  225.6193 H   0  0  0  0  0  0  0  0  0  0  0  0
  133.6070   73.7930  226.4800 N   0  0  0  0  0  0  0  0  0  0  0  0
  133.8250   75.1370  226.4630 C   0  0  0  0  0  0  0  0  0  0  0  0
  133.3312   75.7828  227.2040 H   0  0  0  0  0  0  0  0  0  0  0  0
  134.6730   75.6960  225.5080 C   0  0  0  0  0  0  0  0  0  0  0  0
  134.8438   76.7824  225.4835 H   0  0  0  0  0  0  0  0  0  0  0  0
  135.3030   74.8610  224.5830 C   0  0  0  0  0  0  0  0  0  0  0  0
  135.9896   75.2893  223.8379 H   0  0  0  0  0  0  0  0  0  0  0  0
  1  2  1  0
  2  3  2  0
  3  4  1  0
  3  5  1  0
  5  6  2  0
  6  7  1  0
  7  8  2  0
  8  9  1  0
  8 10  1  0
 10 11  1  0
 10 12  2  0
 12 13  1  0
 12 14  1  0
 14 15  1  0
 14 16  2  0
 16 17  1  0
 17 18  2  0
 17 19  1  0
 19 20  1  0
 20 21  1  0
 20 22  1  0
 20 23  1  0
 23 24  2  0
 24 25  1  0
 24 26  1  0
 26 27  1  0
 26 28  2  0
 28 29  1  0
 28 30  1  0
 30 31  1  0
 30 32  2  0
 32 33  1  0
  2 34  1  0
 34 35  2  0
 35 36  1  0
 35 37  1  0
 37 38  2  0
 38 39  1  0
 38 40  1  0
 40 41  1  0
 40 42  2  0
 42 43  1  0
 19  5  1  0
 32 23  1  0
 42 34  1  0
 16  7  1  0
M  END
>  <UniqueID>  (4) 
22

>  <SMILES>  (4) 
O=c1c2ccccc2nc(/C=C/c2cccnc2)n1Cc1ccc(Cl)cc1

>  <Energy>  (4) 
62.9621111436096

>  <Genealogy>  (4) 
O=c1c2ccccc2nc(/C=C/c2cccnc2)n1Cc1ccc(Cl)cc1 (cis-trans isomerization)
O=c1c2ccccc2nc(/C=C/c2cccnc2)n1Cc1ccc(Cl)cc1 (3D coordinates assigned)
O=c1c2ccccc2nc(/C=C/c2cccnc2)n1Cc1ccc(Cl)cc1 (optimized conformer: 62.9621111436096 kcal/mol)

>  <smiles>  (4) 
O=c1c2ccccc2nc(/C=C/c2cccnc2)n1Cc1ccc(Cl)cc1

>  <score_type>  (4) 
oracle

>  <origin>  (4) 
autodockgpu

>  <m_score__min__energy>  (4) 
-7.54

>  <m_primary>  (4) 
energy

>  <meeko>  (4) 
{"free_energy": -7.38, "intermolecular_energy": -8.88, "internal_energy": -1.36, "cluster_size": 6, "cluster_id": 4, "rank_in_cluster": 3}

>  <energy>  (4) 
-7.49

>  <cluster_rmsd>  (4) 
0.12

>  <rmsd>  (4) 
271.42

>  <cluster>  (4) 
1

$$$$
AQNDWTVLZSMOQU-FMIVXFBMNA-N
     RDKit          3D

 43 46  0  0  0  0  0  0  0  0999 V2000
  135.9295   71.6349  223.8428 H   0  0  0  0  0  0  0  0  0  0  0  0
  135.7520   72.6930  223.6000 C   0  0  0  0  0  0  0  0  0  0  0  0
  136.1660   73.1530  222.4110 C   0  0  0  0  0  0  0  0  0  0  0  0
  135.5972   72.9171  221.4995 H   0  0  0  0  0  0  0  0  0  0  0  0
  137.3860   73.9760  222.3290 C   0  0  0  0  0  0  0  0  0  0  0  0
  137.2460   75.3250  222.3810 N   0  0  0  0  0  0  0  0  0  0  0  0
  138.3110   76.1570  222.2910 C   0  0  0  0  0  0  0  0  0  0  0  0
  138.1290   77.5410  222.3740 C   0  0  0  0  0  0  0  0  0  0  0  0
  137.1195   77.9536  222.5177 H   0  0  0  0  0  0  0  0  0  0  0  0
  139.2250   78.4010  222.2750 C   0  0  0  0  0  0  0  0  0  0  0  0
  139.0772   79.4892  222.3380 H   0  0  0  0  0  0  0  0  0  0  0  0
  140.5090   77.8800  222.0960 C   0  0  0  0  0  0  0  0  0  0  0  0
  141.3717   78.5582  222.0203 H   0  0  0  0  0  0  0  0  0  0  0  0
  140.6980   76.4980  222.0130 C   0  0  0  0  0  0  0  0  0  0  0  0
  141.7093   76.0910  221.8659 H   0  0  0  0  0  0  0  0  0  0  0  0
  139.5980   75.6240  222.1170 C   0  0  0  0  0  0  0  0  0  0  0  0
  139.7360   74.2250  222.0520 C   0  0  0  0  0  0  0  0  0  0  0  0
  140.8850   73.7240  221.8840 O   0  0  0  0  0  0  0  0  0  0  0  0
  138.6330   73.4090  222.1700 N   0  0  0  0  0  0  0  0  0  0  0  0
  138.7830   71.9330  222.1050 C   0  0  0  0  0  0  0  0  0  0  0  0
  137.8207   71.4874  221.8126 H   0  0  0  0  0  0  0  0  0  0  0  0
  139.5622   71.6952  221.3659 H   0  0  0  0  0  0  0  0  0  0  0  0
  139.2030   71.3650  223.4410 C   0  0  0  0  0  0  0  0  0  0  0  0
  140.3380   71.8650  224.0990 C   0  0  0  0  0  0  0  0  0  0  0  0
  140.9546   72.6365  223.6146 H   0  0  0  0  0  0  0  0  0  0  0  0
  140.6900   71.3890  225.3660 C   0  0  0  0  0  0  0  0  0  0  0  0
  141.5810   71.7860  225.8744 H   0  0  0  0  0  0  0  0  0  0  0  0
  139.9110   70.4100  225.9860 C   0  0  0  0  0  0  0  0  0  0  0  0
  140.3200   69.8490  227.5940 Cl  0  0  0  0  0  0  0  0  0  0  0  0
  138.7770   69.9050  225.3360 C   0  0  0  0  0  0  0  0  0  0  0  0
  138.1579   69.1393  225.8264 H   0  0  0  0  0  0  0  0  0  0  0  0
  138.4320   70.3730  224.0660 C   0  0  0  0  0  0  0  0  0  0  0  0
  137.5505   69.9614  223.5526 H   0  0  0  0  0  0  0  0  0  0  0  0
  135.0680   73.5400  224.6010 C   0  0  0  0  0  0  0  0  0  0  0  0
  134.2010   73.0100  225.5750 C   0  0  0  0  0  0  0  0  0  0  0  0
  134.0128   71.9268  225.6102 H   0  0  0  0  0  0  0  0  0  0  0  0
  133.5950   73.8330  226.4730 N   0  0  0  0  0  0  0  0  0  0  0  0
  133.7980   75.1800  226.4600 C   0  0  0  0  0  0  0  0  0  0  0  0
  133.2928   75.8187  227.1995 H   0  0  0  0  0  0  0  0  0  0  0  0
  134.6450   75.7500  225.5110 C   0  0  0  0  0  0  0  0  0  0  0  0
  134.8035   76.8383  225.4897 H   0  0  0  0  0  0  0  0  0  0  0  0
  135.2900   74.9250  224.5880 C   0  0  0  0  0  0  0  0  0  0  0  0
  135.9753   75.3629  223.8473 H   0  0  0  0  0  0  0  0  0  0  0  0
  1  2  1  0
  2  3  2  0
  3  4  1  0
  3  5  1  0
  5  6  2  0
  6  7  1  0
  7  8  2  0
  8  9  1  0
  8 10  1  0
 10 11  1  0
 10 12  2  0
 12 13  1  0
 12 14  1  0
 14 15  1  0
 14 16  2  0
 16 17  1  0
 17 18  2  0
 17 19  1  0
 19 20  1  0
 20 21  1  0
 20 22  1  0
 20 23  1  0
 23 24  2  0
 24 25  1  0
 24 26  1  0
 26 27  1  0
 26 28  2  0
 28 29  1  0
 28 30  1  0
 30 31  1  0
 30 32  2  0
 32 33  1  0
  2 34  1  0
 34 35  2  0
 35 36  1  0
 35 37  1  0
 37 38  2  0
 38 39  1  0
 38 40  1  0
 40 41  1  0
 40 42  2  0
 42 43  1  0
 19  5  1  0
 32 23  1  0
 42 34  1  0
 16  7  1  0
M  END
>  <UniqueID>  (5) 
22

>  <SMILES>  (5) 
O=c1c2ccccc2nc(/C=C/c2cccnc2)n1Cc1ccc(Cl)cc1

>  <Energy>  (5) 
62.9621111436096

>  <Genealogy>  (5) 
O=c1c2ccccc2nc(/C=C/c2cccnc2)n1Cc1ccc(Cl)cc1 (cis-trans isomerization)
O=c1c2ccccc2nc(/C=C/c2cccnc2)n1Cc1ccc(Cl)cc1 (3D coordinates assigned)
O=c1c2ccccc2nc(/C=C/c2cccnc2)n1Cc1ccc(Cl)cc1 (optimized conformer: 62.9621111436096 kcal/mol)

>  <smiles>  (5) 
O=c1c2ccccc2nc(/C=C/c2cccnc2)n1Cc1ccc(Cl)cc1

>  <score_type>  (5) 
oracle

>  <origin>  (5) 
autodockgpu

>  <m_score__min__energy>  (5) 
-7.54

>  <m_primary>  (5) 
energy

>  <meeko>  (5) 
{"free_energy": -7.38, "intermolecular_energy": -8.87, "internal_energy": -1.36, "cluster_size": 6, "cluster_id": 4, "rank_in_cluster": 4}

>  <energy>  (5) 
-7.39

>  <cluster_rmsd>  (5) 
0.24

>  <rmsd>  (5) 
271.38

>  <cluster>  (5) 
1

$$$$
AQNDWTVLZSMOQU-FMIVXFBMNA-N
     RDKit          3D

 43 46  0  0  0  0  0  0  0  0999 V2000
  135.8919   71.5714  223.8338 H   0  0  0  0  0  0  0  0  0  0  0  0
  135.7430   72.6350  223.5960 C   0  0  0  0  0  0  0  0  0  0  0  0
  136.1730   73.0900  222.4110 C   0  0  0  0  0  0  0  0  0  0  0  0
  135.6291   72.8321  221.4903 H   0  0  0  0  0  0  0  0  0  0  0  0
  137.3770   73.9370  222.3460 C   0  0  0  0  0  0  0  0  0  0  0  0
  137.2110   75.2830  222.4050 N   0  0  0  0  0  0  0  0  0  0  0  0
  138.2590   76.1360  222.3310 C   0  0  0  0  0  0  0  0  0  0  0  0
  138.0490   77.5150  222.4210 C   0  0  0  0  0  0  0  0  0  0  0  0
  137.0300   77.9065  222.5569 H   0  0  0  0  0  0  0  0  0  0  0  0
  139.1290   78.3980  222.3390 C   0  0  0  0  0  0  0  0  0  0  0  0
  138.9590   79.4825  222.4092 H   0  0  0  0  0  0  0  0  0  0  0  0
  140.4240   77.9040  222.1680 C   0  0  0  0  0  0  0  0  0  0  0  0
  141.2735   78.5999  222.1040 H   0  0  0  0  0  0  0  0  0  0  0  0
  140.6420   76.5260  222.0780 C   0  0  0  0  0  0  0  0  0  0  0  0
  141.6626   76.1401  221.9381 H   0  0  0  0  0  0  0  0  0  0  0  0
  139.5580   75.6300  222.1660 C   0  0  0  0  0  0  0  0  0  0  0  0
  139.7250   74.2350  222.0930 C   0  0  0  0  0  0  0  0  0  0  0  0
  140.8850   73.7570  221.9330 O   0  0  0  0  0  0  0  0  0  0  0  0
  138.6370   73.3960  222.1950 N   0  0  0  0  0  0  0  0  0  0  0  0
  138.8170   71.9240  222.1220 C   0  0  0  0  0  0  0  0  0  0  0  0
  137.8669   71.4616  221.8164 H   0  0  0  0  0  0  0  0  0  0  0  0
  139.6087   71.7069  221.3898 H   0  0  0  0  0  0  0  0  0  0  0  0
  139.2340   71.3550  223.4580 C   0  0  0  0  0  0  0  0  0  0  0  0
  140.3590   71.8640  224.1260 C   0  0  0  0  0  0  0  0  0  0  0  0
  140.9711   72.6435  223.6488 H   0  0  0  0  0  0  0  0  0  0  0  0
  140.7070   71.3870  225.3940 C   0  0  0  0  0  0  0  0  0  0  0  0
  141.5900   71.7914  225.9104 H   0  0  0  0  0  0  0  0  0  0  0  0
  139.9340   70.3980  226.0040 C   0  0  0  0  0  0  0  0  0  0  0  0
  140.3390   69.8350  227.6130 Cl  0  0  0  0  0  0  0  0  0  0  0  0
  138.8110   69.8830  225.3450 C   0  0  0  0  0  0  0  0  0  0  0  0
  138.1974   69.1085  225.8284 H   0  0  0  0  0  0  0  0  0  0  0  0
  138.4690   70.3520  224.0740 C   0  0  0  0  0  0  0  0  0  0  0  0
  137.5954   69.9329  223.5532 H   0  0  0  0  0  0  0  0  0  0  0  0
  135.0780   73.4940  224.5990 C   0  0  0  0  0  0  0  0  0  0  0  0
  134.2180   72.9780  225.5870 C   0  0  0  0  0  0  0  0  0  0  0  0
  134.0212   71.8967  225.6327 H   0  0  0  0  0  0  0  0  0  0  0  0
  133.6300   73.8130  226.4850 N   0  0  0  0  0  0  0  0  0  0  0  0
  133.8440   75.1570  226.4620 C   0  0  0  0  0  0  0  0  0  0  0  0
  133.3532   75.8044  227.2036 H   0  0  0  0  0  0  0  0  0  0  0  0
  134.6850   75.7140  225.4990 C   0  0  0  0  0  0  0  0  0  0  0  0
  134.8526   76.8007  225.4682 H   0  0  0  0  0  0  0  0  0  0  0  0
  135.3120   74.8760  224.5740 C   0  0  0  0  0  0  0  0  0  0  0  0
  135.9926   75.3025  223.8224 H   0  0  0  0  0  0  0  0  0  0  0  0
  1  2  1  0
  2  3  2  0
  3  4  1  0
  3  5  1  0
  5  6  2  0
  6  7  1  0
  7  8  2  0
  8  9  1  0
  8 10  1  0
 10 11  1  0
 10 12  2  0
 12 13  1  0
 12 14  1  0
 14 15  1  0
 14 16  2  0
 16 17  1  0
 17 18  2  0
 17 19  1  0
 19 20  1  0
 20 21  1  0
 20 22  1  0
 20 23  1  0
 23 24  2  0
 24 25  1  0
 24 26  1  0
 26 27  1  0
 26 28  2  0
 28 29  1  0
 28 30  1  0
 30 31  1  0
 30 32  2  0
 32 33  1  0
  2 34  1  0
 34 35  2  0
 35 36  1  0
 35 37  1  0
 37 38  2  0
 38 39  1  0
 38 40  1  0
 40 41  1  0
 40 42  2  0
 42 43  1  0
 19  5  1  0
 32 23  1  0
 42 34  1  0
 16  7  1  0
M  END
>  <UniqueID>  (6) 
22

>  <SMILES>  (6) 
O=c1c2ccccc2nc(/C=C/c2cccnc2)n1Cc1ccc(Cl)cc1

>  <Energy>  (6) 
62.9621111436096

>  <Genealogy>  (6) 
O=c1c2ccccc2nc(/C=C/c2cccnc2)n1Cc1ccc(Cl)cc1 (cis-trans isomerization)
O=c1c2ccccc2nc(/C=C/c2cccnc2)n1Cc1ccc(Cl)cc1 (3D coordinates assigned)
O=c1c2ccccc2nc(/C=C/c2cccnc2)n1Cc1ccc(Cl)cc1 (optimized conformer: 62.9621111436096 kcal/mol)

>  <smiles>  (6) 
O=c1c2ccccc2nc(/C=C/c2cccnc2)n1Cc1ccc(Cl)cc1

>  <score_type>  (6) 
oracle

>  <origin>  (6) 
autodockgpu

>  <m_score__min__energy>  (6) 
-7.54

>  <m_primary>  (6) 
energy

>  <meeko>  (6) 
{"free_energy": -7.4, "intermolecular_energy": -8.89, "internal_energy": -1.35, "cluster_size": 6, "cluster_id": 4, "rank_in_cluster": 1}

>  <energy>  (6) 
-7.53

>  <cluster_rmsd>  (6) 
0.0

>  <rmsd>  (6) 
271.68

>  <cluster>  (6) 
2

$$$$
AQNDWTVLZSMOQU-FMIVXFBMNA-N
     RDKit          3D

 43 46  0  0  0  0  0  0  0  0999 V2000
  143.3272   75.5824  218.1092 H   0  0  0  0  0  0  0  0  0  0  0  0
  143.4400   75.2740  219.1590 C   0  0  0  0  0  0  0  0  0  0  0  0
  142.6700   75.8640  220.0840 C   0  0  0  0  0  0  0  0  0  0  0  0
  142.8673   76.9034  220.3852 H   0  0  0  0  0  0  0  0  0  0  0  0
  141.5580   75.1150  220.6960 C   0  0  0  0  0  0  0  0  0  0  0  0
  141.7740   73.8150  221.0270 N   0  0  0  0  0  0  0  0  0  0  0  0
  140.8020   73.0480  221.5740 C   0  0  0  0  0  0  0  0  0  0  0  0
  141.0700   71.7200  221.9220 C   0  0  0  0  0  0  0  0  0  0  0  0
  142.0731   71.3009  221.7544 H   0  0  0  0  0  0  0  0  0  0  0  0
  140.0670   70.9240  222.4820 C   0  0  0  0  0  0  0  0  0  0  0  0
  140.2811   69.8798  222.7535 H   0  0  0  0  0  0  0  0  0  0  0  0
  138.7930   71.4540  222.6970 C   0  0  0  0  0  0  0  0  0  0  0  0
  138.0048   70.8270  223.1393 H   0  0  0  0  0  0  0  0  0  0  0  0
  138.5180   72.7800  222.3510 C   0  0  0  0  0  0  0  0  0  0  0  0
  137.5118   73.1925  222.5163 H   0  0  0  0  0  0  0  0  0  0  0  0
  139.5260   73.5900  221.7910 C   0  0  0  0  0  0  0  0  0  0  0  0
  139.3040   74.9340  221.4380 C   0  0  0  0  0  0  0  0  0  0  0  0
  138.1590   75.4400  221.6140 O   0  0  0  0  0  0  0  0  0  0  0  0
  140.3230   75.6910  220.9030 N   0  0  0  0  0  0  0  0  0  0  0  0
  140.0870   77.1110  220.5350 C   0  0  0  0  0  0  0  0  0  0  0  0
  140.4063   77.2693  219.4944 H   0  0  0  0  0  0  0  0  0  0  0  0
  139.0143   77.3258  220.6498 H   0  0  0  0  0  0  0  0  0  0  0  0
  140.8600   78.0470  221.4350 C   0  0  0  0  0  0  0  0  0  0  0  0
  141.3480   79.2660  220.9390 C   0  0  0  0  0  0  0  0  0  0  0  0
  141.2138   79.5163  219.8763 H   0  0  0  0  0  0  0  0  0  0  0  0
  142.0040   80.1650  221.7870 C   0  0  0  0  0  0  0  0  0  0  0  0
  142.3827   81.1186  221.3905 H   0  0  0  0  0  0  0  0  0  0  0  0
  142.1780   79.8520  223.1360 C   0  0  0  0  0  0  0  0  0  0  0  0
  142.9530   80.9980  224.2110 Cl  0  0  0  0  0  0  0  0  0  0  0  0
  141.6950   78.6370  223.6390 C   0  0  0  0  0  0  0  0  0  0  0  0
  141.8246   78.3929  224.7037 H   0  0  0  0  0  0  0  0  0  0  0  0
  141.0490   77.7350  222.7900 C   0  0  0  0  0  0  0  0  0  0  0  0
  140.6865   76.7749  223.1859 H   0  0  0  0  0  0  0  0  0  0  0  0
  144.4340   74.2280  219.4830 C   0  0  0  0  0  0  0  0  0  0  0  0
  144.9090   73.3130  218.5240 C   0  0  0  0  0  0  0  0  0  0  0  0
  144.5401   73.3629  217.4889 H   0  0  0  0  0  0  0  0  0  0  0  0
  145.8220   72.3680  218.8730 N   0  0  0  0  0  0  0  0  0  0  0  0
  146.3020   72.2710  220.1440 C   0  0  0  0  0  0  0  0  0  0  0  0
  147.0410   71.4956  220.3943 H   0  0  0  0  0  0  0  0  0  0  0  0
  145.8580   73.1530  221.1280 C   0  0  0  0  0  0  0  0  0  0  0  0
  146.2339   73.0714  222.1586 H   0  0  0  0  0  0  0  0  0  0  0  0
  144.9310   74.1410  220.7910 C   0  0  0  0  0  0  0  0  0  0  0  0
  144.5890   74.8544  221.5552 H   0  0  0  0  0  0  0  0  0  0  0  0
  1  2  1  0
  2  3  2  0
  3  4  1  0
  3  5  1  0
  5  6  2  0
  6  7  1  0
  7  8  2  0
  8  9  1  0
  8 10  1  0
 10 11  1  0
 10 12  2  0
 12 13  1  0
 12 14  1  0
 14 15  1  0
 14 16  2  0
 16 17  1  0
 17 18  2  0
 17 19  1  0
 19 20  1  0
 20 21  1  0
 20 22  1  0
 20 23  1  0
 23 24  2  0
 24 25  1  0
 24 26  1  0
 26 27  1  0
 26 28  2  0
 28 29  1  0
 28 30  1  0
 30 31  1  0
 30 32  2  0
 32 33  1  0
  2 34  1  0
 34 35  2  0
 35 36  1  0
 35 37  1  0
 37 38  2  0
 38 39  1  0
 38 40  1  0
 40 41  1  0
 40 42  2  0
 42 43  1  0
 19  5  1  0
 32 23  1  0
 42 34  1  0
 16  7  1  0
M  END
>  <UniqueID>  (7) 
22

>  <SMILES>  (7) 
O=c1c2ccccc2nc(/C=C/c2cccnc2)n1Cc1ccc(Cl)cc1

>  <Energy>  (7) 
62.9621111436096

>  <Genealogy>  (7) 
O=c1c2ccccc2nc(/C=C/c2cccnc2)n1Cc1ccc(Cl)cc1 (cis-trans isomerization)
O=c1c2ccccc2nc(/C=C/c2cccnc2)n1Cc1ccc(Cl)cc1 (3D coordinates assigned)
O=c1c2ccccc2nc(/C=C/c2cccnc2)n1Cc1ccc(Cl)cc1 (optimized conformer: 62.9621111436096 kcal/mol)

>  <smiles>  (7) 
O=c1c2ccccc2nc(/C=C/c2cccnc2)n1Cc1ccc(Cl)cc1

>  <score_type>  (7) 
oracle

>  <origin>  (7) 
autodockgpu

>  <m_score__min__energy>  (7) 
-7.54

>  <m_primary>  (7) 
energy

>  <meeko>  (7) 
{"free_energy": -7.53, "intermolecular_energy": -9.02, "internal_energy": -1.3, "cluster_size": 5, "cluster_id": 2, "rank_in_cluster": 1}

>  <energy>  (7) 
-7.52

>  <cluster_rmsd>  (7) 
0.1

>  <rmsd>  (7) 
271.66

>  <cluster>  (7) 
2

$$$$
AQNDWTVLZSMOQU-FMIVXFBMNA-N
     RDKit          3D

 43 46  0  0  0  0  0  0  0  0999 V2000
  135.8964   71.5873  223.8104 H   0  0  0  0  0  0  0  0  0  0  0  0
  135.7410   72.6510  223.5770 C   0  0  0  0  0  0  0  0  0  0  0  0
  136.1670   73.1140  222.3930 C   0  0  0  0  0  0  0  0  0  0  0  0
  135.6156   72.8682  221.4735 H   0  0  0  0  0  0  0  0  0  0  0  0
  137.3760   73.9530  222.3280 C   0  0  0  0  0  0  0  0  0  0  0  0
  137.2180   75.3010  222.3730 N   0  0  0  0  0  0  0  0  0  0  0  0
  138.2720   76.1470  222.2970 C   0  0  0  0  0  0  0  0  0  0  0  0
  138.0700   77.5280  222.3720 C   0  0  0  0  0  0  0  0  0  0  0  0
  137.0527   77.9272  222.4976 H   0  0  0  0  0  0  0  0  0  0  0  0
  139.1560   78.4030  222.2880 C   0  0  0  0  0  0  0  0  0  0  0  0
  138.9923   79.4893  222.3447 H   0  0  0  0  0  0  0  0  0  0  0  0
  140.4500   77.8990  222.1320 C   0  0  0  0  0  0  0  0  0  0  0  0
  141.3045   78.5887  222.0675 H   0  0  0  0  0  0  0  0  0  0  0  0
  140.6590   76.5200  222.0580 C   0  0  0  0  0  0  0  0  0  0  0  0
  141.6782   76.1263  221.9306 H   0  0  0  0  0  0  0  0  0  0  0  0
  139.5690   75.6310  222.1460 C   0  0  0  0  0  0  0  0  0  0  0  0
  139.7270   74.2340  222.0890 C   0  0  0  0  0  0  0  0  0  0  0  0
  140.8860   73.7480  221.9420 O   0  0  0  0  0  0  0  0  0  0  0  0
  138.6340   73.4030  222.1910 N   0  0  0  0  0  0  0  0  0  0  0  0
  138.8050   71.9290  222.1350 C   0  0  0  0  0  0  0  0  0  0  0  0
  137.8629   71.4715  221.7986 H   0  0  0  0  0  0  0  0  0  0  0  0
  139.6208   71.7005  221.4334 H   0  0  0  0  0  0  0  0  0  0  0  0
  139.1690   71.3670  223.4890 C   0  0  0  0  0  0  0  0  0  0  0  0
  138.3840   70.3600  224.0740 C   0  0  0  0  0  0  0  0  0  0  0  0
  137.4695   70.0171  223.5679 H   0  0  0  0  0  0  0  0  0  0  0  0
  138.7570   69.7900  225.2960 C   0  0  0  0  0  0  0  0  0  0  0  0
  138.1369   69.0013  225.7470 H   0  0  0  0  0  0  0  0  0  0  0  0
  139.9160   70.2220  225.9430 C   0  0  0  0  0  0  0  0  0  0  0  0
  140.4130   69.4740  227.4470 Cl  0  0  0  0  0  0  0  0  0  0  0  0
  140.7040   71.2270  225.3680 C   0  0  0  0  0  0  0  0  0  0  0  0
  141.6213   71.5630  225.8737 H   0  0  0  0  0  0  0  0  0  0  0  0
  140.3260   71.8030  224.1530 C   0  0  0  0  0  0  0  0  0  0  0  0
  140.9392   72.6036  223.7137 H   0  0  0  0  0  0  0  0  0  0  0  0
  135.0720   73.5030  224.5840 C   0  0  0  0  0  0  0  0  0  0  0  0
  134.2210   72.9760  225.5740 C   0  0  0  0  0  0  0  0  0  0  0  0
  134.0350   71.8927  225.6175 H   0  0  0  0  0  0  0  0  0  0  0  0
  133.6280   73.8030  226.4770 N   0  0  0  0  0  0  0  0  0  0  0  0
  133.8310   75.1490  226.4560 C   0  0  0  0  0  0  0  0  0  0  0  0
  133.3375   75.7903  227.2011 H   0  0  0  0  0  0  0  0  0  0  0  0
  134.6630   75.7160  225.4920 C   0  0  0  0  0  0  0  0  0  0  0  0
  134.8205   76.8043  225.4637 H   0  0  0  0  0  0  0  0  0  0  0  0
  135.2940   74.8870  224.5630 C   0  0  0  0  0  0  0  0  0  0  0  0
  135.9687   75.3218  223.8108 H   0  0  0  0  0  0  0  0  0  0  0  0
  1  2  1  0
  2  3  2  0
  3  4  1  0
  3  5  1  0
  5  6  2  0
  6  7  1  0
  7  8  2  0
  8  9  1  0
  8 10  1  0
 10 11  1  0
 10 12  2  0
 12 13  1  0
 12 14  1  0
 14 15  1  0
 14 16  2  0
 16 17  1  0
 17 18  2  0
 17 19  1  0
 19 20  1  0
 20 21  1  0
 20 22  1  0
 20 23  1  0
 23 24  2  0
 24 25  1  0
 24 26  1  0
 26 27  1  0
 26 28  2  0
 28 29  1  0
 28 30  1  0
 30 31  1  0
 30 32  2  0
 32 33  1  0
  2 34  1  0
 34 35  2  0
 35 36  1  0
 35 37  1  0
 37 38  2  0
 38 39  1  0
 38 40  1  0
 40 41  1  0
 40 42  2  0
 42 43  1  0
 19  5  1  0
 32 23  1  0
 42 34  1  0
 16  7  1  0
M  END
>  <UniqueID>  (8) 
22

>  <SMILES>  (8) 
O=c1c2ccccc2nc(/C=C/c2cccnc2)n1Cc1ccc(Cl)cc1

>  <Energy>  (8) 
62.9621111436096

>  <Genealogy>  (8) 
O=c1c2ccccc2nc(/C=C/c2cccnc2)n1Cc1ccc(Cl)cc1 (cis-trans isomerization)
O=c1c2ccccc2nc(/C=C/c2cccnc2)n1Cc1ccc(Cl)cc1 (3D coordinates assigned)
O=c1c2ccccc2nc(/C=C/c2cccnc2)n1Cc1ccc(Cl)cc1 (optimized conformer: 62.9621111436096 kcal/mol)

>  <smiles>  (8) 
O=c1c2ccccc2nc(/C=C/c2cccnc2)n1Cc1ccc(Cl)cc1

>  <score_type>  (8) 
oracle

>  <origin>  (8) 
autodockgpu

>  <m_score__min__energy>  (8) 
-7.54

>  <m_primary>  (8) 
energy

>  <meeko>  (8) 
{"free_energy": -7.38, "intermolecular_energy": -8.87, "internal_energy": -1.35, "cluster_size": 6, "cluster_id": 4, "rank_in_cluster": 5}

>  <energy>  (8) 
-7.51

>  <cluster_rmsd>  (8) 
0.11

>  <rmsd>  (8) 
271.66

>  <cluster>  (8) 
2

$$$$
AQNDWTVLZSMOQU-FMIVXFBMNA-N
     RDKit          3D

 43 46  0  0  0  0  0  0  0  0999 V2000
  143.3036   75.6426  218.1025 H   0  0  0  0  0  0  0  0  0  0  0  0
  143.4000   75.3520  219.1590 C   0  0  0  0  0  0  0  0  0  0  0  0
  142.5990   75.9400  220.0590 C   0  0  0  0  0  0  0  0  0  0  0  0
  142.7630   76.9907  220.3405 H   0  0  0  0  0  0  0  0  0  0  0  0
  141.4980   75.1740  220.6700 C   0  0  0  0  0  0  0  0  0  0  0  0
  141.7410   73.8870  221.0260 N   0  0  0  0  0  0  0  0  0  0  0  0
  140.7810   73.1040  221.5730 C   0  0  0  0  0  0  0  0  0  0  0  0
  141.0770   71.7910  221.9490 C   0  0  0  0  0  0  0  0  0  0  0  0
  142.0928   71.3947  221.8038 H   0  0  0  0  0  0  0  0  0  0  0  0
  140.0860   70.9800  222.5090 C   0  0  0  0  0  0  0  0  0  0  0  0
  140.3222   69.9462  222.8012 H   0  0  0  0  0  0  0  0  0  0  0  0
  138.7960   71.4810  222.6980 C   0  0  0  0  0  0  0  0  0  0  0  0
  138.0174   70.8419  223.1401 H   0  0  0  0  0  0  0  0  0  0  0  0
  138.4940   72.7930  222.3260 C   0  0  0  0  0  0  0  0  0  0  0  0
  137.4760   73.1834  222.4720 H   0  0  0  0  0  0  0  0  0  0  0  0
  139.4890   73.6190  221.7640 C   0  0  0  0  0  0  0  0  0  0  0  0
  139.2390   74.9500  221.3840 C   0  0  0  0  0  0  0  0  0  0  0  0
  138.0790   75.4310  221.5370 O   0  0  0  0  0  0  0  0  0  0  0  0
  140.2460   75.7240  220.8500 N   0  0  0  0  0  0  0  0  0  0  0  0
  139.9800   77.1300  220.4540 C   0  0  0  0  0  0  0  0  0  0  0  0
  140.3559   77.2919  219.4330 H   0  0  0  0  0  0  0  0  0  0  0  0
  138.8950   77.3047  220.5016 H   0  0  0  0  0  0  0  0  0  0  0  0
  140.6610   78.1020  221.3890 C   0  0  0  0  0  0  0  0  0  0  0  0
  140.7310   77.8310  222.7650 C   0  0  0  0  0  0  0  0  0  0  0  0
  140.2415   76.9332  223.1704 H   0  0  0  0  0  0  0  0  0  0  0  0
  141.4190   78.6950  223.6240 C   0  0  0  0  0  0  0  0  0  0  0  0
  141.4691   78.4755  224.7007 H   0  0  0  0  0  0  0  0  0  0  0  0
  142.0420   79.8360  223.1140 C   0  0  0  0  0  0  0  0  0  0  0  0
  142.9480   80.8910  224.1790 Cl  0  0  0  0  0  0  0  0  0  0  0  0
  141.9760   80.1150  221.7430 C   0  0  0  0  0  0  0  0  0  0  0  0
  142.4728   81.0095  221.3393 H   0  0  0  0  0  0  0  0  0  0  0  0
  141.2790   79.2570  220.8880 C   0  0  0  0  0  0  0  0  0  0  0  0
  141.2147   79.4891  219.8147 H   0  0  0  0  0  0  0  0  0  0  0  0
  144.4070   74.3310  219.5200 C   0  0  0  0  0  0  0  0  0  0  0  0
  144.8870   73.3830  218.5960 C   0  0  0  0  0  0  0  0  0  0  0  0
  144.5118   73.3860  217.5620 H   0  0  0  0  0  0  0  0  0  0  0  0
  145.8140   72.4630  218.9790 N   0  0  0  0  0  0  0  0  0  0  0  0
  146.3010   72.4240  220.2490 C   0  0  0  0  0  0  0  0  0  0  0  0
  147.0505   71.6682  220.5265 H   0  0  0  0  0  0  0  0  0  0  0  0
  145.8520   73.3400  221.1990 C   0  0  0  0  0  0  0  0  0  0  0  0
  146.2339   73.3045  222.2300 H   0  0  0  0  0  0  0  0  0  0  0  0
  144.9120   74.3030  220.8270 C   0  0  0  0  0  0  0  0  0  0  0  0
  144.5661   75.0433  221.5634 H   0  0  0  0  0  0  0  0  0  0  0  0
  1  2  1  0
  2  3  2  0
  3  4  1  0
  3  5  1  0
  5  6  2  0
  6  7  1  0
  7  8  2  0
  8  9  1  0
  8 10  1  0
 10 11  1  0
 10 12  2  0
 12 13  1  0
 12 14  1  0
 14 15  1  0
 14 16  2  0
 16 17  1  0
 17 18  2  0
 17 19  1  0
 19 20  1  0
 20 21  1  0
 20 22  1  0
 20 23  1  0
 23 24  2  0
 24 25  1  0
 24 26  1  0
 26 27  1  0
 26 28  2  0
 28 29  1  0
 28 30  1  0
 30 31  1  0
 30 32  2  0
 32 33  1  0
  2 34  1  0
 34 35  2  0
 35 36  1  0
 35 37  1  0
 37 38  2  0
 38 39  1  0
 38 40  1  0
 40 41  1  0
 40 42  2  0
 42 43  1  0
 19  5  1  0
 32 23  1  0
 42 34  1  0
 16  7  1  0
M  END
>  <UniqueID>  (9) 
22

>  <SMILES>  (9) 
O=c1c2ccccc2nc(/C=C/c2cccnc2)n1Cc1ccc(Cl)cc1

>  <Energy>  (9) 
62.9621111436096

>  <Genealogy>  (9) 
O=c1c2ccccc2nc(/C=C/c2cccnc2)n1Cc1ccc(Cl)cc1 (cis-trans isomerization)
O=c1c2ccccc2nc(/C=C/c2cccnc2)n1Cc1ccc(Cl)cc1 (3D coordinates assigned)
O=c1c2ccccc2nc(/C=C/c2cccnc2)n1Cc1ccc(Cl)cc1 (optimized conformer: 62.9621111436096 kcal/mol)

>  <smiles>  (9) 
O=c1c2ccccc2nc(/C=C/c2cccnc2)n1Cc1ccc(Cl)cc1

>  <score_type>  (9) 
oracle

>  <origin>  (9) 
autodockgpu

>  <m_score__min__energy>  (9) 
-7.54

>  <m_primary>  (9) 
energy

>  <meeko>  (9) 
{"free_energy": -7.47, "intermolecular_energy": -8.96, "internal_energy": -1.34, "cluster_size": 5, "cluster_id": 2, "rank_in_cluster": 5}

>  <energy>  (9) 
-7.49

>  <cluster_rmsd>  (9) 
0.11

>  <rmsd>  (9) 
271.68

>  <cluster>  (9) 
2

$$$$
AQNDWTVLZSMOQU-FMIVXFBMNA-N
     RDKit          3D

 43 46  0  0  0  0  0  0  0  0999 V2000
  143.5511   69.9492  220.5640 H   0  0  0  0  0  0  0  0  0  0  0  0
  143.3530   70.9800  220.2350 C   0  0  0  0  0  0  0  0  0  0  0  0
  142.0930   71.3220  219.9300 C   0  0  0  0  0  0  0  0  0  0  0  0
  141.4632   70.6395  219.3405 H   0  0  0  0  0  0  0  0  0  0  0  0
  141.5550   72.6150  220.3870 C   0  0  0  0  0  0  0  0  0  0  0  0
  142.2350   73.7410  220.0500 N   0  0  0  0  0  0  0  0  0  0  0  0
  141.8230   74.9690  220.4460 C   0  0  0  0  0  0  0  0  0  0  0  0
  142.5380   76.1060  220.0580 C   0  0  0  0  0  0  0  0  0  0  0  0
  143.4331   76.0026  219.4271 H   0  0  0  0  0  0  0  0  0  0  0  0
  142.1180   77.3740  220.4700 C   0  0  0  0  0  0  0  0  0  0  0  0
  142.6829   78.2667  220.1635 H   0  0  0  0  0  0  0  0  0  0  0  0
  140.9810   77.5080  221.2710 C   0  0  0  0  0  0  0  0  0  0  0  0
  140.6518   78.5064  221.5948 H   0  0  0  0  0  0  0  0  0  0  0  0
  140.2620   76.3760  221.6610 C   0  0  0  0  0  0  0  0  0  0  0  0
  139.3694   76.4845  222.2946 H   0  0  0  0  0  0  0  0  0  0  0  0
  140.6770   75.0950  221.2450 C   0  0  0  0  0  0  0  0  0  0  0  0
  139.9810   73.9240  221.6010 C   0  0  0  0  0  0  0  0  0  0  0  0
  138.9510   74.0130  222.3300 O   0  0  0  0  0  0  0  0  0  0  0  0
  140.4170   72.6930  221.1620 N   0  0  0  0  0  0  0  0  0  0  0  0
  139.6780   71.4600  221.5360 C   0  0  0  0  0  0  0  0  0  0  0  0
  138.6222   71.5739  221.2490 H   0  0  0  0  0  0  0  0  0  0  0  0
  140.1342   70.6084  221.0100 H   0  0  0  0  0  0  0  0  0  0  0  0
  139.7590   71.2020  223.0220 C   0  0  0  0  0  0  0  0  0  0  0  0
  138.9330   70.2380  223.6210 C   0  0  0  0  0  0  0  0  0  0  0  0
  138.1858   69.7060  223.0138 H   0  0  0  0  0  0  0  0  0  0  0  0
  139.0530   69.9490  224.9840 C   0  0  0  0  0  0  0  0  0  0  0  0
  138.4021   69.1914  225.4449 H   0  0  0  0  0  0  0  0  0  0  0  0
  139.9990   70.6220  225.7600 C   0  0  0  0  0  0  0  0  0  0  0  0
  140.1860   70.2260  227.4560 Cl  0  0  0  0  0  0  0  0  0  0  0  0
  140.8260   71.5870  225.1720 C   0  0  0  0  0  0  0  0  0  0  0  0
  141.5763   72.1125  225.7810 H   0  0  0  0  0  0  0  0  0  0  0  0
  140.6990   71.8830  223.8120 C   0  0  0  0  0  0  0  0  0  0  0  0
  141.3391   72.6538  223.3580 H   0  0  0  0  0  0  0  0  0  0  0  0
  144.4890   71.9230  220.1500 C   0  0  0  0  0  0  0  0  0  0  0  0
  145.2080   72.1370  218.9590 C   0  0  0  0  0  0  0  0  0  0  0  0
  144.9293   71.5923  218.0449 H   0  0  0  0  0  0  0  0  0  0  0  0
  146.2460   73.0150  218.9350 N   0  0  0  0  0  0  0  0  0  0  0  0
  146.6260   73.7060  220.0450 C   0  0  0  0  0  0  0  0  0  0  0  0
  147.4709   74.4084  219.9926 H   0  0  0  0  0  0  0  0  0  0  0  0
  145.9450   73.5240  221.2480 C   0  0  0  0  0  0  0  0  0  0  0  0
  146.2541   74.0721  222.1503 H   0  0  0  0  0  0  0  0  0  0  0  0
  144.8670   72.6390  221.2950 C   0  0  0  0  0  0  0  0  0  0  0  0
  144.3113   72.5024  222.2344 H   0  0  0  0  0  0  0  0  0  0  0  0
  1  2  1  0
  2  3  2  0
  3  4  1  0
  3  5  1  0
  5  6  2  0
  6  7  1  0
  7  8  2  0
  8  9  1  0
  8 10  1  0
 10 11  1  0
 10 12  2  0
 12 13  1  0
 12 14  1  0
 14 15  1  0
 14 16  2  0
 16 17  1  0
 17 18  2  0
 17 19  1  0
 19 20  1  0
 20 21  1  0
 20 22  1  0
 20 23  1  0
 23 24  2  0
 24 25  1  0
 24 26  1  0
 26 27  1  0
 26 28  2  0
 28 29  1  0
 28 30  1  0
 30 31  1  0
 30 32  2  0
 32 33  1  0
  2 34  1  0
 34 35  2  0
 35 36  1  0
 35 37  1  0
 37 38  2  0
 38 39  1  0
 38 40  1  0
 40 41  1  0
 40 42  2  0
 42 43  1  0
 19  5  1  0
 32 23  1  0
 42 34  1  0
 16  7  1  0
M  END
>  <UniqueID>  (10) 
22

>  <SMILES>  (10) 
O=c1c2ccccc2nc(/C=C/c2cccnc2)n1Cc1ccc(Cl)cc1

>  <Energy>  (10) 
62.9621111436096

>  <Genealogy>  (10) 
O=c1c2ccccc2nc(/C=C/c2cccnc2)n1Cc1ccc(Cl)cc1 (cis-trans isomerization)
O=c1c2ccccc2nc(/C=C/c2cccnc2)n1Cc1ccc(Cl)cc1 (3D coordinates assigned)
O=c1c2ccccc2nc(/C=C/c2cccnc2)n1Cc1ccc(Cl)cc1 (optimized conformer: 62.9621111436096 kcal/mol)

>  <smiles>  (10) 
O=c1c2ccccc2nc(/C=C/c2cccnc2)n1Cc1ccc(Cl)cc1

>  <score_type>  (10) 
oracle

>  <origin>  (10) 
autodockgpu

>  <m_score__min__energy>  (10) 
-7.54

>  <m_primary>  (10) 
energy

>  <meeko>  (10) 
{"free_energy": -7.49, "intermolecular_energy": -8.98, "internal_energy": -1.42, "cluster_size": 5, "cluster_id": 1, "rank_in_cluster": 4}

>  <energy>  (10) 
-7.47

>  <cluster_rmsd>  (10) 
0.14

>  <rmsd>  (10) 
271.65

>  <cluster>  (10) 
2

$$$$
AQNDWTVLZSMOQU-FMIVXFBMNA-N
     RDKit          3D

 43 46  0  0  0  0  0  0  0  0999 V2000
  143.3367   75.5521  218.1218 H   0  0  0  0  0  0  0  0  0  0  0  0
  143.4480   75.2620  219.1770 C   0  0  0  0  0  0  0  0  0  0  0  0
  142.6720   75.8640  220.0900 C   0  0  0  0  0  0  0  0  0  0  0  0
  142.8748   76.9035  220.3871 H   0  0  0  0  0  0  0  0  0  0  0  0
  141.5470   75.1290  220.6940 C   0  0  0  0  0  0  0  0  0  0  0  0
  141.7580   73.8430  221.0720 N   0  0  0  0  0  0  0  0  0  0  0  0
  140.7750   73.0870  221.6150 C   0  0  0  0  0  0  0  0  0  0  0  0
  141.0390   71.7740  222.0150 C   0  0  0  0  0  0  0  0  0  0  0  0
  142.0492   71.3564  221.8925 H   0  0  0  0  0  0  0  0  0  0  0  0
  140.0240   70.9900  222.5700 C   0  0  0  0  0  0  0  0  0  0  0  0
  140.2350   69.9561  222.8808 H   0  0  0  0  0  0  0  0  0  0  0  0
  138.7410   71.5200  222.7300 C   0  0  0  0  0  0  0  0  0  0  0  0
  137.9429   70.9030  223.1686 H   0  0  0  0  0  0  0  0  0  0  0  0
  138.4700   72.8320  222.3340 C   0  0  0  0  0  0  0  0  0  0  0  0
  137.4574   73.2439  222.4567 H   0  0  0  0  0  0  0  0  0  0  0  0
  139.4900   73.6290  221.7780 C   0  0  0  0  0  0  0  0  0  0  0  0
  139.2730   74.9600  221.3740 C   0  0  0  0  0  0  0  0  0  0  0  0
  138.1200   75.4650  221.5010 O   0  0  0  0  0  0  0  0  0  0  0  0
  140.3030   75.7050  220.8460 N   0  0  0  0  0  0  0  0  0  0  0  0
  140.0710   77.1100  220.4240 C   0  0  0  0  0  0  0  0  0  0  0  0
  140.4896   77.2557  219.4172 H   0  0  0  0  0  0  0  0  0  0  0  0
  138.9873   77.2989  220.4255 H   0  0  0  0  0  0  0  0  0  0  0  0
  140.7270   78.0840  221.3760 C   0  0  0  0  0  0  0  0  0  0  0  0
  140.8510   77.7700  222.7380 C   0  0  0  0  0  0  0  0  0  0  0  0
  140.4198   76.8346  223.1243 H   0  0  0  0  0  0  0  0  0  0  0  0
  141.5190   78.6380  223.6080 C   0  0  0  0  0  0  0  0  0  0  0  0
  141.6125   78.3835  224.6741 H   0  0  0  0  0  0  0  0  0  0  0  0
  142.0670   79.8270  223.1240 C   0  0  0  0  0  0  0  0  0  0  0  0
  142.9480   80.8910  224.2010 Cl  0  0  0  0  0  0  0  0  0  0  0  0
  141.9470   80.1500  221.7660 C   0  0  0  0  0  0  0  0  0  0  0  0
  142.3850   81.0831  221.3820 H   0  0  0  0  0  0  0  0  0  0  0  0
  141.2710   79.2870  220.8990 C   0  0  0  0  0  0  0  0  0  0  0  0
  141.1646   79.5520  219.8367 H   0  0  0  0  0  0  0  0  0  0  0  0
  144.4460   74.2270  219.5210 C   0  0  0  0  0  0  0  0  0  0  0  0
  144.9410   73.3090  218.5760 C   0  0  0  0  0  0  0  0  0  0  0  0
  144.5847   73.3473  217.5360 H   0  0  0  0  0  0  0  0  0  0  0  0
  145.8580   72.3750  218.9440 N   0  0  0  0  0  0  0  0  0  0  0  0
  146.3230   72.2930  220.2210 C   0  0  0  0  0  0  0  0  0  0  0  0
  147.0656   71.5261  220.4865 H   0  0  0  0  0  0  0  0  0  0  0  0
  145.8600   73.1790  221.1930 C   0  0  0  0  0  0  0  0  0  0  0  0
  146.2247   73.1097  222.2285 H   0  0  0  0  0  0  0  0  0  0  0  0
  144.9280   74.1550  220.8360 C   0  0  0  0  0  0  0  0  0  0  0  0
  144.5698   74.8713  221.5900 H   0  0  0  0  0  0  0  0  0  0  0  0
  1  2  1  0
  2  3  2  0
  3  4  1  0
  3  5  1  0
  5  6  2  0
  6  7  1  0
  7  8  2  0
  8  9  1  0
  8 10  1  0
 10 11  1  0
 10 12  2  0
 12 13  1  0
 12 14  1  0
 14 15  1  0
 14 16  2  0
 16 17  1  0
 17 18  2  0
 17 19  1  0
 19 20  1  0
 20 21  1  0
 20 22  1  0
 20 23  1  0
 23 24  2  0
 24 25  1  0
 24 26  1  0
 26 27  1  0
 26 28  2  0
 28 29  1  0
 28 30  1  0
 30 31  1  0
 30 32  2  0
 32 33  1  0
  2 34  1  0
 34 35  2  0
 35 36  1  0
 35 37  1  0
 37 38  2  0
 38 39  1  0
 38 40  1  0
 40 41  1  0
 40 42  2  0
 42 43  1  0
 19  5  1  0
 32 23  1  0
 42 34  1  0
 16  7  1  0
M  END
>  <UniqueID>  (11) 
22

>  <SMILES>  (11) 
O=c1c2ccccc2nc(/C=C/c2cccnc2)n1Cc1ccc(Cl)cc1

>  <Energy>  (11) 
62.9621111436096

>  <Genealogy>  (11) 
O=c1c2ccccc2nc(/C=C/c2cccnc2)n1Cc1ccc(Cl)cc1 (cis-trans isomerization)
O=c1c2ccccc2nc(/C=C/c2cccnc2)n1Cc1ccc(Cl)cc1 (3D coordinates assigned)
O=c1c2ccccc2nc(/C=C/c2cccnc2)n1Cc1ccc(Cl)cc1 (optimized conformer: 62.9621111436096 kcal/mol)

>  <smiles>  (11) 
O=c1c2ccccc2nc(/C=C/c2cccnc2)n1Cc1ccc(Cl)cc1

>  <score_type>  (11) 
oracle

>  <origin>  (11) 
autodockgpu

>  <m_score__min__energy>  (11) 
-7.54

>  <m_primary>  (11) 
energy

>  <meeko>  (11) 
{"free_energy": -7.52, "intermolecular_energy": -9.01, "internal_energy": -1.33, "cluster_size": 5, "cluster_id": 2, "rank_in_cluster": 2}

>  <energy>  (11) 
-7.5

>  <cluster_rmsd>  (11) 
0.0

>  <rmsd>  (11) 
271.88

>  <cluster>  (11) 
3

$$$$
AQNDWTVLZSMOQU-FMIVXFBMNA-N
     RDKit          3D

 43 46  0  0  0  0  0  0  0  0999 V2000
  135.9017   71.6002  223.8144 H   0  0  0  0  0  0  0  0  0  0  0  0
  135.7480   72.6650  223.5850 C   0  0  0  0  0  0  0  0  0  0  0  0
  136.1740   73.1310  222.4030 C   0  0  0  0  0  0  0  0  0  0  0  0
  135.6235   72.8864  221.4826 H   0  0  0  0  0  0  0  0  0  0  0  0
  137.3820   73.9720  222.3400 C   0  0  0  0  0  0  0  0  0  0  0  0
  137.2230   75.3190  222.4000 N   0  0  0  0  0  0  0  0  0  0  0  0
  138.2760   76.1670  222.3280 C   0  0  0  0  0  0  0  0  0  0  0  0
  138.0720   77.5470  222.4180 C   0  0  0  0  0  0  0  0  0  0  0  0
  137.0548   77.9436  222.5521 H   0  0  0  0  0  0  0  0  0  0  0  0
  139.1570   78.4240  222.3380 C   0  0  0  0  0  0  0  0  0  0  0  0
  138.9926   79.5094  222.4073 H   0  0  0  0  0  0  0  0  0  0  0  0
  140.4510   77.9230  222.1700 C   0  0  0  0  0  0  0  0  0  0  0  0
  141.3045   78.6143  222.1086 H   0  0  0  0  0  0  0  0  0  0  0  0
  140.6610   76.5450  222.0800 C   0  0  0  0  0  0  0  0  0  0  0  0
  141.6799   76.1537  221.9431 H   0  0  0  0  0  0  0  0  0  0  0  0
  139.5720   75.6540  222.1640 C   0  0  0  0  0  0  0  0  0  0  0  0
  139.7320   74.2580  222.0920 C   0  0  0  0  0  0  0  0  0  0  0  0
  140.8900   73.7740  221.9330 O   0  0  0  0  0  0  0  0  0  0  0  0
  138.6390   73.4250  222.1910 N   0  0  0  0  0  0  0  0  0  0  0  0
  138.8120   71.9510  222.1170 C   0  0  0  0  0  0  0  0  0  0  0  0
  137.8584   71.4926  221.8163 H   0  0  0  0  0  0  0  0  0  0  0  0
  139.5984   71.7293  221.3805 H   0  0  0  0  0  0  0  0  0  0  0  0
  139.2330   71.3820  223.4520 C   0  0  0  0  0  0  0  0  0  0  0  0
  140.3640   71.8860  224.1140 C   0  0  0  0  0  0  0  0  0  0  0  0
  140.9774   72.6623  223.6333 H   0  0  0  0  0  0  0  0  0  0  0  0
  140.7160   71.4080  225.3800 C   0  0  0  0  0  0  0  0  0  0  0  0
  141.6025   71.8099  225.8924 H   0  0  0  0  0  0  0  0  0  0  0  0
  139.9430   70.4210  225.9940 C   0  0  0  0  0  0  0  0  0  0  0  0
  140.3530   69.8570  227.6010 Cl  0  0  0  0  0  0  0  0  0  0  0  0
  138.8150   69.9100  225.3400 C   0  0  0  0  0  0  0  0  0  0  0  0
  138.2015   69.1370  225.8258 H   0  0  0  0  0  0  0  0  0  0  0  0
  138.4680   70.3810  224.0710 C   0  0  0  0  0  0  0  0  0  0  0  0
  137.5905   69.9650  223.5543 H   0  0  0  0  0  0  0  0  0  0  0  0
  135.0810   73.5140  224.5960 C   0  0  0  0  0  0  0  0  0  0  0  0
  134.2310   72.9860  225.5850 C   0  0  0  0  0  0  0  0  0  0  0  0
  134.0431   71.9029  225.6256 H   0  0  0  0  0  0  0  0  0  0  0  0
  133.6410   73.8110  226.4910 N   0  0  0  0  0  0  0  0  0  0  0  0
  133.8450   75.1580  226.4740 C   0  0  0  0  0  0  0  0  0  0  0  0
  133.3534   75.7977  227.2217 H   0  0  0  0  0  0  0  0  0  0  0  0
  134.6760   75.7260  225.5100 C   0  0  0  0  0  0  0  0  0  0  0  0
  134.8348   76.8142  225.4841 H   0  0  0  0  0  0  0  0  0  0  0  0
  135.3050   74.8980  224.5770 C   0  0  0  0  0  0  0  0  0  0  0  0
  135.9787   75.3336  223.8244 H   0  0  0  0  0  0  0  0  0  0  0  0
  1  2  1  0
  2  3  2  0
  3  4  1  0
  3  5  1  0
  5  6  2  0
  6  7  1  0
  7  8  2  0
  8  9  1  0
  8 10  1  0
 10 11  1  0
 10 12  2  0
 12 13  1  0
 12 14  1  0
 14 15  1  0
 14 16  2  0
 16 17  1  0
 17 18  2  0
 17 19  1  0
 19 20  1  0
 20 21  1  0
 20 22  1  0
 20 23  1  0
 23 24  2  0
 24 25  1  0
 24 26  1  0
 26 27  1  0
 26 28  2  0
 28 29  1  0
 28 30  1  0
 30 31  1  0
 30 32  2  0
 32 33  1  0
  2 34  1  0
 34 35  2  0
 35 36  1  0
 35 37  1  0
 37 38  2  0
 38 39  1  0
 38 40  1  0
 40 41  1  0
 40 42  2  0
 42 43  1  0
 19  5  1  0
 32 23  1  0
 42 34  1  0
 16  7  1  0
M  END
>  <UniqueID>  (12) 
22

>  <SMILES>  (12) 
O=c1c2ccccc2nc(/C=C/c2cccnc2)n1Cc1ccc(Cl)cc1

>  <Energy>  (12) 
62.9621111436096

>  <Genealogy>  (12) 
O=c1c2ccccc2nc(/C=C/c2cccnc2)n1Cc1ccc(Cl)cc1 (cis-trans isomerization)
O=c1c2ccccc2nc(/C=C/c2cccnc2)n1Cc1ccc(Cl)cc1 (3D coordinates assigned)
O=c1c2ccccc2nc(/C=C/c2cccnc2)n1Cc1ccc(Cl)cc1 (optimized conformer: 62.9621111436096 kcal/mol)

>  <smiles>  (12) 
O=c1c2ccccc2nc(/C=C/c2cccnc2)n1Cc1ccc(Cl)cc1

>  <score_type>  (12) 
oracle

>  <origin>  (12) 
autodockgpu

>  <m_score__min__energy>  (12) 
-7.54

>  <m_primary>  (12) 
energy

>  <meeko>  (12) 
{"free_energy": -7.4, "intermolecular_energy": -8.89, "internal_energy": -1.35, "cluster_size": 6, "cluster_id": 4, "rank_in_cluster": 2}

>  <energy>  (12) 
-7.4

>  <cluster_rmsd>  (12) 
0.0

>  <rmsd>  (12) 
271.28

>  <cluster>  (12) 
4

$$$$
AQNDWTVLZSMOQU-FMIVXFBMNA-N
     RDKit          3D

 43 46  0  0  0  0  0  0  0  0999 V2000
  143.4991   69.9174  220.3887 H   0  0  0  0  0  0  0  0  0  0  0  0
  143.2770   70.9680  220.1500 C   0  0  0  0  0  0  0  0  0  0  0  0
  142.0030   71.3150  219.9230 C   0  0  0  0  0  0  0  0  0  0  0  0
  141.3308   70.6271  219.3893 H   0  0  0  0  0  0  0  0  0  0  0  0
  141.5050   72.6200  220.3900 C   0  0  0  0  0  0  0  0  0  0  0  0
  142.2080   73.7290  220.0450 N   0  0  0  0  0  0  0  0  0  0  0  0
  141.8340   74.9660  220.4490 C   0  0  0  0  0  0  0  0  0  0  0  0
  142.5710   76.0860  220.0510 C   0  0  0  0  0  0  0  0  0  0  0  0
  143.4523   75.9612  219.4047 H   0  0  0  0  0  0  0  0  0  0  0  0
  142.1910   77.3630  220.4720 C   0  0  0  0  0  0  0  0  0  0  0  0
  142.7748   78.2413  220.1592 H   0  0  0  0  0  0  0  0  0  0  0  0
  141.0700   77.5250  221.2900 C   0  0  0  0  0  0  0  0  0  0  0  0
  140.7711   78.5310  221.6196 H   0  0  0  0  0  0  0  0  0  0  0  0
  140.3280   76.4100  221.6900 C   0  0  0  0  0  0  0  0  0  0  0  0
  139.4489   76.5400  222.3383 H   0  0  0  0  0  0  0  0  0  0  0  0
  140.7030   75.1200  221.2650 C   0  0  0  0  0  0  0  0  0  0  0  0
  139.9840   73.9670  221.6300 C   0  0  0  0  0  0  0  0  0  0  0  0
  138.9680   74.0800  222.3750 O   0  0  0  0  0  0  0  0  0  0  0  0
  140.3810   72.7260  221.1820 N   0  0  0  0  0  0  0  0  0  0  0  0
  139.6170   71.5120  221.5650 C   0  0  0  0  0  0  0  0  0  0  0  0
  138.5543   71.6674  221.3273 H   0  0  0  0  0  0  0  0  0  0  0  0
  140.0199   70.6563  221.0034 H   0  0  0  0  0  0  0  0  0  0  0  0
  139.7540   71.2210  223.0420 C   0  0  0  0  0  0  0  0  0  0  0  0
  138.9460   70.2480  223.6510 C   0  0  0  0  0  0  0  0  0  0  0  0
  138.1728   69.7335  223.0616 H   0  0  0  0  0  0  0  0  0  0  0  0
  139.1170   69.9280  225.0020 C   0  0  0  0  0  0  0  0  0  0  0  0
  138.4799   69.1639  225.4713 H   0  0  0  0  0  0  0  0  0  0  0  0
  140.0970   70.5790  225.7550 C   0  0  0  0  0  0  0  0  0  0  0  0
  140.3480   70.1450  227.4330 Cl  0  0  0  0  0  0  0  0  0  0  0  0
  140.9060   71.5530  225.1560 C   0  0  0  0  0  0  0  0  0  0  0  0
  141.6822   72.0617  225.7466 H   0  0  0  0  0  0  0  0  0  0  0  0
  140.7280   71.8790  223.8090 C   0  0  0  0  0  0  0  0  0  0  0  0
  141.3549   72.6559  223.3470 H   0  0  0  0  0  0  0  0  0  0  0  0
  144.3990   71.9300  220.0950 C   0  0  0  0  0  0  0  0  0  0  0  0
  145.1400   72.1620  218.9210 C   0  0  0  0  0  0  0  0  0  0  0  0
  144.8901   71.6178  217.9983 H   0  0  0  0  0  0  0  0  0  0  0  0
  146.1640   73.0570  218.9240 N   0  0  0  0  0  0  0  0  0  0  0  0
  146.5060   73.7510  220.0450 C   0  0  0  0  0  0  0  0  0  0  0  0
  147.3386   74.4692  220.0141 H   0  0  0  0  0  0  0  0  0  0  0  0
  145.8020   73.5520  221.2310 C   0  0  0  0  0  0  0  0  0  0  0  0
  146.0816   74.1014  222.1420 H   0  0  0  0  0  0  0  0  0  0  0  0
  144.7380   72.6480  221.2510 C   0  0  0  0  0  0  0  0  0  0  0  0
  144.1635   72.4984  222.1771 H   0  0  0  0  0  0  0  0  0  0  0  0
  1  2  1  0
  2  3  2  0
  3  4  1  0
  3  5  1  0
  5  6  2  0
  6  7  1  0
  7  8  2  0
  8  9  1  0
  8 10  1  0
 10 11  1  0
 10 12  2  0
 12 13  1  0
 12 14  1  0
 14 15  1  0
 14 16  2  0
 16 17  1  0
 17 18  2  0
 17 19  1  0
 19 20  1  0
 20 21  1  0
 20 22  1  0
 20 23  1  0
 23 24  2  0
 24 25  1  0
 24 26  1  0
 26 27  1  0
 26 28  2  0
 28 29  1  0
 28 30  1  0
 30 31  1  0
 30 32  2  0
 32 33  1  0
  2 34  1  0
 34 35  2  0
 35 36  1  0
 35 37  1  0
 37 38  2  0
 38 39  1  0
 38 40  1  0
 40 41  1  0
 40 42  2  0
 42 43  1  0
 19  5  1  0
 32 23  1  0
 42 34  1  0
 16  7  1  0
M  END
>  <UniqueID>  (13) 
22

>  <SMILES>  (13) 
O=c1c2ccccc2nc(/C=C/c2cccnc2)n1Cc1ccc(Cl)cc1

>  <Energy>  (13) 
62.9621111436096

>  <Genealogy>  (13) 
O=c1c2ccccc2nc(/C=C/c2cccnc2)n1Cc1ccc(Cl)cc1 (cis-trans isomerization)
O=c1c2ccccc2nc(/C=C/c2cccnc2)n1Cc1ccc(Cl)cc1 (3D coordinates assigned)
O=c1c2ccccc2nc(/C=C/c2cccnc2)n1Cc1ccc(Cl)cc1 (optimized conformer: 62.9621111436096 kcal/mol)

>  <smiles>  (13) 
O=c1c2ccccc2nc(/C=C/c2cccnc2)n1Cc1ccc(Cl)cc1

>  <score_type>  (13) 
oracle

>  <origin>  (13) 
autodockgpu

>  <m_score__min__energy>  (13) 
-7.54

>  <m_primary>  (13) 
energy

>  <meeko>  (13) 
{"free_energy": -7.49, "intermolecular_energy": -8.99, "internal_energy": -1.42, "cluster_size": 5, "cluster_id": 1, "rank_in_cluster": 3}

>  <energy>  (13) 
-7.4

>  <cluster_rmsd>  (13) 
0.03

>  <rmsd>  (13) 
271.28

>  <cluster>  (13) 
4

$$$$
AQNDWTVLZSMOQU-FMIVXFBMNA-N
     RDKit          3D

 43 46  0  0  0  0  0  0  0  0999 V2000
  135.4160   67.9003  222.6909 H   0  0  0  0  0  0  0  0  0  0  0  0
  135.9290   68.6980  223.2480 C   0  0  0  0  0  0  0  0  0  0  0  0
  137.1530   69.0700  222.8490 C   0  0  0  0  0  0  0  0  0  0  0  0
  137.3969   69.1057  221.7770 H   0  0  0  0  0  0  0  0  0  0  0  0
  138.1710   69.4310  223.8510 C   0  0  0  0  0  0  0  0  0  0  0  0
  138.4280   68.5430  224.8450 N   0  0  0  0  0  0  0  0  0  0  0  0
  139.3320   68.8030  225.8190 C   0  0  0  0  0  0  0  0  0  0  0  0
  139.5860   67.8520  226.8120 C   0  0  0  0  0  0  0  0  0  0  0  0
  139.0529   66.8899  226.7990 H   0  0  0  0  0  0  0  0  0  0  0  0
  140.5150   68.1200  227.8210 C   0  0  0  0  0  0  0  0  0  0  0  0
  140.7115   67.3694  228.6007 H   0  0  0  0  0  0  0  0  0  0  0  0
  141.1940   69.3400  227.8400 C   0  0  0  0  0  0  0  0  0  0  0  0
  141.9248   69.5497  228.6349 H   0  0  0  0  0  0  0  0  0  0  0  0
  140.9460   70.2950  226.8500 C   0  0  0  0  0  0  0  0  0  0  0  0
  141.4794   71.2568  226.8698 H   0  0  0  0  0  0  0  0  0  0  0  0
  140.0140   70.0290  225.8260 C   0  0  0  0  0  0  0  0  0  0  0  0
  139.7370   70.9510  224.8000 C   0  0  0  0  0  0  0  0  0  0  0  0
  140.3320   72.0680  224.7930 O   0  0  0  0  0  0  0  0  0  0  0  0
  138.8270   70.6440  223.8130 N   0  0  0  0  0  0  0  0  0  0  0  0
  138.5400   71.6180  222.7300 C   0  0  0  0  0  0  0  0  0  0  0  0
  137.8886   71.1414  221.9827 H   0  0  0  0  0  0  0  0  0  0  0  0
  138.0462   72.4951  223.1735 H   0  0  0  0  0  0  0  0  0  0  0  0
  139.8110   72.0770  222.0540 C   0  0  0  0  0  0  0  0  0  0  0  0
  140.1140   73.4450  221.9680 C   0  0  0  0  0  0  0  0  0  0  0  0
  139.3967   74.1881  222.3466 H   0  0  0  0  0  0  0  0  0  0  0  0
  141.3220   73.8700  221.4040 C   0  0  0  0  0  0  0  0  0  0  0  0
  141.5518   74.9439  221.3411 H   0  0  0  0  0  0  0  0  0  0  0  0
  142.2360   72.9310  220.9210 C   0  0  0  0  0  0  0  0  0  0  0  0
  143.7710   73.4570  220.2620 Cl  0  0  0  0  0  0  0  0  0  0  0  0
  141.9400   71.5640  221.0010 C   0  0  0  0  0  0  0  0  0  0  0  0
  142.6618   70.8228  220.6273 H   0  0  0  0  0  0  0  0  0  0  0  0
  140.7290   71.1410  221.5550 C   0  0  0  0  0  0  0  0  0  0  0  0
  140.4940   70.0673  221.6001 H   0  0  0  0  0  0  0  0  0  0  0  0
  135.2350   69.3100  224.4030 C   0  0  0  0  0  0  0  0  0  0  0  0
  134.5710   68.5440  225.3790 C   0  0  0  0  0  0  0  0  0  0  0  0
  134.5566   67.4470  225.2989 H   0  0  0  0  0  0  0  0  0  0  0  0
  133.9470   69.1560  226.4210 N   0  0  0  0  0  0  0  0  0  0  0  0
  133.9390   70.5110  226.5550 C   0  0  0  0  0  0  0  0  0  0  0  0
  133.4256   70.9754  227.4099 H   0  0  0  0  0  0  0  0  0  0  0  0
  134.5800   71.3100  225.6110 C   0  0  0  0  0  0  0  0  0  0  0  0
  134.5671   72.4055  225.7090 H   0  0  0  0  0  0  0  0  0  0  0  0
  135.2390   70.7050  224.5390 C   0  0  0  0  0  0  0  0  0  0  0  0
  135.7636   71.3259  223.7979 H   0  0  0  0  0  0  0  0  0  0  0  0
  1  2  1  0
  2  3  2  0
  3  4  1  0
  3  5  1  0
  5  6  2  0
  6  7  1  0
  7  8  2  0
  8  9  1  0
  8 10  1  0
 10 11  1  0
 10 12  2  0
 12 13  1  0
 12 14  1  0
 14 15  1  0
 14 16  2  0
 16 17  1  0
 17 18  2  0
 17 19  1  0
 19 20  1  0
 20 21  1  0
 20 22  1  0
 20 23  1  0
 23 24  2  0
 24 25  1  0
 24 26  1  0
 26 27  1  0
 26 28  2  0
 28 29  1  0
 28 30  1  0
 30 31  1  0
 30 32  2  0
 32 33  1  0
  2 34  1  0
 34 35  2  0
 35 36  1  0
 35 37  1  0
 37 38  2  0
 38 39  1  0
 38 40  1  0
 40 41  1  0
 40 42  2  0
 42 43  1  0
 19  5  1  0
 32 23  1  0
 42 34  1  0
 16  7  1  0
M  END
>  <UniqueID>  (14) 
22

>  <SMILES>  (14) 
O=c1c2ccccc2nc(/C=C/c2cccnc2)n1Cc1ccc(Cl)cc1

>  <Energy>  (14) 
62.9621111436096

>  <Genealogy>  (14) 
O=c1c2ccccc2nc(/C=C/c2cccnc2)n1Cc1ccc(Cl)cc1 (cis-trans isomerization)
O=c1c2ccccc2nc(/C=C/c2cccnc2)n1Cc1ccc(Cl)cc1 (3D coordinates assigned)
O=c1c2ccccc2nc(/C=C/c2cccnc2)n1Cc1ccc(Cl)cc1 (optimized conformer: 62.9621111436096 kcal/mol)

>  <smiles>  (14) 
O=c1c2ccccc2nc(/C=C/c2cccnc2)n1Cc1ccc(Cl)cc1

>  <score_type>  (14) 
oracle

>  <origin>  (14) 
autodockgpu

>  <m_score__min__energy>  (14) 
-7.54

>  <m_primary>  (14) 
energy

>  <meeko>  (14) 
{"free_energy": -7.23, "intermolecular_energy": -8.72, "internal_energy": -1.39, "cluster_size": 3, "cluster_id": 5, "rank_in_cluster": 2}

>  <energy>  (14) 
-7.38

>  <cluster_rmsd>  (14) 
0.1

>  <rmsd>  (14) 
271.25

>  <cluster>  (14) 
4

$$$$
AQNDWTVLZSMOQU-FMIVXFBMNA-N
     RDKit          3D

 43 46  0  0  0  0  0  0  0  0999 V2000
  143.4886   69.9826  220.4431 H   0  0  0  0  0  0  0  0  0  0  0  0
  143.3100   71.0280  220.1510 C   0  0  0  0  0  0  0  0  0  0  0  0
  142.0590   71.4020  219.8510 C   0  0  0  0  0  0  0  0  0  0  0  0
  141.4197   70.7486  219.2391 H   0  0  0  0  0  0  0  0  0  0  0  0
  141.5420   72.6910  220.3430 C   0  0  0  0  0  0  0  0  0  0  0  0
  142.2330   73.8150  220.0250 N   0  0  0  0  0  0  0  0  0  0  0  0
  141.8420   75.0390  220.4530 C   0  0  0  0  0  0  0  0  0  0  0  0
  142.5680   76.1760  220.0840 C   0  0  0  0  0  0  0  0  0  0  0  0
  143.4554   76.0757  219.4418 H   0  0  0  0  0  0  0  0  0  0  0  0
  142.1690   77.4390  220.5290 C   0  0  0  0  0  0  0  0  0  0  0  0
  142.7432   78.3309  220.2378 H   0  0  0  0  0  0  0  0  0  0  0  0
  141.0420   77.5700  221.3430 C   0  0  0  0  0  0  0  0  0  0  0  0
  140.7286   78.5651  221.6917 H   0  0  0  0  0  0  0  0  0  0  0  0
  140.3120   76.4380  221.7150 C   0  0  0  0  0  0  0  0  0  0  0  0
  139.4276   76.5439  222.3604 H   0  0  0  0  0  0  0  0  0  0  0  0
  140.7050   75.1610  221.2660 C   0  0  0  0  0  0  0  0  0  0  0  0
  139.9970   73.9920  221.6020 C   0  0  0  0  0  0  0  0  0  0  0  0
  138.9760   74.0780  222.3430 O   0  0  0  0  0  0  0  0  0  0  0  0
  140.4120   72.7660  221.1300 N   0  0  0  0  0  0  0  0  0  0  0  0
  139.6610   71.5350  221.4840 C   0  0  0  0  0  0  0  0  0  0  0  0
  138.6062   71.6648  221.2000 H   0  0  0  0  0  0  0  0  0  0  0  0
  140.1086   70.6880  220.9434 H   0  0  0  0  0  0  0  0  0  0  0  0
  139.7400   71.2500  222.9650 C   0  0  0  0  0  0  0  0  0  0  0  0
  138.8880   70.3010  223.5520 C   0  0  0  0  0  0  0  0  0  0  0  0
  138.1224   69.8017  222.9400 H   0  0  0  0  0  0  0  0  0  0  0  0
  139.0060   69.9860  224.9100 C   0  0  0  0  0  0  0  0  0  0  0  0
  138.3348   69.2407  225.3618 H   0  0  0  0  0  0  0  0  0  0  0  0
  139.9750   70.6170  225.6920 C   0  0  0  0  0  0  0  0  0  0  0  0
  140.1580   70.1870  227.3800 Cl  0  0  0  0  0  0  0  0  0  0  0  0
  140.8280   71.5670  225.1160 C   0  0  0  0  0  0  0  0  0  0  0  0
  141.5958   72.0605  225.7300 H   0  0  0  0  0  0  0  0  0  0  0  0
  140.7040   71.8880  223.7620 C   0  0  0  0  0  0  0  0  0  0  0  0
  141.3660   72.6456  223.3173 H   0  0  0  0  0  0  0  0  0  0  0  0
  144.4620   71.9540  220.1080 C   0  0  0  0  0  0  0  0  0  0  0  0
  145.2200   72.1670  218.9410 C   0  0  0  0  0  0  0  0  0  0  0  0
  144.9608   71.6339  218.0144 H   0  0  0  0  0  0  0  0  0  0  0  0
  146.2710   73.0290  218.9550 N   0  0  0  0  0  0  0  0  0  0  0  0
  146.6270   73.7070  220.0820 C   0  0  0  0  0  0  0  0  0  0  0  0
  147.4823   74.3984  220.0605 H   0  0  0  0  0  0  0  0  0  0  0  0
  145.9080   73.5250  221.2620 C   0  0  0  0  0  0  0  0  0  0  0  0
  146.1983   74.0609  222.1777 H   0  0  0  0  0  0  0  0  0  0  0  0
  144.8160   72.6560  221.2700 C   0  0  0  0  0  0  0  0  0  0  0  0
  144.2303   72.5209  222.1913 H   0  0  0  0  0  0  0  0  0  0  0  0
  1  2  1  0
  2  3  2  0
  3  4  1  0
  3  5  1  0
  5  6  2  0
  6  7  1  0
  7  8  2  0
  8  9  1  0
  8 10  1  0
 10 11  1  0
 10 12  2  0
 12 13  1  0
 12 14  1  0
 14 15  1  0
 14 16  2  0
 16 17  1  0
 17 18  2  0
 17 19  1  0
 19 20  1  0
 20 21  1  0
 20 22  1  0
 20 23  1  0
 23 24  2  0
 24 25  1  0
 24 26  1  0
 26 27  1  0
 26 28  2  0
 28 29  1  0
 28 30  1  0
 30 31  1  0
 30 32  2  0
 32 33  1  0
  2 34  1  0
 34 35  2  0
 35 36  1  0
 35 37  1  0
 37 38  2  0
 38 39  1  0
 38 40  1  0
 40 41  1  0
 40 42  2  0
 42 43  1  0
 19  5  1  0
 32 23  1  0
 42 34  1  0
 16  7  1  0
M  END
>  <UniqueID>  (15) 
22

>  <SMILES>  (15) 
O=c1c2ccccc2nc(/C=C/c2cccnc2)n1Cc1ccc(Cl)cc1

>  <Energy>  (15) 
62.9621111436096

>  <Genealogy>  (15) 
O=c1c2ccccc2nc(/C=C/c2cccnc2)n1Cc1ccc(Cl)cc1 (cis-trans isomerization)
O=c1c2ccccc2nc(/C=C/c2cccnc2)n1Cc1ccc(Cl)cc1 (3D coordinates assigned)
O=c1c2ccccc2nc(/C=C/c2cccnc2)n1Cc1ccc(Cl)cc1 (optimized conformer: 62.9621111436096 kcal/mol)

>  <smiles>  (15) 
O=c1c2ccccc2nc(/C=C/c2cccnc2)n1Cc1ccc(Cl)cc1

>  <score_type>  (15) 
oracle

>  <origin>  (15) 
autodockgpu

>  <m_score__min__energy>  (15) 
-7.54

>  <m_primary>  (15) 
energy

>  <meeko>  (15) 
{"free_energy": -7.51, "intermolecular_energy": -9.01, "internal_energy": -1.43, "cluster_size": 5, "cluster_id": 1, "rank_in_cluster": 2}

>  <energy>  (15) 
-7.38

>  <cluster_rmsd>  (15) 
0.06

>  <rmsd>  (15) 
271.26

>  <cluster>  (15) 
4

$$$$
AQNDWTVLZSMOQU-FMIVXFBMNA-N
     RDKit          3D

 43 46  0  0  0  0  0  0  0  0999 V2000
  135.3830   67.9120  222.6923 H   0  0  0  0  0  0  0  0  0  0  0  0
  135.9170   68.6890  223.2590 C   0  0  0  0  0  0  0  0  0  0  0  0
  137.1540   69.0270  222.8690 C   0  0  0  0  0  0  0  0  0  0  0  0
  137.4159   69.0237  221.8006 H   0  0  0  0  0  0  0  0  0  0  0  0
  138.1620   69.4030  223.8760 C   0  0  0  0  0  0  0  0  0  0  0  0
  138.4270   68.5180  224.8710 N   0  0  0  0  0  0  0  0  0  0  0  0
  139.3220   68.7910  225.8490 C   0  0  0  0  0  0  0  0  0  0  0  0
  139.5860   67.8430  226.8430 C   0  0  0  0  0  0  0  0  0  0  0  0
  139.0685   66.8725  226.8264 H   0  0  0  0  0  0  0  0  0  0  0  0
  140.5050   68.1250  227.8570 C   0  0  0  0  0  0  0  0  0  0  0  0
  140.7074   67.3779  228.6386 H   0  0  0  0  0  0  0  0  0  0  0  0
  141.1670   69.3550  227.8790 C   0  0  0  0  0  0  0  0  0  0  0  0
  141.8920   69.5747  228.6766 H   0  0  0  0  0  0  0  0  0  0  0  0
  140.9090   70.3060  226.8890 C   0  0  0  0  0  0  0  0  0  0  0  0
  141.4275   71.2758  226.9121 H   0  0  0  0  0  0  0  0  0  0  0  0
  139.9860   70.0270  225.8600 C   0  0  0  0  0  0  0  0  0  0  0  0
  139.7010   70.9460  224.8330 C   0  0  0  0  0  0  0  0  0  0  0  0
  140.2790   72.0710  224.8300 O   0  0  0  0  0  0  0  0  0  0  0  0
  138.8000   70.6260  223.8420 N   0  0  0  0  0  0  0  0  0  0  0  0
  138.5030   71.5960  222.7570 C   0  0  0  0  0  0  0  0  0  0  0  0
  137.8581   71.1113  222.0092 H   0  0  0  0  0  0  0  0  0  0  0  0
  137.9981   72.4679  223.1984 H   0  0  0  0  0  0  0  0  0  0  0  0
  139.7700   72.0680  222.0830 C   0  0  0  0  0  0  0  0  0  0  0  0
  140.0490   73.4400  221.9780 C   0  0  0  0  0  0  0  0  0  0  0  0
  139.3156   74.1753  222.3406 H   0  0  0  0  0  0  0  0  0  0  0  0
  141.2520   73.8790  221.4160 C   0  0  0  0  0  0  0  0  0  0  0  0
  141.4624   74.9559  221.3387 H   0  0  0  0  0  0  0  0  0  0  0  0
  142.1860   72.9500  220.9530 C   0  0  0  0  0  0  0  0  0  0  0  0
  143.7160   73.4950  220.2960 Cl  0  0  0  0  0  0  0  0  0  0  0  0
  141.9160   71.5790  221.0510 C   0  0  0  0  0  0  0  0  0  0  0  0
  142.6540   70.8462  220.6927 H   0  0  0  0  0  0  0  0  0  0  0  0
  140.7090   71.1420  221.6040 C   0  0  0  0  0  0  0  0  0  0  0  0
  140.4938   70.0649  221.6641 H   0  0  0  0  0  0  0  0  0  0  0  0
  135.2360   69.3110  224.4150 C   0  0  0  0  0  0  0  0  0  0  0  0
  134.5770   68.5540  225.4020 C   0  0  0  0  0  0  0  0  0  0  0  0
  134.5567   67.4566  225.3291 H   0  0  0  0  0  0  0  0  0  0  0  0
  133.9650   69.1760  226.4460 N   0  0  0  0  0  0  0  0  0  0  0  0
  133.9630   70.5320  226.5710 C   0  0  0  0  0  0  0  0  0  0  0  0
  133.4581   71.0042  227.4266 H   0  0  0  0  0  0  0  0  0  0  0  0
  134.6000   71.3220  225.6160 C   0  0  0  0  0  0  0  0  0  0  0  0
  134.5924   72.4182  225.7065 H   0  0  0  0  0  0  0  0  0  0  0  0
  135.2480   70.7070  224.5430 C   0  0  0  0  0  0  0  0  0  0  0  0
  135.7705   71.3208  223.7945 H   0  0  0  0  0  0  0  0  0  0  0  0
  1  2  1  0
  2  3  2  0
  3  4  1  0
  3  5  1  0
  5  6  2  0
  6  7  1  0
  7  8  2  0
  8  9  1  0
  8 10  1  0
 10 11  1  0
 10 12  2  0
 12 13  1  0
 12 14  1  0
 14 15  1  0
 14 16  2  0
 16 17  1  0
 17 18  2  0
 17 19  1  0
 19 20  1  0
 20 21  1  0
 20 22  1  0
 20 23  1  0
 23 24  2  0
 24 25  1  0
 24 26  1  0
 26 27  1  0
 26 28  2  0
 28 29  1  0
 28 30  1  0
 30 31  1  0
 30 32  2  0
 32 33  1  0
  2 34  1  0
 34 35  2  0
 35 36  1  0
 35 37  1  0
 37 38  2  0
 38 39  1  0
 38 40  1  0
 40 41  1  0
 40 42  2  0
 42 43  1  0
 19  5  1  0
 32 23  1  0
 42 34  1  0
 16  7  1  0
M  END
>  <UniqueID>  (16) 
22

>  <SMILES>  (16) 
O=c1c2ccccc2nc(/C=C/c2cccnc2)n1Cc1ccc(Cl)cc1

>  <Energy>  (16) 
62.9621111436096

>  <Genealogy>  (16) 
O=c1c2ccccc2nc(/C=C/c2cccnc2)n1Cc1ccc(Cl)cc1 (cis-trans isomerization)
O=c1c2ccccc2nc(/C=C/c2cccnc2)n1Cc1ccc(Cl)cc1 (3D coordinates assigned)
O=c1c2ccccc2nc(/C=C/c2cccnc2)n1Cc1ccc(Cl)cc1 (optimized conformer: 62.9621111436096 kcal/mol)

>  <smiles>  (16) 
O=c1c2ccccc2nc(/C=C/c2cccnc2)n1Cc1ccc(Cl)cc1

>  <score_type>  (16) 
oracle

>  <origin>  (16) 
autodockgpu

>  <m_score__min__energy>  (16) 
-7.54

>  <m_primary>  (16) 
energy

>  <meeko>  (16) 
{"free_energy": -7.22, "intermolecular_energy": -8.71, "internal_energy": -1.41, "cluster_size": 3, "cluster_id": 5, "rank_in_cluster": 3}

>  <energy>  (16) 
-7.38

>  <cluster_rmsd>  (16) 
0.1

>  <rmsd>  (16) 
271.25

>  <cluster>  (16) 
4

$$$$
AQNDWTVLZSMOQU-FMIVXFBMNA-N
     RDKit          3D

 43 46  0  0  0  0  0  0  0  0999 V2000
  135.3247   68.9778  222.2064 H   0  0  0  0  0  0  0  0  0  0  0  0
  135.8980   68.9610  223.1450 C   0  0  0  0  0  0  0  0  0  0  0  0
  137.1640   68.5230  223.1120 C   0  0  0  0  0  0  0  0  0  0  0  0
  137.4738   67.7874  222.3551 H   0  0  0  0  0  0  0  0  0  0  0  0
  138.1400   69.0300  224.0930 C   0  0  0  0  0  0  0  0  0  0  0  0
  138.4630   68.2280  225.1400 N   0  0  0  0  0  0  0  0  0  0  0  0
  139.3340   68.6220  226.0990 C   0  0  0  0  0  0  0  0  0  0  0  0
  139.6600   67.7570  227.1480 C   0  0  0  0  0  0  0  0  0  0  0  0
  139.2112   66.7536  227.1908 H   0  0  0  0  0  0  0  0  0  0  0  0
  140.5540   68.1630  228.1420 C   0  0  0  0  0  0  0  0  0  0  0  0
  140.8067   67.4801  228.9665 H   0  0  0  0  0  0  0  0  0  0  0  0
  141.1270   69.4360  228.0890 C   0  0  0  0  0  0  0  0  0  0  0  0
  141.8315   69.7545  228.8714 H   0  0  0  0  0  0  0  0  0  0  0  0
  140.8060   70.3050  227.0430 C   0  0  0  0  0  0  0  0  0  0  0  0
  141.2548   71.3086  227.0068 H   0  0  0  0  0  0  0  0  0  0  0  0
  139.9090   69.9000  226.0340 C   0  0  0  0  0  0  0  0  0  0  0  0
  139.5630   70.7320  224.9540 C   0  0  0  0  0  0  0  0  0  0  0  0
  140.0600   71.8930  224.8810 O   0  0  0  0  0  0  0  0  0  0  0  0
  138.6900   70.2900  223.9840 N   0  0  0  0  0  0  0  0  0  0  0  0
  138.3290   71.1690  222.8430 C   0  0  0  0  0  0  0  0  0  0  0  0
  137.7097   70.5999  222.1341 H   0  0  0  0  0  0  0  0  0  0  0  0
  137.7759   72.0359  223.2336 H   0  0  0  0  0  0  0  0  0  0  0  0
  139.5610   71.6720  222.1270 C   0  0  0  0  0  0  0  0  0  0  0  0
  139.9150   73.0290  222.1910 C   0  0  0  0  0  0  0  0  0  0  0  0
  139.2626   73.7393  222.7200 H   0  0  0  0  0  0  0  0  0  0  0  0
  141.0910   73.4840  221.5870 C   0  0  0  0  0  0  0  0  0  0  0  0
  141.3612   74.5489  221.6426 H   0  0  0  0  0  0  0  0  0  0  0  0
  141.9230   72.5870  220.9130 C   0  0  0  0  0  0  0  0  0  0  0  0
  143.4220   73.1460  220.2000 Cl  0  0  0  0  0  0  0  0  0  0  0  0
  141.5770   71.2320  220.8430 C   0  0  0  0  0  0  0  0  0  0  0  0
  142.2351   70.5234  220.3189 H   0  0  0  0  0  0  0  0  0  0  0  0
  140.3970   70.7790  221.4380 C   0  0  0  0  0  0  0  0  0  0  0  0
  140.1213   69.7165  221.3663 H   0  0  0  0  0  0  0  0  0  0  0  0
  135.2350   69.4230  224.3840 C   0  0  0  0  0  0  0  0  0  0  0  0
  134.6600   68.5340  225.3110 C   0  0  0  0  0  0  0  0  0  0  0  0
  134.6959   67.4503  225.1259 H   0  0  0  0  0  0  0  0  0  0  0  0
  134.0600   69.0100  226.4350 N   0  0  0  0  0  0  0  0  0  0  0  0
  133.9920   70.3440  226.7000 C   0  0  0  0  0  0  0  0  0  0  0  0
  133.5010   70.6972  227.6188 H   0  0  0  0  0  0  0  0  0  0  0  0
  134.5440   71.2630  225.8080 C   0  0  0  0  0  0  0  0  0  0  0  0
  134.4813   72.3422  226.0115 H   0  0  0  0  0  0  0  0  0  0  0  0
  135.1770   70.7980  224.6540 C   0  0  0  0  0  0  0  0  0  0  0  0
  135.6324   71.5133  223.9533 H   0  0  0  0  0  0  0  0  0  0  0  0
  1  2  1  0
  2  3  2  0
  3  4  1  0
  3  5  1  0
  5  6  2  0
  6  7  1  0
  7  8  2  0
  8  9  1  0
  8 10  1  0
 10 11  1  0
 10 12  2  0
 12 13  1  0
 12 14  1  0
 14 15  1  0
 14 16  2  0
 16 17  1  0
 17 18  2  0
 17 19  1  0
 19 20  1  0
 20 21  1  0
 20 22  1  0
 20 23  1  0
 23 24  2  0
 24 25  1  0
 24 26  1  0
 26 27  1  0
 26 28  2  0
 28 29  1  0
 28 30  1  0
 30 31  1  0
 30 32  2  0
 32 33  1  0
  2 34  1  0
 34 35  2  0
 35 36  1  0
 35 37  1  0
 37 38  2  0
 38 39  1  0
 38 40  1  0
 40 41  1  0
 40 42  2  0
 42 43  1  0
 19  5  1  0
 32 23  1  0
 42 34  1  0
 16  7  1  0
M  END
>  <UniqueID>  (17) 
22

>  <SMILES>  (17) 
O=c1c2ccccc2nc(/C=C/c2cccnc2)n1Cc1ccc(Cl)cc1

>  <Energy>  (17) 
62.9621111436096

>  <Genealogy>  (17) 
O=c1c2ccccc2nc(/C=C/c2cccnc2)n1Cc1ccc(Cl)cc1 (cis-trans isomerization)
O=c1c2ccccc2nc(/C=C/c2cccnc2)n1Cc1ccc(Cl)cc1 (3D coordinates assigned)
O=c1c2ccccc2nc(/C=C/c2cccnc2)n1Cc1ccc(Cl)cc1 (optimized conformer: 62.9621111436096 kcal/mol)

>  <smiles>  (17) 
O=c1c2ccccc2nc(/C=C/c2cccnc2)n1Cc1ccc(Cl)cc1

>  <score_type>  (17) 
oracle

>  <origin>  (17) 
autodockgpu

>  <m_score__min__energy>  (17) 
-7.54

>  <m_primary>  (17) 
energy

>  <meeko>  (17) 
{"free_energy": -7.23, "intermolecular_energy": -8.73, "internal_energy": -1.44, "cluster_size": 3, "cluster_id": 5, "rank_in_cluster": 1}

>  <energy>  (17) 
-7.38

>  <cluster_rmsd>  (17) 
0.07

>  <rmsd>  (17) 
271.27

>  <cluster>  (17) 
4

$$$$
AQNDWTVLZSMOQU-FMIVXFBMNA-N
     RDKit          3D

 43 46  0  0  0  0  0  0  0  0999 V2000
  143.3536   75.5647  218.1096 H   0  0  0  0  0  0  0  0  0  0  0  0
  143.4560   75.2830  219.1680 C   0  0  0  0  0  0  0  0  0  0  0  0
  142.6740   75.8930  220.0700 C   0  0  0  0  0  0  0  0  0  0  0  0
  142.8697   76.9378  220.3530 H   0  0  0  0  0  0  0  0  0  0  0  0
  141.5520   75.1600  220.6810 C   0  0  0  0  0  0  0  0  0  0  0  0
  141.7650   73.8730  221.0590 N   0  0  0  0  0  0  0  0  0  0  0  0
  140.7850   73.1190  221.6100 C   0  0  0  0  0  0  0  0  0  0  0  0
  141.0510   71.8060  222.0080 C   0  0  0  0  0  0  0  0  0  0  0  0
  142.0597   71.3869  221.8780 H   0  0  0  0  0  0  0  0  0  0  0  0
  140.0380   71.0240  222.5710 C   0  0  0  0  0  0  0  0  0  0  0  0
  140.2502   69.9902  222.8812 H   0  0  0  0  0  0  0  0  0  0  0  0
  138.7570   71.5540  222.7400 C   0  0  0  0  0  0  0  0  0  0  0  0
  137.9617   70.9381  223.1852 H   0  0  0  0  0  0  0  0  0  0  0  0
  138.4850   72.8660  222.3440 C   0  0  0  0  0  0  0  0  0  0  0  0
  137.4736   73.2790  222.4729 H   0  0  0  0  0  0  0  0  0  0  0  0
  139.5020   73.6620  221.7800 C   0  0  0  0  0  0  0  0  0  0  0  0
  139.2830   74.9920  221.3770 C   0  0  0  0  0  0  0  0  0  0  0  0
  138.1310   75.4990  221.5110 O   0  0  0  0  0  0  0  0  0  0  0  0
  140.3100   75.7370  220.8410 N   0  0  0  0  0  0  0  0  0  0  0  0
  140.0770   77.1420  220.4200 C   0  0  0  0  0  0  0  0  0  0  0  0
  140.4875   77.2862  219.4097 H   0  0  0  0  0  0  0  0  0  0  0  0
  138.9937   77.3328  220.4305 H   0  0  0  0  0  0  0  0  0  0  0  0
  140.7420   78.1150  221.3650 C   0  0  0  0  0  0  0  0  0  0  0  0
  140.8130   77.8340  222.7390 C   0  0  0  0  0  0  0  0  0  0  0  0
  140.3346   76.9267  223.1364 H   0  0  0  0  0  0  0  0  0  0  0  0
  141.4880   78.7000  223.6060 C   0  0  0  0  0  0  0  0  0  0  0  0
  141.5399   78.4719  224.6808 H   0  0  0  0  0  0  0  0  0  0  0  0
  142.0960   79.8540  223.1070 C   0  0  0  0  0  0  0  0  0  0  0  0
  142.9850   80.9130  224.1830 Cl  0  0  0  0  0  0  0  0  0  0  0  0
  142.0280   80.1430  221.7390 C   0  0  0  0  0  0  0  0  0  0  0  0
  142.5127   81.0479  221.3438 H   0  0  0  0  0  0  0  0  0  0  0  0
  141.3450   79.2830  220.8750 C   0  0  0  0  0  0  0  0  0  0  0  0
  141.2797   79.5234  219.8036 H   0  0  0  0  0  0  0  0  0  0  0  0
  144.4500   74.2490  219.5290 C   0  0  0  0  0  0  0  0  0  0  0  0
  144.9510   73.3220  218.5950 C   0  0  0  0  0  0  0  0  0  0  0  0
  144.6034   73.3527  217.5518 H   0  0  0  0  0  0  0  0  0  0  0  0
  145.8630   72.3890  218.9780 N   0  0  0  0  0  0  0  0  0  0  0  0
  146.3170   72.3160  220.2600 C   0  0  0  0  0  0  0  0  0  0  0  0
  147.0556   71.5498  220.5383 H   0  0  0  0  0  0  0  0  0  0  0  0
  145.8470   73.2110  221.2200 C   0  0  0  0  0  0  0  0  0  0  0  0
  146.2023   73.1491  222.2592 H   0  0  0  0  0  0  0  0  0  0  0  0
  144.9210   74.1860  220.8480 C   0  0  0  0  0  0  0  0  0  0  0  0
  144.5586   74.9091  221.5935 H   0  0  0  0  0  0  0  0  0  0  0  0
  1  2  1  0
  2  3  2  0
  3  4  1  0
  3  5  1  0
  5  6  2  0
  6  7  1  0
  7  8  2  0
  8  9  1  0
  8 10  1  0
 10 11  1  0
 10 12  2  0
 12 13  1  0
 12 14  1  0
 14 15  1  0
 14 16  2  0
 16 17  1  0
 17 18  2  0
 17 19  1  0
 19 20  1  0
 20 21  1  0
 20 22  1  0
 20 23  1  0
 23 24  2  0
 24 25  1  0
 24 26  1  0
 26 27  1  0
 26 28  2  0
 28 29  1  0
 28 30  1  0
 30 31  1  0
 30 32  2  0
 32 33  1  0
  2 34  1  0
 34 35  2  0
 35 36  1  0
 35 37  1  0
 37 38  2  0
 38 39  1  0
 38 40  1  0
 40 41  1  0
 40 42  2  0
 42 43  1  0
 19  5  1  0
 32 23  1  0
 42 34  1  0
 16  7  1  0
M  END
>  <UniqueID>  (18) 
22

>  <SMILES>  (18) 
O=c1c2ccccc2nc(/C=C/c2cccnc2)n1Cc1ccc(Cl)cc1

>  <Energy>  (18) 
62.9621111436096

>  <Genealogy>  (18) 
O=c1c2ccccc2nc(/C=C/c2cccnc2)n1Cc1ccc(Cl)cc1 (cis-trans isomerization)
O=c1c2ccccc2nc(/C=C/c2cccnc2)n1Cc1ccc(Cl)cc1 (3D coordinates assigned)
O=c1c2ccccc2nc(/C=C/c2cccnc2)n1Cc1ccc(Cl)cc1 (optimized conformer: 62.9621111436096 kcal/mol)

>  <smiles>  (18) 
O=c1c2ccccc2nc(/C=C/c2cccnc2)n1Cc1ccc(Cl)cc1

>  <score_type>  (18) 
oracle

>  <origin>  (18) 
autodockgpu

>  <m_score__min__energy>  (18) 
-7.54

>  <m_primary>  (18) 
energy

>  <meeko>  (18) 
{"free_energy": -7.49, "intermolecular_energy": -8.99, "internal_energy": -1.34, "cluster_size": 5, "cluster_id": 2, "rank_in_cluster": 4}

>  <energy>  (18) 
-7.23

>  <cluster_rmsd>  (18) 
0.0

>  <rmsd>  (18) 
271.22

>  <cluster>  (18) 
5

$$$$
AQNDWTVLZSMOQU-FMIVXFBMNA-N
     RDKit          3D

 43 46  0  0  0  0  0  0  0  0999 V2000
  143.3228   75.5498  218.1099 H   0  0  0  0  0  0  0  0  0  0  0  0
  143.4420   75.2660  219.1660 C   0  0  0  0  0  0  0  0  0  0  0  0
  142.6730   75.8730  220.0810 C   0  0  0  0  0  0  0  0  0  0  0  0
  142.8843   76.9107  220.3784 H   0  0  0  0  0  0  0  0  0  0  0  0
  141.5440   75.1460  220.6870 C   0  0  0  0  0  0  0  0  0  0  0  0
  141.7510   73.8610  221.0760 N   0  0  0  0  0  0  0  0  0  0  0  0
  140.7640   73.1130  221.6220 C   0  0  0  0  0  0  0  0  0  0  0  0
  141.0240   71.8020  222.0320 C   0  0  0  0  0  0  0  0  0  0  0  0
  142.0333   71.3806  221.9144 H   0  0  0  0  0  0  0  0  0  0  0  0
  140.0050   71.0250  222.5910 C   0  0  0  0  0  0  0  0  0  0  0  0
  140.2126   69.9931  222.9104 H   0  0  0  0  0  0  0  0  0  0  0  0
  138.7230   71.5590  222.7440 C   0  0  0  0  0  0  0  0  0  0  0  0
  137.9222   70.9475  223.1853 H   0  0  0  0  0  0  0  0  0  0  0  0
  138.4570   72.8690  222.3370 C   0  0  0  0  0  0  0  0  0  0  0  0
  137.4454   73.2849  222.4540 H   0  0  0  0  0  0  0  0  0  0  0  0
  139.4810   73.6590  221.7770 C   0  0  0  0  0  0  0  0  0  0  0  0
  139.2680   74.9870  221.3640 C   0  0  0  0  0  0  0  0  0  0  0  0
  138.1170   75.4970  221.4830 O   0  0  0  0  0  0  0  0  0  0  0  0
  140.3020   75.7260  220.8320 N   0  0  0  0  0  0  0  0  0  0  0  0
  140.0750   77.1290  220.4000 C   0  0  0  0  0  0  0  0  0  0  0  0
  140.4931   77.2656  219.3917 H   0  0  0  0  0  0  0  0  0  0  0  0
  138.9921   77.3220  220.4016 H   0  0  0  0  0  0  0  0  0  0  0  0
  140.7350   78.1070  221.3430 C   0  0  0  0  0  0  0  0  0  0  0  0
  140.8160   77.8240  222.7160 C   0  0  0  0  0  0  0  0  0  0  0  0
  140.3492   76.9108  223.1136 H   0  0  0  0  0  0  0  0  0  0  0  0
  141.4860   78.6950  223.5820 C   0  0  0  0  0  0  0  0  0  0  0  0
  141.5449   78.4655  224.6562 H   0  0  0  0  0  0  0  0  0  0  0  0
  142.0800   79.8560  223.0820 C   0  0  0  0  0  0  0  0  0  0  0  0
  142.9640   80.9220  224.1550 Cl  0  0  0  0  0  0  0  0  0  0  0  0
  142.0030   80.1480  221.7140 C   0  0  0  0  0  0  0  0  0  0  0  0
  142.4767   81.0585  221.3183 H   0  0  0  0  0  0  0  0  0  0  0  0
  141.3240   79.2820  220.8520 C   0  0  0  0  0  0  0  0  0  0  0  0
  141.2510   79.5234  219.7813 H   0  0  0  0  0  0  0  0  0  0  0  0
  144.4430   74.2330  219.5090 C   0  0  0  0  0  0  0  0  0  0  0  0
  144.9460   73.3230  218.5600 C   0  0  0  0  0  0  0  0  0  0  0  0
  144.5943   73.3663  217.5186 H   0  0  0  0  0  0  0  0  0  0  0  0
  145.8660   72.3900  218.9270 N   0  0  0  0  0  0  0  0  0  0  0  0
  146.3240   72.3010  220.2060 C   0  0  0  0  0  0  0  0  0  0  0  0
  147.0680   71.5353  220.4707 H   0  0  0  0  0  0  0  0  0  0  0  0
  145.8520   73.1780  221.1800 C   0  0  0  0  0  0  0  0  0  0  0  0
  146.2109   73.1027  222.2171 H   0  0  0  0  0  0  0  0  0  0  0  0
  144.9180   74.1540  220.8250 C   0  0  0  0  0  0  0  0  0  0  0  0
  144.5536   74.8640  221.5820 H   0  0  0  0  0  0  0  0  0  0  0  0
  1  2  1  0
  2  3  2  0
  3  4  1  0
  3  5  1  0
  5  6  2  0
  6  7  1  0
  7  8  2  0
  8  9  1  0
  8 10  1  0
 10 11  1  0
 10 12  2  0
 12 13  1  0
 12 14  1  0
 14 15  1  0
 14 16  2  0
 16 17  1  0
 17 18  2  0
 17 19  1  0
 19 20  1  0
 20 21  1  0
 20 22  1  0
 20 23  1  0
 23 24  2  0
 24 25  1  0
 24 26  1  0
 26 27  1  0
 26 28  2  0
 28 29  1  0
 28 30  1  0
 30 31  1  0
 30 32  2  0
 32 33  1  0
  2 34  1  0
 34 35  2  0
 35 36  1  0
 35 37  1  0
 37 38  2  0
 38 39  1  0
 38 40  1  0
 40 41  1  0
 40 42  2  0
 42 43  1  0
 19  5  1  0
 32 23  1  0
 42 34  1  0
 16  7  1  0
M  END
>  <UniqueID>  (19) 
22

>  <SMILES>  (19) 
O=c1c2ccccc2nc(/C=C/c2cccnc2)n1Cc1ccc(Cl)cc1

>  <Energy>  (19) 
62.9621111436096

>  <Genealogy>  (19) 
O=c1c2ccccc2nc(/C=C/c2cccnc2)n1Cc1ccc(Cl)cc1 (cis-trans isomerization)
O=c1c2ccccc2nc(/C=C/c2cccnc2)n1Cc1ccc(Cl)cc1 (3D coordinates assigned)
O=c1c2ccccc2nc(/C=C/c2cccnc2)n1Cc1ccc(Cl)cc1 (optimized conformer: 62.9621111436096 kcal/mol)

>  <smiles>  (19) 
O=c1c2ccccc2nc(/C=C/c2cccnc2)n1Cc1ccc(Cl)cc1

>  <score_type>  (19) 
oracle

>  <origin>  (19) 
autodockgpu

>  <m_score__min__energy>  (19) 
-7.54

>  <m_primary>  (19) 
energy

>  <meeko>  (19) 
{"free_energy": -7.51, "intermolecular_energy": -9.0, "internal_energy": -1.33, "cluster_size": 5, "cluster_id": 2, "rank_in_cluster": 3}

>  <energy>  (19) 
-7.23

>  <cluster_rmsd>  (19) 
0.38

>  <rmsd>  (19) 
271.23

>  <cluster>  (19) 
5

$$$$
AQNDWTVLZSMOQU-FMIVXFBMNA-N
     RDKit          3D

 43 46  0  0  0  0  0  0  0  0999 V2000
  135.9939   71.6330  223.8632 H   0  0  0  0  0  0  0  0  0  0  0  0
  135.8030   72.6870  223.6130 C   0  0  0  0  0  0  0  0  0  0  0  0
  136.2110   73.1440  222.4200 C   0  0  0  0  0  0  0  0  0  0  0  0
  135.6435   72.8970  221.5107 H   0  0  0  0  0  0  0  0  0  0  0  0
  137.4220   73.9780  222.3320 C   0  0  0  0  0  0  0  0  0  0  0  0
  137.2710   75.3260  222.3930 N   0  0  0  0  0  0  0  0  0  0  0  0
  138.3280   76.1670  222.2980 C   0  0  0  0  0  0  0  0  0  0  0  0
  138.1330   77.5490  222.3910 C   0  0  0  0  0  0  0  0  0  0  0  0
  137.1210   77.9512  222.5464 H   0  0  0  0  0  0  0  0  0  0  0  0
  139.2210   78.4200  222.2870 C   0  0  0  0  0  0  0  0  0  0  0  0
  139.0642   79.5065  222.3571 H   0  0  0  0  0  0  0  0  0  0  0  0
  140.5080   77.9110  222.0940 C   0  0  0  0  0  0  0  0  0  0  0  0
  141.3640   78.5974  222.0152 H   0  0  0  0  0  0  0  0  0  0  0  0
  140.7090   76.5320  222.0010 C   0  0  0  0  0  0  0  0  0  0  0  0
  141.7226   76.1352  221.8422 H   0  0  0  0  0  0  0  0  0  0  0  0
  139.6170   75.6470  222.1100 C   0  0  0  0  0  0  0  0  0  0  0  0
  139.7680   74.2500  222.0360 C   0  0  0  0  0  0  0  0  0  0  0  0
  140.9200   73.7600  221.8550 O   0  0  0  0  0  0  0  0  0  0  0  0
  138.6730   73.4230  222.1580 N   0  0  0  0  0  0  0  0  0  0  0  0
  138.8360   71.9490  222.0840 C   0  0  0  0  0  0  0  0  0  0  0  0
  137.8803   71.4976  221.7794 H   0  0  0  0  0  0  0  0  0  0  0  0
  139.6241   71.7231  221.3507 H   0  0  0  0  0  0  0  0  0  0  0  0
  139.2480   71.3750  223.4190 C   0  0  0  0  0  0  0  0  0  0  0  0
  140.3650   71.8880  224.0980 C   0  0  0  0  0  0  0  0  0  0  0  0
  140.9740   72.6755  223.6301 H   0  0  0  0  0  0  0  0  0  0  0  0
  140.7090   71.4050  225.3650 C   0  0  0  0  0  0  0  0  0  0  0  0
  141.5853   71.8131  225.8900 H   0  0  0  0  0  0  0  0  0  0  0  0
  139.9400   70.4050  225.9630 C   0  0  0  0  0  0  0  0  0  0  0  0
  140.3380   69.8350  227.5710 Cl  0  0  0  0  0  0  0  0  0  0  0  0
  138.8250   69.8860  225.2930 C   0  0  0  0  0  0  0  0  0  0  0  0
  138.2140   69.1037  225.7671 H   0  0  0  0  0  0  0  0  0  0  0  0
  138.4880   70.3610  224.0230 C   0  0  0  0  0  0  0  0  0  0  0  0
  137.6219   69.9378  223.4932 H   0  0  0  0  0  0  0  0  0  0  0  0
  135.1090   73.5320  224.6080 C   0  0  0  0  0  0  0  0  0  0  0  0
  134.2440   72.9990  225.5820 C   0  0  0  0  0  0  0  0  0  0  0  0
  134.0646   71.9144  225.6214 H   0  0  0  0  0  0  0  0  0  0  0  0
  133.6290   73.8210  226.4750 N   0  0  0  0  0  0  0  0  0  0  0  0
  133.8220   75.1690  226.4570 C   0  0  0  0  0  0  0  0  0  0  0  0
  133.3097   75.8067  227.1924 H   0  0  0  0  0  0  0  0  0  0  0  0
  134.6670   75.7420  225.5090 C   0  0  0  0  0  0  0  0  0  0  0  0
  134.8175   76.8314  225.4845 H   0  0  0  0  0  0  0  0  0  0  0  0
  135.3210   74.9180  224.5900 C   0  0  0  0  0  0  0  0  0  0  0  0
  136.0049   75.3581  223.8493 H   0  0  0  0  0  0  0  0  0  0  0  0
  1  2  1  0
  2  3  2  0
  3  4  1  0
  3  5  1  0
  5  6  2  0
  6  7  1  0
  7  8  2  0
  8  9  1  0
  8 10  1  0
 10 11  1  0
 10 12  2  0
 12 13  1  0
 12 14  1  0
 14 15  1  0
 14 16  2  0
 16 17  1  0
 17 18  2  0
 17 19  1  0
 19 20  1  0
 20 21  1  0
 20 22  1  0
 20 23  1  0
 23 24  2  0
 24 25  1  0
 24 26  1  0
 26 27  1  0
 26 28  2  0
 28 29  1  0
 28 30  1  0
 30 31  1  0
 30 32  2  0
 32 33  1  0
  2 34  1  0
 34 35  2  0
 35 36  1  0
 35 37  1  0
 37 38  2  0
 38 39  1  0
 38 40  1  0
 40 41  1  0
 40 42  2  0
 42 43  1  0
 19  5  1  0
 32 23  1  0
 42 34  1  0
 16  7  1  0
M  END
>  <UniqueID>  (20) 
22

>  <SMILES>  (20) 
O=c1c2ccccc2nc(/C=C/c2cccnc2)n1Cc1ccc(Cl)cc1

>  <Energy>  (20) 
62.9621111436096

>  <Genealogy>  (20) 
O=c1c2ccccc2nc(/C=C/c2cccnc2)n1Cc1ccc(Cl)cc1 (cis-trans isomerization)
O=c1c2ccccc2nc(/C=C/c2cccnc2)n1Cc1ccc(Cl)cc1 (3D coordinates assigned)
O=c1c2ccccc2nc(/C=C/c2cccnc2)n1Cc1ccc(Cl)cc1 (optimized conformer: 62.9621111436096 kcal/mol)

>  <smiles>  (20) 
O=c1c2ccccc2nc(/C=C/c2cccnc2)n1Cc1ccc(Cl)cc1

>  <score_type>  (20) 
oracle

>  <origin>  (20) 
autodockgpu

>  <m_score__min__energy>  (20) 
-7.54

>  <m_primary>  (20) 
energy

>  <meeko>  (20) 
{"free_energy": -7.38, "intermolecular_energy": -8.87, "internal_energy": -1.37, "cluster_size": 6, "cluster_id": 4, "rank_in_cluster": 6}

>  <energy>  (20) 
-7.22

>  <cluster_rmsd>  (20) 
0.36

>  <rmsd>  (20) 
271.24

>  <cluster>  (20) 
5

$$$$
