PMUWBFKMLGLUTF-QDRFXLRBNA-N
     RDKit          3D

 63 66  0  0  0  0  0  0  0  0999 V2000
  143.0540   82.0530  217.2590 C   0  0  0  0  0  0  0  0  0  0  0  0
  142.2370   82.4960  218.3380 O   0  0  0  0  0  0  0  0  0  0  0  0
  141.8350   81.6870  219.4120 C   0  0  0  0  0  0  0  0  0  0  0  0
  141.2800   82.2160  220.5870 C   0  0  0  0  0  0  0  0  0  0  0  0
  140.9000   81.3700  221.6300 C   0  0  0  0  0  0  0  0  0  0  0  0
  141.0660   79.9750  221.5290 C   0  0  0  0  0  0  0  0  0  0  0  0
  140.6240   79.1070  222.6980 C   0  0  2  0  0  0  0  0  0  0  0  0
  141.8070   78.6250  223.5470 C   0  0  0  0  0  0  0  0  0  0  0  0
  139.8050   77.9830  222.2310 N   0  0  0  0  0  0  0  0  0  0  0  0
  138.4820   78.1970  221.7120 C   0  0  0  0  0  0  0  0  0  0  0  0
  138.0550   79.3710  221.5450 O   0  0  0  0  0  0  0  0  0  0  0  0
  137.5490   77.0430  221.4490 C   0  0  2  0  0  0  0  0  0  0  0  0
  136.0930   77.4360  221.7180 C   0  0  0  0  0  0  0  0  0  0  0  0
  135.7170   76.7500  223.0360 C   0  0  1  0  0  0  0  0  0  0  0  0
  134.3780   76.3190  223.0530 O   0  0  0  0  0  0  0  0  0  0  0  0
  136.7040   75.5940  223.2000 C   0  0  0  0  0  0  0  0  0  0  0  0
  137.8230   75.9130  222.3300 N   0  0  0  0  0  0  0  0  0  0  0  0
  138.8890   74.9760  222.1010 C   0  0  0  0  0  0  0  0  0  0  0  0
  140.0850   75.3730  222.1180 O   0  0  0  0  0  0  0  0  0  0  0  0
  138.6000   73.5390  221.7820 C   0  0  0  0  0  0  0  0  0  0  0  0
  139.2760   72.6320  222.7050 N   0  0  0  0  0  0  0  0  0  0  0  0
  139.0600   71.2160  222.6220 C   0  0  0  0  0  0  0  0  0  0  0  0
  138.6030   70.7170  221.5570 O   0  0  0  0  0  0  0  0  0  0  0  0
  139.3460   70.3460  223.7790 C   0  0  0  0  0  0  0  0  0  0  0  0
  138.9700   68.9900  223.7780 C   0  0  0  0  0  0  0  0  0  0  0  0
  139.2130   68.2030  224.9050 C   0  0  0  0  0  0  0  0  0  0  0  0
  139.8320   68.7660  226.0270 C   0  0  0  0  0  0  0  0  0  0  0  0
  140.0880   68.0070  227.1790 C   0  0  0  0  0  0  0  0  0  0  0  0
  140.7050   68.6020  228.2860 C   0  0  0  0  0  0  0  0  0  0  0  0
  140.9530   67.8670  229.3980 F   0  0  0  0  0  0  0  0  0  0  0  0
  141.0690   69.9530  228.2470 C   0  0  0  0  0  0  0  0  0  0  0  0
  140.8170   70.7180  227.1030 C   0  0  0  0  0  0  0  0  0  0  0  0
  140.2020   70.1300  225.9920 C   0  0  0  0  0  0  0  0  0  0  0  0
  139.9520   70.8710  224.8800 N   0  0  0  0  0  0  0  0  0  0  0  0
  141.6200   79.4430  220.3370 C   0  0  0  0  0  0  0  0  0  0  0  0
  141.8620   77.7170  220.0810 Cl  0  0  0  0  0  0  0  0  0  0  0  0
  141.9950   80.3040  219.2970 C   0  0  0  0  0  0  0  0  0  0  0  0
  143.9551   81.5644  217.6580 H   0  0  0  0  0  0  0  0  0  0  0  0
  142.4909   81.3367  216.6428 H   0  0  0  0  0  0  0  0  0  0  0  0
  143.3471   82.9158  216.6428 H   0  0  0  0  0  0  0  0  0  0  0  0
  141.1437   83.3030  220.6867 H   0  0  0  0  0  0  0  0  0  0  0  0
  140.4644   81.7991  222.5444 H   0  0  0  0  0  0  0  0  0  0  0  0
  140.0039   79.7351  223.3545 H   0  0  0  0  0  0  0  0  0  0  0  0
  141.5582   78.7264  224.6137 H   0  0  0  0  0  0  0  0  0  0  0  0
  142.0167   77.5697  223.3181 H   0  0  0  0  0  0  0  0  0  0  0  0
  142.6945   79.2332  223.3181 H   0  0  0  0  0  0  0  0  0  0  0  0
  140.1540   77.0040  222.3450 H   0  0  0  0  0  0  0  0  0  0  0  0
  137.7075   76.7695  220.3954 H   0  0  0  0  0  0  0  0  0  0  0  0
  136.0016   78.5280  221.8139 H   0  0  0  0  0  0  0  0  0  0  0  0
  135.4301   77.1284  220.8958 H   0  0  0  0  0  0  0  0  0  0  0  0
  135.7865   77.4513  223.8806 H   0  0  0  0  0  0  0  0  0  0  0  0
  133.9090   76.8050  223.7810 H   0  0  0  0  0  0  0  0  0  0  0  0
  137.0387   75.5195  224.2452 H   0  0  0  0  0  0  0  0  0  0  0  0
  136.2475   74.6275  222.9402 H   0  0  0  0  0  0  0  0  0  0  0  0
  137.5150   73.3709  221.8483 H   0  0  0  0  0  0  0  0  0  0  0  0
  138.9708   73.3329  220.7671 H   0  0  0  0  0  0  0  0  0  0  0  0
  139.8820   73.0140  223.4660 H   0  0  0  0  0  0  0  0  0  0  0  0
  138.4864   68.5518  222.8925 H   0  0  0  0  0  0  0  0  0  0  0  0
  138.9188   67.1431  224.9113 H   0  0  0  0  0  0  0  0  0  0  0  0
  139.8040   66.9448  227.2124 H   0  0  0  0  0  0  0  0  0  0  0  0
  141.5550   70.4150  229.1190 H   0  0  0  0  0  0  0  0  0  0  0  0
  141.1019   71.7801  227.0769 H   0  0  0  0  0  0  0  0  0  0  0  0
  142.4225   79.8839  218.3746 H   0  0  0  0  0  0  0  0  0  0  0  0
  1  2  1  0
  2  3  1  0
  3  4  2  0
  4  5  1  0
  5  6  2  0
  6  7  1  0
  7  8  1  0
  7  9  1  0
  9 10  1  0
 10 11  2  0
 10 12  1  0
 12 13  1  0
 13 14  1  0
 14 15  1  0
 14 16  1  0
 16 17  1  0
 17 18  1  0
 18 19  2  0
 18 20  1  0
 20 21  1  0
 21 22  1  0
 22 23  2  0
 22 24  1  0
 24 25  2  0
 25 26  1  0
 26 27  2  0
 27 28  1  0
 28 29  2  0
 29 30  1  0
 29 31  1  0
 31 32  2  0
 32 33  1  0
 33 34  2  0
  6 35  1  0
 35 36  1  0
 35 37  2  0
 37  3  1  0
 17 12  1  0
 34 24  1  0
 33 27  1  0
  1 38  1  0
  1 39  1  0
  1 40  1  0
  4 41  1  0
  5 42  1  0
  7 43  1  1
  8 44  1  0
  8 45  1  0
  8 46  1  0
  9 47  1  0
 12 48  1  6
 13 49  1  0
 13 50  1  0
 14 51  1  1
 15 52  1  0
 16 53  1  0
 16 54  1  0
 20 55  1  0
 20 56  1  0
 21 57  1  0
 25 58  1  0
 26 59  1  0
 28 60  1  0
 31 61  1  0
 32 62  1  0
 37 63  1  0
M  END
>  <UniqueID>  (1) 
1

>  <SMILES>  (1) 
COc1ccc([C@H](C)NC(=O)[C@@H]2C[C@@H](O)CN2C(=O)CNC(=O)c2ccc3cc(F)ccc3n2)c(Cl)c1

>  <Energy>  (1) 
62.67687487480324

>  <Genealogy>  (1) 
COc1ccc([C@H](C)NC(=O)[C@@H]2C[C@@H](O)CN2C(=O)CNC(=O)c2ccc3cc(F)ccc3n2)c(Cl)c1 (3D coordinates assigned)
COc1ccc([C@H](C)NC(=O)[C@@H]2C[C@@H](O)CN2C(=O)CNC(=O)c2ccc3cc(F)ccc3n2)c(Cl)c1 (nonaromatic ring conformer: 62.67687487480324 kcal/mol)

>  <smiles>  (1) 
COc1ccc([C@H](C)NC(=O)[C@@H]2C[C@@H](O)CN2C(=O)CNC(=O)c2ccc3cc(F)ccc3n2)c(Cl)c1

>  <score_type>  (1) 
oracle

>  <origin>  (1) 
autodockgpu

>  <m_score__min__energy>  (1) 
-9.4800000000000004

>  <m_primary>  (1) 
energy

>  <meeko>  (1) 
{"free_energy": -7.73, "intermolecular_energy": -10.41, "internal_energy": -2.74, "cluster_size": 2, "cluster_id": 4, "rank_in_cluster": 2}

>  <energy>  (1) 
-9.48

>  <cluster_rmsd>  (1) 
0.0

>  <rmsd>  (1) 
271.68

>  <cluster>  (1) 
1

$$$$
PMUWBFKMLGLUTF-QDRFXLRBNA-N
     RDKit          3D

 63 66  0  0  0  0  0  0  0  0999 V2000
  138.8800   81.8110  220.6500 C   0  0  0  0  0  0  0  0  0  0  0  0
  140.2640   81.6250  220.3770 O   0  0  0  0  0  0  0  0  0  0  0  0
  140.7960   80.5200  219.6950 C   0  0  0  0  0  0  0  0  0  0  0  0
  142.0920   80.5190  219.1550 C   0  0  0  0  0  0  0  0  0  0  0  0
  142.5730   79.3980  218.4800 C   0  0  0  0  0  0  0  0  0  0  0  0
  141.7760   78.2480  218.3220 C   0  0  0  0  0  0  0  0  0  0  0  0
  142.3630   77.0550  217.5820 C   0  0  2  0  0  0  0  0  0  0  0  0
  141.6350   76.7700  216.2620 C   0  0  0  0  0  0  0  0  0  0  0  0
  142.3930   75.8700  218.4460 N   0  0  0  0  0  0  0  0  0  0  0  0
  143.3260   75.7700  219.5340 C   0  0  0  0  0  0  0  0  0  0  0  0
  144.0550   76.7550  219.8290 O   0  0  0  0  0  0  0  0  0  0  0  0
  143.5250   74.4750  220.2780 C   0  0  2  0  0  0  0  0  0  0  0  0
  145.0140   74.1720  220.4750 C   0  0  0  0  0  0  0  0  0  0  0  0
  145.3390   73.0430  219.4920 C   0  0  1  0  0  0  0  0  0  0  0  0
  146.2870   72.1390  220.0070 O   0  0  0  0  0  0  0  0  0  0  0  0
  144.0050   72.3700  219.1730 C   0  0  0  0  0  0  0  0  0  0  0  0
  142.9850   73.3380  219.5400 N   0  0  0  0  0  0  0  0  0  0  0  0
  141.5870   73.0010  219.5240 C   0  0  0  0  0  0  0  0  0  0  0  0
  140.9520   73.0210  218.4360 O   0  0  0  0  0  0  0  0  0  0  0  0
  140.8540   72.6830  220.7930 C   0  0  0  0  0  0  0  0  0  0  0  0
  140.7510   73.8480  221.6680 N   0  0  0  0  0  0  0  0  0  0  0  0
  139.6490   74.7570  221.5400 C   0  0  0  0  0  0  0  0  0  0  0  0
  138.5940   74.3800  220.9590 O   0  0  0  0  0  0  0  0  0  0  0  0
  139.7480   76.1330  222.0640 C   0  0  0  0  0  0  0  0  0  0  0  0
  138.6310   76.7800  222.6220 C   0  0  0  0  0  0  0  0  0  0  0  0
  138.7440   78.0980  223.0660 C   0  0  0  0  0  0  0  0  0  0  0  0
  139.9690   78.7670  222.9580 C   0  0  0  0  0  0  0  0  0  0  0  0
  140.1190   80.0930  223.3900 C   0  0  0  0  0  0  0  0  0  0  0  0
  141.3560   80.7340  223.2630 C   0  0  0  0  0  0  0  0  0  0  0  0
  141.5000   82.0160  223.6820 F   0  0  0  0  0  0  0  0  0  0  0  0
  142.4480   80.0560  222.7070 C   0  0  0  0  0  0  0  0  0  0  0  0
  142.3060   78.7330  222.2730 C   0  0  0  0  0  0  0  0  0  0  0  0
  141.0730   78.0850  222.3980 C   0  0  0  0  0  0  0  0  0  0  0  0
  140.9320   76.8020  221.9730 N   0  0  0  0  0  0  0  0  0  0  0  0
  140.4710   78.2490  218.8750 C   0  0  0  0  0  0  0  0  0  0  0  0
  139.3820   76.8670  218.7620 Cl  0  0  0  0  0  0  0  0  0  0  0  0
  140.0000   79.3810  219.5530 C   0  0  0  0  0  0  0  0  0  0  0  0
  138.7206   81.8324  221.7382 H   0  0  0  0  0  0  0  0  0  0  0  0
  138.5444   82.7623  220.2114 H   0  0  0  0  0  0  0  0  0  0  0  0
  138.3051   80.9820  220.2114 H   0  0  0  0  0  0  0  0  0  0  0  0
  142.7312   81.4074  219.2651 H   0  0  0  0  0  0  0  0  0  0  0  0
  143.5913   79.4121  218.0642 H   0  0  0  0  0  0  0  0  0  0  0  0
  143.3988   77.3135  217.3169 H   0  0  0  0  0  0  0  0  0  0  0  0
  140.6301   76.3766  216.4750 H   0  0  0  0  0  0  0  0  0  0  0  0
  141.5490   77.7009  215.6823 H   0  0  0  0  0  0  0  0  0  0  0  0
  142.2039   76.0282  215.6823 H   0  0  0  0  0  0  0  0  0  0  0  0
  141.7790   75.0520  218.2260 H   0  0  0  0  0  0  0  0  0  0  0  0
  143.0066   74.6047  221.2395 H   0  0  0  0  0  0  0  0  0  0  0  0
  145.6198   75.0624  220.2509 H   0  0  0  0  0  0  0  0  0  0  0  0
  145.2366   73.8841  221.5131 H   0  0  0  0  0  0  0  0  0  0  0  0
  145.8094   73.4380  218.5795 H   0  0  0  0  0  0  0  0  0  0  0  0
  145.9870   71.8660  220.9140 H   0  0  0  0  0  0  0  0  0  0  0  0
  143.9411   72.1317  218.1010 H   0  0  0  0  0  0  0  0  0  0  0  0
  143.8845   71.4228  219.7192 H   0  0  0  0  0  0  0  0  0  0  0  0
  139.8408   72.3363  220.5414 H   0  0  0  0  0  0  0  0  0  0  0  0
  141.4180   71.9040  221.3269 H   0  0  0  0  0  0  0  0  0  0  0  0
  141.5090   74.0550  222.3570 H   0  0  0  0  0  0  0  0  0  0  0  0
  137.6716   76.2489  222.7081 H   0  0  0  0  0  0  0  0  0  0  0  0
  137.8726   78.6102  223.4999 H   0  0  0  0  0  0  0  0  0  0  0  0
  139.2642   80.6288  223.8285 H   0  0  0  0  0  0  0  0  0  0  0  0
  143.4189   80.5641  222.6112 H   0  0  0  0  0  0  0  0  0  0  0  0
  143.1640   78.2030  221.8337 H   0  0  0  0  0  0  0  0  0  0  0  0
  138.9865   79.3727  219.9806 H   0  0  0  0  0  0  0  0  0  0  0  0
  1  2  1  0
  2  3  1  0
  3  4  2  0
  4  5  1  0
  5  6  2  0
  6  7  1  0
  7  8  1  0
  7  9  1  0
  9 10  1  0
 10 11  2  0
 10 12  1  0
 12 13  1  0
 13 14  1  0
 14 15  1  0
 14 16  1  0
 16 17  1  0
 17 18  1  0
 18 19  2  0
 18 20  1  0
 20 21  1  0
 21 22  1  0
 22 23  2  0
 22 24  1  0
 24 25  2  0
 25 26  1  0
 26 27  2  0
 27 28  1  0
 28 29  2  0
 29 30  1  0
 29 31  1  0
 31 32  2  0
 32 33  1  0
 33 34  2  0
  6 35  1  0
 35 36  1  0
 35 37  2  0
 37  3  1  0
 17 12  1  0
 34 24  1  0
 33 27  1  0
  1 38  1  0
  1 39  1  0
  1 40  1  0
  4 41  1  0
  5 42  1  0
  7 43  1  6
  8 44  1  0
  8 45  1  0
  8 46  1  0
  9 47  1  0
 12 48  1  1
 13 49  1  0
 13 50  1  0
 14 51  1  6
 15 52  1  0
 16 53  1  0
 16 54  1  0
 20 55  1  0
 20 56  1  0
 21 57  1  0
 25 58  1  0
 26 59  1  0
 28 60  1  0
 31 61  1  0
 32 62  1  0
 37 63  1  0
M  END
>  <UniqueID>  (2) 
1

>  <SMILES>  (2) 
COc1ccc([C@H](C)NC(=O)[C@@H]2C[C@@H](O)CN2C(=O)CNC(=O)c2ccc3cc(F)ccc3n2)c(Cl)c1

>  <Energy>  (2) 
62.67687487480324

>  <Genealogy>  (2) 
COc1ccc([C@H](C)NC(=O)[C@@H]2C[C@@H](O)CN2C(=O)CNC(=O)c2ccc3cc(F)ccc3n2)c(Cl)c1 (3D coordinates assigned)
COc1ccc([C@H](C)NC(=O)[C@@H]2C[C@@H](O)CN2C(=O)CNC(=O)c2ccc3cc(F)ccc3n2)c(Cl)c1 (nonaromatic ring conformer: 62.67687487480324 kcal/mol)

>  <smiles>  (2) 
COc1ccc([C@H](C)NC(=O)[C@@H]2C[C@@H](O)CN2C(=O)CNC(=O)c2ccc3cc(F)ccc3n2)c(Cl)c1

>  <score_type>  (2) 
oracle

>  <origin>  (2) 
autodockgpu

>  <m_score__min__energy>  (2) 
-9.4800000000000004

>  <m_primary>  (2) 
energy

>  <meeko>  (2) 
{"free_energy": -5.96, "intermolecular_energy": -8.65, "internal_energy": -5.02, "cluster_size": 10, "cluster_id": 7, "rank_in_cluster": 2}

>  <energy>  (2) 
-9.03

>  <cluster_rmsd>  (2) 
0.8

>  <rmsd>  (2) 
271.81

>  <cluster>  (2) 
1

$$$$
PMUWBFKMLGLUTF-QDRFXLRBNA-N
     RDKit          3D

 63 66  0  0  0  0  0  0  0  0999 V2000
  132.9570   75.3380  226.8620 C   0  0  0  0  0  0  0  0  0  0  0  0
  133.8940   74.3280  226.5040 O   0  0  0  0  0  0  0  0  0  0  0  0
  134.6520   74.3330  225.3230 C   0  0  0  0  0  0  0  0  0  0  0  0
  135.0370   73.1530  224.6690 C   0  0  0  0  0  0  0  0  0  0  0  0
  135.7970   73.2110  223.5000 C   0  0  0  0  0  0  0  0  0  0  0  0
  136.1950   74.4460  222.9540 C   0  0  0  0  0  0  0  0  0  0  0  0
  137.0150   74.4400  221.6720 C   0  0  2  0  0  0  0  0  0  0  0  0
  136.8210   73.1530  220.8610 C   0  0  0  0  0  0  0  0  0  0  0  0
  138.4330   74.6860  221.9600 N   0  0  0  0  0  0  0  0  0  0  0  0
  139.3810   74.8800  220.8980 C   0  0  0  0  0  0  0  0  0  0  0  0
  138.9810   74.9570  219.7050 O   0  0  0  0  0  0  0  0  0  0  0  0
  140.8630   74.9000  221.1670 C   0  0  2  0  0  0  0  0  0  0  0  0
  141.4730   76.2600  220.8110 C   0  0  0  0  0  0  0  0  0  0  0  0
  142.2490   76.0360  219.5090 C   0  0  1  0  0  0  0  0  0  0  0  0
  143.4250   76.8060  219.4470 O   0  0  0  0  0  0  0  0  0  0  0  0
  142.5300   74.5350  219.4440 C   0  0  0  0  0  0  0  0  0  0  0  0
  141.5750   73.9220  220.3510 N   0  0  0  0  0  0  0  0  0  0  0  0
  141.6340   72.5220  220.6720 C   0  0  0  0  0  0  0  0  0  0  0  0
  142.7510   71.9750  220.8790 O   0  0  0  0  0  0  0  0  0  0  0  0
  140.3910   71.6820  220.7060 C   0  0  0  0  0  0  0  0  0  0  0  0
  140.1680   71.0980  222.0260 N   0  0  0  0  0  0  0  0  0  0  0  0
  140.1670   71.9250  223.1970 C   0  0  0  0  0  0  0  0  0  0  0  0
  139.9840   73.1690  223.0820 O   0  0  0  0  0  0  0  0  0  0  0  0
  140.3990   71.3370  224.5300 C   0  0  0  0  0  0  0  0  0  0  0  0
  140.7430   72.1440  225.6300 C   0  0  0  0  0  0  0  0  0  0  0  0
  141.0020   71.5530  226.8680 C   0  0  0  0  0  0  0  0  0  0  0  0
  140.9140   70.1640  227.0090 C   0  0  0  0  0  0  0  0  0  0  0  0
  141.1720   69.5350  228.2360 C   0  0  0  0  0  0  0  0  0  0  0  0
  141.0790   68.1430  228.3420 C   0  0  0  0  0  0  0  0  0  0  0  0
  141.3270   67.5370  229.5300 F   0  0  0  0  0  0  0  0  0  0  0  0
  140.7290   67.3730  227.2260 C   0  0  0  0  0  0  0  0  0  0  0  0
  140.4710   67.9920  225.9980 C   0  0  0  0  0  0  0  0  0  0  0  0
  140.5600   69.3840  225.8840 C   0  0  0  0  0  0  0  0  0  0  0  0
  140.3140   69.9870  224.6920 N   0  0  0  0  0  0  0  0  0  0  0  0
  135.7980   75.6370  223.6120 C   0  0  0  0  0  0  0  0  0  0  0  0
  136.2150   77.2430  223.0210 Cl  0  0  0  0  0  0  0  0  0  0  0  0
  135.0330   75.5650  224.7840 C   0  0  0  0  0  0  0  0  0  0  0  0
  132.8930   75.4069  227.9580 H   0  0  0  0  0  0  0  0  0  0  0  0
  133.2854   76.3046  226.4523 H   0  0  0  0  0  0  0  0  0  0  0  0
  131.9685   75.0829  226.4523 H   0  0  0  0  0  0  0  0  0  0  0  0
  134.7383   72.1772  225.0797 H   0  0  0  0  0  0  0  0  0  0  0  0
  136.0896   72.2773  222.9974 H   0  0  0  0  0  0  0  0  0  0  0  0
  136.6442   75.2631  221.0435 H   0  0  0  0  0  0  0  0  0  0  0  0
  136.6929   72.3029  221.5473 H   0  0  0  0  0  0  0  0  0  0  0  0
  135.9274   73.2503  220.2270 H   0  0  0  0  0  0  0  0  0  0  0  0
  137.7036   72.9826  220.2270 H   0  0  0  0  0  0  0  0  0  0  0  0
  138.7760   74.6450  222.9460 H   0  0  0  0  0  0  0  0  0  0  0  0
  140.9711   74.6748  222.2383 H   0  0  0  0  0  0  0  0  0  0  0  0
  140.6811   77.0088  220.6619 H   0  0  0  0  0  0  0  0  0  0  0  0
  142.1247   76.6361  221.6134 H   0  0  0  0  0  0  0  0  0  0  0  0
  141.6633   76.3653  218.6381 H   0  0  0  0  0  0  0  0  0  0  0  0
  143.5430   77.2570  220.3240 H   0  0  0  0  0  0  0  0  0  0  0  0
  142.3831   74.1603  218.4203 H   0  0  0  0  0  0  0  0  0  0  0  0
  143.5676   74.3014  219.7248 H   0  0  0  0  0  0  0  0  0  0  0  0
  139.5280   72.3121  220.4448 H   0  0  0  0  0  0  0  0  0  0  0  0
  140.5131   70.8607  219.9845 H   0  0  0  0  0  0  0  0  0  0  0  0
  140.0590   70.0630  222.1280 H   0  0  0  0  0  0  0  0  0  0  0  0
  140.8076   73.2361  225.5150 H   0  0  0  0  0  0  0  0  0  0  0  0
  141.2747   72.1783  227.7309 H   0  0  0  0  0  0  0  0  0  0  0  0
  141.4475   70.1363  229.1150 H   0  0  0  0  0  0  0  0  0  0  0  0
  140.6567   66.2790  227.3150 H   0  0  0  0  0  0  0  0  0  0  0  0
  140.1983   67.3847  225.1224 H   0  0  0  0  0  0  0  0  0  0  0  0
  134.7273   76.4936  225.2882 H   0  0  0  0  0  0  0  0  0  0  0  0
  1  2  1  0
  2  3  1  0
  3  4  2  0
  4  5  1  0
  5  6  2  0
  6  7  1  0
  7  8  1  0
  7  9  1  0
  9 10  1  0
 10 11  2  0
 10 12  1  0
 12 13  1  0
 13 14  1  0
 14 15  1  0
 14 16  1  0
 16 17  1  0
 17 18  1  0
 18 19  2  0
 18 20  1  0
 20 21  1  0
 21 22  1  0
 22 23  2  0
 22 24  1  0
 24 25  2  0
 25 26  1  0
 26 27  2  0
 27 28  1  0
 28 29  2  0
 29 30  1  0
 29 31  1  0
 31 32  2  0
 32 33  1  0
 33 34  2  0
  6 35  1  0
 35 36  1  0
 35 37  2  0
 37  3  1  0
 17 12  1  0
 34 24  1  0
 33 27  1  0
  1 38  1  0
  1 39  1  0
  1 40  1  0
  4 41  1  0
  5 42  1  0
  7 43  1  6
  8 44  1  0
  8 45  1  0
  8 46  1  0
  9 47  1  0
 12 48  1  1
 13 49  1  0
 13 50  1  0
 14 51  1  6
 15 52  1  0
 16 53  1  0
 16 54  1  0
 20 55  1  0
 20 56  1  0
 21 57  1  0
 25 58  1  0
 26 59  1  0
 28 60  1  0
 31 61  1  0
 32 62  1  0
 37 63  1  0
M  END
>  <UniqueID>  (3) 
1

>  <SMILES>  (3) 
COc1ccc([C@H](C)NC(=O)[C@@H]2C[C@@H](O)CN2C(=O)CNC(=O)c2ccc3cc(F)ccc3n2)c(Cl)c1

>  <Energy>  (3) 
62.67687487480324

>  <Genealogy>  (3) 
COc1ccc([C@H](C)NC(=O)[C@@H]2C[C@@H](O)CN2C(=O)CNC(=O)c2ccc3cc(F)ccc3n2)c(Cl)c1 (3D coordinates assigned)
COc1ccc([C@H](C)NC(=O)[C@@H]2C[C@@H](O)CN2C(=O)CNC(=O)c2ccc3cc(F)ccc3n2)c(Cl)c1 (nonaromatic ring conformer: 62.67687487480324 kcal/mol)

>  <smiles>  (3) 
COc1ccc([C@H](C)NC(=O)[C@@H]2C[C@@H](O)CN2C(=O)CNC(=O)c2ccc3cc(F)ccc3n2)c(Cl)c1

>  <score_type>  (3) 
oracle

>  <origin>  (3) 
autodockgpu

>  <m_score__min__energy>  (3) 
-9.4800000000000004

>  <m_primary>  (3) 
energy

>  <meeko>  (3) 
{"free_energy": -8.36, "intermolecular_energy": -11.05, "internal_energy": -2.83, "cluster_size": 3, "cluster_id": 1, "rank_in_cluster": 3}

>  <energy>  (3) 
-8.36

>  <cluster_rmsd>  (3) 
1.95

>  <rmsd>  (3) 
271.5

>  <cluster>  (3) 
1

$$$$
PMUWBFKMLGLUTF-QDRFXLRBNA-N
     RDKit          3D

 63 66  0  0  0  0  0  0  0  0999 V2000
  146.6740   69.1660  216.6580 C   0  0  0  0  0  0  0  0  0  0  0  0
  146.7080   69.7060  217.9750 O   0  0  0  0  0  0  0  0  0  0  0  0
  145.5880   70.2090  218.6540 C   0  0  0  0  0  0  0  0  0  0  0  0
  144.3630   69.5260  218.6960 C   0  0  0  0  0  0  0  0  0  0  0  0
  143.2760   70.0710  219.3810 C   0  0  0  0  0  0  0  0  0  0  0  0
  143.3810   71.3120  220.0390 C   0  0  0  0  0  0  0  0  0  0  0  0
  142.1610   71.8470  220.7750 C   0  0  2  0  0  0  0  0  0  0  0  0
  140.9930   70.8520  220.7680 C   0  0  0  0  0  0  0  0  0  0  0  0
  141.7590   73.1510  220.2370 N   0  0  0  0  0  0  0  0  0  0  0  0
  141.1330   74.1360  221.0750 C   0  0  0  0  0  0  0  0  0  0  0  0
  141.0280   73.9320  222.3140 O   0  0  0  0  0  0  0  0  0  0  0  0
  140.5090   75.3780  220.4910 C   0  0  2  0  0  0  0  0  0  0  0  0
  141.5750   76.4240  220.1470 C   0  0  0  0  0  0  0  0  0  0  0  0
  141.4490   77.5080  221.2230 C   0  0  1  0  0  0  0  0  0  0  0  0
  141.6950   78.7970  220.7160 O   0  0  0  0  0  0  0  0  0  0  0  0
  140.0390   77.3660  221.7960 C   0  0  0  0  0  0  0  0  0  0  0  0
  139.6070   76.0260  221.4360 N   0  0  0  0  0  0  0  0  0  0  0  0
  138.2610   75.5800  221.6750 C   0  0  0  0  0  0  0  0  0  0  0  0
  137.4030   76.3920  222.1130 O   0  0  0  0  0  0  0  0  0  0  0  0
  137.8740   74.1460  221.4670 C   0  0  0  0  0  0  0  0  0  0  0  0
  138.6170   73.2500  222.3490 N   0  0  0  0  0  0  0  0  0  0  0  0
  138.3850   71.8360  222.3120 C   0  0  0  0  0  0  0  0  0  0  0  0
  137.8390   71.3200  221.2970 O   0  0  0  0  0  0  0  0  0  0  0  0
  138.7590   70.9840  223.4570 C   0  0  0  0  0  0  0  0  0  0  0  0
  138.2680   69.6720  223.5770 C   0  0  0  0  0  0  0  0  0  0  0  0
  138.6020   68.9060  224.6960 C   0  0  0  0  0  0  0  0  0  0  0  0
  139.4260   69.4480  225.6900 C   0  0  0  0  0  0  0  0  0  0  0  0
  139.7780   68.7110  226.8300 C   0  0  0  0  0  0  0  0  0  0  0  0
  140.6000   69.2850  227.8060 C   0  0  0  0  0  0  0  0  0  0  0  0
  140.9420   68.5700  228.9080 F   0  0  0  0  0  0  0  0  0  0  0  0
  141.0740   70.5930  227.6500 C   0  0  0  0  0  0  0  0  0  0  0  0
  140.7260   71.3350  226.5160 C   0  0  0  0  0  0  0  0  0  0  0  0
  139.9060   70.7690  225.5340 C   0  0  0  0  0  0  0  0  0  0  0  0
  139.5630   71.4890  224.4340 N   0  0  0  0  0  0  0  0  0  0  0  0
  144.6220   71.9950  220.0020 C   0  0  0  0  0  0  0  0  0  0  0  0
  144.8880   73.5440  220.8000 Cl  0  0  0  0  0  0  0  0  0  0  0  0
  145.7070   71.4360  219.3130 C   0  0  0  0  0  0  0  0  0  0  0  0
  146.6050   68.0695  216.7130 H   0  0  0  0  0  0  0  0  0  0  0  0
  145.7990   69.5621  216.1218 H   0  0  0  0  0  0  0  0  0  0  0  0
  147.5917   69.4492  216.1218 H   0  0  0  0  0  0  0  0  0  0  0  0
  144.2589   68.5566  218.1867 H   0  0  0  0  0  0  0  0  0  0  0  0
  142.3226   69.5230  219.4074 H   0  0  0  0  0  0  0  0  0  0  0  0
  142.4488   71.9837  221.8278 H   0  0  0  0  0  0  0  0  0  0  0  0
  140.7103   70.6112  221.8034 H   0  0  0  0  0  0  0  0  0  0  0  0
  140.1332   71.2994  220.2478 H   0  0  0  0  0  0  0  0  0  0  0  0
  141.2981   69.9321  220.2478 H   0  0  0  0  0  0  0  0  0  0  0  0
  141.8590   73.3430  219.2140 H   0  0  0  0  0  0  0  0  0  0  0  0
  139.9664   75.0430  219.5947 H   0  0  0  0  0  0  0  0  0  0  0  0
  142.5780   75.9729  220.1716 H   0  0  0  0  0  0  0  0  0  0  0  0
  141.4323   76.8343  219.1364 H   0  0  0  0  0  0  0  0  0  0  0  0
  142.2083   77.3756  222.0078 H   0  0  0  0  0  0  0  0  0  0  0  0
  142.6540   79.0080  220.8680 H   0  0  0  0  0  0  0  0  0  0  0  0
  140.0547   77.4841  222.8895 H   0  0  0  0  0  0  0  0  0  0  0  0
  139.3584   78.1343  221.4005 H   0  0  0  0  0  0  0  0  0  0  0  0
  136.7987   74.0344  221.6701 H   0  0  0  0  0  0  0  0  0  0  0  0
  138.1103   73.8756  220.4273 H   0  0  0  0  0  0  0  0  0  0  0  0
  139.2860   73.6420  223.0510 H   0  0  0  0  0  0  0  0  0  0  0  0
  137.6229   69.2503  222.7921 H   0  0  0  0  0  0  0  0  0  0  0  0
  138.2188   67.8798  224.7962 H   0  0  0  0  0  0  0  0  0  0  0  0
  139.4083   67.6828  226.9568 H   0  0  0  0  0  0  0  0  0  0  0  0
  141.7211   71.0381  228.4202 H   0  0  0  0  0  0  0  0  0  0  0  0
  141.0972   72.3636  226.3966 H   0  0  0  0  0  0  0  0  0  0  0  0
  146.6676   71.9714  219.2905 H   0  0  0  0  0  0  0  0  0  0  0  0
  1  2  1  0
  2  3  1  0
  3  4  2  0
  4  5  1  0
  5  6  2  0
  6  7  1  0
  7  8  1  0
  7  9  1  0
  9 10  1  0
 10 11  2  0
 10 12  1  0
 12 13  1  0
 13 14  1  0
 14 15  1  0
 14 16  1  0
 16 17  1  0
 17 18  1  0
 18 19  2  0
 18 20  1  0
 20 21  1  0
 21 22  1  0
 22 23  2  0
 22 24  1  0
 24 25  2  0
 25 26  1  0
 26 27  2  0
 27 28  1  0
 28 29  2  0
 29 30  1  0
 29 31  1  0
 31 32  2  0
 32 33  1  0
 33 34  2  0
  6 35  1  0
 35 36  1  0
 35 37  2  0
 37  3  1  0
 17 12  1  0
 34 24  1  0
 33 27  1  0
  1 38  1  0
  1 39  1  0
  1 40  1  0
  4 41  1  0
  5 42  1  0
  7 43  1  1
  8 44  1  0
  8 45  1  0
  8 46  1  0
  9 47  1  0
 12 48  1  6
 13 49  1  0
 13 50  1  0
 14 51  1  1
 15 52  1  0
 16 53  1  0
 16 54  1  0
 20 55  1  0
 20 56  1  0
 21 57  1  0
 25 58  1  0
 26 59  1  0
 28 60  1  0
 31 61  1  0
 32 62  1  0
 37 63  1  0
M  END
>  <UniqueID>  (4) 
1

>  <SMILES>  (4) 
COc1ccc([C@H](C)NC(=O)[C@@H]2C[C@@H](O)CN2C(=O)CNC(=O)c2ccc3cc(F)ccc3n2)c(Cl)c1

>  <Energy>  (4) 
62.67687487480324

>  <Genealogy>  (4) 
COc1ccc([C@H](C)NC(=O)[C@@H]2C[C@@H](O)CN2C(=O)CNC(=O)c2ccc3cc(F)ccc3n2)c(Cl)c1 (3D coordinates assigned)
COc1ccc([C@H](C)NC(=O)[C@@H]2C[C@@H](O)CN2C(=O)CNC(=O)c2ccc3cc(F)ccc3n2)c(Cl)c1 (nonaromatic ring conformer: 62.67687487480324 kcal/mol)

>  <smiles>  (4) 
COc1ccc([C@H](C)NC(=O)[C@@H]2C[C@@H](O)CN2C(=O)CNC(=O)c2ccc3cc(F)ccc3n2)c(Cl)c1

>  <score_type>  (4) 
oracle

>  <origin>  (4) 
autodockgpu

>  <m_score__min__energy>  (4) 
-9.4800000000000004

>  <m_primary>  (4) 
energy

>  <meeko>  (4) 
{"free_energy": -8.06, "intermolecular_energy": -10.75, "internal_energy": -2.95, "cluster_size": 1, "cluster_id": 3, "rank_in_cluster": 1}

>  <energy>  (4) 
-8.64

>  <cluster_rmsd>  (4) 
0.0

>  <rmsd>  (4) 
271.8

>  <cluster>  (4) 
2

$$$$
PMUWBFKMLGLUTF-QDRFXLRBNA-N
     RDKit          3D

 63 66  0  0  0  0  0  0  0  0999 V2000
  139.6080   82.7690  221.1450 C   0  0  0  0  0  0  0  0  0  0  0  0
  140.8310   82.2760  220.6070 O   0  0  0  0  0  0  0  0  0  0  0  0
  140.9650   81.0480  219.9410 C   0  0  0  0  0  0  0  0  0  0  0  0
  142.1900   80.6050  219.4180 C   0  0  0  0  0  0  0  0  0  0  0  0
  142.2710   79.3780  218.7580 C   0  0  0  0  0  0  0  0  0  0  0  0
  141.1340   78.5620  218.6000 C   0  0  0  0  0  0  0  0  0  0  0  0
  141.2920   77.2320  217.8780 C   0  0  2  0  0  0  0  0  0  0  0  0
  140.2260   77.0250  216.7950 C   0  0  0  0  0  0  0  0  0  0  0  0
  141.3090   76.1190  218.8350 N   0  0  0  0  0  0  0  0  0  0  0  0
  142.4310   75.9110  219.7080 C   0  0  0  0  0  0  0  0  0  0  0  0
  143.3670   76.7550  219.7410 O   0  0  0  0  0  0  0  0  0  0  0  0
  142.5640   74.6500  220.5230 C   0  0  2  0  0  0  0  0  0  0  0  0
  144.0330   74.2390  220.6710 C   0  0  0  0  0  0  0  0  0  0  0  0
  144.2160   73.0300  219.7480 C   0  0  1  0  0  0  0  0  0  0  0  0
  145.1140   72.0830  220.2760 O   0  0  0  0  0  0  0  0  0  0  0  0
  142.8180   72.4510  219.5350 C   0  0  0  0  0  0  0  0  0  0  0  0
  141.8980   73.5200  219.8860 N   0  0  0  0  0  0  0  0  0  0  0  0
  140.4790   73.2990  219.9560 C   0  0  0  0  0  0  0  0  0  0  0  0
  139.7850   73.3560  218.9050 O   0  0  0  0  0  0  0  0  0  0  0  0
  139.7980   73.0600  221.2710 C   0  0  0  0  0  0  0  0  0  0  0  0
  139.6430   74.2950  222.0340 N   0  0  0  0  0  0  0  0  0  0  0  0
  139.3520   75.5300  221.3660 C   0  0  0  0  0  0  0  0  0  0  0  0
  138.8660   75.5110  220.2020 O   0  0  0  0  0  0  0  0  0  0  0  0
  139.6360   76.8220  222.0220 C   0  0  0  0  0  0  0  0  0  0  0  0
  138.6150   77.5570  222.6500 C   0  0  0  0  0  0  0  0  0  0  0  0
  138.9060   78.7980  223.2210 C   0  0  0  0  0  0  0  0  0  0  0  0
  140.2120   79.3000  223.1690 C   0  0  0  0  0  0  0  0  0  0  0  0
  140.5400   80.5440  223.7280 C   0  0  0  0  0  0  0  0  0  0  0  0
  141.8540   81.0190  223.6530 C   0  0  0  0  0  0  0  0  0  0  0  0
  142.1700   82.2210  224.1950 F   0  0  0  0  0  0  0  0  0  0  0  0
  142.8450   80.2560  223.0240 C   0  0  0  0  0  0  0  0  0  0  0  0
  142.5260   79.0140  222.4640 C   0  0  0  0  0  0  0  0  0  0  0  0
  141.2140   78.5310  222.5350 C   0  0  0  0  0  0  0  0  0  0  0  0
  140.9010   77.3280  221.9870 N   0  0  0  0  0  0  0  0  0  0  0  0
  139.9010   79.0090  219.1370 C   0  0  0  0  0  0  0  0  0  0  0  0
  138.4110   78.0740  219.0220 Cl  0  0  0  0  0  0  0  0  0  0  0  0
  139.8330   80.2420  219.7990 C   0  0  0  0  0  0  0  0  0  0  0  0
  139.6565   82.7494  222.2438 H   0  0  0  0  0  0  0  0  0  0  0  0
  139.4472   83.8022  220.8034 H   0  0  0  0  0  0  0  0  0  0  0  0
  138.7756   82.1362  220.8034 H   0  0  0  0  0  0  0  0  0  0  0  0
  143.0900   81.2277  219.5288 H   0  0  0  0  0  0  0  0  0  0  0  0
  143.2381   79.0429  218.3548 H   0  0  0  0  0  0  0  0  0  0  0  0
  142.2622   77.2555  217.3601 H   0  0  0  0  0  0  0  0  0  0  0  0
  139.2522   76.8359  217.2704 H   0  0  0  0  0  0  0  0  0  0  0  0
  140.1594   77.9270  216.1689 H   0  0  0  0  0  0  0  0  0  0  0  0
  140.5018   76.1636  216.1689 H   0  0  0  0  0  0  0  0  0  0  0  0
  140.5300   75.4220  218.8340 H   0  0  0  0  0  0  0  0  0  0  0  0
  142.1068   74.8784  221.4970 H   0  0  0  0  0  0  0  0  0  0  0  0
  144.6951   75.0615  220.3626 H   0  0  0  0  0  0  0  0  0  0  0  0
  144.2856   73.9975  221.7140 H   0  0  0  0  0  0  0  0  0  0  0  0
  144.6686   73.3296  218.7912 H   0  0  0  0  0  0  0  0  0  0  0  0
  144.8720   71.9300  221.2270 H   0  0  0  0  0  0  0  0  0  0  0  0
  142.6804   72.1547  218.4846 H   0  0  0  0  0  0  0  0  0  0  0  0
  142.6511   71.5516  220.1459 H   0  0  0  0  0  0  0  0  0  0  0  0
  138.8030   72.6300  221.0837 H   0  0  0  0  0  0  0  0  0  0  0  0
  140.4223   72.3711  221.8589 H   0  0  0  0  0  0  0  0  0  0  0  0
  139.7950   74.2940  223.0680 H   0  0  0  0  0  0  0  0  0  0  0  0
  137.5914   77.1563  222.6914 H   0  0  0  0  0  0  0  0  0  0  0  0
  138.1109   79.3796  223.7104 H   0  0  0  0  0  0  0  0  0  0  0  0
  139.7648   81.1457  224.2250 H   0  0  0  0  0  0  0  0  0  0  0  0
  143.8767   80.6337  222.9699 H   0  0  0  0  0  0  0  0  0  0  0  0
  143.3059   78.4174  221.9682 H   0  0  0  0  0  0  0  0  0  0  0  0
  138.8722   80.5809  220.2138 H   0  0  0  0  0  0  0  0  0  0  0  0
  1  2  1  0
  2  3  1  0
  3  4  2  0
  4  5  1  0
  5  6  2  0
  6  7  1  0
  7  8  1  0
  7  9  1  0
  9 10  1  0
 10 11  2  0
 10 12  1  0
 12 13  1  0
 13 14  1  0
 14 15  1  0
 14 16  1  0
 16 17  1  0
 17 18  1  0
 18 19  2  0
 18 20  1  0
 20 21  1  0
 21 22  1  0
 22 23  2  0
 22 24  1  0
 24 25  2  0
 25 26  1  0
 26 27  2  0
 27 28  1  0
 28 29  2  0
 29 30  1  0
 29 31  1  0
 31 32  2  0
 32 33  1  0
 33 34  2  0
  6 35  1  0
 35 36  1  0
 35 37  2  0
 37  3  1  0
 17 12  1  0
 34 24  1  0
 33 27  1  0
  1 38  1  0
  1 39  1  0
  1 40  1  0
  4 41  1  0
  5 42  1  0
  7 43  1  6
  8 44  1  0
  8 45  1  0
  8 46  1  0
  9 47  1  0
 12 48  1  1
 13 49  1  0
 13 50  1  0
 14 51  1  6
 15 52  1  0
 16 53  1  0
 16 54  1  0
 20 55  1  0
 20 56  1  0
 21 57  1  0
 25 58  1  0
 26 59  1  0
 28 60  1  0
 31 61  1  0
 32 62  1  0
 37 63  1  0
M  END
>  <UniqueID>  (5) 
1

>  <SMILES>  (5) 
COc1ccc([C@H](C)NC(=O)[C@@H]2C[C@@H](O)CN2C(=O)CNC(=O)c2ccc3cc(F)ccc3n2)c(Cl)c1

>  <Energy>  (5) 
62.67687487480324

>  <Genealogy>  (5) 
COc1ccc([C@H](C)NC(=O)[C@@H]2C[C@@H](O)CN2C(=O)CNC(=O)c2ccc3cc(F)ccc3n2)c(Cl)c1 (3D coordinates assigned)
COc1ccc([C@H](C)NC(=O)[C@@H]2C[C@@H](O)CN2C(=O)CNC(=O)c2ccc3cc(F)ccc3n2)c(Cl)c1 (nonaromatic ring conformer: 62.67687487480324 kcal/mol)

>  <smiles>  (5) 
COc1ccc([C@H](C)NC(=O)[C@@H]2C[C@@H](O)CN2C(=O)CNC(=O)c2ccc3cc(F)ccc3n2)c(Cl)c1

>  <score_type>  (5) 
oracle

>  <origin>  (5) 
autodockgpu

>  <m_score__min__energy>  (5) 
-9.4800000000000004

>  <m_primary>  (5) 
energy

>  <meeko>  (5) 
{"free_energy": -5.67, "intermolecular_energy": -8.35, "internal_energy": -5.52, "cluster_size": 10, "cluster_id": 7, "rank_in_cluster": 8}

>  <energy>  (5) 
-8.06

>  <cluster_rmsd>  (5) 
0.0

>  <rmsd>  (5) 
271.21

>  <cluster>  (5) 
3

$$$$
PMUWBFKMLGLUTF-QDRFXLRBNA-N
     RDKit          3D

 63 66  0  0  0  0  0  0  0  0999 V2000
  132.1750   74.2380  227.0350 C   0  0  0  0  0  0  0  0  0  0  0  0
  133.5510   73.9400  226.8260 O   0  0  0  0  0  0  0  0  0  0  0  0
  134.3090   74.4120  225.7430 C   0  0  0  0  0  0  0  0  0  0  0  0
  134.4050   75.7760  225.4280 C   0  0  0  0  0  0  0  0  0  0  0  0
  135.1660   76.1950  224.3370 C   0  0  0  0  0  0  0  0  0  0  0  0
  135.8490   75.2660  223.5290 C   0  0  0  0  0  0  0  0  0  0  0  0
  136.6690   75.7880  222.3580 C   0  0  2  0  0  0  0  0  0  0  0  0
  136.4550   74.9650  221.0820 C   0  0  0  0  0  0  0  0  0  0  0  0
  138.0910   75.8690  222.7140 N   0  0  0  0  0  0  0  0  0  0  0  0
  138.8340   77.0840  222.5210 C   0  0  0  0  0  0  0  0  0  0  0  0
  138.2390   78.1320  222.1500 O   0  0  0  0  0  0  0  0  0  0  0  0
  140.3340   77.1140  222.6600 C   0  0  2  0  0  0  0  0  0  0  0  0
  140.8220   78.4960  223.1050 C   0  0  0  0  0  0  0  0  0  0  0  0
  141.4550   79.1290  221.8620 C   0  0  1  0  0  0  0  0  0  0  0  0
  142.5720   79.9260  222.1760 O   0  0  0  0  0  0  0  0  0  0  0  0
  141.8100   77.9670  220.9360 C   0  0  0  0  0  0  0  0  0  0  0  0
  141.0010   76.8480  221.3900 N   0  0  0  0  0  0  0  0  0  0  0  0
  141.1750   75.5260  220.8520 C   0  0  0  0  0  0  0  0  0  0  0  0
  142.2190   75.2490  220.2030 O   0  0  0  0  0  0  0  0  0  0  0  0
  140.1060   74.4850  220.9990 C   0  0  0  0  0  0  0  0  0  0  0  0
  140.4770   73.4580  221.9690 N   0  0  0  0  0  0  0  0  0  0  0  0
  139.7660   72.2140  222.0180 C   0  0  0  0  0  0  0  0  0  0  0  0
  139.0890   71.8420  221.0210 O   0  0  0  0  0  0  0  0  0  0  0  0
  139.8040   71.3780  223.2340 C   0  0  0  0  0  0  0  0  0  0  0  0
  139.2020   70.1060  223.2590 C   0  0  0  0  0  0  0  0  0  0  0  0
  139.2140   69.3580  224.4380 C   0  0  0  0  0  0  0  0  0  0  0  0
  139.8260   69.8750  225.5850 C   0  0  0  0  0  0  0  0  0  0  0  0
  139.8530   69.1540  226.7880 C   0  0  0  0  0  0  0  0  0  0  0  0
  140.4700   69.7020  227.9180 C   0  0  0  0  0  0  0  0  0  0  0  0
  140.4960   69.0030  229.0810 F   0  0  0  0  0  0  0  0  0  0  0  0
  141.0630   70.9690  227.8530 C   0  0  0  0  0  0  0  0  0  0  0  0
  141.0400   71.6950  226.6580 C   0  0  0  0  0  0  0  0  0  0  0  0
  140.4260   71.1540  225.5230 C   0  0  0  0  0  0  0  0  0  0  0  0
  140.3980   71.8590  224.3610 N   0  0  0  0  0  0  0  0  0  0  0  0
  135.7570   73.8890  223.8550 C   0  0  0  0  0  0  0  0  0  0  0  0
  136.5780   72.6300  222.9350 Cl  0  0  0  0  0  0  0  0  0  0  0  0
  134.9910   73.4820  224.9550 C   0  0  0  0  0  0  0  0  0  0  0  0
  131.9694   74.2825  228.1147 H   0  0  0  0  0  0  0  0  0  0  0  0
  131.9362   75.2087  226.5759 H   0  0  0  0  0  0  0  0  0  0  0  0
  131.5560   73.4531  226.5759 H   0  0  0  0  0  0  0  0  0  0  0  0
  133.8774   76.5185  226.0447 H   0  0  0  0  0  0  0  0  0  0  0  0
  135.2337   77.2679  224.1041 H   0  0  0  0  0  0  0  0  0  0  0  0
  136.3113   76.8043  222.1364 H   0  0  0  0  0  0  0  0  0  0  0  0
  136.1866   73.9330  221.3520 H   0  0  0  0  0  0  0  0  0  0  0  0
  135.6432   75.4118  220.4893 H   0  0  0  0  0  0  0  0  0  0  0  0
  137.3817   74.9598  220.4893 H   0  0  0  0  0  0  0  0  0  0  0  0
  138.5930   75.0130  223.0420 H   0  0  0  0  0  0  0  0  0  0  0  0
  140.5769   76.3402  223.4031 H   0  0  0  0  0  0  0  0  0  0  0  0
  139.9777   79.1058  223.4588 H   0  0  0  0  0  0  0  0  0  0  0  0
  141.5390   78.4264  223.9363 H   0  0  0  0  0  0  0  0  0  0  0  0
  140.7555   79.8228  221.3729 H   0  0  0  0  0  0  0  0  0  0  0  0
  143.3900   79.4050  221.9610 H   0  0  0  0  0  0  0  0  0  0  0  0
  141.5675   78.2186  219.8930 H   0  0  0  0  0  0  0  0  0  0  0  0
  142.8844   77.7333  220.9676 H   0  0  0  0  0  0  0  0  0  0  0  0
  139.1785   74.9723  221.3339 H   0  0  0  0  0  0  0  0  0  0  0  0
  139.9672   73.9980  220.0225 H   0  0  0  0  0  0  0  0  0  0  0  0
  141.2310   73.6470  222.6680 H   0  0  0  0  0  0  0  0  0  0  0  0
  138.7242   69.7030  222.3539 H   0  0  0  0  0  0  0  0  0  0  0  0
  138.7432   68.3642  224.4649 H   0  0  0  0  0  0  0  0  0  0  0  0
  139.3892   68.1581  226.8430 H   0  0  0  0  0  0  0  0  0  0  0  0
  141.5481   71.3942  228.7440 H   0  0  0  0  0  0  0  0  0  0  0  0
  141.5044   72.6910  226.6103 H   0  0  0  0  0  0  0  0  0  0  0  0
  134.9255   72.4122  225.2023 H   0  0  0  0  0  0  0  0  0  0  0  0
  1  2  1  0
  2  3  1  0
  3  4  2  0
  4  5  1  0
  5  6  2  0
  6  7  1  0
  7  8  1  0
  7  9  1  0
  9 10  1  0
 10 11  2  0
 10 12  1  0
 12 13  1  0
 13 14  1  0
 14 15  1  0
 14 16  1  0
 16 17  1  0
 17 18  1  0
 18 19  2  0
 18 20  1  0
 20 21  1  0
 21 22  1  0
 22 23  2  0
 22 24  1  0
 24 25  2  0
 25 26  1  0
 26 27  2  0
 27 28  1  0
 28 29  2  0
 29 30  1  0
 29 31  1  0
 31 32  2  0
 32 33  1  0
 33 34  2  0
  6 35  1  0
 35 36  1  0
 35 37  2  0
 37  3  1  0
 17 12  1  0
 34 24  1  0
 33 27  1  0
  1 38  1  0
  1 39  1  0
  1 40  1  0
  4 41  1  0
  5 42  1  0
  7 43  1  6
  8 44  1  0
  8 45  1  0
  8 46  1  0
  9 47  1  0
 12 48  1  1
 13 49  1  0
 13 50  1  0
 14 51  1  6
 15 52  1  0
 16 53  1  0
 16 54  1  0
 20 55  1  0
 20 56  1  0
 21 57  1  0
 25 58  1  0
 26 59  1  0
 28 60  1  0
 31 61  1  0
 32 62  1  0
 37 63  1  0
M  END
>  <UniqueID>  (6) 
1

>  <SMILES>  (6) 
COc1ccc([C@H](C)NC(=O)[C@@H]2C[C@@H](O)CN2C(=O)CNC(=O)c2ccc3cc(F)ccc3n2)c(Cl)c1

>  <Energy>  (6) 
62.67687487480324

>  <Genealogy>  (6) 
COc1ccc([C@H](C)NC(=O)[C@@H]2C[C@@H](O)CN2C(=O)CNC(=O)c2ccc3cc(F)ccc3n2)c(Cl)c1 (3D coordinates assigned)
COc1ccc([C@H](C)NC(=O)[C@@H]2C[C@@H](O)CN2C(=O)CNC(=O)c2ccc3cc(F)ccc3n2)c(Cl)c1 (nonaromatic ring conformer: 62.67687487480324 kcal/mol)

>  <smiles>  (6) 
COc1ccc([C@H](C)NC(=O)[C@@H]2C[C@@H](O)CN2C(=O)CNC(=O)c2ccc3cc(F)ccc3n2)c(Cl)c1

>  <score_type>  (6) 
oracle

>  <origin>  (6) 
autodockgpu

>  <m_score__min__energy>  (6) 
-9.4800000000000004

>  <m_primary>  (6) 
energy

>  <meeko>  (6) 
{"free_energy": -9.03, "intermolecular_energy": -11.71, "internal_energy": -2.24, "cluster_size": 3, "cluster_id": 1, "rank_in_cluster": 2}

>  <energy>  (6) 
-7.76

>  <cluster_rmsd>  (6) 
0.0

>  <rmsd>  (6) 
271.9

>  <cluster>  (6) 
4

$$$$
PMUWBFKMLGLUTF-QDRFXLRBNA-N
     RDKit          3D

 63 66  0  0  0  0  0  0  0  0999 V2000
  139.2680   82.3380  221.2290 C   0  0  0  0  0  0  0  0  0  0  0  0
  140.5440   82.0870  220.6510 O   0  0  0  0  0  0  0  0  0  0  0  0
  140.8850   80.9140  219.9600 C   0  0  0  0  0  0  0  0  0  0  0  0
  142.1890   80.6550  219.5110 C   0  0  0  0  0  0  0  0  0  0  0  0
  142.4760   79.4760  218.8230 C   0  0  0  0  0  0  0  0  0  0  0  0
  141.4700   78.5260  218.5600 C   0  0  0  0  0  0  0  0  0  0  0  0
  141.8510   77.2560  217.8120 C   0  0  2  0  0  0  0  0  0  0  0  0
  140.9070   76.9660  216.6380 C   0  0  0  0  0  0  0  0  0  0  0  0
  141.9330   76.1150  218.7310 N   0  0  0  0  0  0  0  0  0  0  0  0
  143.1020   75.8980  219.5380 C   0  0  0  0  0  0  0  0  0  0  0  0
  144.0260   76.7560  219.5500 O   0  0  0  0  0  0  0  0  0  0  0  0
  143.2960   74.6160  220.3050 C   0  0  2  0  0  0  0  0  0  0  0  0
  144.7840   74.2960  220.4830 C   0  0  0  0  0  0  0  0  0  0  0  0
  145.0760   73.1430  219.5180 C   0  0  1  0  0  0  0  0  0  0  0  0
  146.0190   72.2360  220.0360 O   0  0  0  0  0  0  0  0  0  0  0  0
  143.7270   72.4820  219.2360 C   0  0  0  0  0  0  0  0  0  0  0  0
  142.7270   73.4720  219.6000 N   0  0  0  0  0  0  0  0  0  0  0  0
  141.3250   73.1550  219.6140 C   0  0  0  0  0  0  0  0  0  0  0  0
  140.6520   73.2460  218.5520 O   0  0  0  0  0  0  0  0  0  0  0  0
  140.6320   72.7740  220.8890 C   0  0  0  0  0  0  0  0  0  0  0  0
  140.3210   73.9420  221.7080 N   0  0  0  0  0  0  0  0  0  0  0  0
  139.8620   75.1560  221.0980 C   0  0  0  0  0  0  0  0  0  0  0  0
  139.3730   75.1240  219.9350 O   0  0  0  0  0  0  0  0  0  0  0  0
  139.9790   76.4430  221.8100 C   0  0  0  0  0  0  0  0  0  0  0  0
  138.8700   77.0160  222.4590 C   0  0  0  0  0  0  0  0  0  0  0  0
  139.0000   78.2580  223.0860 C   0  0  0  0  0  0  0  0  0  0  0  0
  140.2320   78.9220  223.0670 C   0  0  0  0  0  0  0  0  0  0  0  0
  140.3970   80.1720  223.6810 C   0  0  0  0  0  0  0  0  0  0  0  0
  141.6420   80.8110  223.6400 C   0  0  0  0  0  0  0  0  0  0  0  0
  141.8010   82.0200  224.2360 F   0  0  0  0  0  0  0  0  0  0  0  0
  142.7240   80.2070  222.9880 C   0  0  0  0  0  0  0  0  0  0  0  0
  142.5660   78.9610  222.3730 C   0  0  0  0  0  0  0  0  0  0  0  0
  141.3260   78.3140  222.4100 C   0  0  0  0  0  0  0  0  0  0  0  0
  141.1690   77.1050  221.8090 N   0  0  0  0  0  0  0  0  0  0  0  0
  140.1560   78.7870  219.0210 C   0  0  0  0  0  0  0  0  0  0  0  0
  138.8140   77.6710  218.7730 Cl  0  0  0  0  0  0  0  0  0  0  0  0
  139.8810   79.9730  219.7140 C   0  0  0  0  0  0  0  0  0  0  0  0
  139.3525   82.3214  222.3256 H   0  0  0  0  0  0  0  0  0  0  0  0
  138.9059   83.3246  220.9041 H   0  0  0  0  0  0  0  0  0  0  0  0
  138.5592   81.5621  220.9041 H   0  0  0  0  0  0  0  0  0  0  0  0
  142.9889   81.3854  219.7025 H   0  0  0  0  0  0  0  0  0  0  0  0
  143.5038   79.2853  218.4806 H   0  0  0  0  0  0  0  0  0  0  0  0
  142.8485   77.4191  217.3779 H   0  0  0  0  0  0  0  0  0  0  0  0
  139.9227   76.6636  217.0250 H   0  0  0  0  0  0  0  0  0  0  0  0
  140.7970   77.8718  216.0236 H   0  0  0  0  0  0  0  0  0  0  0  0
  141.3244   76.1547  216.0236 H   0  0  0  0  0  0  0  0  0  0  0  0
  141.1650   75.4060  218.7470 H   0  0  0  0  0  0  0  0  0  0  0  0
  142.7965   74.7726  221.2725 H   0  0  0  0  0  0  0  0  0  0  0  0
  145.3982   75.1729  220.2304 H   0  0  0  0  0  0  0  0  0  0  0  0
  145.0206   74.0262  221.5228 H   0  0  0  0  0  0  0  0  0  0  0  0
  145.5359   73.5129  218.5897 H   0  0  0  0  0  0  0  0  0  0  0  0
  145.6720   71.8940  220.9020 H   0  0  0  0  0  0  0  0  0  0  0  0
  143.6412   72.2224  218.1705 H   0  0  0  0  0  0  0  0  0  0  0  0
  143.6030   71.5481  219.8039 H   0  0  0  0  0  0  0  0  0  0  0  0
  139.6954   72.2523  220.6428 H   0  0  0  0  0  0  0  0  0  0  0  0
  141.3078   72.1239  221.4640 H   0  0  0  0  0  0  0  0  0  0  0  0
  140.4810   73.9150  222.7400 H   0  0  0  0  0  0  0  0  0  0  0  0
  137.9048   76.4886  222.4728 H   0  0  0  0  0  0  0  0  0  0  0  0
  138.1363   78.7127  223.5932 H   0  0  0  0  0  0  0  0  0  0  0  0
  139.5494   80.6497  224.1941 H   0  0  0  0  0  0  0  0  0  0  0  0
  143.7000   80.7135  222.9595 H   0  0  0  0  0  0  0  0  0  0  0  0
  143.4170   78.4894  221.8599 H   0  0  0  0  0  0  0  0  0  0  0  0
  138.8585   80.1669  220.0703 H   0  0  0  0  0  0  0  0  0  0  0  0
  1  2  1  0
  2  3  1  0
  3  4  2  0
  4  5  1  0
  5  6  2  0
  6  7  1  0
  7  8  1  0
  7  9  1  0
  9 10  1  0
 10 11  2  0
 10 12  1  0
 12 13  1  0
 13 14  1  0
 14 15  1  0
 14 16  1  0
 16 17  1  0
 17 18  1  0
 18 19  2  0
 18 20  1  0
 20 21  1  0
 21 22  1  0
 22 23  2  0
 22 24  1  0
 24 25  2  0
 25 26  1  0
 26 27  2  0
 27 28  1  0
 28 29  2  0
 29 30  1  0
 29 31  1  0
 31 32  2  0
 32 33  1  0
 33 34  2  0
  6 35  1  0
 35 36  1  0
 35 37  2  0
 37  3  1  0
 17 12  1  0
 34 24  1  0
 33 27  1  0
  1 38  1  0
  1 39  1  0
  1 40  1  0
  4 41  1  0
  5 42  1  0
  7 43  1  6
  8 44  1  0
  8 45  1  0
  8 46  1  0
  9 47  1  0
 12 48  1  1
 13 49  1  0
 13 50  1  0
 14 51  1  6
 15 52  1  0
 16 53  1  0
 16 54  1  0
 20 55  1  0
 20 56  1  0
 21 57  1  0
 25 58  1  0
 26 59  1  0
 28 60  1  0
 31 61  1  0
 32 62  1  0
 37 63  1  0
M  END
>  <UniqueID>  (7) 
1

>  <SMILES>  (7) 
COc1ccc([C@H](C)NC(=O)[C@@H]2C[C@@H](O)CN2C(=O)CNC(=O)c2ccc3cc(F)ccc3n2)c(Cl)c1

>  <Energy>  (7) 
62.67687487480324

>  <Genealogy>  (7) 
COc1ccc([C@H](C)NC(=O)[C@@H]2C[C@@H](O)CN2C(=O)CNC(=O)c2ccc3cc(F)ccc3n2)c(Cl)c1 (3D coordinates assigned)
COc1ccc([C@H](C)NC(=O)[C@@H]2C[C@@H](O)CN2C(=O)CNC(=O)c2ccc3cc(F)ccc3n2)c(Cl)c1 (nonaromatic ring conformer: 62.67687487480324 kcal/mol)

>  <smiles>  (7) 
COc1ccc([C@H](C)NC(=O)[C@@H]2C[C@@H](O)CN2C(=O)CNC(=O)c2ccc3cc(F)ccc3n2)c(Cl)c1

>  <score_type>  (7) 
oracle

>  <origin>  (7) 
autodockgpu

>  <m_score__min__energy>  (7) 
-9.4800000000000004

>  <m_primary>  (7) 
energy

>  <meeko>  (7) 
{"free_energy": -5.78, "intermolecular_energy": -8.46, "internal_energy": -5.49, "cluster_size": 10, "cluster_id": 7, "rank_in_cluster": 7}

>  <energy>  (7) 
-7.73

>  <cluster_rmsd>  (7) 
0.89

>  <rmsd>  (7) 
271.84

>  <cluster>  (7) 
4

$$$$
PMUWBFKMLGLUTF-QDRFXLRBNA-N
     RDKit          3D

 63 66  0  0  0  0  0  0  0  0999 V2000
  139.3350   82.2400  220.9680 C   0  0  0  0  0  0  0  0  0  0  0  0
  140.6160   81.9650  220.4130 O   0  0  0  0  0  0  0  0  0  0  0  0
  140.9510   80.7790  219.7410 C   0  0  0  0  0  0  0  0  0  0  0  0
  142.2460   80.5230  219.2640 C   0  0  0  0  0  0  0  0  0  0  0  0
  142.5280   79.3310  218.5960 C   0  0  0  0  0  0  0  0  0  0  0  0
  141.5260   78.3640  218.3830 C   0  0  0  0  0  0  0  0  0  0  0  0
  141.9010   77.0810  217.6560 C   0  0  2  0  0  0  0  0  0  0  0  0
  140.9330   76.7560  216.5110 C   0  0  0  0  0  0  0  0  0  0  0  0
  142.0140   75.9620  218.5980 N   0  0  0  0  0  0  0  0  0  0  0  0
  143.1500   75.8410  219.4700 C   0  0  0  0  0  0  0  0  0  0  0  0
  144.0090   76.7620  219.5150 O   0  0  0  0  0  0  0  0  0  0  0  0
  143.3930   74.5870  220.2690 C   0  0  2  0  0  0  0  0  0  0  0  0
  144.8910   74.3300  220.4570 C   0  0  0  0  0  0  0  0  0  0  0  0
  145.2300   73.1650  219.5210 C   0  0  1  0  0  0  0  0  0  0  0  0
  146.2070   72.3090  220.0620 O   0  0  0  0  0  0  0  0  0  0  0  0
  143.9080   72.4450  219.2550 C   0  0  0  0  0  0  0  0  0  0  0  0
  142.8700   73.4050  219.5930 N   0  0  0  0  0  0  0  0  0  0  0  0
  141.4810   73.0330  219.6150 C   0  0  0  0  0  0  0  0  0  0  0  0
  140.8070   73.0720  218.5500 O   0  0  0  0  0  0  0  0  0  0  0  0
  140.8010   72.6560  220.8980 C   0  0  0  0  0  0  0  0  0  0  0  0
  140.4340   73.8320  221.6830 N   0  0  0  0  0  0  0  0  0  0  0  0
  139.9880   75.0290  221.0330 C   0  0  0  0  0  0  0  0  0  0  0  0
  139.5560   74.9720  219.8480 O   0  0  0  0  0  0  0  0  0  0  0  0
  140.0510   76.3280  221.7300 C   0  0  0  0  0  0  0  0  0  0  0  0
  138.9210   76.8600  222.3780 C   0  0  0  0  0  0  0  0  0  0  0  0
  138.9990   78.1130  222.9890 C   0  0  0  0  0  0  0  0  0  0  0  0
  140.2000   78.8300  222.9570 C   0  0  0  0  0  0  0  0  0  0  0  0
  140.3140   80.0940  223.5560 C   0  0  0  0  0  0  0  0  0  0  0  0
  141.5290   80.7860  223.5020 C   0  0  0  0  0  0  0  0  0  0  0  0
  141.6380   82.0070  224.0830 F   0  0  0  0  0  0  0  0  0  0  0  0
  142.6330   80.2220  222.8520 C   0  0  0  0  0  0  0  0  0  0  0  0
  142.5280   78.9630  222.2520 C   0  0  0  0  0  0  0  0  0  0  0  0
  141.3170   78.2630  222.3020 C   0  0  0  0  0  0  0  0  0  0  0  0
  141.2110   77.0420  221.7150 N   0  0  0  0  0  0  0  0  0  0  0  0
  140.2210   78.6220  218.8740 C   0  0  0  0  0  0  0  0  0  0  0  0
  138.8870   77.4870  218.6880 Cl  0  0  0  0  0  0  0  0  0  0  0  0
  139.9520   79.8220  219.5450 C   0  0  0  0  0  0  0  0  0  0  0  0
  139.4004   82.2260  222.0660 H   0  0  0  0  0  0  0  0  0  0  0  0
  138.9957   83.2315  220.6336 H   0  0  0  0  0  0  0  0  0  0  0  0
  138.6186   81.4752  220.6336 H   0  0  0  0  0  0  0  0  0  0  0  0
  143.0426   81.2659  219.4176 H   0  0  0  0  0  0  0  0  0  0  0  0
  143.5483   79.1435  218.2301 H   0  0  0  0  0  0  0  0  0  0  0  0
  142.8869   77.2429  217.1959 H   0  0  0  0  0  0  0  0  0  0  0  0
  139.9679   76.4320  216.9276 H   0  0  0  0  0  0  0  0  0  0  0  0
  140.7827   77.6529  215.8922 H   0  0  0  0  0  0  0  0  0  0  0  0
  141.3544   75.9501  215.8922 H   0  0  0  0  0  0  0  0  0  0  0  0
  141.2980   75.2000  218.5870 H   0  0  0  0  0  0  0  0  0  0  0  0
  142.8863   74.7482  221.2320 H   0  0  0  0  0  0  0  0  0  0  0  0
  145.4712   75.2236  220.1835 H   0  0  0  0  0  0  0  0  0  0  0  0
  145.1355   74.0956  221.5036 H   0  0  0  0  0  0  0  0  0  0  0  0
  145.6768   73.5290  218.5841 H   0  0  0  0  0  0  0  0  0  0  0  0
  145.8330   71.9010  220.8870 H   0  0  0  0  0  0  0  0  0  0  0  0
  143.8340   72.1551  218.1965 H   0  0  0  0  0  0  0  0  0  0  0  0
  143.8192   71.5217  219.8463 H   0  0  0  0  0  0  0  0  0  0  0  0
  139.8900   72.0856  220.6640 H   0  0  0  0  0  0  0  0  0  0  0  0
  141.5029   72.0531  221.4928 H   0  0  0  0  0  0  0  0  0  0  0  0
  140.5450   73.8230  222.7220 H   0  0  0  0  0  0  0  0  0  0  0  0
  137.9799   76.2910  222.4031 H   0  0  0  0  0  0  0  0  0  0  0  0
  138.1181   78.5355  223.4944 H   0  0  0  0  0  0  0  0  0  0  0  0
  139.4487   80.5405  224.0677 H   0  0  0  0  0  0  0  0  0  0  0  0
  143.5857   80.7705  222.8130 H   0  0  0  0  0  0  0  0  0  0  0  0
  143.3970   78.5230  221.7409 H   0  0  0  0  0  0  0  0  0  0  0  0
  138.9373   80.0140  219.9239 H   0  0  0  0  0  0  0  0  0  0  0  0
  1  2  1  0
  2  3  1  0
  3  4  2  0
  4  5  1  0
  5  6  2  0
  6  7  1  0
  7  8  1  0
  7  9  1  0
  9 10  1  0
 10 11  2  0
 10 12  1  0
 12 13  1  0
 13 14  1  0
 14 15  1  0
 14 16  1  0
 16 17  1  0
 17 18  1  0
 18 19  2  0
 18 20  1  0
 20 21  1  0
 21 22  1  0
 22 23  2  0
 22 24  1  0
 24 25  2  0
 25 26  1  0
 26 27  2  0
 27 28  1  0
 28 29  2  0
 29 30  1  0
 29 31  1  0
 31 32  2  0
 32 33  1  0
 33 34  2  0
  6 35  1  0
 35 36  1  0
 35 37  2  0
 37  3  1  0
 17 12  1  0
 34 24  1  0
 33 27  1  0
  1 38  1  0
  1 39  1  0
  1 40  1  0
  4 41  1  0
  5 42  1  0
  7 43  1  6
  8 44  1  0
  8 45  1  0
  8 46  1  0
  9 47  1  0
 12 48  1  1
 13 49  1  0
 13 50  1  0
 14 51  1  6
 15 52  1  0
 16 53  1  0
 16 54  1  0
 20 55  1  0
 20 56  1  0
 21 57  1  0
 25 58  1  0
 26 59  1  0
 28 60  1  0
 31 61  1  0
 32 62  1  0
 37 63  1  0
M  END
>  <UniqueID>  (8) 
1

>  <SMILES>  (8) 
COc1ccc([C@H](C)NC(=O)[C@@H]2C[C@@H](O)CN2C(=O)CNC(=O)c2ccc3cc(F)ccc3n2)c(Cl)c1

>  <Energy>  (8) 
62.67687487480324

>  <Genealogy>  (8) 
COc1ccc([C@H](C)NC(=O)[C@@H]2C[C@@H](O)CN2C(=O)CNC(=O)c2ccc3cc(F)ccc3n2)c(Cl)c1 (3D coordinates assigned)
COc1ccc([C@H](C)NC(=O)[C@@H]2C[C@@H](O)CN2C(=O)CNC(=O)c2ccc3cc(F)ccc3n2)c(Cl)c1 (nonaromatic ring conformer: 62.67687487480324 kcal/mol)

>  <smiles>  (8) 
COc1ccc([C@H](C)NC(=O)[C@@H]2C[C@@H](O)CN2C(=O)CNC(=O)c2ccc3cc(F)ccc3n2)c(Cl)c1

>  <score_type>  (8) 
oracle

>  <origin>  (8) 
autodockgpu

>  <m_score__min__energy>  (8) 
-9.4800000000000004

>  <m_primary>  (8) 
energy

>  <meeko>  (8) 
{"free_energy": -5.81, "intermolecular_energy": -8.49, "internal_energy": -5.47, "cluster_size": 10, "cluster_id": 7, "rank_in_cluster": 6}

>  <energy>  (8) 
-6.65

>  <cluster_rmsd>  (8) 
0.0

>  <rmsd>  (8) 
270.74

>  <cluster>  (8) 
5

$$$$
PMUWBFKMLGLUTF-QDRFXLRBNA-N
     RDKit          3D

 63 66  0  0  0  0  0  0  0  0999 V2000
  138.8480   82.1680  221.2830 C   0  0  0  0  0  0  0  0  0  0  0  0
  138.4090   81.1450  220.3940 O   0  0  0  0  0  0  0  0  0  0  0  0
  139.2520   80.1880  219.8090 C   0  0  0  0  0  0  0  0  0  0  0  0
  138.8810   78.8410  219.6720 C   0  0  0  0  0  0  0  0  0  0  0  0
  139.7570   77.9260  219.0880 C   0  0  0  0  0  0  0  0  0  0  0  0
  141.0270   78.3270  218.6290 C   0  0  0  0  0  0  0  0  0  0  0  0
  141.9310   77.2810  217.9950 C   0  0  2  0  0  0  0  0  0  0  0  0
  141.4910   76.9140  216.5720 C   0  0  0  0  0  0  0  0  0  0  0  0
  142.0320   76.0920  218.8490 N   0  0  0  0  0  0  0  0  0  0  0  0
  143.1870   75.8700  219.6740 C   0  0  0  0  0  0  0  0  0  0  0  0
  144.0790   76.7570  219.7600 O   0  0  0  0  0  0  0  0  0  0  0  0
  143.4080   74.5530  220.3730 C   0  0  2  0  0  0  0  0  0  0  0  0
  144.9020   74.2550  220.5340 C   0  0  0  0  0  0  0  0  0  0  0  0
  145.2170   73.1600  219.5090 C   0  0  1  0  0  0  0  0  0  0  0  0
  146.1790   72.2470  219.9790 O   0  0  0  0  0  0  0  0  0  0  0  0
  143.8810   72.4880  219.1920 C   0  0  0  0  0  0  0  0  0  0  0  0
  142.8620   73.4370  219.6080 N   0  0  0  0  0  0  0  0  0  0  0  0
  141.4660   73.0910  219.6060 C   0  0  0  0  0  0  0  0  0  0  0  0
  140.8060   73.1620  218.5350 O   0  0  0  0  0  0  0  0  0  0  0  0
  140.7640   72.7020  220.8730 C   0  0  0  0  0  0  0  0  0  0  0  0
  140.4310   73.8670  221.6880 N   0  0  0  0  0  0  0  0  0  0  0  0
  139.9420   75.0670  221.0750 C   0  0  0  0  0  0  0  0  0  0  0  0
  139.4470   75.0180  219.9150 O   0  0  0  0  0  0  0  0  0  0  0  0
  140.0320   76.3600  221.7800 C   0  0  0  0  0  0  0  0  0  0  0  0
  138.9290   76.8870  222.4760 C   0  0  0  0  0  0  0  0  0  0  0  0
  139.0310   78.1340  223.0950 C   0  0  0  0  0  0  0  0  0  0  0  0
  140.2310   78.8510  223.0230 C   0  0  0  0  0  0  0  0  0  0  0  0
  140.3690   80.1090  223.6280 C   0  0  0  0  0  0  0  0  0  0  0  0
  141.5810   80.8020  223.5320 C   0  0  0  0  0  0  0  0  0  0  0  0
  141.7130   82.0180  224.1190 F   0  0  0  0  0  0  0  0  0  0  0  0
  142.6590   80.2430  222.8360 C   0  0  0  0  0  0  0  0  0  0  0  0
  142.5300   78.9890  222.2280 C   0  0  0  0  0  0  0  0  0  0  0  0
  141.3220   78.2890  222.3200 C   0  0  0  0  0  0  0  0  0  0  0  0
  141.1920   77.0740  221.7270 N   0  0  0  0  0  0  0  0  0  0  0  0
  141.3950   79.6890  218.7620 C   0  0  0  0  0  0  0  0  0  0  0  0
  142.9450   80.3210  218.2110 Cl  0  0  0  0  0  0  0  0  0  0  0  0
  140.5050   80.6000  219.3480 C   0  0  0  0  0  0  0  0  0  0  0  0
  138.7058   81.8366  222.3222 H   0  0  0  0  0  0  0  0  0  0  0  0
  139.9140   82.3745  221.1066 H   0  0  0  0  0  0  0  0  0  0  0  0
  138.2633   83.0828  221.1066 H   0  0  0  0  0  0  0  0  0  0  0  0
  137.8952   78.5057  220.0267 H   0  0  0  0  0  0  0  0  0  0  0  0
  139.4512   76.8745  218.9842 H   0  0  0  0  0  0  0  0  0  0  0  0
  142.9326   77.7271  217.9072 H   0  0  0  0  0  0  0  0  0  0  0  0
  140.6470   76.2101  216.6192 H   0  0  0  0  0  0  0  0  0  0  0  0
  141.1799   77.8241  216.0382 H   0  0  0  0  0  0  0  0  0  0  0  0
  142.3305   76.4447  216.0382 H   0  0  0  0  0  0  0  0  0  0  0  0
  141.2900   75.3570  218.8040 H   0  0  0  0  0  0  0  0  0  0  0  0
  142.9065   74.6475  221.3475 H   0  0  0  0  0  0  0  0  0  0  0  0
  145.4977   75.1565  220.3280 H   0  0  0  0  0  0  0  0  0  0  0  0
  145.1451   73.9357  221.5582 H   0  0  0  0  0  0  0  0  0  0  0  0
  145.6686   73.5867  218.6013 H   0  0  0  0  0  0  0  0  0  0  0  0
  145.8760   71.9110  220.8630 H   0  0  0  0  0  0  0  0  0  0  0  0
  143.7993   72.2837  218.1142 H   0  0  0  0  0  0  0  0  0  0  0  0
  143.7761   71.5229  219.7094 H   0  0  0  0  0  0  0  0  0  0  0  0
  139.8361   72.1696  220.6169 H   0  0  0  0  0  0  0  0  0  0  0  0
  141.4407   72.0594  221.4554 H   0  0  0  0  0  0  0  0  0  0  0  0
  140.5980   73.8490  222.7200 H   0  0  0  0  0  0  0  0  0  0  0  0
  137.9891   76.3183  222.5323 H   0  0  0  0  0  0  0  0  0  0  0  0
  138.1706   78.5521  223.6380 H   0  0  0  0  0  0  0  0  0  0  0  0
  139.5248   80.5507  224.1778 H   0  0  0  0  0  0  0  0  0  0  0  0
  143.6103   80.7908  222.7667 H   0  0  0  0  0  0  0  0  0  0  0  0
  143.3777   78.5541  221.6782 H   0  0  0  0  0  0  0  0  0  0  0  0
  140.7977   81.6558  219.4464 H   0  0  0  0  0  0  0  0  0  0  0  0
  1  2  1  0
  2  3  1  0
  3  4  2  0
  4  5  1  0
  5  6  2  0
  6  7  1  0
  7  8  1  0
  7  9  1  0
  9 10  1  0
 10 11  2  0
 10 12  1  0
 12 13  1  0
 13 14  1  0
 14 15  1  0
 14 16  1  0
 16 17  1  0
 17 18  1  0
 18 19  2  0
 18 20  1  0
 20 21  1  0
 21 22  1  0
 22 23  2  0
 22 24  1  0
 24 25  2  0
 25 26  1  0
 26 27  2  0
 27 28  1  0
 28 29  2  0
 29 30  1  0
 29 31  1  0
 31 32  2  0
 32 33  1  0
 33 34  2  0
  6 35  1  0
 35 36  1  0
 35 37  2  0
 37  3  1  0
 17 12  1  0
 34 24  1  0
 33 27  1  0
  1 38  1  0
  1 39  1  0
  1 40  1  0
  4 41  1  0
  5 42  1  0
  7 43  1  6
  8 44  1  0
  8 45  1  0
  8 46  1  0
  9 47  1  0
 12 48  1  1
 13 49  1  0
 13 50  1  0
 14 51  1  6
 15 52  1  0
 16 53  1  0
 16 54  1  0
 20 55  1  0
 20 56  1  0
 21 57  1  0
 25 58  1  0
 26 59  1  0
 28 60  1  0
 31 61  1  0
 32 62  1  0
 37 63  1  0
M  END
>  <UniqueID>  (9) 
1

>  <SMILES>  (9) 
COc1ccc([C@H](C)NC(=O)[C@@H]2C[C@@H](O)CN2C(=O)CNC(=O)c2ccc3cc(F)ccc3n2)c(Cl)c1

>  <Energy>  (9) 
62.67687487480324

>  <Genealogy>  (9) 
COc1ccc([C@H](C)NC(=O)[C@@H]2C[C@@H](O)CN2C(=O)CNC(=O)c2ccc3cc(F)ccc3n2)c(Cl)c1 (3D coordinates assigned)
COc1ccc([C@H](C)NC(=O)[C@@H]2C[C@@H](O)CN2C(=O)CNC(=O)c2ccc3cc(F)ccc3n2)c(Cl)c1 (nonaromatic ring conformer: 62.67687487480324 kcal/mol)

>  <smiles>  (9) 
COc1ccc([C@H](C)NC(=O)[C@@H]2C[C@@H](O)CN2C(=O)CNC(=O)c2ccc3cc(F)ccc3n2)c(Cl)c1

>  <score_type>  (9) 
oracle

>  <origin>  (9) 
autodockgpu

>  <m_score__min__energy>  (9) 
-9.4800000000000004

>  <m_primary>  (9) 
energy

>  <meeko>  (9) 
{"free_energy": -5.56, "intermolecular_energy": -8.24, "internal_energy": -5.53, "cluster_size": 10, "cluster_id": 7, "rank_in_cluster": 9}

>  <energy>  (9) 
-6.51

>  <cluster_rmsd>  (9) 
0.0

>  <rmsd>  (9) 
271.26

>  <cluster>  (9) 
6

$$$$
PMUWBFKMLGLUTF-QDRFXLRBNA-N
     RDKit          3D

 63 66  0  0  0  0  0  0  0  0999 V2000
  138.5140   81.7700  220.8050 C   0  0  0  0  0  0  0  0  0  0  0  0
  138.0400   80.5180  220.3180 O   0  0  0  0  0  0  0  0  0  0  0  0
  138.8510   79.5390  219.7250 C   0  0  0  0  0  0  0  0  0  0  0  0
  138.4180   78.2190  219.5290 C   0  0  0  0  0  0  0  0  0  0  0  0
  139.2640   77.2800  218.9400 C   0  0  0  0  0  0  0  0  0  0  0  0
  140.5660   77.6310  218.5330 C   0  0  0  0  0  0  0  0  0  0  0  0
  141.4370   76.5610  217.8890 C   0  0  2  0  0  0  0  0  0  0  0  0
  140.8280   76.0180  216.5900 C   0  0  0  0  0  0  0  0  0  0  0  0
  141.7260   75.4830  218.8400 N   0  0  0  0  0  0  0  0  0  0  0  0
  142.9360   75.4840  219.6150 C   0  0  0  0  0  0  0  0  0  0  0  0
  143.7100   76.4770  219.5700 O   0  0  0  0  0  0  0  0  0  0  0  0
  143.3530   74.2770  220.4160 C   0  0  2  0  0  0  0  0  0  0  0  0
  144.8780   74.1750  220.5110 C   0  0  0  0  0  0  0  0  0  0  0  0
  145.2740   73.0300  219.5730 C   0  0  1  0  0  0  0  0  0  0  0  0
  146.3640   72.2880  220.0630 O   0  0  0  0  0  0  0  0  0  0  0  0
  144.0170   72.1770  219.4030 C   0  0  0  0  0  0  0  0  0  0  0  0
  142.9100   73.0350  219.7930 N   0  0  0  0  0  0  0  0  0  0  0  0
  141.5710   72.5270  219.9090 C   0  0  0  0  0  0  0  0  0  0  0  0
  140.8580   72.4000  218.8770 O   0  0  0  0  0  0  0  0  0  0  0  0
  140.9810   72.2010  221.2500 C   0  0  0  0  0  0  0  0  0  0  0  0
  140.5630   73.4040  221.9650 N   0  0  0  0  0  0  0  0  0  0  0  0
  139.9110   74.4740  221.2690 C   0  0  0  0  0  0  0  0  0  0  0  0
  139.3640   74.2510  220.1540 O   0  0  0  0  0  0  0  0  0  0  0  0
  139.8940   75.8370  221.8370 C   0  0  0  0  0  0  0  0  0  0  0  0
  138.7360   76.3560  222.4430 C   0  0  0  0  0  0  0  0  0  0  0  0
  138.7370   77.6650  222.9290 C   0  0  0  0  0  0  0  0  0  0  0  0
  139.8890   78.4500  222.8140 C   0  0  0  0  0  0  0  0  0  0  0  0
  139.9250   79.7710  223.2860 C   0  0  0  0  0  0  0  0  0  0  0  0
  141.0930   80.5300  223.1510 C   0  0  0  0  0  0  0  0  0  0  0  0
  141.1260   81.8070  223.6100 F   0  0  0  0  0  0  0  0  0  0  0  0
  142.2280   79.9770  222.5470 C   0  0  0  0  0  0  0  0  0  0  0  0
  142.2000   78.6610  222.0720 C   0  0  0  0  0  0  0  0  0  0  0  0
  141.0370   77.8940  222.2040 C   0  0  0  0  0  0  0  0  0  0  0  0
  141.0060   76.6170  221.7400 N   0  0  0  0  0  0  0  0  0  0  0  0
  140.9980   78.9670  218.7250 C   0  0  0  0  0  0  0  0  0  0  0  0
  142.5950   79.5360  218.2430 Cl  0  0  0  0  0  0  0  0  0  0  0  0
  140.1370   79.9010  219.3160 C   0  0  0  0  0  0  0  0  0  0  0  0
  138.5105   81.7607  221.9049 H   0  0  0  0  0  0  0  0  0  0  0  0
  139.5387   81.9400  220.4430 H   0  0  0  0  0  0  0  0  0  0  0  0
  137.8588   82.5761  220.4430 H   0  0  0  0  0  0  0  0  0  0  0  0
  137.4057   77.9232  219.8417 H   0  0  0  0  0  0  0  0  0  0  0  0
  138.9092   76.2495  218.7909 H   0  0  0  0  0  0  0  0  0  0  0  0
  142.3889   77.0375  217.6119 H   0  0  0  0  0  0  0  0  0  0  0  0
  140.0269   75.3037  216.8311 H   0  0  0  0  0  0  0  0  0  0  0  0
  140.4125   76.8508  216.0037 H   0  0  0  0  0  0  0  0  0  0  0  0
  141.6079   75.5101  216.0037 H   0  0  0  0  0  0  0  0  0  0  0  0
  141.0820   74.6620  218.9040 H   0  0  0  0  0  0  0  0  0  0  0  0
  142.8937   74.4069  221.4071 H   0  0  0  0  0  0  0  0  0  0  0  0
  145.3466   75.1160  220.1872 H   0  0  0  0  0  0  0  0  0  0  0  0
  145.2098   73.9887  221.5431 H   0  0  0  0  0  0  0  0  0  0  0  0
  145.6231   73.4159  218.6039 H   0  0  0  0  0  0  0  0  0  0  0  0
  146.0640   71.8030  220.8760 H   0  0  0  0  0  0  0  0  0  0  0  0
  143.9067   71.8593  218.3557 H   0  0  0  0  0  0  0  0  0  0  0  0
  144.0589   71.2623  220.0125 H   0  0  0  0  0  0  0  0  0  0  0  0
  140.1059   71.5504  221.1054 H   0  0  0  0  0  0  0  0  0  0  0  0
  141.7530   71.6972  221.8501 H   0  0  0  0  0  0  0  0  0  0  0  0
  140.7860   73.5120  222.9810 H   0  0  0  0  0  0  0  0  0  0  0  0
  137.8335   75.7336  222.5337 H   0  0  0  0  0  0  0  0  0  0  0  0
  137.8336   78.0781  223.4014 H   0  0  0  0  0  0  0  0  0  0  0  0
  139.0356   80.2097  223.7619 H   0  0  0  0  0  0  0  0  0  0  0  0
  143.1437   80.5779  222.4455 H   0  0  0  0  0  0  0  0  0  0  0  0
  143.0922   78.2294  221.5949 H   0  0  0  0  0  0  0  0  0  0  0  0
  140.4791   80.9364  219.4604 H   0  0  0  0  0  0  0  0  0  0  0  0
  1  2  1  0
  2  3  1  0
  3  4  2  0
  4  5  1  0
  5  6  2  0
  6  7  1  0
  7  8  1  0
  7  9  1  0
  9 10  1  0
 10 11  2  0
 10 12  1  0
 12 13  1  0
 13 14  1  0
 14 15  1  0
 14 16  1  0
 16 17  1  0
 17 18  1  0
 18 19  2  0
 18 20  1  0
 20 21  1  0
 21 22  1  0
 22 23  2  0
 22 24  1  0
 24 25  2  0
 25 26  1  0
 26 27  2  0
 27 28  1  0
 28 29  2  0
 29 30  1  0
 29 31  1  0
 31 32  2  0
 32 33  1  0
 33 34  2  0
  6 35  1  0
 35 36  1  0
 35 37  2  0
 37  3  1  0
 17 12  1  0
 34 24  1  0
 33 27  1  0
  1 38  1  0
  1 39  1  0
  1 40  1  0
  4 41  1  0
  5 42  1  0
  7 43  1  6
  8 44  1  0
  8 45  1  0
  8 46  1  0
  9 47  1  0
 12 48  1  1
 13 49  1  0
 13 50  1  0
 14 51  1  6
 15 52  1  0
 16 53  1  0
 16 54  1  0
 20 55  1  0
 20 56  1  0
 21 57  1  0
 25 58  1  0
 26 59  1  0
 28 60  1  0
 31 61  1  0
 32 62  1  0
 37 63  1  0
M  END
>  <UniqueID>  (10) 
1

>  <SMILES>  (10) 
COc1ccc([C@H](C)NC(=O)[C@@H]2C[C@@H](O)CN2C(=O)CNC(=O)c2ccc3cc(F)ccc3n2)c(Cl)c1

>  <Energy>  (10) 
62.67687487480324

>  <Genealogy>  (10) 
COc1ccc([C@H](C)NC(=O)[C@@H]2C[C@@H](O)CN2C(=O)CNC(=O)c2ccc3cc(F)ccc3n2)c(Cl)c1 (3D coordinates assigned)
COc1ccc([C@H](C)NC(=O)[C@@H]2C[C@@H](O)CN2C(=O)CNC(=O)c2ccc3cc(F)ccc3n2)c(Cl)c1 (nonaromatic ring conformer: 62.67687487480324 kcal/mol)

>  <smiles>  (10) 
COc1ccc([C@H](C)NC(=O)[C@@H]2C[C@@H](O)CN2C(=O)CNC(=O)c2ccc3cc(F)ccc3n2)c(Cl)c1

>  <score_type>  (10) 
oracle

>  <origin>  (10) 
autodockgpu

>  <m_score__min__energy>  (10) 
-9.4800000000000004

>  <m_primary>  (10) 
energy

>  <meeko>  (10) 
{"free_energy": -5.22, "intermolecular_energy": -7.9, "internal_energy": -5.73, "cluster_size": 10, "cluster_id": 7, "rank_in_cluster": 10}

>  <energy>  (10) 
-6.14

>  <cluster_rmsd>  (10) 
0.0

>  <rmsd>  (10) 
271.51

>  <cluster>  (10) 
7

$$$$
PMUWBFKMLGLUTF-QDRFXLRBNA-N
     RDKit          3D

 63 66  0  0  0  0  0  0  0  0999 V2000
  140.1250   82.5210  220.8790 C   0  0  0  0  0  0  0  0  0  0  0  0
  141.2270   82.1540  220.0550 O   0  0  0  0  0  0  0  0  0  0  0  0
  141.3720   80.9030  219.4360 C   0  0  0  0  0  0  0  0  0  0  0  0
  142.5600   80.5100  218.8020 C   0  0  0  0  0  0  0  0  0  0  0  0
  142.6530   79.2570  218.1940 C   0  0  0  0  0  0  0  0  0  0  0  0
  141.5630   78.3650  218.2000 C   0  0  0  0  0  0  0  0  0  0  0  0
  141.7320   77.0100  217.5280 C   0  0  2  0  0  0  0  0  0  0  0  0
  140.6100   76.7130  216.5260 C   0  0  0  0  0  0  0  0  0  0  0  0
  141.8570   75.9440  218.5280 N   0  0  0  0  0  0  0  0  0  0  0  0
  143.0130   75.8580  219.3770 C   0  0  0  0  0  0  0  0  0  0  0  0
  143.8830   76.7690  219.3490 O   0  0  0  0  0  0  0  0  0  0  0  0
  143.2620   74.6460  220.2380 C   0  0  2  0  0  0  0  0  0  0  0  0
  144.7600   74.4360  220.4800 C   0  0  0  0  0  0  0  0  0  0  0  0
  145.1530   73.2390  219.6080 C   0  0  1  0  0  0  0  0  0  0  0  0
  146.1340   72.4330  220.2150 O   0  0  0  0  0  0  0  0  0  0  0  0
  143.8570   72.4760  219.3370 C   0  0  0  0  0  0  0  0  0  0  0  0
  142.7870   73.4230  219.6020 N   0  0  0  0  0  0  0  0  0  0  0  0
  141.4070   73.0180  219.6020 C   0  0  0  0  0  0  0  0  0  0  0  0
  140.7550   73.0220  218.5230 O   0  0  0  0  0  0  0  0  0  0  0  0
  140.7100   72.6470  220.8770 C   0  0  0  0  0  0  0  0  0  0  0  0
  140.3850   73.8230  221.6800 N   0  0  0  0  0  0  0  0  0  0  0  0
  139.9160   75.0240  221.0530 C   0  0  0  0  0  0  0  0  0  0  0  0
  139.4290   74.9710  219.8890 O   0  0  0  0  0  0  0  0  0  0  0  0
  140.0170   76.3210  221.7480 C   0  0  0  0  0  0  0  0  0  0  0  0
  138.9200   76.8590  222.4450 C   0  0  0  0  0  0  0  0  0  0  0  0
  139.0320   78.1110  223.0540 C   0  0  0  0  0  0  0  0  0  0  0  0
  140.2360   78.8200  222.9710 C   0  0  0  0  0  0  0  0  0  0  0  0
  140.3830   80.0820  223.5670 C   0  0  0  0  0  0  0  0  0  0  0  0
  141.5990   80.7670  223.4610 C   0  0  0  0  0  0  0  0  0  0  0  0
  141.7410   81.9860  224.0380 F   0  0  0  0  0  0  0  0  0  0  0  0
  142.6710   80.1970  222.7630 C   0  0  0  0  0  0  0  0  0  0  0  0
  142.5310   78.9390  222.1660 C   0  0  0  0  0  0  0  0  0  0  0  0
  141.3200   78.2470  222.2680 C   0  0  0  0  0  0  0  0  0  0  0  0
  141.1800   77.0280  221.6840 N   0  0  0  0  0  0  0  0  0  0  0  0
  140.3670   78.7620  218.8490 C   0  0  0  0  0  0  0  0  0  0  0  0
  138.9400   77.7320  218.9420 Cl  0  0  0  0  0  0  0  0  0  0  0  0
  140.2870   80.0220  219.4570 C   0  0  0  0  0  0  0  0  0  0  0  0
  140.4106   82.4259  221.9370 H   0  0  0  0  0  0  0  0  0  0  0  0
  139.8404   83.5624  220.6682 H   0  0  0  0  0  0  0  0  0  0  0  0
  139.2728   81.8582  220.6682 H   0  0  0  0  0  0  0  0  0  0  0  0
  143.4224   81.1926  218.7839 H   0  0  0  0  0  0  0  0  0  0  0  0
  143.5918   78.9617  217.7027 H   0  0  0  0  0  0  0  0  0  0  0  0
  142.6663   77.0470  216.9486 H   0  0  0  0  0  0  0  0  0  0  0  0
  139.6865   76.4685  217.0714 H   0  0  0  0  0  0  0  0  0  0  0  0
  140.4394   77.5969  215.8939 H   0  0  0  0  0  0  0  0  0  0  0  0
  140.8991   75.8604  215.8939 H   0  0  0  0  0  0  0  0  0  0  0  0
  141.1330   75.1920  218.5770 H   0  0  0  0  0  0  0  0  0  0  0  0
  142.7232   74.8362  221.1780 H   0  0  0  0  0  0  0  0  0  0  0  0
  145.3264   75.3307  220.1822 H   0  0  0  0  0  0  0  0  0  0  0  0
  144.9799   74.2558  221.5426 H   0  0  0  0  0  0  0  0  0  0  0  0
  145.6183   73.5710  218.6682 H   0  0  0  0  0  0  0  0  0  0  0  0
  145.6890   71.8780  220.9070 H   0  0  0  0  0  0  0  0  0  0  0  0
  143.8212   72.1382  218.2908 H   0  0  0  0  0  0  0  0  0  0  0  0
  143.7726   71.5779  219.9665 H   0  0  0  0  0  0  0  0  0  0  0  0
  139.7790   72.1149  220.6319 H   0  0  0  0  0  0  0  0  0  0  0  0
  141.3875   72.0092  221.4637 H   0  0  0  0  0  0  0  0  0  0  0  0
  140.5440   73.8120  222.7130 H   0  0  0  0  0  0  0  0  0  0  0  0
  137.9774   76.2958  222.5102 H   0  0  0  0  0  0  0  0  0  0  0  0
  138.1764   78.5386  223.5973 H   0  0  0  0  0  0  0  0  0  0  0  0
  139.5435   80.5324  224.1169 H   0  0  0  0  0  0  0  0  0  0  0  0
  143.6249   80.7391  222.6838 H   0  0  0  0  0  0  0  0  0  0  0  0
  143.3737   78.4944  221.6164 H   0  0  0  0  0  0  0  0  0  0  0  0
  139.3554   80.3226  219.9588 H   0  0  0  0  0  0  0  0  0  0  0  0
  1  2  1  0
  2  3  1  0
  3  4  2  0
  4  5  1  0
  5  6  2  0
  6  7  1  0
  7  8  1  0
  7  9  1  0
  9 10  1  0
 10 11  2  0
 10 12  1  0
 12 13  1  0
 13 14  1  0
 14 15  1  0
 14 16  1  0
 16 17  1  0
 17 18  1  0
 18 19  2  0
 18 20  1  0
 20 21  1  0
 21 22  1  0
 22 23  2  0
 22 24  1  0
 24 25  2  0
 25 26  1  0
 26 27  2  0
 27 28  1  0
 28 29  2  0
 29 30  1  0
 29 31  1  0
 31 32  2  0
 32 33  1  0
 33 34  2  0
  6 35  1  0
 35 36  1  0
 35 37  2  0
 37  3  1  0
 17 12  1  0
 34 24  1  0
 33 27  1  0
  1 38  1  0
  1 39  1  0
  1 40  1  0
  4 41  1  0
  5 42  1  0
  7 43  1  6
  8 44  1  0
  8 45  1  0
  8 46  1  0
  9 47  1  0
 12 48  1  1
 13 49  1  0
 13 50  1  0
 14 51  1  6
 15 52  1  0
 16 53  1  0
 16 54  1  0
 20 55  1  0
 20 56  1  0
 21 57  1  0
 25 58  1  0
 26 59  1  0
 28 60  1  0
 31 61  1  0
 32 62  1  0
 37 63  1  0
M  END
>  <UniqueID>  (11) 
1

>  <SMILES>  (11) 
COc1ccc([C@H](C)NC(=O)[C@@H]2C[C@@H](O)CN2C(=O)CNC(=O)c2ccc3cc(F)ccc3n2)c(Cl)c1

>  <Energy>  (11) 
62.67687487480324

>  <Genealogy>  (11) 
COc1ccc([C@H](C)NC(=O)[C@@H]2C[C@@H](O)CN2C(=O)CNC(=O)c2ccc3cc(F)ccc3n2)c(Cl)c1 (3D coordinates assigned)
COc1ccc([C@H](C)NC(=O)[C@@H]2C[C@@H](O)CN2C(=O)CNC(=O)c2ccc3cc(F)ccc3n2)c(Cl)c1 (nonaromatic ring conformer: 62.67687487480324 kcal/mol)

>  <smiles>  (11) 
COc1ccc([C@H](C)NC(=O)[C@@H]2C[C@@H](O)CN2C(=O)CNC(=O)c2ccc3cc(F)ccc3n2)c(Cl)c1

>  <score_type>  (11) 
oracle

>  <origin>  (11) 
autodockgpu

>  <m_score__min__energy>  (11) 
-9.4800000000000004

>  <m_primary>  (11) 
energy

>  <meeko>  (11) 
{"free_energy": -5.82, "intermolecular_energy": -8.51, "internal_energy": -5.46, "cluster_size": 10, "cluster_id": 7, "rank_in_cluster": 4}

>  <energy>  (11) 
-5.96

>  <cluster_rmsd>  (11) 
0.57

>  <rmsd>  (11) 
271.27

>  <cluster>  (11) 
7

$$$$
PMUWBFKMLGLUTF-QDRFXLRBNA-N
     RDKit          3D

 63 66  0  0  0  0  0  0  0  0999 V2000
  140.4180   82.8080  221.0580 C   0  0  0  0  0  0  0  0  0  0  0  0
  141.3850   82.3830  220.1040 O   0  0  0  0  0  0  0  0  0  0  0  0
  141.4150   81.1080  219.5190 C   0  0  0  0  0  0  0  0  0  0  0  0
  142.5650   80.5870  218.9060 C   0  0  0  0  0  0  0  0  0  0  0  0
  142.5430   79.3150  218.3330 C   0  0  0  0  0  0  0  0  0  0  0  0
  141.3740   78.5300  218.3550 C   0  0  0  0  0  0  0  0  0  0  0  0
  141.4190   77.1470  217.7200 C   0  0  2  0  0  0  0  0  0  0  0  0
  140.2830   76.9310  216.7120 C   0  0  0  0  0  0  0  0  0  0  0  0
  141.4310   76.1020  218.7500 N   0  0  0  0  0  0  0  0  0  0  0  0
  142.5840   75.8960  219.5820 C   0  0  0  0  0  0  0  0  0  0  0  0
  143.5590   76.6910  219.5130 O   0  0  0  0  0  0  0  0  0  0  0  0
  142.6970   74.6880  220.4760 C   0  0  2  0  0  0  0  0  0  0  0  0
  144.1620   74.2870  220.6830 C   0  0  0  0  0  0  0  0  0  0  0  0
  144.3660   73.0240  219.8400 C   0  0  1  0  0  0  0  0  0  0  0  0
  145.2510   72.1130  220.4460 O   0  0  0  0  0  0  0  0  0  0  0  0
  142.9730   72.4320  219.6300 C   0  0  0  0  0  0  0  0  0  0  0  0
  142.0460   73.5200  219.8930 N   0  0  0  0  0  0  0  0  0  0  0  0
  140.6260   73.3020  219.9440 C   0  0  0  0  0  0  0  0  0  0  0  0
  139.9440   73.3760  218.8860 O   0  0  0  0  0  0  0  0  0  0  0  0
  139.9280   73.0470  221.2470 C   0  0  0  0  0  0  0  0  0  0  0  0
  139.7560   74.2740  222.0200 N   0  0  0  0  0  0  0  0  0  0  0  0
  139.4930   75.5190  221.3580 C   0  0  0  0  0  0  0  0  0  0  0  0
  139.0430   75.5160  220.1790 O   0  0  0  0  0  0  0  0  0  0  0  0
  139.7640   76.8010  222.0370 C   0  0  0  0  0  0  0  0  0  0  0  0
  138.7420   77.4980  222.7070 C   0  0  0  0  0  0  0  0  0  0  0  0
  139.0180   78.7310  223.3010 C   0  0  0  0  0  0  0  0  0  0  0  0
  140.3100   79.2640  223.2290 C   0  0  0  0  0  0  0  0  0  0  0  0
  140.6240   80.5030  223.8090 C   0  0  0  0  0  0  0  0  0  0  0  0
  141.9250   81.0090  223.7140 C   0  0  0  0  0  0  0  0  0  0  0  0
  142.2270   82.2060  224.2770 F   0  0  0  0  0  0  0  0  0  0  0  0
  142.9170   80.2840  223.0440 C   0  0  0  0  0  0  0  0  0  0  0  0
  142.6120   79.0490  222.4620 C   0  0  0  0  0  0  0  0  0  0  0  0
  141.3140   78.5340  222.5520 C   0  0  0  0  0  0  0  0  0  0  0  0
  141.0150   77.3370  221.9840 N   0  0  0  0  0  0  0  0  0  0  0  0
  140.2170   79.0550  218.9820 C   0  0  0  0  0  0  0  0  0  0  0  0
  138.7000   78.1660  219.0920 Cl  0  0  0  0  0  0  0  0  0  0  0  0
  140.2530   80.3330  219.5560 C   0  0  0  0  0  0  0  0  0  0  0  0
  140.8053   82.6378  222.0734 H   0  0  0  0  0  0  0  0  0  0  0  0
  140.2121   83.8796  220.9189 H   0  0  0  0  0  0  0  0  0  0  0  0
  139.4893   82.2351  220.9189 H   0  0  0  0  0  0  0  0  0  0  0  0
  143.4882   81.1844  218.8772 H   0  0  0  0  0  0  0  0  0  0  0  0
  143.4523   78.9194  217.8569 H   0  0  0  0  0  0  0  0  0  0  0  0
  142.3578   77.0787  217.1508 H   0  0  0  0  0  0  0  0  0  0  0  0
  139.3420   76.7521  217.2528 H   0  0  0  0  0  0  0  0  0  0  0  0
  140.1784   77.8254  216.0802 H   0  0  0  0  0  0  0  0  0  0  0  0
  140.5140   76.0607  216.0802 H   0  0  0  0  0  0  0  0  0  0  0  0
  140.6200   75.4470  218.8330 H   0  0  0  0  0  0  0  0  0  0  0  0
  142.2174   74.9759  221.4231 H   0  0  0  0  0  0  0  0  0  0  0  0
  144.8319   75.0896  220.3407 H   0  0  0  0  0  0  0  0  0  0  0  0
  144.3895   74.1093  221.7444 H   0  0  0  0  0  0  0  0  0  0  0  0
  144.8407   73.2642  218.8772 H   0  0  0  0  0  0  0  0  0  0  0  0
  144.8490   71.8230  221.3070 H   0  0  0  0  0  0  0  0  0  0  0  0
  142.8600   72.0717  218.5968 H   0  0  0  0  0  0  0  0  0  0  0  0
  142.7910   71.5716  220.2907 H   0  0  0  0  0  0  0  0  0  0  0  0
  138.9379   72.6140  221.0416 H   0  0  0  0  0  0  0  0  0  0  0  0
  140.5476   72.3556  221.8369 H   0  0  0  0  0  0  0  0  0  0  0  0
  139.8770   74.2610  223.0580 H   0  0  0  0  0  0  0  0  0  0  0  0
  137.7290   77.0730  222.7627 H   0  0  0  0  0  0  0  0  0  0  0  0
  138.2223   79.2818  223.8240 H   0  0  0  0  0  0  0  0  0  0  0  0
  139.8479   81.0757  224.3378 H   0  0  0  0  0  0  0  0  0  0  0  0
  143.9386   80.6860  222.9749 H   0  0  0  0  0  0  0  0  0  0  0  0
  143.3928   78.4825  221.9334 H   0  0  0  0  0  0  0  0  0  0  0  0
  139.3516   80.7325  220.0437 H   0  0  0  0  0  0  0  0  0  0  0  0
  1  2  1  0
  2  3  1  0
  3  4  2  0
  4  5  1  0
  5  6  2  0
  6  7  1  0
  7  8  1  0
  7  9  1  0
  9 10  1  0
 10 11  2  0
 10 12  1  0
 12 13  1  0
 13 14  1  0
 14 15  1  0
 14 16  1  0
 16 17  1  0
 17 18  1  0
 18 19  2  0
 18 20  1  0
 20 21  1  0
 21 22  1  0
 22 23  2  0
 22 24  1  0
 24 25  2  0
 25 26  1  0
 26 27  2  0
 27 28  1  0
 28 29  2  0
 29 30  1  0
 29 31  1  0
 31 32  2  0
 32 33  1  0
 33 34  2  0
  6 35  1  0
 35 36  1  0
 35 37  2  0
 37  3  1  0
 17 12  1  0
 34 24  1  0
 33 27  1  0
  1 38  1  0
  1 39  1  0
  1 40  1  0
  4 41  1  0
  5 42  1  0
  7 43  1  6
  8 44  1  0
  8 45  1  0
  8 46  1  0
  9 47  1  0
 12 48  1  1
 13 49  1  0
 13 50  1  0
 14 51  1  6
 15 52  1  0
 16 53  1  0
 16 54  1  0
 20 55  1  0
 20 56  1  0
 21 57  1  0
 25 58  1  0
 26 59  1  0
 28 60  1  0
 31 61  1  0
 32 62  1  0
 37 63  1  0
M  END
>  <UniqueID>  (12) 
1

>  <SMILES>  (12) 
COc1ccc([C@H](C)NC(=O)[C@@H]2C[C@@H](O)CN2C(=O)CNC(=O)c2ccc3cc(F)ccc3n2)c(Cl)c1

>  <Energy>  (12) 
62.67687487480324

>  <Genealogy>  (12) 
COc1ccc([C@H](C)NC(=O)[C@@H]2C[C@@H](O)CN2C(=O)CNC(=O)c2ccc3cc(F)ccc3n2)c(Cl)c1 (3D coordinates assigned)
COc1ccc([C@H](C)NC(=O)[C@@H]2C[C@@H](O)CN2C(=O)CNC(=O)c2ccc3cc(F)ccc3n2)c(Cl)c1 (nonaromatic ring conformer: 62.67687487480324 kcal/mol)

>  <smiles>  (12) 
COc1ccc([C@H](C)NC(=O)[C@@H]2C[C@@H](O)CN2C(=O)CNC(=O)c2ccc3cc(F)ccc3n2)c(Cl)c1

>  <score_type>  (12) 
oracle

>  <origin>  (12) 
autodockgpu

>  <m_score__min__energy>  (12) 
-9.4800000000000004

>  <m_primary>  (12) 
energy

>  <meeko>  (12) 
{"free_energy": -5.85, "intermolecular_energy": -8.54, "internal_energy": -5.38, "cluster_size": 10, "cluster_id": 7, "rank_in_cluster": 3}

>  <energy>  (12) 
-5.85

>  <cluster_rmsd>  (12) 
0.9

>  <rmsd>  (12) 
271.39

>  <cluster>  (12) 
7

$$$$
PMUWBFKMLGLUTF-QDRFXLRBNA-N
     RDKit          3D

 63 66  0  0  0  0  0  0  0  0999 V2000
  139.8620   69.0840  219.6260 C   0  0  0  0  0  0  0  0  0  0  0  0
  141.1960   69.4580  219.9550 O   0  0  0  0  0  0  0  0  0  0  0  0
  141.6850   70.7720  219.9100 C   0  0  0  0  0  0  0  0  0  0  0  0
  142.8480   71.1680  220.5900 C   0  0  0  0  0  0  0  0  0  0  0  0
  143.2900   72.4880  220.5190 C   0  0  0  0  0  0  0  0  0  0  0  0
  142.5850   73.4510  219.7710 C   0  0  0  0  0  0  0  0  0  0  0  0
  143.1260   74.8730  219.7270 C   0  0  2  0  0  0  0  0  0  0  0  0
  144.5690   74.9650  220.2390 C   0  0  0  0  0  0  0  0  0  0  0  0
  142.2380   75.7900  220.4530 N   0  0  0  0  0  0  0  0  0  0  0  0
  141.5240   76.8280  219.7630 C   0  0  0  0  0  0  0  0  0  0  0  0
  141.5620   76.8880  218.5050 O   0  0  0  0  0  0  0  0  0  0  0  0
  140.7990   77.9130  220.5180 C   0  0  2  0  0  0  0  0  0  0  0  0
  141.7760   78.9660  221.0480 C   0  0  0  0  0  0  0  0  0  0  0  0
  141.8740   78.7150  222.5570 C   0  0  1  0  0  0  0  0  0  0  0  0
  142.0170   79.9080  223.2900 O   0  0  0  0  0  0  0  0  0  0  0  0
  140.6080   77.9470  222.9350 C   0  0  0  0  0  0  0  0  0  0  0  0
  140.1080   77.3870  221.6900 N   0  0  0  0  0  0  0  0  0  0  0  0
  138.8360   76.7200  221.6230 C   0  0  0  0  0  0  0  0  0  0  0  0
  137.8110   77.2790  222.0990 O   0  0  0  0  0  0  0  0  0  0  0  0
  138.7170   75.3400  221.0480 C   0  0  0  0  0  0  0  0  0  0  0  0
  138.7340   74.3150  222.0890 N   0  0  0  0  0  0  0  0  0  0  0  0
  139.9100   73.5260  222.3130 C   0  0  0  0  0  0  0  0  0  0  0  0
  141.0270   73.9400  221.8970 O   0  0  0  0  0  0  0  0  0  0  0  0
  139.8200   72.2270  223.0060 C   0  0  0  0  0  0  0  0  0  0  0  0
  139.0770   71.1630  222.4620 C   0  0  0  0  0  0  0  0  0  0  0  0
  138.9720   69.9610  223.1640 C   0  0  0  0  0  0  0  0  0  0  0  0
  139.6090   69.8190  224.4020 C   0  0  0  0  0  0  0  0  0  0  0  0
  139.5210   68.6280  225.1370 C   0  0  0  0  0  0  0  0  0  0  0  0
  140.1670   68.5210  226.3750 C   0  0  0  0  0  0  0  0  0  0  0  0
  140.0830   67.3680  227.0840 F   0  0  0  0  0  0  0  0  0  0  0  0
  140.9020   69.6000  226.8820 C   0  0  0  0  0  0  0  0  0  0  0  0
  140.9930   70.7920  226.1550 C   0  0  0  0  0  0  0  0  0  0  0  0
  140.3520   70.9060  224.9160 C   0  0  0  0  0  0  0  0  0  0  0  0
  140.4350   72.0650  224.2110 N   0  0  0  0  0  0  0  0  0  0  0  0
  141.4160   73.0470  219.0790 C   0  0  0  0  0  0  0  0  0  0  0  0
  140.4550   74.1490  218.0950 Cl  0  0  0  0  0  0  0  0  0  0  0  0
  140.9830   71.7160  219.1570 C   0  0  0  0  0  0  0  0  0  0  0  0
  139.2878   68.9230  220.5503 H   0  0  0  0  0  0  0  0  0  0  0  0
  139.3914   69.8848  219.0368 H   0  0  0  0  0  0  0  0  0  0  0  0
  139.8763   68.1552  219.0368 H   0  0  0  0  0  0  0  0  0  0  0  0
  143.4131   70.4328  221.1817 H   0  0  0  0  0  0  0  0  0  0  0  0
  144.2040   72.7823  221.0557 H   0  0  0  0  0  0  0  0  0  0  0  0
  143.1499   75.1808  218.6712 H   0  0  0  0  0  0  0  0  0  0  0  0
  144.5685   74.9650  221.3390 H   0  0  0  0  0  0  0  0  0  0  0  0
  145.1438   74.1017  219.8726 H   0  0  0  0  0  0  0  0  0  0  0  0
  145.0295   75.8943  219.8726 H   0  0  0  0  0  0  0  0  0  0  0  0
  142.1810   75.7380  221.4950 H   0  0  0  0  0  0  0  0  0  0  0  0
  140.0861   78.3466  219.8012 H   0  0  0  0  0  0  0  0  0  0  0  0
  142.7618   78.8481  220.5743 H   0  0  0  0  0  0  0  0  0  0  0  0
  141.4330   79.9875  220.8267 H   0  0  0  0  0  0  0  0  0  0  0  0
  142.7755   78.1349  222.8036 H   0  0  0  0  0  0  0  0  0  0  0  0
  141.1690   80.4190  223.2130 H   0  0  0  0  0  0  0  0  0  0  0  0
  140.8438   77.1451  223.6501 H   0  0  0  0  0  0  0  0  0  0  0  0
  139.8643   78.5980  223.4178 H   0  0  0  0  0  0  0  0  0  0  0  0
  137.7710   75.2665  220.4914 H   0  0  0  0  0  0  0  0  0  0  0  0
  139.5792   75.1697  220.3865 H   0  0  0  0  0  0  0  0  0  0  0  0
  137.8690   74.1150  222.6410 H   0  0  0  0  0  0  0  0  0  0  0  0
  138.5807   71.2780  221.4871 H   0  0  0  0  0  0  0  0  0  0  0  0
  138.3898   69.1271  222.7449 H   0  0  0  0  0  0  0  0  0  0  0  0
  138.9450   67.7784  224.7415 H   0  0  0  0  0  0  0  0  0  0  0  0
  141.4089   69.5101  227.8541 H   0  0  0  0  0  0  0  0  0  0  0  0
  141.5681   71.6392  226.5570 H   0  0  0  0  0  0  0  0  0  0  0  0
  140.0753   71.4099  218.6162 H   0  0  0  0  0  0  0  0  0  0  0  0
  1  2  1  0
  2  3  1  0
  3  4  2  0
  4  5  1  0
  5  6  2  0
  6  7  1  0
  7  8  1  0
  7  9  1  0
  9 10  1  0
 10 11  2  0
 10 12  1  0
 12 13  1  0
 13 14  1  0
 14 15  1  0
 14 16  1  0
 16 17  1  0
 17 18  1  0
 18 19  2  0
 18 20  1  0
 20 21  1  0
 21 22  1  0
 22 23  2  0
 22 24  1  0
 24 25  2  0
 25 26  1  0
 26 27  2  0
 27 28  1  0
 28 29  2  0
 29 30  1  0
 29 31  1  0
 31 32  2  0
 32 33  1  0
 33 34  2  0
  6 35  1  0
 35 36  1  0
 35 37  2  0
 37  3  1  0
 17 12  1  0
 34 24  1  0
 33 27  1  0
  1 38  1  0
  1 39  1  0
  1 40  1  0
  4 41  1  0
  5 42  1  0
  7 43  1  6
  8 44  1  0
  8 45  1  0
  8 46  1  0
  9 47  1  0
 12 48  1  6
 13 49  1  0
 13 50  1  0
 14 51  1  6
 15 52  1  0
 16 53  1  0
 16 54  1  0
 20 55  1  0
 20 56  1  0
 21 57  1  0
 25 58  1  0
 26 59  1  0
 28 60  1  0
 31 61  1  0
 32 62  1  0
 37 63  1  0
M  END
>  <UniqueID>  (13) 
1

>  <SMILES>  (13) 
COc1ccc([C@H](C)NC(=O)[C@@H]2C[C@@H](O)CN2C(=O)CNC(=O)c2ccc3cc(F)ccc3n2)c(Cl)c1

>  <Energy>  (13) 
62.67687487480324

>  <Genealogy>  (13) 
COc1ccc([C@H](C)NC(=O)[C@@H]2C[C@@H](O)CN2C(=O)CNC(=O)c2ccc3cc(F)ccc3n2)c(Cl)c1 (3D coordinates assigned)
COc1ccc([C@H](C)NC(=O)[C@@H]2C[C@@H](O)CN2C(=O)CNC(=O)c2ccc3cc(F)ccc3n2)c(Cl)c1 (nonaromatic ring conformer: 62.67687487480324 kcal/mol)

>  <smiles>  (13) 
COc1ccc([C@H](C)NC(=O)[C@@H]2C[C@@H](O)CN2C(=O)CNC(=O)c2ccc3cc(F)ccc3n2)c(Cl)c1

>  <score_type>  (13) 
oracle

>  <origin>  (13) 
autodockgpu

>  <m_score__min__energy>  (13) 
-9.4800000000000004

>  <m_primary>  (13) 
energy

>  <meeko>  (13) 
{"free_energy": -6.51, "intermolecular_energy": -9.2, "internal_energy": -3.72, "cluster_size": 1, "cluster_id": 6, "rank_in_cluster": 1}

>  <energy>  (13) 
-5.82

>  <cluster_rmsd>  (13) 
0.73

>  <rmsd>  (13) 
271.28

>  <cluster>  (13) 
7

$$$$
PMUWBFKMLGLUTF-QDRFXLRBNA-N
     RDKit          3D

 63 66  0  0  0  0  0  0  0  0999 V2000
  133.4410   71.9830  227.0910 C   0  0  0  0  0  0  0  0  0  0  0  0
  133.3630   73.3830  226.8480 O   0  0  0  0  0  0  0  0  0  0  0  0
  134.0660   74.0520  225.8340 C   0  0  0  0  0  0  0  0  0  0  0  0
  134.0630   75.4500  225.7110 C   0  0  0  0  0  0  0  0  0  0  0  0
  134.7730   76.0680  224.6820 C   0  0  0  0  0  0  0  0  0  0  0  0
  135.5020   75.3100  223.7450 C   0  0  0  0  0  0  0  0  0  0  0  0
  136.2620   76.0460  222.6510 C   0  0  2  0  0  0  0  0  0  0  0  0
  135.9340   75.5100  221.2520 C   0  0  0  0  0  0  0  0  0  0  0  0
  137.7050   76.0200  222.9120 N   0  0  0  0  0  0  0  0  0  0  0  0
  138.5740   77.0270  222.3680 C   0  0  0  0  0  0  0  0  0  0  0  0
  138.0860   78.0130  221.7540 O   0  0  0  0  0  0  0  0  0  0  0  0
  140.0730   76.8840  222.4330 C   0  0  2  0  0  0  0  0  0  0  0  0
  140.7290   78.1640  222.9600 C   0  0  0  0  0  0  0  0  0  0  0  0
  141.3750   78.8280  221.7390 C   0  0  1  0  0  0  0  0  0  0  0  0
  142.5860   79.4720  222.0570 O   0  0  0  0  0  0  0  0  0  0  0  0
  141.5600   77.7160  220.7080 C   0  0  0  0  0  0  0  0  0  0  0  0
  140.6520   76.6560  221.1130 N   0  0  0  0  0  0  0  0  0  0  0  0
  140.6560   75.3730  220.4650 C   0  0  0  0  0  0  0  0  0  0  0  0
  141.5770   75.0850  219.6540 O   0  0  0  0  0  0  0  0  0  0  0  0
  139.5460   74.3900  220.6900 C   0  0  0  0  0  0  0  0  0  0  0  0
  139.6490   73.7440  221.9960 N   0  0  0  0  0  0  0  0  0  0  0  0
  140.3870   72.5240  222.1470 C   0  0  0  0  0  0  0  0  0  0  0  0
  141.2430   72.2010  221.2780 O   0  0  0  0  0  0  0  0  0  0  0  0
  140.1370   71.6350  223.2980 C   0  0  0  0  0  0  0  0  0  0  0  0
  139.2960   70.5140  223.1810 C   0  0  0  0  0  0  0  0  0  0  0  0
  139.0410   69.7190  224.3000 C   0  0  0  0  0  0  0  0  0  0  0  0
  139.6280   70.0390  225.5300 C   0  0  0  0  0  0  0  0  0  0  0  0
  139.3920   69.2650  226.6760 C   0  0  0  0  0  0  0  0  0  0  0  0
  139.9910   69.6160  227.8920 C   0  0  0  0  0  0  0  0  0  0  0  0
  139.7630   68.8670  228.9990 F   0  0  0  0  0  0  0  0  0  0  0  0
  140.8270   70.7360  227.9680 C   0  0  0  0  0  0  0  0  0  0  0  0
  141.0670   71.5130  226.8300 C   0  0  0  0  0  0  0  0  0  0  0  0
  140.4730   71.1690  225.6100 C   0  0  0  0  0  0  0  0  0  0  0  0
  140.7010   71.9250  224.5040 N   0  0  0  0  0  0  0  0  0  0  0  0
  135.5090   73.8980  223.8760 C   0  0  0  0  0  0  0  0  0  0  0  0
  136.3950   72.8390  222.7820 Cl  0  0  0  0  0  0  0  0  0  0  0  0
  134.7940   73.2900  224.9160 C   0  0  0  0  0  0  0  0  0  0  0  0
  133.4512   71.7991  228.1755 H   0  0  0  0  0  0  0  0  0  0  0  0
  132.5693   71.4839  226.6427 H   0  0  0  0  0  0  0  0  0  0  0  0
  134.3628   71.5838  226.6427 H   0  0  0  0  0  0  0  0  0  0  0  0
  133.4978   76.0614  226.4298 H   0  0  0  0  0  0  0  0  0  0  0  0
  134.7636   77.1650  224.6008 H   0  0  0  0  0  0  0  0  0  0  0  0
  135.9286   77.0941  222.6700 H   0  0  0  0  0  0  0  0  0  0  0  0
  135.3618   74.5749  221.3425 H   0  0  0  0  0  0  0  0  0  0  0  0
  135.3364   76.2541  220.7051 H   0  0  0  0  0  0  0  0  0  0  0  0
  136.8686   75.3165  220.7051 H   0  0  0  0  0  0  0  0  0  0  0  0
  138.1220   75.2180  223.4380 H   0  0  0  0  0  0  0  0  0  0  0  0
  140.2602   76.0291  223.0995 H   0  0  0  0  0  0  0  0  0  0  0  0
  139.9729   78.8286  223.4035 H   0  0  0  0  0  0  0  0  0  0  0  0
  141.4684   77.9491  223.7456 H   0  0  0  0  0  0  0  0  0  0  0  0
  140.7364   79.6310  221.3424 H   0  0  0  0  0  0  0  0  0  0  0  0
  143.3240   78.9620  221.6320 H   0  0  0  0  0  0  0  0  0  0  0  0
  141.3034   78.0783  219.7016 H   0  0  0  0  0  0  0  0  0  0  0  0
  142.6023   77.3669  220.6669 H   0  0  0  0  0  0  0  0  0  0  0  0
  138.5838   74.9197  220.6298 H   0  0  0  0  0  0  0  0  0  0  0  0
  139.6178   73.6108  219.9169 H   0  0  0  0  0  0  0  0  0  0  0  0
  139.1410   74.1420  222.8180 H   0  0  0  0  0  0  0  0  0  0  0  0
  138.8407   70.2644  222.2113 H   0  0  0  0  0  0  0  0  0  0  0  0
  138.3805   68.8434  224.2154 H   0  0  0  0  0  0  0  0  0  0  0  0
  138.7369   68.3831  226.6193 H   0  0  0  0  0  0  0  0  0  0  0  0
  141.2966   71.0059  228.9254 H   0  0  0  0  0  0  0  0  0  0  0  0
  141.7224   72.3942  226.8937 H   0  0  0  0  0  0  0  0  0  0  0  0
  134.8058   72.1942  225.0117 H   0  0  0  0  0  0  0  0  0  0  0  0
  1  2  1  0
  2  3  1  0
  3  4  2  0
  4  5  1  0
  5  6  2  0
  6  7  1  0
  7  8  1  0
  7  9  1  0
  9 10  1  0
 10 11  2  0
 10 12  1  0
 12 13  1  0
 13 14  1  0
 14 15  1  0
 14 16  1  0
 16 17  1  0
 17 18  1  0
 18 19  2  0
 18 20  1  0
 20 21  1  0
 21 22  1  0
 22 23  2  0
 22 24  1  0
 24 25  2  0
 25 26  1  0
 26 27  2  0
 27 28  1  0
 28 29  2  0
 29 30  1  0
 29 31  1  0
 31 32  2  0
 32 33  1  0
 33 34  2  0
  6 35  1  0
 35 36  1  0
 35 37  2  0
 37  3  1  0
 17 12  1  0
 34 24  1  0
 33 27  1  0
  1 38  1  0
  1 39  1  0
  1 40  1  0
  4 41  1  0
  5 42  1  0
  7 43  1  6
  8 44  1  0
  8 45  1  0
  8 46  1  0
  9 47  1  0
 12 48  1  1
 13 49  1  0
 13 50  1  0
 14 51  1  6
 15 52  1  0
 16 53  1  0
 16 54  1  0
 20 55  1  0
 20 56  1  0
 21 57  1  0
 25 58  1  0
 26 59  1  0
 28 60  1  0
 31 61  1  0
 32 62  1  0
 37 63  1  0
M  END
>  <UniqueID>  (14) 
1

>  <SMILES>  (14) 
COc1ccc([C@H](C)NC(=O)[C@@H]2C[C@@H](O)CN2C(=O)CNC(=O)c2ccc3cc(F)ccc3n2)c(Cl)c1

>  <Energy>  (14) 
62.67687487480324

>  <Genealogy>  (14) 
COc1ccc([C@H](C)NC(=O)[C@@H]2C[C@@H](O)CN2C(=O)CNC(=O)c2ccc3cc(F)ccc3n2)c(Cl)c1 (3D coordinates assigned)
COc1ccc([C@H](C)NC(=O)[C@@H]2C[C@@H](O)CN2C(=O)CNC(=O)c2ccc3cc(F)ccc3n2)c(Cl)c1 (nonaromatic ring conformer: 62.67687487480324 kcal/mol)

>  <smiles>  (14) 
COc1ccc([C@H](C)NC(=O)[C@@H]2C[C@@H](O)CN2C(=O)CNC(=O)c2ccc3cc(F)ccc3n2)c(Cl)c1

>  <score_type>  (14) 
oracle

>  <origin>  (14) 
autodockgpu

>  <m_score__min__energy>  (14) 
-9.4800000000000004

>  <m_primary>  (14) 
energy

>  <meeko>  (14) 
{"free_energy": -9.48, "intermolecular_energy": -12.16, "internal_energy": -2.16, "cluster_size": 3, "cluster_id": 1, "rank_in_cluster": 1}

>  <energy>  (14) 
-5.82

>  <cluster_rmsd>  (14) 
0.74

>  <rmsd>  (14) 
271.29

>  <cluster>  (14) 
7

$$$$
PMUWBFKMLGLUTF-QDRFXLRBNA-N
     RDKit          3D

 63 66  0  0  0  0  0  0  0  0999 V2000
  140.1640   82.5630  220.9130 C   0  0  0  0  0  0  0  0  0  0  0  0
  141.2540   82.1820  220.0810 O   0  0  0  0  0  0  0  0  0  0  0  0
  141.3780   80.9290  219.4600 C   0  0  0  0  0  0  0  0  0  0  0  0
  142.5560   80.5210  218.8160 C   0  0  0  0  0  0  0  0  0  0  0  0
  142.6280   79.2670  218.2070 C   0  0  0  0  0  0  0  0  0  0  0  0
  141.5270   78.3890  218.2230 C   0  0  0  0  0  0  0  0  0  0  0  0
  141.6730   77.0330  217.5490 C   0  0  2  0  0  0  0  0  0  0  0  0
  140.5370   76.7480  216.5580 C   0  0  0  0  0  0  0  0  0  0  0  0
  141.7940   75.9650  218.5480 N   0  0  0  0  0  0  0  0  0  0  0  0
  142.9520   75.8720  219.3940 C   0  0  0  0  0  0  0  0  0  0  0  0
  143.8260   76.7790  219.3650 O   0  0  0  0  0  0  0  0  0  0  0  0
  143.1950   74.6580  220.2550 C   0  0  2  0  0  0  0  0  0  0  0  0
  144.6930   74.4400  220.4930 C   0  0  0  0  0  0  0  0  0  0  0  0
  145.0790   73.2420  219.6190 C   0  0  1  0  0  0  0  0  0  0  0  0
  146.0570   72.4310  220.2240 O   0  0  0  0  0  0  0  0  0  0  0  0
  143.7790   72.4860  219.3500 C   0  0  0  0  0  0  0  0  0  0  0  0
  142.7140   73.4380  219.6180 N   0  0  0  0  0  0  0  0  0  0  0  0
  141.3320   73.0400  219.6190 C   0  0  0  0  0  0  0  0  0  0  0  0
  140.6800   73.0410  218.5410 O   0  0  0  0  0  0  0  0  0  0  0  0
  140.6330   72.6790  220.8960 C   0  0  0  0  0  0  0  0  0  0  0  0
  140.3320   73.8590  221.7030 N   0  0  0  0  0  0  0  0  0  0  0  0
  139.8720   75.0660  221.0810 C   0  0  0  0  0  0  0  0  0  0  0  0
  139.3720   75.0200  219.9230 O   0  0  0  0  0  0  0  0  0  0  0  0
  139.9980   76.3620  221.7750 C   0  0  0  0  0  0  0  0  0  0  0  0
  138.9160   76.9150  222.4840 C   0  0  0  0  0  0  0  0  0  0  0  0
  139.0520   78.1650  223.0910 C   0  0  0  0  0  0  0  0  0  0  0  0
  140.2640   78.8580  222.9960 C   0  0  0  0  0  0  0  0  0  0  0  0
  140.4350   80.1170  223.5890 C   0  0  0  0  0  0  0  0  0  0  0  0
  141.6590   80.7850  223.4700 C   0  0  0  0  0  0  0  0  0  0  0  0
  141.8230   82.0030  224.0460 F   0  0  0  0  0  0  0  0  0  0  0  0
  142.7150   80.2010  222.7610 C   0  0  0  0  0  0  0  0  0  0  0  0
  142.5520   78.9460  222.1650 C   0  0  0  0  0  0  0  0  0  0  0  0
  141.3320   78.2700  222.2810 C   0  0  0  0  0  0  0  0  0  0  0  0
  141.1700   77.0530  221.6990 N   0  0  0  0  0  0  0  0  0  0  0  0
  140.3420   78.8010  218.8820 C   0  0  0  0  0  0  0  0  0  0  0  0
  138.9030   77.7890  218.9880 Cl  0  0  0  0  0  0  0  0  0  0  0  0
  140.2830   80.0620  219.4910 C   0  0  0  0  0  0  0  0  0  0  0  0
  140.4555   82.4611  221.9688 H   0  0  0  0  0  0  0  0  0  0  0  0
  139.8934   83.6090  220.7066 H   0  0  0  0  0  0  0  0  0  0  0  0
  139.3007   81.9134  220.7066 H   0  0  0  0  0  0  0  0  0  0  0  0
  143.4269   81.1925  218.7909 H   0  0  0  0  0  0  0  0  0  0  0  0
  143.5586   78.9600  217.7072 H   0  0  0  0  0  0  0  0  0  0  0  0
  142.6018   77.0604  216.9603 H   0  0  0  0  0  0  0  0  0  0  0  0
  139.6158   76.5169  217.1129 H   0  0  0  0  0  0  0  0  0  0  0  0
  140.3718   77.6325  215.9253 H   0  0  0  0  0  0  0  0  0  0  0  0
  140.8089   75.8902  215.9253 H   0  0  0  0  0  0  0  0  0  0  0  0
  141.0660   75.2160  218.5980 H   0  0  0  0  0  0  0  0  0  0  0  0
  142.6582   74.8500  221.1957 H   0  0  0  0  0  0  0  0  0  0  0  0
  145.2630   75.3323  220.1949 H   0  0  0  0  0  0  0  0  0  0  0  0
  144.9140   74.2571  221.5549 H   0  0  0  0  0  0  0  0  0  0  0  0
  145.5444   73.5722  218.6786 H   0  0  0  0  0  0  0  0  0  0  0  0
  145.6140   71.8930  220.9310 H   0  0  0  0  0  0  0  0  0  0  0  0
  143.7395   72.1494  218.3035 H   0  0  0  0  0  0  0  0  0  0  0  0
  143.6915   71.5878  219.9789 H   0  0  0  0  0  0  0  0  0  0  0  0
  139.6916   72.1643  220.6532 H   0  0  0  0  0  0  0  0  0  0  0  0
  141.3012   72.0280  221.4788 H   0  0  0  0  0  0  0  0  0  0  0  0
  140.5030   73.8460  222.7340 H   0  0  0  0  0  0  0  0  0  0  0  0
  137.9665   76.3647  222.5598 H   0  0  0  0  0  0  0  0  0  0  0  0
  138.2079   78.6043  223.6429 H   0  0  0  0  0  0  0  0  0  0  0  0
  139.6077   80.5793  224.1474 H   0  0  0  0  0  0  0  0  0  0  0  0
  143.6753   80.7301  222.6722 H   0  0  0  0  0  0  0  0  0  0  0  0
  143.3823   78.4906  221.6054 H   0  0  0  0  0  0  0  0  0  0  0  0
  139.3599   80.3739  220.0014 H   0  0  0  0  0  0  0  0  0  0  0  0
  1  2  1  0
  2  3  1  0
  3  4  2  0
  4  5  1  0
  5  6  2  0
  6  7  1  0
  7  8  1  0
  7  9  1  0
  9 10  1  0
 10 11  2  0
 10 12  1  0
 12 13  1  0
 13 14  1  0
 14 15  1  0
 14 16  1  0
 16 17  1  0
 17 18  1  0
 18 19  2  0
 18 20  1  0
 20 21  1  0
 21 22  1  0
 22 23  2  0
 22 24  1  0
 24 25  2  0
 25 26  1  0
 26 27  2  0
 27 28  1  0
 28 29  2  0
 29 30  1  0
 29 31  1  0
 31 32  2  0
 32 33  1  0
 33 34  2  0
  6 35  1  0
 35 36  1  0
 35 37  2  0
 37  3  1  0
 17 12  1  0
 34 24  1  0
 33 27  1  0
  1 38  1  0
  1 39  1  0
  1 40  1  0
  4 41  1  0
  5 42  1  0
  7 43  1  6
  8 44  1  0
  8 45  1  0
  8 46  1  0
  9 47  1  0
 12 48  1  1
 13 49  1  0
 13 50  1  0
 14 51  1  6
 15 52  1  0
 16 53  1  0
 16 54  1  0
 20 55  1  0
 20 56  1  0
 21 57  1  0
 25 58  1  0
 26 59  1  0
 28 60  1  0
 31 61  1  0
 32 62  1  0
 37 63  1  0
M  END
>  <UniqueID>  (15) 
1

>  <SMILES>  (15) 
COc1ccc([C@H](C)NC(=O)[C@@H]2C[C@@H](O)CN2C(=O)CNC(=O)c2ccc3cc(F)ccc3n2)c(Cl)c1

>  <Energy>  (15) 
62.67687487480324

>  <Genealogy>  (15) 
COc1ccc([C@H](C)NC(=O)[C@@H]2C[C@@H](O)CN2C(=O)CNC(=O)c2ccc3cc(F)ccc3n2)c(Cl)c1 (3D coordinates assigned)
COc1ccc([C@H](C)NC(=O)[C@@H]2C[C@@H](O)CN2C(=O)CNC(=O)c2ccc3cc(F)ccc3n2)c(Cl)c1 (nonaromatic ring conformer: 62.67687487480324 kcal/mol)

>  <smiles>  (15) 
COc1ccc([C@H](C)NC(=O)[C@@H]2C[C@@H](O)CN2C(=O)CNC(=O)c2ccc3cc(F)ccc3n2)c(Cl)c1

>  <score_type>  (15) 
oracle

>  <origin>  (15) 
autodockgpu

>  <m_score__min__energy>  (15) 
-9.4800000000000004

>  <m_primary>  (15) 
energy

>  <meeko>  (15) 
{"free_energy": -5.82, "intermolecular_energy": -8.5, "internal_energy": -5.47, "cluster_size": 10, "cluster_id": 7, "rank_in_cluster": 5}

>  <energy>  (15) 
-5.81

>  <cluster_rmsd>  (15) 
0.66

>  <rmsd>  (15) 
271.3

>  <cluster>  (15) 
7

$$$$
PMUWBFKMLGLUTF-QDRFXLRBNA-N
     RDKit          3D

 63 66  0  0  0  0  0  0  0  0999 V2000
  137.7110   80.7450  224.5310 C   0  0  0  0  0  0  0  0  0  0  0  0
  137.6120   79.4920  223.8630 O   0  0  0  0  0  0  0  0  0  0  0  0
  138.6080   78.9550  223.0330 C   0  0  0  0  0  0  0  0  0  0  0  0
  138.3310   78.0000  222.0420 C   0  0  0  0  0  0  0  0  0  0  0  0
  139.3570   77.4920  221.2470 C   0  0  0  0  0  0  0  0  0  0  0  0
  140.6880   77.9180  221.4190 C   0  0  0  0  0  0  0  0  0  0  0  0
  141.7600   77.3310  220.5120 C   0  0  2  0  0  0  0  0  0  0  0  0
  141.4120   77.4780  219.0260 C   0  0  0  0  0  0  0  0  0  0  0  0
  142.0310   75.9330  220.8650 N   0  0  0  0  0  0  0  0  0  0  0  0
  143.1920   75.2530  220.3580 C   0  0  0  0  0  0  0  0  0  0  0  0
  144.0540   75.8910  219.6960 O   0  0  0  0  0  0  0  0  0  0  0  0
  143.3590   73.7640  220.5200 C   0  0  2  0  0  0  0  0  0  0  0  0
  144.8070   73.4040  220.8660 C   0  0  0  0  0  0  0  0  0  0  0  0
  145.3970   72.7970  219.5890 C   0  0  1  0  0  0  0  0  0  0  0  0
  146.3060   71.7580  219.8600 O   0  0  0  0  0  0  0  0  0  0  0  0
  144.2020   72.3250  218.7610 C   0  0  0  0  0  0  0  0  0  0  0  0
  143.0560   73.0480  219.2860 N   0  0  0  0  0  0  0  0  0  0  0  0
  141.7170   72.7530  218.8540 C   0  0  0  0  0  0  0  0  0  0  0  0
  141.5340   72.0630  217.8140 O   0  0  0  0  0  0  0  0  0  0  0  0
  140.5290   73.3010  219.5860 C   0  0  0  0  0  0  0  0  0  0  0  0
  140.0850   72.4040  220.6490 N   0  0  0  0  0  0  0  0  0  0  0  0
  140.0750   72.8420  222.0140 C   0  0  0  0  0  0  0  0  0  0  0  0
  140.0820   74.0780  222.2720 O   0  0  0  0  0  0  0  0  0  0  0  0
  140.0770   71.8610  223.1170 C   0  0  0  0  0  0  0  0  0  0  0  0
  139.5450   70.5710  222.9420 C   0  0  0  0  0  0  0  0  0  0  0  0
  139.5190   69.6810  224.0170 C   0  0  0  0  0  0  0  0  0  0  0  0
  140.0250   70.0750  225.2600 C   0  0  0  0  0  0  0  0  0  0  0  0
  140.0110   69.2100  226.3640 C   0  0  0  0  0  0  0  0  0  0  0  0
  140.5210   69.6380  227.5950 C   0  0  0  0  0  0  0  0  0  0  0  0
  140.5090   68.7990  228.6610 F   0  0  0  0  0  0  0  0  0  0  0  0
  141.0470   70.9280  227.7300 C   0  0  0  0  0  0  0  0  0  0  0  0
  141.0640   71.7980  226.6340 C   0  0  0  0  0  0  0  0  0  0  0  0
  140.5580   71.3780  225.3990 C   0  0  0  0  0  0  0  0  0  0  0  0
  140.5680   72.2230  224.3350 N   0  0  0  0  0  0  0  0  0  0  0  0
  140.9640   78.8880  222.4150 C   0  0  0  0  0  0  0  0  0  0  0  0
  142.5830   79.5170  222.7170 Cl  0  0  0  0  0  0  0  0  0  0  0  0
  139.9240   79.3930  223.2060 C   0  0  0  0  0  0  0  0  0  0  0  0
  137.6982   80.5826  225.6189 H   0  0  0  0  0  0  0  0  0  0  0  0
  138.6510   81.2396  224.2452 H   0  0  0  0  0  0  0  0  0  0  0  0
  136.8603   81.3811  224.2452 H   0  0  0  0  0  0  0  0  0  0  0  0
  137.2987   77.6508  221.8921 H   0  0  0  0  0  0  0  0  0  0  0  0
  139.1232   76.7464  220.4728 H   0  0  0  0  0  0  0  0  0  0  0  0
  142.6798   77.9117  220.6754 H   0  0  0  0  0  0  0  0  0  0  0  0
  140.4029   77.9043  218.9262 H   0  0  0  0  0  0  0  0  0  0  0  0
  142.1412   78.1450  218.5429 H   0  0  0  0  0  0  0  0  0  0  0  0
  141.4422   76.4902  218.5429 H   0  0  0  0  0  0  0  0  0  0  0  0
  141.3350   75.3970  221.4320 H   0  0  0  0  0  0  0  0  0  0  0  0
  142.6664   73.4744  221.3240 H   0  0  0  0  0  0  0  0  0  0  0  0
  145.3674   74.3045  221.1575 H   0  0  0  0  0  0  0  0  0  0  0  0
  144.8612   72.7035  221.7123 H   0  0  0  0  0  0  0  0  0  0  0  0
  145.9911   73.5398  219.0364 H   0  0  0  0  0  0  0  0  0  0  0  0
  146.2920   71.5860  220.8380 H   0  0  0  0  0  0  0  0  0  0  0  0
  144.3528   72.5634  217.6978 H   0  0  0  0  0  0  0  0  0  0  0  0
  144.0633   71.2359  218.8287 H   0  0  0  0  0  0  0  0  0  0  0  0
  140.8000   74.2708  220.0287 H   0  0  0  0  0  0  0  0  0  0  0  0
  139.7050   73.4112  218.8657 H   0  0  0  0  0  0  0  0  0  0  0  0
  139.8210   71.4170  220.4250 H   0  0  0  0  0  0  0  0  0  0  0  0
  139.1509   70.2646  221.9618 H   0  0  0  0  0  0  0  0  0  0  0  0
  139.1014   68.6717  223.8868 H   0  0  0  0  0  0  0  0  0  0  0  0
  139.5991   68.1951  226.2623 H   0  0  0  0  0  0  0  0  0  0  0  0
  141.4478   71.2586  228.6995 H   0  0  0  0  0  0  0  0  0  0  0  0
  141.4753   72.8123  226.7435 H   0  0  0  0  0  0  0  0  0  0  0  0
  140.1466   80.1465  223.9758 H   0  0  0  0  0  0  0  0  0  0  0  0
  1  2  1  0
  2  3  1  0
  3  4  2  0
  4  5  1  0
  5  6  2  0
  6  7  1  0
  7  8  1  0
  7  9  1  0
  9 10  1  0
 10 11  2  0
 10 12  1  0
 12 13  1  0
 13 14  1  0
 14 15  1  0
 14 16  1  0
 16 17  1  0
 17 18  1  0
 18 19  2  0
 18 20  1  0
 20 21  1  0
 21 22  1  0
 22 23  2  0
 22 24  1  0
 24 25  2  0
 25 26  1  0
 26 27  2  0
 27 28  1  0
 28 29  2  0
 29 30  1  0
 29 31  1  0
 31 32  2  0
 32 33  1  0
 33 34  2  0
  6 35  1  0
 35 36  1  0
 35 37  2  0
 37  3  1  0
 17 12  1  0
 34 24  1  0
 33 27  1  0
  1 38  1  0
  1 39  1  0
  1 40  1  0
  4 41  1  0
  5 42  1  0
  7 43  1  6
  8 44  1  0
  8 45  1  0
  8 46  1  0
  9 47  1  0
 12 48  1  1
 13 49  1  0
 13 50  1  0
 14 51  1  6
 15 52  1  0
 16 53  1  0
 16 54  1  0
 20 55  1  0
 20 56  1  0
 21 57  1  0
 25 58  1  0
 26 59  1  0
 28 60  1  0
 31 61  1  0
 32 62  1  0
 37 63  1  0
M  END
>  <UniqueID>  (16) 
1

>  <SMILES>  (16) 
COc1ccc([C@H](C)NC(=O)[C@@H]2C[C@@H](O)CN2C(=O)CNC(=O)c2ccc3cc(F)ccc3n2)c(Cl)c1

>  <Energy>  (16) 
62.67687487480324

>  <Genealogy>  (16) 
COc1ccc([C@H](C)NC(=O)[C@@H]2C[C@@H](O)CN2C(=O)CNC(=O)c2ccc3cc(F)ccc3n2)c(Cl)c1 (3D coordinates assigned)
COc1ccc([C@H](C)NC(=O)[C@@H]2C[C@@H](O)CN2C(=O)CNC(=O)c2ccc3cc(F)ccc3n2)c(Cl)c1 (nonaromatic ring conformer: 62.67687487480324 kcal/mol)

>  <smiles>  (16) 
COc1ccc([C@H](C)NC(=O)[C@@H]2C[C@@H](O)CN2C(=O)CNC(=O)c2ccc3cc(F)ccc3n2)c(Cl)c1

>  <score_type>  (16) 
oracle

>  <origin>  (16) 
autodockgpu

>  <m_score__min__energy>  (16) 
-9.4800000000000004

>  <m_primary>  (16) 
energy

>  <meeko>  (16) 
{"free_energy": -8.64, "intermolecular_energy": -11.33, "internal_energy": -2.77, "cluster_size": 1, "cluster_id": 2, "rank_in_cluster": 1}

>  <energy>  (16) 
-5.78

>  <cluster_rmsd>  (16) 
0.62

>  <rmsd>  (16) 
271.38

>  <cluster>  (16) 
7

$$$$
PMUWBFKMLGLUTF-QDRFXLRBNA-N
     RDKit          3D

 63 66  0  0  0  0  0  0  0  0999 V2000
  141.5690   79.8050  223.8740 C   0  0  0  0  0  0  0  0  0  0  0  0
  140.2820   79.2850  223.5580 O   0  0  0  0  0  0  0  0  0  0  0  0
  140.0590   78.0490  222.9330 C   0  0  0  0  0  0  0  0  0  0  0  0
  141.1050   77.1770  222.5900 C   0  0  0  0  0  0  0  0  0  0  0  0
  140.8320   75.9620  221.9630 C   0  0  0  0  0  0  0  0  0  0  0  0
  139.5100   75.5820  221.6590 C   0  0  0  0  0  0  0  0  0  0  0  0
  139.2790   74.2390  220.9830 C   0  0  2  0  0  0  0  0  0  0  0  0
  138.9130   73.1360  221.9850 C   0  0  0  0  0  0  0  0  0  0  0  0
  140.4390   73.8600  220.1680 N   0  0  0  0  0  0  0  0  0  0  0  0
  141.5290   73.1140  220.7330 C   0  0  0  0  0  0  0  0  0  0  0  0
  141.4450   72.6740  221.9110 O   0  0  0  0  0  0  0  0  0  0  0  0
  142.8190   72.9220  219.9790 C   0  0  2  0  0  0  0  0  0  0  0  0
  143.8990   72.3090  220.8760 C   0  0  0  0  0  0  0  0  0  0  0  0
  144.8700   73.4520  221.1910 C   0  0  1  0  0  0  0  0  0  0  0  0
  146.2050   73.0140  221.2750 O   0  0  0  0  0  0  0  0  0  0  0  0
  144.6660   74.4890  220.0880 C   0  0  0  0  0  0  0  0  0  0  0  0
  143.3660   74.1900  219.5100 N   0  0  0  0  0  0  0  0  0  0  0  0
  142.8930   74.8660  218.3330 C   0  0  0  0  0  0  0  0  0  0  0  0
  142.1280   74.2650  217.5310 O   0  0  0  0  0  0  0  0  0  0  0  0
  143.3410   76.2600  218.0090 C   0  0  0  0  0  0  0  0  0  0  0  0
  142.7390   77.2460  218.9030 N   0  0  0  0  0  0  0  0  0  0  0  0
  141.3150   77.3170  219.0520 C   0  0  0  0  0  0  0  0  0  0  0  0
  140.6030   76.3270  218.7270 O   0  0  0  0  0  0  0  0  0  0  0  0
  140.6750   78.5460  219.5610 C   0  0  0  0  0  0  0  0  0  0  0  0
  139.2890   78.7490  219.4350 C   0  0  0  0  0  0  0  0  0  0  0  0
  138.7200   79.9420  219.8860 C   0  0  0  0  0  0  0  0  0  0  0  0
  139.5310   80.9260  220.4620 C   0  0  0  0  0  0  0  0  0  0  0  0
  138.9950   82.1390  220.9210 C   0  0  0  0  0  0  0  0  0  0  0  0
  139.8340   83.1040  221.4890 C   0  0  0  0  0  0  0  0  0  0  0  0
  139.3150   84.2750  221.9340 F   0  0  0  0  0  0  0  0  0  0  0  0
  141.2090   82.8630  221.6020 C   0  0  0  0  0  0  0  0  0  0  0  0
  141.7520   81.6570  221.1460 C   0  0  0  0  0  0  0  0  0  0  0  0
  140.9190   80.6860  220.5780 C   0  0  0  0  0  0  0  0  0  0  0  0
  141.4440   79.5160  220.1300 N   0  0  0  0  0  0  0  0  0  0  0  0
  138.4550   76.4600  222.0140 C   0  0  0  0  0  0  0  0  0  0  0  0
  136.7590   76.0940  221.7060 Cl  0  0  0  0  0  0  0  0  0  0  0  0
  138.7430   77.6780  222.6460 C   0  0  0  0  0  0  0  0  0  0  0  0
  141.6870   79.8527  224.9666 H   0  0  0  0  0  0  0  0  0  0  0  0
  142.3437   79.1493  223.4498 H   0  0  0  0  0  0  0  0  0  0  0  0
  141.6707   80.8148  223.4498 H   0  0  0  0  0  0  0  0  0  0  0  0
  142.1450   77.4540  222.8172 H   0  0  0  0  0  0  0  0  0  0  0  0
  141.6622   75.2894  221.7015 H   0  0  0  0  0  0  0  0  0  0  0  0
  138.4124   74.3550  220.3156 H   0  0  0  0  0  0  0  0  0  0  0  0
  139.0388   73.5152  223.0099 H   0  0  0  0  0  0  0  0  0  0  0  0
  137.8665   72.8339  221.8317 H   0  0  0  0  0  0  0  0  0  0  0  0
  139.5713   72.2682  221.8317 H   0  0  0  0  0  0  0  0  0  0  0  0
  140.5130   74.2010  219.1820 H   0  0  0  0  0  0  0  0  0  0  0  0
  142.5717   72.2625  219.1341 H   0  0  0  0  0  0  0  0  0  0  0  0
  143.4526   71.9181  221.8022 H   0  0  0  0  0  0  0  0  0  0  0  0
  144.4074   71.4668  220.3838 H   0  0  0  0  0  0  0  0  0  0  0  0
  144.6631   73.8836  222.1814 H   0  0  0  0  0  0  0  0  0  0  0  0
  146.2160   72.1650  221.7920 H   0  0  0  0  0  0  0  0  0  0  0  0
  144.6750   75.5051  220.5091 H   0  0  0  0  0  0  0  0  0  0  0  0
  145.4669   74.4472  219.3351 H   0  0  0  0  0  0  0  0  0  0  0  0
  144.4355   76.3135  218.1055 H   0  0  0  0  0  0  0  0  0  0  0  0
  143.0223   76.4910  216.9818 H   0  0  0  0  0  0  0  0  0  0  0  0
  143.3430   77.9410  219.3990 H   0  0  0  0  0  0  0  0  0  0  0  0
  138.6558   77.9713  218.9831 H   0  0  0  0  0  0  0  0  0  0  0  0
  137.6369   80.1077  219.7886 H   0  0  0  0  0  0  0  0  0  0  0  0
  137.9154   82.3311  220.8343 H   0  0  0  0  0  0  0  0  0  0  0  0
  141.8640   83.6243  222.0507 H   0  0  0  0  0  0  0  0  0  0  0  0
  142.8328   81.4719  221.2337 H   0  0  0  0  0  0  0  0  0  0  0  0
  137.9189   78.3529  222.9205 H   0  0  0  0  0  0  0  0  0  0  0  0
  1  2  1  0
  2  3  1  0
  3  4  2  0
  4  5  1  0
  5  6  2  0
  6  7  1  0
  7  8  1  0
  7  9  1  0
  9 10  1  0
 10 11  2  0
 10 12  1  0
 12 13  1  0
 13 14  1  0
 14 15  1  0
 14 16  1  0
 16 17  1  0
 17 18  1  0
 18 19  2  0
 18 20  1  0
 20 21  1  0
 21 22  1  0
 22 23  2  0
 22 24  1  0
 24 25  2  0
 25 26  1  0
 26 27  2  0
 27 28  1  0
 28 29  2  0
 29 30  1  0
 29 31  1  0
 31 32  2  0
 32 33  1  0
 33 34  2  0
  6 35  1  0
 35 36  1  0
 35 37  2  0
 37  3  1  0
 17 12  1  0
 34 24  1  0
 33 27  1  0
  1 38  1  0
  1 39  1  0
  1 40  1  0
  4 41  1  0
  5 42  1  0
  7 43  1  6
  8 44  1  0
  8 45  1  0
  8 46  1  0
  9 47  1  0
 12 48  1  6
 13 49  1  0
 13 50  1  0
 14 51  1  1
 15 52  1  0
 16 53  1  0
 16 54  1  0
 20 55  1  0
 20 56  1  0
 21 57  1  0
 25 58  1  0
 26 59  1  0
 28 60  1  0
 31 61  1  0
 32 62  1  0
 37 63  1  0
M  END
>  <UniqueID>  (17) 
1

>  <SMILES>  (17) 
COc1ccc([C@H](C)NC(=O)[C@@H]2C[C@@H](O)CN2C(=O)CNC(=O)c2ccc3cc(F)ccc3n2)c(Cl)c1

>  <Energy>  (17) 
62.67687487480324

>  <Genealogy>  (17) 
COc1ccc([C@H](C)NC(=O)[C@@H]2C[C@@H](O)CN2C(=O)CNC(=O)c2ccc3cc(F)ccc3n2)c(Cl)c1 (3D coordinates assigned)
COc1ccc([C@H](C)NC(=O)[C@@H]2C[C@@H](O)CN2C(=O)CNC(=O)c2ccc3cc(F)ccc3n2)c(Cl)c1 (nonaromatic ring conformer: 62.67687487480324 kcal/mol)

>  <smiles>  (17) 
COc1ccc([C@H](C)NC(=O)[C@@H]2C[C@@H](O)CN2C(=O)CNC(=O)c2ccc3cc(F)ccc3n2)c(Cl)c1

>  <score_type>  (17) 
oracle

>  <origin>  (17) 
autodockgpu

>  <m_score__min__energy>  (17) 
-9.4800000000000004

>  <m_primary>  (17) 
energy

>  <meeko>  (17) 
{"free_energy": -5.52, "intermolecular_energy": -8.2, "internal_energy": -4.81, "cluster_size": 1, "cluster_id": 8, "rank_in_cluster": 1}

>  <energy>  (17) 
-5.67

>  <cluster_rmsd>  (17) 
0.92

>  <rmsd>  (17) 
271.35

>  <cluster>  (17) 
7

$$$$
PMUWBFKMLGLUTF-QDRFXLRBNA-N
     RDKit          3D

 63 66  0  0  0  0  0  0  0  0999 V2000
  142.5870   78.0950  217.4820 C   0  0  0  0  0  0  0  0  0  0  0  0
  142.1130   77.7270  218.7730 O   0  0  0  0  0  0  0  0  0  0  0  0
  142.1170   76.4170  219.2760 C   0  0  0  0  0  0  0  0  0  0  0  0
  140.9570   75.6300  219.3370 C   0  0  0  0  0  0  0  0  0  0  0  0
  141.0120   74.3340  219.8520 C   0  0  0  0  0  0  0  0  0  0  0  0
  142.2230   73.7900  220.3210 C   0  0  0  0  0  0  0  0  0  0  0  0
  142.2170   72.3680  220.8620 C   0  0  2  0  0  0  0  0  0  0  0  0
  143.0800   71.4200  220.0210 C   0  0  0  0  0  0  0  0  0  0  0  0
  140.8430   71.8680  220.9960 N   0  0  0  0  0  0  0  0  0  0  0  0
  139.9610   72.3900  222.0030 C   0  0  0  0  0  0  0  0  0  0  0  0
  140.3230   73.3690  222.7100 O   0  0  0  0  0  0  0  0  0  0  0  0
  138.6390   71.7310  222.3030 C   0  0  2  0  0  0  0  0  0  0  0  0
  138.8300   70.2650  222.7070 C   0  0  0  0  0  0  0  0  0  0  0  0
  138.3650   69.4420  221.5010 C   0  0  1  0  0  0  0  0  0  0  0  0
  137.7300   68.2450  221.8810 O   0  0  0  0  0  0  0  0  0  0  0  0
  137.4460   70.3610  220.6970 C   0  0  0  0  0  0  0  0  0  0  0  0
  137.7680   71.7090  221.1330 N   0  0  0  0  0  0  0  0  0  0  0  0
  136.9940   72.8430  220.7050 C   0  0  0  0  0  0  0  0  0  0  0  0
  136.8250   73.0550  219.4740 O   0  0  0  0  0  0  0  0  0  0  0  0
  136.4320   73.8150  221.6990 C   0  0  0  0  0  0  0  0  0  0  0  0
  137.4800   74.6160  222.3270 N   0  0  0  0  0  0  0  0  0  0  0  0
  137.4460   76.0470  222.2490 C   0  0  0  0  0  0  0  0  0  0  0  0
  136.3600   76.6320  221.9820 O   0  0  0  0  0  0  0  0  0  0  0  0
  138.6740   76.8390  222.4580 C   0  0  0  0  0  0  0  0  0  0  0  0
  139.9460   76.2520  222.3350 C   0  0  0  0  0  0  0  0  0  0  0  0
  141.0880   77.0150  222.5840 C   0  0  0  0  0  0  0  0  0  0  0  0
  140.9610   78.3590  222.9510 C   0  0  0  0  0  0  0  0  0  0  0  0
  142.0860   79.1550  223.2140 C   0  0  0  0  0  0  0  0  0  0  0  0
  141.9230   80.4950  223.5840 C   0  0  0  0  0  0  0  0  0  0  0  0
  143.0120   81.2640  223.8360 F   0  0  0  0  0  0  0  0  0  0  0  0
  140.6410   81.0460  223.6910 C   0  0  0  0  0  0  0  0  0  0  0  0
  139.5140   80.2590  223.4320 C   0  0  0  0  0  0  0  0  0  0  0  0
  139.6670   78.9190  223.0600 C   0  0  0  0  0  0  0  0  0  0  0  0
  138.5740   78.1510  222.8120 N   0  0  0  0  0  0  0  0  0  0  0  0
  143.3940   74.5850  220.2500 C   0  0  0  0  0  0  0  0  0  0  0  0
  144.9730   74.0150  220.7870 Cl  0  0  0  0  0  0  0  0  0  0  0  0
  143.3270   75.8840  219.7290 C   0  0  0  0  0  0  0  0  0  0  0  0
  143.4519   78.7665  217.5866 H   0  0  0  0  0  0  0  0  0  0  0  0
  142.8884   77.1920  216.9309 H   0  0  0  0  0  0  0  0  0  0  0  0
  141.7869   78.6108  216.9309 H   0  0  0  0  0  0  0  0  0  0  0  0
  140.0001   76.0362  218.9774 H   0  0  0  0  0  0  0  0  0  0  0  0
  140.0948   73.7280  219.8921 H   0  0  0  0  0  0  0  0  0  0  0  0
  142.6715   72.3978  221.8633 H   0  0  0  0  0  0  0  0  0  0  0  0
  143.6693   70.7726  220.6870 H   0  0  0  0  0  0  0  0  0  0  0  0
  142.4308   70.7990  219.3863 H   0  0  0  0  0  0  0  0  0  0  0  0
  143.7591   72.0082  219.3863 H   0  0  0  0  0  0  0  0  0  0  0  0
  140.5220   71.0690  220.4030 H   0  0  0  0  0  0  0  0  0  0  0  0
  138.1924   72.3209  223.1170 H   0  0  0  0  0  0  0  0  0  0  0  0
  139.8887   70.0616  222.9256 H   0  0  0  0  0  0  0  0  0  0  0  0
  138.2608   70.0151  223.6145 H   0  0  0  0  0  0  0  0  0  0  0  0
  139.2213   69.1129  220.8940 H   0  0  0  0  0  0  0  0  0  0  0  0
  136.9120   68.1430  221.3270 H   0  0  0  0  0  0  0  0  0  0  0  0
  137.6374   70.2493  219.6196 H   0  0  0  0  0  0  0  0  0  0  0  0
  136.3848   70.1216  220.8602 H   0  0  0  0  0  0  0  0  0  0  0  0
  135.7313   74.4874  221.1824 H   0  0  0  0  0  0  0  0  0  0  0  0
  135.9217   73.2416  222.4869 H   0  0  0  0  0  0  0  0  0  0  0  0
  138.2900   74.1470  222.7920 H   0  0  0  0  0  0  0  0  0  0  0  0
  140.0406   75.1955  222.0437 H   0  0  0  0  0  0  0  0  0  0  0  0
  142.0855   76.5606  222.4919 H   0  0  0  0  0  0  0  0  0  0  0  0
  143.0955   78.7263  223.1295 H   0  0  0  0  0  0  0  0  0  0  0  0
  140.5193   82.1005  223.9795 H   0  0  0  0  0  0  0  0  0  0  0  0
  138.5074   80.6937  223.5208 H   0  0  0  0  0  0  0  0  0  0  0  0
  144.2410   76.4938  219.6757 H   0  0  0  0  0  0  0  0  0  0  0  0
  1  2  1  0
  2  3  1  0
  3  4  2  0
  4  5  1  0
  5  6  2  0
  6  7  1  0
  7  8  1  0
  7  9  1  0
  9 10  1  0
 10 11  2  0
 10 12  1  0
 12 13  1  0
 13 14  1  0
 14 15  1  0
 14 16  1  0
 16 17  1  0
 17 18  1  0
 18 19  2  0
 18 20  1  0
 20 21  1  0
 21 22  1  0
 22 23  2  0
 22 24  1  0
 24 25  2  0
 25 26  1  0
 26 27  2  0
 27 28  1  0
 28 29  2  0
 29 30  1  0
 29 31  1  0
 31 32  2  0
 32 33  1  0
 33 34  2  0
  6 35  1  0
 35 36  1  0
 35 37  2  0
 37  3  1  0
 17 12  1  0
 34 24  1  0
 33 27  1  0
  1 38  1  0
  1 39  1  0
  1 40  1  0
  4 41  1  0
  5 42  1  0
  7 43  1  1
  8 44  1  0
  8 45  1  0
  8 46  1  0
  9 47  1  0
 12 48  1  1
 13 49  1  0
 13 50  1  0
 14 51  1  6
 15 52  1  0
 16 53  1  0
 16 54  1  0
 20 55  1  0
 20 56  1  0
 21 57  1  0
 25 58  1  0
 26 59  1  0
 28 60  1  0
 31 61  1  0
 32 62  1  0
 37 63  1  0
M  END
>  <UniqueID>  (18) 
1

>  <SMILES>  (18) 
COc1ccc([C@H](C)NC(=O)[C@@H]2C[C@@H](O)CN2C(=O)CNC(=O)c2ccc3cc(F)ccc3n2)c(Cl)c1

>  <Energy>  (18) 
62.67687487480324

>  <Genealogy>  (18) 
COc1ccc([C@H](C)NC(=O)[C@@H]2C[C@@H](O)CN2C(=O)CNC(=O)c2ccc3cc(F)ccc3n2)c(Cl)c1 (3D coordinates assigned)
COc1ccc([C@H](C)NC(=O)[C@@H]2C[C@@H](O)CN2C(=O)CNC(=O)c2ccc3cc(F)ccc3n2)c(Cl)c1 (nonaromatic ring conformer: 62.67687487480324 kcal/mol)

>  <smiles>  (18) 
COc1ccc([C@H](C)NC(=O)[C@@H]2C[C@@H](O)CN2C(=O)CNC(=O)c2ccc3cc(F)ccc3n2)c(Cl)c1

>  <score_type>  (18) 
oracle

>  <origin>  (18) 
autodockgpu

>  <m_score__min__energy>  (18) 
-9.4800000000000004

>  <m_primary>  (18) 
energy

>  <meeko>  (18) 
{"free_energy": -6.65, "intermolecular_energy": -9.33, "internal_energy": -3.46, "cluster_size": 1, "cluster_id": 5, "rank_in_cluster": 1}

>  <energy>  (18) 
-5.56

>  <cluster_rmsd>  (18) 
1.04

>  <rmsd>  (18) 
271.31

>  <cluster>  (18) 
7

$$$$
PMUWBFKMLGLUTF-QDRFXLRBNA-N
     RDKit          3D

 63 66  0  0  0  0  0  0  0  0999 V2000
  143.0010   82.2660  217.2950 C   0  0  0  0  0  0  0  0  0  0  0  0
  142.2120   82.6970  218.3990 O   0  0  0  0  0  0  0  0  0  0  0  0
  141.8130   81.8700  219.4590 C   0  0  0  0  0  0  0  0  0  0  0  0
  141.2580   82.3780  220.6440 C   0  0  0  0  0  0  0  0  0  0  0  0
  140.8820   81.5150  221.6730 C   0  0  0  0  0  0  0  0  0  0  0  0
  141.0510   80.1220  221.5500 C   0  0  0  0  0  0  0  0  0  0  0  0
  140.6120   79.2340  222.7050 C   0  0  2  0  0  0  0  0  0  0  0  0
  141.8020   78.6580  223.4830 C   0  0  0  0  0  0  0  0  0  0  0  0
  139.7140   78.1740  222.2350 N   0  0  0  0  0  0  0  0  0  0  0  0
  138.4240   78.4870  221.6830 C   0  0  0  0  0  0  0  0  0  0  0  0
  138.0990   79.6900  221.4900 O   0  0  0  0  0  0  0  0  0  0  0  0
  137.4050   77.4100  221.4140 C   0  0  2  0  0  0  0  0  0  0  0  0
  136.0730   77.7240  222.1020 C   0  0  0  0  0  0  0  0  0  0  0  0
  135.9900   76.7660  223.2950 C   0  0  1  0  0  0  0  0  0  0  0  0
  134.6740   76.3310  223.5420 O   0  0  0  0  0  0  0  0  0  0  0  0
  136.9350   75.6110  222.9700 C   0  0  0  0  0  0  0  0  0  0  0  0
  137.8300   76.1190  221.9440 N   0  0  0  0  0  0  0  0  0  0  0  0
  138.7700   75.2620  221.2740 C   0  0  0  0  0  0  0  0  0  0  0  0
  139.8060   75.7560  220.7530 O   0  0  0  0  0  0  0  0  0  0  0  0
  138.5080   73.7920  221.1290 C   0  0  0  0  0  0  0  0  0  0  0  0
  138.6470   73.0880  222.4010 N   0  0  0  0  0  0  0  0  0  0  0  0
  139.9210   72.5750  222.8120 C   0  0  0  0  0  0  0  0  0  0  0  0
  140.9760   73.0340  222.2920 O   0  0  0  0  0  0  0  0  0  0  0  0
  140.0070   71.5020  223.8220 C   0  0  0  0  0  0  0  0  0  0  0  0
  139.5490   70.2020  223.5400 C   0  0  0  0  0  0  0  0  0  0  0  0
  139.6000   69.2200  224.5310 C   0  0  0  0  0  0  0  0  0  0  0  0
  140.1100   69.5330  225.7970 C   0  0  0  0  0  0  0  0  0  0  0  0
  140.1720   68.5740  226.8180 C   0  0  0  0  0  0  0  0  0  0  0  0
  140.6820   68.9220  228.0740 C   0  0  0  0  0  0  0  0  0  0  0  0
  140.7440   67.9920  229.0600 F   0  0  0  0  0  0  0  0  0  0  0  0
  141.1330   70.2250  228.3150 C   0  0  0  0  0  0  0  0  0  0  0  0
  141.0740   71.1880  227.3020 C   0  0  0  0  0  0  0  0  0  0  0  0
  140.5660   70.8480  226.0430 C   0  0  0  0  0  0  0  0  0  0  0  0
  140.5020   71.7830  225.0590 N   0  0  0  0  0  0  0  0  0  0  0  0
  141.6040   79.6110  220.3490 C   0  0  0  0  0  0  0  0  0  0  0  0
  141.8500   77.8890  220.0640 Cl  0  0  0  0  0  0  0  0  0  0  0  0
  141.9760   80.4890  219.3220 C   0  0  0  0  0  0  0  0  0  0  0  0
  143.9099   81.7695  217.6656 H   0  0  0  0  0  0  0  0  0  0  0  0
  142.4208   81.5595  216.6832 H   0  0  0  0  0  0  0  0  0  0  0  0
  143.2819   83.1360  216.6832 H   0  0  0  0  0  0  0  0  0  0  0  0
  141.1188   83.4628  220.7617 H   0  0  0  0  0  0  0  0  0  0  0  0
  140.4468   81.9285  222.5948 H   0  0  0  0  0  0  0  0  0  0  0  0
  140.0550   79.8682  223.4104 H   0  0  0  0  0  0  0  0  0  0  0  0
  141.6130   78.7495  224.5628 H   0  0  0  0  0  0  0  0  0  0  0  0
  141.9319   77.5973  223.2221 H   0  0  0  0  0  0  0  0  0  0  0  0
  142.7145   79.2142  223.2221 H   0  0  0  0  0  0  0  0  0  0  0  0
  139.9790   77.1720  222.3690 H   0  0  0  0  0  0  0  0  0  0  0  0
  137.2969   77.3716  220.3200 H   0  0  0  0  0  0  0  0  0  0  0  0
  136.0555   78.7686  222.4463 H   0  0  0  0  0  0  0  0  0  0  0  0
  135.2213   77.5968  221.4176 H   0  0  0  0  0  0  0  0  0  0  0  0
  136.2890   77.2685  224.2267 H   0  0  0  0  0  0  0  0  0  0  0  0
  134.1810   76.3440  222.6810 H   0  0  0  0  0  0  0  0  0  0  0  0
  137.5034   75.3160  223.8644 H   0  0  0  0  0  0  0  0  0  0  0  0
  136.3880   74.7194  222.6296 H   0  0  0  0  0  0  0  0  0  0  0  0
  137.4845   73.6482  220.7525 H   0  0  0  0  0  0  0  0  0  0  0  0
  139.2488   73.3803  220.4278 H   0  0  0  0  0  0  0  0  0  0  0  0
  137.8050   72.9080  222.9940 H   0  0  0  0  0  0  0  0  0  0  0  0
  139.1524   69.9603  222.5429 H   0  0  0  0  0  0  0  0  0  0  0  0
  139.2403   68.2026  224.3178 H   0  0  0  0  0  0  0  0  0  0  0  0
  139.8200   67.5486  226.6319 H   0  0  0  0  0  0  0  0  0  0  0  0
  141.5348   70.4924  229.3034 H   0  0  0  0  0  0  0  0  0  0  0  0
  141.4267   72.2119  227.4949 H   0  0  0  0  0  0  0  0  0  0  0  0
  142.4034   80.0843  218.3927 H   0  0  0  0  0  0  0  0  0  0  0  0
  1  2  1  0
  2  3  1  0
  3  4  2  0
  4  5  1  0
  5  6  2  0
  6  7  1  0
  7  8  1  0
  7  9  1  0
  9 10  1  0
 10 11  2  0
 10 12  1  0
 12 13  1  0
 13 14  1  0
 14 15  1  0
 14 16  1  0
 16 17  1  0
 17 18  1  0
 18 19  2  0
 18 20  1  0
 20 21  1  0
 21 22  1  0
 22 23  2  0
 22 24  1  0
 24 25  2  0
 25 26  1  0
 26 27  2  0
 27 28  1  0
 28 29  2  0
 29 30  1  0
 29 31  1  0
 31 32  2  0
 32 33  1  0
 33 34  2  0
  6 35  1  0
 35 36  1  0
 35 37  2  0
 37  3  1  0
 17 12  1  0
 34 24  1  0
 33 27  1  0
  1 38  1  0
  1 39  1  0
  1 40  1  0
  4 41  1  0
  5 42  1  0
  7 43  1  1
  8 44  1  0
  8 45  1  0
  8 46  1  0
  9 47  1  0
 12 48  1  6
 13 49  1  0
 13 50  1  0
 14 51  1  1
 15 52  1  0
 16 53  1  0
 16 54  1  0
 20 55  1  0
 20 56  1  0
 21 57  1  0
 25 58  1  0
 26 59  1  0
 28 60  1  0
 31 61  1  0
 32 62  1  0
 37 63  1  0
M  END
>  <UniqueID>  (19) 
1

>  <SMILES>  (19) 
COc1ccc([C@H](C)NC(=O)[C@@H]2C[C@@H](O)CN2C(=O)CNC(=O)c2ccc3cc(F)ccc3n2)c(Cl)c1

>  <Energy>  (19) 
62.67687487480324

>  <Genealogy>  (19) 
COc1ccc([C@H](C)NC(=O)[C@@H]2C[C@@H](O)CN2C(=O)CNC(=O)c2ccc3cc(F)ccc3n2)c(Cl)c1 (3D coordinates assigned)
COc1ccc([C@H](C)NC(=O)[C@@H]2C[C@@H](O)CN2C(=O)CNC(=O)c2ccc3cc(F)ccc3n2)c(Cl)c1 (nonaromatic ring conformer: 62.67687487480324 kcal/mol)

>  <smiles>  (19) 
COc1ccc([C@H](C)NC(=O)[C@@H]2C[C@@H](O)CN2C(=O)CNC(=O)c2ccc3cc(F)ccc3n2)c(Cl)c1

>  <score_type>  (19) 
oracle

>  <origin>  (19) 
autodockgpu

>  <m_score__min__energy>  (19) 
-9.4800000000000004

>  <m_primary>  (19) 
energy

>  <meeko>  (19) 
{"free_energy": -7.76, "intermolecular_energy": -10.45, "internal_energy": -2.52, "cluster_size": 2, "cluster_id": 4, "rank_in_cluster": 1}

>  <energy>  (19) 
-5.22

>  <cluster_rmsd>  (19) 
1.25

>  <rmsd>  (19) 
271.04

>  <cluster>  (19) 
7

$$$$
PMUWBFKMLGLUTF-QDRFXLRBNA-N
     RDKit          3D

 63 66  0  0  0  0  0  0  0  0999 V2000
  140.3480   83.0160  220.8720 C   0  0  0  0  0  0  0  0  0  0  0  0
  139.7850   81.7630  220.5000 O   0  0  0  0  0  0  0  0  0  0  0  0
  140.4990   80.7260  219.8810 C   0  0  0  0  0  0  0  0  0  0  0  0
  141.8500   80.8510  219.5220 C   0  0  0  0  0  0  0  0  0  0  0  0
  142.5150   79.7920  218.9030 C   0  0  0  0  0  0  0  0  0  0  0  0
  141.8510   78.5820  218.6230 C   0  0  0  0  0  0  0  0  0  0  0  0
  142.6360   77.4630  217.9530 C   0  0  2  0  0  0  0  0  0  0  0  0
  142.2220   77.2540  216.4910 C   0  0  0  0  0  0  0  0  0  0  0  0
  142.5300   76.2190  218.7250 N   0  0  0  0  0  0  0  0  0  0  0  0
  143.4850   75.9010  219.7500 C   0  0  0  0  0  0  0  0  0  0  0  0
  144.3610   76.7460  220.0780 O   0  0  0  0  0  0  0  0  0  0  0  0
  143.5250   74.5340  220.3840 C   0  0  2  0  0  0  0  0  0  0  0  0
  144.9640   74.0230  220.5060 C   0  0  0  0  0  0  0  0  0  0  0  0
  145.1100   72.9440  219.4270 C   0  0  1  0  0  0  0  0  0  0  0  0
  145.9390   71.8840  219.8380 O   0  0  0  0  0  0  0  0  0  0  0  0
  143.6900   72.4820  219.1040 C   0  0  0  0  0  0  0  0  0  0  0  0
  142.8180   73.5440  219.5800 N   0  0  0  0  0  0  0  0  0  0  0  0
  141.3890   73.3970  219.5870 C   0  0  0  0  0  0  0  0  0  0  0  0
  140.7420   73.5280  218.5130 O   0  0  0  0  0  0  0  0  0  0  0  0
  140.6430   73.1490  220.8650 C   0  0  0  0  0  0  0  0  0  0  0  0
  140.6620   74.3170  221.7400 N   0  0  0  0  0  0  0  0  0  0  0  0
  139.6150   75.2950  221.6710 C   0  0  0  0  0  0  0  0  0  0  0  0
  138.5080   74.9870  221.1500 O   0  0  0  0  0  0  0  0  0  0  0  0
  139.8300   76.6610  222.1850 C   0  0  0  0  0  0  0  0  0  0  0  0
  138.7670   77.4130  222.7160 C   0  0  0  0  0  0  0  0  0  0  0  0
  138.9930   78.7200  223.1520 C   0  0  0  0  0  0  0  0  0  0  0  0
  140.2750   79.2730  223.0620 C   0  0  0  0  0  0  0  0  0  0  0  0
  140.5380   80.5840  223.4850 C   0  0  0  0  0  0  0  0  0  0  0  0
  141.8310   81.1080  223.3760 C   0  0  0  0  0  0  0  0  0  0  0  0
  142.0850   82.3760  223.7870 F   0  0  0  0  0  0  0  0  0  0  0  0
  142.8660   80.3270  222.8460 C   0  0  0  0  0  0  0  0  0  0  0  0
  142.6120   79.0190  222.4210 C   0  0  0  0  0  0  0  0  0  0  0  0
  141.3220   78.4870  222.5280 C   0  0  0  0  0  0  0  0  0  0  0  0
  141.0720   77.2180  222.1110 N   0  0  0  0  0  0  0  0  0  0  0  0
  140.4890   78.4560  218.9940 C   0  0  0  0  0  0  0  0  0  0  0  0
  139.5520   76.9900  218.7170 Cl  0  0  0  0  0  0  0  0  0  0  0  0
  139.8330   79.5260  219.6180 C   0  0  0  0  0  0  0  0  0  0  0  0
  140.3820   83.0916  221.9689 H   0  0  0  0  0  0  0  0  0  0  0  0
  141.3679   83.0944  220.4673 H   0  0  0  0  0  0  0  0  0  0  0  0
  139.7294   83.8306  220.4673 H   0  0  0  0  0  0  0  0  0  0  0  0
  142.3871   81.7882  219.7296 H   0  0  0  0  0  0  0  0  0  0  0  0
  143.5745   79.9040  218.6294 H   0  0  0  0  0  0  0  0  0  0  0  0
  143.6924   77.7692  217.9372 H   0  0  0  0  0  0  0  0  0  0  0  0
  141.2406   76.7585  216.4551 H   0  0  0  0  0  0  0  0  0  0  0  0
  142.1595   78.2286  215.9847 H   0  0  0  0  0  0  0  0  0  0  0  0
  142.9690   76.6250  215.9847 H   0  0  0  0  0  0  0  0  0  0  0  0
  141.7950   75.5170  218.4790 H   0  0  0  0  0  0  0  0  0  0  0  0
  143.0520   74.6507  221.3702 H   0  0  0  0  0  0  0  0  0  0  0  0
  145.6783   74.8409  220.3305 H   0  0  0  0  0  0  0  0  0  0  0  0
  145.1714   73.6255  221.5105 H   0  0  0  0  0  0  0  0  0  0  0  0
  145.6070   73.3456  218.5316 H   0  0  0  0  0  0  0  0  0  0  0  0
  145.8830   71.8170  220.8270 H   0  0  0  0  0  0  0  0  0  0  0  0
  143.5686   72.3419  218.0197 H   0  0  0  0  0  0  0  0  0  0  0  0
  143.4564   71.5182  219.5799 H   0  0  0  0  0  0  0  0  0  0  0  0
  139.5985   72.9010  220.6250 H   0  0  0  0  0  0  0  0  0  0  0  0
  141.1357   72.3190  221.3925 H   0  0  0  0  0  0  0  0  0  0  0  0
  141.4690   74.4750  222.3860 H   0  0  0  0  0  0  0  0  0  0  0  0
  137.7613   76.9732  222.7876 H   0  0  0  0  0  0  0  0  0  0  0  0
  138.1646   79.3139  223.5655 H   0  0  0  0  0  0  0  0  0  0  0  0
  139.7281   81.2003  223.9024 H   0  0  0  0  0  0  0  0  0  0  0  0
  143.8808   80.7434  222.7639 H   0  0  0  0  0  0  0  0  0  0  0  0
  143.4259   78.4086  222.0028 H   0  0  0  0  0  0  0  0  0  0  0  0
  138.7766   79.4194  219.9054 H   0  0  0  0  0  0  0  0  0  0  0  0
  1  2  1  0
  2  3  1  0
  3  4  2  0
  4  5  1  0
  5  6  2  0
  6  7  1  0
  7  8  1  0
  7  9  1  0
  9 10  1  0
 10 11  2  0
 10 12  1  0
 12 13  1  0
 13 14  1  0
 14 15  1  0
 14 16  1  0
 16 17  1  0
 17 18  1  0
 18 19  2  0
 18 20  1  0
 20 21  1  0
 21 22  1  0
 22 23  2  0
 22 24  1  0
 24 25  2  0
 25 26  1  0
 26 27  2  0
 27 28  1  0
 28 29  2  0
 29 30  1  0
 29 31  1  0
 31 32  2  0
 32 33  1  0
 33 34  2  0
  6 35  1  0
 35 36  1  0
 35 37  2  0
 37  3  1  0
 17 12  1  0
 34 24  1  0
 33 27  1  0
  1 38  1  0
  1 39  1  0
  1 40  1  0
  4 41  1  0
  5 42  1  0
  7 43  1  6
  8 44  1  0
  8 45  1  0
  8 46  1  0
  9 47  1  0
 12 48  1  1
 13 49  1  0
 13 50  1  0
 14 51  1  6
 15 52  1  0
 16 53  1  0
 16 54  1  0
 20 55  1  0
 20 56  1  0
 21 57  1  0
 25 58  1  0
 26 59  1  0
 28 60  1  0
 31 61  1  0
 32 62  1  0
 37 63  1  0
M  END
>  <UniqueID>  (20) 
1

>  <SMILES>  (20) 
COc1ccc([C@H](C)NC(=O)[C@@H]2C[C@@H](O)CN2C(=O)CNC(=O)c2ccc3cc(F)ccc3n2)c(Cl)c1

>  <Energy>  (20) 
62.67687487480324

>  <Genealogy>  (20) 
COc1ccc([C@H](C)NC(=O)[C@@H]2C[C@@H](O)CN2C(=O)CNC(=O)c2ccc3cc(F)ccc3n2)c(Cl)c1 (3D coordinates assigned)
COc1ccc([C@H](C)NC(=O)[C@@H]2C[C@@H](O)CN2C(=O)CNC(=O)c2ccc3cc(F)ccc3n2)c(Cl)c1 (nonaromatic ring conformer: 62.67687487480324 kcal/mol)

>  <smiles>  (20) 
COc1ccc([C@H](C)NC(=O)[C@@H]2C[C@@H](O)CN2C(=O)CNC(=O)c2ccc3cc(F)ccc3n2)c(Cl)c1

>  <score_type>  (20) 
oracle

>  <origin>  (20) 
autodockgpu

>  <m_score__min__energy>  (20) 
-9.4800000000000004

>  <m_primary>  (20) 
energy

>  <meeko>  (20) 
{"free_energy": -6.14, "intermolecular_energy": -8.83, "internal_energy": -5.05, "cluster_size": 10, "cluster_id": 7, "rank_in_cluster": 1}

>  <energy>  (20) 
-5.52

>  <cluster_rmsd>  (20) 
0.0

>  <rmsd>  (20) 
271.33

>  <cluster>  (20) 
8

$$$$
JFIDHXWBANSMLJ-ISVIKUIWNA-N
     RDKit          3D

 63 66  0  0  0  0  0  0  0  0999 V2000
  141.1220   69.6300  218.6170 H   0  0  0  0  0  0  0  0  0  0  0  0
  141.6940   70.4370  218.4060 O   0  0  0  0  0  0  0  0  0  0  0  0
  141.5470   71.6870  219.0110 C   0  0  0  0  0  0  0  0  0  0  0  0
  142.5910   72.4080  219.3590 N   0  0  0  0  0  0  0  0  0  0  0  0
  143.6850   72.7560  218.4520 C   0  0  0  0  0  0  0  0  0  0  0  0
  143.2971   73.3080  217.5832 H   0  0  0  0  0  0  0  0  0  0  0  0
  144.1901   71.8548  218.0743 H   0  0  0  0  0  0  0  0  0  0  0  0
  144.6460   73.6340  219.2480 C   0  0  2  0  0  0  0  0  0  0  0  0
  144.5832   74.6895  218.9448 H   0  0  0  0  0  0  0  0  0  0  0  0
  145.9730   73.2360  219.0260 O   0  0  0  0  0  0  0  0  0  0  0  0
  146.4930   74.0700  218.8620 H   0  0  0  0  0  0  0  0  0  0  0  0
  144.2520   73.4600  220.7130 C   0  0  0  0  0  0  0  0  0  0  0  0
  144.3187   74.4206  221.2448 H   0  0  0  0  0  0  0  0  0  0  0  0
  144.9196   72.7566  221.2323 H   0  0  0  0  0  0  0  0  0  0  0  0
  142.8040   72.9580  220.6960 C   0  0  1  0  0  0  0  0  0  0  0  0
  142.6356   72.2100  221.4848 H   0  0  0  0  0  0  0  0  0  0  0  0
  141.8370   74.0880  220.9450 C   0  0  0  0  0  0  0  0  0  0  0  0
  141.0960   74.0620  221.9730 O   0  0  0  0  0  0  0  0  0  0  0  0
  141.7600   75.1800  220.0150 N   0  0  0  0  0  0  0  0  0  0  0  0
  140.6420   76.1230  219.9620 C   0  0  2  0  0  0  0  0  0  0  0  0
  140.5421   76.4842  218.9278 H   0  0  0  0  0  0  0  0  0  0  0  0
  140.9150   77.3190  220.8670 C   0  0  0  0  0  0  0  0  0  0  0  0
  140.5770   77.2160  222.2320 C   0  0  0  0  0  0  0  0  0  0  0  0
  140.0838   76.3052  222.6024 H   0  0  0  0  0  0  0  0  0  0  0  0
  140.8610   78.2570  223.1200 C   0  0  0  0  0  0  0  0  0  0  0  0
  140.6084   78.1475  224.1850 H   0  0  0  0  0  0  0  0  0  0  0  0
  141.4640   79.4390  222.6690 C   0  0  0  0  0  0  0  0  0  0  0  0
  141.7110   80.4650  223.5990 O   0  0  0  0  0  0  0  0  0  0  0  0
  143.0140   80.8990  223.9910 C   0  0  0  0  0  0  0  0  0  0  0  0
  143.0785   80.9205  225.0889 H   0  0  0  0  0  0  0  0  0  0  0  0
  143.7674   80.2033  223.5930 H   0  0  0  0  0  0  0  0  0  0  0  0
  143.1997   81.9075  223.5930 H   0  0  0  0  0  0  0  0  0  0  0  0
  141.8100   79.5560  221.3090 C   0  0  0  0  0  0  0  0  0  0  0  0
  142.2864   80.4786  220.9458 H   0  0  0  0  0  0  0  0  0  0  0  0
  141.5530   78.5070  220.4120 C   0  0  0  0  0  0  0  0  0  0  0  0
  142.0740   78.7380  218.7410 Cl  0  0  0  0  0  0  0  0  0  0  0  0
  139.3230   75.4340  220.3490 C   0  0  0  0  0  0  0  0  0  0  0  0
  139.2398   75.3906  221.4450 H   0  0  0  0  0  0  0  0  0  0  0  0
  138.4769   76.0053  219.9394 H   0  0  0  0  0  0  0  0  0  0  0  0
  139.3086   74.4132  219.9394 H   0  0  0  0  0  0  0  0  0  0  0  0
  140.1380   72.1310  219.3060 C   0  0  0  0  0  0  0  0  0  0  0  0
  140.0642   73.2210  219.1780 H   0  0  0  0  0  0  0  0  0  0  0  0
  139.4463   71.6290  218.6135 H   0  0  0  0  0  0  0  0  0  0  0  0
  139.7850   71.7780  220.6830 N   0  0  0  0  0  0  0  0  0  0  0  0
  139.6690   72.5480  221.3840 H   0  0  0  0  0  0  0  0  0  0  0  0
  139.7010   70.4090  221.1230 C   0  0  0  0  0  0  0  0  0  0  0  0
  139.7480   69.4670  220.2810 O   0  0  0  0  0  0  0  0  0  0  0  0
  139.5530   70.0990  222.5580 C   0  0  0  0  0  0  0  0  0  0  0  0
  140.1270   70.9160  223.4900 N   0  0  0  0  0  0  0  0  0  0  0  0
  140.0550   70.6480  224.8210 C   0  0  0  0  0  0  0  0  0  0  0  0
  140.7150   71.4760  225.7390 C   0  0  0  0  0  0  0  0  0  0  0  0
  141.2791   72.3511  225.3841 H   0  0  0  0  0  0  0  0  0  0  0  0
  140.6560   71.1890  227.1070 C   0  0  0  0  0  0  0  0  0  0  0  0
  141.1678   71.8432  227.8282 H   0  0  0  0  0  0  0  0  0  0  0  0
  139.9450   70.0680  227.5600 C   0  0  0  0  0  0  0  0  0  0  0  0
  139.9090   69.7840  228.8870 F   0  0  0  0  0  0  0  0  0  0  0  0
  139.2940   69.2270  226.6500 C   0  0  0  0  0  0  0  0  0  0  0  0
  138.7375   68.3495  227.0110 H   0  0  0  0  0  0  0  0  0  0  0  0
  139.3530   69.5060  225.2760 C   0  0  0  0  0  0  0  0  0  0  0  0
  138.7500   68.6590  224.3360 C   0  0  0  0  0  0  0  0  0  0  0  0
  138.1955   67.7695  224.6697 H   0  0  0  0  0  0  0  0  0  0  0  0
  138.8560   68.9490  222.9740 C   0  0  0  0  0  0  0  0  0  0  0  0
  138.3969   68.2817  222.2297 H   0  0  0  0  0  0  0  0  0  0  0  0
  1  2  1  0
  2  3  1  0
  3  4  2  0
  4  5  1  0
  5  6  1  0
  5  7  1  0
  5  8  1  0
  8  9  1  6
  8 10  1  0
 10 11  1  0
  8 12  1  0
 12 13  1  0
 12 14  1  0
 12 15  1  0
 15 16  1  1
 15 17  1  0
 17 18  2  0
 17 19  1  0
 19 20  1  0
 20 21  1  6
 20 22  1  0
 22 23  2  0
 23 24  1  0
 23 25  1  0
 25 26  1  0
 25 27  2  0
 27 28  1  0
 28 29  1  0
 29 30  1  0
 29 31  1  0
 29 32  1  0
 27 33  1  0
 33 34  1  0
 33 35  2  0
 35 36  1  0
 20 37  1  0
 37 38  1  0
 37 39  1  0
 37 40  1  0
  3 41  1  0
 41 42  1  0
 41 43  1  0
 41 44  1  0
 44 45  1  0
 44 46  1  0
 46 47  2  0
 46 48  1  0
 48 49  2  0
 49 50  1  0
 50 51  2  0
 51 52  1  0
 51 53  1  0
 53 54  1  0
 53 55  2  0
 55 56  1  0
 55 57  1  0
 57 58  1  0
 57 59  2  0
 59 60  1  0
 60 61  1  0
 60 62  2  0
 62 63  1  0
 15  4  1  0
 35 22  1  0
 62 48  1  0
 59 50  1  0
M  CHG  2   4   1  19  -1
M  END
>  <UniqueID>  (21) 
2

>  <SMILES>  (21) 
COc1ccc([C@H](C)[N-]C(=O)[C@@H]2C[C@@H](O)C/[N+]2=C(/O)CNC(=O)c2ccc3cc(F)ccc3n2)c(Cl)c1

>  <Energy>  (21) 
63.291865297288076

>  <Genealogy>  (21) 
COc1ccc([C@H](C)[N-]C(=O)[C@@H]2C[C@@H](O)C[NH+]2C(=O)CNC(=O)c2ccc3cc(F)ccc3n2)c(Cl)c1 (protonated)
COc1ccc([C@H](C)[N-]C(=O)[C@@H]2C[C@@H](O)C[N+]2=C(O)CNC(=O)c2ccc3cc(F)ccc3n2)c(Cl)c1 (tautomer)
COc1ccc([C@H](C)[N-]C(=O)[C@@H]2C[C@@H](O)C/[N+]2=C(/O)CNC(=O)c2ccc3cc(F)ccc3n2)c(Cl)c1 (cis-trans isomerization)
COc1ccc([C@H](C)[N-]C(=O)[C@@H]2C[C@@H](O)C/[N+]2=C(/O)CNC(=O)c2ccc3cc(F)ccc3n2)c(Cl)c1 (3D coordinates assigned)
COc1ccc([C@H](C)[N-]C(=O)[C@@H]2C[C@@H](O)C/[N+]2=C(/O)CNC(=O)c2ccc3cc(F)ccc3n2)c(Cl)c1 (nonaromatic ring conformer: 63.291865297288076 kcal/mol)

>  <smiles>  (21) 
COc1ccc([C@H](C)NC(=O)[C@@H]2C[C@@H](O)CN2C(=O)CNC(=O)c2ccc3cc(F)ccc3n2)c(Cl)c1

>  <score_type>  (21) 
oracle

>  <origin>  (21) 
autodockgpu

>  <m_score__min__energy>  (21) 
-7.9500000000000002

>  <m_primary>  (21) 
energy

>  <meeko>  (21) 
{"free_energy": -7.03, "intermolecular_energy": -10.31, "internal_energy": -3.75, "cluster_size": 2, "cluster_id": 3, "rank_in_cluster": 2}

>  <energy>  (21) 
-7.95

>  <cluster_rmsd>  (21) 
0.0

>  <rmsd>  (21) 
271.48

>  <cluster>  (21) 
1

$$$$
JFIDHXWBANSMLJ-ISVIKUIWNA-N
     RDKit          3D

 63 66  0  0  0  0  0  0  0  0999 V2000
  142.6110   79.3810  220.5810 H   0  0  0  0  0  0  0  0  0  0  0  0
  142.4980   80.3570  220.3440 O   0  0  0  0  0  0  0  0  0  0  0  0
  141.7350   80.8240  219.2700 C   0  0  0  0  0  0  0  0  0  0  0  0
  140.6820   81.5880  219.4590 N   0  0  0  0  0  0  0  0  0  0  0  0
  139.4270   81.4500  218.7200 C   0  0  0  0  0  0  0  0  0  0  0  0
  139.0129   80.4406  218.8599 H   0  0  0  0  0  0  0  0  0  0  0  0
  139.5828   81.5987  217.6413 H   0  0  0  0  0  0  0  0  0  0  0  0
  138.4710   82.4950  219.2880 C   0  0  2  0  0  0  0  0  0  0  0  0
  137.6923   82.0387  219.9169 H   0  0  0  0  0  0  0  0  0  0  0  0
  137.8010   83.1640  218.2520 O   0  0  0  0  0  0  0  0  0  0  0  0
  137.9600   82.6310  217.4250 H   0  0  0  0  0  0  0  0  0  0  0  0
  139.3390   83.4550  220.0990 C   0  0  0  0  0  0  0  0  0  0  0  0
  138.8212   83.7527  221.0227 H   0  0  0  0  0  0  0  0  0  0  0  0
  139.5566   84.3765  219.5391 H   0  0  0  0  0  0  0  0  0  0  0  0
  140.6180   82.6800  220.4300 C   0  0  1  0  0  0  0  0  0  0  0  0
  141.5007   83.3345  220.3792 H   0  0  0  0  0  0  0  0  0  0  0  0
  140.5650   82.1190  221.8280 C   0  0  0  0  0  0  0  0  0  0  0  0
  141.5440   82.3000  222.6120 O   0  0  0  0  0  0  0  0  0  0  0  0
  139.4100   81.3810  222.2580 N   0  0  0  0  0  0  0  0  0  0  0  0
  139.3790   80.5530  223.4650 C   0  0  2  0  0  0  0  0  0  0  0  0
  140.1887   80.8828  224.1326 H   0  0  0  0  0  0  0  0  0  0  0  0
  139.6120   79.0890  223.1080 C   0  0  0  0  0  0  0  0  0  0  0  0
  138.4900   78.2820  222.8260 C   0  0  0  0  0  0  0  0  0  0  0  0
  137.4792   78.7064  222.9158 H   0  0  0  0  0  0  0  0  0  0  0  0
  138.6470   76.9500  222.4340 C   0  0  0  0  0  0  0  0  0  0  0  0
  137.7595   76.3438  222.1998 H   0  0  0  0  0  0  0  0  0  0  0  0
  139.9220   76.3780  222.3360 C   0  0  0  0  0  0  0  0  0  0  0  0
  140.0260   75.0280  221.9560 O   0  0  0  0  0  0  0  0  0  0  0  0
  140.9090   74.5420  220.9430 C   0  0  0  0  0  0  0  0  0  0  0  0
  141.7796   74.0628  221.4146 H   0  0  0  0  0  0  0  0  0  0  0  0
  140.3805   73.8077  220.3173 H   0  0  0  0  0  0  0  0  0  0  0  0
  141.2466   75.3814  220.3173 H   0  0  0  0  0  0  0  0  0  0  0  0
  141.0520   77.1720  222.6110 C   0  0  0  0  0  0  0  0  0  0  0  0
  142.0575   76.7324  222.5349 H   0  0  0  0  0  0  0  0  0  0  0  0
  140.9090   78.5180  222.9810 C   0  0  0  0  0  0  0  0  0  0  0  0
  142.3930   79.4360  223.2530 Cl  0  0  0  0  0  0  0  0  0  0  0  0
  138.0480   80.7270  224.2170 C   0  0  0  0  0  0  0  0  0  0  0  0
  138.2334   80.7028  225.3010 H   0  0  0  0  0  0  0  0  0  0  0  0
  137.5959   81.6919  223.9438 H   0  0  0  0  0  0  0  0  0  0  0  0
  137.3631   79.9107  223.9438 H   0  0  0  0  0  0  0  0  0  0  0  0
  142.1400   80.3480  217.9000 C   0  0  0  0  0  0  0  0  0  0  0  0
  141.2420   80.2207  217.2776 H   0  0  0  0  0  0  0  0  0  0  0  0
  142.8078   81.0915  217.4405 H   0  0  0  0  0  0  0  0  0  0  0  0
  142.8430   79.0680  218.0060 N   0  0  0  0  0  0  0  0  0  0  0  0
  143.7320   78.9380  217.4680 H   0  0  0  0  0  0  0  0  0  0  0  0
  142.2940   77.9530  218.7350 C   0  0  0  0  0  0  0  0  0  0  0  0
  141.2720   78.1110  219.4630 O   0  0  0  0  0  0  0  0  0  0  0  0
  142.9260   76.6230  218.6410 C   0  0  0  0  0  0  0  0  0  0  0  0
  143.5080   76.0700  219.7450 N   0  0  0  0  0  0  0  0  0  0  0  0
  144.1400   74.8670  219.6980 C   0  0  0  0  0  0  0  0  0  0  0  0
  144.7830   74.3670  220.8380 C   0  0  0  0  0  0  0  0  0  0  0  0
  144.7647   74.9414  221.7759 H   0  0  0  0  0  0  0  0  0  0  0  0
  145.4480   73.1380  220.7840 C   0  0  0  0  0  0  0  0  0  0  0  0
  145.9458   72.7428  221.6818 H   0  0  0  0  0  0  0  0  0  0  0  0
  145.4810   72.4090  219.5870 C   0  0  0  0  0  0  0  0  0  0  0  0
  146.1450   71.2270  219.5350 F   0  0  0  0  0  0  0  0  0  0  0  0
  144.8540   72.9060  218.4380 C   0  0  0  0  0  0  0  0  0  0  0  0
  144.8832   72.3297  217.5015 H   0  0  0  0  0  0  0  0  0  0  0  0
  144.1880   74.1410  218.4830 C   0  0  0  0  0  0  0  0  0  0  0  0
  143.5890   74.6860  217.3410 C   0  0  0  0  0  0  0  0  0  0  0  0
  143.6102   74.1340  216.3898 H   0  0  0  0  0  0  0  0  0  0  0  0
  142.9640   75.9340  217.4140 C   0  0  0  0  0  0  0  0  0  0  0  0
  142.5043   76.3755  216.5175 H   0  0  0  0  0  0  0  0  0  0  0  0
  1  2  1  0
  2  3  1  0
  3  4  2  0
  4  5  1  0
  5  6  1  0
  5  7  1  0
  5  8  1  0
  8  9  1  1
  8 10  1  0
 10 11  1  0
  8 12  1  0
 12 13  1  0
 12 14  1  0
 12 15  1  0
 15 16  1  1
 15 17  1  0
 17 18  2  0
 17 19  1  0
 19 20  1  0
 20 21  1  1
 20 22  1  0
 22 23  2  0
 23 24  1  0
 23 25  1  0
 25 26  1  0
 25 27  2  0
 27 28  1  0
 28 29  1  0
 29 30  1  0
 29 31  1  0
 29 32  1  0
 27 33  1  0
 33 34  1  0
 33 35  2  0
 35 36  1  0
 20 37  1  0
 37 38  1  0
 37 39  1  0
 37 40  1  0
  3 41  1  0
 41 42  1  0
 41 43  1  0
 41 44  1  0
 44 45  1  0
 44 46  1  0
 46 47  2  0
 46 48  1  0
 48 49  2  0
 49 50  1  0
 50 51  2  0
 51 52  1  0
 51 53  1  0
 53 54  1  0
 53 55  2  0
 55 56  1  0
 55 57  1  0
 57 58  1  0
 57 59  2  0
 59 60  1  0
 60 61  1  0
 60 62  2  0
 62 63  1  0
 15  4  1  0
 35 22  1  0
 62 48  1  0
 59 50  1  0
M  CHG  2   4   1  19  -1
M  END
>  <UniqueID>  (22) 
2

>  <SMILES>  (22) 
COc1ccc([C@H](C)[N-]C(=O)[C@@H]2C[C@@H](O)C/[N+]2=C(/O)CNC(=O)c2ccc3cc(F)ccc3n2)c(Cl)c1

>  <Energy>  (22) 
63.291865297288076

>  <Genealogy>  (22) 
COc1ccc([C@H](C)[N-]C(=O)[C@@H]2C[C@@H](O)C[NH+]2C(=O)CNC(=O)c2ccc3cc(F)ccc3n2)c(Cl)c1 (protonated)
COc1ccc([C@H](C)[N-]C(=O)[C@@H]2C[C@@H](O)C[N+]2=C(O)CNC(=O)c2ccc3cc(F)ccc3n2)c(Cl)c1 (tautomer)
COc1ccc([C@H](C)[N-]C(=O)[C@@H]2C[C@@H](O)C/[N+]2=C(/O)CNC(=O)c2ccc3cc(F)ccc3n2)c(Cl)c1 (cis-trans isomerization)
COc1ccc([C@H](C)[N-]C(=O)[C@@H]2C[C@@H](O)C/[N+]2=C(/O)CNC(=O)c2ccc3cc(F)ccc3n2)c(Cl)c1 (3D coordinates assigned)
COc1ccc([C@H](C)[N-]C(=O)[C@@H]2C[C@@H](O)C/[N+]2=C(/O)CNC(=O)c2ccc3cc(F)ccc3n2)c(Cl)c1 (nonaromatic ring conformer: 63.291865297288076 kcal/mol)

>  <smiles>  (22) 
COc1ccc([C@H](C)NC(=O)[C@@H]2C[C@@H](O)CN2C(=O)CNC(=O)c2ccc3cc(F)ccc3n2)c(Cl)c1

>  <score_type>  (22) 
oracle

>  <origin>  (22) 
autodockgpu

>  <m_score__min__energy>  (22) 
-7.9500000000000002

>  <m_primary>  (22) 
energy

>  <meeko>  (22) 
{"free_energy": -7.0, "intermolecular_energy": -10.28, "internal_energy": -3.51, "cluster_size": 1, "cluster_id": 4, "rank_in_cluster": 1}

>  <energy>  (22) 
-7.14

>  <cluster_rmsd>  (22) 
1.23

>  <rmsd>  (22) 
271.31

>  <cluster>  (22) 
1

$$$$
JFIDHXWBANSMLJ-ISVIKUIWNA-N
     RDKit          3D

 63 66  0  0  0  0  0  0  0  0999 V2000
  140.2650   71.0930  220.0620 H   0  0  0  0  0  0  0  0  0  0  0  0
  141.1480   71.5260  219.8240 O   0  0  0  0  0  0  0  0  0  0  0  0
  141.6450   72.6840  220.4260 C   0  0  0  0  0  0  0  0  0  0  0  0
  142.8890   73.0710  220.2450 N   0  0  0  0  0  0  0  0  0  0  0  0
  143.9520   72.2000  219.7430 C   0  0  0  0  0  0  0  0  0  0  0  0
  143.6826   71.8037  218.7529 H   0  0  0  0  0  0  0  0  0  0  0  0
  144.1117   71.3415  220.4120 H   0  0  0  0  0  0  0  0  0  0  0  0
  145.2080   73.0620  219.6420 C   0  0  2  0  0  0  0  0  0  0  0  0
  145.4555   73.3058  218.5983 H   0  0  0  0  0  0  0  0  0  0  0  0
  146.3170   72.3770  220.1620 O   0  0  0  0  0  0  0  0  0  0  0  0
  145.9890   71.8720  220.9560 H   0  0  0  0  0  0  0  0  0  0  0  0
  144.9090   74.3270  220.4450 C   0  0  0  0  0  0  0  0  0  0  0  0
  145.3220   75.2107  219.9365 H   0  0  0  0  0  0  0  0  0  0  0  0
  145.3631   74.2892  221.4462 H   0  0  0  0  0  0  0  0  0  0  0  0
  143.3820   74.4190  220.5200 C   0  0  1  0  0  0  0  0  0  0  0  0
  143.0567   74.7874  221.5041 H   0  0  0  0  0  0  0  0  0  0  0  0
  142.8460   75.3810  219.4900 C   0  0  0  0  0  0  0  0  0  0  0  0
  143.6130   75.8100  218.5770 O   0  0  0  0  0  0  0  0  0  0  0  0
  141.4750   75.8050  219.5550 N   0  0  0  0  0  0  0  0  0  0  0  0
  141.0030   77.1000  219.0630 C   0  0  2  0  0  0  0  0  0  0  0  0
  141.4841   77.2985  218.0939 H   0  0  0  0  0  0  0  0  0  0  0  0
  141.3940   78.2100  220.0330 C   0  0  0  0  0  0  0  0  0  0  0  0
  141.4340   77.9110  221.4100 C   0  0  0  0  0  0  0  0  0  0  0  0
  141.1382   76.9101  221.7576 H   0  0  0  0  0  0  0  0  0  0  0  0
  141.8450   78.8710  222.3390 C   0  0  0  0  0  0  0  0  0  0  0  0
  141.8879   78.6110  223.4070 H   0  0  0  0  0  0  0  0  0  0  0  0
  142.2030   80.1610  221.9250 C   0  0  0  0  0  0  0  0  0  0  0  0
  142.5910   81.0970  222.9000 O   0  0  0  0  0  0  0  0  0  0  0  0
  141.9350   81.2670  224.1580 C   0  0  0  0  0  0  0  0  0  0  0  0
  142.6505   81.0816  224.9727 H   0  0  0  0  0  0  0  0  0  0  0  0
  141.5500   82.2946  224.2349 H   0  0  0  0  0  0  0  0  0  0  0  0
  141.0994   80.5557  224.2349 H   0  0  0  0  0  0  0  0  0  0  0  0
  142.1710   80.4730  220.5520 C   0  0  0  0  0  0  0  0  0  0  0  0
  142.4530   81.4819  220.2165 H   0  0  0  0  0  0  0  0  0  0  0  0
  141.7830   79.5100  219.6070 C   0  0  0  0  0  0  0  0  0  0  0  0
  141.8280   79.9920  217.9090 Cl  0  0  0  0  0  0  0  0  0  0  0  0
  139.4800   77.0810  218.8390 C   0  0  0  0  0  0  0  0  0  0  0  0
  138.9664   77.0746  219.8117 H   0  0  0  0  0  0  0  0  0  0  0  0
  139.1815   77.9755  218.2726 H   0  0  0  0  0  0  0  0  0  0  0  0
  139.2039   76.1793  218.2726 H   0  0  0  0  0  0  0  0  0  0  0  0
  140.7070   73.4220  221.3440 C   0  0  0  0  0  0  0  0  0  0  0  0
  141.1421   74.3988  221.6021 H   0  0  0  0  0  0  0  0  0  0  0  0
  139.7423   73.5682  220.8361 H   0  0  0  0  0  0  0  0  0  0  0  0
  140.4960   72.6450  222.5680 N   0  0  0  0  0  0  0  0  0  0  0  0
  140.9670   72.9590  223.4490 H   0  0  0  0  0  0  0  0  0  0  0  0
  139.7550   71.4100  222.5700 C   0  0  0  0  0  0  0  0  0  0  0  0
  139.1040   71.0570  221.5440 O   0  0  0  0  0  0  0  0  0  0  0  0
  139.7450   70.5530  223.7710 C   0  0  0  0  0  0  0  0  0  0  0  0
  140.3210   70.9980  224.9260 N   0  0  0  0  0  0  0  0  0  0  0  0
  140.3760   70.2280  226.0440 C   0  0  0  0  0  0  0  0  0  0  0  0
  141.0350   70.6980  227.1880 C   0  0  0  0  0  0  0  0  0  0  0  0
  141.4958   71.6968  227.1858 H   0  0  0  0  0  0  0  0  0  0  0  0
  141.1070   69.8970  228.3330 C   0  0  0  0  0  0  0  0  0  0  0  0
  141.6185   70.2696  229.2327 H   0  0  0  0  0  0  0  0  0  0  0  0
  140.5280   68.6200  228.3350 C   0  0  0  0  0  0  0  0  0  0  0  0
  140.6190   67.8400  229.4410 F   0  0  0  0  0  0  0  0  0  0  0  0
  139.8790   68.1350  227.1930 C   0  0  0  0  0  0  0  0  0  0  0  0
  139.4265   67.1324  227.2001 H   0  0  0  0  0  0  0  0  0  0  0  0
  139.8070   68.9310  226.0390 C   0  0  0  0  0  0  0  0  0  0  0  0
  139.2040   68.4570  224.8660 C   0  0  0  0  0  0  0  0  0  0  0  0
  138.7517   67.4545  224.8434 H   0  0  0  0  0  0  0  0  0  0  0  0
  139.1800   69.2640  223.7250 C   0  0  0  0  0  0  0  0  0  0  0  0
  138.7220   68.8940  222.7958 H   0  0  0  0  0  0  0  0  0  0  0  0
  1  2  1  0
  2  3  1  0
  3  4  2  0
  4  5  1  0
  5  6  1  0
  5  7  1  0
  5  8  1  0
  8  9  1  6
  8 10  1  0
 10 11  1  0
  8 12  1  0
 12 13  1  0
 12 14  1  0
 12 15  1  0
 15 16  1  1
 15 17  1  0
 17 18  2  0
 17 19  1  0
 19 20  1  0
 20 21  1  6
 20 22  1  0
 22 23  2  0
 23 24  1  0
 23 25  1  0
 25 26  1  0
 25 27  2  0
 27 28  1  0
 28 29  1  0
 29 30  1  0
 29 31  1  0
 29 32  1  0
 27 33  1  0
 33 34  1  0
 33 35  2  0
 35 36  1  0
 20 37  1  0
 37 38  1  0
 37 39  1  0
 37 40  1  0
  3 41  1  0
 41 42  1  0
 41 43  1  0
 41 44  1  0
 44 45  1  0
 44 46  1  0
 46 47  2  0
 46 48  1  0
 48 49  2  0
 49 50  1  0
 50 51  2  0
 51 52  1  0
 51 53  1  0
 53 54  1  0
 53 55  2  0
 55 56  1  0
 55 57  1  0
 57 58  1  0
 57 59  2  0
 59 60  1  0
 60 61  1  0
 60 62  2  0
 62 63  1  0
 15  4  1  0
 35 22  1  0
 62 48  1  0
 59 50  1  0
M  CHG  2   4   1  19  -1
M  END
>  <UniqueID>  (23) 
2

>  <SMILES>  (23) 
COc1ccc([C@H](C)[N-]C(=O)[C@@H]2C[C@@H](O)C/[N+]2=C(/O)CNC(=O)c2ccc3cc(F)ccc3n2)c(Cl)c1

>  <Energy>  (23) 
63.291865297288076

>  <Genealogy>  (23) 
COc1ccc([C@H](C)[N-]C(=O)[C@@H]2C[C@@H](O)C[NH+]2C(=O)CNC(=O)c2ccc3cc(F)ccc3n2)c(Cl)c1 (protonated)
COc1ccc([C@H](C)[N-]C(=O)[C@@H]2C[C@@H](O)C[N+]2=C(O)CNC(=O)c2ccc3cc(F)ccc3n2)c(Cl)c1 (tautomer)
COc1ccc([C@H](C)[N-]C(=O)[C@@H]2C[C@@H](O)C/[N+]2=C(/O)CNC(=O)c2ccc3cc(F)ccc3n2)c(Cl)c1 (cis-trans isomerization)
COc1ccc([C@H](C)[N-]C(=O)[C@@H]2C[C@@H](O)C/[N+]2=C(/O)CNC(=O)c2ccc3cc(F)ccc3n2)c(Cl)c1 (3D coordinates assigned)
COc1ccc([C@H](C)[N-]C(=O)[C@@H]2C[C@@H](O)C/[N+]2=C(/O)CNC(=O)c2ccc3cc(F)ccc3n2)c(Cl)c1 (nonaromatic ring conformer: 63.291865297288076 kcal/mol)

>  <smiles>  (23) 
COc1ccc([C@H](C)NC(=O)[C@@H]2C[C@@H](O)CN2C(=O)CNC(=O)c2ccc3cc(F)ccc3n2)c(Cl)c1

>  <score_type>  (23) 
oracle

>  <origin>  (23) 
autodockgpu

>  <m_score__min__energy>  (23) 
-7.9500000000000002

>  <m_primary>  (23) 
energy

>  <meeko>  (23) 
{"free_energy": -7.37, "intermolecular_energy": -10.65, "internal_energy": -2.89, "cluster_size": 2, "cluster_id": 3, "rank_in_cluster": 1}

>  <energy>  (23) 
-7.69

>  <cluster_rmsd>  (23) 
0.0

>  <rmsd>  (23) 
271.07

>  <cluster>  (23) 
2

$$$$
JFIDHXWBANSMLJ-ISVIKUIWNA-N
     RDKit          3D

 63 66  0  0  0  0  0  0  0  0999 V2000
  136.6440   73.1780  219.3130 H   0  0  0  0  0  0  0  0  0  0  0  0
  136.7330   72.3360  219.8670 O   0  0  0  0  0  0  0  0  0  0  0  0
  137.3300   72.2840  221.1290 C   0  0  0  0  0  0  0  0  0  0  0  0
  138.1140   71.2870  221.4760 N   0  0  0  0  0  0  0  0  0  0  0  0
  138.0990   69.9720  220.8350 C   0  0  0  0  0  0  0  0  0  0  0  0
  138.3069   70.0713  219.7594 H   0  0  0  0  0  0  0  0  0  0  0  0
  137.1159   69.4898  220.9401 H   0  0  0  0  0  0  0  0  0  0  0  0
  139.1920   69.1480  221.5090 C   0  0  2  0  0  0  0  0  0  0  0  0
  140.0683   69.0196  220.8567 H   0  0  0  0  0  0  0  0  0  0  0  0
  138.7250   67.8580  221.8030 O   0  0  0  0  0  0  0  0  0  0  0  0
  139.5280   67.3140  222.0360 H   0  0  0  0  0  0  0  0  0  0  0  0
  139.5620   69.9080  222.7810 C   0  0  0  0  0  0  0  0  0  0  0  0
  140.6487   69.8710  222.9476 H   0  0  0  0  0  0  0  0  0  0  0  0
  139.0844   69.4696  223.6696 H   0  0  0  0  0  0  0  0  0  0  0  0
  139.1060   71.3520  222.5480 C   0  0  1  0  0  0  0  0  0  0  0  0
  138.6943   71.7892  223.4696 H   0  0  0  0  0  0  0  0  0  0  0  0
  140.2610   72.2230  222.1240 C   0  0  0  0  0  0  0  0  0  0  0  0
  140.4370   73.3460  222.6840 O   0  0  0  0  0  0  0  0  0  0  0  0
  141.1490   71.7760  221.0860 N   0  0  0  0  0  0  0  0  0  0  0  0
  142.5670   72.1330  221.0210 C   0  0  2  0  0  0  0  0  0  0  0  0
  142.9783   72.1041  222.0408 H   0  0  0  0  0  0  0  0  0  0  0  0
  142.7320   73.5460  220.4720 C   0  0  0  0  0  0  0  0  0  0  0  0
  141.5830   74.2300  220.0260 C   0  0  0  0  0  0  0  0  0  0  0  0
  140.6086   73.7196  220.0371 H   0  0  0  0  0  0  0  0  0  0  0  0
  141.6660   75.5480  219.5700 C   0  0  0  0  0  0  0  0  0  0  0  0
  140.7538   76.0688  219.2434 H   0  0  0  0  0  0  0  0  0  0  0  0
  142.8980   76.2140  219.5240 C   0  0  0  0  0  0  0  0  0  0  0  0
  142.9320   77.5340  219.0400 O   0  0  0  0  0  0  0  0  0  0  0  0
  142.6970   77.8980  217.6780 C   0  0  0  0  0  0  0  0  0  0  0  0
  142.1007   78.8217  217.6430 H   0  0  0  0  0  0  0  0  0  0  0  0
  143.6593   78.0634  217.1714 H   0  0  0  0  0  0  0  0  0  0  0  0
  142.1502   77.0891  217.1714 H   0  0  0  0  0  0  0  0  0  0  0  0
  144.0550   75.5460  219.9700 C   0  0  0  0  0  0  0  0  0  0  0  0
  145.0267   76.0607  219.9403 H   0  0  0  0  0  0  0  0  0  0  0  0
  143.9800   74.2300  220.4520 C   0  0  0  0  0  0  0  0  0  0  0  0
  145.4820   73.5040  221.0340 Cl  0  0  0  0  0  0  0  0  0  0  0  0
  143.3510   71.1210  220.1690 C   0  0  0  0  0  0  0  0  0  0  0  0
  143.8898   70.4255  220.8292 H   0  0  0  0  0  0  0  0  0  0  0  0
  142.6520   70.5568  219.5342 H   0  0  0  0  0  0  0  0  0  0  0  0
  144.0720   71.6569  219.5342 H   0  0  0  0  0  0  0  0  0  0  0  0
  136.9710   73.3870  222.0900 C   0  0  0  0  0  0  0  0  0  0  0  0
  135.9998   73.8177  221.8050 H   0  0  0  0  0  0  0  0  0  0  0  0
  136.9098   72.9755  223.1083 H   0  0  0  0  0  0  0  0  0  0  0  0
  137.9960   74.4320  222.0520 N   0  0  0  0  0  0  0  0  0  0  0  0
  138.6090   74.5630  222.8920 H   0  0  0  0  0  0  0  0  0  0  0  0
  138.1130   75.3480  220.9470 C   0  0  0  0  0  0  0  0  0  0  0  0
  137.4480   75.1550  219.8890 O   0  0  0  0  0  0  0  0  0  0  0  0
  139.0140   76.5130  221.0410 C   0  0  0  0  0  0  0  0  0  0  0  0
  139.8150   76.6630  222.1370 N   0  0  0  0  0  0  0  0  0  0  0  0
  140.6290   77.7410  222.2890 C   0  0  0  0  0  0  0  0  0  0  0  0
  141.3840   77.8900  223.4600 C   0  0  0  0  0  0  0  0  0  0  0  0
  141.3295   77.1269  224.2504 H   0  0  0  0  0  0  0  0  0  0  0  0
  142.2070   79.0090  223.6240 C   0  0  0  0  0  0  0  0  0  0  0  0
  142.8046   79.1220  224.5406 H   0  0  0  0  0  0  0  0  0  0  0  0
  142.2710   79.9870  222.6210 C   0  0  0  0  0  0  0  0  0  0  0  0
  143.0560   81.0810  222.7950 F   0  0  0  0  0  0  0  0  0  0  0  0
  141.5100   79.8560  221.4540 C   0  0  0  0  0  0  0  0  0  0  0  0
  141.5635   80.6273  220.6715 H   0  0  0  0  0  0  0  0  0  0  0  0
  140.6780   78.7380  221.2840 C   0  0  0  0  0  0  0  0  0  0  0  0
  139.8700   78.5990  220.1480 C   0  0  0  0  0  0  0  0  0  0  0  0
  139.8977   79.3598  219.3540 H   0  0  0  0  0  0  0  0  0  0  0  0
  139.0290   77.4900  220.0280 C   0  0  0  0  0  0  0  0  0  0  0  0
  138.3813   77.3808  219.1456 H   0  0  0  0  0  0  0  0  0  0  0  0
  1  2  1  0
  2  3  1  0
  3  4  2  0
  4  5  1  0
  5  6  1  0
  5  7  1  0
  5  8  1  0
  8  9  1  6
  8 10  1  0
 10 11  1  0
  8 12  1  0
 12 13  1  0
 12 14  1  0
 12 15  1  0
 15 16  1  1
 15 17  1  0
 17 18  2  0
 17 19  1  0
 19 20  1  0
 20 21  1  1
 20 22  1  0
 22 23  2  0
 23 24  1  0
 23 25  1  0
 25 26  1  0
 25 27  2  0
 27 28  1  0
 28 29  1  0
 29 30  1  0
 29 31  1  0
 29 32  1  0
 27 33  1  0
 33 34  1  0
 33 35  2  0
 35 36  1  0
 20 37  1  0
 37 38  1  0
 37 39  1  0
 37 40  1  0
  3 41  1  0
 41 42  1  0
 41 43  1  0
 41 44  1  0
 44 45  1  0
 44 46  1  0
 46 47  2  0
 46 48  1  0
 48 49  2  0
 49 50  1  0
 50 51  2  0
 51 52  1  0
 51 53  1  0
 53 54  1  0
 53 55  2  0
 55 56  1  0
 55 57  1  0
 57 58  1  0
 57 59  2  0
 59 60  1  0
 60 61  1  0
 60 62  2  0
 62 63  1  0
 15  4  1  0
 35 22  1  0
 62 48  1  0
 59 50  1  0
M  CHG  2   4   1  19  -1
M  END
>  <UniqueID>  (24) 
2

>  <SMILES>  (24) 
COc1ccc([C@H](C)[N-]C(=O)[C@@H]2C[C@@H](O)C/[N+]2=C(/O)CNC(=O)c2ccc3cc(F)ccc3n2)c(Cl)c1

>  <Energy>  (24) 
63.291865297288076

>  <Genealogy>  (24) 
COc1ccc([C@H](C)[N-]C(=O)[C@@H]2C[C@@H](O)C[NH+]2C(=O)CNC(=O)c2ccc3cc(F)ccc3n2)c(Cl)c1 (protonated)
COc1ccc([C@H](C)[N-]C(=O)[C@@H]2C[C@@H](O)C[N+]2=C(O)CNC(=O)c2ccc3cc(F)ccc3n2)c(Cl)c1 (tautomer)
COc1ccc([C@H](C)[N-]C(=O)[C@@H]2C[C@@H](O)C/[N+]2=C(/O)CNC(=O)c2ccc3cc(F)ccc3n2)c(Cl)c1 (cis-trans isomerization)
COc1ccc([C@H](C)[N-]C(=O)[C@@H]2C[C@@H](O)C/[N+]2=C(/O)CNC(=O)c2ccc3cc(F)ccc3n2)c(Cl)c1 (3D coordinates assigned)
COc1ccc([C@H](C)[N-]C(=O)[C@@H]2C[C@@H](O)C/[N+]2=C(/O)CNC(=O)c2ccc3cc(F)ccc3n2)c(Cl)c1 (nonaromatic ring conformer: 63.291865297288076 kcal/mol)

>  <smiles>  (24) 
COc1ccc([C@H](C)NC(=O)[C@@H]2C[C@@H](O)CN2C(=O)CNC(=O)c2ccc3cc(F)ccc3n2)c(Cl)c1

>  <score_type>  (24) 
oracle

>  <origin>  (24) 
autodockgpu

>  <m_score__min__energy>  (24) 
-7.9500000000000002

>  <m_primary>  (24) 
energy

>  <meeko>  (24) 
{"free_energy": -5.4, "intermolecular_energy": -8.68, "internal_energy": -4.87, "cluster_size": 3, "cluster_id": 10, "rank_in_cluster": 1}

>  <energy>  (24) 
-7.64

>  <cluster_rmsd>  (24) 
0.55

>  <rmsd>  (24) 
271.14

>  <cluster>  (24) 
2

$$$$
JFIDHXWBANSMLJ-ISVIKUIWNA-N
     RDKit          3D

 63 66  0  0  0  0  0  0  0  0999 V2000
  139.5930   76.6960  222.4000 H   0  0  0  0  0  0  0  0  0  0  0  0
  139.9600   75.7540  222.3940 O   0  0  0  0  0  0  0  0  0  0  0  0
  140.3040   75.0490  221.2380 C   0  0  0  0  0  0  0  0  0  0  0  0
  141.2130   75.5030  220.4030 N   0  0  0  0  0  0  0  0  0  0  0  0
  141.6920   74.7660  219.2340 C   0  0  0  0  0  0  0  0  0  0  0  0
  140.8526   74.5309  218.5630 H   0  0  0  0  0  0  0  0  0  0  0  0
  142.1588   73.8144  219.5280 H   0  0  0  0  0  0  0  0  0  0  0  0
  142.6930   75.6760  218.5270 C   0  0  2  0  0  0  0  0  0  0  0  0
  142.2791   76.0985  217.5995 H   0  0  0  0  0  0  0  0  0  0  0  0
  143.8380   74.9530  218.1570 O   0  0  0  0  0  0  0  0  0  0  0  0
  144.5180   75.6270  217.8780 H   0  0  0  0  0  0  0  0  0  0  0  0
  143.0320   76.7780  219.5290 C   0  0  0  0  0  0  0  0  0  0  0  0
  143.1200   77.7477  219.0173 H   0  0  0  0  0  0  0  0  0  0  0  0
  143.9927   76.5891  220.0304 H   0  0  0  0  0  0  0  0  0  0  0  0
  141.8700   76.8040  220.5260 C   0  0  1  0  0  0  0  0  0  0  0  0
  142.2305   76.9928  221.5480 H   0  0  0  0  0  0  0  0  0  0  0  0
  140.8950   77.9040  220.1930 C   0  0  0  0  0  0  0  0  0  0  0  0
  139.6770   77.7810  220.5220 O   0  0  0  0  0  0  0  0  0  0  0  0
  141.3520   79.0790  219.5040 N   0  0  0  0  0  0  0  0  0  0  0  0
  141.4870   80.3910  220.1370 C   0  0  2  0  0  0  0  0  0  0  0  0
  142.5442   80.5410  220.4012 H   0  0  0  0  0  0  0  0  0  0  0  0
  140.6560   80.4500  221.4140 C   0  0  0  0  0  0  0  0  0  0  0  0
  139.2700   80.6790  221.3000 C   0  0  0  0  0  0  0  0  0  0  0  0
  138.8286   80.8568  220.3083 H   0  0  0  0  0  0  0  0  0  0  0  0
  138.4490   80.6830  222.4320 C   0  0  0  0  0  0  0  0  0  0  0  0
  137.3669   80.8448  222.3186 H   0  0  0  0  0  0  0  0  0  0  0  0
  138.9900   80.4830  223.7100 C   0  0  0  0  0  0  0  0  0  0  0  0
  138.1260   80.5150  224.8180 O   0  0  0  0  0  0  0  0  0  0  0  0
  137.2780   81.6170  225.1460 C   0  0  0  0  0  0  0  0  0  0  0  0
  137.2056   81.7111  226.2396 H   0  0  0  0  0  0  0  0  0  0  0  0
  137.6995   82.5419  224.7255 H   0  0  0  0  0  0  0  0  0  0  0  0
  136.2760   81.4464  224.7255 H   0  0  0  0  0  0  0  0  0  0  0  0
  140.3730   80.2500  223.8390 C   0  0  0  0  0  0  0  0  0  0  0  0
  140.8071   80.0898  224.8370 H   0  0  0  0  0  0  0  0  0  0  0  0
  141.2030   80.2200  222.7080 C   0  0  0  0  0  0  0  0  0  0  0  0
  142.9130   79.8680  222.9790 Cl  0  0  0  0  0  0  0  0  0  0  0  0
  141.0810   81.5140  219.1680 C   0  0  0  0  0  0  0  0  0  0  0  0
  140.7620   82.3963  219.7423 H   0  0  0  0  0  0  0  0  0  0  0  0
  141.9399   81.7799  218.5343 H   0  0  0  0  0  0  0  0  0  0  0  0
  140.2506   81.1691  218.5343 H   0  0  0  0  0  0  0  0  0  0  0  0
  139.5310   73.7860  220.9640 C   0  0  0  0  0  0  0  0  0  0  0  0
  138.5170   74.0448  220.6250 H   0  0  0  0  0  0  0  0  0  0  0  0
  140.0464   73.2070  220.1835 H   0  0  0  0  0  0  0  0  0  0  0  0
  139.4450   72.9820  222.1850 N   0  0  0  0  0  0  0  0  0  0  0  0
  139.5470   73.4630  223.1100 H   0  0  0  0  0  0  0  0  0  0  0  0
  139.3360   71.5460  222.1480 C   0  0  0  0  0  0  0  0  0  0  0  0
  139.1230   70.9520  221.0520 O   0  0  0  0  0  0  0  0  0  0  0  0
  139.4670   70.7610  223.3900 C   0  0  0  0  0  0  0  0  0  0  0  0
  140.0250   71.3320  224.4980 N   0  0  0  0  0  0  0  0  0  0  0  0
  140.2070   70.6350  225.6510 C   0  0  0  0  0  0  0  0  0  0  0  0
  140.8450   71.2400  226.7420 C   0  0  0  0  0  0  0  0  0  0  0  0
  141.1861   72.2833  226.6705 H   0  0  0  0  0  0  0  0  0  0  0  0
  141.0480   70.5170  227.9220 C   0  0  0  0  0  0  0  0  0  0  0  0
  141.5425   70.9947  228.7806 H   0  0  0  0  0  0  0  0  0  0  0  0
  140.6220   69.1840  228.0120 C   0  0  0  0  0  0  0  0  0  0  0  0
  140.8400   68.4810  229.1520 F   0  0  0  0  0  0  0  0  0  0  0  0
  139.9960   68.5660  226.9230 C   0  0  0  0  0  0  0  0  0  0  0  0
  139.6638   67.5201  226.9992 H   0  0  0  0  0  0  0  0  0  0  0  0
  139.7930   69.2830  225.7340 C   0  0  0  0  0  0  0  0  0  0  0  0
  139.2110   68.6810  224.6120 C   0  0  0  0  0  0  0  0  0  0  0  0
  138.8783   67.6335  224.6582 H   0  0  0  0  0  0  0  0  0  0  0  0
  139.0540   69.4150  223.4330 C   0  0  0  0  0  0  0  0  0  0  0  0
  138.6103   68.9441  222.5434 H   0  0  0  0  0  0  0  0  0  0  0  0
  1  2  1  0
  2  3  1  0
  3  4  2  0
  4  5  1  0
  5  6  1  0
  5  7  1  0
  5  8  1  0
  8  9  1  6
  8 10  1  0
 10 11  1  0
  8 12  1  0
 12 13  1  0
 12 14  1  0
 12 15  1  0
 15 16  1  1
 15 17  1  0
 17 18  2  0
 17 19  1  0
 19 20  1  0
 20 21  1  1
 20 22  1  0
 22 23  2  0
 23 24  1  0
 23 25  1  0
 25 26  1  0
 25 27  2  0
 27 28  1  0
 28 29  1  0
 29 30  1  0
 29 31  1  0
 29 32  1  0
 27 33  1  0
 33 34  1  0
 33 35  2  0
 35 36  1  0
 20 37  1  0
 37 38  1  0
 37 39  1  0
 37 40  1  0
  3 41  1  0
 41 42  1  0
 41 43  1  0
 41 44  1  0
 44 45  1  0
 44 46  1  0
 46 47  2  0
 46 48  1  0
 48 49  2  0
 49 50  1  0
 50 51  2  0
 51 52  1  0
 51 53  1  0
 53 54  1  0
 53 55  2  0
 55 56  1  0
 55 57  1  0
 57 58  1  0
 57 59  2  0
 59 60  1  0
 60 61  1  0
 60 62  2  0
 62 63  1  0
 15  4  1  0
 35 22  1  0
 62 48  1  0
 59 50  1  0
M  CHG  2   4   1  19  -1
M  END
>  <UniqueID>  (25) 
2

>  <SMILES>  (25) 
COc1ccc([C@H](C)[N-]C(=O)[C@@H]2C[C@@H](O)C/[N+]2=C(/O)CNC(=O)c2ccc3cc(F)ccc3n2)c(Cl)c1

>  <Energy>  (25) 
63.291865297288076

>  <Genealogy>  (25) 
COc1ccc([C@H](C)[N-]C(=O)[C@@H]2C[C@@H](O)C[NH+]2C(=O)CNC(=O)c2ccc3cc(F)ccc3n2)c(Cl)c1 (protonated)
COc1ccc([C@H](C)[N-]C(=O)[C@@H]2C[C@@H](O)C[N+]2=C(O)CNC(=O)c2ccc3cc(F)ccc3n2)c(Cl)c1 (tautomer)
COc1ccc([C@H](C)[N-]C(=O)[C@@H]2C[C@@H](O)C/[N+]2=C(/O)CNC(=O)c2ccc3cc(F)ccc3n2)c(Cl)c1 (cis-trans isomerization)
COc1ccc([C@H](C)[N-]C(=O)[C@@H]2C[C@@H](O)C/[N+]2=C(/O)CNC(=O)c2ccc3cc(F)ccc3n2)c(Cl)c1 (3D coordinates assigned)
COc1ccc([C@H](C)[N-]C(=O)[C@@H]2C[C@@H](O)C/[N+]2=C(/O)CNC(=O)c2ccc3cc(F)ccc3n2)c(Cl)c1 (nonaromatic ring conformer: 63.291865297288076 kcal/mol)

>  <smiles>  (25) 
COc1ccc([C@H](C)NC(=O)[C@@H]2C[C@@H](O)CN2C(=O)CNC(=O)c2ccc3cc(F)ccc3n2)c(Cl)c1

>  <score_type>  (25) 
oracle

>  <origin>  (25) 
autodockgpu

>  <m_score__min__energy>  (25) 
-7.9500000000000002

>  <m_primary>  (25) 
energy

>  <meeko>  (25) 
{"free_energy": -7.69, "intermolecular_energy": -10.97, "internal_energy": -3.07, "cluster_size": 6, "cluster_id": 2, "rank_in_cluster": 1}

>  <energy>  (25) 
-7.64

>  <cluster_rmsd>  (25) 
1.33

>  <rmsd>  (25) 
271.0

>  <cluster>  (25) 
2

$$$$
JFIDHXWBANSMLJ-ISVIKUIWNA-N
     RDKit          3D

 63 66  0  0  0  0  0  0  0  0999 V2000
  136.0230   72.2760  221.0360 H   0  0  0  0  0  0  0  0  0  0  0  0
  135.9370   73.2770  220.9170 O   0  0  0  0  0  0  0  0  0  0  0  0
  137.0080   74.1720  220.9790 C   0  0  0  0  0  0  0  0  0  0  0  0
  136.8130   75.4730  221.0100 N   0  0  0  0  0  0  0  0  0  0  0  0
  135.4980   76.1010  221.1370 C   0  0  0  0  0  0  0  0  0  0  0  0
  135.0054   75.7673  222.0622 H   0  0  0  0  0  0  0  0  0  0  0  0
  134.8441   75.8280  220.2956 H   0  0  0  0  0  0  0  0  0  0  0  0
  135.7390   77.6070  221.1820 C   0  0  2  0  0  0  0  0  0  0  0  0
  135.5947   78.0143  222.1936 H   0  0  0  0  0  0  0  0  0  0  0  0
  134.8270   78.2760  220.3510 O   0  0  0  0  0  0  0  0  0  0  0  0
  134.1910   78.7500  220.9550 H   0  0  0  0  0  0  0  0  0  0  0  0
  137.1760   77.8130  220.7070 C   0  0  0  0  0  0  0  0  0  0  0  0
  137.6662   78.6008  221.2978 H   0  0  0  0  0  0  0  0  0  0  0  0
  137.2146   78.1287  219.6540 H   0  0  0  0  0  0  0  0  0  0  0  0
  137.8790   76.4690  220.9210 C   0  0  1  0  0  0  0  0  0  0  0  0
  138.5799   76.2553  220.1006 H   0  0  0  0  0  0  0  0  0  0  0  0
  138.6820   76.4750  222.1970 C   0  0  0  0  0  0  0  0  0  0  0  0
  138.4360   77.3430  223.0870 O   0  0  0  0  0  0  0  0  0  0  0  0
  139.7210   75.5020  222.3920 N   0  0  0  0  0  0  0  0  0  0  0  0
  141.1060   75.6950  221.9610 C   0  0  2  0  0  0  0  0  0  0  0  0
  141.7383   75.7866  222.8564 H   0  0  0  0  0  0  0  0  0  0  0  0
  141.2320   76.9780  221.1460 C   0  0  0  0  0  0  0  0  0  0  0  0
  141.1310   76.8910  219.7420 C   0  0  0  0  0  0  0  0  0  0  0  0
  141.0145   75.9062  219.2659 H   0  0  0  0  0  0  0  0  0  0  0  0
  141.1770   78.0400  218.9480 C   0  0  0  0  0  0  0  0  0  0  0  0
  141.0756   77.9515  217.8563 H   0  0  0  0  0  0  0  0  0  0  0  0
  141.3510   79.3040  219.5280 C   0  0  0  0  0  0  0  0  0  0  0  0
  141.4100   80.4280  218.6850 O   0  0  0  0  0  0  0  0  0  0  0  0
  142.4870   80.7050  217.7880 C   0  0  0  0  0  0  0  0  0  0  0  0
  143.3940   80.9383  218.3650 H   0  0  0  0  0  0  0  0  0  0  0  0
  142.6718   79.8252  217.1542 H   0  0  0  0  0  0  0  0  0  0  0  0
  142.2244   81.5648  217.1542 H   0  0  0  0  0  0  0  0  0  0  0  0
  141.4500   79.4080  220.9290 C   0  0  0  0  0  0  0  0  0  0  0  0
  141.5835   80.3960  221.3938 H   0  0  0  0  0  0  0  0  0  0  0  0
  141.3800   78.2630  221.7380 C   0  0  0  0  0  0  0  0  0  0  0  0
  141.4630   78.5110  223.4850 Cl  0  0  0  0  0  0  0  0  0  0  0  0
  141.6050   74.4840  221.1550 C   0  0  0  0  0  0  0  0  0  0  0  0
  141.9310   73.6927  221.8461 H   0  0  0  0  0  0  0  0  0  0  0  0
  140.7900   74.1044  220.5212 H   0  0  0  0  0  0  0  0  0  0  0  0
  142.4508   74.7887  220.5212 H   0  0  0  0  0  0  0  0  0  0  0  0
  138.3890   73.5740  220.9370 C   0  0  0  0  0  0  0  0  0  0  0  0
  138.4467   72.8459  220.1145 H   0  0  0  0  0  0  0  0  0  0  0  0
  139.1263   74.3743  220.7763 H   0  0  0  0  0  0  0  0  0  0  0  0
  138.6770   72.8990  222.2050 N   0  0  0  0  0  0  0  0  0  0  0  0
  139.2210   73.4160  222.9360 H   0  0  0  0  0  0  0  0  0  0  0  0
  138.3310   71.5190  222.4310 C   0  0  0  0  0  0  0  0  0  0  0  0
  137.5990   70.9030  221.6040 O   0  0  0  0  0  0  0  0  0  0  0  0
  138.8250   70.8180  223.6320 C   0  0  0  0  0  0  0  0  0  0  0  0
  139.4540   71.5240  224.6170 N   0  0  0  0  0  0  0  0  0  0  0  0
  139.9650   70.9160  225.7210 C   0  0  0  0  0  0  0  0  0  0  0  0
  140.6620   71.6680  226.6760 C   0  0  0  0  0  0  0  0  0  0  0  0
  140.7837   72.7528  226.5402 H   0  0  0  0  0  0  0  0  0  0  0  0
  141.2030   71.0390  227.8020 C   0  0  0  0  0  0  0  0  0  0  0  0
  141.7452   71.6306  228.5543 H   0  0  0  0  0  0  0  0  0  0  0  0
  141.0550   69.6550  227.9730 C   0  0  0  0  0  0  0  0  0  0  0  0
  141.6000   69.0480  229.0580 F   0  0  0  0  0  0  0  0  0  0  0  0
  140.3720   68.8920  227.0190 C   0  0  0  0  0  0  0  0  0  0  0  0
  140.2593   67.8068  227.1589 H   0  0  0  0  0  0  0  0  0  0  0  0
  139.8310   69.5150  225.8830 C   0  0  0  0  0  0  0  0  0  0  0  0
  139.1820   68.7740  224.8880 C   0  0  0  0  0  0  0  0  0  0  0  0
  139.0644   67.6858  224.9979 H   0  0  0  0  0  0  0  0  0  0  0  0
  138.6840   69.4230  223.7540 C   0  0  0  0  0  0  0  0  0  0  0  0
  138.1847   68.8463  222.9615 H   0  0  0  0  0  0  0  0  0  0  0  0
  1  2  1  0
  2  3  1  0
  3  4  2  0
  4  5  1  0
  5  6  1  0
  5  7  1  0
  5  8  1  0
  8  9  1  1
  8 10  1  0
 10 11  1  0
  8 12  1  0
 12 13  1  0
 12 14  1  0
 12 15  1  0
 15 16  1  6
 15 17  1  0
 17 18  2  0
 17 19  1  0
 19 20  1  0
 20 21  1  1
 20 22  1  0
 22 23  2  0
 23 24  1  0
 23 25  1  0
 25 26  1  0
 25 27  2  0
 27 28  1  0
 28 29  1  0
 29 30  1  0
 29 31  1  0
 29 32  1  0
 27 33  1  0
 33 34  1  0
 33 35  2  0
 35 36  1  0
 20 37  1  0
 37 38  1  0
 37 39  1  0
 37 40  1  0
  3 41  1  0
 41 42  1  0
 41 43  1  0
 41 44  1  0
 44 45  1  0
 44 46  1  0
 46 47  2  0
 46 48  1  0
 48 49  2  0
 49 50  1  0
 50 51  2  0
 51 52  1  0
 51 53  1  0
 53 54  1  0
 53 55  2  0
 55 56  1  0
 55 57  1  0
 57 58  1  0
 57 59  2  0
 59 60  1  0
 60 61  1  0
 60 62  2  0
 62 63  1  0
 15  4  1  0
 35 22  1  0
 62 48  1  0
 59 50  1  0
M  CHG  2   4   1  19  -1
M  END
>  <UniqueID>  (26) 
2

>  <SMILES>  (26) 
COc1ccc([C@H](C)[N-]C(=O)[C@@H]2C[C@@H](O)C/[N+]2=C(/O)CNC(=O)c2ccc3cc(F)ccc3n2)c(Cl)c1

>  <Energy>  (26) 
63.291865297288076

>  <Genealogy>  (26) 
COc1ccc([C@H](C)[N-]C(=O)[C@@H]2C[C@@H](O)C[NH+]2C(=O)CNC(=O)c2ccc3cc(F)ccc3n2)c(Cl)c1 (protonated)
COc1ccc([C@H](C)[N-]C(=O)[C@@H]2C[C@@H](O)C[N+]2=C(O)CNC(=O)c2ccc3cc(F)ccc3n2)c(Cl)c1 (tautomer)
COc1ccc([C@H](C)[N-]C(=O)[C@@H]2C[C@@H](O)C/[N+]2=C(/O)CNC(=O)c2ccc3cc(F)ccc3n2)c(Cl)c1 (cis-trans isomerization)
COc1ccc([C@H](C)[N-]C(=O)[C@@H]2C[C@@H](O)C/[N+]2=C(/O)CNC(=O)c2ccc3cc(F)ccc3n2)c(Cl)c1 (3D coordinates assigned)
COc1ccc([C@H](C)[N-]C(=O)[C@@H]2C[C@@H](O)C/[N+]2=C(/O)CNC(=O)c2ccc3cc(F)ccc3n2)c(Cl)c1 (nonaromatic ring conformer: 63.291865297288076 kcal/mol)

>  <smiles>  (26) 
COc1ccc([C@H](C)NC(=O)[C@@H]2C[C@@H](O)CN2C(=O)CNC(=O)c2ccc3cc(F)ccc3n2)c(Cl)c1

>  <score_type>  (26) 
oracle

>  <origin>  (26) 
autodockgpu

>  <m_score__min__energy>  (26) 
-7.9500000000000002

>  <m_primary>  (26) 
energy

>  <meeko>  (26) 
{"free_energy": -5.98, "intermolecular_energy": -9.26, "internal_energy": -3.83, "cluster_size": 1, "cluster_id": 8, "rank_in_cluster": 1}

>  <energy>  (26) 
-7.44

>  <cluster_rmsd>  (26) 
1.16

>  <rmsd>  (26) 
271.03

>  <cluster>  (26) 
2

$$$$
JFIDHXWBANSMLJ-ISVIKUIWNA-N
     RDKit          3D

 63 66  0  0  0  0  0  0  0  0999 V2000
  138.4110   71.6020  219.4180 H   0  0  0  0  0  0  0  0  0  0  0  0
  137.9040   72.4690  219.5360 O   0  0  0  0  0  0  0  0  0  0  0  0
  138.0880   73.3510  220.6040 C   0  0  0  0  0  0  0  0  0  0  0  0
  139.1690   74.0930  220.7010 N   0  0  0  0  0  0  0  0  0  0  0  0
  139.6790   74.6370  221.9610 C   0  0  0  0  0  0  0  0  0  0  0  0
  139.8894   73.8220  222.6691 H   0  0  0  0  0  0  0  0  0  0  0  0
  138.9429   75.3048  222.4325 H   0  0  0  0  0  0  0  0  0  0  0  0
  140.9640   75.3850  221.6220 C   0  0  2  0  0  0  0  0  0  0  0  0
  141.8573   74.8352  221.9533 H   0  0  0  0  0  0  0  0  0  0  0  0
  140.9970   76.6260  222.2760 O   0  0  0  0  0  0  0  0  0  0  0  0
  141.9570   76.8910  222.3290 H   0  0  0  0  0  0  0  0  0  0  0  0
  140.9580   75.5570  220.1040 C   0  0  0  0  0  0  0  0  0  0  0  0
  141.9699   75.4128  219.6976 H   0  0  0  0  0  0  0  0  0  0  0  0
  140.6334   76.5663  219.8109 H   0  0  0  0  0  0  0  0  0  0  0  0
  140.0090   74.4800  219.5690 C   0  0  1  0  0  0  0  0  0  0  0  0
  139.4175   74.8603  218.7231 H   0  0  0  0  0  0  0  0  0  0  0  0
  140.7760   73.2830  219.0690 C   0  0  0  0  0  0  0  0  0  0  0  0
  140.1720   72.3810  218.4150 O   0  0  0  0  0  0  0  0  0  0  0  0
  142.1830   73.1710  219.3400 N   0  0  0  0  0  0  0  0  0  0  0  0
  142.7310   72.4860  220.5120 C   0  0  2  0  0  0  0  0  0  0  0  0
  143.2513   73.2279  221.1356 H   0  0  0  0  0  0  0  0  0  0  0  0
  143.7380   71.4250  220.0820 C   0  0  0  0  0  0  0  0  0  0  0  0
  143.2840   70.1000  219.9140 C   0  0  0  0  0  0  0  0  0  0  0  0
  142.2368   69.8517  220.1416 H   0  0  0  0  0  0  0  0  0  0  0  0
  144.1480   69.0990  219.4620 C   0  0  0  0  0  0  0  0  0  0  0  0
  143.7682   68.0766  219.3189 H   0  0  0  0  0  0  0  0  0  0  0  0
  145.4930   69.3830  219.1890 C   0  0  0  0  0  0  0  0  0  0  0  0
  146.3270   68.3370  218.7560 O   0  0  0  0  0  0  0  0  0  0  0  0
  145.9790   66.9530  218.8170 C   0  0  0  0  0  0  0  0  0  0  0  0
  145.9005   66.6407  219.8688 H   0  0  0  0  0  0  0  0  0  0  0  0
  145.0132   66.7953  218.3146 H   0  0  0  0  0  0  0  0  0  0  0  0
  146.7553   66.3572  218.3146 H   0  0  0  0  0  0  0  0  0  0  0  0
  145.9600   70.7020  219.3490 C   0  0  0  0  0  0  0  0  0  0  0  0
  147.0134   70.9359  219.1354 H   0  0  0  0  0  0  0  0  0  0  0  0
  145.0960   71.7210  219.7780 C   0  0  0  0  0  0  0  0  0  0  0  0
  145.7730   73.3480  219.8960 Cl  0  0  0  0  0  0  0  0  0  0  0  0
  141.6080   71.8630  221.3590 C   0  0  0  0  0  0  0  0  0  0  0  0
  141.8397   71.9915  222.4266 H   0  0  0  0  0  0  0  0  0  0  0  0
  140.6550   72.3614  221.1280 H   0  0  0  0  0  0  0  0  0  0  0  0
  141.5264   70.7906  221.1280 H   0  0  0  0  0  0  0  0  0  0  0  0
  137.0220   73.3510  221.6680 C   0  0  0  0  0  0  0  0  0  0  0  0
  136.8813   74.3752  222.0439 H   0  0  0  0  0  0  0  0  0  0  0  0
  136.0796   72.9811  221.2377 H   0  0  0  0  0  0  0  0  0  0  0  0
  137.4240   72.4780  222.7740 N   0  0  0  0  0  0  0  0  0  0  0  0
  137.3260   72.8350  223.7540 H   0  0  0  0  0  0  0  0  0  0  0  0
  138.0460   71.1990  222.5500 C   0  0  0  0  0  0  0  0  0  0  0  0
  138.0930   70.7100  221.3840 O   0  0  0  0  0  0  0  0  0  0  0  0
  138.6260   70.4490  223.6800 C   0  0  0  0  0  0  0  0  0  0  0  0
  139.1960   71.1240  224.7200 N   0  0  0  0  0  0  0  0  0  0  0  0
  139.7820   70.4770  225.7620 C   0  0  0  0  0  0  0  0  0  0  0  0
  140.4140   71.2080  226.7770 C   0  0  0  0  0  0  0  0  0  0  0  0
  140.4232   72.3073  226.7383 H   0  0  0  0  0  0  0  0  0  0  0  0
  141.0330   70.5410  227.8390 C   0  0  0  0  0  0  0  0  0  0  0  0
  141.5228   71.1164  228.6384 H   0  0  0  0  0  0  0  0  0  0  0  0
  141.0300   69.1400  227.8860 C   0  0  0  0  0  0  0  0  0  0  0  0
  141.6500   68.4980  228.9080 F   0  0  0  0  0  0  0  0  0  0  0  0
  140.4130   68.3990  226.8710 C   0  0  0  0  0  0  0  0  0  0  0  0
  140.4132   67.2998  226.9135 H   0  0  0  0  0  0  0  0  0  0  0  0
  139.7940   69.0610  225.7990 C   0  0  0  0  0  0  0  0  0  0  0  0
  139.2080   68.3490  224.7450 C   0  0  0  0  0  0  0  0  0  0  0  0
  139.2028   67.2491  224.7579 H   0  0  0  0  0  0  0  0  0  0  0  0
  138.6300   69.0400  223.6770 C   0  0  0  0  0  0  0  0  0  0  0  0
  138.1807   68.4873  222.8388 H   0  0  0  0  0  0  0  0  0  0  0  0
  1  2  1  0
  2  3  1  0
  3  4  2  0
  4  5  1  0
  5  6  1  0
  5  7  1  0
  5  8  1  0
  8  9  1  6
  8 10  1  0
 10 11  1  0
  8 12  1  0
 12 13  1  0
 12 14  1  0
 12 15  1  0
 15 16  1  6
 15 17  1  0
 17 18  2  0
 17 19  1  0
 19 20  1  0
 20 21  1  1
 20 22  1  0
 22 23  2  0
 23 24  1  0
 23 25  1  0
 25 26  1  0
 25 27  2  0
 27 28  1  0
 28 29  1  0
 29 30  1  0
 29 31  1  0
 29 32  1  0
 27 33  1  0
 33 34  1  0
 33 35  2  0
 35 36  1  0
 20 37  1  0
 37 38  1  0
 37 39  1  0
 37 40  1  0
  3 41  1  0
 41 42  1  0
 41 43  1  0
 41 44  1  0
 44 45  1  0
 44 46  1  0
 46 47  2  0
 46 48  1  0
 48 49  2  0
 49 50  1  0
 50 51  2  0
 51 52  1  0
 51 53  1  0
 53 54  1  0
 53 55  2  0
 55 56  1  0
 55 57  1  0
 57 58  1  0
 57 59  2  0
 59 60  1  0
 60 61  1  0
 60 62  2  0
 62 63  1  0
 15  4  1  0
 35 22  1  0
 62 48  1  0
 59 50  1  0
M  CHG  2   4   1  19  -1
M  END
>  <UniqueID>  (27) 
2

>  <SMILES>  (27) 
COc1ccc([C@H](C)[N-]C(=O)[C@@H]2C[C@@H](O)C/[N+]2=C(/O)CNC(=O)c2ccc3cc(F)ccc3n2)c(Cl)c1

>  <Energy>  (27) 
63.291865297288076

>  <Genealogy>  (27) 
COc1ccc([C@H](C)[N-]C(=O)[C@@H]2C[C@@H](O)C[NH+]2C(=O)CNC(=O)c2ccc3cc(F)ccc3n2)c(Cl)c1 (protonated)
COc1ccc([C@H](C)[N-]C(=O)[C@@H]2C[C@@H](O)C[N+]2=C(O)CNC(=O)c2ccc3cc(F)ccc3n2)c(Cl)c1 (tautomer)
COc1ccc([C@H](C)[N-]C(=O)[C@@H]2C[C@@H](O)C/[N+]2=C(/O)CNC(=O)c2ccc3cc(F)ccc3n2)c(Cl)c1 (cis-trans isomerization)
COc1ccc([C@H](C)[N-]C(=O)[C@@H]2C[C@@H](O)C/[N+]2=C(/O)CNC(=O)c2ccc3cc(F)ccc3n2)c(Cl)c1 (3D coordinates assigned)
COc1ccc([C@H](C)[N-]C(=O)[C@@H]2C[C@@H](O)C/[N+]2=C(/O)CNC(=O)c2ccc3cc(F)ccc3n2)c(Cl)c1 (nonaromatic ring conformer: 63.291865297288076 kcal/mol)

>  <smiles>  (27) 
COc1ccc([C@H](C)NC(=O)[C@@H]2C[C@@H](O)CN2C(=O)CNC(=O)c2ccc3cc(F)ccc3n2)c(Cl)c1

>  <score_type>  (27) 
oracle

>  <origin>  (27) 
autodockgpu

>  <m_score__min__energy>  (27) 
-7.9500000000000002

>  <m_primary>  (27) 
energy

>  <meeko>  (27) 
{"free_energy": -6.61, "intermolecular_energy": -9.89, "internal_energy": -3.61, "cluster_size": 1, "cluster_id": 6, "rank_in_cluster": 1}

>  <energy>  (27) 
-7.13

>  <cluster_rmsd>  (27) 
1.3

>  <rmsd>  (27) 
270.67

>  <cluster>  (27) 
2

$$$$
JFIDHXWBANSMLJ-ISVIKUIWNA-N
     RDKit          3D

 63 66  0  0  0  0  0  0  0  0999 V2000
  141.8520   76.0380  222.5510 H   0  0  0  0  0  0  0  0  0  0  0  0
  141.1030   75.3920  222.3370 O   0  0  0  0  0  0  0  0  0  0  0  0
  140.6480   75.1140  221.0460 C   0  0  0  0  0  0  0  0  0  0  0  0
  141.0900   75.7830  220.0040 N   0  0  0  0  0  0  0  0  0  0  0  0
  140.5480   75.6450  218.6510 C   0  0  0  0  0  0  0  0  0  0  0  0
  139.4744   75.8844  218.6456 H   0  0  0  0  0  0  0  0  0  0  0  0
  140.6605   74.6153  218.2808 H   0  0  0  0  0  0  0  0  0  0  0  0
  141.3120   76.6320  217.7750 C   0  0  2  0  0  0  0  0  0  0  0  0
  140.6965   77.5037  217.5077 H   0  0  0  0  0  0  0  0  0  0  0  0
  141.6880   76.0270  216.5660 O   0  0  0  0  0  0  0  0  0  0  0  0
  140.9500   76.2060  215.9200 H   0  0  0  0  0  0  0  0  0  0  0  0
  142.5330   77.0530  218.5890 C   0  0  0  0  0  0  0  0  0  0  0  0
  142.7324   78.1263  218.4539 H   0  0  0  0  0  0  0  0  0  0  0  0
  143.4378   76.5139  218.2716 H   0  0  0  0  0  0  0  0  0  0  0  0
  142.1810   76.7550  220.0500 C   0  0  1  0  0  0  0  0  0  0  0  0
  143.0554   76.3733  220.5974 H   0  0  0  0  0  0  0  0  0  0  0  0
  141.7250   78.0030  220.7620 C   0  0  0  0  0  0  0  0  0  0  0  0
  141.4980   77.9640  222.0090 O   0  0  0  0  0  0  0  0  0  0  0  0
  141.5480   79.2230  220.0240 N   0  0  0  0  0  0  0  0  0  0  0  0
  141.5630   80.5510  220.6370 C   0  0  2  0  0  0  0  0  0  0  0  0
  142.5363   80.6937  221.1292 H   0  0  0  0  0  0  0  0  0  0  0  0
  140.4680   80.6610  221.6920 C   0  0  0  0  0  0  0  0  0  0  0  0
  139.1240   80.5790  221.2720 C   0  0  0  0  0  0  0  0  0  0  0  0
  138.8940   80.4888  220.2001 H   0  0  0  0  0  0  0  0  0  0  0  0
  138.0810   80.6110  222.2020 C   0  0  0  0  0  0  0  0  0  0  0  0
  137.0406   80.5261  221.8550 H   0  0  0  0  0  0  0  0  0  0  0  0
  138.3450   80.7500  223.5710 C   0  0  0  0  0  0  0  0  0  0  0  0
  137.2600   80.7960  224.4640 O   0  0  0  0  0  0  0  0  0  0  0  0
  137.2030   81.6350  225.6190 C   0  0  0  0  0  0  0  0  0  0  0  0
  137.2452   81.0138  226.5259 H   0  0  0  0  0  0  0  0  0  0  0  0
  138.0560   82.3294  225.6102 H   0  0  0  0  0  0  0  0  0  0  0  0
  136.2639   82.2077  225.6102 H   0  0  0  0  0  0  0  0  0  0  0  0
  139.6820   80.8290  224.0060 C   0  0  0  0  0  0  0  0  0  0  0  0
  139.9000   80.9357  225.0789 H   0  0  0  0  0  0  0  0  0  0  0  0
  140.7400   80.7730  223.0840 C   0  0  0  0  0  0  0  0  0  0  0  0
  142.3780   80.8290  223.7410 Cl  0  0  0  0  0  0  0  0  0  0  0  0
  141.4070   81.6500  219.5710 C   0  0  0  0  0  0  0  0  0  0  0  0
  141.2689   82.6231  220.0650 H   0  0  0  0  0  0  0  0  0  0  0  0
  142.3095   81.6825  218.9430 H   0  0  0  0  0  0  0  0  0  0  0  0
  140.5311   81.4300  218.9430 H   0  0  0  0  0  0  0  0  0  0  0  0
  139.5770   74.0620  220.9220 C   0  0  0  0  0  0  0  0  0  0  0  0
  138.6056   74.5485  220.7497 H   0  0  0  0  0  0  0  0  0  0  0  0
  139.8151   73.3995  220.0768 H   0  0  0  0  0  0  0  0  0  0  0  0
  139.5130   73.2710  222.1530 N   0  0  0  0  0  0  0  0  0  0  0  0
  139.7130   73.7470  223.0650 H   0  0  0  0  0  0  0  0  0  0  0  0
  139.2920   71.8480  222.1370 C   0  0  0  0  0  0  0  0  0  0  0  0
  138.9600   71.2680  221.0630 O   0  0  0  0  0  0  0  0  0  0  0  0
  139.4460   71.0600  223.3750 C   0  0  0  0  0  0  0  0  0  0  0  0
  140.0090   71.6340  224.4780 N   0  0  0  0  0  0  0  0  0  0  0  0
  140.2110   70.9350  225.6270 C   0  0  0  0  0  0  0  0  0  0  0  0
  140.8540   71.5440  226.7140 C   0  0  0  0  0  0  0  0  0  0  0  0
  141.1822   72.5915  226.6428 H   0  0  0  0  0  0  0  0  0  0  0  0
  141.0780   70.8190  227.8890 C   0  0  0  0  0  0  0  0  0  0  0  0
  141.5755   71.2994  228.7444 H   0  0  0  0  0  0  0  0  0  0  0  0
  140.6690   69.4800  227.9780 C   0  0  0  0  0  0  0  0  0  0  0  0
  140.9080   68.7760  229.1130 F   0  0  0  0  0  0  0  0  0  0  0  0
  140.0390   68.8590  226.8930 C   0  0  0  0  0  0  0  0  0  0  0  0
  139.7200   67.8090  226.9685 H   0  0  0  0  0  0  0  0  0  0  0  0
  139.8150   69.5780  225.7090 C   0  0  0  0  0  0  0  0  0  0  0  0
  139.2280   68.9720  224.5910 C   0  0  0  0  0  0  0  0  0  0  0  0
  138.9084   67.9204  224.6368 H   0  0  0  0  0  0  0  0  0  0  0  0
  139.0500   69.7090  223.4170 C   0  0  0  0  0  0  0  0  0  0  0  0
  138.6028   69.2363  222.5301 H   0  0  0  0  0  0  0  0  0  0  0  0
  1  2  1  0
  2  3  1  0
  3  4  2  0
  4  5  1  0
  5  6  1  0
  5  7  1  0
  5  8  1  0
  8  9  1  6
  8 10  1  0
 10 11  1  0
  8 12  1  0
 12 13  1  0
 12 14  1  0
 12 15  1  0
 15 16  1  1
 15 17  1  0
 17 18  2  0
 17 19  1  0
 19 20  1  0
 20 21  1  1
 20 22  1  0
 22 23  2  0
 23 24  1  0
 23 25  1  0
 25 26  1  0
 25 27  2  0
 27 28  1  0
 28 29  1  0
 29 30  1  0
 29 31  1  0
 29 32  1  0
 27 33  1  0
 33 34  1  0
 33 35  2  0
 35 36  1  0
 20 37  1  0
 37 38  1  0
 37 39  1  0
 37 40  1  0
  3 41  1  0
 41 42  1  0
 41 43  1  0
 41 44  1  0
 44 45  1  0
 44 46  1  0
 46 47  2  0
 46 48  1  0
 48 49  2  0
 49 50  1  0
 50 51  2  0
 51 52  1  0
 51 53  1  0
 53 54  1  0
 53 55  2  0
 55 56  1  0
 55 57  1  0
 57 58  1  0
 57 59  2  0
 59 60  1  0
 60 61  1  0
 60 62  2  0
 62 63  1  0
 15  4  1  0
 35 22  1  0
 62 48  1  0
 59 50  1  0
M  CHG  2   4   1  19  -1
M  END
>  <UniqueID>  (28) 
2

>  <SMILES>  (28) 
COc1ccc([C@H](C)[N-]C(=O)[C@@H]2C[C@@H](O)C/[N+]2=C(/O)CNC(=O)c2ccc3cc(F)ccc3n2)c(Cl)c1

>  <Energy>  (28) 
63.291865297288076

>  <Genealogy>  (28) 
COc1ccc([C@H](C)[N-]C(=O)[C@@H]2C[C@@H](O)C[NH+]2C(=O)CNC(=O)c2ccc3cc(F)ccc3n2)c(Cl)c1 (protonated)
COc1ccc([C@H](C)[N-]C(=O)[C@@H]2C[C@@H](O)C[N+]2=C(O)CNC(=O)c2ccc3cc(F)ccc3n2)c(Cl)c1 (tautomer)
COc1ccc([C@H](C)[N-]C(=O)[C@@H]2C[C@@H](O)C/[N+]2=C(/O)CNC(=O)c2ccc3cc(F)ccc3n2)c(Cl)c1 (cis-trans isomerization)
COc1ccc([C@H](C)[N-]C(=O)[C@@H]2C[C@@H](O)C/[N+]2=C(/O)CNC(=O)c2ccc3cc(F)ccc3n2)c(Cl)c1 (3D coordinates assigned)
COc1ccc([C@H](C)[N-]C(=O)[C@@H]2C[C@@H](O)C/[N+]2=C(/O)CNC(=O)c2ccc3cc(F)ccc3n2)c(Cl)c1 (nonaromatic ring conformer: 63.291865297288076 kcal/mol)

>  <smiles>  (28) 
COc1ccc([C@H](C)NC(=O)[C@@H]2C[C@@H](O)CN2C(=O)CNC(=O)c2ccc3cc(F)ccc3n2)c(Cl)c1

>  <score_type>  (28) 
oracle

>  <origin>  (28) 
autodockgpu

>  <m_score__min__energy>  (28) 
-7.9500000000000002

>  <m_primary>  (28) 
energy

>  <meeko>  (28) 
{"free_energy": -7.44, "intermolecular_energy": -10.72, "internal_energy": -3.13, "cluster_size": 6, "cluster_id": 2, "rank_in_cluster": 4}

>  <energy>  (28) 
-6.85

>  <cluster_rmsd>  (28) 
1.6

>  <rmsd>  (28) 
270.9

>  <cluster>  (28) 
2

$$$$
JFIDHXWBANSMLJ-ISVIKUIWNA-N
     RDKit          3D

 63 66  0  0  0  0  0  0  0  0999 V2000
  141.1980   73.1890  217.1070 H   0  0  0  0  0  0  0  0  0  0  0  0
  141.3530   72.6220  217.9310 O   0  0  0  0  0  0  0  0  0  0  0  0
  141.7780   73.1230  219.1630 C   0  0  0  0  0  0  0  0  0  0  0  0
  143.0530   73.3200  219.4200 N   0  0  0  0  0  0  0  0  0  0  0  0
  144.1320   72.4760  218.9070 C   0  0  0  0  0  0  0  0  0  0  0  0
  144.1133   72.4622  217.8072 H   0  0  0  0  0  0  0  0  0  0  0  0
  144.0237   71.4378  219.2541 H   0  0  0  0  0  0  0  0  0  0  0  0
  145.4370   73.0900  219.4040 C   0  0  2  0  0  0  0  0  0  0  0  0
  145.9833   73.5992  218.5963 H   0  0  0  0  0  0  0  0  0  0  0  0
  146.2940   72.0930  219.8950 O   0  0  0  0  0  0  0  0  0  0  0  0
  145.9810   71.8820  220.8170 H   0  0  0  0  0  0  0  0  0  0  0  0
  145.0420   74.0730  220.5040 C   0  0  0  0  0  0  0  0  0  0  0  0
  145.6565   74.9834  220.4435 H   0  0  0  0  0  0  0  0  0  0  0  0
  145.1966   73.6450  221.5055 H   0  0  0  0  0  0  0  0  0  0  0  0
  143.5680   74.4060  220.2530 C   0  0  1  0  0  0  0  0  0  0  0  0
  143.0171   74.5006  221.2004 H   0  0  0  0  0  0  0  0  0  0  0  0
  143.4260   75.7200  219.5270 C   0  0  0  0  0  0  0  0  0  0  0  0
  144.0410   76.7410  219.9570 O   0  0  0  0  0  0  0  0  0  0  0  0
  142.5920   75.8040  218.3600 N   0  0  0  0  0  0  0  0  0  0  0  0
  142.4710   77.0060  217.5340 C   0  0  2  0  0  0  0  0  0  0  0  0
  143.4798   77.3126  217.2206 H   0  0  0  0  0  0  0  0  0  0  0  0
  141.8480   78.1420  218.3390 C   0  0  0  0  0  0  0  0  0  0  0  0
  142.6150   79.3050  218.5590 C   0  0  0  0  0  0  0  0  0  0  0  0
  143.6513   79.3502  218.1930 H   0  0  0  0  0  0  0  0  0  0  0  0
  142.0730   80.4010  219.2370 C   0  0  0  0  0  0  0  0  0  0  0  0
  142.6813   81.3061  219.3811 H   0  0  0  0  0  0  0  0  0  0  0  0
  140.7640   80.3600  219.7350 C   0  0  0  0  0  0  0  0  0  0  0  0
  140.2720   81.4810  220.4260 O   0  0  0  0  0  0  0  0  0  0  0  0
  140.9360   82.7450  220.4860 C   0  0  0  0  0  0  0  0  0  0  0  0
  141.0861   83.0308  221.5376 H   0  0  0  0  0  0  0  0  0  0  0  0
  141.9116   82.6709  219.9833 H   0  0  0  0  0  0  0  0  0  0  0  0
  140.3214   83.5063  219.9833 H   0  0  0  0  0  0  0  0  0  0  0  0
  139.9850   79.2070  219.5190 C   0  0  0  0  0  0  0  0  0  0  0  0
  138.9550   79.1664  219.9029 H   0  0  0  0  0  0  0  0  0  0  0  0
  140.5090   78.1090  218.8190 C   0  0  0  0  0  0  0  0  0  0  0  0
  139.4300   76.7340  218.5610 Cl  0  0  0  0  0  0  0  0  0  0  0  0
  141.6500   76.7220  216.2650 C   0  0  0  0  0  0  0  0  0  0  0  0
  140.6455   76.3745  216.5483 H   0  0  0  0  0  0  0  0  0  0  0  0
  141.5650   77.6430  215.6695 H   0  0  0  0  0  0  0  0  0  0  0  0
  142.1522   75.9454  215.6695 H   0  0  0  0  0  0  0  0  0  0  0  0
  140.7110   73.3560  220.2000 C   0  0  0  0  0  0  0  0  0  0  0  0
  139.7350   73.0516  219.7941 H   0  0  0  0  0  0  0  0  0  0  0  0
  140.9415   72.7626  221.0971 H   0  0  0  0  0  0  0  0  0  0  0  0
  140.6670   74.7750  220.5580 N   0  0  0  0  0  0  0  0  0  0  0  0
  141.2440   75.4500  220.0020 H   0  0  0  0  0  0  0  0  0  0  0  0
  139.9460   75.2520  221.7100 C   0  0  0  0  0  0  0  0  0  0  0  0
  139.1720   74.4750  222.3410 O   0  0  0  0  0  0  0  0  0  0  0  0
  140.1000   76.6490  222.1560 C   0  0  0  0  0  0  0  0  0  0  0  0
  141.3280   77.2440  222.1090 N   0  0  0  0  0  0  0  0  0  0  0  0
  141.5280   78.5150  222.5500 C   0  0  0  0  0  0  0  0  0  0  0  0
  142.8180   79.0630  222.5450 C   0  0  0  0  0  0  0  0  0  0  0  0
  143.6662   78.4708  222.1711 H   0  0  0  0  0  0  0  0  0  0  0  0
  143.0260   80.3640  223.0160 C   0  0  0  0  0  0  0  0  0  0  0  0
  144.0373   80.7967  223.0058 H   0  0  0  0  0  0  0  0  0  0  0  0
  141.9470   81.1170  223.5010 C   0  0  0  0  0  0  0  0  0  0  0  0
  142.1580   82.3710  223.9750 F   0  0  0  0  0  0  0  0  0  0  0  0
  140.6570   80.5740  223.5220 C   0  0  0  0  0  0  0  0  0  0  0  0
  139.8143   81.1698  223.9027 H   0  0  0  0  0  0  0  0  0  0  0  0
  140.4410   79.2670  223.0560 C   0  0  0  0  0  0  0  0  0  0  0  0
  139.1710   78.6790  223.1060 C   0  0  0  0  0  0  0  0  0  0  0  0
  138.3131   79.2494  223.4915 H   0  0  0  0  0  0  0  0  0  0  0  0
  138.9980   77.3640  222.6640 C   0  0  0  0  0  0  0  0  0  0  0  0
  138.0064   76.8903  222.7127 H   0  0  0  0  0  0  0  0  0  0  0  0
  1  2  1  0
  2  3  1  0
  3  4  2  0
  4  5  1  0
  5  6  1  0
  5  7  1  0
  5  8  1  0
  8  9  1  6
  8 10  1  0
 10 11  1  0
  8 12  1  0
 12 13  1  0
 12 14  1  0
 12 15  1  0
 15 16  1  1
 15 17  1  0
 17 18  2  0
 17 19  1  0
 19 20  1  0
 20 21  1  6
 20 22  1  0
 22 23  2  0
 23 24  1  0
 23 25  1  0
 25 26  1  0
 25 27  2  0
 27 28  1  0
 28 29  1  0
 29 30  1  0
 29 31  1  0
 29 32  1  0
 27 33  1  0
 33 34  1  0
 33 35  2  0
 35 36  1  0
 20 37  1  0
 37 38  1  0
 37 39  1  0
 37 40  1  0
  3 41  1  0
 41 42  1  0
 41 43  1  0
 41 44  1  0
 44 45  1  0
 44 46  1  0
 46 47  2  0
 46 48  1  0
 48 49  2  0
 49 50  1  0
 50 51  2  0
 51 52  1  0
 51 53  1  0
 53 54  1  0
 53 55  2  0
 55 56  1  0
 55 57  1  0
 57 58  1  0
 57 59  2  0
 59 60  1  0
 60 61  1  0
 60 62  2  0
 62 63  1  0
 15  4  1  0
 35 22  1  0
 62 48  1  0
 59 50  1  0
M  CHG  2   4   1  19  -1
M  END
>  <UniqueID>  (29) 
2

>  <SMILES>  (29) 
COc1ccc([C@H](C)[N-]C(=O)[C@@H]2C[C@@H](O)C/[N+]2=C(/O)CNC(=O)c2ccc3cc(F)ccc3n2)c(Cl)c1

>  <Energy>  (29) 
63.291865297288076

>  <Genealogy>  (29) 
COc1ccc([C@H](C)[N-]C(=O)[C@@H]2C[C@@H](O)C[NH+]2C(=O)CNC(=O)c2ccc3cc(F)ccc3n2)c(Cl)c1 (protonated)
COc1ccc([C@H](C)[N-]C(=O)[C@@H]2C[C@@H](O)C[N+]2=C(O)CNC(=O)c2ccc3cc(F)ccc3n2)c(Cl)c1 (tautomer)
COc1ccc([C@H](C)[N-]C(=O)[C@@H]2C[C@@H](O)C/[N+]2=C(/O)CNC(=O)c2ccc3cc(F)ccc3n2)c(Cl)c1 (cis-trans isomerization)
COc1ccc([C@H](C)[N-]C(=O)[C@@H]2C[C@@H](O)C/[N+]2=C(/O)CNC(=O)c2ccc3cc(F)ccc3n2)c(Cl)c1 (3D coordinates assigned)
COc1ccc([C@H](C)[N-]C(=O)[C@@H]2C[C@@H](O)C/[N+]2=C(/O)CNC(=O)c2ccc3cc(F)ccc3n2)c(Cl)c1 (nonaromatic ring conformer: 63.291865297288076 kcal/mol)

>  <smiles>  (29) 
COc1ccc([C@H](C)NC(=O)[C@@H]2C[C@@H](O)CN2C(=O)CNC(=O)c2ccc3cc(F)ccc3n2)c(Cl)c1

>  <score_type>  (29) 
oracle

>  <origin>  (29) 
autodockgpu

>  <m_score__min__energy>  (29) 
-7.9500000000000002

>  <m_primary>  (29) 
energy

>  <meeko>  (29) 
{"free_energy": -5.42, "intermolecular_energy": -8.7, "internal_energy": -5.04, "cluster_size": 1, "cluster_id": 9, "rank_in_cluster": 1}

>  <energy>  (29) 
-7.37

>  <cluster_rmsd>  (29) 
0.0

>  <rmsd>  (29) 
270.97

>  <cluster>  (29) 
3

$$$$
JFIDHXWBANSMLJ-ISVIKUIWNA-N
     RDKit          3D

 63 66  0  0  0  0  0  0  0  0999 V2000
  139.6530   76.5550  222.5550 H   0  0  0  0  0  0  0  0  0  0  0  0
  140.0510   75.6290  222.4610 O   0  0  0  0  0  0  0  0  0  0  0  0
  140.3850   75.0360  221.2420 C   0  0  0  0  0  0  0  0  0  0  0  0
  141.2030   75.6220  220.3950 N   0  0  0  0  0  0  0  0  0  0  0  0
  141.6110   75.0420  219.1150 C   0  0  0  0  0  0  0  0  0  0  0  0
  140.7283   74.8435  218.4893 H   0  0  0  0  0  0  0  0  0  0  0  0
  142.1362   74.0866  219.2610 H   0  0  0  0  0  0  0  0  0  0  0  0
  142.5140   76.0700  218.4410 C   0  0  2  0  0  0  0  0  0  0  0  0
  142.0083   76.5724  217.6032 H   0  0  0  0  0  0  0  0  0  0  0  0
  143.6500   75.4480  217.9020 O   0  0  0  0  0  0  0  0  0  0  0  0
  144.4290   76.0190  218.1510 H   0  0  0  0  0  0  0  0  0  0  0  0
  142.8930   77.0700  219.5320 C   0  0  0  0  0  0  0  0  0  0  0  0
  142.9002   78.0933  219.1286 H   0  0  0  0  0  0  0  0  0  0  0  0
  143.8990   76.8734  219.9313 H   0  0  0  0  0  0  0  0  0  0  0  0
  141.8180   76.9300  220.6140 C   0  0  1  0  0  0  0  0  0  0  0  0
  142.2552   77.0205  221.6193 H   0  0  0  0  0  0  0  0  0  0  0  0
  140.7780   78.0130  220.4870 C   0  0  0  0  0  0  0  0  0  0  0  0
  139.5670   77.7510  220.7530 O   0  0  0  0  0  0  0  0  0  0  0  0
  141.1660   79.3300  220.0620 N   0  0  0  0  0  0  0  0  0  0  0  0
  141.4010   80.4430  220.9820 C   0  0  2  0  0  0  0  0  0  0  0  0
  142.3797   80.2944  221.4616 H   0  0  0  0  0  0  0  0  0  0  0  0
  140.3290   80.4690  222.0670 C   0  0  0  0  0  0  0  0  0  0  0  0
  139.1530   81.2090  221.8280 C   0  0  0  0  0  0  0  0  0  0  0  0
  139.0545   81.7859  220.8966 H   0  0  0  0  0  0  0  0  0  0  0  0
  138.1110   81.2190  222.7590 C   0  0  0  0  0  0  0  0  0  0  0  0
  137.1939   81.7869  222.5433 H   0  0  0  0  0  0  0  0  0  0  0  0
  138.2220   80.5130  223.9650 C   0  0  0  0  0  0  0  0  0  0  0  0
  137.1540   80.5700  224.8780 O   0  0  0  0  0  0  0  0  0  0  0  0
  136.9780   81.6040  225.8470 C   0  0  0  0  0  0  0  0  0  0  0  0
  137.0509   81.1757  226.8576 H   0  0  0  0  0  0  0  0  0  0  0  0
  137.7592   82.3671  225.7149 H   0  0  0  0  0  0  0  0  0  0  0  0
  135.9883   82.0657  225.7149 H   0  0  0  0  0  0  0  0  0  0  0  0
  139.3890   79.7660  224.2170 C   0  0  0  0  0  0  0  0  0  0  0  0
  139.4842   79.2060  225.1589 H   0  0  0  0  0  0  0  0  0  0  0  0
  140.4320   79.7290  223.2780 C   0  0  0  0  0  0  0  0  0  0  0  0
  141.8280   78.7210  223.6710 Cl  0  0  0  0  0  0  0  0  0  0  0  0
  141.4450   81.7820  220.2260 C   0  0  0  0  0  0  0  0  0  0  0  0
  141.4722   82.6106  220.9490 H   0  0  0  0  0  0  0  0  0  0  0  0
  142.3448   81.8170  219.5942 H   0  0  0  0  0  0  0  0  0  0  0  0
  140.5495   81.8760  219.5942 H   0  0  0  0  0  0  0  0  0  0  0  0
  139.7060   73.7300  220.9190 C   0  0  0  0  0  0  0  0  0  0  0  0
  138.7137   73.9309  220.4889 H   0  0  0  0  0  0  0  0  0  0  0  0
  140.3176   73.1719  220.1948 H   0  0  0  0  0  0  0  0  0  0  0  0
  139.5550   72.9340  222.1400 N   0  0  0  0  0  0  0  0  0  0  0  0
  139.5820   73.4250  223.0650 H   0  0  0  0  0  0  0  0  0  0  0  0
  139.4830   71.4960  222.1100 C   0  0  0  0  0  0  0  0  0  0  0  0
  139.3600   70.8890  221.0070 O   0  0  0  0  0  0  0  0  0  0  0  0
  139.5470   70.7240  223.3650 C   0  0  0  0  0  0  0  0  0  0  0  0
  140.0770   71.2960  224.4860 N   0  0  0  0  0  0  0  0  0  0  0  0
  140.1970   70.6100  225.6540 C   0  0  0  0  0  0  0  0  0  0  0  0
  140.8090   71.2130  226.7610 C   0  0  0  0  0  0  0  0  0  0  0  0
  141.1801   72.2461  226.6895 H   0  0  0  0  0  0  0  0  0  0  0  0
  140.9480   70.5010  227.9570 C   0  0  0  0  0  0  0  0  0  0  0  0
  141.4213   70.9776  228.8281 H   0  0  0  0  0  0  0  0  0  0  0  0
  140.4850   69.1810  228.0470 C   0  0  0  0  0  0  0  0  0  0  0  0
  140.6420   68.4880  229.2030 F   0  0  0  0  0  0  0  0  0  0  0  0
  139.8860   68.5640  226.9420 C   0  0  0  0  0  0  0  0  0  0  0  0
  139.5260   67.5273  227.0176 H   0  0  0  0  0  0  0  0  0  0  0  0
  139.7460   69.2710  225.7380 C   0  0  0  0  0  0  0  0  0  0  0  0
  139.1920   68.6680  224.6010 C   0  0  0  0  0  0  0  0  0  0  0  0
  138.8316   67.6297  224.6470 H   0  0  0  0  0  0  0  0  0  0  0  0
  139.0990   69.3900  223.4090 C   0  0  0  0  0  0  0  0  0  0  0  0
  138.6777   68.9186  222.5088 H   0  0  0  0  0  0  0  0  0  0  0  0
  1  2  1  0
  2  3  1  0
  3  4  2  0
  4  5  1  0
  5  6  1  0
  5  7  1  0
  5  8  1  0
  8  9  1  6
  8 10  1  0
 10 11  1  0
  8 12  1  0
 12 13  1  0
 12 14  1  0
 12 15  1  0
 15 16  1  1
 15 17  1  0
 17 18  2  0
 17 19  1  0
 19 20  1  0
 20 21  1  1
 20 22  1  0
 22 23  2  0
 23 24  1  0
 23 25  1  0
 25 26  1  0
 25 27  2  0
 27 28  1  0
 28 29  1  0
 29 30  1  0
 29 31  1  0
 29 32  1  0
 27 33  1  0
 33 34  1  0
 33 35  2  0
 35 36  1  0
 20 37  1  0
 37 38  1  0
 37 39  1  0
 37 40  1  0
  3 41  1  0
 41 42  1  0
 41 43  1  0
 41 44  1  0
 44 45  1  0
 44 46  1  0
 46 47  2  0
 46 48  1  0
 48 49  2  0
 49 50  1  0
 50 51  2  0
 51 52  1  0
 51 53  1  0
 53 54  1  0
 53 55  2  0
 55 56  1  0
 55 57  1  0
 57 58  1  0
 57 59  2  0
 59 60  1  0
 60 61  1  0
 60 62  2  0
 62 63  1  0
 15  4  1  0
 35 22  1  0
 62 48  1  0
 59 50  1  0
M  CHG  2   4   1  19  -1
M  END
>  <UniqueID>  (30) 
2

>  <SMILES>  (30) 
COc1ccc([C@H](C)[N-]C(=O)[C@@H]2C[C@@H](O)C/[N+]2=C(/O)CNC(=O)c2ccc3cc(F)ccc3n2)c(Cl)c1

>  <Energy>  (30) 
63.291865297288076

>  <Genealogy>  (30) 
COc1ccc([C@H](C)[N-]C(=O)[C@@H]2C[C@@H](O)C[NH+]2C(=O)CNC(=O)c2ccc3cc(F)ccc3n2)c(Cl)c1 (protonated)
COc1ccc([C@H](C)[N-]C(=O)[C@@H]2C[C@@H](O)C[N+]2=C(O)CNC(=O)c2ccc3cc(F)ccc3n2)c(Cl)c1 (tautomer)
COc1ccc([C@H](C)[N-]C(=O)[C@@H]2C[C@@H](O)C/[N+]2=C(/O)CNC(=O)c2ccc3cc(F)ccc3n2)c(Cl)c1 (cis-trans isomerization)
COc1ccc([C@H](C)[N-]C(=O)[C@@H]2C[C@@H](O)C/[N+]2=C(/O)CNC(=O)c2ccc3cc(F)ccc3n2)c(Cl)c1 (3D coordinates assigned)
COc1ccc([C@H](C)[N-]C(=O)[C@@H]2C[C@@H](O)C/[N+]2=C(/O)CNC(=O)c2ccc3cc(F)ccc3n2)c(Cl)c1 (nonaromatic ring conformer: 63.291865297288076 kcal/mol)

>  <smiles>  (30) 
COc1ccc([C@H](C)NC(=O)[C@@H]2C[C@@H](O)CN2C(=O)CNC(=O)c2ccc3cc(F)ccc3n2)c(Cl)c1

>  <score_type>  (30) 
oracle

>  <origin>  (30) 
autodockgpu

>  <m_score__min__energy>  (30) 
-7.9500000000000002

>  <m_primary>  (30) 
energy

>  <meeko>  (30) 
{"free_energy": -7.64, "intermolecular_energy": -10.92, "internal_energy": -3.2, "cluster_size": 6, "cluster_id": 2, "rank_in_cluster": 2}

>  <energy>  (30) 
-7.03

>  <cluster_rmsd>  (30) 
1.58

>  <rmsd>  (30) 
270.38

>  <cluster>  (30) 
3

$$$$
JFIDHXWBANSMLJ-ISVIKUIWNA-N
     RDKit          3D

 63 66  0  0  0  0  0  0  0  0999 V2000
  138.4710   77.0920  223.2620 H   0  0  0  0  0  0  0  0  0  0  0  0
  138.7650   76.2070  222.8710 O   0  0  0  0  0  0  0  0  0  0  0  0
  139.7750   76.0630  221.9160 C   0  0  0  0  0  0  0  0  0  0  0  0
  140.4910   77.0900  221.5160 N   0  0  0  0  0  0  0  0  0  0  0  0
  140.5260   77.5770  220.1370 C   0  0  0  0  0  0  0  0  0  0  0  0
  139.5140   77.8532  219.8059 H   0  0  0  0  0  0  0  0  0  0  0  0
  140.9000   76.8023  219.4515 H   0  0  0  0  0  0  0  0  0  0  0  0
  141.4350   78.8030  220.1320 C   0  0  2  0  0  0  0  0  0  0  0  0
  140.8626   79.7369  220.0308 H   0  0  0  0  0  0  0  0  0  0  0  0
  142.3150   78.7580  219.0400 O   0  0  0  0  0  0  0  0  0  0  0  0
  143.1370   78.2940  219.3610 H   0  0  0  0  0  0  0  0  0  0  0  0
  142.1920   78.7650  221.4580 C   0  0  0  0  0  0  0  0  0  0  0  0
  142.2903   79.7791  221.8727 H   0  0  0  0  0  0  0  0  0  0  0  0
  143.2099   78.3672  221.3330 H   0  0  0  0  0  0  0  0  0  0  0  0
  141.3520   77.8860  222.3900 C   0  0  1  0  0  0  0  0  0  0  0  0
  141.9940   77.2579  223.0251 H   0  0  0  0  0  0  0  0  0  0  0  0
  140.5070   78.7280  223.3120 C   0  0  0  0  0  0  0  0  0  0  0  0
  141.0540   79.3440  224.2750 O   0  0  0  0  0  0  0  0  0  0  0  0
  139.0890   78.8230  223.0940 N   0  0  0  0  0  0  0  0  0  0  0  0
  138.3910   80.0810  222.8300 C   0  0  2  0  0  0  0  0  0  0  0  0
  137.3919   79.8458  222.4345 H   0  0  0  0  0  0  0  0  0  0  0  0
  139.1450   80.8960  221.7850 C   0  0  0  0  0  0  0  0  0  0  0  0
  140.2110   81.7130  222.2150 C   0  0  0  0  0  0  0  0  0  0  0  0
  140.4425   81.7836  223.2880 H   0  0  0  0  0  0  0  0  0  0  0  0
  140.9770   82.4340  221.2950 C   0  0  0  0  0  0  0  0  0  0  0  0
  141.8162   83.0500  221.6504 H   0  0  0  0  0  0  0  0  0  0  0  0
  140.6880   82.3810  219.9250 C   0  0  0  0  0  0  0  0  0  0  0  0
  141.4760   83.1400  219.0410 O   0  0  0  0  0  0  0  0  0  0  0  0
  142.1810   82.5980  217.9240 C   0  0  0  0  0  0  0  0  0  0  0  0
  143.0053   81.9643  218.2831 H   0  0  0  0  0  0  0  0  0  0  0  0
  141.4930   81.9940  217.3142 H   0  0  0  0  0  0  0  0  0  0  0  0
  142.5878   83.4181  217.3142 H   0  0  0  0  0  0  0  0  0  0  0  0
  139.6280   81.5670  219.4800 C   0  0  0  0  0  0  0  0  0  0  0  0
  139.3936   81.5172  218.4064 H   0  0  0  0  0  0  0  0  0  0  0  0
  138.8680   80.8190  220.3920 C   0  0  0  0  0  0  0  0  0  0  0  0
  137.5970   79.7920  219.7210 Cl  0  0  0  0  0  0  0  0  0  0  0  0
  138.2060   80.8900  224.1250 C   0  0  0  0  0  0  0  0  0  0  0  0
  138.3566   80.2317  224.9933 H   0  0  0  0  0  0  0  0  0  0  0  0
  138.9401   81.7087  224.1539 H   0  0  0  0  0  0  0  0  0  0  0  0
  137.1890   81.3082  224.1539 H   0  0  0  0  0  0  0  0  0  0  0  0
  139.9480   74.6900  221.3210 C   0  0  0  0  0  0  0  0  0  0  0  0
  139.2705   74.5763  220.4619 H   0  0  0  0  0  0  0  0  0  0  0  0
  140.9898   74.5661  220.9905 H   0  0  0  0  0  0  0  0  0  0  0  0
  139.6350   73.6710  222.3250 N   0  0  0  0  0  0  0  0  0  0  0  0
  138.9390   73.9020  223.0740 H   0  0  0  0  0  0  0  0  0  0  0  0
  140.3300   72.4100  222.3770 C   0  0  0  0  0  0  0  0  0  0  0  0
  141.1060   72.0730  221.4370 O   0  0  0  0  0  0  0  0  0  0  0  0
  140.1360   71.5030  223.5250 C   0  0  0  0  0  0  0  0  0  0  0  0
  140.6140   71.8550  224.7540 N   0  0  0  0  0  0  0  0  0  0  0  0
  140.4980   71.0340  225.8320 C   0  0  0  0  0  0  0  0  0  0  0  0
  141.0620   71.4040  227.0600 C   0  0  0  0  0  0  0  0  0  0  0  0
  141.5868   72.3659  227.1564 H   0  0  0  0  0  0  0  0  0  0  0  0
  140.9580   70.5510  228.1630 C   0  0  0  0  0  0  0  0  0  0  0  0
  141.3937   70.8466  229.1288 H   0  0  0  0  0  0  0  0  0  0  0  0
  140.2990   69.3190  228.0400 C   0  0  0  0  0  0  0  0  0  0  0  0
  140.2200   68.4870  229.1080 F   0  0  0  0  0  0  0  0  0  0  0  0
  139.7440   68.9330  226.8140 C   0  0  0  0  0  0  0  0  0  0  0  0
  139.2274   67.9661  226.7231 H   0  0  0  0  0  0  0  0  0  0  0  0
  139.8480   69.7820  225.7010 C   0  0  0  0  0  0  0  0  0  0  0  0
  139.3440   69.4060  224.4500 C   0  0  0  0  0  0  0  0  0  0  0  0
  138.8316   68.4401  224.3292 H   0  0  0  0  0  0  0  0  0  0  0  0
  139.4940   70.2620  223.3550 C   0  0  0  0  0  0  0  0  0  0  0  0
  139.1125   69.9674  222.3662 H   0  0  0  0  0  0  0  0  0  0  0  0
  1  2  1  0
  2  3  1  0
  3  4  2  0
  4  5  1  0
  5  6  1  0
  5  7  1  0
  5  8  1  0
  8  9  1  6
  8 10  1  0
 10 11  1  0
  8 12  1  0
 12 13  1  0
 12 14  1  0
 12 15  1  0
 15 16  1  1
 15 17  1  0
 17 18  2  0
 17 19  1  0
 19 20  1  0
 20 21  1  6
 20 22  1  0
 22 23  2  0
 23 24  1  0
 23 25  1  0
 25 26  1  0
 25 27  2  0
 27 28  1  0
 28 29  1  0
 29 30  1  0
 29 31  1  0
 29 32  1  0
 27 33  1  0
 33 34  1  0
 33 35  2  0
 35 36  1  0
 20 37  1  0
 37 38  1  0
 37 39  1  0
 37 40  1  0
  3 41  1  0
 41 42  1  0
 41 43  1  0
 41 44  1  0
 44 45  1  0
 44 46  1  0
 46 47  2  0
 46 48  1  0
 48 49  2  0
 49 50  1  0
 50 51  2  0
 51 52  1  0
 51 53  1  0
 53 54  1  0
 53 55  2  0
 55 56  1  0
 55 57  1  0
 57 58  1  0
 57 59  2  0
 59 60  1  0
 60 61  1  0
 60 62  2  0
 62 63  1  0
 15  4  1  0
 35 22  1  0
 62 48  1  0
 59 50  1  0
M  CHG  2   4   1  19  -1
M  END
>  <UniqueID>  (31) 
2

>  <SMILES>  (31) 
COc1ccc([C@H](C)[N-]C(=O)[C@@H]2C[C@@H](O)C/[N+]2=C(/O)CNC(=O)c2ccc3cc(F)ccc3n2)c(Cl)c1

>  <Energy>  (31) 
63.291865297288076

>  <Genealogy>  (31) 
COc1ccc([C@H](C)[N-]C(=O)[C@@H]2C[C@@H](O)C[NH+]2C(=O)CNC(=O)c2ccc3cc(F)ccc3n2)c(Cl)c1 (protonated)
COc1ccc([C@H](C)[N-]C(=O)[C@@H]2C[C@@H](O)C[N+]2=C(O)CNC(=O)c2ccc3cc(F)ccc3n2)c(Cl)c1 (tautomer)
COc1ccc([C@H](C)[N-]C(=O)[C@@H]2C[C@@H](O)C/[N+]2=C(/O)CNC(=O)c2ccc3cc(F)ccc3n2)c(Cl)c1 (cis-trans isomerization)
COc1ccc([C@H](C)[N-]C(=O)[C@@H]2C[C@@H](O)C/[N+]2=C(/O)CNC(=O)c2ccc3cc(F)ccc3n2)c(Cl)c1 (3D coordinates assigned)
COc1ccc([C@H](C)[N-]C(=O)[C@@H]2C[C@@H](O)C/[N+]2=C(/O)CNC(=O)c2ccc3cc(F)ccc3n2)c(Cl)c1 (nonaromatic ring conformer: 63.291865297288076 kcal/mol)

>  <smiles>  (31) 
COc1ccc([C@H](C)NC(=O)[C@@H]2C[C@@H](O)CN2C(=O)CNC(=O)c2ccc3cc(F)ccc3n2)c(Cl)c1

>  <score_type>  (31) 
oracle

>  <origin>  (31) 
autodockgpu

>  <m_score__min__energy>  (31) 
-7.9500000000000002

>  <m_primary>  (31) 
energy

>  <meeko>  (31) 
{"free_energy": -7.14, "intermolecular_energy": -10.42, "internal_energy": -3.81, "cluster_size": 2, "cluster_id": 1, "rank_in_cluster": 2}

>  <energy>  (31) 
-7.0

>  <cluster_rmsd>  (31) 
0.0

>  <rmsd>  (31) 
270.6

>  <cluster>  (31) 
4

$$$$
JFIDHXWBANSMLJ-ISVIKUIWNA-N
     RDKit          3D

 63 66  0  0  0  0  0  0  0  0999 V2000
  141.3290   75.5130  222.3860 H   0  0  0  0  0  0  0  0  0  0  0  0
  140.6110   74.8060  222.2990 O   0  0  0  0  0  0  0  0  0  0  0  0
  139.7440   74.6940  221.2100 C   0  0  0  0  0  0  0  0  0  0  0  0
  139.6090   75.6680  220.3370 N   0  0  0  0  0  0  0  0  0  0  0  0
  138.3860   76.4540  220.1680 C   0  0  0  0  0  0  0  0  0  0  0  0
  138.1174   76.9467  221.1141 H   0  0  0  0  0  0  0  0  0  0  0  0
  137.5404   75.8147  219.8744 H   0  0  0  0  0  0  0  0  0  0  0  0
  138.6850   77.4980  219.0970 C   0  0  2  0  0  0  0  0  0  0  0  0
  138.8016   78.5039  219.5266 H   0  0  0  0  0  0  0  0  0  0  0  0
  137.6260   77.5790  218.1810 O   0  0  0  0  0  0  0  0  0  0  0  0
  137.2260   78.4860  218.2920 H   0  0  0  0  0  0  0  0  0  0  0  0
  139.9740   77.0390  218.4170 C   0  0  0  0  0  0  0  0  0  0  0  0
  140.6193   77.9020  218.1961 H   0  0  0  0  0  0  0  0  0  0  0  0
  139.7710   76.5345  217.4608 H   0  0  0  0  0  0  0  0  0  0  0  0
  140.6590   76.1020  219.4160 C   0  0  1  0  0  0  0  0  0  0  0  0
  141.1356   75.2552  218.9004 H   0  0  0  0  0  0  0  0  0  0  0  0
  141.7430   76.8210  220.1770 C   0  0  0  0  0  0  0  0  0  0  0  0
  142.9110   76.8860  219.6890 O   0  0  0  0  0  0  0  0  0  0  0  0
  141.4460   77.4210  221.4490 N   0  0  0  0  0  0  0  0  0  0  0  0
  141.6190   78.8450  221.7340 C   0  0  2  0  0  0  0  0  0  0  0  0
  142.5220   78.9673  222.3501 H   0  0  0  0  0  0  0  0  0  0  0  0
  140.4240   79.3780  222.5170 C   0  0  0  0  0  0  0  0  0  0  0  0
  139.1780   78.7380  222.3530 C   0  0  0  0  0  0  0  0  0  0  0  0
  139.0824   77.9098  221.6353 H   0  0  0  0  0  0  0  0  0  0  0  0
  138.0630   79.1440  223.0920 C   0  0  0  0  0  0  0  0  0  0  0  0
  137.1053   78.6182  222.9640 H   0  0  0  0  0  0  0  0  0  0  0  0
  138.1510   80.2130  223.9940 C   0  0  0  0  0  0  0  0  0  0  0  0
  136.9960   80.5960  224.6980 O   0  0  0  0  0  0  0  0  0  0  0  0
  136.9730   81.5820  225.7320 C   0  0  0  0  0  0  0  0  0  0  0  0
  136.9846   81.0848  226.7131 H   0  0  0  0  0  0  0  0  0  0  0  0
  137.8563   82.2311  225.6394 H   0  0  0  0  0  0  0  0  0  0  0  0
  136.0605   82.1892  225.6394 H   0  0  0  0  0  0  0  0  0  0  0  0
  139.3900   80.8600  224.1700 C   0  0  0  0  0  0  0  0  0  0  0  0
  139.4703   81.6991  224.8767 H   0  0  0  0  0  0  0  0  0  0  0  0
  140.5230   80.4450  223.4530 C   0  0  0  0  0  0  0  0  0  0  0  0
  142.0370   81.2910  223.7880 Cl  0  0  0  0  0  0  0  0  0  0  0  0
  141.8220   79.6450  220.4350 C   0  0  0  0  0  0  0  0  0  0  0  0
  142.0857   80.6840  220.6817 H   0  0  0  0  0  0  0  0  0  0  0  0
  142.6333   79.1905  219.8474 H   0  0  0  0  0  0  0  0  0  0  0  0
  140.8922   79.6323  219.8474 H   0  0  0  0  0  0  0  0  0  0  0  0
  138.9240   73.4330  221.1290 C   0  0  0  0  0  0  0  0  0  0  0  0
  137.8670   73.6942  220.9726 H   0  0  0  0  0  0  0  0  0  0  0  0
  139.2826   72.8200  220.2890 H   0  0  0  0  0  0  0  0  0  0  0  0
  139.0580   72.6730  222.3740 N   0  0  0  0  0  0  0  0  0  0  0  0
  139.5110   73.1360  223.1970 H   0  0  0  0  0  0  0  0  0  0  0  0
  138.6870   71.2840  222.4650 C   0  0  0  0  0  0  0  0  0  0  0  0
  138.0580   70.7300  221.5180 O   0  0  0  0  0  0  0  0  0  0  0  0
  139.0340   70.5010  223.6670 C   0  0  0  0  0  0  0  0  0  0  0  0
  139.6210   71.1210  224.7330 N   0  0  0  0  0  0  0  0  0  0  0  0
  139.9980   70.4340  225.8440 C   0  0  0  0  0  0  0  0  0  0  0  0
  140.6580   71.0970  226.8870 C   0  0  0  0  0  0  0  0  0  0  0  0
  140.8577   72.1762  226.8136 H   0  0  0  0  0  0  0  0  0  0  0  0
  141.0630   70.3860  228.0220 C   0  0  0  0  0  0  0  0  0  0  0  0
  141.5759   70.9081  228.8432 H   0  0  0  0  0  0  0  0  0  0  0  0
  140.8160   69.0090  228.1140 C   0  0  0  0  0  0  0  0  0  0  0  0
  141.2300   68.3210  229.2080 F   0  0  0  0  0  0  0  0  0  0  0  0
  140.1700   68.3340  227.0710 C   0  0  0  0  0  0  0  0  0  0  0  0
  139.9796   67.2533  227.1479 H   0  0  0  0  0  0  0  0  0  0  0  0
  139.7660   69.0400  225.9270 C   0  0  0  0  0  0  0  0  0  0  0  0
  139.1580   68.3860  224.8470 C   0  0  0  0  0  0  0  0  0  0  0  0
  138.9650   67.3041  224.8942 H   0  0  0  0  0  0  0  0  0  0  0  0
  138.7980   69.1140  223.7100 C   0  0  0  0  0  0  0  0  0  0  0  0
  138.3325   68.6057  222.8527 H   0  0  0  0  0  0  0  0  0  0  0  0
  1  2  1  0
  2  3  1  0
  3  4  2  0
  4  5  1  0
  5  6  1  0
  5  7  1  0
  5  8  1  0
  8  9  1  1
  8 10  1  0
 10 11  1  0
  8 12  1  0
 12 13  1  0
 12 14  1  0
 12 15  1  0
 15 16  1  6
 15 17  1  0
 17 18  2  0
 17 19  1  0
 19 20  1  0
 20 21  1  1
 20 22  1  0
 22 23  2  0
 23 24  1  0
 23 25  1  0
 25 26  1  0
 25 27  2  0
 27 28  1  0
 28 29  1  0
 29 30  1  0
 29 31  1  0
 29 32  1  0
 27 33  1  0
 33 34  1  0
 33 35  2  0
 35 36  1  0
 20 37  1  0
 37 38  1  0
 37 39  1  0
 37 40  1  0
  3 41  1  0
 41 42  1  0
 41 43  1  0
 41 44  1  0
 44 45  1  0
 44 46  1  0
 46 47  2  0
 46 48  1  0
 48 49  2  0
 49 50  1  0
 50 51  2  0
 51 52  1  0
 51 53  1  0
 53 54  1  0
 53 55  2  0
 55 56  1  0
 55 57  1  0
 57 58  1  0
 57 59  2  0
 59 60  1  0
 60 61  1  0
 60 62  2  0
 62 63  1  0
 15  4  1  0
 35 22  1  0
 62 48  1  0
 59 50  1  0
M  CHG  2   4   1  19  -1
M  END
>  <UniqueID>  (32) 
2

>  <SMILES>  (32) 
COc1ccc([C@H](C)[N-]C(=O)[C@@H]2C[C@@H](O)C/[N+]2=C(/O)CNC(=O)c2ccc3cc(F)ccc3n2)c(Cl)c1

>  <Energy>  (32) 
63.291865297288076

>  <Genealogy>  (32) 
COc1ccc([C@H](C)[N-]C(=O)[C@@H]2C[C@@H](O)C[NH+]2C(=O)CNC(=O)c2ccc3cc(F)ccc3n2)c(Cl)c1 (protonated)
COc1ccc([C@H](C)[N-]C(=O)[C@@H]2C[C@@H](O)C[N+]2=C(O)CNC(=O)c2ccc3cc(F)ccc3n2)c(Cl)c1 (tautomer)
COc1ccc([C@H](C)[N-]C(=O)[C@@H]2C[C@@H](O)C/[N+]2=C(/O)CNC(=O)c2ccc3cc(F)ccc3n2)c(Cl)c1 (cis-trans isomerization)
COc1ccc([C@H](C)[N-]C(=O)[C@@H]2C[C@@H](O)C/[N+]2=C(/O)CNC(=O)c2ccc3cc(F)ccc3n2)c(Cl)c1 (3D coordinates assigned)
COc1ccc([C@H](C)[N-]C(=O)[C@@H]2C[C@@H](O)C/[N+]2=C(/O)CNC(=O)c2ccc3cc(F)ccc3n2)c(Cl)c1 (nonaromatic ring conformer: 63.291865297288076 kcal/mol)

>  <smiles>  (32) 
COc1ccc([C@H](C)NC(=O)[C@@H]2C[C@@H](O)CN2C(=O)CNC(=O)c2ccc3cc(F)ccc3n2)c(Cl)c1

>  <score_type>  (32) 
oracle

>  <origin>  (32) 
autodockgpu

>  <m_score__min__energy>  (32) 
-7.9500000000000002

>  <m_primary>  (32) 
energy

>  <meeko>  (32) 
{"free_energy": -6.85, "intermolecular_energy": -10.13, "internal_energy": -3.65, "cluster_size": 6, "cluster_id": 2, "rank_in_cluster": 6}

>  <energy>  (32) 
-6.82

>  <cluster_rmsd>  (32) 
0.0

>  <rmsd>  (32) 
269.94

>  <cluster>  (32) 
5

$$$$
JFIDHXWBANSMLJ-ISVIKUIWNA-N
     RDKit          3D

 63 66  0  0  0  0  0  0  0  0999 V2000
  138.9560   75.0140  223.3300 H   0  0  0  0  0  0  0  0  0  0  0  0
  139.6680   75.2920  222.6670 O   0  0  0  0  0  0  0  0  0  0  0  0
  139.8710   74.6830  221.4270 C   0  0  0  0  0  0  0  0  0  0  0  0
  140.5710   75.2690  220.4820 N   0  0  0  0  0  0  0  0  0  0  0  0
  142.0260   75.4260  220.5170 C   0  0  0  0  0  0  0  0  0  0  0  0
  142.5124   74.4423  220.5934 H   0  0  0  0  0  0  0  0  0  0  0  0
  142.3405   76.0208  221.3872 H   0  0  0  0  0  0  0  0  0  0  0  0
  142.4210   76.1090  219.2110 C   0  0  2  0  0  0  0  0  0  0  0  0
  142.9085   75.4105  218.5150 H   0  0  0  0  0  0  0  0  0  0  0  0
  143.3460   77.1360  219.4530 O   0  0  0  0  0  0  0  0  0  0  0  0
  143.5130   77.1380  220.4360 H   0  0  0  0  0  0  0  0  0  0  0  0
  141.1240   76.6570  218.6190 C   0  0  0  0  0  0  0  0  0  0  0  0
  141.1141   76.5230  217.5272 H   0  0  0  0  0  0  0  0  0  0  0  0
  141.0124   77.7340  218.8131 H   0  0  0  0  0  0  0  0  0  0  0  0
  139.9970   75.8460  219.2670 C   0  0  1  0  0  0  0  0  0  0  0  0
  139.1252   76.4816  219.4811 H   0  0  0  0  0  0  0  0  0  0  0  0
  139.5270   74.7460  218.3500 C   0  0  0  0  0  0  0  0  0  0  0  0
  138.3060   74.4050  218.3570 O   0  0  0  0  0  0  0  0  0  0  0  0
  140.4650   74.0890  217.4820 N   0  0  0  0  0  0  0  0  0  0  0  0
  140.9390   72.7200  217.6870 C   0  0  2  0  0  0  0  0  0  0  0  0
  140.2736   72.2283  218.4118 H   0  0  0  0  0  0  0  0  0  0  0  0
  142.3530   72.7290  218.2570 C   0  0  0  0  0  0  0  0  0  0  0  0
  143.3380   73.4890  217.5920 C   0  0  0  0  0  0  0  0  0  0  0  0
  143.0818   74.0133  216.6596 H   0  0  0  0  0  0  0  0  0  0  0  0
  144.6350   73.5840  218.1030 C   0  0  0  0  0  0  0  0  0  0  0  0
  145.3825   74.1976  217.5789 H   0  0  0  0  0  0  0  0  0  0  0  0
  144.9940   72.9060  219.2760 C   0  0  0  0  0  0  0  0  0  0  0  0
  146.3180   73.0180  219.7390 O   0  0  0  0  0  0  0  0  0  0  0  0
  146.6760   73.4290  221.0590 C   0  0  0  0  0  0  0  0  0  0  0  0
  146.1383   72.8117  221.7937 H   0  0  0  0  0  0  0  0  0  0  0  0
  147.7600   73.3060  221.2000 H   0  0  0  0  0  0  0  0  0  0  0  0
  146.4055   74.4859  221.2000 H   0  0  0  0  0  0  0  0  0  0  0  0
  144.0210   72.1460  219.9530 C   0  0  0  0  0  0  0  0  0  0  0  0
  144.2925   71.6118  220.8754 H   0  0  0  0  0  0  0  0  0  0  0  0
  142.7080   72.0630  219.4630 C   0  0  0  0  0  0  0  0  0  0  0  0
  141.5550   71.1260  220.4170 Cl  0  0  0  0  0  0  0  0  0  0  0  0
  140.8840   71.9170  216.3760 C   0  0  0  0  0  0  0  0  0  0  0  0
  140.8105   70.8439  216.6062 H   0  0  0  0  0  0  0  0  0  0  0  0
  140.0050   72.2278  215.7922 H   0  0  0  0  0  0  0  0  0  0  0  0
  141.7971   72.1051  215.7922 H   0  0  0  0  0  0  0  0  0  0  0  0
  139.1890   73.3580  221.2080 C   0  0  0  0  0  0  0  0  0  0  0  0
  138.1430   73.5300  220.9142 H   0  0  0  0  0  0  0  0  0  0  0  0
  139.7122   72.8077  220.4121 H   0  0  0  0  0  0  0  0  0  0  0  0
  139.2240   72.5710  222.4430 N   0  0  0  0  0  0  0  0  0  0  0  0
  139.5120   73.0460  223.3310 H   0  0  0  0  0  0  0  0  0  0  0  0
  138.9810   71.1510  222.4520 C   0  0  0  0  0  0  0  0  0  0  0  0
  138.5450   70.5740  221.4140 O   0  0  0  0  0  0  0  0  0  0  0  0
  139.2330   70.3630  223.6730 C   0  0  0  0  0  0  0  0  0  0  0  0
  139.8070   70.9610  224.7590 N   0  0  0  0  0  0  0  0  0  0  0  0
  140.0990   70.2660  225.8900 C   0  0  0  0  0  0  0  0  0  0  0  0
  140.7490   70.9040  226.9560 C   0  0  0  0  0  0  0  0  0  0  0  0
  141.0103   71.9700  226.8826 H   0  0  0  0  0  0  0  0  0  0  0  0
  141.0650   70.1840  228.1130 C   0  0  0  0  0  0  0  0  0  0  0  0
  141.5684   70.6865  228.9521 H   0  0  0  0  0  0  0  0  0  0  0  0
  140.7410   68.8220  228.2050 C   0  0  0  0  0  0  0  0  0  0  0  0
  141.0690   68.1250  229.3210 F   0  0  0  0  0  0  0  0  0  0  0  0
  140.1040   68.1730  227.1400 C   0  0  0  0  0  0  0  0  0  0  0  0
  139.8517   67.1051  227.2173 H   0  0  0  0  0  0  0  0  0  0  0  0
  139.7880   68.8870  225.9740 C   0  0  0  0  0  0  0  0  0  0  0  0
  139.1920   68.2570  224.8750 C   0  0  0  0  0  0  0  0  0  0  0  0
  138.9379   67.1878  224.9228 H   0  0  0  0  0  0  0  0  0  0  0  0
  138.9210   68.9910  223.7170 C   0  0  0  0  0  0  0  0  0  0  0  0
  138.4663   68.4992  222.8445 H   0  0  0  0  0  0  0  0  0  0  0  0
  1  2  1  0
  2  3  1  0
  3  4  2  0
  4  5  1  0
  5  6  1  0
  5  7  1  0
  5  8  1  0
  8  9  1  6
  8 10  1  0
 10 11  1  0
  8 12  1  0
 12 13  1  0
 12 14  1  0
 12 15  1  0
 15 16  1  1
 15 17  1  0
 17 18  2  0
 17 19  1  0
 19 20  1  0
 20 21  1  1
 20 22  1  0
 22 23  2  0
 23 24  1  0
 23 25  1  0
 25 26  1  0
 25 27  2  0
 27 28  1  0
 28 29  1  0
 29 30  1  0
 29 31  1  0
 29 32  1  0
 27 33  1  0
 33 34  1  0
 33 35  2  0
 35 36  1  0
 20 37  1  0
 37 38  1  0
 37 39  1  0
 37 40  1  0
  3 41  1  0
 41 42  1  0
 41 43  1  0
 41 44  1  0
 44 45  1  0
 44 46  1  0
 46 47  2  0
 46 48  1  0
 48 49  2  0
 49 50  1  0
 50 51  2  0
 51 52  1  0
 51 53  1  0
 53 54  1  0
 53 55  2  0
 55 56  1  0
 55 57  1  0
 57 58  1  0
 57 59  2  0
 59 60  1  0
 60 61  1  0
 60 62  2  0
 62 63  1  0
 15  4  1  0
 35 22  1  0
 62 48  1  0
 59 50  1  0
M  CHG  2   4   1  19  -1
M  END
>  <UniqueID>  (33) 
2

>  <SMILES>  (33) 
COc1ccc([C@H](C)[N-]C(=O)[C@@H]2C[C@@H](O)C/[N+]2=C(/O)CNC(=O)c2ccc3cc(F)ccc3n2)c(Cl)c1

>  <Energy>  (33) 
63.291865297288076

>  <Genealogy>  (33) 
COc1ccc([C@H](C)[N-]C(=O)[C@@H]2C[C@@H](O)C[NH+]2C(=O)CNC(=O)c2ccc3cc(F)ccc3n2)c(Cl)c1 (protonated)
COc1ccc([C@H](C)[N-]C(=O)[C@@H]2C[C@@H](O)C[N+]2=C(O)CNC(=O)c2ccc3cc(F)ccc3n2)c(Cl)c1 (tautomer)
COc1ccc([C@H](C)[N-]C(=O)[C@@H]2C[C@@H](O)C/[N+]2=C(/O)CNC(=O)c2ccc3cc(F)ccc3n2)c(Cl)c1 (cis-trans isomerization)
COc1ccc([C@H](C)[N-]C(=O)[C@@H]2C[C@@H](O)C/[N+]2=C(/O)CNC(=O)c2ccc3cc(F)ccc3n2)c(Cl)c1 (3D coordinates assigned)
COc1ccc([C@H](C)[N-]C(=O)[C@@H]2C[C@@H](O)C/[N+]2=C(/O)CNC(=O)c2ccc3cc(F)ccc3n2)c(Cl)c1 (nonaromatic ring conformer: 63.291865297288076 kcal/mol)

>  <smiles>  (33) 
COc1ccc([C@H](C)NC(=O)[C@@H]2C[C@@H](O)CN2C(=O)CNC(=O)c2ccc3cc(F)ccc3n2)c(Cl)c1

>  <score_type>  (33) 
oracle

>  <origin>  (33) 
autodockgpu

>  <m_score__min__energy>  (33) 
-7.9500000000000002

>  <m_primary>  (33) 
energy

>  <meeko>  (33) 
{"free_energy": -6.82, "intermolecular_energy": -10.1, "internal_energy": -3.44, "cluster_size": 1, "cluster_id": 5, "rank_in_cluster": 1}

>  <energy>  (33) 
-6.61

>  <cluster_rmsd>  (33) 
0.0

>  <rmsd>  (33) 
269.89

>  <cluster>  (33) 
6

$$$$
JFIDHXWBANSMLJ-ISVIKUIWNA-N
     RDKit          3D

 63 66  0  0  0  0  0  0  0  0999 V2000
  138.5040   76.6770  222.9930 H   0  0  0  0  0  0  0  0  0  0  0  0
  138.9310   75.7970  222.7370 O   0  0  0  0  0  0  0  0  0  0  0  0
  139.9470   75.6600  221.7890 C   0  0  0  0  0  0  0  0  0  0  0  0
  140.5730   76.7070  221.2980 N   0  0  0  0  0  0  0  0  0  0  0  0
  140.7830   76.9400  219.8690 C   0  0  0  0  0  0  0  0  0  0  0  0
  139.8171   76.9755  219.3439 H   0  0  0  0  0  0  0  0  0  0  0  0
  141.3768   76.1316  219.4174 H   0  0  0  0  0  0  0  0  0  0  0  0
  141.4980   78.2830  219.7490 C   0  0  2  0  0  0  0  0  0  0  0  0
  140.8274   79.0715  219.3769 H   0  0  0  0  0  0  0  0  0  0  0  0
  142.5560   78.1970  218.8310 O   0  0  0  0  0  0  0  0  0  0  0  0
  143.3640   77.9430  219.3560 H   0  0  0  0  0  0  0  0  0  0  0  0
  142.0060   78.6110  221.1520 C   0  0  0  0  0  0  0  0  0  0  0  0
  141.8870   79.6842  221.3618 H   0  0  0  0  0  0  0  0  0  0  0  0
  143.0753   78.3774  221.2616 H   0  0  0  0  0  0  0  0  0  0  0  0
  141.1450   77.7810  222.1090 C   0  0  1  0  0  0  0  0  0  0  0  0
  141.7451   77.3953  222.9463 H   0  0  0  0  0  0  0  0  0  0  0  0
  140.0400   78.6160  222.7050 C   0  0  0  0  0  0  0  0  0  0  0  0
  138.8800   78.5750  222.1960 O   0  0  0  0  0  0  0  0  0  0  0  0
  140.3120   79.4540  223.8410 N   0  0  0  0  0  0  0  0  0  0  0  0
  141.0630   80.7070  223.7630 C   0  0  2  0  0  0  0  0  0  0  0  0
  140.7853   81.3314  224.6250 H   0  0  0  0  0  0  0  0  0  0  0  0
  140.7060   81.4600  222.4870 C   0  0  0  0  0  0  0  0  0  0  0  0
  141.7340   81.7340  221.5620 C   0  0  0  0  0  0  0  0  0  0  0  0
  142.7688   81.4461  221.7992 H   0  0  0  0  0  0  0  0  0  0  0  0
  141.4550   82.3670  220.3470 C   0  0  0  0  0  0  0  0  0  0  0  0
  142.2692   82.5539  219.6313 H   0  0  0  0  0  0  0  0  0  0  0  0
  140.1490   82.7660  220.0310 C   0  0  0  0  0  0  0  0  0  0  0  0
  139.9230   83.4160  218.8050 O   0  0  0  0  0  0  0  0  0  0  0  0
  140.9510   83.9910  217.9970 C   0  0  0  0  0  0  0  0  0  0  0  0
  141.7269   84.4250  218.6448 H   0  0  0  0  0  0  0  0  0  0  0  0
  141.3973   83.2115  217.3620 H   0  0  0  0  0  0  0  0  0  0  0  0
  140.5205   84.7793  217.3620 H   0  0  0  0  0  0  0  0  0  0  0  0
  139.1110   82.4960  220.9430 C   0  0  0  0  0  0  0  0  0  0  0  0
  138.0823   82.8031  220.7032 H   0  0  0  0  0  0  0  0  0  0  0  0
  139.3750   81.8390  222.1550 C   0  0  0  0  0  0  0  0  0  0  0  0
  137.9920   81.5050  223.2030 Cl  0  0  0  0  0  0  0  0  0  0  0  0
  142.5770   80.4460  223.8390 C   0  0  0  0  0  0  0  0  0  0  0  0
  142.8874   80.3925  224.8929 H   0  0  0  0  0  0  0  0  0  0  0  0
  142.8106   79.4943  223.3392 H   0  0  0  0  0  0  0  0  0  0  0  0
  143.1157   81.2645  223.3392 H   0  0  0  0  0  0  0  0  0  0  0  0
  140.2370   74.2620  221.3090 C   0  0  0  0  0  0  0  0  0  0  0  0
  139.6572   74.0618  220.3959 H   0  0  0  0  0  0  0  0  0  0  0  0
  141.3117   74.1676  221.0940 H   0  0  0  0  0  0  0  0  0  0  0  0
  139.8640   73.2940  222.3440 N   0  0  0  0  0  0  0  0  0  0  0  0
  139.1850   73.5900  223.0850 H   0  0  0  0  0  0  0  0  0  0  0  0
  140.4810   71.9960  222.4340 C   0  0  0  0  0  0  0  0  0  0  0  0
  141.2330   71.5830  221.5050 O   0  0  0  0  0  0  0  0  0  0  0  0
  140.2340   71.1380  223.6090 C   0  0  0  0  0  0  0  0  0  0  0  0
  140.6900   71.5240  224.8370 N   0  0  0  0  0  0  0  0  0  0  0  0
  140.5260   70.7460  225.9400 C   0  0  0  0  0  0  0  0  0  0  0  0
  141.0680   71.1490  227.1690 C   0  0  0  0  0  0  0  0  0  0  0  0
  141.6134   72.1013  227.2440 H   0  0  0  0  0  0  0  0  0  0  0  0
  140.9150   70.3400  228.2990 C   0  0  0  0  0  0  0  0  0  0  0  0
  141.3356   70.6592  229.2640 H   0  0  0  0  0  0  0  0  0  0  0  0
  140.2260   69.1220  228.2040 C   0  0  0  0  0  0  0  0  0  0  0  0
  140.0980   68.3320  229.3000 F   0  0  0  0  0  0  0  0  0  0  0  0
  139.6920   68.7050  226.9790 C   0  0  0  0  0  0  0  0  0  0  0  0
  139.1517   67.7493  226.9103 H   0  0  0  0  0  0  0  0  0  0  0  0
  139.8470   69.5080  225.8390 C   0  0  0  0  0  0  0  0  0  0  0  0
  139.3640   69.0980  224.5900 C   0  0  0  0  0  0  0  0  0  0  0  0
  138.8291   68.1418  224.4918 H   0  0  0  0  0  0  0  0  0  0  0  0
  139.5640   69.9080  223.4690 C   0  0  0  0  0  0  0  0  0  0  0  0
  139.1997   69.5861  222.4822 H   0  0  0  0  0  0  0  0  0  0  0  0
  1  2  1  0
  2  3  1  0
  3  4  2  0
  4  5  1  0
  5  6  1  0
  5  7  1  0
  5  8  1  0
  8  9  1  6
  8 10  1  0
 10 11  1  0
  8 12  1  0
 12 13  1  0
 12 14  1  0
 12 15  1  0
 15 16  1  1
 15 17  1  0
 17 18  2  0
 17 19  1  0
 19 20  1  0
 20 21  1  1
 20 22  1  0
 22 23  2  0
 23 24  1  0
 23 25  1  0
 25 26  1  0
 25 27  2  0
 27 28  1  0
 28 29  1  0
 29 30  1  0
 29 31  1  0
 29 32  1  0
 27 33  1  0
 33 34  1  0
 33 35  2  0
 35 36  1  0
 20 37  1  0
 37 38  1  0
 37 39  1  0
 37 40  1  0
  3 41  1  0
 41 42  1  0
 41 43  1  0
 41 44  1  0
 44 45  1  0
 44 46  1  0
 46 47  2  0
 46 48  1  0
 48 49  2  0
 49 50  1  0
 50 51  2  0
 51 52  1  0
 51 53  1  0
 53 54  1  0
 53 55  2  0
 55 56  1  0
 55 57  1  0
 57 58  1  0
 57 59  2  0
 59 60  1  0
 60 61  1  0
 60 62  2  0
 62 63  1  0
 15  4  1  0
 35 22  1  0
 62 48  1  0
 59 50  1  0
M  CHG  2   4   1  19  -1
M  END
>  <UniqueID>  (34) 
2

>  <SMILES>  (34) 
COc1ccc([C@H](C)[N-]C(=O)[C@@H]2C[C@@H](O)C/[N+]2=C(/O)CNC(=O)c2ccc3cc(F)ccc3n2)c(Cl)c1

>  <Energy>  (34) 
63.291865297288076

>  <Genealogy>  (34) 
COc1ccc([C@H](C)[N-]C(=O)[C@@H]2C[C@@H](O)C[NH+]2C(=O)CNC(=O)c2ccc3cc(F)ccc3n2)c(Cl)c1 (protonated)
COc1ccc([C@H](C)[N-]C(=O)[C@@H]2C[C@@H](O)C[N+]2=C(O)CNC(=O)c2ccc3cc(F)ccc3n2)c(Cl)c1 (tautomer)
COc1ccc([C@H](C)[N-]C(=O)[C@@H]2C[C@@H](O)C/[N+]2=C(/O)CNC(=O)c2ccc3cc(F)ccc3n2)c(Cl)c1 (cis-trans isomerization)
COc1ccc([C@H](C)[N-]C(=O)[C@@H]2C[C@@H](O)C/[N+]2=C(/O)CNC(=O)c2ccc3cc(F)ccc3n2)c(Cl)c1 (3D coordinates assigned)
COc1ccc([C@H](C)[N-]C(=O)[C@@H]2C[C@@H](O)C/[N+]2=C(/O)CNC(=O)c2ccc3cc(F)ccc3n2)c(Cl)c1 (nonaromatic ring conformer: 63.291865297288076 kcal/mol)

>  <smiles>  (34) 
COc1ccc([C@H](C)NC(=O)[C@@H]2C[C@@H](O)CN2C(=O)CNC(=O)c2ccc3cc(F)ccc3n2)c(Cl)c1

>  <score_type>  (34) 
oracle

>  <origin>  (34) 
autodockgpu

>  <m_score__min__energy>  (34) 
-7.9500000000000002

>  <m_primary>  (34) 
energy

>  <meeko>  (34) 
{"free_energy": -7.95, "intermolecular_energy": -11.23, "internal_energy": -3.17, "cluster_size": 2, "cluster_id": 1, "rank_in_cluster": 1}

>  <energy>  (34) 
-6.29

>  <cluster_rmsd>  (34) 
0.0

>  <rmsd>  (34) 
269.74

>  <cluster>  (34) 
7

$$$$
JFIDHXWBANSMLJ-ISVIKUIWNA-N
     RDKit          3D

 63 66  0  0  0  0  0  0  0  0999 V2000
  138.9930   71.3900  219.3370 H   0  0  0  0  0  0  0  0  0  0  0  0
  139.5160   72.1990  219.0270 O   0  0  0  0  0  0  0  0  0  0  0  0
  139.8150   73.3000  219.8330 C   0  0  0  0  0  0  0  0  0  0  0  0
  140.9950   73.8770  219.7960 N   0  0  0  0  0  0  0  0  0  0  0  0
  141.7300   74.1600  218.5620 C   0  0  0  0  0  0  0  0  0  0  0  0
  141.1316   74.8065  217.9033 H   0  0  0  0  0  0  0  0  0  0  0  0
  141.9495   73.2347  218.0092 H   0  0  0  0  0  0  0  0  0  0  0  0
  143.0140   74.8730  218.9750 C   0  0  2  0  0  0  0  0  0  0  0  0
  142.9812   75.9461  218.7356 H   0  0  0  0  0  0  0  0  0  0  0  0
  144.1140   74.3460  218.2820 O   0  0  0  0  0  0  0  0  0  0  0  0
  144.7710   75.0900  218.1900 H   0  0  0  0  0  0  0  0  0  0  0  0
  143.1480   74.6500  220.4800 C   0  0  0  0  0  0  0  0  0  0  0  0
  143.5207   75.5611  220.9710 H   0  0  0  0  0  0  0  0  0  0  0  0
  143.8616   73.8448  220.7090 H   0  0  0  0  0  0  0  0  0  0  0  0
  141.7380   74.3140  220.9770 C   0  0  1  0  0  0  0  0  0  0  0  0
  141.7691   73.5410  221.7589 H   0  0  0  0  0  0  0  0  0  0  0  0
  141.0730   75.5250  221.5800 C   0  0  0  0  0  0  0  0  0  0  0  0
  140.1280   75.3710  222.4100 O   0  0  0  0  0  0  0  0  0  0  0  0
  141.5130   76.8410  221.2070 N   0  0  0  0  0  0  0  0  0  0  0  0
  140.6190   77.8780  220.6890 C   0  0  2  0  0  0  0  0  0  0  0  0
  141.2145   78.5765  220.0829 H   0  0  0  0  0  0  0  0  0  0  0  0
  139.9850   78.6540  221.8390 C   0  0  0  0  0  0  0  0  0  0  0  0
  138.5870   78.5800  222.0050 C   0  0  0  0  0  0  0  0  0  0  0  0
  137.9833   78.0117  221.2821 H   0  0  0  0  0  0  0  0  0  0  0  0
  137.9590   79.2200  223.0770 C   0  0  0  0  0  0  0  0  0  0  0  0
  136.8693   79.1333  223.1993 H   0  0  0  0  0  0  0  0  0  0  0  0
  138.7020   79.9710  223.9980 C   0  0  0  0  0  0  0  0  0  0  0  0
  138.0210   80.6110  225.0490 O   0  0  0  0  0  0  0  0  0  0  0  0
  137.0260   81.6200  224.8660 C   0  0  0  0  0  0  0  0  0  0  0  0
  136.6774   81.9735  225.8476 H   0  0  0  0  0  0  0  0  0  0  0  0
  137.4568   82.4623  224.3048 H   0  0  0  0  0  0  0  0  0  0  0  0
  136.1778   81.2010  224.3048 H   0  0  0  0  0  0  0  0  0  0  0  0
  140.1000   80.0510  223.8470 C   0  0  0  0  0  0  0  0  0  0  0  0
  140.6925   80.6361  224.5658 H   0  0  0  0  0  0  0  0  0  0  0  0
  140.7450   79.3920  222.7890 C   0  0  0  0  0  0  0  0  0  0  0  0
  142.5060   79.5160  222.7230 Cl  0  0  0  0  0  0  0  0  0  0  0  0
  139.5380   77.2690  219.7800 C   0  0  0  0  0  0  0  0  0  0  0  0
  138.7463   76.8230  220.3999 H   0  0  0  0  0  0  0  0  0  0  0  0
  139.1065   78.0567  219.1450 H   0  0  0  0  0  0  0  0  0  0  0  0
  139.9881   76.4917  219.1450 H   0  0  0  0  0  0  0  0  0  0  0  0
  138.7420   73.7420  220.7940 C   0  0  0  0  0  0  0  0  0  0  0  0
  138.8508   74.8184  220.9927 H   0  0  0  0  0  0  0  0  0  0  0  0
  137.7546   73.5443  220.3514 H   0  0  0  0  0  0  0  0  0  0  0  0
  138.8650   73.0010  222.0510 N   0  0  0  0  0  0  0  0  0  0  0  0
  139.1370   73.5260  222.9170 H   0  0  0  0  0  0  0  0  0  0  0  0
  138.7330   71.5690  222.1110 C   0  0  0  0  0  0  0  0  0  0  0  0
  138.3190   70.9260  221.1030 O   0  0  0  0  0  0  0  0  0  0  0  0
  139.0740   70.8430  223.3490 C   0  0  0  0  0  0  0  0  0  0  0  0
  139.6450   71.5140  224.3920 N   0  0  0  0  0  0  0  0  0  0  0  0
  140.0160   70.8800  225.5360 C   0  0  0  0  0  0  0  0  0  0  0  0
  140.6610   71.5940  226.5560 C   0  0  0  0  0  0  0  0  0  0  0  0
  140.8539   72.6703  226.4365 H   0  0  0  0  0  0  0  0  0  0  0  0
  141.0590   70.9380  227.7250 C   0  0  0  0  0  0  0  0  0  0  0  0
  141.5588   71.5005  228.5274 H   0  0  0  0  0  0  0  0  0  0  0  0
  140.8220   69.5640  227.8760 C   0  0  0  0  0  0  0  0  0  0  0  0
  141.2290   68.9290  229.0040 F   0  0  0  0  0  0  0  0  0  0  0  0
  140.1910   68.8390  226.8580 C   0  0  0  0  0  0  0  0  0  0  0  0
  140.0075   67.7615  226.9815 H   0  0  0  0  0  0  0  0  0  0  0  0
  139.7930   69.4890  225.6800 C   0  0  0  0  0  0  0  0  0  0  0  0
  139.2010   68.7830  224.6240 C   0  0  0  0  0  0  0  0  0  0  0  0
  139.0157   67.7027  224.7172 H   0  0  0  0  0  0  0  0  0  0  0  0
  138.8470   69.4570  223.4520 C   0  0  0  0  0  0  0  0  0  0  0  0
  138.3932   68.9075  222.6140 H   0  0  0  0  0  0  0  0  0  0  0  0
  1  2  1  0
  2  3  1  0
  3  4  2  0
  4  5  1  0
  5  6  1  0
  5  7  1  0
  5  8  1  0
  8  9  1  1
  8 10  1  0
 10 11  1  0
  8 12  1  0
 12 13  1  0
 12 14  1  0
 12 15  1  0
 15 16  1  1
 15 17  1  0
 17 18  2  0
 17 19  1  0
 19 20  1  0
 20 21  1  6
 20 22  1  0
 22 23  2  0
 23 24  1  0
 23 25  1  0
 25 26  1  0
 25 27  2  0
 27 28  1  0
 28 29  1  0
 29 30  1  0
 29 31  1  0
 29 32  1  0
 27 33  1  0
 33 34  1  0
 33 35  2  0
 35 36  1  0
 20 37  1  0
 37 38  1  0
 37 39  1  0
 37 40  1  0
  3 41  1  0
 41 42  1  0
 41 43  1  0
 41 44  1  0
 44 45  1  0
 44 46  1  0
 46 47  2  0
 46 48  1  0
 48 49  2  0
 49 50  1  0
 50 51  2  0
 51 52  1  0
 51 53  1  0
 53 54  1  0
 53 55  2  0
 55 56  1  0
 55 57  1  0
 57 58  1  0
 57 59  2  0
 59 60  1  0
 60 61  1  0
 60 62  2  0
 62 63  1  0
 15  4  1  0
 35 22  1  0
 62 48  1  0
 59 50  1  0
M  CHG  2   4   1  19  -1
M  END
>  <UniqueID>  (35) 
2

>  <SMILES>  (35) 
COc1ccc([C@H](C)[N-]C(=O)[C@@H]2C[C@@H](O)C/[N+]2=C(/O)CNC(=O)c2ccc3cc(F)ccc3n2)c(Cl)c1

>  <Energy>  (35) 
63.291865297288076

>  <Genealogy>  (35) 
COc1ccc([C@H](C)[N-]C(=O)[C@@H]2C[C@@H](O)C[NH+]2C(=O)CNC(=O)c2ccc3cc(F)ccc3n2)c(Cl)c1 (protonated)
COc1ccc([C@H](C)[N-]C(=O)[C@@H]2C[C@@H](O)C[N+]2=C(O)CNC(=O)c2ccc3cc(F)ccc3n2)c(Cl)c1 (tautomer)
COc1ccc([C@H](C)[N-]C(=O)[C@@H]2C[C@@H](O)C/[N+]2=C(/O)CNC(=O)c2ccc3cc(F)ccc3n2)c(Cl)c1 (cis-trans isomerization)
COc1ccc([C@H](C)[N-]C(=O)[C@@H]2C[C@@H](O)C/[N+]2=C(/O)CNC(=O)c2ccc3cc(F)ccc3n2)c(Cl)c1 (3D coordinates assigned)
COc1ccc([C@H](C)[N-]C(=O)[C@@H]2C[C@@H](O)C/[N+]2=C(/O)CNC(=O)c2ccc3cc(F)ccc3n2)c(Cl)c1 (nonaromatic ring conformer: 63.291865297288076 kcal/mol)

>  <smiles>  (35) 
COc1ccc([C@H](C)NC(=O)[C@@H]2C[C@@H](O)CN2C(=O)CNC(=O)c2ccc3cc(F)ccc3n2)c(Cl)c1

>  <score_type>  (35) 
oracle

>  <origin>  (35) 
autodockgpu

>  <m_score__min__energy>  (35) 
-7.9500000000000002

>  <m_primary>  (35) 
energy

>  <meeko>  (35) 
{"free_energy": -7.13, "intermolecular_energy": -10.41, "internal_energy": -3.59, "cluster_size": 6, "cluster_id": 2, "rank_in_cluster": 5}

>  <energy>  (35) 
-5.98

>  <cluster_rmsd>  (35) 
0.0

>  <rmsd>  (35) 
270.11

>  <cluster>  (35) 
8

$$$$
JFIDHXWBANSMLJ-ISVIKUIWNA-N
     RDKit          3D

 63 66  0  0  0  0  0  0  0  0999 V2000
  139.4290   74.6860  223.0630 H   0  0  0  0  0  0  0  0  0  0  0  0
  138.8910   75.1390  222.3360 O   0  0  0  0  0  0  0  0  0  0  0  0
  137.9570   74.4900  221.5250 C   0  0  0  0  0  0  0  0  0  0  0  0
  136.7130   74.9070  221.4430 N   0  0  0  0  0  0  0  0  0  0  0  0
  136.2290   75.8500  220.4350 C   0  0  0  0  0  0  0  0  0  0  0  0
  136.4107   75.4529  219.4254 H   0  0  0  0  0  0  0  0  0  0  0  0
  136.7506   76.8154  220.5117 H   0  0  0  0  0  0  0  0  0  0  0  0
  134.7310   76.0130  220.6750 C   0  0  2  0  0  0  0  0  0  0  0  0
  134.1345   75.4972  219.9081 H   0  0  0  0  0  0  0  0  0  0  0  0
  134.3680   77.3670  220.6140 O   0  0  0  0  0  0  0  0  0  0  0  0
  133.3780   77.3870  220.5020 H   0  0  0  0  0  0  0  0  0  0  0  0
  134.4660   75.4280  222.0610 C   0  0  0  0  0  0  0  0  0  0  0  0
  133.5184   74.8694  222.0668 H   0  0  0  0  0  0  0  0  0  0  0  0
  134.3812   76.2153  222.8246 H   0  0  0  0  0  0  0  0  0  0  0  0
  135.6420   74.4880  222.3460 C   0  0  1  0  0  0  0  0  0  0  0  0
  135.9443   74.5421  223.4022 H   0  0  0  0  0  0  0  0  0  0  0  0
  135.2680   73.0550  222.0660 C   0  0  0  0  0  0  0  0  0  0  0  0
  134.3290   72.8000  221.2540 O   0  0  0  0  0  0  0  0  0  0  0  0
  135.9730   71.9910  222.7260 N   0  0  0  0  0  0  0  0  0  0  0  0
  135.3450   71.0600  223.6640 C   0  0  2  0  0  0  0  0  0  0  0  0
  134.6159   70.4502  223.1103 H   0  0  0  0  0  0  0  0  0  0  0  0
  134.6060   71.8260  224.7550 C   0  0  0  0  0  0  0  0  0  0  0  0
  134.9670   73.1680  224.9930 C   0  0  0  0  0  0  0  0  0  0  0  0
  135.7980   73.6153  224.4280 H   0  0  0  0  0  0  0  0  0  0  0  0
  134.2820   73.9370  225.9380 C   0  0  0  0  0  0  0  0  0  0  0  0
  134.5671   74.9879  226.0940 H   0  0  0  0  0  0  0  0  0  0  0  0
  133.2360   73.3840  226.6890 C   0  0  0  0  0  0  0  0  0  0  0  0
  132.5900   74.1940  227.6410 O   0  0  0  0  0  0  0  0  0  0  0  0
  131.9890   75.4560  227.3480 C   0  0  0  0  0  0  0  0  0  0  0  0
  131.7432   75.9721  228.2878 H   0  0  0  0  0  0  0  0  0  0  0  0
  132.6913   76.0701  226.7653 H   0  0  0  0  0  0  0  0  0  0  0  0
  131.0696   75.2978  226.7653 H   0  0  0  0  0  0  0  0  0  0  0  0
  132.8610   72.0460  226.4600 C   0  0  0  0  0  0  0  0  0  0  0  0
  132.0390   71.6039  227.0421 H   0  0  0  0  0  0  0  0  0  0  0  0
  133.5250   71.2710  225.4970 C   0  0  0  0  0  0  0  0  0  0  0  0
  132.9410   69.6220  225.2550 Cl  0  0  0  0  0  0  0  0  0  0  0  0
  136.3880   70.1080  224.2760 C   0  0  0  0  0  0  0  0  0  0  0  0
  136.3319   70.1592  225.3734 H   0  0  0  0  0  0  0  0  0  0  0  0
  136.1833   69.0788  223.9460 H   0  0  0  0  0  0  0  0  0  0  0  0
  137.3943   70.4056  223.9460 H   0  0  0  0  0  0  0  0  0  0  0  0
  138.4320   73.2520  220.8100 C   0  0  0  0  0  0  0  0  0  0  0  0
  137.6747   72.9416  220.0751 H   0  0  0  0  0  0  0  0  0  0  0  0
  139.3797   73.4707  220.2961 H   0  0  0  0  0  0  0  0  0  0  0  0
  138.6440   72.1710  221.7760 N   0  0  0  0  0  0  0  0  0  0  0  0
  137.9160   71.4220  221.8580 H   0  0  0  0  0  0  0  0  0  0  0  0
  139.7600   72.1680  222.6860 C   0  0  0  0  0  0  0  0  0  0  0  0
  140.6960   73.0080  222.5470 O   0  0  0  0  0  0  0  0  0  0  0  0
  139.8220   71.1800  223.7800 C   0  0  0  0  0  0  0  0  0  0  0  0
  140.2820   71.5590  225.0080 N   0  0  0  0  0  0  0  0  0  0  0  0
  140.3990   70.6750  226.0350 C   0  0  0  0  0  0  0  0  0  0  0  0
  140.9380   71.0900  227.2600 C   0  0  0  0  0  0  0  0  0  0  0  0
  141.2535   72.1349  227.3963 H   0  0  0  0  0  0  0  0  0  0  0  0
  141.0750   70.1750  228.3100 C   0  0  0  0  0  0  0  0  0  0  0  0
  141.4922   70.5028  229.2736 H   0  0  0  0  0  0  0  0  0  0  0  0
  140.6810   68.8410  228.1350 C   0  0  0  0  0  0  0  0  0  0  0  0
  140.8350   67.9540  229.1500 F   0  0  0  0  0  0  0  0  0  0  0  0
  140.1540   68.4130  226.9110 C   0  0  0  0  0  0  0  0  0  0  0  0
  139.8470   67.3649  226.7796 H   0  0  0  0  0  0  0  0  0  0  0  0
  140.0180   69.3230  225.8520 C   0  0  0  0  0  0  0  0  0  0  0  0
  139.5360   68.9160  224.6010 C   0  0  0  0  0  0  0  0  0  0  0  0
  139.2296   67.8718  224.4403 H   0  0  0  0  0  0  0  0  0  0  0  0
  139.4460   69.8420  223.5580 C   0  0  0  0  0  0  0  0  0  0  0  0
  139.0831   69.5267  222.5686 H   0  0  0  0  0  0  0  0  0  0  0  0
  1  2  1  0
  2  3  1  0
  3  4  2  0
  4  5  1  0
  5  6  1  0
  5  7  1  0
  5  8  1  0
  8  9  1  6
  8 10  1  0
 10 11  1  0
  8 12  1  0
 12 13  1  0
 12 14  1  0
 12 15  1  0
 15 16  1  1
 15 17  1  0
 17 18  2  0
 17 19  1  0
 19 20  1  0
 20 21  1  6
 20 22  1  0
 22 23  2  0
 23 24  1  0
 23 25  1  0
 25 26  1  0
 25 27  2  0
 27 28  1  0
 28 29  1  0
 29 30  1  0
 29 31  1  0
 29 32  1  0
 27 33  1  0
 33 34  1  0
 33 35  2  0
 35 36  1  0
 20 37  1  0
 37 38  1  0
 37 39  1  0
 37 40  1  0
  3 41  1  0
 41 42  1  0
 41 43  1  0
 41 44  1  0
 44 45  1  0
 44 46  1  0
 46 47  2  0
 46 48  1  0
 48 49  2  0
 49 50  1  0
 50 51  2  0
 51 52  1  0
 51 53  1  0
 53 54  1  0
 53 55  2  0
 55 56  1  0
 55 57  1  0
 57 58  1  0
 57 59  2  0
 59 60  1  0
 60 61  1  0
 60 62  2  0
 62 63  1  0
 15  4  1  0
 35 22  1  0
 62 48  1  0
 59 50  1  0
M  CHG  2   4   1  19  -1
M  END
>  <UniqueID>  (36) 
2

>  <SMILES>  (36) 
COc1ccc([C@H](C)[N-]C(=O)[C@@H]2C[C@@H](O)C/[N+]2=C(/O)CNC(=O)c2ccc3cc(F)ccc3n2)c(Cl)c1

>  <Energy>  (36) 
63.291865297288076

>  <Genealogy>  (36) 
COc1ccc([C@H](C)[N-]C(=O)[C@@H]2C[C@@H](O)C[NH+]2C(=O)CNC(=O)c2ccc3cc(F)ccc3n2)c(Cl)c1 (protonated)
COc1ccc([C@H](C)[N-]C(=O)[C@@H]2C[C@@H](O)C[N+]2=C(O)CNC(=O)c2ccc3cc(F)ccc3n2)c(Cl)c1 (tautomer)
COc1ccc([C@H](C)[N-]C(=O)[C@@H]2C[C@@H](O)C/[N+]2=C(/O)CNC(=O)c2ccc3cc(F)ccc3n2)c(Cl)c1 (cis-trans isomerization)
COc1ccc([C@H](C)[N-]C(=O)[C@@H]2C[C@@H](O)C/[N+]2=C(/O)CNC(=O)c2ccc3cc(F)ccc3n2)c(Cl)c1 (3D coordinates assigned)
COc1ccc([C@H](C)[N-]C(=O)[C@@H]2C[C@@H](O)C/[N+]2=C(/O)CNC(=O)c2ccc3cc(F)ccc3n2)c(Cl)c1 (nonaromatic ring conformer: 63.291865297288076 kcal/mol)

>  <smiles>  (36) 
COc1ccc([C@H](C)NC(=O)[C@@H]2C[C@@H](O)CN2C(=O)CNC(=O)c2ccc3cc(F)ccc3n2)c(Cl)c1

>  <score_type>  (36) 
oracle

>  <origin>  (36) 
autodockgpu

>  <m_score__min__energy>  (36) 
-7.9500000000000002

>  <m_primary>  (36) 
energy

>  <meeko>  (36) 
{"free_energy": -6.29, "intermolecular_energy": -9.57, "internal_energy": -3.61, "cluster_size": 1, "cluster_id": 7, "rank_in_cluster": 1}

>  <energy>  (36) 
-5.42

>  <cluster_rmsd>  (36) 
0.0

>  <rmsd>  (36) 
270.41

>  <cluster>  (36) 
9

$$$$
JFIDHXWBANSMLJ-ISVIKUIWNA-N
     RDKit          3D

 63 66  0  0  0  0  0  0  0  0999 V2000
  141.8350   76.5270  222.2420 H   0  0  0  0  0  0  0  0  0  0  0  0
  141.1760   75.7620  222.3080 O   0  0  0  0  0  0  0  0  0  0  0  0
  140.7430   75.0000  221.2200 C   0  0  0  0  0  0  0  0  0  0  0  0
  141.5310   74.7580  220.1960 N   0  0  0  0  0  0  0  0  0  0  0  0
  141.1720   73.8910  219.0730 C   0  0  0  0  0  0  0  0  0  0  0  0
  140.2587   74.2611  218.5842 H   0  0  0  0  0  0  0  0  0  0  0  0
  140.9743   72.8633  219.4118 H   0  0  0  0  0  0  0  0  0  0  0  0
  142.3450   73.9340  218.0990 C   0  0  2  0  0  0  0  0  0  0  0  0
  142.1104   74.5277  217.2032 H   0  0  0  0  0  0  0  0  0  0  0  0
  142.6580   72.6430  217.6470 O   0  0  0  0  0  0  0  0  0  0  0  0
  141.8800   72.3390  217.1020 H   0  0  0  0  0  0  0  0  0  0  0  0
  143.5090   74.5480  218.8750 C   0  0  0  0  0  0  0  0  0  0  0  0
  144.0821   75.2307  218.2305 H   0  0  0  0  0  0  0  0  0  0  0  0
  144.2091   73.7789  219.2332 H   0  0  0  0  0  0  0  0  0  0  0  0
  142.8720   75.3180  220.0360 C   0  0  1  0  0  0  0  0  0  0  0  0
  143.4743   75.2214  220.9513 H   0  0  0  0  0  0  0  0  0  0  0  0
  142.7780   76.7900  219.7220 C   0  0  0  0  0  0  0  0  0  0  0  0
  143.2200   77.2230  218.6160 O   0  0  0  0  0  0  0  0  0  0  0  0
  142.1940   77.6880  220.6790 N   0  0  0  0  0  0  0  0  0  0  0  0
  141.2640   78.7610  220.3230 C   0  0  2  0  0  0  0  0  0  0  0  0
  141.8447   79.6029  219.9180 H   0  0  0  0  0  0  0  0  0  0  0  0
  140.5130   79.2430  221.5590 C   0  0  0  0  0  0  0  0  0  0  0  0
  139.1220   79.0200  221.6270 C   0  0  0  0  0  0  0  0  0  0  0  0
  138.6045   78.5530  220.7761 H   0  0  0  0  0  0  0  0  0  0  0  0
  138.3930   79.3850  222.7620 C   0  0  0  0  0  0  0  0  0  0  0  0
  137.3124   79.1835  222.8027 H   0  0  0  0  0  0  0  0  0  0  0  0
  139.0240   80.0050  223.8490 C   0  0  0  0  0  0  0  0  0  0  0  0
  138.2420   80.3710  224.9600 O   0  0  0  0  0  0  0  0  0  0  0  0
  137.2690   81.4160  224.9500 C   0  0  0  0  0  0  0  0  0  0  0  0
  137.0142   81.6897  225.9845 H   0  0  0  0  0  0  0  0  0  0  0  0
  137.6789   82.2937  224.4289 H   0  0  0  0  0  0  0  0  0  0  0  0
  136.3643   81.0696  224.4289 H   0  0  0  0  0  0  0  0  0  0  0  0
  140.4120   80.2320  223.7980 C   0  0  0  0  0  0  0  0  0  0  0  0
  140.9162   80.7157  224.6476 H   0  0  0  0  0  0  0  0  0  0  0  0
  141.1600   79.8470  222.6730 C   0  0  0  0  0  0  0  0  0  0  0  0
  142.9020   80.1310  222.7350 Cl  0  0  0  0  0  0  0  0  0  0  0  0
  140.2820   78.2970  219.2330 C   0  0  0  0  0  0  0  0  0  0  0  0
  139.3838   77.8726  219.7053 H   0  0  0  0  0  0  0  0  0  0  0  0
  139.9964   79.1554  218.6073 H   0  0  0  0  0  0  0  0  0  0  0  0
  140.7638   77.5313  218.6073 H   0  0  0  0  0  0  0  0  0  0  0  0
  139.3110   74.5340  221.2520 C   0  0  0  0  0  0  0  0  0  0  0  0
  138.6558   75.3840  221.4934 H   0  0  0  0  0  0  0  0  0  0  0  0
  139.0405   74.1249  220.2674 H   0  0  0  0  0  0  0  0  0  0  0  0
  139.1500   73.4920  222.2690 N   0  0  0  0  0  0  0  0  0  0  0  0
  138.4230   73.6250  223.0110 H   0  0  0  0  0  0  0  0  0  0  0  0
  140.0290   72.3540  222.3420 C   0  0  0  0  0  0  0  0  0  0  0  0
  140.8540   72.1260  221.4100 O   0  0  0  0  0  0  0  0  0  0  0  0
  139.9680   71.4430  223.5010 C   0  0  0  0  0  0  0  0  0  0  0  0
  140.4580   71.8510  224.7090 N   0  0  0  0  0  0  0  0  0  0  0  0
  140.4640   71.0320  225.7940 C   0  0  0  0  0  0  0  0  0  0  0  0
  141.0370   71.4670  226.9970 C   0  0  0  0  0  0  0  0  0  0  0  0
  141.4693   72.4761  227.0671 H   0  0  0  0  0  0  0  0  0  0  0  0
  141.0590   70.6180  228.1080 C   0  0  0  0  0  0  0  0  0  0  0  0
  141.5022   70.9627  229.0539 H   0  0  0  0  0  0  0  0  0  0  0  0
  140.5170   69.3280  228.0180 C   0  0  0  0  0  0  0  0  0  0  0  0
  140.5600   68.5010  229.0930 F   0  0  0  0  0  0  0  0  0  0  0  0
  139.9540   68.8790  226.8170 C   0  0  0  0  0  0  0  0  0  0  0  0
  139.5291   67.8665  226.7521 H   0  0  0  0  0  0  0  0  0  0  0  0
  139.9330   69.7230  225.6970 C   0  0  0  0  0  0  0  0  0  0  0  0
  139.4180   69.2880  224.4680 C   0  0  0  0  0  0  0  0  0  0  0  0
  138.9958   68.2767  224.3731 H   0  0  0  0  0  0  0  0  0  0  0  0
  139.4430   70.1440  223.3640 C   0  0  0  0  0  0  0  0  0  0  0  0
  139.0543   69.8046  222.3925 H   0  0  0  0  0  0  0  0  0  0  0  0
  1  2  1  0
  2  3  1  0
  3  4  2  0
  4  5  1  0
  5  6  1  0
  5  7  1  0
  5  8  1  0
  8  9  1  6
  8 10  1  0
 10 11  1  0
  8 12  1  0
 12 13  1  0
 12 14  1  0
 12 15  1  0
 15 16  1  1
 15 17  1  0
 17 18  2  0
 17 19  1  0
 19 20  1  0
 20 21  1  6
 20 22  1  0
 22 23  2  0
 23 24  1  0
 23 25  1  0
 25 26  1  0
 25 27  2  0
 27 28  1  0
 28 29  1  0
 29 30  1  0
 29 31  1  0
 29 32  1  0
 27 33  1  0
 33 34  1  0
 33 35  2  0
 35 36  1  0
 20 37  1  0
 37 38  1  0
 37 39  1  0
 37 40  1  0
  3 41  1  0
 41 42  1  0
 41 43  1  0
 41 44  1  0
 44 45  1  0
 44 46  1  0
 46 47  2  0
 46 48  1  0
 48 49  2  0
 49 50  1  0
 50 51  2  0
 51 52  1  0
 51 53  1  0
 53 54  1  0
 53 55  2  0
 55 56  1  0
 55 57  1  0
 57 58  1  0
 57 59  2  0
 59 60  1  0
 60 61  1  0
 60 62  2  0
 62 63  1  0
 15  4  1  0
 35 22  1  0
 62 48  1  0
 59 50  1  0
M  CHG  2   4   1  19  -1
M  END
>  <UniqueID>  (37) 
2

>  <SMILES>  (37) 
COc1ccc([C@H](C)[N-]C(=O)[C@@H]2C[C@@H](O)C/[N+]2=C(/O)CNC(=O)c2ccc3cc(F)ccc3n2)c(Cl)c1

>  <Energy>  (37) 
63.291865297288076

>  <Genealogy>  (37) 
COc1ccc([C@H](C)[N-]C(=O)[C@@H]2C[C@@H](O)C[NH+]2C(=O)CNC(=O)c2ccc3cc(F)ccc3n2)c(Cl)c1 (protonated)
COc1ccc([C@H](C)[N-]C(=O)[C@@H]2C[C@@H](O)C[N+]2=C(O)CNC(=O)c2ccc3cc(F)ccc3n2)c(Cl)c1 (tautomer)
COc1ccc([C@H](C)[N-]C(=O)[C@@H]2C[C@@H](O)C/[N+]2=C(/O)CNC(=O)c2ccc3cc(F)ccc3n2)c(Cl)c1 (cis-trans isomerization)
COc1ccc([C@H](C)[N-]C(=O)[C@@H]2C[C@@H](O)C/[N+]2=C(/O)CNC(=O)c2ccc3cc(F)ccc3n2)c(Cl)c1 (3D coordinates assigned)
COc1ccc([C@H](C)[N-]C(=O)[C@@H]2C[C@@H](O)C/[N+]2=C(/O)CNC(=O)c2ccc3cc(F)ccc3n2)c(Cl)c1 (nonaromatic ring conformer: 63.291865297288076 kcal/mol)

>  <smiles>  (37) 
COc1ccc([C@H](C)NC(=O)[C@@H]2C[C@@H](O)CN2C(=O)CNC(=O)c2ccc3cc(F)ccc3n2)c(Cl)c1

>  <score_type>  (37) 
oracle

>  <origin>  (37) 
autodockgpu

>  <m_score__min__energy>  (37) 
-7.9500000000000002

>  <m_primary>  (37) 
energy

>  <meeko>  (37) 
{"free_energy": -7.64, "intermolecular_energy": -10.92, "internal_energy": -2.94, "cluster_size": 6, "cluster_id": 2, "rank_in_cluster": 3}

>  <energy>  (37) 
-5.4

>  <cluster_rmsd>  (37) 
0.0

>  <rmsd>  (37) 
269.66

>  <cluster>  (37) 
10

$$$$
JFIDHXWBANSMLJ-ISVIKUIWNA-N
     RDKit          3D

 63 66  0  0  0  0  0  0  0  0999 V2000
  137.0860   73.1510  219.1560 H   0  0  0  0  0  0  0  0  0  0  0  0
  137.1100   72.3410  219.7620 O   0  0  0  0  0  0  0  0  0  0  0  0
  137.5110   72.3690  221.1000 C   0  0  0  0  0  0  0  0  0  0  0  0
  138.2700   71.4230  221.6080 N   0  0  0  0  0  0  0  0  0  0  0  0
  138.3220   70.0520  221.0970 C   0  0  0  0  0  0  0  0  0  0  0  0
  138.6228   70.0521  220.0389 H   0  0  0  0  0  0  0  0  0  0  0  0
  137.3374   69.5659  221.1624 H   0  0  0  0  0  0  0  0  0  0  0  0
  139.3580   69.3140  221.9390 C   0  0  2  0  0  0  0  0  0  0  0  0
  140.2894   69.1384  221.3808 H   0  0  0  0  0  0  0  0  0  0  0  0
  138.8770   68.0510  222.3140 O   0  0  0  0  0  0  0  0  0  0  0  0
  139.6420   67.4190  222.2190 H   0  0  0  0  0  0  0  0  0  0  0  0
  139.6080   70.1980  223.1600 C   0  0  0  0  0  0  0  0  0  0  0  0
  140.6759   70.1948  223.4238 H   0  0  0  0  0  0  0  0  0  0  0  0
  139.0570   69.8384  224.0415 H   0  0  0  0  0  0  0  0  0  0  0  0
  139.1630   71.6060  222.7500 C   0  0  1  0  0  0  0  0  0  0  0  0
  138.6681   72.1227  223.5855 H   0  0  0  0  0  0  0  0  0  0  0  0
  140.3440   72.4510  222.3470 C   0  0  0  0  0  0  0  0  0  0  0  0
  140.2390   73.7140  222.3480 O   0  0  0  0  0  0  0  0  0  0  0  0
  141.5750   71.8200  221.9590 N   0  0  0  0  0  0  0  0  0  0  0  0
  142.1370   71.8960  220.6100 C   0  0  2  0  0  0  0  0  0  0  0  0
  143.0793   71.3286  220.5948 H   0  0  0  0  0  0  0  0  0  0  0  0
  142.4390   73.3450  220.2430 C   0  0  0  0  0  0  0  0  0  0  0  0
  141.3720   74.1650  219.8210 C   0  0  0  0  0  0  0  0  0  0  0  0
  140.3645   73.7356  219.7182 H   0  0  0  0  0  0  0  0  0  0  0  0
  141.5790   75.5160  219.5320 C   0  0  0  0  0  0  0  0  0  0  0  0
  140.7290   76.1427  219.2241 H   0  0  0  0  0  0  0  0  0  0  0  0
  142.8580   76.0820  219.6300 C   0  0  0  0  0  0  0  0  0  0  0  0
  143.0180   77.4420  219.3090 O   0  0  0  0  0  0  0  0  0  0  0  0
  142.5710   78.0390  218.0910 C   0  0  0  0  0  0  0  0  0  0  0  0
  141.9261   78.9003  218.3199 H   0  0  0  0  0  0  0  0  0  0  0  0
  143.4402   78.3766  217.5075 H   0  0  0  0  0  0  0  0  0  0  0  0
  142.0023   77.3000  217.5075 H   0  0  0  0  0  0  0  0  0  0  0  0
  143.9320   75.2770  220.0530 C   0  0  0  0  0  0  0  0  0  0  0  0
  144.9389   75.7123  220.1354 H   0  0  0  0  0  0  0  0  0  0  0  0
  143.7320   73.9240  220.3710 C   0  0  0  0  0  0  0  0  0  0  0  0
  145.1380   73.0190  220.9410 Cl  0  0  0  0  0  0  0  0  0  0  0  0
  141.1860   71.2590  219.5820 C   0  0  0  0  0  0  0  0  0  0  0  0
  140.3836   70.7215  220.1086 H   0  0  0  0  0  0  0  0  0  0  0  0
  140.7474   72.0462  218.9512 H   0  0  0  0  0  0  0  0  0  0  0  0
  141.7471   70.5538  218.9512 H   0  0  0  0  0  0  0  0  0  0  0  0
  136.9720   73.4960  221.9410 C   0  0  0  0  0  0  0  0  0  0  0  0
  136.0408   73.8728  221.4929 H   0  0  0  0  0  0  0  0  0  0  0  0
  136.7715   73.1265  222.9575 H   0  0  0  0  0  0  0  0  0  0  0  0
  137.9540   74.5810  222.0060 N   0  0  0  0  0  0  0  0  0  0  0  0
  138.4220   74.7790  222.9220 H   0  0  0  0  0  0  0  0  0  0  0  0
  138.2130   75.4460  220.8840 C   0  0  0  0  0  0  0  0  0  0  0  0
  137.7310   75.1730  219.7470 O   0  0  0  0  0  0  0  0  0  0  0  0
  139.0460   76.6510  221.0530 C   0  0  0  0  0  0  0  0  0  0  0  0
  139.8920   76.7450  222.1200 N   0  0  0  0  0  0  0  0  0  0  0  0
  140.6470   77.8540  222.3420 C   0  0  0  0  0  0  0  0  0  0  0  0
  141.4520   77.9370  223.4870 C   0  0  0  0  0  0  0  0  0  0  0  0
  141.4835   77.0991  224.1990 H   0  0  0  0  0  0  0  0  0  0  0  0
  142.2150   79.0850  223.7240 C   0  0  0  0  0  0  0  0  0  0  0  0
  142.8518   79.1464  224.6188 H   0  0  0  0  0  0  0  0  0  0  0  0
  142.1690   80.1580  222.8220 C   0  0  0  0  0  0  0  0  0  0  0  0
  142.8950   81.2780  223.0690 F   0  0  0  0  0  0  0  0  0  0  0  0
  141.3580   80.0910  221.6830 C   0  0  0  0  0  0  0  0  0  0  0  0
  141.3261   80.9356  220.9789 H   0  0  0  0  0  0  0  0  0  0  0  0
  140.5860   78.9450  221.4410 C   0  0  0  0  0  0  0  0  0  0  0  0
  139.7300   78.8650  220.3350 C   0  0  0  0  0  0  0  0  0  0  0  0
  139.6712   79.6997  219.6210 H   0  0  0  0  0  0  0  0  0  0  0  0
  138.9510   77.7210  220.1420 C   0  0  0  0  0  0  0  0  0  0  0  0
  138.2670   77.6565  219.2829 H   0  0  0  0  0  0  0  0  0  0  0  0
  1  2  1  0
  2  3  1  0
  3  4  2  0
  4  5  1  0
  5  6  1  0
  5  7  1  0
  5  8  1  0
  8  9  1  6
  8 10  1  0
 10 11  1  0
  8 12  1  0
 12 13  1  0
 12 14  1  0
 12 15  1  0
 15 16  1  1
 15 17  1  0
 17 18  2  0
 17 19  1  0
 19 20  1  0
 20 21  1  1
 20 22  1  0
 22 23  2  0
 23 24  1  0
 23 25  1  0
 25 26  1  0
 25 27  2  0
 27 28  1  0
 28 29  1  0
 29 30  1  0
 29 31  1  0
 29 32  1  0
 27 33  1  0
 33 34  1  0
 33 35  2  0
 35 36  1  0
 20 37  1  0
 37 38  1  0
 37 39  1  0
 37 40  1  0
  3 41  1  0
 41 42  1  0
 41 43  1  0
 41 44  1  0
 44 45  1  0
 44 46  1  0
 46 47  2  0
 46 48  1  0
 48 49  2  0
 49 50  1  0
 50 51  2  0
 51 52  1  0
 51 53  1  0
 53 54  1  0
 53 55  2  0
 55 56  1  0
 55 57  1  0
 57 58  1  0
 57 59  2  0
 59 60  1  0
 60 61  1  0
 60 62  2  0
 62 63  1  0
 15  4  1  0
 35 22  1  0
 62 48  1  0
 59 50  1  0
M  CHG  2   4   1  19  -1
M  END
>  <UniqueID>  (38) 
2

>  <SMILES>  (38) 
COc1ccc([C@H](C)[N-]C(=O)[C@@H]2C[C@@H](O)C/[N+]2=C(/O)CNC(=O)c2ccc3cc(F)ccc3n2)c(Cl)c1

>  <Energy>  (38) 
63.291865297288076

>  <Genealogy>  (38) 
COc1ccc([C@H](C)[N-]C(=O)[C@@H]2C[C@@H](O)C[NH+]2C(=O)CNC(=O)c2ccc3cc(F)ccc3n2)c(Cl)c1 (protonated)
COc1ccc([C@H](C)[N-]C(=O)[C@@H]2C[C@@H](O)C[N+]2=C(O)CNC(=O)c2ccc3cc(F)ccc3n2)c(Cl)c1 (tautomer)
COc1ccc([C@H](C)[N-]C(=O)[C@@H]2C[C@@H](O)C/[N+]2=C(/O)CNC(=O)c2ccc3cc(F)ccc3n2)c(Cl)c1 (cis-trans isomerization)
COc1ccc([C@H](C)[N-]C(=O)[C@@H]2C[C@@H](O)C/[N+]2=C(/O)CNC(=O)c2ccc3cc(F)ccc3n2)c(Cl)c1 (3D coordinates assigned)
COc1ccc([C@H](C)[N-]C(=O)[C@@H]2C[C@@H](O)C/[N+]2=C(/O)CNC(=O)c2ccc3cc(F)ccc3n2)c(Cl)c1 (nonaromatic ring conformer: 63.291865297288076 kcal/mol)

>  <smiles>  (38) 
COc1ccc([C@H](C)NC(=O)[C@@H]2C[C@@H](O)CN2C(=O)CNC(=O)c2ccc3cc(F)ccc3n2)c(Cl)c1

>  <score_type>  (38) 
oracle

>  <origin>  (38) 
autodockgpu

>  <m_score__min__energy>  (38) 
-7.9500000000000002

>  <m_primary>  (38) 
energy

>  <meeko>  (38) 
{"free_energy": -5.3, "intermolecular_energy": -8.58, "internal_energy": -4.93, "cluster_size": 3, "cluster_id": 10, "rank_in_cluster": 3}

>  <energy>  (38) 
-5.39

>  <cluster_rmsd>  (38) 
0.17

>  <rmsd>  (38) 
269.67

>  <cluster>  (38) 
10

$$$$
JFIDHXWBANSMLJ-ISVIKUIWNA-N
     RDKit          3D

 63 66  0  0  0  0  0  0  0  0999 V2000
  136.6010   73.5420  223.8650 H   0  0  0  0  0  0  0  0  0  0  0  0
  136.6940   72.8450  223.1380 O   0  0  0  0  0  0  0  0  0  0  0  0
  137.2700   73.0830  221.8870 C   0  0  0  0  0  0  0  0  0  0  0  0
  138.3930   72.5020  221.5270 N   0  0  0  0  0  0  0  0  0  0  0  0
  138.4720   71.3850  220.5860 C   0  0  0  0  0  0  0  0  0  0  0  0
  138.0355   71.6724  219.6181 H   0  0  0  0  0  0  0  0  0  0  0  0
  137.9133   70.5131  220.9570 H   0  0  0  0  0  0  0  0  0  0  0  0
  139.9530   71.0600  220.4200 C   0  0  2  0  0  0  0  0  0  0  0  0
  140.3382   71.3935  219.4451 H   0  0  0  0  0  0  0  0  0  0  0  0
  140.1620   69.6740  220.4740 O   0  0  0  0  0  0  0  0  0  0  0  0
  140.9630   69.4880  219.9090 H   0  0  0  0  0  0  0  0  0  0  0  0
  140.6670   71.7750  221.5660 C   0  0  0  0  0  0  0  0  0  0  0  0
  141.6192   72.2019  221.2180 H   0  0  0  0  0  0  0  0  0  0  0  0
  140.9048   71.0858  222.3897 H   0  0  0  0  0  0  0  0  0  0  0  0
  139.7150   72.8880  222.0160 C   0  0  1  0  0  0  0  0  0  0  0  0
  139.7349   73.0062  223.1095 H   0  0  0  0  0  0  0  0  0  0  0  0
  140.1140   74.2150  221.4210 C   0  0  0  0  0  0  0  0  0  0  0  0
  140.9610   74.9410  222.0220 O   0  0  0  0  0  0  0  0  0  0  0  0
  139.5290   74.6460  220.1820 N   0  0  0  0  0  0  0  0  0  0  0  0
  140.2980   75.2260  219.0800 C   0  0  2  0  0  0  0  0  0  0  0  0
  141.2888   74.7486  219.0611 H   0  0  0  0  0  0  0  0  0  0  0  0
  140.4860   76.7240  219.2960 C   0  0  0  0  0  0  0  0  0  0  0  0
  139.3380   77.5380  219.3750 C   0  0  0  0  0  0  0  0  0  0  0  0
  138.3435   77.0902  219.2318 H   0  0  0  0  0  0  0  0  0  0  0  0
  139.4480   78.9070  219.6330 C   0  0  0  0  0  0  0  0  0  0  0  0
  138.5383   79.5206  219.7098 H   0  0  0  0  0  0  0  0  0  0  0  0
  140.7040   79.5070  219.7950 C   0  0  0  0  0  0  0  0  0  0  0  0
  140.7620   80.8920  220.0350 O   0  0  0  0  0  0  0  0  0  0  0  0
  141.3700   81.8360  219.1510 C   0  0  0  0  0  0  0  0  0  0  0  0
  141.8734   82.6175  219.7391 H   0  0  0  0  0  0  0  0  0  0  0  0
  142.1074   81.3222  218.5168 H   0  0  0  0  0  0  0  0  0  0  0  0
  140.5972   82.2949  218.5168 H   0  0  0  0  0  0  0  0  0  0  0  0
  141.8600   78.7060  219.7230 C   0  0  0  0  0  0  0  0  0  0  0  0
  142.8505   79.1667  219.8521 H   0  0  0  0  0  0  0  0  0  0  0  0
  141.7610   77.3250  219.4880 C   0  0  0  0  0  0  0  0  0  0  0  0
  143.2700   76.4070  219.4680 Cl  0  0  0  0  0  0  0  0  0  0  0  0
  139.6160   74.9510  217.7280 C   0  0  0  0  0  0  0  0  0  0  0  0
  138.6086   74.5448  217.9014 H   0  0  0  0  0  0  0  0  0  0  0  0
  139.5401   75.8888  217.1581 H   0  0  0  0  0  0  0  0  0  0  0  0
  140.2119   74.2229  217.1581 H   0  0  0  0  0  0  0  0  0  0  0  0
  136.5760   74.0910  221.0080 C   0  0  0  0  0  0  0  0  0  0  0  0
  136.6790   73.7897  219.9551 H   0  0  0  0  0  0  0  0  0  0  0  0
  135.5106   74.1360  221.2779 H   0  0  0  0  0  0  0  0  0  0  0  0
  137.1790   75.4120  221.1970 N   0  0  0  0  0  0  0  0  0  0  0  0
  137.7250   75.8320  220.4070 H   0  0  0  0  0  0  0  0  0  0  0  0
  137.1370   76.0980  222.4630 C   0  0  0  0  0  0  0  0  0  0  0  0
  136.4120   75.6560  223.4010 O   0  0  0  0  0  0  0  0  0  0  0  0
  137.9340   77.3220  222.6710 C   0  0  0  0  0  0  0  0  0  0  0  0
  139.2960   77.2420  222.7230 N   0  0  0  0  0  0  0  0  0  0  0  0
  140.0710   78.3350  222.9560 C   0  0  0  0  0  0  0  0  0  0  0  0
  141.4610   78.1990  223.0690 C   0  0  0  0  0  0  0  0  0  0  0  0
  141.9276   77.2095  222.9546 H   0  0  0  0  0  0  0  0  0  0  0  0
  142.2550   79.3200  223.3270 C   0  0  0  0  0  0  0  0  0  0  0  0
  143.3467   79.2126  223.4086 H   0  0  0  0  0  0  0  0  0  0  0  0
  141.6620   80.5820  223.4820 C   0  0  0  0  0  0  0  0  0  0  0  0
  142.4360   81.6630  223.7530 F   0  0  0  0  0  0  0  0  0  0  0  0
  140.2730   80.7270  223.3850 C   0  0  0  0  0  0  0  0  0  0  0  0
  139.8126   81.7184  223.5076 H   0  0  0  0  0  0  0  0  0  0  0  0
  139.4690   79.6050  223.1310 C   0  0  0  0  0  0  0  0  0  0  0  0
  138.0730   79.7100  223.0730 C   0  0  0  0  0  0  0  0  0  0  0  0
  137.5867   80.6883  223.2016 H   0  0  0  0  0  0  0  0  0  0  0  0
  137.3010   78.5660  222.8510 C   0  0  0  0  0  0  0  0  0  0  0  0
  136.2039   78.6378  222.8171 H   0  0  0  0  0  0  0  0  0  0  0  0
  1  2  1  0
  2  3  1  0
  3  4  2  0
  4  5  1  0
  5  6  1  0
  5  7  1  0
  5  8  1  0
  8  9  1  6
  8 10  1  0
 10 11  1  0
  8 12  1  0
 12 13  1  0
 12 14  1  0
 12 15  1  0
 15 16  1  1
 15 17  1  0
 17 18  2  0
 17 19  1  0
 19 20  1  0
 20 21  1  6
 20 22  1  0
 22 23  2  0
 23 24  1  0
 23 25  1  0
 25 26  1  0
 25 27  2  0
 27 28  1  0
 28 29  1  0
 29 30  1  0
 29 31  1  0
 29 32  1  0
 27 33  1  0
 33 34  1  0
 33 35  2  0
 35 36  1  0
 20 37  1  0
 37 38  1  0
 37 39  1  0
 37 40  1  0
  3 41  1  0
 41 42  1  0
 41 43  1  0
 41 44  1  0
 44 45  1  0
 44 46  1  0
 46 47  2  0
 46 48  1  0
 48 49  2  0
 49 50  1  0
 50 51  2  0
 51 52  1  0
 51 53  1  0
 53 54  1  0
 53 55  2  0
 55 56  1  0
 55 57  1  0
 57 58  1  0
 57 59  2  0
 59 60  1  0
 60 61  1  0
 60 62  2  0
 62 63  1  0
 15  4  1  0
 35 22  1  0
 62 48  1  0
 59 50  1  0
M  CHG  2   4   1  19  -1
M  END
>  <UniqueID>  (39) 
2

>  <SMILES>  (39) 
COc1ccc([C@H](C)[N-]C(=O)[C@@H]2C[C@@H](O)C/[N+]2=C(/O)CNC(=O)c2ccc3cc(F)ccc3n2)c(Cl)c1

>  <Energy>  (39) 
63.291865297288076

>  <Genealogy>  (39) 
COc1ccc([C@H](C)[N-]C(=O)[C@@H]2C[C@@H](O)C[NH+]2C(=O)CNC(=O)c2ccc3cc(F)ccc3n2)c(Cl)c1 (protonated)
COc1ccc([C@H](C)[N-]C(=O)[C@@H]2C[C@@H](O)C[N+]2=C(O)CNC(=O)c2ccc3cc(F)ccc3n2)c(Cl)c1 (tautomer)
COc1ccc([C@H](C)[N-]C(=O)[C@@H]2C[C@@H](O)C/[N+]2=C(/O)CNC(=O)c2ccc3cc(F)ccc3n2)c(Cl)c1 (cis-trans isomerization)
COc1ccc([C@H](C)[N-]C(=O)[C@@H]2C[C@@H](O)C/[N+]2=C(/O)CNC(=O)c2ccc3cc(F)ccc3n2)c(Cl)c1 (3D coordinates assigned)
COc1ccc([C@H](C)[N-]C(=O)[C@@H]2C[C@@H](O)C/[N+]2=C(/O)CNC(=O)c2ccc3cc(F)ccc3n2)c(Cl)c1 (nonaromatic ring conformer: 63.291865297288076 kcal/mol)

>  <smiles>  (39) 
COc1ccc([C@H](C)NC(=O)[C@@H]2C[C@@H](O)CN2C(=O)CNC(=O)c2ccc3cc(F)ccc3n2)c(Cl)c1

>  <score_type>  (39) 
oracle

>  <origin>  (39) 
autodockgpu

>  <m_score__min__energy>  (39) 
-7.9500000000000002

>  <m_primary>  (39) 
energy

>  <meeko>  (39) 
{"free_energy": -4.44, "intermolecular_energy": -7.72, "internal_energy": -5.75, "cluster_size": 1, "cluster_id": 11, "rank_in_cluster": 1}

>  <energy>  (39) 
-5.3

>  <cluster_rmsd>  (39) 
0.51

>  <rmsd>  (39) 
269.71

>  <cluster>  (39) 
10

$$$$
JFIDHXWBANSMLJ-ISVIKUIWNA-N
     RDKit          3D

 63 66  0  0  0  0  0  0  0  0999 V2000
  136.5210   73.0510  219.5160 H   0  0  0  0  0  0  0  0  0  0  0  0
  136.6100   72.2380  220.1130 O   0  0  0  0  0  0  0  0  0  0  0  0
  137.2580   72.2360  221.3500 C   0  0  0  0  0  0  0  0  0  0  0  0
  138.0670   71.2600  221.6990 N   0  0  0  0  0  0  0  0  0  0  0  0
  138.0270   69.9170  221.1190 C   0  0  0  0  0  0  0  0  0  0  0  0
  138.1759   69.9689  220.0304 H   0  0  0  0  0  0  0  0  0  0  0  0
  137.0545   69.4354  221.2988 H   0  0  0  0  0  0  0  0  0  0  0  0
  139.1610   69.1290  221.7690 C   0  0  2  0  0  0  0  0  0  0  0  0
  140.0020   68.9743  221.0771 H   0  0  0  0  0  0  0  0  0  0  0  0
  138.7190   67.8520  222.1460 O   0  0  0  0  0  0  0  0  0  0  0  0
  139.5320   67.2760  222.1940 H   0  0  0  0  0  0  0  0  0  0  0  0
  139.5930   69.9490  222.9840 C   0  0  0  0  0  0  0  0  0  0  0  0
  140.6873   69.9250  223.0935 H   0  0  0  0  0  0  0  0  0  0  0  0
  139.1665   69.5494  223.9159 H   0  0  0  0  0  0  0  0  0  0  0  0
  139.1150   71.3780  222.7110 C   0  0  1  0  0  0  0  0  0  0  0  0
  138.7503   71.8550  223.6327 H   0  0  0  0  0  0  0  0  0  0  0  0
  140.2400   72.2340  222.1860 C   0  0  0  0  0  0  0  0  0  0  0  0
  140.4340   73.3840  222.6810 O   0  0  0  0  0  0  0  0  0  0  0  0
  141.0770   71.7420  221.1270 N   0  0  0  0  0  0  0  0  0  0  0  0
  142.5010   72.0580  221.0060 C   0  0  2  0  0  0  0  0  0  0  0  0
  142.9543   72.0018  222.0067 H   0  0  0  0  0  0  0  0  0  0  0  0
  142.6870   73.4730  220.4720 C   0  0  0  0  0  0  0  0  0  0  0  0
  141.5510   74.1660  220.0030 C   0  0  0  0  0  0  0  0  0  0  0  0
  140.5742   73.6603  219.9867 H   0  0  0  0  0  0  0  0  0  0  0  0
  141.6520   75.4870  219.5590 C   0  0  0  0  0  0  0  0  0  0  0  0
  140.7503   76.0152  219.2155 H   0  0  0  0  0  0  0  0  0  0  0  0
  142.8880   76.1470  219.5460 C   0  0  0  0  0  0  0  0  0  0  0  0
  142.9400   77.4700  219.0720 O   0  0  0  0  0  0  0  0  0  0  0  0
  142.5710   77.8660  217.7500 C   0  0  0  0  0  0  0  0  0  0  0  0
  141.8220   78.6698  217.8036 H   0  0  0  0  0  0  0  0  0  0  0  0
  143.4605   78.2289  217.2142 H   0  0  0  0  0  0  0  0  0  0  0  0
  142.1464   77.0043  217.2142 H   0  0  0  0  0  0  0  0  0  0  0  0
  144.0310   75.4690  220.0150 C   0  0  0  0  0  0  0  0  0  0  0  0
  145.0058   75.9786  220.0119 H   0  0  0  0  0  0  0  0  0  0  0  0
  143.9380   74.1500  220.4860 C   0  0  0  0  0  0  0  0  0  0  0  0
  145.4220   73.4130  221.0980 Cl  0  0  0  0  0  0  0  0  0  0  0  0
  143.2160   71.0350  220.1060 C   0  0  0  0  0  0  0  0  0  0  0  0
  143.7339   70.2941  220.7327 H   0  0  0  0  0  0  0  0  0  0  0  0
  142.4765   70.5253  219.4709 H   0  0  0  0  0  0  0  0  0  0  0  0
  143.9488   71.5543  219.4709 H   0  0  0  0  0  0  0  0  0  0  0  0
  136.9270   73.3690  222.2860 C   0  0  0  0  0  0  0  0  0  0  0  0
  135.9492   73.7933  222.0142 H   0  0  0  0  0  0  0  0  0  0  0  0
  136.8926   72.9892  223.3178 H   0  0  0  0  0  0  0  0  0  0  0  0
  137.9530   74.4100  222.1880 N   0  0  0  0  0  0  0  0  0  0  0  0
  138.5690   74.5860  223.0170 H   0  0  0  0  0  0  0  0  0  0  0  0
  138.0650   75.2650  221.0350 C   0  0  0  0  0  0  0  0  0  0  0  0
  137.3960   75.0160  219.9910 O   0  0  0  0  0  0  0  0  0  0  0  0
  138.9660   76.4330  221.0630 C   0  0  0  0  0  0  0  0  0  0  0  0
  139.7970   76.6220  222.1300 N   0  0  0  0  0  0  0  0  0  0  0  0
  140.6130   77.7060  222.2210 C   0  0  0  0  0  0  0  0  0  0  0  0
  141.4000   77.8970  223.3650 C   0  0  0  0  0  0  0  0  0  0  0  0
  141.3679   77.1628  224.1835 H   0  0  0  0  0  0  0  0  0  0  0  0
  142.2260   79.0210  223.4660 C   0  0  0  0  0  0  0  0  0  0  0  0
  142.8492   79.1659  224.3608 H   0  0  0  0  0  0  0  0  0  0  0  0
  142.2610   79.9640  222.4280 C   0  0  0  0  0  0  0  0  0  0  0  0
  143.0480   81.0630  222.5420 F   0  0  0  0  0  0  0  0  0  0  0  0
  141.4680   79.7900  221.2880 C   0  0  0  0  0  0  0  0  0  0  0  0
  141.4991   80.5324  220.4769 H   0  0  0  0  0  0  0  0  0  0  0  0
  140.6330   78.6670  221.1810 C   0  0  0  0  0  0  0  0  0  0  0  0
  139.7940   78.4870  220.0730 C   0  0  0  0  0  0  0  0  0  0  0  0
  139.7990   79.2191  219.2520 H   0  0  0  0  0  0  0  0  0  0  0  0
  138.9510   77.3740  220.0150 C   0  0  0  0  0  0  0  0  0  0  0  0
  138.2792   77.2335  219.1554 H   0  0  0  0  0  0  0  0  0  0  0  0
  1  2  1  0
  2  3  1  0
  3  4  2  0
  4  5  1  0
  5  6  1  0
  5  7  1  0
  5  8  1  0
  8  9  1  6
  8 10  1  0
 10 11  1  0
  8 12  1  0
 12 13  1  0
 12 14  1  0
 12 15  1  0
 15 16  1  1
 15 17  1  0
 17 18  2  0
 17 19  1  0
 19 20  1  0
 20 21  1  1
 20 22  1  0
 22 23  2  0
 23 24  1  0
 23 25  1  0
 25 26  1  0
 25 27  2  0
 27 28  1  0
 28 29  1  0
 29 30  1  0
 29 31  1  0
 29 32  1  0
 27 33  1  0
 33 34  1  0
 33 35  2  0
 35 36  1  0
 20 37  1  0
 37 38  1  0
 37 39  1  0
 37 40  1  0
  3 41  1  0
 41 42  1  0
 41 43  1  0
 41 44  1  0
 44 45  1  0
 44 46  1  0
 46 47  2  0
 46 48  1  0
 48 49  2  0
 49 50  1  0
 50 51  2  0
 51 52  1  0
 51 53  1  0
 53 54  1  0
 53 55  2  0
 55 56  1  0
 55 57  1  0
 57 58  1  0
 57 59  2  0
 59 60  1  0
 60 61  1  0
 60 62  2  0
 62 63  1  0
 15  4  1  0
 35 22  1  0
 62 48  1  0
 59 50  1  0
M  CHG  2   4   1  19  -1
M  END
>  <UniqueID>  (40) 
2

>  <SMILES>  (40) 
COc1ccc([C@H](C)[N-]C(=O)[C@@H]2C[C@@H](O)C/[N+]2=C(/O)CNC(=O)c2ccc3cc(F)ccc3n2)c(Cl)c1

>  <Energy>  (40) 
63.291865297288076

>  <Genealogy>  (40) 
COc1ccc([C@H](C)[N-]C(=O)[C@@H]2C[C@@H](O)C[NH+]2C(=O)CNC(=O)c2ccc3cc(F)ccc3n2)c(Cl)c1 (protonated)
COc1ccc([C@H](C)[N-]C(=O)[C@@H]2C[C@@H](O)C[N+]2=C(O)CNC(=O)c2ccc3cc(F)ccc3n2)c(Cl)c1 (tautomer)
COc1ccc([C@H](C)[N-]C(=O)[C@@H]2C[C@@H](O)C/[N+]2=C(/O)CNC(=O)c2ccc3cc(F)ccc3n2)c(Cl)c1 (cis-trans isomerization)
COc1ccc([C@H](C)[N-]C(=O)[C@@H]2C[C@@H](O)C/[N+]2=C(/O)CNC(=O)c2ccc3cc(F)ccc3n2)c(Cl)c1 (3D coordinates assigned)
COc1ccc([C@H](C)[N-]C(=O)[C@@H]2C[C@@H](O)C/[N+]2=C(/O)CNC(=O)c2ccc3cc(F)ccc3n2)c(Cl)c1 (nonaromatic ring conformer: 63.291865297288076 kcal/mol)

>  <smiles>  (40) 
COc1ccc([C@H](C)NC(=O)[C@@H]2C[C@@H](O)CN2C(=O)CNC(=O)c2ccc3cc(F)ccc3n2)c(Cl)c1

>  <score_type>  (40) 
oracle

>  <origin>  (40) 
autodockgpu

>  <m_score__min__energy>  (40) 
-7.9500000000000002

>  <m_primary>  (40) 
energy

>  <meeko>  (40) 
{"free_energy": -5.39, "intermolecular_energy": -8.67, "internal_energy": -4.91, "cluster_size": 3, "cluster_id": 10, "rank_in_cluster": 2}

>  <energy>  (40) 
-4.44

>  <cluster_rmsd>  (40) 
0.0

>  <rmsd>  (40) 
269.86

>  <cluster>  (40) 
11

$$$$
PMUWBFKMLGLUTF-QDRFXLRBNA-N
     RDKit          3D

 63 66  0  0  0  0  0  0  0  0999 V2000
  143.0540   82.0530  217.2590 C   0  0  0  0  0  0  0  0  0  0  0  0
  142.2370   82.4960  218.3380 O   0  0  0  0  0  0  0  0  0  0  0  0
  141.8350   81.6870  219.4120 C   0  0  0  0  0  0  0  0  0  0  0  0
  141.2800   82.2160  220.5870 C   0  0  0  0  0  0  0  0  0  0  0  0
  140.9000   81.3700  221.6300 C   0  0  0  0  0  0  0  0  0  0  0  0
  141.0660   79.9750  221.5290 C   0  0  0  0  0  0  0  0  0  0  0  0
  140.6240   79.1070  222.6980 C   0  0  2  0  0  0  0  0  0  0  0  0
  141.8070   78.6250  223.5470 C   0  0  0  0  0  0  0  0  0  0  0  0
  139.8050   77.9830  222.2310 N   0  0  0  0  0  0  0  0  0  0  0  0
  138.4820   78.1970  221.7120 C   0  0  0  0  0  0  0  0  0  0  0  0
  138.0550   79.3710  221.5450 O   0  0  0  0  0  0  0  0  0  0  0  0
  137.5490   77.0430  221.4490 C   0  0  2  0  0  0  0  0  0  0  0  0
  136.0930   77.4360  221.7180 C   0  0  0  0  0  0  0  0  0  0  0  0
  135.7170   76.7500  223.0360 C   0  0  1  0  0  0  0  0  0  0  0  0
  134.3780   76.3190  223.0530 O   0  0  0  0  0  0  0  0  0  0  0  0
  136.7040   75.5940  223.2000 C   0  0  0  0  0  0  0  0  0  0  0  0
  137.8230   75.9130  222.3300 N   0  0  0  0  0  0  0  0  0  0  0  0
  138.8890   74.9760  222.1010 C   0  0  0  0  0  0  0  0  0  0  0  0
  140.0850   75.3730  222.1180 O   0  0  0  0  0  0  0  0  0  0  0  0
  138.6000   73.5390  221.7820 C   0  0  0  0  0  0  0  0  0  0  0  0
  139.2760   72.6320  222.7050 N   0  0  0  0  0  0  0  0  0  0  0  0
  139.0600   71.2160  222.6220 C   0  0  0  0  0  0  0  0  0  0  0  0
  138.6030   70.7170  221.5570 O   0  0  0  0  0  0  0  0  0  0  0  0
  139.3460   70.3460  223.7790 C   0  0  0  0  0  0  0  0  0  0  0  0
  138.9700   68.9900  223.7780 C   0  0  0  0  0  0  0  0  0  0  0  0
  139.2130   68.2030  224.9050 C   0  0  0  0  0  0  0  0  0  0  0  0
  139.8320   68.7660  226.0270 C   0  0  0  0  0  0  0  0  0  0  0  0
  140.0880   68.0070  227.1790 C   0  0  0  0  0  0  0  0  0  0  0  0
  140.7050   68.6020  228.2860 C   0  0  0  0  0  0  0  0  0  0  0  0
  140.9530   67.8670  229.3980 F   0  0  0  0  0  0  0  0  0  0  0  0
  141.0690   69.9530  228.2470 C   0  0  0  0  0  0  0  0  0  0  0  0
  140.8170   70.7180  227.1030 C   0  0  0  0  0  0  0  0  0  0  0  0
  140.2020   70.1300  225.9920 C   0  0  0  0  0  0  0  0  0  0  0  0
  139.9520   70.8710  224.8800 N   0  0  0  0  0  0  0  0  0  0  0  0
  141.6200   79.4430  220.3370 C   0  0  0  0  0  0  0  0  0  0  0  0
  141.8620   77.7170  220.0810 Cl  0  0  0  0  0  0  0  0  0  0  0  0
  141.9950   80.3040  219.2970 C   0  0  0  0  0  0  0  0  0  0  0  0
  143.9551   81.5644  217.6580 H   0  0  0  0  0  0  0  0  0  0  0  0
  142.4909   81.3367  216.6428 H   0  0  0  0  0  0  0  0  0  0  0  0
  143.3471   82.9158  216.6428 H   0  0  0  0  0  0  0  0  0  0  0  0
  141.1437   83.3030  220.6867 H   0  0  0  0  0  0  0  0  0  0  0  0
  140.4644   81.7991  222.5444 H   0  0  0  0  0  0  0  0  0  0  0  0
  140.0039   79.7351  223.3545 H   0  0  0  0  0  0  0  0  0  0  0  0
  141.5582   78.7264  224.6137 H   0  0  0  0  0  0  0  0  0  0  0  0
  142.0167   77.5697  223.3181 H   0  0  0  0  0  0  0  0  0  0  0  0
  142.6945   79.2332  223.3181 H   0  0  0  0  0  0  0  0  0  0  0  0
  140.1540   77.0040  222.3450 H   0  0  0  0  0  0  0  0  0  0  0  0
  137.7075   76.7695  220.3954 H   0  0  0  0  0  0  0  0  0  0  0  0
  136.0016   78.5280  221.8139 H   0  0  0  0  0  0  0  0  0  0  0  0
  135.4301   77.1284  220.8958 H   0  0  0  0  0  0  0  0  0  0  0  0
  135.7865   77.4513  223.8806 H   0  0  0  0  0  0  0  0  0  0  0  0
  133.9090   76.8050  223.7810 H   0  0  0  0  0  0  0  0  0  0  0  0
  137.0387   75.5195  224.2452 H   0  0  0  0  0  0  0  0  0  0  0  0
  136.2475   74.6275  222.9402 H   0  0  0  0  0  0  0  0  0  0  0  0
  137.5150   73.3709  221.8483 H   0  0  0  0  0  0  0  0  0  0  0  0
  138.9708   73.3329  220.7671 H   0  0  0  0  0  0  0  0  0  0  0  0
  139.8820   73.0140  223.4660 H   0  0  0  0  0  0  0  0  0  0  0  0
  138.4864   68.5518  222.8925 H   0  0  0  0  0  0  0  0  0  0  0  0
  138.9188   67.1431  224.9113 H   0  0  0  0  0  0  0  0  0  0  0  0
  139.8040   66.9448  227.2124 H   0  0  0  0  0  0  0  0  0  0  0  0
  141.5550   70.4150  229.1190 H   0  0  0  0  0  0  0  0  0  0  0  0
  141.1019   71.7801  227.0769 H   0  0  0  0  0  0  0  0  0  0  0  0
  142.4225   79.8839  218.3746 H   0  0  0  0  0  0  0  0  0  0  0  0
  1  2  1  0
  2  3  1  0
  3  4  2  0
  4  5  1  0
  5  6  2  0
  6  7  1  0
  7  8  1  0
  7  9  1  0
  9 10  1  0
 10 11  2  0
 10 12  1  0
 12 13  1  0
 13 14  1  0
 14 15  1  0
 14 16  1  0
 16 17  1  0
 17 18  1  0
 18 19  2  0
 18 20  1  0
 20 21  1  0
 21 22  1  0
 22 23  2  0
 22 24  1  0
 24 25  2  0
 25 26  1  0
 26 27  2  0
 27 28  1  0
 28 29  2  0
 29 30  1  0
 29 31  1  0
 31 32  2  0
 32 33  1  0
 33 34  2  0
  6 35  1  0
 35 36  1  0
 35 37  2  0
 37  3  1  0
 17 12  1  0
 34 24  1  0
 33 27  1  0
  1 38  1  0
  1 39  1  0
  1 40  1  0
  4 41  1  0
  5 42  1  0
  7 43  1  1
  8 44  1  0
  8 45  1  0
  8 46  1  0
  9 47  1  0
 12 48  1  6
 13 49  1  0
 13 50  1  0
 14 51  1  1
 15 52  1  0
 16 53  1  0
 16 54  1  0
 20 55  1  0
 20 56  1  0
 21 57  1  0
 25 58  1  0
 26 59  1  0
 28 60  1  0
 31 61  1  0
 32 62  1  0
 37 63  1  0
M  END
>  <UniqueID>  (41) 
3

>  <SMILES>  (41) 
COc1ccc([C@H](C)NC(=O)[C@@H]2C[C@@H](O)CN2C(=O)CNC(=O)c2ccc3cc(F)ccc3n2)c(Cl)c1

>  <Energy>  (41) 
63.932665242010444

>  <Genealogy>  (41) 
COc1ccc([C@H](C)NC(=O)[C@@H]2C[C@@H](O)CN2C(=O)CNC(=O)c2ccc3cc(F)ccc3n2)c(Cl)c1 (3D coordinates assigned)
COc1ccc([C@H](C)NC(=O)[C@@H]2C[C@@H](O)CN2C(=O)CNC(=O)c2ccc3cc(F)ccc3n2)c(Cl)c1 (nonaromatic ring conformer: 63.932665242010444 kcal/mol)

>  <smiles>  (41) 
COc1ccc([C@H](C)NC(=O)[C@@H]2C[C@@H](O)CN2C(=O)CNC(=O)c2ccc3cc(F)ccc3n2)c(Cl)c1

>  <score_type>  (41) 
oracle

>  <origin>  (41) 
autodockgpu

>  <m_score__min__energy>  (41) 
-9.4800000000000004

>  <m_primary>  (41) 
energy

>  <meeko>  (41) 
{"free_energy": -7.73, "intermolecular_energy": -10.41, "internal_energy": -2.74, "cluster_size": 2, "cluster_id": 4, "rank_in_cluster": 2}

>  <energy>  (41) 
-9.48

>  <cluster_rmsd>  (41) 
0.0

>  <rmsd>  (41) 
271.68

>  <cluster>  (41) 
1

$$$$
PMUWBFKMLGLUTF-QDRFXLRBNA-N
     RDKit          3D

 63 66  0  0  0  0  0  0  0  0999 V2000
  138.8800   81.8110  220.6500 C   0  0  0  0  0  0  0  0  0  0  0  0
  140.2640   81.6250  220.3770 O   0  0  0  0  0  0  0  0  0  0  0  0
  140.7960   80.5200  219.6950 C   0  0  0  0  0  0  0  0  0  0  0  0
  142.0920   80.5190  219.1550 C   0  0  0  0  0  0  0  0  0  0  0  0
  142.5730   79.3980  218.4800 C   0  0  0  0  0  0  0  0  0  0  0  0
  141.7760   78.2480  218.3220 C   0  0  0  0  0  0  0  0  0  0  0  0
  142.3630   77.0550  217.5820 C   0  0  2  0  0  0  0  0  0  0  0  0
  141.6350   76.7700  216.2620 C   0  0  0  0  0  0  0  0  0  0  0  0
  142.3930   75.8700  218.4460 N   0  0  0  0  0  0  0  0  0  0  0  0
  143.3260   75.7700  219.5340 C   0  0  0  0  0  0  0  0  0  0  0  0
  144.0550   76.7550  219.8290 O   0  0  0  0  0  0  0  0  0  0  0  0
  143.5250   74.4750  220.2780 C   0  0  2  0  0  0  0  0  0  0  0  0
  145.0140   74.1720  220.4750 C   0  0  0  0  0  0  0  0  0  0  0  0
  145.3390   73.0430  219.4920 C   0  0  1  0  0  0  0  0  0  0  0  0
  146.2870   72.1390  220.0070 O   0  0  0  0  0  0  0  0  0  0  0  0
  144.0050   72.3700  219.1730 C   0  0  0  0  0  0  0  0  0  0  0  0
  142.9850   73.3380  219.5400 N   0  0  0  0  0  0  0  0  0  0  0  0
  141.5870   73.0010  219.5240 C   0  0  0  0  0  0  0  0  0  0  0  0
  140.9520   73.0210  218.4360 O   0  0  0  0  0  0  0  0  0  0  0  0
  140.8540   72.6830  220.7930 C   0  0  0  0  0  0  0  0  0  0  0  0
  140.7510   73.8480  221.6680 N   0  0  0  0  0  0  0  0  0  0  0  0
  139.6490   74.7570  221.5400 C   0  0  0  0  0  0  0  0  0  0  0  0
  138.5940   74.3800  220.9590 O   0  0  0  0  0  0  0  0  0  0  0  0
  139.7480   76.1330  222.0640 C   0  0  0  0  0  0  0  0  0  0  0  0
  138.6310   76.7800  222.6220 C   0  0  0  0  0  0  0  0  0  0  0  0
  138.7440   78.0980  223.0660 C   0  0  0  0  0  0  0  0  0  0  0  0
  139.9690   78.7670  222.9580 C   0  0  0  0  0  0  0  0  0  0  0  0
  140.1190   80.0930  223.3900 C   0  0  0  0  0  0  0  0  0  0  0  0
  141.3560   80.7340  223.2630 C   0  0  0  0  0  0  0  0  0  0  0  0
  141.5000   82.0160  223.6820 F   0  0  0  0  0  0  0  0  0  0  0  0
  142.4480   80.0560  222.7070 C   0  0  0  0  0  0  0  0  0  0  0  0
  142.3060   78.7330  222.2730 C   0  0  0  0  0  0  0  0  0  0  0  0
  141.0730   78.0850  222.3980 C   0  0  0  0  0  0  0  0  0  0  0  0
  140.9320   76.8020  221.9730 N   0  0  0  0  0  0  0  0  0  0  0  0
  140.4710   78.2490  218.8750 C   0  0  0  0  0  0  0  0  0  0  0  0
  139.3820   76.8670  218.7620 Cl  0  0  0  0  0  0  0  0  0  0  0  0
  140.0000   79.3810  219.5530 C   0  0  0  0  0  0  0  0  0  0  0  0
  138.7206   81.8324  221.7382 H   0  0  0  0  0  0  0  0  0  0  0  0
  138.5444   82.7623  220.2114 H   0  0  0  0  0  0  0  0  0  0  0  0
  138.3051   80.9820  220.2114 H   0  0  0  0  0  0  0  0  0  0  0  0
  142.7312   81.4074  219.2651 H   0  0  0  0  0  0  0  0  0  0  0  0
  143.5913   79.4121  218.0642 H   0  0  0  0  0  0  0  0  0  0  0  0
  143.3988   77.3135  217.3169 H   0  0  0  0  0  0  0  0  0  0  0  0
  140.6301   76.3766  216.4750 H   0  0  0  0  0  0  0  0  0  0  0  0
  141.5490   77.7009  215.6823 H   0  0  0  0  0  0  0  0  0  0  0  0
  142.2039   76.0282  215.6823 H   0  0  0  0  0  0  0  0  0  0  0  0
  141.7790   75.0520  218.2260 H   0  0  0  0  0  0  0  0  0  0  0  0
  143.0066   74.6047  221.2395 H   0  0  0  0  0  0  0  0  0  0  0  0
  145.6198   75.0624  220.2509 H   0  0  0  0  0  0  0  0  0  0  0  0
  145.2366   73.8841  221.5131 H   0  0  0  0  0  0  0  0  0  0  0  0
  145.8094   73.4380  218.5795 H   0  0  0  0  0  0  0  0  0  0  0  0
  145.9870   71.8660  220.9140 H   0  0  0  0  0  0  0  0  0  0  0  0
  143.9411   72.1317  218.1010 H   0  0  0  0  0  0  0  0  0  0  0  0
  143.8845   71.4228  219.7192 H   0  0  0  0  0  0  0  0  0  0  0  0
  139.8408   72.3363  220.5414 H   0  0  0  0  0  0  0  0  0  0  0  0
  141.4180   71.9040  221.3269 H   0  0  0  0  0  0  0  0  0  0  0  0
  141.5090   74.0550  222.3570 H   0  0  0  0  0  0  0  0  0  0  0  0
  137.6716   76.2489  222.7081 H   0  0  0  0  0  0  0  0  0  0  0  0
  137.8726   78.6102  223.4999 H   0  0  0  0  0  0  0  0  0  0  0  0
  139.2642   80.6288  223.8285 H   0  0  0  0  0  0  0  0  0  0  0  0
  143.4189   80.5641  222.6112 H   0  0  0  0  0  0  0  0  0  0  0  0
  143.1640   78.2030  221.8337 H   0  0  0  0  0  0  0  0  0  0  0  0
  138.9865   79.3727  219.9806 H   0  0  0  0  0  0  0  0  0  0  0  0
  1  2  1  0
  2  3  1  0
  3  4  2  0
  4  5  1  0
  5  6  2  0
  6  7  1  0
  7  8  1  0
  7  9  1  0
  9 10  1  0
 10 11  2  0
 10 12  1  0
 12 13  1  0
 13 14  1  0
 14 15  1  0
 14 16  1  0
 16 17  1  0
 17 18  1  0
 18 19  2  0
 18 20  1  0
 20 21  1  0
 21 22  1  0
 22 23  2  0
 22 24  1  0
 24 25  2  0
 25 26  1  0
 26 27  2  0
 27 28  1  0
 28 29  2  0
 29 30  1  0
 29 31  1  0
 31 32  2  0
 32 33  1  0
 33 34  2  0
  6 35  1  0
 35 36  1  0
 35 37  2  0
 37  3  1  0
 17 12  1  0
 34 24  1  0
 33 27  1  0
  1 38  1  0
  1 39  1  0
  1 40  1  0
  4 41  1  0
  5 42  1  0
  7 43  1  6
  8 44  1  0
  8 45  1  0
  8 46  1  0
  9 47  1  0
 12 48  1  1
 13 49  1  0
 13 50  1  0
 14 51  1  6
 15 52  1  0
 16 53  1  0
 16 54  1  0
 20 55  1  0
 20 56  1  0
 21 57  1  0
 25 58  1  0
 26 59  1  0
 28 60  1  0
 31 61  1  0
 32 62  1  0
 37 63  1  0
M  END
>  <UniqueID>  (42) 
3

>  <SMILES>  (42) 
COc1ccc([C@H](C)NC(=O)[C@@H]2C[C@@H](O)CN2C(=O)CNC(=O)c2ccc3cc(F)ccc3n2)c(Cl)c1

>  <Energy>  (42) 
63.932665242010444

>  <Genealogy>  (42) 
COc1ccc([C@H](C)NC(=O)[C@@H]2C[C@@H](O)CN2C(=O)CNC(=O)c2ccc3cc(F)ccc3n2)c(Cl)c1 (3D coordinates assigned)
COc1ccc([C@H](C)NC(=O)[C@@H]2C[C@@H](O)CN2C(=O)CNC(=O)c2ccc3cc(F)ccc3n2)c(Cl)c1 (nonaromatic ring conformer: 63.932665242010444 kcal/mol)

>  <smiles>  (42) 
COc1ccc([C@H](C)NC(=O)[C@@H]2C[C@@H](O)CN2C(=O)CNC(=O)c2ccc3cc(F)ccc3n2)c(Cl)c1

>  <score_type>  (42) 
oracle

>  <origin>  (42) 
autodockgpu

>  <m_score__min__energy>  (42) 
-9.4800000000000004

>  <m_primary>  (42) 
energy

>  <meeko>  (42) 
{"free_energy": -5.96, "intermolecular_energy": -8.65, "internal_energy": -5.02, "cluster_size": 10, "cluster_id": 7, "rank_in_cluster": 2}

>  <energy>  (42) 
-9.03

>  <cluster_rmsd>  (42) 
0.8

>  <rmsd>  (42) 
271.81

>  <cluster>  (42) 
1

$$$$
PMUWBFKMLGLUTF-QDRFXLRBNA-N
     RDKit          3D

 63 66  0  0  0  0  0  0  0  0999 V2000
  132.9570   75.3380  226.8620 C   0  0  0  0  0  0  0  0  0  0  0  0
  133.8940   74.3280  226.5040 O   0  0  0  0  0  0  0  0  0  0  0  0
  134.6520   74.3330  225.3230 C   0  0  0  0  0  0  0  0  0  0  0  0
  135.0370   73.1530  224.6690 C   0  0  0  0  0  0  0  0  0  0  0  0
  135.7970   73.2110  223.5000 C   0  0  0  0  0  0  0  0  0  0  0  0
  136.1950   74.4460  222.9540 C   0  0  0  0  0  0  0  0  0  0  0  0
  137.0150   74.4400  221.6720 C   0  0  2  0  0  0  0  0  0  0  0  0
  136.8210   73.1530  220.8610 C   0  0  0  0  0  0  0  0  0  0  0  0
  138.4330   74.6860  221.9600 N   0  0  0  0  0  0  0  0  0  0  0  0
  139.3810   74.8800  220.8980 C   0  0  0  0  0  0  0  0  0  0  0  0
  138.9810   74.9570  219.7050 O   0  0  0  0  0  0  0  0  0  0  0  0
  140.8630   74.9000  221.1670 C   0  0  2  0  0  0  0  0  0  0  0  0
  141.4730   76.2600  220.8110 C   0  0  0  0  0  0  0  0  0  0  0  0
  142.2490   76.0360  219.5090 C   0  0  1  0  0  0  0  0  0  0  0  0
  143.4250   76.8060  219.4470 O   0  0  0  0  0  0  0  0  0  0  0  0
  142.5300   74.5350  219.4440 C   0  0  0  0  0  0  0  0  0  0  0  0
  141.5750   73.9220  220.3510 N   0  0  0  0  0  0  0  0  0  0  0  0
  141.6340   72.5220  220.6720 C   0  0  0  0  0  0  0  0  0  0  0  0
  142.7510   71.9750  220.8790 O   0  0  0  0  0  0  0  0  0  0  0  0
  140.3910   71.6820  220.7060 C   0  0  0  0  0  0  0  0  0  0  0  0
  140.1680   71.0980  222.0260 N   0  0  0  0  0  0  0  0  0  0  0  0
  140.1670   71.9250  223.1970 C   0  0  0  0  0  0  0  0  0  0  0  0
  139.9840   73.1690  223.0820 O   0  0  0  0  0  0  0  0  0  0  0  0
  140.3990   71.3370  224.5300 C   0  0  0  0  0  0  0  0  0  0  0  0
  140.7430   72.1440  225.6300 C   0  0  0  0  0  0  0  0  0  0  0  0
  141.0020   71.5530  226.8680 C   0  0  0  0  0  0  0  0  0  0  0  0
  140.9140   70.1640  227.0090 C   0  0  0  0  0  0  0  0  0  0  0  0
  141.1720   69.5350  228.2360 C   0  0  0  0  0  0  0  0  0  0  0  0
  141.0790   68.1430  228.3420 C   0  0  0  0  0  0  0  0  0  0  0  0
  141.3270   67.5370  229.5300 F   0  0  0  0  0  0  0  0  0  0  0  0
  140.7290   67.3730  227.2260 C   0  0  0  0  0  0  0  0  0  0  0  0
  140.4710   67.9920  225.9980 C   0  0  0  0  0  0  0  0  0  0  0  0
  140.5600   69.3840  225.8840 C   0  0  0  0  0  0  0  0  0  0  0  0
  140.3140   69.9870  224.6920 N   0  0  0  0  0  0  0  0  0  0  0  0
  135.7980   75.6370  223.6120 C   0  0  0  0  0  0  0  0  0  0  0  0
  136.2150   77.2430  223.0210 Cl  0  0  0  0  0  0  0  0  0  0  0  0
  135.0330   75.5650  224.7840 C   0  0  0  0  0  0  0  0  0  0  0  0
  132.8930   75.4069  227.9580 H   0  0  0  0  0  0  0  0  0  0  0  0
  133.2854   76.3046  226.4523 H   0  0  0  0  0  0  0  0  0  0  0  0
  131.9685   75.0829  226.4523 H   0  0  0  0  0  0  0  0  0  0  0  0
  134.7383   72.1772  225.0797 H   0  0  0  0  0  0  0  0  0  0  0  0
  136.0896   72.2773  222.9974 H   0  0  0  0  0  0  0  0  0  0  0  0
  136.6442   75.2631  221.0435 H   0  0  0  0  0  0  0  0  0  0  0  0
  136.6929   72.3029  221.5473 H   0  0  0  0  0  0  0  0  0  0  0  0
  135.9274   73.2503  220.2270 H   0  0  0  0  0  0  0  0  0  0  0  0
  137.7036   72.9826  220.2270 H   0  0  0  0  0  0  0  0  0  0  0  0
  138.7760   74.6450  222.9460 H   0  0  0  0  0  0  0  0  0  0  0  0
  140.9711   74.6748  222.2383 H   0  0  0  0  0  0  0  0  0  0  0  0
  140.6811   77.0088  220.6619 H   0  0  0  0  0  0  0  0  0  0  0  0
  142.1247   76.6361  221.6134 H   0  0  0  0  0  0  0  0  0  0  0  0
  141.6633   76.3653  218.6381 H   0  0  0  0  0  0  0  0  0  0  0  0
  143.5430   77.2570  220.3240 H   0  0  0  0  0  0  0  0  0  0  0  0
  142.3831   74.1603  218.4203 H   0  0  0  0  0  0  0  0  0  0  0  0
  143.5676   74.3014  219.7248 H   0  0  0  0  0  0  0  0  0  0  0  0
  139.5280   72.3121  220.4448 H   0  0  0  0  0  0  0  0  0  0  0  0
  140.5131   70.8607  219.9845 H   0  0  0  0  0  0  0  0  0  0  0  0
  140.0590   70.0630  222.1280 H   0  0  0  0  0  0  0  0  0  0  0  0
  140.8076   73.2361  225.5150 H   0  0  0  0  0  0  0  0  0  0  0  0
  141.2747   72.1783  227.7309 H   0  0  0  0  0  0  0  0  0  0  0  0
  141.4475   70.1363  229.1150 H   0  0  0  0  0  0  0  0  0  0  0  0
  140.6567   66.2790  227.3150 H   0  0  0  0  0  0  0  0  0  0  0  0
  140.1983   67.3847  225.1224 H   0  0  0  0  0  0  0  0  0  0  0  0
  134.7273   76.4936  225.2882 H   0  0  0  0  0  0  0  0  0  0  0  0
  1  2  1  0
  2  3  1  0
  3  4  2  0
  4  5  1  0
  5  6  2  0
  6  7  1  0
  7  8  1  0
  7  9  1  0
  9 10  1  0
 10 11  2  0
 10 12  1  0
 12 13  1  0
 13 14  1  0
 14 15  1  0
 14 16  1  0
 16 17  1  0
 17 18  1  0
 18 19  2  0
 18 20  1  0
 20 21  1  0
 21 22  1  0
 22 23  2  0
 22 24  1  0
 24 25  2  0
 25 26  1  0
 26 27  2  0
 27 28  1  0
 28 29  2  0
 29 30  1  0
 29 31  1  0
 31 32  2  0
 32 33  1  0
 33 34  2  0
  6 35  1  0
 35 36  1  0
 35 37  2  0
 37  3  1  0
 17 12  1  0
 34 24  1  0
 33 27  1  0
  1 38  1  0
  1 39  1  0
  1 40  1  0
  4 41  1  0
  5 42  1  0
  7 43  1  6
  8 44  1  0
  8 45  1  0
  8 46  1  0
  9 47  1  0
 12 48  1  1
 13 49  1  0
 13 50  1  0
 14 51  1  6
 15 52  1  0
 16 53  1  0
 16 54  1  0
 20 55  1  0
 20 56  1  0
 21 57  1  0
 25 58  1  0
 26 59  1  0
 28 60  1  0
 31 61  1  0
 32 62  1  0
 37 63  1  0
M  END
>  <UniqueID>  (43) 
3

>  <SMILES>  (43) 
COc1ccc([C@H](C)NC(=O)[C@@H]2C[C@@H](O)CN2C(=O)CNC(=O)c2ccc3cc(F)ccc3n2)c(Cl)c1

>  <Energy>  (43) 
63.932665242010444

>  <Genealogy>  (43) 
COc1ccc([C@H](C)NC(=O)[C@@H]2C[C@@H](O)CN2C(=O)CNC(=O)c2ccc3cc(F)ccc3n2)c(Cl)c1 (3D coordinates assigned)
COc1ccc([C@H](C)NC(=O)[C@@H]2C[C@@H](O)CN2C(=O)CNC(=O)c2ccc3cc(F)ccc3n2)c(Cl)c1 (nonaromatic ring conformer: 63.932665242010444 kcal/mol)

>  <smiles>  (43) 
COc1ccc([C@H](C)NC(=O)[C@@H]2C[C@@H](O)CN2C(=O)CNC(=O)c2ccc3cc(F)ccc3n2)c(Cl)c1

>  <score_type>  (43) 
oracle

>  <origin>  (43) 
autodockgpu

>  <m_score__min__energy>  (43) 
-9.4800000000000004

>  <m_primary>  (43) 
energy

>  <meeko>  (43) 
{"free_energy": -8.36, "intermolecular_energy": -11.05, "internal_energy": -2.83, "cluster_size": 3, "cluster_id": 1, "rank_in_cluster": 3}

>  <energy>  (43) 
-8.36

>  <cluster_rmsd>  (43) 
1.95

>  <rmsd>  (43) 
271.5

>  <cluster>  (43) 
1

$$$$
PMUWBFKMLGLUTF-QDRFXLRBNA-N
     RDKit          3D

 63 66  0  0  0  0  0  0  0  0999 V2000
  146.6740   69.1660  216.6580 C   0  0  0  0  0  0  0  0  0  0  0  0
  146.7080   69.7060  217.9750 O   0  0  0  0  0  0  0  0  0  0  0  0
  145.5880   70.2090  218.6540 C   0  0  0  0  0  0  0  0  0  0  0  0
  144.3630   69.5260  218.6960 C   0  0  0  0  0  0  0  0  0  0  0  0
  143.2760   70.0710  219.3810 C   0  0  0  0  0  0  0  0  0  0  0  0
  143.3810   71.3120  220.0390 C   0  0  0  0  0  0  0  0  0  0  0  0
  142.1610   71.8470  220.7750 C   0  0  2  0  0  0  0  0  0  0  0  0
  140.9930   70.8520  220.7680 C   0  0  0  0  0  0  0  0  0  0  0  0
  141.7590   73.1510  220.2370 N   0  0  0  0  0  0  0  0  0  0  0  0
  141.1330   74.1360  221.0750 C   0  0  0  0  0  0  0  0  0  0  0  0
  141.0280   73.9320  222.3140 O   0  0  0  0  0  0  0  0  0  0  0  0
  140.5090   75.3780  220.4910 C   0  0  2  0  0  0  0  0  0  0  0  0
  141.5750   76.4240  220.1470 C   0  0  0  0  0  0  0  0  0  0  0  0
  141.4490   77.5080  221.2230 C   0  0  1  0  0  0  0  0  0  0  0  0
  141.6950   78.7970  220.7160 O   0  0  0  0  0  0  0  0  0  0  0  0
  140.0390   77.3660  221.7960 C   0  0  0  0  0  0  0  0  0  0  0  0
  139.6070   76.0260  221.4360 N   0  0  0  0  0  0  0  0  0  0  0  0
  138.2610   75.5800  221.6750 C   0  0  0  0  0  0  0  0  0  0  0  0
  137.4030   76.3920  222.1130 O   0  0  0  0  0  0  0  0  0  0  0  0
  137.8740   74.1460  221.4670 C   0  0  0  0  0  0  0  0  0  0  0  0
  138.6170   73.2500  222.3490 N   0  0  0  0  0  0  0  0  0  0  0  0
  138.3850   71.8360  222.3120 C   0  0  0  0  0  0  0  0  0  0  0  0
  137.8390   71.3200  221.2970 O   0  0  0  0  0  0  0  0  0  0  0  0
  138.7590   70.9840  223.4570 C   0  0  0  0  0  0  0  0  0  0  0  0
  138.2680   69.6720  223.5770 C   0  0  0  0  0  0  0  0  0  0  0  0
  138.6020   68.9060  224.6960 C   0  0  0  0  0  0  0  0  0  0  0  0
  139.4260   69.4480  225.6900 C   0  0  0  0  0  0  0  0  0  0  0  0
  139.7780   68.7110  226.8300 C   0  0  0  0  0  0  0  0  0  0  0  0
  140.6000   69.2850  227.8060 C   0  0  0  0  0  0  0  0  0  0  0  0
  140.9420   68.5700  228.9080 F   0  0  0  0  0  0  0  0  0  0  0  0
  141.0740   70.5930  227.6500 C   0  0  0  0  0  0  0  0  0  0  0  0
  140.7260   71.3350  226.5160 C   0  0  0  0  0  0  0  0  0  0  0  0
  139.9060   70.7690  225.5340 C   0  0  0  0  0  0  0  0  0  0  0  0
  139.5630   71.4890  224.4340 N   0  0  0  0  0  0  0  0  0  0  0  0
  144.6220   71.9950  220.0020 C   0  0  0  0  0  0  0  0  0  0  0  0
  144.8880   73.5440  220.8000 Cl  0  0  0  0  0  0  0  0  0  0  0  0
  145.7070   71.4360  219.3130 C   0  0  0  0  0  0  0  0  0  0  0  0
  146.6050   68.0695  216.7130 H   0  0  0  0  0  0  0  0  0  0  0  0
  145.7990   69.5621  216.1218 H   0  0  0  0  0  0  0  0  0  0  0  0
  147.5917   69.4492  216.1218 H   0  0  0  0  0  0  0  0  0  0  0  0
  144.2589   68.5566  218.1867 H   0  0  0  0  0  0  0  0  0  0  0  0
  142.3226   69.5230  219.4074 H   0  0  0  0  0  0  0  0  0  0  0  0
  142.4488   71.9837  221.8278 H   0  0  0  0  0  0  0  0  0  0  0  0
  140.7103   70.6112  221.8034 H   0  0  0  0  0  0  0  0  0  0  0  0
  140.1332   71.2994  220.2478 H   0  0  0  0  0  0  0  0  0  0  0  0
  141.2981   69.9321  220.2478 H   0  0  0  0  0  0  0  0  0  0  0  0
  141.8590   73.3430  219.2140 H   0  0  0  0  0  0  0  0  0  0  0  0
  139.9664   75.0430  219.5947 H   0  0  0  0  0  0  0  0  0  0  0  0
  142.5780   75.9729  220.1716 H   0  0  0  0  0  0  0  0  0  0  0  0
  141.4323   76.8343  219.1364 H   0  0  0  0  0  0  0  0  0  0  0  0
  142.2083   77.3756  222.0078 H   0  0  0  0  0  0  0  0  0  0  0  0
  142.6540   79.0080  220.8680 H   0  0  0  0  0  0  0  0  0  0  0  0
  140.0547   77.4841  222.8895 H   0  0  0  0  0  0  0  0  0  0  0  0
  139.3584   78.1343  221.4005 H   0  0  0  0  0  0  0  0  0  0  0  0
  136.7987   74.0344  221.6701 H   0  0  0  0  0  0  0  0  0  0  0  0
  138.1103   73.8756  220.4273 H   0  0  0  0  0  0  0  0  0  0  0  0
  139.2860   73.6420  223.0510 H   0  0  0  0  0  0  0  0  0  0  0  0
  137.6229   69.2503  222.7921 H   0  0  0  0  0  0  0  0  0  0  0  0
  138.2188   67.8798  224.7962 H   0  0  0  0  0  0  0  0  0  0  0  0
  139.4083   67.6828  226.9568 H   0  0  0  0  0  0  0  0  0  0  0  0
  141.7211   71.0381  228.4202 H   0  0  0  0  0  0  0  0  0  0  0  0
  141.0972   72.3636  226.3966 H   0  0  0  0  0  0  0  0  0  0  0  0
  146.6676   71.9714  219.2905 H   0  0  0  0  0  0  0  0  0  0  0  0
  1  2  1  0
  2  3  1  0
  3  4  2  0
  4  5  1  0
  5  6  2  0
  6  7  1  0
  7  8  1  0
  7  9  1  0
  9 10  1  0
 10 11  2  0
 10 12  1  0
 12 13  1  0
 13 14  1  0
 14 15  1  0
 14 16  1  0
 16 17  1  0
 17 18  1  0
 18 19  2  0
 18 20  1  0
 20 21  1  0
 21 22  1  0
 22 23  2  0
 22 24  1  0
 24 25  2  0
 25 26  1  0
 26 27  2  0
 27 28  1  0
 28 29  2  0
 29 30  1  0
 29 31  1  0
 31 32  2  0
 32 33  1  0
 33 34  2  0
  6 35  1  0
 35 36  1  0
 35 37  2  0
 37  3  1  0
 17 12  1  0
 34 24  1  0
 33 27  1  0
  1 38  1  0
  1 39  1  0
  1 40  1  0
  4 41  1  0
  5 42  1  0
  7 43  1  1
  8 44  1  0
  8 45  1  0
  8 46  1  0
  9 47  1  0
 12 48  1  6
 13 49  1  0
 13 50  1  0
 14 51  1  1
 15 52  1  0
 16 53  1  0
 16 54  1  0
 20 55  1  0
 20 56  1  0
 21 57  1  0
 25 58  1  0
 26 59  1  0
 28 60  1  0
 31 61  1  0
 32 62  1  0
 37 63  1  0
M  END
>  <UniqueID>  (44) 
3

>  <SMILES>  (44) 
COc1ccc([C@H](C)NC(=O)[C@@H]2C[C@@H](O)CN2C(=O)CNC(=O)c2ccc3cc(F)ccc3n2)c(Cl)c1

>  <Energy>  (44) 
63.932665242010444

>  <Genealogy>  (44) 
COc1ccc([C@H](C)NC(=O)[C@@H]2C[C@@H](O)CN2C(=O)CNC(=O)c2ccc3cc(F)ccc3n2)c(Cl)c1 (3D coordinates assigned)
COc1ccc([C@H](C)NC(=O)[C@@H]2C[C@@H](O)CN2C(=O)CNC(=O)c2ccc3cc(F)ccc3n2)c(Cl)c1 (nonaromatic ring conformer: 63.932665242010444 kcal/mol)

>  <smiles>  (44) 
COc1ccc([C@H](C)NC(=O)[C@@H]2C[C@@H](O)CN2C(=O)CNC(=O)c2ccc3cc(F)ccc3n2)c(Cl)c1

>  <score_type>  (44) 
oracle

>  <origin>  (44) 
autodockgpu

>  <m_score__min__energy>  (44) 
-9.4800000000000004

>  <m_primary>  (44) 
energy

>  <meeko>  (44) 
{"free_energy": -8.06, "intermolecular_energy": -10.75, "internal_energy": -2.95, "cluster_size": 1, "cluster_id": 3, "rank_in_cluster": 1}

>  <energy>  (44) 
-8.64

>  <cluster_rmsd>  (44) 
0.0

>  <rmsd>  (44) 
271.8

>  <cluster>  (44) 
2

$$$$
PMUWBFKMLGLUTF-QDRFXLRBNA-N
     RDKit          3D

 63 66  0  0  0  0  0  0  0  0999 V2000
  139.6080   82.7690  221.1450 C   0  0  0  0  0  0  0  0  0  0  0  0
  140.8310   82.2760  220.6070 O   0  0  0  0  0  0  0  0  0  0  0  0
  140.9650   81.0480  219.9410 C   0  0  0  0  0  0  0  0  0  0  0  0
  142.1900   80.6050  219.4180 C   0  0  0  0  0  0  0  0  0  0  0  0
  142.2710   79.3780  218.7580 C   0  0  0  0  0  0  0  0  0  0  0  0
  141.1340   78.5620  218.6000 C   0  0  0  0  0  0  0  0  0  0  0  0
  141.2920   77.2320  217.8780 C   0  0  2  0  0  0  0  0  0  0  0  0
  140.2260   77.0250  216.7950 C   0  0  0  0  0  0  0  0  0  0  0  0
  141.3090   76.1190  218.8350 N   0  0  0  0  0  0  0  0  0  0  0  0
  142.4310   75.9110  219.7080 C   0  0  0  0  0  0  0  0  0  0  0  0
  143.3670   76.7550  219.7410 O   0  0  0  0  0  0  0  0  0  0  0  0
  142.5640   74.6500  220.5230 C   0  0  2  0  0  0  0  0  0  0  0  0
  144.0330   74.2390  220.6710 C   0  0  0  0  0  0  0  0  0  0  0  0
  144.2160   73.0300  219.7480 C   0  0  1  0  0  0  0  0  0  0  0  0
  145.1140   72.0830  220.2760 O   0  0  0  0  0  0  0  0  0  0  0  0
  142.8180   72.4510  219.5350 C   0  0  0  0  0  0  0  0  0  0  0  0
  141.8980   73.5200  219.8860 N   0  0  0  0  0  0  0  0  0  0  0  0
  140.4790   73.2990  219.9560 C   0  0  0  0  0  0  0  0  0  0  0  0
  139.7850   73.3560  218.9050 O   0  0  0  0  0  0  0  0  0  0  0  0
  139.7980   73.0600  221.2710 C   0  0  0  0  0  0  0  0  0  0  0  0
  139.6430   74.2950  222.0340 N   0  0  0  0  0  0  0  0  0  0  0  0
  139.3520   75.5300  221.3660 C   0  0  0  0  0  0  0  0  0  0  0  0
  138.8660   75.5110  220.2020 O   0  0  0  0  0  0  0  0  0  0  0  0
  139.6360   76.8220  222.0220 C   0  0  0  0  0  0  0  0  0  0  0  0
  138.6150   77.5570  222.6500 C   0  0  0  0  0  0  0  0  0  0  0  0
  138.9060   78.7980  223.2210 C   0  0  0  0  0  0  0  0  0  0  0  0
  140.2120   79.3000  223.1690 C   0  0  0  0  0  0  0  0  0  0  0  0
  140.5400   80.5440  223.7280 C   0  0  0  0  0  0  0  0  0  0  0  0
  141.8540   81.0190  223.6530 C   0  0  0  0  0  0  0  0  0  0  0  0
  142.1700   82.2210  224.1950 F   0  0  0  0  0  0  0  0  0  0  0  0
  142.8450   80.2560  223.0240 C   0  0  0  0  0  0  0  0  0  0  0  0
  142.5260   79.0140  222.4640 C   0  0  0  0  0  0  0  0  0  0  0  0
  141.2140   78.5310  222.5350 C   0  0  0  0  0  0  0  0  0  0  0  0
  140.9010   77.3280  221.9870 N   0  0  0  0  0  0  0  0  0  0  0  0
  139.9010   79.0090  219.1370 C   0  0  0  0  0  0  0  0  0  0  0  0
  138.4110   78.0740  219.0220 Cl  0  0  0  0  0  0  0  0  0  0  0  0
  139.8330   80.2420  219.7990 C   0  0  0  0  0  0  0  0  0  0  0  0
  139.6565   82.7494  222.2438 H   0  0  0  0  0  0  0  0  0  0  0  0
  139.4472   83.8022  220.8034 H   0  0  0  0  0  0  0  0  0  0  0  0
  138.7756   82.1362  220.8034 H   0  0  0  0  0  0  0  0  0  0  0  0
  143.0900   81.2277  219.5288 H   0  0  0  0  0  0  0  0  0  0  0  0
  143.2381   79.0429  218.3548 H   0  0  0  0  0  0  0  0  0  0  0  0
  142.2622   77.2555  217.3601 H   0  0  0  0  0  0  0  0  0  0  0  0
  139.2522   76.8359  217.2704 H   0  0  0  0  0  0  0  0  0  0  0  0
  140.1594   77.9270  216.1689 H   0  0  0  0  0  0  0  0  0  0  0  0
  140.5018   76.1636  216.1689 H   0  0  0  0  0  0  0  0  0  0  0  0
  140.5300   75.4220  218.8340 H   0  0  0  0  0  0  0  0  0  0  0  0
  142.1068   74.8784  221.4970 H   0  0  0  0  0  0  0  0  0  0  0  0
  144.6951   75.0615  220.3626 H   0  0  0  0  0  0  0  0  0  0  0  0
  144.2856   73.9975  221.7140 H   0  0  0  0  0  0  0  0  0  0  0  0
  144.6686   73.3296  218.7912 H   0  0  0  0  0  0  0  0  0  0  0  0
  144.8720   71.9300  221.2270 H   0  0  0  0  0  0  0  0  0  0  0  0
  142.6804   72.1547  218.4846 H   0  0  0  0  0  0  0  0  0  0  0  0
  142.6511   71.5516  220.1459 H   0  0  0  0  0  0  0  0  0  0  0  0
  138.8030   72.6300  221.0837 H   0  0  0  0  0  0  0  0  0  0  0  0
  140.4223   72.3711  221.8589 H   0  0  0  0  0  0  0  0  0  0  0  0
  139.7950   74.2940  223.0680 H   0  0  0  0  0  0  0  0  0  0  0  0
  137.5914   77.1563  222.6914 H   0  0  0  0  0  0  0  0  0  0  0  0
  138.1109   79.3796  223.7104 H   0  0  0  0  0  0  0  0  0  0  0  0
  139.7648   81.1457  224.2250 H   0  0  0  0  0  0  0  0  0  0  0  0
  143.8767   80.6337  222.9699 H   0  0  0  0  0  0  0  0  0  0  0  0
  143.3059   78.4174  221.9682 H   0  0  0  0  0  0  0  0  0  0  0  0
  138.8722   80.5809  220.2138 H   0  0  0  0  0  0  0  0  0  0  0  0
  1  2  1  0
  2  3  1  0
  3  4  2  0
  4  5  1  0
  5  6  2  0
  6  7  1  0
  7  8  1  0
  7  9  1  0
  9 10  1  0
 10 11  2  0
 10 12  1  0
 12 13  1  0
 13 14  1  0
 14 15  1  0
 14 16  1  0
 16 17  1  0
 17 18  1  0
 18 19  2  0
 18 20  1  0
 20 21  1  0
 21 22  1  0
 22 23  2  0
 22 24  1  0
 24 25  2  0
 25 26  1  0
 26 27  2  0
 27 28  1  0
 28 29  2  0
 29 30  1  0
 29 31  1  0
 31 32  2  0
 32 33  1  0
 33 34  2  0
  6 35  1  0
 35 36  1  0
 35 37  2  0
 37  3  1  0
 17 12  1  0
 34 24  1  0
 33 27  1  0
  1 38  1  0
  1 39  1  0
  1 40  1  0
  4 41  1  0
  5 42  1  0
  7 43  1  6
  8 44  1  0
  8 45  1  0
  8 46  1  0
  9 47  1  0
 12 48  1  1
 13 49  1  0
 13 50  1  0
 14 51  1  6
 15 52  1  0
 16 53  1  0
 16 54  1  0
 20 55  1  0
 20 56  1  0
 21 57  1  0
 25 58  1  0
 26 59  1  0
 28 60  1  0
 31 61  1  0
 32 62  1  0
 37 63  1  0
M  END
>  <UniqueID>  (45) 
3

>  <SMILES>  (45) 
COc1ccc([C@H](C)NC(=O)[C@@H]2C[C@@H](O)CN2C(=O)CNC(=O)c2ccc3cc(F)ccc3n2)c(Cl)c1

>  <Energy>  (45) 
63.932665242010444

>  <Genealogy>  (45) 
COc1ccc([C@H](C)NC(=O)[C@@H]2C[C@@H](O)CN2C(=O)CNC(=O)c2ccc3cc(F)ccc3n2)c(Cl)c1 (3D coordinates assigned)
COc1ccc([C@H](C)NC(=O)[C@@H]2C[C@@H](O)CN2C(=O)CNC(=O)c2ccc3cc(F)ccc3n2)c(Cl)c1 (nonaromatic ring conformer: 63.932665242010444 kcal/mol)

>  <smiles>  (45) 
COc1ccc([C@H](C)NC(=O)[C@@H]2C[C@@H](O)CN2C(=O)CNC(=O)c2ccc3cc(F)ccc3n2)c(Cl)c1

>  <score_type>  (45) 
oracle

>  <origin>  (45) 
autodockgpu

>  <m_score__min__energy>  (45) 
-9.4800000000000004

>  <m_primary>  (45) 
energy

>  <meeko>  (45) 
{"free_energy": -5.67, "intermolecular_energy": -8.35, "internal_energy": -5.52, "cluster_size": 10, "cluster_id": 7, "rank_in_cluster": 8}

>  <energy>  (45) 
-8.06

>  <cluster_rmsd>  (45) 
0.0

>  <rmsd>  (45) 
271.21

>  <cluster>  (45) 
3

$$$$
PMUWBFKMLGLUTF-QDRFXLRBNA-N
     RDKit          3D

 63 66  0  0  0  0  0  0  0  0999 V2000
  132.1750   74.2380  227.0350 C   0  0  0  0  0  0  0  0  0  0  0  0
  133.5510   73.9400  226.8260 O   0  0  0  0  0  0  0  0  0  0  0  0
  134.3090   74.4120  225.7430 C   0  0  0  0  0  0  0  0  0  0  0  0
  134.4050   75.7760  225.4280 C   0  0  0  0  0  0  0  0  0  0  0  0
  135.1660   76.1950  224.3370 C   0  0  0  0  0  0  0  0  0  0  0  0
  135.8490   75.2660  223.5290 C   0  0  0  0  0  0  0  0  0  0  0  0
  136.6690   75.7880  222.3580 C   0  0  2  0  0  0  0  0  0  0  0  0
  136.4550   74.9650  221.0820 C   0  0  0  0  0  0  0  0  0  0  0  0
  138.0910   75.8690  222.7140 N   0  0  0  0  0  0  0  0  0  0  0  0
  138.8340   77.0840  222.5210 C   0  0  0  0  0  0  0  0  0  0  0  0
  138.2390   78.1320  222.1500 O   0  0  0  0  0  0  0  0  0  0  0  0
  140.3340   77.1140  222.6600 C   0  0  2  0  0  0  0  0  0  0  0  0
  140.8220   78.4960  223.1050 C   0  0  0  0  0  0  0  0  0  0  0  0
  141.4550   79.1290  221.8620 C   0  0  1  0  0  0  0  0  0  0  0  0
  142.5720   79.9260  222.1760 O   0  0  0  0  0  0  0  0  0  0  0  0
  141.8100   77.9670  220.9360 C   0  0  0  0  0  0  0  0  0  0  0  0
  141.0010   76.8480  221.3900 N   0  0  0  0  0  0  0  0  0  0  0  0
  141.1750   75.5260  220.8520 C   0  0  0  0  0  0  0  0  0  0  0  0
  142.2190   75.2490  220.2030 O   0  0  0  0  0  0  0  0  0  0  0  0
  140.1060   74.4850  220.9990 C   0  0  0  0  0  0  0  0  0  0  0  0
  140.4770   73.4580  221.9690 N   0  0  0  0  0  0  0  0  0  0  0  0
  139.7660   72.2140  222.0180 C   0  0  0  0  0  0  0  0  0  0  0  0
  139.0890   71.8420  221.0210 O   0  0  0  0  0  0  0  0  0  0  0  0
  139.8040   71.3780  223.2340 C   0  0  0  0  0  0  0  0  0  0  0  0
  139.2020   70.1060  223.2590 C   0  0  0  0  0  0  0  0  0  0  0  0
  139.2140   69.3580  224.4380 C   0  0  0  0  0  0  0  0  0  0  0  0
  139.8260   69.8750  225.5850 C   0  0  0  0  0  0  0  0  0  0  0  0
  139.8530   69.1540  226.7880 C   0  0  0  0  0  0  0  0  0  0  0  0
  140.4700   69.7020  227.9180 C   0  0  0  0  0  0  0  0  0  0  0  0
  140.4960   69.0030  229.0810 F   0  0  0  0  0  0  0  0  0  0  0  0
  141.0630   70.9690  227.8530 C   0  0  0  0  0  0  0  0  0  0  0  0
  141.0400   71.6950  226.6580 C   0  0  0  0  0  0  0  0  0  0  0  0
  140.4260   71.1540  225.5230 C   0  0  0  0  0  0  0  0  0  0  0  0
  140.3980   71.8590  224.3610 N   0  0  0  0  0  0  0  0  0  0  0  0
  135.7570   73.8890  223.8550 C   0  0  0  0  0  0  0  0  0  0  0  0
  136.5780   72.6300  222.9350 Cl  0  0  0  0  0  0  0  0  0  0  0  0
  134.9910   73.4820  224.9550 C   0  0  0  0  0  0  0  0  0  0  0  0
  131.9694   74.2825  228.1147 H   0  0  0  0  0  0  0  0  0  0  0  0
  131.9362   75.2087  226.5759 H   0  0  0  0  0  0  0  0  0  0  0  0
  131.5560   73.4531  226.5759 H   0  0  0  0  0  0  0  0  0  0  0  0
  133.8774   76.5185  226.0447 H   0  0  0  0  0  0  0  0  0  0  0  0
  135.2337   77.2679  224.1041 H   0  0  0  0  0  0  0  0  0  0  0  0
  136.3113   76.8043  222.1364 H   0  0  0  0  0  0  0  0  0  0  0  0
  136.1866   73.9330  221.3520 H   0  0  0  0  0  0  0  0  0  0  0  0
  135.6432   75.4118  220.4893 H   0  0  0  0  0  0  0  0  0  0  0  0
  137.3817   74.9598  220.4893 H   0  0  0  0  0  0  0  0  0  0  0  0
  138.5930   75.0130  223.0420 H   0  0  0  0  0  0  0  0  0  0  0  0
  140.5769   76.3402  223.4031 H   0  0  0  0  0  0  0  0  0  0  0  0
  139.9777   79.1058  223.4588 H   0  0  0  0  0  0  0  0  0  0  0  0
  141.5390   78.4264  223.9363 H   0  0  0  0  0  0  0  0  0  0  0  0
  140.7555   79.8228  221.3729 H   0  0  0  0  0  0  0  0  0  0  0  0
  143.3900   79.4050  221.9610 H   0  0  0  0  0  0  0  0  0  0  0  0
  141.5675   78.2186  219.8930 H   0  0  0  0  0  0  0  0  0  0  0  0
  142.8844   77.7333  220.9676 H   0  0  0  0  0  0  0  0  0  0  0  0
  139.1785   74.9723  221.3339 H   0  0  0  0  0  0  0  0  0  0  0  0
  139.9672   73.9980  220.0225 H   0  0  0  0  0  0  0  0  0  0  0  0
  141.2310   73.6470  222.6680 H   0  0  0  0  0  0  0  0  0  0  0  0
  138.7242   69.7030  222.3539 H   0  0  0  0  0  0  0  0  0  0  0  0
  138.7432   68.3642  224.4649 H   0  0  0  0  0  0  0  0  0  0  0  0
  139.3892   68.1581  226.8430 H   0  0  0  0  0  0  0  0  0  0  0  0
  141.5481   71.3942  228.7440 H   0  0  0  0  0  0  0  0  0  0  0  0
  141.5044   72.6910  226.6103 H   0  0  0  0  0  0  0  0  0  0  0  0
  134.9255   72.4122  225.2023 H   0  0  0  0  0  0  0  0  0  0  0  0
  1  2  1  0
  2  3  1  0
  3  4  2  0
  4  5  1  0
  5  6  2  0
  6  7  1  0
  7  8  1  0
  7  9  1  0
  9 10  1  0
 10 11  2  0
 10 12  1  0
 12 13  1  0
 13 14  1  0
 14 15  1  0
 14 16  1  0
 16 17  1  0
 17 18  1  0
 18 19  2  0
 18 20  1  0
 20 21  1  0
 21 22  1  0
 22 23  2  0
 22 24  1  0
 24 25  2  0
 25 26  1  0
 26 27  2  0
 27 28  1  0
 28 29  2  0
 29 30  1  0
 29 31  1  0
 31 32  2  0
 32 33  1  0
 33 34  2  0
  6 35  1  0
 35 36  1  0
 35 37  2  0
 37  3  1  0
 17 12  1  0
 34 24  1  0
 33 27  1  0
  1 38  1  0
  1 39  1  0
  1 40  1  0
  4 41  1  0
  5 42  1  0
  7 43  1  6
  8 44  1  0
  8 45  1  0
  8 46  1  0
  9 47  1  0
 12 48  1  1
 13 49  1  0
 13 50  1  0
 14 51  1  6
 15 52  1  0
 16 53  1  0
 16 54  1  0
 20 55  1  0
 20 56  1  0
 21 57  1  0
 25 58  1  0
 26 59  1  0
 28 60  1  0
 31 61  1  0
 32 62  1  0
 37 63  1  0
M  END
>  <UniqueID>  (46) 
3

>  <SMILES>  (46) 
COc1ccc([C@H](C)NC(=O)[C@@H]2C[C@@H](O)CN2C(=O)CNC(=O)c2ccc3cc(F)ccc3n2)c(Cl)c1

>  <Energy>  (46) 
63.932665242010444

>  <Genealogy>  (46) 
COc1ccc([C@H](C)NC(=O)[C@@H]2C[C@@H](O)CN2C(=O)CNC(=O)c2ccc3cc(F)ccc3n2)c(Cl)c1 (3D coordinates assigned)
COc1ccc([C@H](C)NC(=O)[C@@H]2C[C@@H](O)CN2C(=O)CNC(=O)c2ccc3cc(F)ccc3n2)c(Cl)c1 (nonaromatic ring conformer: 63.932665242010444 kcal/mol)

>  <smiles>  (46) 
COc1ccc([C@H](C)NC(=O)[C@@H]2C[C@@H](O)CN2C(=O)CNC(=O)c2ccc3cc(F)ccc3n2)c(Cl)c1

>  <score_type>  (46) 
oracle

>  <origin>  (46) 
autodockgpu

>  <m_score__min__energy>  (46) 
-9.4800000000000004

>  <m_primary>  (46) 
energy

>  <meeko>  (46) 
{"free_energy": -9.03, "intermolecular_energy": -11.71, "internal_energy": -2.24, "cluster_size": 3, "cluster_id": 1, "rank_in_cluster": 2}

>  <energy>  (46) 
-7.76

>  <cluster_rmsd>  (46) 
0.0

>  <rmsd>  (46) 
271.9

>  <cluster>  (46) 
4

$$$$
PMUWBFKMLGLUTF-QDRFXLRBNA-N
     RDKit          3D

 63 66  0  0  0  0  0  0  0  0999 V2000
  139.2680   82.3380  221.2290 C   0  0  0  0  0  0  0  0  0  0  0  0
  140.5440   82.0870  220.6510 O   0  0  0  0  0  0  0  0  0  0  0  0
  140.8850   80.9140  219.9600 C   0  0  0  0  0  0  0  0  0  0  0  0
  142.1890   80.6550  219.5110 C   0  0  0  0  0  0  0  0  0  0  0  0
  142.4760   79.4760  218.8230 C   0  0  0  0  0  0  0  0  0  0  0  0
  141.4700   78.5260  218.5600 C   0  0  0  0  0  0  0  0  0  0  0  0
  141.8510   77.2560  217.8120 C   0  0  2  0  0  0  0  0  0  0  0  0
  140.9070   76.9660  216.6380 C   0  0  0  0  0  0  0  0  0  0  0  0
  141.9330   76.1150  218.7310 N   0  0  0  0  0  0  0  0  0  0  0  0
  143.1020   75.8980  219.5380 C   0  0  0  0  0  0  0  0  0  0  0  0
  144.0260   76.7560  219.5500 O   0  0  0  0  0  0  0  0  0  0  0  0
  143.2960   74.6160  220.3050 C   0  0  2  0  0  0  0  0  0  0  0  0
  144.7840   74.2960  220.4830 C   0  0  0  0  0  0  0  0  0  0  0  0
  145.0760   73.1430  219.5180 C   0  0  1  0  0  0  0  0  0  0  0  0
  146.0190   72.2360  220.0360 O   0  0  0  0  0  0  0  0  0  0  0  0
  143.7270   72.4820  219.2360 C   0  0  0  0  0  0  0  0  0  0  0  0
  142.7270   73.4720  219.6000 N   0  0  0  0  0  0  0  0  0  0  0  0
  141.3250   73.1550  219.6140 C   0  0  0  0  0  0  0  0  0  0  0  0
  140.6520   73.2460  218.5520 O   0  0  0  0  0  0  0  0  0  0  0  0
  140.6320   72.7740  220.8890 C   0  0  0  0  0  0  0  0  0  0  0  0
  140.3210   73.9420  221.7080 N   0  0  0  0  0  0  0  0  0  0  0  0
  139.8620   75.1560  221.0980 C   0  0  0  0  0  0  0  0  0  0  0  0
  139.3730   75.1240  219.9350 O   0  0  0  0  0  0  0  0  0  0  0  0
  139.9790   76.4430  221.8100 C   0  0  0  0  0  0  0  0  0  0  0  0
  138.8700   77.0160  222.4590 C   0  0  0  0  0  0  0  0  0  0  0  0
  139.0000   78.2580  223.0860 C   0  0  0  0  0  0  0  0  0  0  0  0
  140.2320   78.9220  223.0670 C   0  0  0  0  0  0  0  0  0  0  0  0
  140.3970   80.1720  223.6810 C   0  0  0  0  0  0  0  0  0  0  0  0
  141.6420   80.8110  223.6400 C   0  0  0  0  0  0  0  0  0  0  0  0
  141.8010   82.0200  224.2360 F   0  0  0  0  0  0  0  0  0  0  0  0
  142.7240   80.2070  222.9880 C   0  0  0  0  0  0  0  0  0  0  0  0
  142.5660   78.9610  222.3730 C   0  0  0  0  0  0  0  0  0  0  0  0
  141.3260   78.3140  222.4100 C   0  0  0  0  0  0  0  0  0  0  0  0
  141.1690   77.1050  221.8090 N   0  0  0  0  0  0  0  0  0  0  0  0
  140.1560   78.7870  219.0210 C   0  0  0  0  0  0  0  0  0  0  0  0
  138.8140   77.6710  218.7730 Cl  0  0  0  0  0  0  0  0  0  0  0  0
  139.8810   79.9730  219.7140 C   0  0  0  0  0  0  0  0  0  0  0  0
  139.3525   82.3214  222.3256 H   0  0  0  0  0  0  0  0  0  0  0  0
  138.9059   83.3246  220.9041 H   0  0  0  0  0  0  0  0  0  0  0  0
  138.5592   81.5621  220.9041 H   0  0  0  0  0  0  0  0  0  0  0  0
  142.9889   81.3854  219.7025 H   0  0  0  0  0  0  0  0  0  0  0  0
  143.5038   79.2853  218.4806 H   0  0  0  0  0  0  0  0  0  0  0  0
  142.8485   77.4191  217.3779 H   0  0  0  0  0  0  0  0  0  0  0  0
  139.9227   76.6636  217.0250 H   0  0  0  0  0  0  0  0  0  0  0  0
  140.7970   77.8718  216.0236 H   0  0  0  0  0  0  0  0  0  0  0  0
  141.3244   76.1547  216.0236 H   0  0  0  0  0  0  0  0  0  0  0  0
  141.1650   75.4060  218.7470 H   0  0  0  0  0  0  0  0  0  0  0  0
  142.7965   74.7726  221.2725 H   0  0  0  0  0  0  0  0  0  0  0  0
  145.3982   75.1729  220.2304 H   0  0  0  0  0  0  0  0  0  0  0  0
  145.0206   74.0262  221.5228 H   0  0  0  0  0  0  0  0  0  0  0  0
  145.5359   73.5129  218.5897 H   0  0  0  0  0  0  0  0  0  0  0  0
  145.6720   71.8940  220.9020 H   0  0  0  0  0  0  0  0  0  0  0  0
  143.6412   72.2224  218.1705 H   0  0  0  0  0  0  0  0  0  0  0  0
  143.6030   71.5481  219.8039 H   0  0  0  0  0  0  0  0  0  0  0  0
  139.6954   72.2523  220.6428 H   0  0  0  0  0  0  0  0  0  0  0  0
  141.3078   72.1239  221.4640 H   0  0  0  0  0  0  0  0  0  0  0  0
  140.4810   73.9150  222.7400 H   0  0  0  0  0  0  0  0  0  0  0  0
  137.9048   76.4886  222.4728 H   0  0  0  0  0  0  0  0  0  0  0  0
  138.1363   78.7127  223.5932 H   0  0  0  0  0  0  0  0  0  0  0  0
  139.5494   80.6497  224.1941 H   0  0  0  0  0  0  0  0  0  0  0  0
  143.7000   80.7135  222.9595 H   0  0  0  0  0  0  0  0  0  0  0  0
  143.4170   78.4894  221.8599 H   0  0  0  0  0  0  0  0  0  0  0  0
  138.8585   80.1669  220.0703 H   0  0  0  0  0  0  0  0  0  0  0  0
  1  2  1  0
  2  3  1  0
  3  4  2  0
  4  5  1  0
  5  6  2  0
  6  7  1  0
  7  8  1  0
  7  9  1  0
  9 10  1  0
 10 11  2  0
 10 12  1  0
 12 13  1  0
 13 14  1  0
 14 15  1  0
 14 16  1  0
 16 17  1  0
 17 18  1  0
 18 19  2  0
 18 20  1  0
 20 21  1  0
 21 22  1  0
 22 23  2  0
 22 24  1  0
 24 25  2  0
 25 26  1  0
 26 27  2  0
 27 28  1  0
 28 29  2  0
 29 30  1  0
 29 31  1  0
 31 32  2  0
 32 33  1  0
 33 34  2  0
  6 35  1  0
 35 36  1  0
 35 37  2  0
 37  3  1  0
 17 12  1  0
 34 24  1  0
 33 27  1  0
  1 38  1  0
  1 39  1  0
  1 40  1  0
  4 41  1  0
  5 42  1  0
  7 43  1  6
  8 44  1  0
  8 45  1  0
  8 46  1  0
  9 47  1  0
 12 48  1  1
 13 49  1  0
 13 50  1  0
 14 51  1  6
 15 52  1  0
 16 53  1  0
 16 54  1  0
 20 55  1  0
 20 56  1  0
 21 57  1  0
 25 58  1  0
 26 59  1  0
 28 60  1  0
 31 61  1  0
 32 62  1  0
 37 63  1  0
M  END
>  <UniqueID>  (47) 
3

>  <SMILES>  (47) 
COc1ccc([C@H](C)NC(=O)[C@@H]2C[C@@H](O)CN2C(=O)CNC(=O)c2ccc3cc(F)ccc3n2)c(Cl)c1

>  <Energy>  (47) 
63.932665242010444

>  <Genealogy>  (47) 
COc1ccc([C@H](C)NC(=O)[C@@H]2C[C@@H](O)CN2C(=O)CNC(=O)c2ccc3cc(F)ccc3n2)c(Cl)c1 (3D coordinates assigned)
COc1ccc([C@H](C)NC(=O)[C@@H]2C[C@@H](O)CN2C(=O)CNC(=O)c2ccc3cc(F)ccc3n2)c(Cl)c1 (nonaromatic ring conformer: 63.932665242010444 kcal/mol)

>  <smiles>  (47) 
COc1ccc([C@H](C)NC(=O)[C@@H]2C[C@@H](O)CN2C(=O)CNC(=O)c2ccc3cc(F)ccc3n2)c(Cl)c1

>  <score_type>  (47) 
oracle

>  <origin>  (47) 
autodockgpu

>  <m_score__min__energy>  (47) 
-9.4800000000000004

>  <m_primary>  (47) 
energy

>  <meeko>  (47) 
{"free_energy": -5.78, "intermolecular_energy": -8.46, "internal_energy": -5.49, "cluster_size": 10, "cluster_id": 7, "rank_in_cluster": 7}

>  <energy>  (47) 
-7.73

>  <cluster_rmsd>  (47) 
0.89

>  <rmsd>  (47) 
271.84

>  <cluster>  (47) 
4

$$$$
PMUWBFKMLGLUTF-QDRFXLRBNA-N
     RDKit          3D

 63 66  0  0  0  0  0  0  0  0999 V2000
  139.3350   82.2400  220.9680 C   0  0  0  0  0  0  0  0  0  0  0  0
  140.6160   81.9650  220.4130 O   0  0  0  0  0  0  0  0  0  0  0  0
  140.9510   80.7790  219.7410 C   0  0  0  0  0  0  0  0  0  0  0  0
  142.2460   80.5230  219.2640 C   0  0  0  0  0  0  0  0  0  0  0  0
  142.5280   79.3310  218.5960 C   0  0  0  0  0  0  0  0  0  0  0  0
  141.5260   78.3640  218.3830 C   0  0  0  0  0  0  0  0  0  0  0  0
  141.9010   77.0810  217.6560 C   0  0  2  0  0  0  0  0  0  0  0  0
  140.9330   76.7560  216.5110 C   0  0  0  0  0  0  0  0  0  0  0  0
  142.0140   75.9620  218.5980 N   0  0  0  0  0  0  0  0  0  0  0  0
  143.1500   75.8410  219.4700 C   0  0  0  0  0  0  0  0  0  0  0  0
  144.0090   76.7620  219.5150 O   0  0  0  0  0  0  0  0  0  0  0  0
  143.3930   74.5870  220.2690 C   0  0  2  0  0  0  0  0  0  0  0  0
  144.8910   74.3300  220.4570 C   0  0  0  0  0  0  0  0  0  0  0  0
  145.2300   73.1650  219.5210 C   0  0  1  0  0  0  0  0  0  0  0  0
  146.2070   72.3090  220.0620 O   0  0  0  0  0  0  0  0  0  0  0  0
  143.9080   72.4450  219.2550 C   0  0  0  0  0  0  0  0  0  0  0  0
  142.8700   73.4050  219.5930 N   0  0  0  0  0  0  0  0  0  0  0  0
  141.4810   73.0330  219.6150 C   0  0  0  0  0  0  0  0  0  0  0  0
  140.8070   73.0720  218.5500 O   0  0  0  0  0  0  0  0  0  0  0  0
  140.8010   72.6560  220.8980 C   0  0  0  0  0  0  0  0  0  0  0  0
  140.4340   73.8320  221.6830 N   0  0  0  0  0  0  0  0  0  0  0  0
  139.9880   75.0290  221.0330 C   0  0  0  0  0  0  0  0  0  0  0  0
  139.5560   74.9720  219.8480 O   0  0  0  0  0  0  0  0  0  0  0  0
  140.0510   76.3280  221.7300 C   0  0  0  0  0  0  0  0  0  0  0  0
  138.9210   76.8600  222.3780 C   0  0  0  0  0  0  0  0  0  0  0  0
  138.9990   78.1130  222.9890 C   0  0  0  0  0  0  0  0  0  0  0  0
  140.2000   78.8300  222.9570 C   0  0  0  0  0  0  0  0  0  0  0  0
  140.3140   80.0940  223.5560 C   0  0  0  0  0  0  0  0  0  0  0  0
  141.5290   80.7860  223.5020 C   0  0  0  0  0  0  0  0  0  0  0  0
  141.6380   82.0070  224.0830 F   0  0  0  0  0  0  0  0  0  0  0  0
  142.6330   80.2220  222.8520 C   0  0  0  0  0  0  0  0  0  0  0  0
  142.5280   78.9630  222.2520 C   0  0  0  0  0  0  0  0  0  0  0  0
  141.3170   78.2630  222.3020 C   0  0  0  0  0  0  0  0  0  0  0  0
  141.2110   77.0420  221.7150 N   0  0  0  0  0  0  0  0  0  0  0  0
  140.2210   78.6220  218.8740 C   0  0  0  0  0  0  0  0  0  0  0  0
  138.8870   77.4870  218.6880 Cl  0  0  0  0  0  0  0  0  0  0  0  0
  139.9520   79.8220  219.5450 C   0  0  0  0  0  0  0  0  0  0  0  0
  139.4004   82.2260  222.0660 H   0  0  0  0  0  0  0  0  0  0  0  0
  138.9957   83.2315  220.6336 H   0  0  0  0  0  0  0  0  0  0  0  0
  138.6186   81.4752  220.6336 H   0  0  0  0  0  0  0  0  0  0  0  0
  143.0426   81.2659  219.4176 H   0  0  0  0  0  0  0  0  0  0  0  0
  143.5483   79.1435  218.2301 H   0  0  0  0  0  0  0  0  0  0  0  0
  142.8869   77.2429  217.1959 H   0  0  0  0  0  0  0  0  0  0  0  0
  139.9679   76.4320  216.9276 H   0  0  0  0  0  0  0  0  0  0  0  0
  140.7827   77.6529  215.8922 H   0  0  0  0  0  0  0  0  0  0  0  0
  141.3544   75.9501  215.8922 H   0  0  0  0  0  0  0  0  0  0  0  0
  141.2980   75.2000  218.5870 H   0  0  0  0  0  0  0  0  0  0  0  0
  142.8863   74.7482  221.2320 H   0  0  0  0  0  0  0  0  0  0  0  0
  145.4712   75.2236  220.1835 H   0  0  0  0  0  0  0  0  0  0  0  0
  145.1355   74.0956  221.5036 H   0  0  0  0  0  0  0  0  0  0  0  0
  145.6768   73.5290  218.5841 H   0  0  0  0  0  0  0  0  0  0  0  0
  145.8330   71.9010  220.8870 H   0  0  0  0  0  0  0  0  0  0  0  0
  143.8340   72.1551  218.1965 H   0  0  0  0  0  0  0  0  0  0  0  0
  143.8192   71.5217  219.8463 H   0  0  0  0  0  0  0  0  0  0  0  0
  139.8900   72.0856  220.6640 H   0  0  0  0  0  0  0  0  0  0  0  0
  141.5029   72.0531  221.4928 H   0  0  0  0  0  0  0  0  0  0  0  0
  140.5450   73.8230  222.7220 H   0  0  0  0  0  0  0  0  0  0  0  0
  137.9799   76.2910  222.4031 H   0  0  0  0  0  0  0  0  0  0  0  0
  138.1181   78.5355  223.4944 H   0  0  0  0  0  0  0  0  0  0  0  0
  139.4487   80.5405  224.0677 H   0  0  0  0  0  0  0  0  0  0  0  0
  143.5857   80.7705  222.8130 H   0  0  0  0  0  0  0  0  0  0  0  0
  143.3970   78.5230  221.7409 H   0  0  0  0  0  0  0  0  0  0  0  0
  138.9373   80.0140  219.9239 H   0  0  0  0  0  0  0  0  0  0  0  0
  1  2  1  0
  2  3  1  0
  3  4  2  0
  4  5  1  0
  5  6  2  0
  6  7  1  0
  7  8  1  0
  7  9  1  0
  9 10  1  0
 10 11  2  0
 10 12  1  0
 12 13  1  0
 13 14  1  0
 14 15  1  0
 14 16  1  0
 16 17  1  0
 17 18  1  0
 18 19  2  0
 18 20  1  0
 20 21  1  0
 21 22  1  0
 22 23  2  0
 22 24  1  0
 24 25  2  0
 25 26  1  0
 26 27  2  0
 27 28  1  0
 28 29  2  0
 29 30  1  0
 29 31  1  0
 31 32  2  0
 32 33  1  0
 33 34  2  0
  6 35  1  0
 35 36  1  0
 35 37  2  0
 37  3  1  0
 17 12  1  0
 34 24  1  0
 33 27  1  0
  1 38  1  0
  1 39  1  0
  1 40  1  0
  4 41  1  0
  5 42  1  0
  7 43  1  6
  8 44  1  0
  8 45  1  0
  8 46  1  0
  9 47  1  0
 12 48  1  1
 13 49  1  0
 13 50  1  0
 14 51  1  6
 15 52  1  0
 16 53  1  0
 16 54  1  0
 20 55  1  0
 20 56  1  0
 21 57  1  0
 25 58  1  0
 26 59  1  0
 28 60  1  0
 31 61  1  0
 32 62  1  0
 37 63  1  0
M  END
>  <UniqueID>  (48) 
3

>  <SMILES>  (48) 
COc1ccc([C@H](C)NC(=O)[C@@H]2C[C@@H](O)CN2C(=O)CNC(=O)c2ccc3cc(F)ccc3n2)c(Cl)c1

>  <Energy>  (48) 
63.932665242010444

>  <Genealogy>  (48) 
COc1ccc([C@H](C)NC(=O)[C@@H]2C[C@@H](O)CN2C(=O)CNC(=O)c2ccc3cc(F)ccc3n2)c(Cl)c1 (3D coordinates assigned)
COc1ccc([C@H](C)NC(=O)[C@@H]2C[C@@H](O)CN2C(=O)CNC(=O)c2ccc3cc(F)ccc3n2)c(Cl)c1 (nonaromatic ring conformer: 63.932665242010444 kcal/mol)

>  <smiles>  (48) 
COc1ccc([C@H](C)NC(=O)[C@@H]2C[C@@H](O)CN2C(=O)CNC(=O)c2ccc3cc(F)ccc3n2)c(Cl)c1

>  <score_type>  (48) 
oracle

>  <origin>  (48) 
autodockgpu

>  <m_score__min__energy>  (48) 
-9.4800000000000004

>  <m_primary>  (48) 
energy

>  <meeko>  (48) 
{"free_energy": -5.81, "intermolecular_energy": -8.49, "internal_energy": -5.47, "cluster_size": 10, "cluster_id": 7, "rank_in_cluster": 6}

>  <energy>  (48) 
-6.65

>  <cluster_rmsd>  (48) 
0.0

>  <rmsd>  (48) 
270.74

>  <cluster>  (48) 
5

$$$$
PMUWBFKMLGLUTF-QDRFXLRBNA-N
     RDKit          3D

 63 66  0  0  0  0  0  0  0  0999 V2000
  138.8480   82.1680  221.2830 C   0  0  0  0  0  0  0  0  0  0  0  0
  138.4090   81.1450  220.3940 O   0  0  0  0  0  0  0  0  0  0  0  0
  139.2520   80.1880  219.8090 C   0  0  0  0  0  0  0  0  0  0  0  0
  138.8810   78.8410  219.6720 C   0  0  0  0  0  0  0  0  0  0  0  0
  139.7570   77.9260  219.0880 C   0  0  0  0  0  0  0  0  0  0  0  0
  141.0270   78.3270  218.6290 C   0  0  0  0  0  0  0  0  0  0  0  0
  141.9310   77.2810  217.9950 C   0  0  2  0  0  0  0  0  0  0  0  0
  141.4910   76.9140  216.5720 C   0  0  0  0  0  0  0  0  0  0  0  0
  142.0320   76.0920  218.8490 N   0  0  0  0  0  0  0  0  0  0  0  0
  143.1870   75.8700  219.6740 C   0  0  0  0  0  0  0  0  0  0  0  0
  144.0790   76.7570  219.7600 O   0  0  0  0  0  0  0  0  0  0  0  0
  143.4080   74.5530  220.3730 C   0  0  2  0  0  0  0  0  0  0  0  0
  144.9020   74.2550  220.5340 C   0  0  0  0  0  0  0  0  0  0  0  0
  145.2170   73.1600  219.5090 C   0  0  1  0  0  0  0  0  0  0  0  0
  146.1790   72.2470  219.9790 O   0  0  0  0  0  0  0  0  0  0  0  0
  143.8810   72.4880  219.1920 C   0  0  0  0  0  0  0  0  0  0  0  0
  142.8620   73.4370  219.6080 N   0  0  0  0  0  0  0  0  0  0  0  0
  141.4660   73.0910  219.6060 C   0  0  0  0  0  0  0  0  0  0  0  0
  140.8060   73.1620  218.5350 O   0  0  0  0  0  0  0  0  0  0  0  0
  140.7640   72.7020  220.8730 C   0  0  0  0  0  0  0  0  0  0  0  0
  140.4310   73.8670  221.6880 N   0  0  0  0  0  0  0  0  0  0  0  0
  139.9420   75.0670  221.0750 C   0  0  0  0  0  0  0  0  0  0  0  0
  139.4470   75.0180  219.9150 O   0  0  0  0  0  0  0  0  0  0  0  0
  140.0320   76.3600  221.7800 C   0  0  0  0  0  0  0  0  0  0  0  0
  138.9290   76.8870  222.4760 C   0  0  0  0  0  0  0  0  0  0  0  0
  139.0310   78.1340  223.0950 C   0  0  0  0  0  0  0  0  0  0  0  0
  140.2310   78.8510  223.0230 C   0  0  0  0  0  0  0  0  0  0  0  0
  140.3690   80.1090  223.6280 C   0  0  0  0  0  0  0  0  0  0  0  0
  141.5810   80.8020  223.5320 C   0  0  0  0  0  0  0  0  0  0  0  0
  141.7130   82.0180  224.1190 F   0  0  0  0  0  0  0  0  0  0  0  0
  142.6590   80.2430  222.8360 C   0  0  0  0  0  0  0  0  0  0  0  0
  142.5300   78.9890  222.2280 C   0  0  0  0  0  0  0  0  0  0  0  0
  141.3220   78.2890  222.3200 C   0  0  0  0  0  0  0  0  0  0  0  0
  141.1920   77.0740  221.7270 N   0  0  0  0  0  0  0  0  0  0  0  0
  141.3950   79.6890  218.7620 C   0  0  0  0  0  0  0  0  0  0  0  0
  142.9450   80.3210  218.2110 Cl  0  0  0  0  0  0  0  0  0  0  0  0
  140.5050   80.6000  219.3480 C   0  0  0  0  0  0  0  0  0  0  0  0
  138.7058   81.8366  222.3222 H   0  0  0  0  0  0  0  0  0  0  0  0
  139.9140   82.3745  221.1066 H   0  0  0  0  0  0  0  0  0  0  0  0
  138.2633   83.0828  221.1066 H   0  0  0  0  0  0  0  0  0  0  0  0
  137.8952   78.5057  220.0267 H   0  0  0  0  0  0  0  0  0  0  0  0
  139.4512   76.8745  218.9842 H   0  0  0  0  0  0  0  0  0  0  0  0
  142.9326   77.7271  217.9072 H   0  0  0  0  0  0  0  0  0  0  0  0
  140.6470   76.2101  216.6192 H   0  0  0  0  0  0  0  0  0  0  0  0
  141.1799   77.8241  216.0382 H   0  0  0  0  0  0  0  0  0  0  0  0
  142.3305   76.4447  216.0382 H   0  0  0  0  0  0  0  0  0  0  0  0
  141.2900   75.3570  218.8040 H   0  0  0  0  0  0  0  0  0  0  0  0
  142.9065   74.6475  221.3475 H   0  0  0  0  0  0  0  0  0  0  0  0
  145.4977   75.1565  220.3280 H   0  0  0  0  0  0  0  0  0  0  0  0
  145.1451   73.9357  221.5582 H   0  0  0  0  0  0  0  0  0  0  0  0
  145.6686   73.5867  218.6013 H   0  0  0  0  0  0  0  0  0  0  0  0
  145.8760   71.9110  220.8630 H   0  0  0  0  0  0  0  0  0  0  0  0
  143.7993   72.2837  218.1142 H   0  0  0  0  0  0  0  0  0  0  0  0
  143.7761   71.5229  219.7094 H   0  0  0  0  0  0  0  0  0  0  0  0
  139.8361   72.1696  220.6169 H   0  0  0  0  0  0  0  0  0  0  0  0
  141.4407   72.0594  221.4554 H   0  0  0  0  0  0  0  0  0  0  0  0
  140.5980   73.8490  222.7200 H   0  0  0  0  0  0  0  0  0  0  0  0
  137.9891   76.3183  222.5323 H   0  0  0  0  0  0  0  0  0  0  0  0
  138.1706   78.5521  223.6380 H   0  0  0  0  0  0  0  0  0  0  0  0
  139.5248   80.5507  224.1778 H   0  0  0  0  0  0  0  0  0  0  0  0
  143.6103   80.7908  222.7667 H   0  0  0  0  0  0  0  0  0  0  0  0
  143.3777   78.5541  221.6782 H   0  0  0  0  0  0  0  0  0  0  0  0
  140.7977   81.6558  219.4464 H   0  0  0  0  0  0  0  0  0  0  0  0
  1  2  1  0
  2  3  1  0
  3  4  2  0
  4  5  1  0
  5  6  2  0
  6  7  1  0
  7  8  1  0
  7  9  1  0
  9 10  1  0
 10 11  2  0
 10 12  1  0
 12 13  1  0
 13 14  1  0
 14 15  1  0
 14 16  1  0
 16 17  1  0
 17 18  1  0
 18 19  2  0
 18 20  1  0
 20 21  1  0
 21 22  1  0
 22 23  2  0
 22 24  1  0
 24 25  2  0
 25 26  1  0
 26 27  2  0
 27 28  1  0
 28 29  2  0
 29 30  1  0
 29 31  1  0
 31 32  2  0
 32 33  1  0
 33 34  2  0
  6 35  1  0
 35 36  1  0
 35 37  2  0
 37  3  1  0
 17 12  1  0
 34 24  1  0
 33 27  1  0
  1 38  1  0
  1 39  1  0
  1 40  1  0
  4 41  1  0
  5 42  1  0
  7 43  1  6
  8 44  1  0
  8 45  1  0
  8 46  1  0
  9 47  1  0
 12 48  1  1
 13 49  1  0
 13 50  1  0
 14 51  1  6
 15 52  1  0
 16 53  1  0
 16 54  1  0
 20 55  1  0
 20 56  1  0
 21 57  1  0
 25 58  1  0
 26 59  1  0
 28 60  1  0
 31 61  1  0
 32 62  1  0
 37 63  1  0
M  END
>  <UniqueID>  (49) 
3

>  <SMILES>  (49) 
COc1ccc([C@H](C)NC(=O)[C@@H]2C[C@@H](O)CN2C(=O)CNC(=O)c2ccc3cc(F)ccc3n2)c(Cl)c1

>  <Energy>  (49) 
63.932665242010444

>  <Genealogy>  (49) 
COc1ccc([C@H](C)NC(=O)[C@@H]2C[C@@H](O)CN2C(=O)CNC(=O)c2ccc3cc(F)ccc3n2)c(Cl)c1 (3D coordinates assigned)
COc1ccc([C@H](C)NC(=O)[C@@H]2C[C@@H](O)CN2C(=O)CNC(=O)c2ccc3cc(F)ccc3n2)c(Cl)c1 (nonaromatic ring conformer: 63.932665242010444 kcal/mol)

>  <smiles>  (49) 
COc1ccc([C@H](C)NC(=O)[C@@H]2C[C@@H](O)CN2C(=O)CNC(=O)c2ccc3cc(F)ccc3n2)c(Cl)c1

>  <score_type>  (49) 
oracle

>  <origin>  (49) 
autodockgpu

>  <m_score__min__energy>  (49) 
-9.4800000000000004

>  <m_primary>  (49) 
energy

>  <meeko>  (49) 
{"free_energy": -5.56, "intermolecular_energy": -8.24, "internal_energy": -5.53, "cluster_size": 10, "cluster_id": 7, "rank_in_cluster": 9}

>  <energy>  (49) 
-6.51

>  <cluster_rmsd>  (49) 
0.0

>  <rmsd>  (49) 
271.26

>  <cluster>  (49) 
6

$$$$
PMUWBFKMLGLUTF-QDRFXLRBNA-N
     RDKit          3D

 63 66  0  0  0  0  0  0  0  0999 V2000
  138.5140   81.7700  220.8050 C   0  0  0  0  0  0  0  0  0  0  0  0
  138.0400   80.5180  220.3180 O   0  0  0  0  0  0  0  0  0  0  0  0
  138.8510   79.5390  219.7250 C   0  0  0  0  0  0  0  0  0  0  0  0
  138.4180   78.2190  219.5290 C   0  0  0  0  0  0  0  0  0  0  0  0
  139.2640   77.2800  218.9400 C   0  0  0  0  0  0  0  0  0  0  0  0
  140.5660   77.6310  218.5330 C   0  0  0  0  0  0  0  0  0  0  0  0
  141.4370   76.5610  217.8890 C   0  0  2  0  0  0  0  0  0  0  0  0
  140.8280   76.0180  216.5900 C   0  0  0  0  0  0  0  0  0  0  0  0
  141.7260   75.4830  218.8400 N   0  0  0  0  0  0  0  0  0  0  0  0
  142.9360   75.4840  219.6150 C   0  0  0  0  0  0  0  0  0  0  0  0
  143.7100   76.4770  219.5700 O   0  0  0  0  0  0  0  0  0  0  0  0
  143.3530   74.2770  220.4160 C   0  0  2  0  0  0  0  0  0  0  0  0
  144.8780   74.1750  220.5110 C   0  0  0  0  0  0  0  0  0  0  0  0
  145.2740   73.0300  219.5730 C   0  0  1  0  0  0  0  0  0  0  0  0
  146.3640   72.2880  220.0630 O   0  0  0  0  0  0  0  0  0  0  0  0
  144.0170   72.1770  219.4030 C   0  0  0  0  0  0  0  0  0  0  0  0
  142.9100   73.0350  219.7930 N   0  0  0  0  0  0  0  0  0  0  0  0
  141.5710   72.5270  219.9090 C   0  0  0  0  0  0  0  0  0  0  0  0
  140.8580   72.4000  218.8770 O   0  0  0  0  0  0  0  0  0  0  0  0
  140.9810   72.2010  221.2500 C   0  0  0  0  0  0  0  0  0  0  0  0
  140.5630   73.4040  221.9650 N   0  0  0  0  0  0  0  0  0  0  0  0
  139.9110   74.4740  221.2690 C   0  0  0  0  0  0  0  0  0  0  0  0
  139.3640   74.2510  220.1540 O   0  0  0  0  0  0  0  0  0  0  0  0
  139.8940   75.8370  221.8370 C   0  0  0  0  0  0  0  0  0  0  0  0
  138.7360   76.3560  222.4430 C   0  0  0  0  0  0  0  0  0  0  0  0
  138.7370   77.6650  222.9290 C   0  0  0  0  0  0  0  0  0  0  0  0
  139.8890   78.4500  222.8140 C   0  0  0  0  0  0  0  0  0  0  0  0
  139.9250   79.7710  223.2860 C   0  0  0  0  0  0  0  0  0  0  0  0
  141.0930   80.5300  223.1510 C   0  0  0  0  0  0  0  0  0  0  0  0
  141.1260   81.8070  223.6100 F   0  0  0  0  0  0  0  0  0  0  0  0
  142.2280   79.9770  222.5470 C   0  0  0  0  0  0  0  0  0  0  0  0
  142.2000   78.6610  222.0720 C   0  0  0  0  0  0  0  0  0  0  0  0
  141.0370   77.8940  222.2040 C   0  0  0  0  0  0  0  0  0  0  0  0
  141.0060   76.6170  221.7400 N   0  0  0  0  0  0  0  0  0  0  0  0
  140.9980   78.9670  218.7250 C   0  0  0  0  0  0  0  0  0  0  0  0
  142.5950   79.5360  218.2430 Cl  0  0  0  0  0  0  0  0  0  0  0  0
  140.1370   79.9010  219.3160 C   0  0  0  0  0  0  0  0  0  0  0  0
  138.5105   81.7607  221.9049 H   0  0  0  0  0  0  0  0  0  0  0  0
  139.5387   81.9400  220.4430 H   0  0  0  0  0  0  0  0  0  0  0  0
  137.8588   82.5761  220.4430 H   0  0  0  0  0  0  0  0  0  0  0  0
  137.4057   77.9232  219.8417 H   0  0  0  0  0  0  0  0  0  0  0  0
  138.9092   76.2495  218.7909 H   0  0  0  0  0  0  0  0  0  0  0  0
  142.3889   77.0375  217.6119 H   0  0  0  0  0  0  0  0  0  0  0  0
  140.0269   75.3037  216.8311 H   0  0  0  0  0  0  0  0  0  0  0  0
  140.4125   76.8508  216.0037 H   0  0  0  0  0  0  0  0  0  0  0  0
  141.6079   75.5101  216.0037 H   0  0  0  0  0  0  0  0  0  0  0  0
  141.0820   74.6620  218.9040 H   0  0  0  0  0  0  0  0  0  0  0  0
  142.8937   74.4069  221.4071 H   0  0  0  0  0  0  0  0  0  0  0  0
  145.3466   75.1160  220.1872 H   0  0  0  0  0  0  0  0  0  0  0  0
  145.2098   73.9887  221.5431 H   0  0  0  0  0  0  0  0  0  0  0  0
  145.6231   73.4159  218.6039 H   0  0  0  0  0  0  0  0  0  0  0  0
  146.0640   71.8030  220.8760 H   0  0  0  0  0  0  0  0  0  0  0  0
  143.9067   71.8593  218.3557 H   0  0  0  0  0  0  0  0  0  0  0  0
  144.0589   71.2623  220.0125 H   0  0  0  0  0  0  0  0  0  0  0  0
  140.1059   71.5504  221.1054 H   0  0  0  0  0  0  0  0  0  0  0  0
  141.7530   71.6972  221.8501 H   0  0  0  0  0  0  0  0  0  0  0  0
  140.7860   73.5120  222.9810 H   0  0  0  0  0  0  0  0  0  0  0  0
  137.8335   75.7336  222.5337 H   0  0  0  0  0  0  0  0  0  0  0  0
  137.8336   78.0781  223.4014 H   0  0  0  0  0  0  0  0  0  0  0  0
  139.0356   80.2097  223.7619 H   0  0  0  0  0  0  0  0  0  0  0  0
  143.1437   80.5779  222.4455 H   0  0  0  0  0  0  0  0  0  0  0  0
  143.0922   78.2294  221.5949 H   0  0  0  0  0  0  0  0  0  0  0  0
  140.4791   80.9364  219.4604 H   0  0  0  0  0  0  0  0  0  0  0  0
  1  2  1  0
  2  3  1  0
  3  4  2  0
  4  5  1  0
  5  6  2  0
  6  7  1  0
  7  8  1  0
  7  9  1  0
  9 10  1  0
 10 11  2  0
 10 12  1  0
 12 13  1  0
 13 14  1  0
 14 15  1  0
 14 16  1  0
 16 17  1  0
 17 18  1  0
 18 19  2  0
 18 20  1  0
 20 21  1  0
 21 22  1  0
 22 23  2  0
 22 24  1  0
 24 25  2  0
 25 26  1  0
 26 27  2  0
 27 28  1  0
 28 29  2  0
 29 30  1  0
 29 31  1  0
 31 32  2  0
 32 33  1  0
 33 34  2  0
  6 35  1  0
 35 36  1  0
 35 37  2  0
 37  3  1  0
 17 12  1  0
 34 24  1  0
 33 27  1  0
  1 38  1  0
  1 39  1  0
  1 40  1  0
  4 41  1  0
  5 42  1  0
  7 43  1  6
  8 44  1  0
  8 45  1  0
  8 46  1  0
  9 47  1  0
 12 48  1  1
 13 49  1  0
 13 50  1  0
 14 51  1  6
 15 52  1  0
 16 53  1  0
 16 54  1  0
 20 55  1  0
 20 56  1  0
 21 57  1  0
 25 58  1  0
 26 59  1  0
 28 60  1  0
 31 61  1  0
 32 62  1  0
 37 63  1  0
M  END
>  <UniqueID>  (50) 
3

>  <SMILES>  (50) 
COc1ccc([C@H](C)NC(=O)[C@@H]2C[C@@H](O)CN2C(=O)CNC(=O)c2ccc3cc(F)ccc3n2)c(Cl)c1

>  <Energy>  (50) 
63.932665242010444

>  <Genealogy>  (50) 
COc1ccc([C@H](C)NC(=O)[C@@H]2C[C@@H](O)CN2C(=O)CNC(=O)c2ccc3cc(F)ccc3n2)c(Cl)c1 (3D coordinates assigned)
COc1ccc([C@H](C)NC(=O)[C@@H]2C[C@@H](O)CN2C(=O)CNC(=O)c2ccc3cc(F)ccc3n2)c(Cl)c1 (nonaromatic ring conformer: 63.932665242010444 kcal/mol)

>  <smiles>  (50) 
COc1ccc([C@H](C)NC(=O)[C@@H]2C[C@@H](O)CN2C(=O)CNC(=O)c2ccc3cc(F)ccc3n2)c(Cl)c1

>  <score_type>  (50) 
oracle

>  <origin>  (50) 
autodockgpu

>  <m_score__min__energy>  (50) 
-9.4800000000000004

>  <m_primary>  (50) 
energy

>  <meeko>  (50) 
{"free_energy": -5.22, "intermolecular_energy": -7.9, "internal_energy": -5.73, "cluster_size": 10, "cluster_id": 7, "rank_in_cluster": 10}

>  <energy>  (50) 
-6.14

>  <cluster_rmsd>  (50) 
0.0

>  <rmsd>  (50) 
271.51

>  <cluster>  (50) 
7

$$$$
PMUWBFKMLGLUTF-QDRFXLRBNA-N
     RDKit          3D

 63 66  0  0  0  0  0  0  0  0999 V2000
  140.1250   82.5210  220.8790 C   0  0  0  0  0  0  0  0  0  0  0  0
  141.2270   82.1540  220.0550 O   0  0  0  0  0  0  0  0  0  0  0  0
  141.3720   80.9030  219.4360 C   0  0  0  0  0  0  0  0  0  0  0  0
  142.5600   80.5100  218.8020 C   0  0  0  0  0  0  0  0  0  0  0  0
  142.6530   79.2570  218.1940 C   0  0  0  0  0  0  0  0  0  0  0  0
  141.5630   78.3650  218.2000 C   0  0  0  0  0  0  0  0  0  0  0  0
  141.7320   77.0100  217.5280 C   0  0  2  0  0  0  0  0  0  0  0  0
  140.6100   76.7130  216.5260 C   0  0  0  0  0  0  0  0  0  0  0  0
  141.8570   75.9440  218.5280 N   0  0  0  0  0  0  0  0  0  0  0  0
  143.0130   75.8580  219.3770 C   0  0  0  0  0  0  0  0  0  0  0  0
  143.8830   76.7690  219.3490 O   0  0  0  0  0  0  0  0  0  0  0  0
  143.2620   74.6460  220.2380 C   0  0  2  0  0  0  0  0  0  0  0  0
  144.7600   74.4360  220.4800 C   0  0  0  0  0  0  0  0  0  0  0  0
  145.1530   73.2390  219.6080 C   0  0  1  0  0  0  0  0  0  0  0  0
  146.1340   72.4330  220.2150 O   0  0  0  0  0  0  0  0  0  0  0  0
  143.8570   72.4760  219.3370 C   0  0  0  0  0  0  0  0  0  0  0  0
  142.7870   73.4230  219.6020 N   0  0  0  0  0  0  0  0  0  0  0  0
  141.4070   73.0180  219.6020 C   0  0  0  0  0  0  0  0  0  0  0  0
  140.7550   73.0220  218.5230 O   0  0  0  0  0  0  0  0  0  0  0  0
  140.7100   72.6470  220.8770 C   0  0  0  0  0  0  0  0  0  0  0  0
  140.3850   73.8230  221.6800 N   0  0  0  0  0  0  0  0  0  0  0  0
  139.9160   75.0240  221.0530 C   0  0  0  0  0  0  0  0  0  0  0  0
  139.4290   74.9710  219.8890 O   0  0  0  0  0  0  0  0  0  0  0  0
  140.0170   76.3210  221.7480 C   0  0  0  0  0  0  0  0  0  0  0  0
  138.9200   76.8590  222.4450 C   0  0  0  0  0  0  0  0  0  0  0  0
  139.0320   78.1110  223.0540 C   0  0  0  0  0  0  0  0  0  0  0  0
  140.2360   78.8200  222.9710 C   0  0  0  0  0  0  0  0  0  0  0  0
  140.3830   80.0820  223.5670 C   0  0  0  0  0  0  0  0  0  0  0  0
  141.5990   80.7670  223.4610 C   0  0  0  0  0  0  0  0  0  0  0  0
  141.7410   81.9860  224.0380 F   0  0  0  0  0  0  0  0  0  0  0  0
  142.6710   80.1970  222.7630 C   0  0  0  0  0  0  0  0  0  0  0  0
  142.5310   78.9390  222.1660 C   0  0  0  0  0  0  0  0  0  0  0  0
  141.3200   78.2470  222.2680 C   0  0  0  0  0  0  0  0  0  0  0  0
  141.1800   77.0280  221.6840 N   0  0  0  0  0  0  0  0  0  0  0  0
  140.3670   78.7620  218.8490 C   0  0  0  0  0  0  0  0  0  0  0  0
  138.9400   77.7320  218.9420 Cl  0  0  0  0  0  0  0  0  0  0  0  0
  140.2870   80.0220  219.4570 C   0  0  0  0  0  0  0  0  0  0  0  0
  140.4106   82.4259  221.9370 H   0  0  0  0  0  0  0  0  0  0  0  0
  139.8404   83.5624  220.6682 H   0  0  0  0  0  0  0  0  0  0  0  0
  139.2728   81.8582  220.6682 H   0  0  0  0  0  0  0  0  0  0  0  0
  143.4224   81.1926  218.7839 H   0  0  0  0  0  0  0  0  0  0  0  0
  143.5918   78.9617  217.7027 H   0  0  0  0  0  0  0  0  0  0  0  0
  142.6663   77.0470  216.9486 H   0  0  0  0  0  0  0  0  0  0  0  0
  139.6865   76.4685  217.0714 H   0  0  0  0  0  0  0  0  0  0  0  0
  140.4394   77.5969  215.8939 H   0  0  0  0  0  0  0  0  0  0  0  0
  140.8991   75.8604  215.8939 H   0  0  0  0  0  0  0  0  0  0  0  0
  141.1330   75.1920  218.5770 H   0  0  0  0  0  0  0  0  0  0  0  0
  142.7232   74.8362  221.1780 H   0  0  0  0  0  0  0  0  0  0  0  0
  145.3264   75.3307  220.1822 H   0  0  0  0  0  0  0  0  0  0  0  0
  144.9799   74.2558  221.5426 H   0  0  0  0  0  0  0  0  0  0  0  0
  145.6183   73.5710  218.6682 H   0  0  0  0  0  0  0  0  0  0  0  0
  145.6890   71.8780  220.9070 H   0  0  0  0  0  0  0  0  0  0  0  0
  143.8212   72.1382  218.2908 H   0  0  0  0  0  0  0  0  0  0  0  0
  143.7726   71.5779  219.9665 H   0  0  0  0  0  0  0  0  0  0  0  0
  139.7790   72.1149  220.6319 H   0  0  0  0  0  0  0  0  0  0  0  0
  141.3875   72.0092  221.4637 H   0  0  0  0  0  0  0  0  0  0  0  0
  140.5440   73.8120  222.7130 H   0  0  0  0  0  0  0  0  0  0  0  0
  137.9774   76.2958  222.5102 H   0  0  0  0  0  0  0  0  0  0  0  0
  138.1764   78.5386  223.5973 H   0  0  0  0  0  0  0  0  0  0  0  0
  139.5435   80.5324  224.1169 H   0  0  0  0  0  0  0  0  0  0  0  0
  143.6249   80.7391  222.6838 H   0  0  0  0  0  0  0  0  0  0  0  0
  143.3737   78.4944  221.6164 H   0  0  0  0  0  0  0  0  0  0  0  0
  139.3554   80.3226  219.9588 H   0  0  0  0  0  0  0  0  0  0  0  0
  1  2  1  0
  2  3  1  0
  3  4  2  0
  4  5  1  0
  5  6  2  0
  6  7  1  0
  7  8  1  0
  7  9  1  0
  9 10  1  0
 10 11  2  0
 10 12  1  0
 12 13  1  0
 13 14  1  0
 14 15  1  0
 14 16  1  0
 16 17  1  0
 17 18  1  0
 18 19  2  0
 18 20  1  0
 20 21  1  0
 21 22  1  0
 22 23  2  0
 22 24  1  0
 24 25  2  0
 25 26  1  0
 26 27  2  0
 27 28  1  0
 28 29  2  0
 29 30  1  0
 29 31  1  0
 31 32  2  0
 32 33  1  0
 33 34  2  0
  6 35  1  0
 35 36  1  0
 35 37  2  0
 37  3  1  0
 17 12  1  0
 34 24  1  0
 33 27  1  0
  1 38  1  0
  1 39  1  0
  1 40  1  0
  4 41  1  0
  5 42  1  0
  7 43  1  6
  8 44  1  0
  8 45  1  0
  8 46  1  0
  9 47  1  0
 12 48  1  1
 13 49  1  0
 13 50  1  0
 14 51  1  6
 15 52  1  0
 16 53  1  0
 16 54  1  0
 20 55  1  0
 20 56  1  0
 21 57  1  0
 25 58  1  0
 26 59  1  0
 28 60  1  0
 31 61  1  0
 32 62  1  0
 37 63  1  0
M  END
>  <UniqueID>  (51) 
3

>  <SMILES>  (51) 
COc1ccc([C@H](C)NC(=O)[C@@H]2C[C@@H](O)CN2C(=O)CNC(=O)c2ccc3cc(F)ccc3n2)c(Cl)c1

>  <Energy>  (51) 
63.932665242010444

>  <Genealogy>  (51) 
COc1ccc([C@H](C)NC(=O)[C@@H]2C[C@@H](O)CN2C(=O)CNC(=O)c2ccc3cc(F)ccc3n2)c(Cl)c1 (3D coordinates assigned)
COc1ccc([C@H](C)NC(=O)[C@@H]2C[C@@H](O)CN2C(=O)CNC(=O)c2ccc3cc(F)ccc3n2)c(Cl)c1 (nonaromatic ring conformer: 63.932665242010444 kcal/mol)

>  <smiles>  (51) 
COc1ccc([C@H](C)NC(=O)[C@@H]2C[C@@H](O)CN2C(=O)CNC(=O)c2ccc3cc(F)ccc3n2)c(Cl)c1

>  <score_type>  (51) 
oracle

>  <origin>  (51) 
autodockgpu

>  <m_score__min__energy>  (51) 
-9.4800000000000004

>  <m_primary>  (51) 
energy

>  <meeko>  (51) 
{"free_energy": -5.82, "intermolecular_energy": -8.51, "internal_energy": -5.46, "cluster_size": 10, "cluster_id": 7, "rank_in_cluster": 4}

>  <energy>  (51) 
-5.96

>  <cluster_rmsd>  (51) 
0.57

>  <rmsd>  (51) 
271.27

>  <cluster>  (51) 
7

$$$$
PMUWBFKMLGLUTF-QDRFXLRBNA-N
     RDKit          3D

 63 66  0  0  0  0  0  0  0  0999 V2000
  140.4180   82.8080  221.0580 C   0  0  0  0  0  0  0  0  0  0  0  0
  141.3850   82.3830  220.1040 O   0  0  0  0  0  0  0  0  0  0  0  0
  141.4150   81.1080  219.5190 C   0  0  0  0  0  0  0  0  0  0  0  0
  142.5650   80.5870  218.9060 C   0  0  0  0  0  0  0  0  0  0  0  0
  142.5430   79.3150  218.3330 C   0  0  0  0  0  0  0  0  0  0  0  0
  141.3740   78.5300  218.3550 C   0  0  0  0  0  0  0  0  0  0  0  0
  141.4190   77.1470  217.7200 C   0  0  2  0  0  0  0  0  0  0  0  0
  140.2830   76.9310  216.7120 C   0  0  0  0  0  0  0  0  0  0  0  0
  141.4310   76.1020  218.7500 N   0  0  0  0  0  0  0  0  0  0  0  0
  142.5840   75.8960  219.5820 C   0  0  0  0  0  0  0  0  0  0  0  0
  143.5590   76.6910  219.5130 O   0  0  0  0  0  0  0  0  0  0  0  0
  142.6970   74.6880  220.4760 C   0  0  2  0  0  0  0  0  0  0  0  0
  144.1620   74.2870  220.6830 C   0  0  0  0  0  0  0  0  0  0  0  0
  144.3660   73.0240  219.8400 C   0  0  1  0  0  0  0  0  0  0  0  0
  145.2510   72.1130  220.4460 O   0  0  0  0  0  0  0  0  0  0  0  0
  142.9730   72.4320  219.6300 C   0  0  0  0  0  0  0  0  0  0  0  0
  142.0460   73.5200  219.8930 N   0  0  0  0  0  0  0  0  0  0  0  0
  140.6260   73.3020  219.9440 C   0  0  0  0  0  0  0  0  0  0  0  0
  139.9440   73.3760  218.8860 O   0  0  0  0  0  0  0  0  0  0  0  0
  139.9280   73.0470  221.2470 C   0  0  0  0  0  0  0  0  0  0  0  0
  139.7560   74.2740  222.0200 N   0  0  0  0  0  0  0  0  0  0  0  0
  139.4930   75.5190  221.3580 C   0  0  0  0  0  0  0  0  0  0  0  0
  139.0430   75.5160  220.1790 O   0  0  0  0  0  0  0  0  0  0  0  0
  139.7640   76.8010  222.0370 C   0  0  0  0  0  0  0  0  0  0  0  0
  138.7420   77.4980  222.7070 C   0  0  0  0  0  0  0  0  0  0  0  0
  139.0180   78.7310  223.3010 C   0  0  0  0  0  0  0  0  0  0  0  0
  140.3100   79.2640  223.2290 C   0  0  0  0  0  0  0  0  0  0  0  0
  140.6240   80.5030  223.8090 C   0  0  0  0  0  0  0  0  0  0  0  0
  141.9250   81.0090  223.7140 C   0  0  0  0  0  0  0  0  0  0  0  0
  142.2270   82.2060  224.2770 F   0  0  0  0  0  0  0  0  0  0  0  0
  142.9170   80.2840  223.0440 C   0  0  0  0  0  0  0  0  0  0  0  0
  142.6120   79.0490  222.4620 C   0  0  0  0  0  0  0  0  0  0  0  0
  141.3140   78.5340  222.5520 C   0  0  0  0  0  0  0  0  0  0  0  0
  141.0150   77.3370  221.9840 N   0  0  0  0  0  0  0  0  0  0  0  0
  140.2170   79.0550  218.9820 C   0  0  0  0  0  0  0  0  0  0  0  0
  138.7000   78.1660  219.0920 Cl  0  0  0  0  0  0  0  0  0  0  0  0
  140.2530   80.3330  219.5560 C   0  0  0  0  0  0  0  0  0  0  0  0
  140.8053   82.6378  222.0734 H   0  0  0  0  0  0  0  0  0  0  0  0
  140.2121   83.8796  220.9189 H   0  0  0  0  0  0  0  0  0  0  0  0
  139.4893   82.2351  220.9189 H   0  0  0  0  0  0  0  0  0  0  0  0
  143.4882   81.1844  218.8772 H   0  0  0  0  0  0  0  0  0  0  0  0
  143.4523   78.9194  217.8569 H   0  0  0  0  0  0  0  0  0  0  0  0
  142.3578   77.0787  217.1508 H   0  0  0  0  0  0  0  0  0  0  0  0
  139.3420   76.7521  217.2528 H   0  0  0  0  0  0  0  0  0  0  0  0
  140.1784   77.8254  216.0802 H   0  0  0  0  0  0  0  0  0  0  0  0
  140.5140   76.0607  216.0802 H   0  0  0  0  0  0  0  0  0  0  0  0
  140.6200   75.4470  218.8330 H   0  0  0  0  0  0  0  0  0  0  0  0
  142.2174   74.9759  221.4231 H   0  0  0  0  0  0  0  0  0  0  0  0
  144.8319   75.0896  220.3407 H   0  0  0  0  0  0  0  0  0  0  0  0
  144.3895   74.1093  221.7444 H   0  0  0  0  0  0  0  0  0  0  0  0
  144.8407   73.2642  218.8772 H   0  0  0  0  0  0  0  0  0  0  0  0
  144.8490   71.8230  221.3070 H   0  0  0  0  0  0  0  0  0  0  0  0
  142.8600   72.0717  218.5968 H   0  0  0  0  0  0  0  0  0  0  0  0
  142.7910   71.5716  220.2907 H   0  0  0  0  0  0  0  0  0  0  0  0
  138.9379   72.6140  221.0416 H   0  0  0  0  0  0  0  0  0  0  0  0
  140.5476   72.3556  221.8369 H   0  0  0  0  0  0  0  0  0  0  0  0
  139.8770   74.2610  223.0580 H   0  0  0  0  0  0  0  0  0  0  0  0
  137.7290   77.0730  222.7627 H   0  0  0  0  0  0  0  0  0  0  0  0
  138.2223   79.2818  223.8240 H   0  0  0  0  0  0  0  0  0  0  0  0
  139.8479   81.0757  224.3378 H   0  0  0  0  0  0  0  0  0  0  0  0
  143.9386   80.6860  222.9749 H   0  0  0  0  0  0  0  0  0  0  0  0
  143.3928   78.4825  221.9334 H   0  0  0  0  0  0  0  0  0  0  0  0
  139.3516   80.7325  220.0437 H   0  0  0  0  0  0  0  0  0  0  0  0
  1  2  1  0
  2  3  1  0
  3  4  2  0
  4  5  1  0
  5  6  2  0
  6  7  1  0
  7  8  1  0
  7  9  1  0
  9 10  1  0
 10 11  2  0
 10 12  1  0
 12 13  1  0
 13 14  1  0
 14 15  1  0
 14 16  1  0
 16 17  1  0
 17 18  1  0
 18 19  2  0
 18 20  1  0
 20 21  1  0
 21 22  1  0
 22 23  2  0
 22 24  1  0
 24 25  2  0
 25 26  1  0
 26 27  2  0
 27 28  1  0
 28 29  2  0
 29 30  1  0
 29 31  1  0
 31 32  2  0
 32 33  1  0
 33 34  2  0
  6 35  1  0
 35 36  1  0
 35 37  2  0
 37  3  1  0
 17 12  1  0
 34 24  1  0
 33 27  1  0
  1 38  1  0
  1 39  1  0
  1 40  1  0
  4 41  1  0
  5 42  1  0
  7 43  1  6
  8 44  1  0
  8 45  1  0
  8 46  1  0
  9 47  1  0
 12 48  1  1
 13 49  1  0
 13 50  1  0
 14 51  1  6
 15 52  1  0
 16 53  1  0
 16 54  1  0
 20 55  1  0
 20 56  1  0
 21 57  1  0
 25 58  1  0
 26 59  1  0
 28 60  1  0
 31 61  1  0
 32 62  1  0
 37 63  1  0
M  END
>  <UniqueID>  (52) 
3

>  <SMILES>  (52) 
COc1ccc([C@H](C)NC(=O)[C@@H]2C[C@@H](O)CN2C(=O)CNC(=O)c2ccc3cc(F)ccc3n2)c(Cl)c1

>  <Energy>  (52) 
63.932665242010444

>  <Genealogy>  (52) 
COc1ccc([C@H](C)NC(=O)[C@@H]2C[C@@H](O)CN2C(=O)CNC(=O)c2ccc3cc(F)ccc3n2)c(Cl)c1 (3D coordinates assigned)
COc1ccc([C@H](C)NC(=O)[C@@H]2C[C@@H](O)CN2C(=O)CNC(=O)c2ccc3cc(F)ccc3n2)c(Cl)c1 (nonaromatic ring conformer: 63.932665242010444 kcal/mol)

>  <smiles>  (52) 
COc1ccc([C@H](C)NC(=O)[C@@H]2C[C@@H](O)CN2C(=O)CNC(=O)c2ccc3cc(F)ccc3n2)c(Cl)c1

>  <score_type>  (52) 
oracle

>  <origin>  (52) 
autodockgpu

>  <m_score__min__energy>  (52) 
-9.4800000000000004

>  <m_primary>  (52) 
energy

>  <meeko>  (52) 
{"free_energy": -5.85, "intermolecular_energy": -8.54, "internal_energy": -5.38, "cluster_size": 10, "cluster_id": 7, "rank_in_cluster": 3}

>  <energy>  (52) 
-5.85

>  <cluster_rmsd>  (52) 
0.9

>  <rmsd>  (52) 
271.39

>  <cluster>  (52) 
7

$$$$
PMUWBFKMLGLUTF-QDRFXLRBNA-N
     RDKit          3D

 63 66  0  0  0  0  0  0  0  0999 V2000
  139.8620   69.0840  219.6260 C   0  0  0  0  0  0  0  0  0  0  0  0
  141.1960   69.4580  219.9550 O   0  0  0  0  0  0  0  0  0  0  0  0
  141.6850   70.7720  219.9100 C   0  0  0  0  0  0  0  0  0  0  0  0
  142.8480   71.1680  220.5900 C   0  0  0  0  0  0  0  0  0  0  0  0
  143.2900   72.4880  220.5190 C   0  0  0  0  0  0  0  0  0  0  0  0
  142.5850   73.4510  219.7710 C   0  0  0  0  0  0  0  0  0  0  0  0
  143.1260   74.8730  219.7270 C   0  0  2  0  0  0  0  0  0  0  0  0
  144.5690   74.9650  220.2390 C   0  0  0  0  0  0  0  0  0  0  0  0
  142.2380   75.7900  220.4530 N   0  0  0  0  0  0  0  0  0  0  0  0
  141.5240   76.8280  219.7630 C   0  0  0  0  0  0  0  0  0  0  0  0
  141.5620   76.8880  218.5050 O   0  0  0  0  0  0  0  0  0  0  0  0
  140.7990   77.9130  220.5180 C   0  0  2  0  0  0  0  0  0  0  0  0
  141.7760   78.9660  221.0480 C   0  0  0  0  0  0  0  0  0  0  0  0
  141.8740   78.7150  222.5570 C   0  0  1  0  0  0  0  0  0  0  0  0
  142.0170   79.9080  223.2900 O   0  0  0  0  0  0  0  0  0  0  0  0
  140.6080   77.9470  222.9350 C   0  0  0  0  0  0  0  0  0  0  0  0
  140.1080   77.3870  221.6900 N   0  0  0  0  0  0  0  0  0  0  0  0
  138.8360   76.7200  221.6230 C   0  0  0  0  0  0  0  0  0  0  0  0
  137.8110   77.2790  222.0990 O   0  0  0  0  0  0  0  0  0  0  0  0
  138.7170   75.3400  221.0480 C   0  0  0  0  0  0  0  0  0  0  0  0
  138.7340   74.3150  222.0890 N   0  0  0  0  0  0  0  0  0  0  0  0
  139.9100   73.5260  222.3130 C   0  0  0  0  0  0  0  0  0  0  0  0
  141.0270   73.9400  221.8970 O   0  0  0  0  0  0  0  0  0  0  0  0
  139.8200   72.2270  223.0060 C   0  0  0  0  0  0  0  0  0  0  0  0
  139.0770   71.1630  222.4620 C   0  0  0  0  0  0  0  0  0  0  0  0
  138.9720   69.9610  223.1640 C   0  0  0  0  0  0  0  0  0  0  0  0
  139.6090   69.8190  224.4020 C   0  0  0  0  0  0  0  0  0  0  0  0
  139.5210   68.6280  225.1370 C   0  0  0  0  0  0  0  0  0  0  0  0
  140.1670   68.5210  226.3750 C   0  0  0  0  0  0  0  0  0  0  0  0
  140.0830   67.3680  227.0840 F   0  0  0  0  0  0  0  0  0  0  0  0
  140.9020   69.6000  226.8820 C   0  0  0  0  0  0  0  0  0  0  0  0
  140.9930   70.7920  226.1550 C   0  0  0  0  0  0  0  0  0  0  0  0
  140.3520   70.9060  224.9160 C   0  0  0  0  0  0  0  0  0  0  0  0
  140.4350   72.0650  224.2110 N   0  0  0  0  0  0  0  0  0  0  0  0
  141.4160   73.0470  219.0790 C   0  0  0  0  0  0  0  0  0  0  0  0
  140.4550   74.1490  218.0950 Cl  0  0  0  0  0  0  0  0  0  0  0  0
  140.9830   71.7160  219.1570 C   0  0  0  0  0  0  0  0  0  0  0  0
  139.2878   68.9230  220.5503 H   0  0  0  0  0  0  0  0  0  0  0  0
  139.3914   69.8848  219.0368 H   0  0  0  0  0  0  0  0  0  0  0  0
  139.8763   68.1552  219.0368 H   0  0  0  0  0  0  0  0  0  0  0  0
  143.4131   70.4328  221.1817 H   0  0  0  0  0  0  0  0  0  0  0  0
  144.2040   72.7823  221.0557 H   0  0  0  0  0  0  0  0  0  0  0  0
  143.1499   75.1808  218.6712 H   0  0  0  0  0  0  0  0  0  0  0  0
  144.5685   74.9650  221.3390 H   0  0  0  0  0  0  0  0  0  0  0  0
  145.1438   74.1017  219.8726 H   0  0  0  0  0  0  0  0  0  0  0  0
  145.0295   75.8943  219.8726 H   0  0  0  0  0  0  0  0  0  0  0  0
  142.1810   75.7380  221.4950 H   0  0  0  0  0  0  0  0  0  0  0  0
  140.0861   78.3466  219.8012 H   0  0  0  0  0  0  0  0  0  0  0  0
  142.7618   78.8481  220.5743 H   0  0  0  0  0  0  0  0  0  0  0  0
  141.4330   79.9875  220.8267 H   0  0  0  0  0  0  0  0  0  0  0  0
  142.7755   78.1349  222.8036 H   0  0  0  0  0  0  0  0  0  0  0  0
  141.1690   80.4190  223.2130 H   0  0  0  0  0  0  0  0  0  0  0  0
  140.8438   77.1451  223.6501 H   0  0  0  0  0  0  0  0  0  0  0  0
  139.8643   78.5980  223.4178 H   0  0  0  0  0  0  0  0  0  0  0  0
  137.7710   75.2665  220.4914 H   0  0  0  0  0  0  0  0  0  0  0  0
  139.5792   75.1697  220.3865 H   0  0  0  0  0  0  0  0  0  0  0  0
  137.8690   74.1150  222.6410 H   0  0  0  0  0  0  0  0  0  0  0  0
  138.5807   71.2780  221.4871 H   0  0  0  0  0  0  0  0  0  0  0  0
  138.3898   69.1271  222.7449 H   0  0  0  0  0  0  0  0  0  0  0  0
  138.9450   67.7784  224.7415 H   0  0  0  0  0  0  0  0  0  0  0  0
  141.4089   69.5101  227.8541 H   0  0  0  0  0  0  0  0  0  0  0  0
  141.5681   71.6392  226.5570 H   0  0  0  0  0  0  0  0  0  0  0  0
  140.0753   71.4099  218.6162 H   0  0  0  0  0  0  0  0  0  0  0  0
  1  2  1  0
  2  3  1  0
  3  4  2  0
  4  5  1  0
  5  6  2  0
  6  7  1  0
  7  8  1  0
  7  9  1  0
  9 10  1  0
 10 11  2  0
 10 12  1  0
 12 13  1  0
 13 14  1  0
 14 15  1  0
 14 16  1  0
 16 17  1  0
 17 18  1  0
 18 19  2  0
 18 20  1  0
 20 21  1  0
 21 22  1  0
 22 23  2  0
 22 24  1  0
 24 25  2  0
 25 26  1  0
 26 27  2  0
 27 28  1  0
 28 29  2  0
 29 30  1  0
 29 31  1  0
 31 32  2  0
 32 33  1  0
 33 34  2  0
  6 35  1  0
 35 36  1  0
 35 37  2  0
 37  3  1  0
 17 12  1  0
 34 24  1  0
 33 27  1  0
  1 38  1  0
  1 39  1  0
  1 40  1  0
  4 41  1  0
  5 42  1  0
  7 43  1  6
  8 44  1  0
  8 45  1  0
  8 46  1  0
  9 47  1  0
 12 48  1  6
 13 49  1  0
 13 50  1  0
 14 51  1  6
 15 52  1  0
 16 53  1  0
 16 54  1  0
 20 55  1  0
 20 56  1  0
 21 57  1  0
 25 58  1  0
 26 59  1  0
 28 60  1  0
 31 61  1  0
 32 62  1  0
 37 63  1  0
M  END
>  <UniqueID>  (53) 
3

>  <SMILES>  (53) 
COc1ccc([C@H](C)NC(=O)[C@@H]2C[C@@H](O)CN2C(=O)CNC(=O)c2ccc3cc(F)ccc3n2)c(Cl)c1

>  <Energy>  (53) 
63.932665242010444

>  <Genealogy>  (53) 
COc1ccc([C@H](C)NC(=O)[C@@H]2C[C@@H](O)CN2C(=O)CNC(=O)c2ccc3cc(F)ccc3n2)c(Cl)c1 (3D coordinates assigned)
COc1ccc([C@H](C)NC(=O)[C@@H]2C[C@@H](O)CN2C(=O)CNC(=O)c2ccc3cc(F)ccc3n2)c(Cl)c1 (nonaromatic ring conformer: 63.932665242010444 kcal/mol)

>  <smiles>  (53) 
COc1ccc([C@H](C)NC(=O)[C@@H]2C[C@@H](O)CN2C(=O)CNC(=O)c2ccc3cc(F)ccc3n2)c(Cl)c1

>  <score_type>  (53) 
oracle

>  <origin>  (53) 
autodockgpu

>  <m_score__min__energy>  (53) 
-9.4800000000000004

>  <m_primary>  (53) 
energy

>  <meeko>  (53) 
{"free_energy": -6.51, "intermolecular_energy": -9.2, "internal_energy": -3.72, "cluster_size": 1, "cluster_id": 6, "rank_in_cluster": 1}

>  <energy>  (53) 
-5.82

>  <cluster_rmsd>  (53) 
0.73

>  <rmsd>  (53) 
271.28

>  <cluster>  (53) 
7

$$$$
PMUWBFKMLGLUTF-QDRFXLRBNA-N
     RDKit          3D

 63 66  0  0  0  0  0  0  0  0999 V2000
  133.4410   71.9830  227.0910 C   0  0  0  0  0  0  0  0  0  0  0  0
  133.3630   73.3830  226.8480 O   0  0  0  0  0  0  0  0  0  0  0  0
  134.0660   74.0520  225.8340 C   0  0  0  0  0  0  0  0  0  0  0  0
  134.0630   75.4500  225.7110 C   0  0  0  0  0  0  0  0  0  0  0  0
  134.7730   76.0680  224.6820 C   0  0  0  0  0  0  0  0  0  0  0  0
  135.5020   75.3100  223.7450 C   0  0  0  0  0  0  0  0  0  0  0  0
  136.2620   76.0460  222.6510 C   0  0  2  0  0  0  0  0  0  0  0  0
  135.9340   75.5100  221.2520 C   0  0  0  0  0  0  0  0  0  0  0  0
  137.7050   76.0200  222.9120 N   0  0  0  0  0  0  0  0  0  0  0  0
  138.5740   77.0270  222.3680 C   0  0  0  0  0  0  0  0  0  0  0  0
  138.0860   78.0130  221.7540 O   0  0  0  0  0  0  0  0  0  0  0  0
  140.0730   76.8840  222.4330 C   0  0  2  0  0  0  0  0  0  0  0  0
  140.7290   78.1640  222.9600 C   0  0  0  0  0  0  0  0  0  0  0  0
  141.3750   78.8280  221.7390 C   0  0  1  0  0  0  0  0  0  0  0  0
  142.5860   79.4720  222.0570 O   0  0  0  0  0  0  0  0  0  0  0  0
  141.5600   77.7160  220.7080 C   0  0  0  0  0  0  0  0  0  0  0  0
  140.6520   76.6560  221.1130 N   0  0  0  0  0  0  0  0  0  0  0  0
  140.6560   75.3730  220.4650 C   0  0  0  0  0  0  0  0  0  0  0  0
  141.5770   75.0850  219.6540 O   0  0  0  0  0  0  0  0  0  0  0  0
  139.5460   74.3900  220.6900 C   0  0  0  0  0  0  0  0  0  0  0  0
  139.6490   73.7440  221.9960 N   0  0  0  0  0  0  0  0  0  0  0  0
  140.3870   72.5240  222.1470 C   0  0  0  0  0  0  0  0  0  0  0  0
  141.2430   72.2010  221.2780 O   0  0  0  0  0  0  0  0  0  0  0  0
  140.1370   71.6350  223.2980 C   0  0  0  0  0  0  0  0  0  0  0  0
  139.2960   70.5140  223.1810 C   0  0  0  0  0  0  0  0  0  0  0  0
  139.0410   69.7190  224.3000 C   0  0  0  0  0  0  0  0  0  0  0  0
  139.6280   70.0390  225.5300 C   0  0  0  0  0  0  0  0  0  0  0  0
  139.3920   69.2650  226.6760 C   0  0  0  0  0  0  0  0  0  0  0  0
  139.9910   69.6160  227.8920 C   0  0  0  0  0  0  0  0  0  0  0  0
  139.7630   68.8670  228.9990 F   0  0  0  0  0  0  0  0  0  0  0  0
  140.8270   70.7360  227.9680 C   0  0  0  0  0  0  0  0  0  0  0  0
  141.0670   71.5130  226.8300 C   0  0  0  0  0  0  0  0  0  0  0  0
  140.4730   71.1690  225.6100 C   0  0  0  0  0  0  0  0  0  0  0  0
  140.7010   71.9250  224.5040 N   0  0  0  0  0  0  0  0  0  0  0  0
  135.5090   73.8980  223.8760 C   0  0  0  0  0  0  0  0  0  0  0  0
  136.3950   72.8390  222.7820 Cl  0  0  0  0  0  0  0  0  0  0  0  0
  134.7940   73.2900  224.9160 C   0  0  0  0  0  0  0  0  0  0  0  0
  133.4512   71.7991  228.1755 H   0  0  0  0  0  0  0  0  0  0  0  0
  132.5693   71.4839  226.6427 H   0  0  0  0  0  0  0  0  0  0  0  0
  134.3628   71.5838  226.6427 H   0  0  0  0  0  0  0  0  0  0  0  0
  133.4978   76.0614  226.4298 H   0  0  0  0  0  0  0  0  0  0  0  0
  134.7636   77.1650  224.6008 H   0  0  0  0  0  0  0  0  0  0  0  0
  135.9286   77.0941  222.6700 H   0  0  0  0  0  0  0  0  0  0  0  0
  135.3618   74.5749  221.3425 H   0  0  0  0  0  0  0  0  0  0  0  0
  135.3364   76.2541  220.7051 H   0  0  0  0  0  0  0  0  0  0  0  0
  136.8686   75.3165  220.7051 H   0  0  0  0  0  0  0  0  0  0  0  0
  138.1220   75.2180  223.4380 H   0  0  0  0  0  0  0  0  0  0  0  0
  140.2602   76.0291  223.0995 H   0  0  0  0  0  0  0  0  0  0  0  0
  139.9729   78.8286  223.4035 H   0  0  0  0  0  0  0  0  0  0  0  0
  141.4684   77.9491  223.7456 H   0  0  0  0  0  0  0  0  0  0  0  0
  140.7364   79.6310  221.3424 H   0  0  0  0  0  0  0  0  0  0  0  0
  143.3240   78.9620  221.6320 H   0  0  0  0  0  0  0  0  0  0  0  0
  141.3034   78.0783  219.7016 H   0  0  0  0  0  0  0  0  0  0  0  0
  142.6023   77.3669  220.6669 H   0  0  0  0  0  0  0  0  0  0  0  0
  138.5838   74.9197  220.6298 H   0  0  0  0  0  0  0  0  0  0  0  0
  139.6178   73.6108  219.9169 H   0  0  0  0  0  0  0  0  0  0  0  0
  139.1410   74.1420  222.8180 H   0  0  0  0  0  0  0  0  0  0  0  0
  138.8407   70.2644  222.2113 H   0  0  0  0  0  0  0  0  0  0  0  0
  138.3805   68.8434  224.2154 H   0  0  0  0  0  0  0  0  0  0  0  0
  138.7369   68.3831  226.6193 H   0  0  0  0  0  0  0  0  0  0  0  0
  141.2966   71.0059  228.9254 H   0  0  0  0  0  0  0  0  0  0  0  0
  141.7224   72.3942  226.8937 H   0  0  0  0  0  0  0  0  0  0  0  0
  134.8058   72.1942  225.0117 H   0  0  0  0  0  0  0  0  0  0  0  0
  1  2  1  0
  2  3  1  0
  3  4  2  0
  4  5  1  0
  5  6  2  0
  6  7  1  0
  7  8  1  0
  7  9  1  0
  9 10  1  0
 10 11  2  0
 10 12  1  0
 12 13  1  0
 13 14  1  0
 14 15  1  0
 14 16  1  0
 16 17  1  0
 17 18  1  0
 18 19  2  0
 18 20  1  0
 20 21  1  0
 21 22  1  0
 22 23  2  0
 22 24  1  0
 24 25  2  0
 25 26  1  0
 26 27  2  0
 27 28  1  0
 28 29  2  0
 29 30  1  0
 29 31  1  0
 31 32  2  0
 32 33  1  0
 33 34  2  0
  6 35  1  0
 35 36  1  0
 35 37  2  0
 37  3  1  0
 17 12  1  0
 34 24  1  0
 33 27  1  0
  1 38  1  0
  1 39  1  0
  1 40  1  0
  4 41  1  0
  5 42  1  0
  7 43  1  6
  8 44  1  0
  8 45  1  0
  8 46  1  0
  9 47  1  0
 12 48  1  1
 13 49  1  0
 13 50  1  0
 14 51  1  6
 15 52  1  0
 16 53  1  0
 16 54  1  0
 20 55  1  0
 20 56  1  0
 21 57  1  0
 25 58  1  0
 26 59  1  0
 28 60  1  0
 31 61  1  0
 32 62  1  0
 37 63  1  0
M  END
>  <UniqueID>  (54) 
3

>  <SMILES>  (54) 
COc1ccc([C@H](C)NC(=O)[C@@H]2C[C@@H](O)CN2C(=O)CNC(=O)c2ccc3cc(F)ccc3n2)c(Cl)c1

>  <Energy>  (54) 
63.932665242010444

>  <Genealogy>  (54) 
COc1ccc([C@H](C)NC(=O)[C@@H]2C[C@@H](O)CN2C(=O)CNC(=O)c2ccc3cc(F)ccc3n2)c(Cl)c1 (3D coordinates assigned)
COc1ccc([C@H](C)NC(=O)[C@@H]2C[C@@H](O)CN2C(=O)CNC(=O)c2ccc3cc(F)ccc3n2)c(Cl)c1 (nonaromatic ring conformer: 63.932665242010444 kcal/mol)

>  <smiles>  (54) 
COc1ccc([C@H](C)NC(=O)[C@@H]2C[C@@H](O)CN2C(=O)CNC(=O)c2ccc3cc(F)ccc3n2)c(Cl)c1

>  <score_type>  (54) 
oracle

>  <origin>  (54) 
autodockgpu

>  <m_score__min__energy>  (54) 
-9.4800000000000004

>  <m_primary>  (54) 
energy

>  <meeko>  (54) 
{"free_energy": -9.48, "intermolecular_energy": -12.16, "internal_energy": -2.16, "cluster_size": 3, "cluster_id": 1, "rank_in_cluster": 1}

>  <energy>  (54) 
-5.82

>  <cluster_rmsd>  (54) 
0.74

>  <rmsd>  (54) 
271.29

>  <cluster>  (54) 
7

$$$$
PMUWBFKMLGLUTF-QDRFXLRBNA-N
     RDKit          3D

 63 66  0  0  0  0  0  0  0  0999 V2000
  140.1640   82.5630  220.9130 C   0  0  0  0  0  0  0  0  0  0  0  0
  141.2540   82.1820  220.0810 O   0  0  0  0  0  0  0  0  0  0  0  0
  141.3780   80.9290  219.4600 C   0  0  0  0  0  0  0  0  0  0  0  0
  142.5560   80.5210  218.8160 C   0  0  0  0  0  0  0  0  0  0  0  0
  142.6280   79.2670  218.2070 C   0  0  0  0  0  0  0  0  0  0  0  0
  141.5270   78.3890  218.2230 C   0  0  0  0  0  0  0  0  0  0  0  0
  141.6730   77.0330  217.5490 C   0  0  2  0  0  0  0  0  0  0  0  0
  140.5370   76.7480  216.5580 C   0  0  0  0  0  0  0  0  0  0  0  0
  141.7940   75.9650  218.5480 N   0  0  0  0  0  0  0  0  0  0  0  0
  142.9520   75.8720  219.3940 C   0  0  0  0  0  0  0  0  0  0  0  0
  143.8260   76.7790  219.3650 O   0  0  0  0  0  0  0  0  0  0  0  0
  143.1950   74.6580  220.2550 C   0  0  2  0  0  0  0  0  0  0  0  0
  144.6930   74.4400  220.4930 C   0  0  0  0  0  0  0  0  0  0  0  0
  145.0790   73.2420  219.6190 C   0  0  1  0  0  0  0  0  0  0  0  0
  146.0570   72.4310  220.2240 O   0  0  0  0  0  0  0  0  0  0  0  0
  143.7790   72.4860  219.3500 C   0  0  0  0  0  0  0  0  0  0  0  0
  142.7140   73.4380  219.6180 N   0  0  0  0  0  0  0  0  0  0  0  0
  141.3320   73.0400  219.6190 C   0  0  0  0  0  0  0  0  0  0  0  0
  140.6800   73.0410  218.5410 O   0  0  0  0  0  0  0  0  0  0  0  0
  140.6330   72.6790  220.8960 C   0  0  0  0  0  0  0  0  0  0  0  0
  140.3320   73.8590  221.7030 N   0  0  0  0  0  0  0  0  0  0  0  0
  139.8720   75.0660  221.0810 C   0  0  0  0  0  0  0  0  0  0  0  0
  139.3720   75.0200  219.9230 O   0  0  0  0  0  0  0  0  0  0  0  0
  139.9980   76.3620  221.7750 C   0  0  0  0  0  0  0  0  0  0  0  0
  138.9160   76.9150  222.4840 C   0  0  0  0  0  0  0  0  0  0  0  0
  139.0520   78.1650  223.0910 C   0  0  0  0  0  0  0  0  0  0  0  0
  140.2640   78.8580  222.9960 C   0  0  0  0  0  0  0  0  0  0  0  0
  140.4350   80.1170  223.5890 C   0  0  0  0  0  0  0  0  0  0  0  0
  141.6590   80.7850  223.4700 C   0  0  0  0  0  0  0  0  0  0  0  0
  141.8230   82.0030  224.0460 F   0  0  0  0  0  0  0  0  0  0  0  0
  142.7150   80.2010  222.7610 C   0  0  0  0  0  0  0  0  0  0  0  0
  142.5520   78.9460  222.1650 C   0  0  0  0  0  0  0  0  0  0  0  0
  141.3320   78.2700  222.2810 C   0  0  0  0  0  0  0  0  0  0  0  0
  141.1700   77.0530  221.6990 N   0  0  0  0  0  0  0  0  0  0  0  0
  140.3420   78.8010  218.8820 C   0  0  0  0  0  0  0  0  0  0  0  0
  138.9030   77.7890  218.9880 Cl  0  0  0  0  0  0  0  0  0  0  0  0
  140.2830   80.0620  219.4910 C   0  0  0  0  0  0  0  0  0  0  0  0
  140.4555   82.4611  221.9688 H   0  0  0  0  0  0  0  0  0  0  0  0
  139.8934   83.6090  220.7066 H   0  0  0  0  0  0  0  0  0  0  0  0
  139.3007   81.9134  220.7066 H   0  0  0  0  0  0  0  0  0  0  0  0
  143.4269   81.1925  218.7909 H   0  0  0  0  0  0  0  0  0  0  0  0
  143.5586   78.9600  217.7072 H   0  0  0  0  0  0  0  0  0  0  0  0
  142.6018   77.0604  216.9603 H   0  0  0  0  0  0  0  0  0  0  0  0
  139.6158   76.5169  217.1129 H   0  0  0  0  0  0  0  0  0  0  0  0
  140.3718   77.6325  215.9253 H   0  0  0  0  0  0  0  0  0  0  0  0
  140.8089   75.8902  215.9253 H   0  0  0  0  0  0  0  0  0  0  0  0
  141.0660   75.2160  218.5980 H   0  0  0  0  0  0  0  0  0  0  0  0
  142.6582   74.8500  221.1957 H   0  0  0  0  0  0  0  0  0  0  0  0
  145.2630   75.3323  220.1949 H   0  0  0  0  0  0  0  0  0  0  0  0
  144.9140   74.2571  221.5549 H   0  0  0  0  0  0  0  0  0  0  0  0
  145.5444   73.5722  218.6786 H   0  0  0  0  0  0  0  0  0  0  0  0
  145.6140   71.8930  220.9310 H   0  0  0  0  0  0  0  0  0  0  0  0
  143.7395   72.1494  218.3035 H   0  0  0  0  0  0  0  0  0  0  0  0
  143.6915   71.5878  219.9789 H   0  0  0  0  0  0  0  0  0  0  0  0
  139.6916   72.1643  220.6532 H   0  0  0  0  0  0  0  0  0  0  0  0
  141.3012   72.0280  221.4788 H   0  0  0  0  0  0  0  0  0  0  0  0
  140.5030   73.8460  222.7340 H   0  0  0  0  0  0  0  0  0  0  0  0
  137.9665   76.3647  222.5598 H   0  0  0  0  0  0  0  0  0  0  0  0
  138.2079   78.6043  223.6429 H   0  0  0  0  0  0  0  0  0  0  0  0
  139.6077   80.5793  224.1474 H   0  0  0  0  0  0  0  0  0  0  0  0
  143.6753   80.7301  222.6722 H   0  0  0  0  0  0  0  0  0  0  0  0
  143.3823   78.4906  221.6054 H   0  0  0  0  0  0  0  0  0  0  0  0
  139.3599   80.3739  220.0014 H   0  0  0  0  0  0  0  0  0  0  0  0
  1  2  1  0
  2  3  1  0
  3  4  2  0
  4  5  1  0
  5  6  2  0
  6  7  1  0
  7  8  1  0
  7  9  1  0
  9 10  1  0
 10 11  2  0
 10 12  1  0
 12 13  1  0
 13 14  1  0
 14 15  1  0
 14 16  1  0
 16 17  1  0
 17 18  1  0
 18 19  2  0
 18 20  1  0
 20 21  1  0
 21 22  1  0
 22 23  2  0
 22 24  1  0
 24 25  2  0
 25 26  1  0
 26 27  2  0
 27 28  1  0
 28 29  2  0
 29 30  1  0
 29 31  1  0
 31 32  2  0
 32 33  1  0
 33 34  2  0
  6 35  1  0
 35 36  1  0
 35 37  2  0
 37  3  1  0
 17 12  1  0
 34 24  1  0
 33 27  1  0
  1 38  1  0
  1 39  1  0
  1 40  1  0
  4 41  1  0
  5 42  1  0
  7 43  1  6
  8 44  1  0
  8 45  1  0
  8 46  1  0
  9 47  1  0
 12 48  1  1
 13 49  1  0
 13 50  1  0
 14 51  1  6
 15 52  1  0
 16 53  1  0
 16 54  1  0
 20 55  1  0
 20 56  1  0
 21 57  1  0
 25 58  1  0
 26 59  1  0
 28 60  1  0
 31 61  1  0
 32 62  1  0
 37 63  1  0
M  END
>  <UniqueID>  (55) 
3

>  <SMILES>  (55) 
COc1ccc([C@H](C)NC(=O)[C@@H]2C[C@@H](O)CN2C(=O)CNC(=O)c2ccc3cc(F)ccc3n2)c(Cl)c1

>  <Energy>  (55) 
63.932665242010444

>  <Genealogy>  (55) 
COc1ccc([C@H](C)NC(=O)[C@@H]2C[C@@H](O)CN2C(=O)CNC(=O)c2ccc3cc(F)ccc3n2)c(Cl)c1 (3D coordinates assigned)
COc1ccc([C@H](C)NC(=O)[C@@H]2C[C@@H](O)CN2C(=O)CNC(=O)c2ccc3cc(F)ccc3n2)c(Cl)c1 (nonaromatic ring conformer: 63.932665242010444 kcal/mol)

>  <smiles>  (55) 
COc1ccc([C@H](C)NC(=O)[C@@H]2C[C@@H](O)CN2C(=O)CNC(=O)c2ccc3cc(F)ccc3n2)c(Cl)c1

>  <score_type>  (55) 
oracle

>  <origin>  (55) 
autodockgpu

>  <m_score__min__energy>  (55) 
-9.4800000000000004

>  <m_primary>  (55) 
energy

>  <meeko>  (55) 
{"free_energy": -5.82, "intermolecular_energy": -8.5, "internal_energy": -5.47, "cluster_size": 10, "cluster_id": 7, "rank_in_cluster": 5}

>  <energy>  (55) 
-5.81

>  <cluster_rmsd>  (55) 
0.66

>  <rmsd>  (55) 
271.3

>  <cluster>  (55) 
7

$$$$
PMUWBFKMLGLUTF-QDRFXLRBNA-N
     RDKit          3D

 63 66  0  0  0  0  0  0  0  0999 V2000
  137.7110   80.7450  224.5310 C   0  0  0  0  0  0  0  0  0  0  0  0
  137.6120   79.4920  223.8630 O   0  0  0  0  0  0  0  0  0  0  0  0
  138.6080   78.9550  223.0330 C   0  0  0  0  0  0  0  0  0  0  0  0
  138.3310   78.0000  222.0420 C   0  0  0  0  0  0  0  0  0  0  0  0
  139.3570   77.4920  221.2470 C   0  0  0  0  0  0  0  0  0  0  0  0
  140.6880   77.9180  221.4190 C   0  0  0  0  0  0  0  0  0  0  0  0
  141.7600   77.3310  220.5120 C   0  0  2  0  0  0  0  0  0  0  0  0
  141.4120   77.4780  219.0260 C   0  0  0  0  0  0  0  0  0  0  0  0
  142.0310   75.9330  220.8650 N   0  0  0  0  0  0  0  0  0  0  0  0
  143.1920   75.2530  220.3580 C   0  0  0  0  0  0  0  0  0  0  0  0
  144.0540   75.8910  219.6960 O   0  0  0  0  0  0  0  0  0  0  0  0
  143.3590   73.7640  220.5200 C   0  0  2  0  0  0  0  0  0  0  0  0
  144.8070   73.4040  220.8660 C   0  0  0  0  0  0  0  0  0  0  0  0
  145.3970   72.7970  219.5890 C   0  0  1  0  0  0  0  0  0  0  0  0
  146.3060   71.7580  219.8600 O   0  0  0  0  0  0  0  0  0  0  0  0
  144.2020   72.3250  218.7610 C   0  0  0  0  0  0  0  0  0  0  0  0
  143.0560   73.0480  219.2860 N   0  0  0  0  0  0  0  0  0  0  0  0
  141.7170   72.7530  218.8540 C   0  0  0  0  0  0  0  0  0  0  0  0
  141.5340   72.0630  217.8140 O   0  0  0  0  0  0  0  0  0  0  0  0
  140.5290   73.3010  219.5860 C   0  0  0  0  0  0  0  0  0  0  0  0
  140.0850   72.4040  220.6490 N   0  0  0  0  0  0  0  0  0  0  0  0
  140.0750   72.8420  222.0140 C   0  0  0  0  0  0  0  0  0  0  0  0
  140.0820   74.0780  222.2720 O   0  0  0  0  0  0  0  0  0  0  0  0
  140.0770   71.8610  223.1170 C   0  0  0  0  0  0  0  0  0  0  0  0
  139.5450   70.5710  222.9420 C   0  0  0  0  0  0  0  0  0  0  0  0
  139.5190   69.6810  224.0170 C   0  0  0  0  0  0  0  0  0  0  0  0
  140.0250   70.0750  225.2600 C   0  0  0  0  0  0  0  0  0  0  0  0
  140.0110   69.2100  226.3640 C   0  0  0  0  0  0  0  0  0  0  0  0
  140.5210   69.6380  227.5950 C   0  0  0  0  0  0  0  0  0  0  0  0
  140.5090   68.7990  228.6610 F   0  0  0  0  0  0  0  0  0  0  0  0
  141.0470   70.9280  227.7300 C   0  0  0  0  0  0  0  0  0  0  0  0
  141.0640   71.7980  226.6340 C   0  0  0  0  0  0  0  0  0  0  0  0
  140.5580   71.3780  225.3990 C   0  0  0  0  0  0  0  0  0  0  0  0
  140.5680   72.2230  224.3350 N   0  0  0  0  0  0  0  0  0  0  0  0
  140.9640   78.8880  222.4150 C   0  0  0  0  0  0  0  0  0  0  0  0
  142.5830   79.5170  222.7170 Cl  0  0  0  0  0  0  0  0  0  0  0  0
  139.9240   79.3930  223.2060 C   0  0  0  0  0  0  0  0  0  0  0  0
  137.6982   80.5826  225.6189 H   0  0  0  0  0  0  0  0  0  0  0  0
  138.6510   81.2396  224.2452 H   0  0  0  0  0  0  0  0  0  0  0  0
  136.8603   81.3811  224.2452 H   0  0  0  0  0  0  0  0  0  0  0  0
  137.2987   77.6508  221.8921 H   0  0  0  0  0  0  0  0  0  0  0  0
  139.1232   76.7464  220.4728 H   0  0  0  0  0  0  0  0  0  0  0  0
  142.6798   77.9117  220.6754 H   0  0  0  0  0  0  0  0  0  0  0  0
  140.4029   77.9043  218.9262 H   0  0  0  0  0  0  0  0  0  0  0  0
  142.1412   78.1450  218.5429 H   0  0  0  0  0  0  0  0  0  0  0  0
  141.4422   76.4902  218.5429 H   0  0  0  0  0  0  0  0  0  0  0  0
  141.3350   75.3970  221.4320 H   0  0  0  0  0  0  0  0  0  0  0  0
  142.6664   73.4744  221.3240 H   0  0  0  0  0  0  0  0  0  0  0  0
  145.3674   74.3045  221.1575 H   0  0  0  0  0  0  0  0  0  0  0  0
  144.8612   72.7035  221.7123 H   0  0  0  0  0  0  0  0  0  0  0  0
  145.9911   73.5398  219.0364 H   0  0  0  0  0  0  0  0  0  0  0  0
  146.2920   71.5860  220.8380 H   0  0  0  0  0  0  0  0  0  0  0  0
  144.3528   72.5634  217.6978 H   0  0  0  0  0  0  0  0  0  0  0  0
  144.0633   71.2359  218.8287 H   0  0  0  0  0  0  0  0  0  0  0  0
  140.8000   74.2708  220.0287 H   0  0  0  0  0  0  0  0  0  0  0  0
  139.7050   73.4112  218.8657 H   0  0  0  0  0  0  0  0  0  0  0  0
  139.8210   71.4170  220.4250 H   0  0  0  0  0  0  0  0  0  0  0  0
  139.1509   70.2646  221.9618 H   0  0  0  0  0  0  0  0  0  0  0  0
  139.1014   68.6717  223.8868 H   0  0  0  0  0  0  0  0  0  0  0  0
  139.5991   68.1951  226.2623 H   0  0  0  0  0  0  0  0  0  0  0  0
  141.4478   71.2586  228.6995 H   0  0  0  0  0  0  0  0  0  0  0  0
  141.4753   72.8123  226.7435 H   0  0  0  0  0  0  0  0  0  0  0  0
  140.1466   80.1465  223.9758 H   0  0  0  0  0  0  0  0  0  0  0  0
  1  2  1  0
  2  3  1  0
  3  4  2  0
  4  5  1  0
  5  6  2  0
  6  7  1  0
  7  8  1  0
  7  9  1  0
  9 10  1  0
 10 11  2  0
 10 12  1  0
 12 13  1  0
 13 14  1  0
 14 15  1  0
 14 16  1  0
 16 17  1  0
 17 18  1  0
 18 19  2  0
 18 20  1  0
 20 21  1  0
 21 22  1  0
 22 23  2  0
 22 24  1  0
 24 25  2  0
 25 26  1  0
 26 27  2  0
 27 28  1  0
 28 29  2  0
 29 30  1  0
 29 31  1  0
 31 32  2  0
 32 33  1  0
 33 34  2  0
  6 35  1  0
 35 36  1  0
 35 37  2  0
 37  3  1  0
 17 12  1  0
 34 24  1  0
 33 27  1  0
  1 38  1  0
  1 39  1  0
  1 40  1  0
  4 41  1  0
  5 42  1  0
  7 43  1  6
  8 44  1  0
  8 45  1  0
  8 46  1  0
  9 47  1  0
 12 48  1  1
 13 49  1  0
 13 50  1  0
 14 51  1  6
 15 52  1  0
 16 53  1  0
 16 54  1  0
 20 55  1  0
 20 56  1  0
 21 57  1  0
 25 58  1  0
 26 59  1  0
 28 60  1  0
 31 61  1  0
 32 62  1  0
 37 63  1  0
M  END
>  <UniqueID>  (56) 
3

>  <SMILES>  (56) 
COc1ccc([C@H](C)NC(=O)[C@@H]2C[C@@H](O)CN2C(=O)CNC(=O)c2ccc3cc(F)ccc3n2)c(Cl)c1

>  <Energy>  (56) 
63.932665242010444

>  <Genealogy>  (56) 
COc1ccc([C@H](C)NC(=O)[C@@H]2C[C@@H](O)CN2C(=O)CNC(=O)c2ccc3cc(F)ccc3n2)c(Cl)c1 (3D coordinates assigned)
COc1ccc([C@H](C)NC(=O)[C@@H]2C[C@@H](O)CN2C(=O)CNC(=O)c2ccc3cc(F)ccc3n2)c(Cl)c1 (nonaromatic ring conformer: 63.932665242010444 kcal/mol)

>  <smiles>  (56) 
COc1ccc([C@H](C)NC(=O)[C@@H]2C[C@@H](O)CN2C(=O)CNC(=O)c2ccc3cc(F)ccc3n2)c(Cl)c1

>  <score_type>  (56) 
oracle

>  <origin>  (56) 
autodockgpu

>  <m_score__min__energy>  (56) 
-9.4800000000000004

>  <m_primary>  (56) 
energy

>  <meeko>  (56) 
{"free_energy": -8.64, "intermolecular_energy": -11.33, "internal_energy": -2.77, "cluster_size": 1, "cluster_id": 2, "rank_in_cluster": 1}

>  <energy>  (56) 
-5.78

>  <cluster_rmsd>  (56) 
0.62

>  <rmsd>  (56) 
271.38

>  <cluster>  (56) 
7

$$$$
PMUWBFKMLGLUTF-QDRFXLRBNA-N
     RDKit          3D

 63 66  0  0  0  0  0  0  0  0999 V2000
  141.5690   79.8050  223.8740 C   0  0  0  0  0  0  0  0  0  0  0  0
  140.2820   79.2850  223.5580 O   0  0  0  0  0  0  0  0  0  0  0  0
  140.0590   78.0490  222.9330 C   0  0  0  0  0  0  0  0  0  0  0  0
  141.1050   77.1770  222.5900 C   0  0  0  0  0  0  0  0  0  0  0  0
  140.8320   75.9620  221.9630 C   0  0  0  0  0  0  0  0  0  0  0  0
  139.5100   75.5820  221.6590 C   0  0  0  0  0  0  0  0  0  0  0  0
  139.2790   74.2390  220.9830 C   0  0  2  0  0  0  0  0  0  0  0  0
  138.9130   73.1360  221.9850 C   0  0  0  0  0  0  0  0  0  0  0  0
  140.4390   73.8600  220.1680 N   0  0  0  0  0  0  0  0  0  0  0  0
  141.5290   73.1140  220.7330 C   0  0  0  0  0  0  0  0  0  0  0  0
  141.4450   72.6740  221.9110 O   0  0  0  0  0  0  0  0  0  0  0  0
  142.8190   72.9220  219.9790 C   0  0  2  0  0  0  0  0  0  0  0  0
  143.8990   72.3090  220.8760 C   0  0  0  0  0  0  0  0  0  0  0  0
  144.8700   73.4520  221.1910 C   0  0  1  0  0  0  0  0  0  0  0  0
  146.2050   73.0140  221.2750 O   0  0  0  0  0  0  0  0  0  0  0  0
  144.6660   74.4890  220.0880 C   0  0  0  0  0  0  0  0  0  0  0  0
  143.3660   74.1900  219.5100 N   0  0  0  0  0  0  0  0  0  0  0  0
  142.8930   74.8660  218.3330 C   0  0  0  0  0  0  0  0  0  0  0  0
  142.1280   74.2650  217.5310 O   0  0  0  0  0  0  0  0  0  0  0  0
  143.3410   76.2600  218.0090 C   0  0  0  0  0  0  0  0  0  0  0  0
  142.7390   77.2460  218.9030 N   0  0  0  0  0  0  0  0  0  0  0  0
  141.3150   77.3170  219.0520 C   0  0  0  0  0  0  0  0  0  0  0  0
  140.6030   76.3270  218.7270 O   0  0  0  0  0  0  0  0  0  0  0  0
  140.6750   78.5460  219.5610 C   0  0  0  0  0  0  0  0  0  0  0  0
  139.2890   78.7490  219.4350 C   0  0  0  0  0  0  0  0  0  0  0  0
  138.7200   79.9420  219.8860 C   0  0  0  0  0  0  0  0  0  0  0  0
  139.5310   80.9260  220.4620 C   0  0  0  0  0  0  0  0  0  0  0  0
  138.9950   82.1390  220.9210 C   0  0  0  0  0  0  0  0  0  0  0  0
  139.8340   83.1040  221.4890 C   0  0  0  0  0  0  0  0  0  0  0  0
  139.3150   84.2750  221.9340 F   0  0  0  0  0  0  0  0  0  0  0  0
  141.2090   82.8630  221.6020 C   0  0  0  0  0  0  0  0  0  0  0  0
  141.7520   81.6570  221.1460 C   0  0  0  0  0  0  0  0  0  0  0  0
  140.9190   80.6860  220.5780 C   0  0  0  0  0  0  0  0  0  0  0  0
  141.4440   79.5160  220.1300 N   0  0  0  0  0  0  0  0  0  0  0  0
  138.4550   76.4600  222.0140 C   0  0  0  0  0  0  0  0  0  0  0  0
  136.7590   76.0940  221.7060 Cl  0  0  0  0  0  0  0  0  0  0  0  0
  138.7430   77.6780  222.6460 C   0  0  0  0  0  0  0  0  0  0  0  0
  141.6870   79.8527  224.9666 H   0  0  0  0  0  0  0  0  0  0  0  0
  142.3437   79.1493  223.4498 H   0  0  0  0  0  0  0  0  0  0  0  0
  141.6707   80.8148  223.4498 H   0  0  0  0  0  0  0  0  0  0  0  0
  142.1450   77.4540  222.8172 H   0  0  0  0  0  0  0  0  0  0  0  0
  141.6622   75.2894  221.7015 H   0  0  0  0  0  0  0  0  0  0  0  0
  138.4124   74.3550  220.3156 H   0  0  0  0  0  0  0  0  0  0  0  0
  139.0388   73.5152  223.0099 H   0  0  0  0  0  0  0  0  0  0  0  0
  137.8665   72.8339  221.8317 H   0  0  0  0  0  0  0  0  0  0  0  0
  139.5713   72.2682  221.8317 H   0  0  0  0  0  0  0  0  0  0  0  0
  140.5130   74.2010  219.1820 H   0  0  0  0  0  0  0  0  0  0  0  0
  142.5717   72.2625  219.1341 H   0  0  0  0  0  0  0  0  0  0  0  0
  143.4526   71.9181  221.8022 H   0  0  0  0  0  0  0  0  0  0  0  0
  144.4074   71.4668  220.3838 H   0  0  0  0  0  0  0  0  0  0  0  0
  144.6631   73.8836  222.1814 H   0  0  0  0  0  0  0  0  0  0  0  0
  146.2160   72.1650  221.7920 H   0  0  0  0  0  0  0  0  0  0  0  0
  144.6750   75.5051  220.5091 H   0  0  0  0  0  0  0  0  0  0  0  0
  145.4669   74.4472  219.3351 H   0  0  0  0  0  0  0  0  0  0  0  0
  144.4355   76.3135  218.1055 H   0  0  0  0  0  0  0  0  0  0  0  0
  143.0223   76.4910  216.9818 H   0  0  0  0  0  0  0  0  0  0  0  0
  143.3430   77.9410  219.3990 H   0  0  0  0  0  0  0  0  0  0  0  0
  138.6558   77.9713  218.9831 H   0  0  0  0  0  0  0  0  0  0  0  0
  137.6369   80.1077  219.7886 H   0  0  0  0  0  0  0  0  0  0  0  0
  137.9154   82.3311  220.8343 H   0  0  0  0  0  0  0  0  0  0  0  0
  141.8640   83.6243  222.0507 H   0  0  0  0  0  0  0  0  0  0  0  0
  142.8328   81.4719  221.2337 H   0  0  0  0  0  0  0  0  0  0  0  0
  137.9189   78.3529  222.9205 H   0  0  0  0  0  0  0  0  0  0  0  0
  1  2  1  0
  2  3  1  0
  3  4  2  0
  4  5  1  0
  5  6  2  0
  6  7  1  0
  7  8  1  0
  7  9  1  0
  9 10  1  0
 10 11  2  0
 10 12  1  0
 12 13  1  0
 13 14  1  0
 14 15  1  0
 14 16  1  0
 16 17  1  0
 17 18  1  0
 18 19  2  0
 18 20  1  0
 20 21  1  0
 21 22  1  0
 22 23  2  0
 22 24  1  0
 24 25  2  0
 25 26  1  0
 26 27  2  0
 27 28  1  0
 28 29  2  0
 29 30  1  0
 29 31  1  0
 31 32  2  0
 32 33  1  0
 33 34  2  0
  6 35  1  0
 35 36  1  0
 35 37  2  0
 37  3  1  0
 17 12  1  0
 34 24  1  0
 33 27  1  0
  1 38  1  0
  1 39  1  0
  1 40  1  0
  4 41  1  0
  5 42  1  0
  7 43  1  6
  8 44  1  0
  8 45  1  0
  8 46  1  0
  9 47  1  0
 12 48  1  6
 13 49  1  0
 13 50  1  0
 14 51  1  1
 15 52  1  0
 16 53  1  0
 16 54  1  0
 20 55  1  0
 20 56  1  0
 21 57  1  0
 25 58  1  0
 26 59  1  0
 28 60  1  0
 31 61  1  0
 32 62  1  0
 37 63  1  0
M  END
>  <UniqueID>  (57) 
3

>  <SMILES>  (57) 
COc1ccc([C@H](C)NC(=O)[C@@H]2C[C@@H](O)CN2C(=O)CNC(=O)c2ccc3cc(F)ccc3n2)c(Cl)c1

>  <Energy>  (57) 
63.932665242010444

>  <Genealogy>  (57) 
COc1ccc([C@H](C)NC(=O)[C@@H]2C[C@@H](O)CN2C(=O)CNC(=O)c2ccc3cc(F)ccc3n2)c(Cl)c1 (3D coordinates assigned)
COc1ccc([C@H](C)NC(=O)[C@@H]2C[C@@H](O)CN2C(=O)CNC(=O)c2ccc3cc(F)ccc3n2)c(Cl)c1 (nonaromatic ring conformer: 63.932665242010444 kcal/mol)

>  <smiles>  (57) 
COc1ccc([C@H](C)NC(=O)[C@@H]2C[C@@H](O)CN2C(=O)CNC(=O)c2ccc3cc(F)ccc3n2)c(Cl)c1

>  <score_type>  (57) 
oracle

>  <origin>  (57) 
autodockgpu

>  <m_score__min__energy>  (57) 
-9.4800000000000004

>  <m_primary>  (57) 
energy

>  <meeko>  (57) 
{"free_energy": -5.52, "intermolecular_energy": -8.2, "internal_energy": -4.81, "cluster_size": 1, "cluster_id": 8, "rank_in_cluster": 1}

>  <energy>  (57) 
-5.67

>  <cluster_rmsd>  (57) 
0.92

>  <rmsd>  (57) 
271.35

>  <cluster>  (57) 
7

$$$$
PMUWBFKMLGLUTF-QDRFXLRBNA-N
     RDKit          3D

 63 66  0  0  0  0  0  0  0  0999 V2000
  142.5870   78.0950  217.4820 C   0  0  0  0  0  0  0  0  0  0  0  0
  142.1130   77.7270  218.7730 O   0  0  0  0  0  0  0  0  0  0  0  0
  142.1170   76.4170  219.2760 C   0  0  0  0  0  0  0  0  0  0  0  0
  140.9570   75.6300  219.3370 C   0  0  0  0  0  0  0  0  0  0  0  0
  141.0120   74.3340  219.8520 C   0  0  0  0  0  0  0  0  0  0  0  0
  142.2230   73.7900  220.3210 C   0  0  0  0  0  0  0  0  0  0  0  0
  142.2170   72.3680  220.8620 C   0  0  2  0  0  0  0  0  0  0  0  0
  143.0800   71.4200  220.0210 C   0  0  0  0  0  0  0  0  0  0  0  0
  140.8430   71.8680  220.9960 N   0  0  0  0  0  0  0  0  0  0  0  0
  139.9610   72.3900  222.0030 C   0  0  0  0  0  0  0  0  0  0  0  0
  140.3230   73.3690  222.7100 O   0  0  0  0  0  0  0  0  0  0  0  0
  138.6390   71.7310  222.3030 C   0  0  2  0  0  0  0  0  0  0  0  0
  138.8300   70.2650  222.7070 C   0  0  0  0  0  0  0  0  0  0  0  0
  138.3650   69.4420  221.5010 C   0  0  1  0  0  0  0  0  0  0  0  0
  137.7300   68.2450  221.8810 O   0  0  0  0  0  0  0  0  0  0  0  0
  137.4460   70.3610  220.6970 C   0  0  0  0  0  0  0  0  0  0  0  0
  137.7680   71.7090  221.1330 N   0  0  0  0  0  0  0  0  0  0  0  0
  136.9940   72.8430  220.7050 C   0  0  0  0  0  0  0  0  0  0  0  0
  136.8250   73.0550  219.4740 O   0  0  0  0  0  0  0  0  0  0  0  0
  136.4320   73.8150  221.6990 C   0  0  0  0  0  0  0  0  0  0  0  0
  137.4800   74.6160  222.3270 N   0  0  0  0  0  0  0  0  0  0  0  0
  137.4460   76.0470  222.2490 C   0  0  0  0  0  0  0  0  0  0  0  0
  136.3600   76.6320  221.9820 O   0  0  0  0  0  0  0  0  0  0  0  0
  138.6740   76.8390  222.4580 C   0  0  0  0  0  0  0  0  0  0  0  0
  139.9460   76.2520  222.3350 C   0  0  0  0  0  0  0  0  0  0  0  0
  141.0880   77.0150  222.5840 C   0  0  0  0  0  0  0  0  0  0  0  0
  140.9610   78.3590  222.9510 C   0  0  0  0  0  0  0  0  0  0  0  0
  142.0860   79.1550  223.2140 C   0  0  0  0  0  0  0  0  0  0  0  0
  141.9230   80.4950  223.5840 C   0  0  0  0  0  0  0  0  0  0  0  0
  143.0120   81.2640  223.8360 F   0  0  0  0  0  0  0  0  0  0  0  0
  140.6410   81.0460  223.6910 C   0  0  0  0  0  0  0  0  0  0  0  0
  139.5140   80.2590  223.4320 C   0  0  0  0  0  0  0  0  0  0  0  0
  139.6670   78.9190  223.0600 C   0  0  0  0  0  0  0  0  0  0  0  0
  138.5740   78.1510  222.8120 N   0  0  0  0  0  0  0  0  0  0  0  0
  143.3940   74.5850  220.2500 C   0  0  0  0  0  0  0  0  0  0  0  0
  144.9730   74.0150  220.7870 Cl  0  0  0  0  0  0  0  0  0  0  0  0
  143.3270   75.8840  219.7290 C   0  0  0  0  0  0  0  0  0  0  0  0
  143.4519   78.7665  217.5866 H   0  0  0  0  0  0  0  0  0  0  0  0
  142.8884   77.1920  216.9309 H   0  0  0  0  0  0  0  0  0  0  0  0
  141.7869   78.6108  216.9309 H   0  0  0  0  0  0  0  0  0  0  0  0
  140.0001   76.0362  218.9774 H   0  0  0  0  0  0  0  0  0  0  0  0
  140.0948   73.7280  219.8921 H   0  0  0  0  0  0  0  0  0  0  0  0
  142.6715   72.3978  221.8633 H   0  0  0  0  0  0  0  0  0  0  0  0
  143.6693   70.7726  220.6870 H   0  0  0  0  0  0  0  0  0  0  0  0
  142.4308   70.7990  219.3863 H   0  0  0  0  0  0  0  0  0  0  0  0
  143.7591   72.0082  219.3863 H   0  0  0  0  0  0  0  0  0  0  0  0
  140.5220   71.0690  220.4030 H   0  0  0  0  0  0  0  0  0  0  0  0
  138.1924   72.3209  223.1170 H   0  0  0  0  0  0  0  0  0  0  0  0
  139.8887   70.0616  222.9256 H   0  0  0  0  0  0  0  0  0  0  0  0
  138.2608   70.0151  223.6145 H   0  0  0  0  0  0  0  0  0  0  0  0
  139.2213   69.1129  220.8940 H   0  0  0  0  0  0  0  0  0  0  0  0
  136.9120   68.1430  221.3270 H   0  0  0  0  0  0  0  0  0  0  0  0
  137.6374   70.2493  219.6196 H   0  0  0  0  0  0  0  0  0  0  0  0
  136.3848   70.1216  220.8602 H   0  0  0  0  0  0  0  0  0  0  0  0
  135.7313   74.4874  221.1824 H   0  0  0  0  0  0  0  0  0  0  0  0
  135.9217   73.2416  222.4869 H   0  0  0  0  0  0  0  0  0  0  0  0
  138.2900   74.1470  222.7920 H   0  0  0  0  0  0  0  0  0  0  0  0
  140.0406   75.1955  222.0437 H   0  0  0  0  0  0  0  0  0  0  0  0
  142.0855   76.5606  222.4919 H   0  0  0  0  0  0  0  0  0  0  0  0
  143.0955   78.7263  223.1295 H   0  0  0  0  0  0  0  0  0  0  0  0
  140.5193   82.1005  223.9795 H   0  0  0  0  0  0  0  0  0  0  0  0
  138.5074   80.6937  223.5208 H   0  0  0  0  0  0  0  0  0  0  0  0
  144.2410   76.4938  219.6757 H   0  0  0  0  0  0  0  0  0  0  0  0
  1  2  1  0
  2  3  1  0
  3  4  2  0
  4  5  1  0
  5  6  2  0
  6  7  1  0
  7  8  1  0
  7  9  1  0
  9 10  1  0
 10 11  2  0
 10 12  1  0
 12 13  1  0
 13 14  1  0
 14 15  1  0
 14 16  1  0
 16 17  1  0
 17 18  1  0
 18 19  2  0
 18 20  1  0
 20 21  1  0
 21 22  1  0
 22 23  2  0
 22 24  1  0
 24 25  2  0
 25 26  1  0
 26 27  2  0
 27 28  1  0
 28 29  2  0
 29 30  1  0
 29 31  1  0
 31 32  2  0
 32 33  1  0
 33 34  2  0
  6 35  1  0
 35 36  1  0
 35 37  2  0
 37  3  1  0
 17 12  1  0
 34 24  1  0
 33 27  1  0
  1 38  1  0
  1 39  1  0
  1 40  1  0
  4 41  1  0
  5 42  1  0
  7 43  1  1
  8 44  1  0
  8 45  1  0
  8 46  1  0
  9 47  1  0
 12 48  1  1
 13 49  1  0
 13 50  1  0
 14 51  1  6
 15 52  1  0
 16 53  1  0
 16 54  1  0
 20 55  1  0
 20 56  1  0
 21 57  1  0
 25 58  1  0
 26 59  1  0
 28 60  1  0
 31 61  1  0
 32 62  1  0
 37 63  1  0
M  END
>  <UniqueID>  (58) 
3

>  <SMILES>  (58) 
COc1ccc([C@H](C)NC(=O)[C@@H]2C[C@@H](O)CN2C(=O)CNC(=O)c2ccc3cc(F)ccc3n2)c(Cl)c1

>  <Energy>  (58) 
63.932665242010444

>  <Genealogy>  (58) 
COc1ccc([C@H](C)NC(=O)[C@@H]2C[C@@H](O)CN2C(=O)CNC(=O)c2ccc3cc(F)ccc3n2)c(Cl)c1 (3D coordinates assigned)
COc1ccc([C@H](C)NC(=O)[C@@H]2C[C@@H](O)CN2C(=O)CNC(=O)c2ccc3cc(F)ccc3n2)c(Cl)c1 (nonaromatic ring conformer: 63.932665242010444 kcal/mol)

>  <smiles>  (58) 
COc1ccc([C@H](C)NC(=O)[C@@H]2C[C@@H](O)CN2C(=O)CNC(=O)c2ccc3cc(F)ccc3n2)c(Cl)c1

>  <score_type>  (58) 
oracle

>  <origin>  (58) 
autodockgpu

>  <m_score__min__energy>  (58) 
-9.4800000000000004

>  <m_primary>  (58) 
energy

>  <meeko>  (58) 
{"free_energy": -6.65, "intermolecular_energy": -9.33, "internal_energy": -3.46, "cluster_size": 1, "cluster_id": 5, "rank_in_cluster": 1}

>  <energy>  (58) 
-5.56

>  <cluster_rmsd>  (58) 
1.04

>  <rmsd>  (58) 
271.31

>  <cluster>  (58) 
7

$$$$
PMUWBFKMLGLUTF-QDRFXLRBNA-N
     RDKit          3D

 63 66  0  0  0  0  0  0  0  0999 V2000
  143.0010   82.2660  217.2950 C   0  0  0  0  0  0  0  0  0  0  0  0
  142.2120   82.6970  218.3990 O   0  0  0  0  0  0  0  0  0  0  0  0
  141.8130   81.8700  219.4590 C   0  0  0  0  0  0  0  0  0  0  0  0
  141.2580   82.3780  220.6440 C   0  0  0  0  0  0  0  0  0  0  0  0
  140.8820   81.5150  221.6730 C   0  0  0  0  0  0  0  0  0  0  0  0
  141.0510   80.1220  221.5500 C   0  0  0  0  0  0  0  0  0  0  0  0
  140.6120   79.2340  222.7050 C   0  0  2  0  0  0  0  0  0  0  0  0
  141.8020   78.6580  223.4830 C   0  0  0  0  0  0  0  0  0  0  0  0
  139.7140   78.1740  222.2350 N   0  0  0  0  0  0  0  0  0  0  0  0
  138.4240   78.4870  221.6830 C   0  0  0  0  0  0  0  0  0  0  0  0
  138.0990   79.6900  221.4900 O   0  0  0  0  0  0  0  0  0  0  0  0
  137.4050   77.4100  221.4140 C   0  0  2  0  0  0  0  0  0  0  0  0
  136.0730   77.7240  222.1020 C   0  0  0  0  0  0  0  0  0  0  0  0
  135.9900   76.7660  223.2950 C   0  0  1  0  0  0  0  0  0  0  0  0
  134.6740   76.3310  223.5420 O   0  0  0  0  0  0  0  0  0  0  0  0
  136.9350   75.6110  222.9700 C   0  0  0  0  0  0  0  0  0  0  0  0
  137.8300   76.1190  221.9440 N   0  0  0  0  0  0  0  0  0  0  0  0
  138.7700   75.2620  221.2740 C   0  0  0  0  0  0  0  0  0  0  0  0
  139.8060   75.7560  220.7530 O   0  0  0  0  0  0  0  0  0  0  0  0
  138.5080   73.7920  221.1290 C   0  0  0  0  0  0  0  0  0  0  0  0
  138.6470   73.0880  222.4010 N   0  0  0  0  0  0  0  0  0  0  0  0
  139.9210   72.5750  222.8120 C   0  0  0  0  0  0  0  0  0  0  0  0
  140.9760   73.0340  222.2920 O   0  0  0  0  0  0  0  0  0  0  0  0
  140.0070   71.5020  223.8220 C   0  0  0  0  0  0  0  0  0  0  0  0
  139.5490   70.2020  223.5400 C   0  0  0  0  0  0  0  0  0  0  0  0
  139.6000   69.2200  224.5310 C   0  0  0  0  0  0  0  0  0  0  0  0
  140.1100   69.5330  225.7970 C   0  0  0  0  0  0  0  0  0  0  0  0
  140.1720   68.5740  226.8180 C   0  0  0  0  0  0  0  0  0  0  0  0
  140.6820   68.9220  228.0740 C   0  0  0  0  0  0  0  0  0  0  0  0
  140.7440   67.9920  229.0600 F   0  0  0  0  0  0  0  0  0  0  0  0
  141.1330   70.2250  228.3150 C   0  0  0  0  0  0  0  0  0  0  0  0
  141.0740   71.1880  227.3020 C   0  0  0  0  0  0  0  0  0  0  0  0
  140.5660   70.8480  226.0430 C   0  0  0  0  0  0  0  0  0  0  0  0
  140.5020   71.7830  225.0590 N   0  0  0  0  0  0  0  0  0  0  0  0
  141.6040   79.6110  220.3490 C   0  0  0  0  0  0  0  0  0  0  0  0
  141.8500   77.8890  220.0640 Cl  0  0  0  0  0  0  0  0  0  0  0  0
  141.9760   80.4890  219.3220 C   0  0  0  0  0  0  0  0  0  0  0  0
  143.9099   81.7695  217.6656 H   0  0  0  0  0  0  0  0  0  0  0  0
  142.4208   81.5595  216.6832 H   0  0  0  0  0  0  0  0  0  0  0  0
  143.2819   83.1360  216.6832 H   0  0  0  0  0  0  0  0  0  0  0  0
  141.1188   83.4628  220.7617 H   0  0  0  0  0  0  0  0  0  0  0  0
  140.4468   81.9285  222.5948 H   0  0  0  0  0  0  0  0  0  0  0  0
  140.0550   79.8682  223.4104 H   0  0  0  0  0  0  0  0  0  0  0  0
  141.6130   78.7495  224.5628 H   0  0  0  0  0  0  0  0  0  0  0  0
  141.9319   77.5973  223.2221 H   0  0  0  0  0  0  0  0  0  0  0  0
  142.7145   79.2142  223.2221 H   0  0  0  0  0  0  0  0  0  0  0  0
  139.9790   77.1720  222.3690 H   0  0  0  0  0  0  0  0  0  0  0  0
  137.2969   77.3716  220.3200 H   0  0  0  0  0  0  0  0  0  0  0  0
  136.0555   78.7686  222.4463 H   0  0  0  0  0  0  0  0  0  0  0  0
  135.2213   77.5968  221.4176 H   0  0  0  0  0  0  0  0  0  0  0  0
  136.2890   77.2685  224.2267 H   0  0  0  0  0  0  0  0  0  0  0  0
  134.1810   76.3440  222.6810 H   0  0  0  0  0  0  0  0  0  0  0  0
  137.5034   75.3160  223.8644 H   0  0  0  0  0  0  0  0  0  0  0  0
  136.3880   74.7194  222.6296 H   0  0  0  0  0  0  0  0  0  0  0  0
  137.4845   73.6482  220.7525 H   0  0  0  0  0  0  0  0  0  0  0  0
  139.2488   73.3803  220.4278 H   0  0  0  0  0  0  0  0  0  0  0  0
  137.8050   72.9080  222.9940 H   0  0  0  0  0  0  0  0  0  0  0  0
  139.1524   69.9603  222.5429 H   0  0  0  0  0  0  0  0  0  0  0  0
  139.2403   68.2026  224.3178 H   0  0  0  0  0  0  0  0  0  0  0  0
  139.8200   67.5486  226.6319 H   0  0  0  0  0  0  0  0  0  0  0  0
  141.5348   70.4924  229.3034 H   0  0  0  0  0  0  0  0  0  0  0  0
  141.4267   72.2119  227.4949 H   0  0  0  0  0  0  0  0  0  0  0  0
  142.4034   80.0843  218.3927 H   0  0  0  0  0  0  0  0  0  0  0  0
  1  2  1  0
  2  3  1  0
  3  4  2  0
  4  5  1  0
  5  6  2  0
  6  7  1  0
  7  8  1  0
  7  9  1  0
  9 10  1  0
 10 11  2  0
 10 12  1  0
 12 13  1  0
 13 14  1  0
 14 15  1  0
 14 16  1  0
 16 17  1  0
 17 18  1  0
 18 19  2  0
 18 20  1  0
 20 21  1  0
 21 22  1  0
 22 23  2  0
 22 24  1  0
 24 25  2  0
 25 26  1  0
 26 27  2  0
 27 28  1  0
 28 29  2  0
 29 30  1  0
 29 31  1  0
 31 32  2  0
 32 33  1  0
 33 34  2  0
  6 35  1  0
 35 36  1  0
 35 37  2  0
 37  3  1  0
 17 12  1  0
 34 24  1  0
 33 27  1  0
  1 38  1  0
  1 39  1  0
  1 40  1  0
  4 41  1  0
  5 42  1  0
  7 43  1  1
  8 44  1  0
  8 45  1  0
  8 46  1  0
  9 47  1  0
 12 48  1  6
 13 49  1  0
 13 50  1  0
 14 51  1  1
 15 52  1  0
 16 53  1  0
 16 54  1  0
 20 55  1  0
 20 56  1  0
 21 57  1  0
 25 58  1  0
 26 59  1  0
 28 60  1  0
 31 61  1  0
 32 62  1  0
 37 63  1  0
M  END
>  <UniqueID>  (59) 
3

>  <SMILES>  (59) 
COc1ccc([C@H](C)NC(=O)[C@@H]2C[C@@H](O)CN2C(=O)CNC(=O)c2ccc3cc(F)ccc3n2)c(Cl)c1

>  <Energy>  (59) 
63.932665242010444

>  <Genealogy>  (59) 
COc1ccc([C@H](C)NC(=O)[C@@H]2C[C@@H](O)CN2C(=O)CNC(=O)c2ccc3cc(F)ccc3n2)c(Cl)c1 (3D coordinates assigned)
COc1ccc([C@H](C)NC(=O)[C@@H]2C[C@@H](O)CN2C(=O)CNC(=O)c2ccc3cc(F)ccc3n2)c(Cl)c1 (nonaromatic ring conformer: 63.932665242010444 kcal/mol)

>  <smiles>  (59) 
COc1ccc([C@H](C)NC(=O)[C@@H]2C[C@@H](O)CN2C(=O)CNC(=O)c2ccc3cc(F)ccc3n2)c(Cl)c1

>  <score_type>  (59) 
oracle

>  <origin>  (59) 
autodockgpu

>  <m_score__min__energy>  (59) 
-9.4800000000000004

>  <m_primary>  (59) 
energy

>  <meeko>  (59) 
{"free_energy": -7.76, "intermolecular_energy": -10.45, "internal_energy": -2.52, "cluster_size": 2, "cluster_id": 4, "rank_in_cluster": 1}

>  <energy>  (59) 
-5.22

>  <cluster_rmsd>  (59) 
1.25

>  <rmsd>  (59) 
271.04

>  <cluster>  (59) 
7

$$$$
PMUWBFKMLGLUTF-QDRFXLRBNA-N
     RDKit          3D

 63 66  0  0  0  0  0  0  0  0999 V2000
  140.3480   83.0160  220.8720 C   0  0  0  0  0  0  0  0  0  0  0  0
  139.7850   81.7630  220.5000 O   0  0  0  0  0  0  0  0  0  0  0  0
  140.4990   80.7260  219.8810 C   0  0  0  0  0  0  0  0  0  0  0  0
  141.8500   80.8510  219.5220 C   0  0  0  0  0  0  0  0  0  0  0  0
  142.5150   79.7920  218.9030 C   0  0  0  0  0  0  0  0  0  0  0  0
  141.8510   78.5820  218.6230 C   0  0  0  0  0  0  0  0  0  0  0  0
  142.6360   77.4630  217.9530 C   0  0  2  0  0  0  0  0  0  0  0  0
  142.2220   77.2540  216.4910 C   0  0  0  0  0  0  0  0  0  0  0  0
  142.5300   76.2190  218.7250 N   0  0  0  0  0  0  0  0  0  0  0  0
  143.4850   75.9010  219.7500 C   0  0  0  0  0  0  0  0  0  0  0  0
  144.3610   76.7460  220.0780 O   0  0  0  0  0  0  0  0  0  0  0  0
  143.5250   74.5340  220.3840 C   0  0  2  0  0  0  0  0  0  0  0  0
  144.9640   74.0230  220.5060 C   0  0  0  0  0  0  0  0  0  0  0  0
  145.1100   72.9440  219.4270 C   0  0  1  0  0  0  0  0  0  0  0  0
  145.9390   71.8840  219.8380 O   0  0  0  0  0  0  0  0  0  0  0  0
  143.6900   72.4820  219.1040 C   0  0  0  0  0  0  0  0  0  0  0  0
  142.8180   73.5440  219.5800 N   0  0  0  0  0  0  0  0  0  0  0  0
  141.3890   73.3970  219.5870 C   0  0  0  0  0  0  0  0  0  0  0  0
  140.7420   73.5280  218.5130 O   0  0  0  0  0  0  0  0  0  0  0  0
  140.6430   73.1490  220.8650 C   0  0  0  0  0  0  0  0  0  0  0  0
  140.6620   74.3170  221.7400 N   0  0  0  0  0  0  0  0  0  0  0  0
  139.6150   75.2950  221.6710 C   0  0  0  0  0  0  0  0  0  0  0  0
  138.5080   74.9870  221.1500 O   0  0  0  0  0  0  0  0  0  0  0  0
  139.8300   76.6610  222.1850 C   0  0  0  0  0  0  0  0  0  0  0  0
  138.7670   77.4130  222.7160 C   0  0  0  0  0  0  0  0  0  0  0  0
  138.9930   78.7200  223.1520 C   0  0  0  0  0  0  0  0  0  0  0  0
  140.2750   79.2730  223.0620 C   0  0  0  0  0  0  0  0  0  0  0  0
  140.5380   80.5840  223.4850 C   0  0  0  0  0  0  0  0  0  0  0  0
  141.8310   81.1080  223.3760 C   0  0  0  0  0  0  0  0  0  0  0  0
  142.0850   82.3760  223.7870 F   0  0  0  0  0  0  0  0  0  0  0  0
  142.8660   80.3270  222.8460 C   0  0  0  0  0  0  0  0  0  0  0  0
  142.6120   79.0190  222.4210 C   0  0  0  0  0  0  0  0  0  0  0  0
  141.3220   78.4870  222.5280 C   0  0  0  0  0  0  0  0  0  0  0  0
  141.0720   77.2180  222.1110 N   0  0  0  0  0  0  0  0  0  0  0  0
  140.4890   78.4560  218.9940 C   0  0  0  0  0  0  0  0  0  0  0  0
  139.5520   76.9900  218.7170 Cl  0  0  0  0  0  0  0  0  0  0  0  0
  139.8330   79.5260  219.6180 C   0  0  0  0  0  0  0  0  0  0  0  0
  140.3820   83.0916  221.9689 H   0  0  0  0  0  0  0  0  0  0  0  0
  141.3679   83.0944  220.4673 H   0  0  0  0  0  0  0  0  0  0  0  0
  139.7294   83.8306  220.4673 H   0  0  0  0  0  0  0  0  0  0  0  0
  142.3871   81.7882  219.7296 H   0  0  0  0  0  0  0  0  0  0  0  0
  143.5745   79.9040  218.6294 H   0  0  0  0  0  0  0  0  0  0  0  0
  143.6924   77.7692  217.9372 H   0  0  0  0  0  0  0  0  0  0  0  0
  141.2406   76.7585  216.4551 H   0  0  0  0  0  0  0  0  0  0  0  0
  142.1595   78.2286  215.9847 H   0  0  0  0  0  0  0  0  0  0  0  0
  142.9690   76.6250  215.9847 H   0  0  0  0  0  0  0  0  0  0  0  0
  141.7950   75.5170  218.4790 H   0  0  0  0  0  0  0  0  0  0  0  0
  143.0520   74.6507  221.3702 H   0  0  0  0  0  0  0  0  0  0  0  0
  145.6783   74.8409  220.3305 H   0  0  0  0  0  0  0  0  0  0  0  0
  145.1714   73.6255  221.5105 H   0  0  0  0  0  0  0  0  0  0  0  0
  145.6070   73.3456  218.5316 H   0  0  0  0  0  0  0  0  0  0  0  0
  145.8830   71.8170  220.8270 H   0  0  0  0  0  0  0  0  0  0  0  0
  143.5686   72.3419  218.0197 H   0  0  0  0  0  0  0  0  0  0  0  0
  143.4564   71.5182  219.5799 H   0  0  0  0  0  0  0  0  0  0  0  0
  139.5985   72.9010  220.6250 H   0  0  0  0  0  0  0  0  0  0  0  0
  141.1357   72.3190  221.3925 H   0  0  0  0  0  0  0  0  0  0  0  0
  141.4690   74.4750  222.3860 H   0  0  0  0  0  0  0  0  0  0  0  0
  137.7613   76.9732  222.7876 H   0  0  0  0  0  0  0  0  0  0  0  0
  138.1646   79.3139  223.5655 H   0  0  0  0  0  0  0  0  0  0  0  0
  139.7281   81.2003  223.9024 H   0  0  0  0  0  0  0  0  0  0  0  0
  143.8808   80.7434  222.7639 H   0  0  0  0  0  0  0  0  0  0  0  0
  143.4259   78.4086  222.0028 H   0  0  0  0  0  0  0  0  0  0  0  0
  138.7766   79.4194  219.9054 H   0  0  0  0  0  0  0  0  0  0  0  0
  1  2  1  0
  2  3  1  0
  3  4  2  0
  4  5  1  0
  5  6  2  0
  6  7  1  0
  7  8  1  0
  7  9  1  0
  9 10  1  0
 10 11  2  0
 10 12  1  0
 12 13  1  0
 13 14  1  0
 14 15  1  0
 14 16  1  0
 16 17  1  0
 17 18  1  0
 18 19  2  0
 18 20  1  0
 20 21  1  0
 21 22  1  0
 22 23  2  0
 22 24  1  0
 24 25  2  0
 25 26  1  0
 26 27  2  0
 27 28  1  0
 28 29  2  0
 29 30  1  0
 29 31  1  0
 31 32  2  0
 32 33  1  0
 33 34  2  0
  6 35  1  0
 35 36  1  0
 35 37  2  0
 37  3  1  0
 17 12  1  0
 34 24  1  0
 33 27  1  0
  1 38  1  0
  1 39  1  0
  1 40  1  0
  4 41  1  0
  5 42  1  0
  7 43  1  6
  8 44  1  0
  8 45  1  0
  8 46  1  0
  9 47  1  0
 12 48  1  1
 13 49  1  0
 13 50  1  0
 14 51  1  6
 15 52  1  0
 16 53  1  0
 16 54  1  0
 20 55  1  0
 20 56  1  0
 21 57  1  0
 25 58  1  0
 26 59  1  0
 28 60  1  0
 31 61  1  0
 32 62  1  0
 37 63  1  0
M  END
>  <UniqueID>  (60) 
3

>  <SMILES>  (60) 
COc1ccc([C@H](C)NC(=O)[C@@H]2C[C@@H](O)CN2C(=O)CNC(=O)c2ccc3cc(F)ccc3n2)c(Cl)c1

>  <Energy>  (60) 
63.932665242010444

>  <Genealogy>  (60) 
COc1ccc([C@H](C)NC(=O)[C@@H]2C[C@@H](O)CN2C(=O)CNC(=O)c2ccc3cc(F)ccc3n2)c(Cl)c1 (3D coordinates assigned)
COc1ccc([C@H](C)NC(=O)[C@@H]2C[C@@H](O)CN2C(=O)CNC(=O)c2ccc3cc(F)ccc3n2)c(Cl)c1 (nonaromatic ring conformer: 63.932665242010444 kcal/mol)

>  <smiles>  (60) 
COc1ccc([C@H](C)NC(=O)[C@@H]2C[C@@H](O)CN2C(=O)CNC(=O)c2ccc3cc(F)ccc3n2)c(Cl)c1

>  <score_type>  (60) 
oracle

>  <origin>  (60) 
autodockgpu

>  <m_score__min__energy>  (60) 
-9.4800000000000004

>  <m_primary>  (60) 
energy

>  <meeko>  (60) 
{"free_energy": -6.14, "intermolecular_energy": -8.83, "internal_energy": -5.05, "cluster_size": 10, "cluster_id": 7, "rank_in_cluster": 1}

>  <energy>  (60) 
-5.52

>  <cluster_rmsd>  (60) 
0.0

>  <rmsd>  (60) 
271.33

>  <cluster>  (60) 
8

$$$$
JFIDHXWBANSMLJ-LGGCBPRRNA-N
     RDKit          3D

 63 66  0  0  0  0  0  0  0  0999 V2000
  139.8840   71.5690  219.4360 H   0  0  0  0  0  0  0  0  0  0  0  0
  140.5450   72.2920  219.1780 O   0  0  0  0  0  0  0  0  0  0  0  0
  141.1690   73.1400  220.1020 C   0  0  0  0  0  0  0  0  0  0  0  0
  142.3910   73.5870  219.8920 N   0  0  0  0  0  0  0  0  0  0  0  0
  143.3830   72.8690  219.0980 C   0  0  0  0  0  0  0  0  0  0  0  0
  142.9829   72.6474  218.0976 H   0  0  0  0  0  0  0  0  0  0  0  0
  143.6515   71.9096  219.5643 H   0  0  0  0  0  0  0  0  0  0  0  0
  144.5940   73.7940  218.9910 C   0  0  2  0  0  0  0  0  0  0  0  0
  144.6391   74.2797  218.0051 H   0  0  0  0  0  0  0  0  0  0  0  0
  145.7960   73.0820  219.1320 O   0  0  0  0  0  0  0  0  0  0  0  0
  146.5300   73.7390  218.9970 H   0  0  0  0  0  0  0  0  0  0  0  0
  144.4340   74.8060  220.1200 C   0  0  0  0  0  0  0  0  0  0  0  0
  144.7714   75.8009  219.7939 H   0  0  0  0  0  0  0  0  0  0  0  0
  145.0367   74.5326  220.9986 H   0  0  0  0  0  0  0  0  0  0  0  0
  142.9390   74.8300  220.4460 C   0  0  1  0  0  0  0  0  0  0  0  0
  142.7677   74.9015  221.5302 H   0  0  0  0  0  0  0  0  0  0  0  0
  142.2680   76.0300  219.8330 C   0  0  0  0  0  0  0  0  0  0  0  0
  142.4500   76.2860  218.6120 O   0  0  0  0  0  0  0  0  0  0  0  0
  141.4560   76.8930  220.6390 N   0  0  0  0  0  0  0  0  0  0  0  0
  141.8200   78.2790  220.9150 C   0  0  2  0  0  0  0  0  0  0  0  0
  142.8436   78.3061  221.3168 H   0  0  0  0  0  0  0  0  0  0  0  0
  140.8940   78.8700  221.9670 C   0  0  0  0  0  0  0  0  0  0  0  0
  139.5490   78.4680  221.9800 C   0  0  0  0  0  0  0  0  0  0  0  0
  139.1979   77.7234  221.2504 H   0  0  0  0  0  0  0  0  0  0  0  0
  138.6510   79.0010  222.9070 C   0  0  0  0  0  0  0  0  0  0  0  0
  137.6014   78.6718  222.9000 H   0  0  0  0  0  0  0  0  0  0  0  0
  139.0720   79.9470  223.8420 C   0  0  0  0  0  0  0  0  0  0  0  0
  138.1270   80.4590  224.7440 O   0  0  0  0  0  0  0  0  0  0  0  0
  136.8770   81.0260  224.3640 C   0  0  0  0  0  0  0  0  0  0  0  0
  136.3032   81.2863  225.2657 H   0  0  0  0  0  0  0  0  0  0  0  0
  137.0522   81.9328  223.7664 H   0  0  0  0  0  0  0  0  0  0  0  0
  136.3102   80.2969  223.7664 H   0  0  0  0  0  0  0  0  0  0  0  0
  140.4180   80.3540  223.8460 C   0  0  0  0  0  0  0  0  0  0  0  0
  140.7600   81.0965  224.5820 H   0  0  0  0  0  0  0  0  0  0  0  0
  141.3270   79.8240  222.9230 C   0  0  0  0  0  0  0  0  0  0  0  0
  142.9880   80.4020  223.0060 Cl  0  0  0  0  0  0  0  0  0  0  0  0
  141.8070   79.1010  219.6280 C   0  0  0  0  0  0  0  0  0  0  0  0
  141.7901   80.1722  219.8773 H   0  0  0  0  0  0  0  0  0  0  0  0
  142.7088   78.8756  219.0399 H   0  0  0  0  0  0  0  0  0  0  0  0
  140.9128   78.8472  219.0399 H   0  0  0  0  0  0  0  0  0  0  0  0
  140.3650   73.5640  221.3110 C   0  0  0  0  0  0  0  0  0  0  0  0
  140.7080   74.5558  221.6406 H   0  0  0  0  0  0  0  0  0  0  0  0
  139.3020   73.5960  221.0298 H   0  0  0  0  0  0  0  0  0  0  0  0
  140.5260   72.6130  222.4110 N   0  0  0  0  0  0  0  0  0  0  0  0
  140.9110   72.9770  223.3110 H   0  0  0  0  0  0  0  0  0  0  0  0
  139.9200   71.3100  222.3910 C   0  0  0  0  0  0  0  0  0  0  0  0
  139.4040   70.8750  221.3280 O   0  0  0  0  0  0  0  0  0  0  0  0
  139.8840   70.4810  223.6160 C   0  0  0  0  0  0  0  0  0  0  0  0
  140.4850   70.9300  224.7520 N   0  0  0  0  0  0  0  0  0  0  0  0
  140.4520   70.2300  225.9170 C   0  0  0  0  0  0  0  0  0  0  0  0
  141.0790   70.7370  227.0610 C   0  0  0  0  0  0  0  0  0  0  0  0
  141.6154   71.6963  227.0154 H   0  0  0  0  0  0  0  0  0  0  0  0
  141.0230   70.0230  228.2620 C   0  0  0  0  0  0  0  0  0  0  0  0
  141.5154   70.4233  229.1605 H   0  0  0  0  0  0  0  0  0  0  0  0
  140.3430   68.8010  228.3260 C   0  0  0  0  0  0  0  0  0  0  0  0
  140.2870   68.1180  229.4960 F   0  0  0  0  0  0  0  0  0  0  0  0
  139.7210   68.2830  227.1850 C   0  0  0  0  0  0  0  0  0  0  0  0
  139.1923   67.3197  227.2357 H   0  0  0  0  0  0  0  0  0  0  0  0
  139.7720   68.9930  225.9760 C   0  0  0  0  0  0  0  0  0  0  0  0
  139.1560   68.5050  224.8180 C   0  0  0  0  0  0  0  0  0  0  0  0
  138.6303   67.5389  224.8387 H   0  0  0  0  0  0  0  0  0  0  0  0
  139.2100   69.2470  223.6360 C   0  0  0  0  0  0  0  0  0  0  0  0
  138.7269   68.8673  222.7236 H   0  0  0  0  0  0  0  0  0  0  0  0
  1  2  1  0
  2  3  1  0
  3  4  2  0
  4  5  1  0
  5  6  1  0
  5  7  1  0
  5  8  1  0
  8  9  1  6
  8 10  1  0
 10 11  1  0
  8 12  1  0
 12 13  1  0
 12 14  1  0
 12 15  1  0
 15 16  1  1
 15 17  1  0
 17 18  2  0
 17 19  1  0
 19 20  1  0
 20 21  1  1
 20 22  1  0
 22 23  2  0
 23 24  1  0
 23 25  1  0
 25 26  1  0
 25 27  2  0
 27 28  1  0
 28 29  1  0
 29 30  1  0
 29 31  1  0
 29 32  1  0
 27 33  1  0
 33 34  1  0
 33 35  2  0
 35 36  1  0
 20 37  1  0
 37 38  1  0
 37 39  1  0
 37 40  1  0
  3 41  1  0
 41 42  1  0
 41 43  1  0
 41 44  1  0
 44 45  1  0
 44 46  1  0
 46 47  2  0
 46 48  1  0
 48 49  2  0
 49 50  1  0
 50 51  2  0
 51 52  1  0
 51 53  1  0
 53 54  1  0
 53 55  2  0
 55 56  1  0
 55 57  1  0
 57 58  1  0
 57 59  2  0
 59 60  1  0
 60 61  1  0
 60 62  2  0
 62 63  1  0
 15  4  1  0
 35 22  1  0
 62 48  1  0
 59 50  1  0
M  CHG  2   4   1  19  -1
M  END
>  <UniqueID>  (61) 
4

>  <SMILES>  (61) 
COc1ccc([C@H](C)[N-]C(=O)[C@@H]2C[C@@H](O)C/[N+]2=C(\O)CNC(=O)c2ccc3cc(F)ccc3n2)c(Cl)c1

>  <Energy>  (61) 
65.5536039589818

>  <Genealogy>  (61) 
COc1ccc([C@H](C)[N-]C(=O)[C@@H]2C[C@@H](O)C[NH+]2C(=O)CNC(=O)c2ccc3cc(F)ccc3n2)c(Cl)c1 (protonated)
COc1ccc([C@H](C)[N-]C(=O)[C@@H]2C[C@@H](O)C[N+]2=C(O)CNC(=O)c2ccc3cc(F)ccc3n2)c(Cl)c1 (tautomer)
COc1ccc([C@H](C)[N-]C(=O)[C@@H]2C[C@@H](O)C/[N+]2=C(\O)CNC(=O)c2ccc3cc(F)ccc3n2)c(Cl)c1 (cis-trans isomerization)
COc1ccc([C@H](C)[N-]C(=O)[C@@H]2C[C@@H](O)C/[N+]2=C(\O)CNC(=O)c2ccc3cc(F)ccc3n2)c(Cl)c1 (3D coordinates assigned)
COc1ccc([C@H](C)[N-]C(=O)[C@@H]2C[C@@H](O)C/[N+]2=C(\O)CNC(=O)c2ccc3cc(F)ccc3n2)c(Cl)c1 (nonaromatic ring conformer: 65.5536039589818 kcal/mol)

>  <smiles>  (61) 
COc1ccc([C@H](C)NC(=O)[C@@H]2C[C@@H](O)CN2C(=O)CNC(=O)c2ccc3cc(F)ccc3n2)c(Cl)c1

>  <score_type>  (61) 
oracle

>  <origin>  (61) 
autodockgpu

>  <m_score__min__energy>  (61) 
-8.1099999999999994

>  <m_primary>  (61) 
energy

>  <meeko>  (61) 
{"free_energy": -7.61, "intermolecular_energy": -10.9, "internal_energy": -2.62, "cluster_size": 6, "cluster_id": 1, "rank_in_cluster": 4}

>  <energy>  (61) 
-8.11

>  <cluster_rmsd>  (61) 
0.0

>  <rmsd>  (61) 
270.17

>  <cluster>  (61) 
1

$$$$
JFIDHXWBANSMLJ-LGGCBPRRNA-N
     RDKit          3D

 63 66  0  0  0  0  0  0  0  0999 V2000
  139.9780   71.6270  219.3280 H   0  0  0  0  0  0  0  0  0  0  0  0
  140.6520   72.3490  219.1040 O   0  0  0  0  0  0  0  0  0  0  0  0
  141.2470   73.1820  220.0620 C   0  0  0  0  0  0  0  0  0  0  0  0
  142.4790   73.6210  219.9040 N   0  0  0  0  0  0  0  0  0  0  0  0
  143.5160   72.8690  219.2020 C   0  0  0  0  0  0  0  0  0  0  0  0
  143.1754   72.6027  218.1905 H   0  0  0  0  0  0  0  0  0  0  0  0
  143.7552   71.9314  219.7252 H   0  0  0  0  0  0  0  0  0  0  0  0
  144.7320   73.7900  219.1260 C   0  0  2  0  0  0  0  0  0  0  0  0
  144.8355   74.2314  218.1238 H   0  0  0  0  0  0  0  0  0  0  0  0
  145.9230   73.0870  219.3690 O   0  0  0  0  0  0  0  0  0  0  0  0
  146.6630   73.7410  219.2610 H   0  0  0  0  0  0  0  0  0  0  0  0
  144.5070   74.8510  220.1970 C   0  0  0  0  0  0  0  0  0  0  0  0
  144.8649   75.8307  219.8475 H   0  0  0  0  0  0  0  0  0  0  0  0
  145.0560   74.6178  221.1212 H   0  0  0  0  0  0  0  0  0  0  0  0
  142.9960   74.8880  220.4320 C   0  0  1  0  0  0  0  0  0  0  0  0
  142.7623   75.0082  221.5001 H   0  0  0  0  0  0  0  0  0  0  0  0
  142.3630   76.0580  219.7290 C   0  0  0  0  0  0  0  0  0  0  0  0
  143.0830   77.0320  219.3740 O   0  0  0  0  0  0  0  0  0  0  0  0
  140.9500   76.0820  219.4940 N   0  0  0  0  0  0  0  0  0  0  0  0
  140.0980   77.1770  219.9480 C   0  0  2  0  0  0  0  0  0  0  0  0
  139.8875   77.8406  219.0963 H   0  0  0  0  0  0  0  0  0  0  0  0
  140.8110   78.0000  221.0100 C   0  0  0  0  0  0  0  0  0  0  0  0
  140.8190   77.5270  222.3320 C   0  0  0  0  0  0  0  0  0  0  0  0
  140.3327   76.5693  222.5695 H   0  0  0  0  0  0  0  0  0  0  0  0
  141.4370   78.2580  223.3490 C   0  0  0  0  0  0  0  0  0  0  0  0
  141.4324   77.8700  224.3783 H   0  0  0  0  0  0  0  0  0  0  0  0
  142.0600   79.4750  223.0730 C   0  0  0  0  0  0  0  0  0  0  0  0
  142.6560   80.1750  224.1340 O   0  0  0  0  0  0  0  0  0  0  0  0
  142.5400   81.5800  224.3370 C   0  0  0  0  0  0  0  0  0  0  0  0
  142.5223   81.7944  225.4158 H   0  0  0  0  0  0  0  0  0  0  0  0
  143.3991   82.0893  223.8760 H   0  0  0  0  0  0  0  0  0  0  0  0
  141.6089   81.9414  223.8760 H   0  0  0  0  0  0  0  0  0  0  0  0
  142.0650   79.9570  221.7530 C   0  0  0  0  0  0  0  0  0  0  0  0
  142.5561   80.9146  221.5254 H   0  0  0  0  0  0  0  0  0  0  0  0
  141.4520   79.2320  220.7250 C   0  0  0  0  0  0  0  0  0  0  0  0
  141.5090   79.9240  219.1060 Cl  0  0  0  0  0  0  0  0  0  0  0  0
  138.7620   76.6380  220.4580 C   0  0  0  0  0  0  0  0  0  0  0  0
  138.7624   76.6382  221.5580 H   0  0  0  0  0  0  0  0  0  0  0  0
  137.9449   77.2769  220.0915 H   0  0  0  0  0  0  0  0  0  0  0  0
  138.6170   75.6110  220.0915 H   0  0  0  0  0  0  0  0  0  0  0  0
  140.3990   73.5990  221.2430 C   0  0  0  0  0  0  0  0  0  0  0  0
  140.7052   74.6042  221.5682 H   0  0  0  0  0  0  0  0  0  0  0  0
  139.3435   73.5980  220.9333 H   0  0  0  0  0  0  0  0  0  0  0  0
  140.5570   72.6670  222.3590 N   0  0  0  0  0  0  0  0  0  0  0  0
  140.8990   73.0550  223.2680 H   0  0  0  0  0  0  0  0  0  0  0  0
  139.9980   71.3440  222.3360 C   0  0  0  0  0  0  0  0  0  0  0  0
  139.5320   70.8790  221.2620 O   0  0  0  0  0  0  0  0  0  0  0  0
  139.9490   70.5270  223.5690 C   0  0  0  0  0  0  0  0  0  0  0  0
  140.5390   70.9890  224.7070 N   0  0  0  0  0  0  0  0  0  0  0  0
  140.4950   70.3010  225.8780 C   0  0  0  0  0  0  0  0  0  0  0  0
  141.1120   70.8200  227.0220 C   0  0  0  0  0  0  0  0  0  0  0  0
  141.6502   71.7780  226.9703 H   0  0  0  0  0  0  0  0  0  0  0  0
  141.0440   70.1200  228.2310 C   0  0  0  0  0  0  0  0  0  0  0  0
  141.5270   70.5306  229.1300 H   0  0  0  0  0  0  0  0  0  0  0  0
  140.3630   68.8980  228.3010 C   0  0  0  0  0  0  0  0  0  0  0  0
  140.2950   68.2280  229.4780 F   0  0  0  0  0  0  0  0  0  0  0  0
  139.7510   68.3680  227.1600 C   0  0  0  0  0  0  0  0  0  0  0  0
  139.2210   67.4058  227.2162 H   0  0  0  0  0  0  0  0  0  0  0  0
  139.8140   69.0650  225.9440 C   0  0  0  0  0  0  0  0  0  0  0  0
  139.2090   68.5650  224.7860 C   0  0  0  0  0  0  0  0  0  0  0  0
  138.6823   67.5997  224.8123 H   0  0  0  0  0  0  0  0  0  0  0  0
  139.2750   69.2940  223.5960 C   0  0  0  0  0  0  0  0  0  0  0  0
  138.8010   68.9042  222.6831 H   0  0  0  0  0  0  0  0  0  0  0  0
  1  2  1  0
  2  3  1  0
  3  4  2  0
  4  5  1  0
  5  6  1  0
  5  7  1  0
  5  8  1  0
  8  9  1  6
  8 10  1  0
 10 11  1  0
  8 12  1  0
 12 13  1  0
 12 14  1  0
 12 15  1  0
 15 16  1  1
 15 17  1  0
 17 18  2  0
 17 19  1  0
 19 20  1  0
 20 21  1  6
 20 22  1  0
 22 23  2  0
 23 24  1  0
 23 25  1  0
 25 26  1  0
 25 27  2  0
 27 28  1  0
 28 29  1  0
 29 30  1  0
 29 31  1  0
 29 32  1  0
 27 33  1  0
 33 34  1  0
 33 35  2  0
 35 36  1  0
 20 37  1  0
 37 38  1  0
 37 39  1  0
 37 40  1  0
  3 41  1  0
 41 42  1  0
 41 43  1  0
 41 44  1  0
 44 45  1  0
 44 46  1  0
 46 47  2  0
 46 48  1  0
 48 49  2  0
 49 50  1  0
 50 51  2  0
 51 52  1  0
 51 53  1  0
 53 54  1  0
 53 55  2  0
 55 56  1  0
 55 57  1  0
 57 58  1  0
 57 59  2  0
 59 60  1  0
 60 61  1  0
 60 62  2  0
 62 63  1  0
 15  4  1  0
 35 22  1  0
 62 48  1  0
 59 50  1  0
M  CHG  2   4   1  19  -1
M  END
>  <UniqueID>  (62) 
4

>  <SMILES>  (62) 
COc1ccc([C@H](C)[N-]C(=O)[C@@H]2C[C@@H](O)C/[N+]2=C(\O)CNC(=O)c2ccc3cc(F)ccc3n2)c(Cl)c1

>  <Energy>  (62) 
65.5536039589818

>  <Genealogy>  (62) 
COc1ccc([C@H](C)[N-]C(=O)[C@@H]2C[C@@H](O)C[NH+]2C(=O)CNC(=O)c2ccc3cc(F)ccc3n2)c(Cl)c1 (protonated)
COc1ccc([C@H](C)[N-]C(=O)[C@@H]2C[C@@H](O)C[N+]2=C(O)CNC(=O)c2ccc3cc(F)ccc3n2)c(Cl)c1 (tautomer)
COc1ccc([C@H](C)[N-]C(=O)[C@@H]2C[C@@H](O)C/[N+]2=C(\O)CNC(=O)c2ccc3cc(F)ccc3n2)c(Cl)c1 (cis-trans isomerization)
COc1ccc([C@H](C)[N-]C(=O)[C@@H]2C[C@@H](O)C/[N+]2=C(\O)CNC(=O)c2ccc3cc(F)ccc3n2)c(Cl)c1 (3D coordinates assigned)
COc1ccc([C@H](C)[N-]C(=O)[C@@H]2C[C@@H](O)C/[N+]2=C(\O)CNC(=O)c2ccc3cc(F)ccc3n2)c(Cl)c1 (nonaromatic ring conformer: 65.5536039589818 kcal/mol)

>  <smiles>  (62) 
COc1ccc([C@H](C)NC(=O)[C@@H]2C[C@@H](O)CN2C(=O)CNC(=O)c2ccc3cc(F)ccc3n2)c(Cl)c1

>  <score_type>  (62) 
oracle

>  <origin>  (62) 
autodockgpu

>  <m_score__min__energy>  (62) 
-8.1099999999999994

>  <m_primary>  (62) 
energy

>  <meeko>  (62) 
{"free_energy": -7.17, "intermolecular_energy": -10.45, "internal_energy": -3.09, "cluster_size": 6, "cluster_id": 1, "rank_in_cluster": 5}

>  <energy>  (62) 
-8.04

>  <cluster_rmsd>  (62) 
0.24

>  <rmsd>  (62) 
270.13

>  <cluster>  (62) 
1

$$$$
JFIDHXWBANSMLJ-LGGCBPRRNA-N
     RDKit          3D

 63 66  0  0  0  0  0  0  0  0999 V2000
  139.8790   70.8710  219.4490 H   0  0  0  0  0  0  0  0  0  0  0  0
  139.9890   71.8000  219.0590 O   0  0  0  0  0  0  0  0  0  0  0  0
  140.1500   72.9550  219.8350 C   0  0  0  0  0  0  0  0  0  0  0  0
  141.1330   73.7990  219.5960 N   0  0  0  0  0  0  0  0  0  0  0  0
  141.6590   74.0610  218.2590 C   0  0  0  0  0  0  0  0  0  0  0  0
  140.8472   74.3681  217.5832 H   0  0  0  0  0  0  0  0  0  0  0  0
  142.1230   73.1619  217.8273 H   0  0  0  0  0  0  0  0  0  0  0  0
  142.6740   75.1910  218.4150 C   0  0  2  0  0  0  0  0  0  0  0  0
  142.2551   76.1515  218.0805 H   0  0  0  0  0  0  0  0  0  0  0  0
  143.8160   74.9660  217.6290 O   0  0  0  0  0  0  0  0  0  0  0  0
  144.5370   75.5320  218.0110 H   0  0  0  0  0  0  0  0  0  0  0  0
  143.0380   75.2100  219.8950 C   0  0  0  0  0  0  0  0  0  0  0  0
  143.1773   76.2444  220.2424 H   0  0  0  0  0  0  0  0  0  0  0  0
  143.9795   74.6750  220.0883 H   0  0  0  0  0  0  0  0  0  0  0  0
  141.8590   74.5580  220.6200 C   0  0  1  0  0  0  0  0  0  0  0  0
  142.2038   73.9093  221.4387 H   0  0  0  0  0  0  0  0  0  0  0  0
  140.9670   75.5930  221.2510 C   0  0  0  0  0  0  0  0  0  0  0  0
  140.3730   75.3240  222.3310 O   0  0  0  0  0  0  0  0  0  0  0  0
  140.7660   76.8600  220.6130 N   0  0  0  0  0  0  0  0  0  0  0  0
  141.4700   78.0690  221.0310 C   0  0  2  0  0  0  0  0  0  0  0  0
  142.4267   77.7838  221.4930 H   0  0  0  0  0  0  0  0  0  0  0  0
  140.6590   78.8200  222.0750 C   0  0  0  0  0  0  0  0  0  0  0  0
  139.2880   78.5380  222.1910 C   0  0  0  0  0  0  0  0  0  0  0  0
  138.8348   77.7710  221.5458 H   0  0  0  0  0  0  0  0  0  0  0  0
  138.4930   79.2190  223.1150 C   0  0  0  0  0  0  0  0  0  0  0  0
  137.4216   78.9815  223.1906 H   0  0  0  0  0  0  0  0  0  0  0  0
  139.0430   80.1970  223.9430 C   0  0  0  0  0  0  0  0  0  0  0  0
  138.1980   80.8600  224.8460 O   0  0  0  0  0  0  0  0  0  0  0  0
  136.9970   81.5320  224.4780 C   0  0  0  0  0  0  0  0  0  0  0  0
  136.4541   81.8358  225.3852 H   0  0  0  0  0  0  0  0  0  0  0  0
  137.2433   82.4233  223.8823 H   0  0  0  0  0  0  0  0  0  0  0  0
  136.3662   80.8558  223.8823 H   0  0  0  0  0  0  0  0  0  0  0  0
  140.4150   80.4860  223.8420 C   0  0  0  0  0  0  0  0  0  0  0  0
  140.8586   81.2539  224.4928 H   0  0  0  0  0  0  0  0  0  0  0  0
  141.2230   79.8070  222.9220 C   0  0  0  0  0  0  0  0  0  0  0  0
  142.9280   80.2450  222.8700 Cl  0  0  0  0  0  0  0  0  0  0  0  0
  141.7840   78.9480  219.8220 C   0  0  0  0  0  0  0  0  0  0  0  0
  142.1355   79.9321  220.1655 H   0  0  0  0  0  0  0  0  0  0  0  0
  142.5671   78.4703  219.2149 H   0  0  0  0  0  0  0  0  0  0  0  0
  140.8755   79.0746  219.2149 H   0  0  0  0  0  0  0  0  0  0  0  0
  139.1200   73.2190  220.9110 C   0  0  0  0  0  0  0  0  0  0  0  0
  138.8958   74.2956  220.9373 H   0  0  0  0  0  0  0  0  0  0  0  0
  138.2139   72.6410  220.6766 H   0  0  0  0  0  0  0  0  0  0  0  0
  139.6110   72.8010  222.2240 N   0  0  0  0  0  0  0  0  0  0  0  0
  139.5010   73.4720  223.0170 H   0  0  0  0  0  0  0  0  0  0  0  0
  139.9560   71.4360  222.5130 C   0  0  0  0  0  0  0  0  0  0  0  0
  140.0410   70.6000  221.5750 O   0  0  0  0  0  0  0  0  0  0  0  0
  140.1960   71.0010  223.9070 C   0  0  0  0  0  0  0  0  0  0  0  0
  139.9400   69.7120  224.2640 N   0  0  0  0  0  0  0  0  0  0  0  0
  140.1760   69.2460  225.5190 C   0  0  0  0  0  0  0  0  0  0  0  0
  139.9040   67.9100  225.8350 C   0  0  0  0  0  0  0  0  0  0  0  0
  139.4818   67.2385  225.0729 H   0  0  0  0  0  0  0  0  0  0  0  0
  140.1700   67.4300  227.1220 C   0  0  0  0  0  0  0  0  0  0  0  0
  139.9568   66.3796  227.3694 H   0  0  0  0  0  0  0  0  0  0  0  0
  140.7060   68.2800  228.0960 C   0  0  0  0  0  0  0  0  0  0  0  0
  140.9670   67.8050  229.3390 F   0  0  0  0  0  0  0  0  0  0  0  0
  140.9730   69.6190  227.7900 C   0  0  0  0  0  0  0  0  0  0  0  0
  141.3886   70.2871  228.5587 H   0  0  0  0  0  0  0  0  0  0  0  0
  140.7100   70.1090  226.5010 C   0  0  0  0  0  0  0  0  0  0  0  0
  140.9690   71.4410  226.1620 C   0  0  0  0  0  0  0  0  0  0  0  0
  141.3733   72.1329  226.9155 H   0  0  0  0  0  0  0  0  0  0  0  0
  140.7130   71.8910  224.8640 C   0  0  0  0  0  0  0  0  0  0  0  0
  140.9153   72.9376  224.5924 H   0  0  0  0  0  0  0  0  0  0  0  0
  1  2  1  0
  2  3  1  0
  3  4  2  0
  4  5  1  0
  5  6  1  0
  5  7  1  0
  5  8  1  0
  8  9  1  6
  8 10  1  0
 10 11  1  0
  8 12  1  0
 12 13  1  0
 12 14  1  0
 12 15  1  0
 15 16  1  1
 15 17  1  0
 17 18  2  0
 17 19  1  0
 19 20  1  0
 20 21  1  1
 20 22  1  0
 22 23  2  0
 23 24  1  0
 23 25  1  0
 25 26  1  0
 25 27  2  0
 27 28  1  0
 28 29  1  0
 29 30  1  0
 29 31  1  0
 29 32  1  0
 27 33  1  0
 33 34  1  0
 33 35  2  0
 35 36  1  0
 20 37  1  0
 37 38  1  0
 37 39  1  0
 37 40  1  0
  3 41  1  0
 41 42  1  0
 41 43  1  0
 41 44  1  0
 44 45  1  0
 44 46  1  0
 46 47  2  0
 46 48  1  0
 48 49  2  0
 49 50  1  0
 50 51  2  0
 51 52  1  0
 51 53  1  0
 53 54  1  0
 53 55  2  0
 55 56  1  0
 55 57  1  0
 57 58  1  0
 57 59  2  0
 59 60  1  0
 60 61  1  0
 60 62  2  0
 62 63  1  0
 15  4  1  0
 35 22  1  0
 62 48  1  0
 59 50  1  0
M  CHG  2   4   1  19  -1
M  END
>  <UniqueID>  (63) 
4

>  <SMILES>  (63) 
COc1ccc([C@H](C)[N-]C(=O)[C@@H]2C[C@@H](O)C/[N+]2=C(\O)CNC(=O)c2ccc3cc(F)ccc3n2)c(Cl)c1

>  <Energy>  (63) 
65.5536039589818

>  <Genealogy>  (63) 
COc1ccc([C@H](C)[N-]C(=O)[C@@H]2C[C@@H](O)C[NH+]2C(=O)CNC(=O)c2ccc3cc(F)ccc3n2)c(Cl)c1 (protonated)
COc1ccc([C@H](C)[N-]C(=O)[C@@H]2C[C@@H](O)C[N+]2=C(O)CNC(=O)c2ccc3cc(F)ccc3n2)c(Cl)c1 (tautomer)
COc1ccc([C@H](C)[N-]C(=O)[C@@H]2C[C@@H](O)C/[N+]2=C(\O)CNC(=O)c2ccc3cc(F)ccc3n2)c(Cl)c1 (cis-trans isomerization)
COc1ccc([C@H](C)[N-]C(=O)[C@@H]2C[C@@H](O)C/[N+]2=C(\O)CNC(=O)c2ccc3cc(F)ccc3n2)c(Cl)c1 (3D coordinates assigned)
COc1ccc([C@H](C)[N-]C(=O)[C@@H]2C[C@@H](O)C/[N+]2=C(\O)CNC(=O)c2ccc3cc(F)ccc3n2)c(Cl)c1 (nonaromatic ring conformer: 65.5536039589818 kcal/mol)

>  <smiles>  (63) 
COc1ccc([C@H](C)NC(=O)[C@@H]2C[C@@H](O)CN2C(=O)CNC(=O)c2ccc3cc(F)ccc3n2)c(Cl)c1

>  <score_type>  (63) 
oracle

>  <origin>  (63) 
autodockgpu

>  <m_score__min__energy>  (63) 
-8.1099999999999994

>  <m_primary>  (63) 
energy

>  <meeko>  (63) 
{"free_energy": -8.11, "intermolecular_energy": -11.39, "internal_energy": -3.16, "cluster_size": 6, "cluster_id": 1, "rank_in_cluster": 1}

>  <energy>  (63) 
-7.84

>  <cluster_rmsd>  (63) 
1.62

>  <rmsd>  (63) 
270.45

>  <cluster>  (63) 
1

$$$$
JFIDHXWBANSMLJ-LGGCBPRRNA-N
     RDKit          3D

 63 66  0  0  0  0  0  0  0  0999 V2000
  144.4230   71.7880  221.0080 H   0  0  0  0  0  0  0  0  0  0  0  0
  143.4110   71.7710  221.0520 O   0  0  0  0  0  0  0  0  0  0  0  0
  142.5850   72.6030  220.2860 C   0  0  0  0  0  0  0  0  0  0  0  0
  143.0760   73.6570  219.6660 N   0  0  0  0  0  0  0  0  0  0  0  0
  142.8450   75.0300  220.1090 C   0  0  0  0  0  0  0  0  0  0  0  0
  143.1497   75.1482  221.1593 H   0  0  0  0  0  0  0  0  0  0  0  0
  141.7803   75.2985  220.0438 H   0  0  0  0  0  0  0  0  0  0  0  0
  143.6990   75.9180  219.2070 C   0  0  2  0  0  0  0  0  0  0  0  0
  144.6104   76.2529  219.7240 H   0  0  0  0  0  0  0  0  0  0  0  0
  143.0090   77.0830  218.8350 O   0  0  0  0  0  0  0  0  0  0  0  0
  143.4240   77.8300  219.3410 H   0  0  0  0  0  0  0  0  0  0  0  0
  144.0170   75.0680  217.9820 C   0  0  0  0  0  0  0  0  0  0  0  0
  145.0417   75.2649  217.6340 H   0  0  0  0  0  0  0  0  0  0  0  0
  143.3424   75.2955  217.1435 H   0  0  0  0  0  0  0  0  0  0  0  0
  143.8790   73.6150  218.4400 C   0  0  1  0  0  0  0  0  0  0  0  0
  143.4029   72.9967  217.6647 H   0  0  0  0  0  0  0  0  0  0  0  0
  145.2260   72.9970  218.7040 C   0  0  0  0  0  0  0  0  0  0  0  0
  145.7650   73.1450  219.8350 O   0  0  0  0  0  0  0  0  0  0  0  0
  145.9050   72.2750  217.6700 N   0  0  0  0  0  0  0  0  0  0  0  0
  145.2470   71.2470  216.8690 C   0  0  2  0  0  0  0  0  0  0  0  0
  144.6887   71.7322  216.0549 H   0  0  0  0  0  0  0  0  0  0  0  0
  144.2490   70.4730  217.7150 C   0  0  0  0  0  0  0  0  0  0  0  0
  142.8820   70.5890  217.4160 C   0  0  0  0  0  0  0  0  0  0  0  0
  142.5627   71.2145  216.5694 H   0  0  0  0  0  0  0  0  0  0  0  0
  141.9230   69.9210  218.1790 C   0  0  0  0  0  0  0  0  0  0  0  0
  140.8575   70.0247  217.9263 H   0  0  0  0  0  0  0  0  0  0  0  0
  142.3020   69.1230  219.2590 C   0  0  0  0  0  0  0  0  0  0  0  0
  141.2970   68.4830  220.0000 O   0  0  0  0  0  0  0  0  0  0  0  0
  140.4220   67.4880  219.4770 C   0  0  0  0  0  0  0  0  0  0  0  0
  139.9453   66.9460  220.3071 H   0  0  0  0  0  0  0  0  0  0  0  0
  139.6480   67.9680  218.8601 H   0  0  0  0  0  0  0  0  0  0  0  0
  140.9969   66.7817  218.8601 H   0  0  0  0  0  0  0  0  0  0  0  0
  143.6680   68.9920  219.5660 C   0  0  0  0  0  0  0  0  0  0  0  0
  143.9774   68.3616  220.4127 H   0  0  0  0  0  0  0  0  0  0  0  0
  144.6380   69.6550  218.8060 C   0  0  0  0  0  0  0  0  0  0  0  0
  146.3210   69.4300  219.2750 Cl  0  0  0  0  0  0  0  0  0  0  0  0
  146.2830   70.3220  216.2330 C   0  0  0  0  0  0  0  0  0  0  0  0
  146.8538   69.8124  217.0233 H   0  0  0  0  0  0  0  0  0  0  0  0
  145.7725   69.5738  215.6089 H   0  0  0  0  0  0  0  0  0  0  0  0
  146.9688   70.9137  215.6089 H   0  0  0  0  0  0  0  0  0  0  0  0
  141.1310   72.2100  220.1540 C   0  0  0  0  0  0  0  0  0  0  0  0
  140.5101   73.1178  220.1727 H   0  0  0  0  0  0  0  0  0  0  0  0
  140.9990   71.6715  219.2040 H   0  0  0  0  0  0  0  0  0  0  0  0
  140.7230   71.3290  221.2490 N   0  0  0  0  0  0  0  0  0  0  0  0
  140.9530   70.3130  221.1630 H   0  0  0  0  0  0  0  0  0  0  0  0
  140.2970   71.8400  222.5230 C   0  0  0  0  0  0  0  0  0  0  0  0
  140.0660   73.0700  222.6590 O   0  0  0  0  0  0  0  0  0  0  0  0
  140.1440   70.9330  223.6820 C   0  0  0  0  0  0  0  0  0  0  0  0
  140.6720   71.2840  224.8870 N   0  0  0  0  0  0  0  0  0  0  0  0
  140.5310   70.5090  225.9950 C   0  0  0  0  0  0  0  0  0  0  0  0
  141.0860   70.9170  227.2130 C   0  0  0  0  0  0  0  0  0  0  0  0
  141.6533   71.8576  227.2717 H   0  0  0  0  0  0  0  0  0  0  0  0
  140.9190   70.1280  228.3560 C   0  0  0  0  0  0  0  0  0  0  0  0
  141.3548   70.4505  229.3131 H   0  0  0  0  0  0  0  0  0  0  0  0
  140.1990   68.9290  228.2860 C   0  0  0  0  0  0  0  0  0  0  0  0
  140.0350   68.1720  229.3990 F   0  0  0  0  0  0  0  0  0  0  0  0
  139.6480   68.5100  227.0700 C   0  0  0  0  0  0  0  0  0  0  0  0
  139.0883   67.5646  227.0161 H   0  0  0  0  0  0  0  0  0  0  0  0
  139.8100   69.2970  225.9190 C   0  0  0  0  0  0  0  0  0  0  0  0
  139.2680   68.9090  224.6890 C   0  0  0  0  0  0  0  0  0  0  0  0
  138.7130   67.9630  224.6051 H   0  0  0  0  0  0  0  0  0  0  0  0
  139.4330   69.7250  223.5680 C   0  0  0  0  0  0  0  0  0  0  0  0
  139.0083   69.4240  222.5990 H   0  0  0  0  0  0  0  0  0  0  0  0
  1  2  1  0
  2  3  1  0
  3  4  2  0
  4  5  1  0
  5  6  1  0
  5  7  1  0
  5  8  1  0
  8  9  1  1
  8 10  1  0
 10 11  1  0
  8 12  1  0
 12 13  1  0
 12 14  1  0
 12 15  1  0
 15 16  1  6
 15 17  1  0
 17 18  2  0
 17 19  1  0
 19 20  1  0
 20 21  1  6
 20 22  1  0
 22 23  2  0
 23 24  1  0
 23 25  1  0
 25 26  1  0
 25 27  2  0
 27 28  1  0
 28 29  1  0
 29 30  1  0
 29 31  1  0
 29 32  1  0
 27 33  1  0
 33 34  1  0
 33 35  2  0
 35 36  1  0
 20 37  1  0
 37 38  1  0
 37 39  1  0
 37 40  1  0
  3 41  1  0
 41 42  1  0
 41 43  1  0
 41 44  1  0
 44 45  1  0
 44 46  1  0
 46 47  2  0
 46 48  1  0
 48 49  2  0
 49 50  1  0
 50 51  2  0
 51 52  1  0
 51 53  1  0
 53 54  1  0
 53 55  2  0
 55 56  1  0
 55 57  1  0
 57 58  1  0
 57 59  2  0
 59 60  1  0
 60 61  1  0
 60 62  2  0
 62 63  1  0
 15  4  1  0
 35 22  1  0
 62 48  1  0
 59 50  1  0
M  CHG  2   4   1  19  -1
M  END
>  <UniqueID>  (64) 
4

>  <SMILES>  (64) 
COc1ccc([C@H](C)[N-]C(=O)[C@@H]2C[C@@H](O)C/[N+]2=C(\O)CNC(=O)c2ccc3cc(F)ccc3n2)c(Cl)c1

>  <Energy>  (64) 
65.5536039589818

>  <Genealogy>  (64) 
COc1ccc([C@H](C)[N-]C(=O)[C@@H]2C[C@@H](O)C[NH+]2C(=O)CNC(=O)c2ccc3cc(F)ccc3n2)c(Cl)c1 (protonated)
COc1ccc([C@H](C)[N-]C(=O)[C@@H]2C[C@@H](O)C[N+]2=C(O)CNC(=O)c2ccc3cc(F)ccc3n2)c(Cl)c1 (tautomer)
COc1ccc([C@H](C)[N-]C(=O)[C@@H]2C[C@@H](O)C/[N+]2=C(\O)CNC(=O)c2ccc3cc(F)ccc3n2)c(Cl)c1 (cis-trans isomerization)
COc1ccc([C@H](C)[N-]C(=O)[C@@H]2C[C@@H](O)C/[N+]2=C(\O)CNC(=O)c2ccc3cc(F)ccc3n2)c(Cl)c1 (3D coordinates assigned)
COc1ccc([C@H](C)[N-]C(=O)[C@@H]2C[C@@H](O)C/[N+]2=C(\O)CNC(=O)c2ccc3cc(F)ccc3n2)c(Cl)c1 (nonaromatic ring conformer: 65.5536039589818 kcal/mol)

>  <smiles>  (64) 
COc1ccc([C@H](C)NC(=O)[C@@H]2C[C@@H](O)CN2C(=O)CNC(=O)c2ccc3cc(F)ccc3n2)c(Cl)c1

>  <score_type>  (64) 
oracle

>  <origin>  (64) 
autodockgpu

>  <m_score__min__energy>  (64) 
-8.1099999999999994

>  <m_primary>  (64) 
energy

>  <meeko>  (64) 
{"free_energy": -7.14, "intermolecular_energy": -10.42, "internal_energy": -3.91, "cluster_size": 1, "cluster_id": 11, "rank_in_cluster": 1}

>  <energy>  (64) 
-7.61

>  <cluster_rmsd>  (64) 
1.23

>  <rmsd>  (64) 
270.33

>  <cluster>  (64) 
1

$$$$
JFIDHXWBANSMLJ-LGGCBPRRNA-N
     RDKit          3D

 63 66  0  0  0  0  0  0  0  0999 V2000
  136.7970   73.7840  219.4380 H   0  0  0  0  0  0  0  0  0  0  0  0
  137.0130   72.8940  219.8710 O   0  0  0  0  0  0  0  0  0  0  0  0
  137.3030   72.7420  221.2330 C   0  0  0  0  0  0  0  0  0  0  0  0
  138.1480   71.8180  221.6460 N   0  0  0  0  0  0  0  0  0  0  0  0
  138.1830   70.4620  221.1040 C   0  0  0  0  0  0  0  0  0  0  0  0
  138.3015   70.4911  220.0108 H   0  0  0  0  0  0  0  0  0  0  0  0
  137.2501   69.9201  221.3186 H   0  0  0  0  0  0  0  0  0  0  0  0
  139.3860   69.7770  221.7490 C   0  0  2  0  0  0  0  0  0  0  0  0
  140.2357   69.7237  221.0525 H   0  0  0  0  0  0  0  0  0  0  0  0
  139.0890   68.4520  222.1070 O   0  0  0  0  0  0  0  0  0  0  0  0
  139.9610   67.9830  222.1940 H   0  0  0  0  0  0  0  0  0  0  0  0
  139.7120   70.6070  222.9860 C   0  0  0  0  0  0  0  0  0  0  0  0
  140.8006   70.6655  223.1327 H   0  0  0  0  0  0  0  0  0  0  0  0
  139.2871   70.1615  223.8976 H   0  0  0  0  0  0  0  0  0  0  0  0
  139.1350   71.9970  222.7150 C   0  0  1  0  0  0  0  0  0  0  0  0
  138.6787   72.4220  223.6212 H   0  0  0  0  0  0  0  0  0  0  0  0
  140.2110   72.9620  222.2940 C   0  0  0  0  0  0  0  0  0  0  0  0
  139.9770   74.2010  222.3190 O   0  0  0  0  0  0  0  0  0  0  0  0
  141.4790   72.4760  221.8370 N   0  0  0  0  0  0  0  0  0  0  0  0
  141.9100   72.5930  220.4470 C   0  0  2  0  0  0  0  0  0  0  0  0
  142.8618   72.0560  220.3214 H   0  0  0  0  0  0  0  0  0  0  0  0
  142.1500   74.0510  220.0890 C   0  0  0  0  0  0  0  0  0  0  0  0
  141.0540   74.8360  219.6940 C   0  0  0  0  0  0  0  0  0  0  0  0
  140.0477   74.3923  219.6729 H   0  0  0  0  0  0  0  0  0  0  0  0
  141.2260   76.1720  219.3280 C   0  0  0  0  0  0  0  0  0  0  0  0
  140.3541   76.7689  219.0221 H   0  0  0  0  0  0  0  0  0  0  0  0
  142.4910   76.7580  219.3460 C   0  0  0  0  0  0  0  0  0  0  0  0
  142.6100   78.1010  218.9580 O   0  0  0  0  0  0  0  0  0  0  0  0
  142.5650   78.5560  217.6090 C   0  0  0  0  0  0  0  0  0  0  0  0
  142.4568   79.6506  217.5946 H   0  0  0  0  0  0  0  0  0  0  0  0
  143.4955   78.2728  217.0953 H   0  0  0  0  0  0  0  0  0  0  0  0
  141.7080   78.0960  217.0953 H   0  0  0  0  0  0  0  0  0  0  0  0
  143.5970   75.9870  219.7450 C   0  0  0  0  0  0  0  0  0  0  0  0
  144.5985   76.4415  219.7650 H   0  0  0  0  0  0  0  0  0  0  0  0
  143.4370   74.6470  220.1170 C   0  0  0  0  0  0  0  0  0  0  0  0
  144.8840   73.7660  220.5960 Cl  0  0  0  0  0  0  0  0  0  0  0  0
  140.8870   71.9460  219.5150 C   0  0  0  0  0  0  0  0  0  0  0  0
  140.1067   71.4525  220.1130 H   0  0  0  0  0  0  0  0  0  0  0  0
  140.4287   72.7189  218.8804 H   0  0  0  0  0  0  0  0  0  0  0  0
  141.3889   71.2007  218.8804 H   0  0  0  0  0  0  0  0  0  0  0  0
  136.6560   73.7130  222.1950 C   0  0  0  0  0  0  0  0  0  0  0  0
  135.6462   73.9578  221.8341 H   0  0  0  0  0  0  0  0  0  0  0  0
  136.6070   73.2421  223.1879 H   0  0  0  0  0  0  0  0  0  0  0  0
  137.4380   74.9460  222.3020 N   0  0  0  0  0  0  0  0  0  0  0  0
  138.1140   75.0210  223.0960 H   0  0  0  0  0  0  0  0  0  0  0  0
  137.5200   75.8960  221.2270 C   0  0  0  0  0  0  0  0  0  0  0  0
  136.7490   75.7890  220.2370 O   0  0  0  0  0  0  0  0  0  0  0  0
  138.5150   76.9900  221.2670 C   0  0  0  0  0  0  0  0  0  0  0  0
  139.4220   77.0400  222.2820 N   0  0  0  0  0  0  0  0  0  0  0  0
  140.3830   77.9990  222.3510 C   0  0  0  0  0  0  0  0  0  0  0  0
  141.2970   78.0040  223.4100 C   0  0  0  0  0  0  0  0  0  0  0  0
  141.2283   77.2414  224.1998 H   0  0  0  0  0  0  0  0  0  0  0  0
  142.2980   78.9790  223.4640 C   0  0  0  0  0  0  0  0  0  0  0  0
  143.0173   78.9804  224.2963 H   0  0  0  0  0  0  0  0  0  0  0  0
  142.3880   79.9530  222.4630 C   0  0  0  0  0  0  0  0  0  0  0  0
  143.3660   80.8920  222.5180 F   0  0  0  0  0  0  0  0  0  0  0  0
  141.4730   79.9600  221.4040 C   0  0  0  0  0  0  0  0  0  0  0  0
  141.5425   80.7297  220.6213 H   0  0  0  0  0  0  0  0  0  0  0  0
  140.4670   78.9840  221.3420 C   0  0  0  0  0  0  0  0  0  0  0  0
  139.5390   78.9610  220.2950 C   0  0  0  0  0  0  0  0  0  0  0  0
  139.5789   79.7261  219.5057 H   0  0  0  0  0  0  0  0  0  0  0  0
  138.5620   77.9640  220.2550 C   0  0  0  0  0  0  0  0  0  0  0  0
  137.8310   77.9411  219.4334 H   0  0  0  0  0  0  0  0  0  0  0  0
  1  2  1  0
  2  3  1  0
  3  4  2  0
  4  5  1  0
  5  6  1  0
  5  7  1  0
  5  8  1  0
  8  9  1  6
  8 10  1  0
 10 11  1  0
  8 12  1  0
 12 13  1  0
 12 14  1  0
 12 15  1  0
 15 16  1  1
 15 17  1  0
 17 18  2  0
 17 19  1  0
 19 20  1  0
 20 21  1  1
 20 22  1  0
 22 23  2  0
 23 24  1  0
 23 25  1  0
 25 26  1  0
 25 27  2  0
 27 28  1  0
 28 29  1  0
 29 30  1  0
 29 31  1  0
 29 32  1  0
 27 33  1  0
 33 34  1  0
 33 35  2  0
 35 36  1  0
 20 37  1  0
 37 38  1  0
 37 39  1  0
 37 40  1  0
  3 41  1  0
 41 42  1  0
 41 43  1  0
 41 44  1  0
 44 45  1  0
 44 46  1  0
 46 47  2  0
 46 48  1  0
 48 49  2  0
 49 50  1  0
 50 51  2  0
 51 52  1  0
 51 53  1  0
 53 54  1  0
 53 55  2  0
 55 56  1  0
 55 57  1  0
 57 58  1  0
 57 59  2  0
 59 60  1  0
 60 61  1  0
 60 62  2  0
 62 63  1  0
 15  4  1  0
 35 22  1  0
 62 48  1  0
 59 50  1  0
M  CHG  2   4   1  19  -1
M  END
>  <UniqueID>  (65) 
4

>  <SMILES>  (65) 
COc1ccc([C@H](C)[N-]C(=O)[C@@H]2C[C@@H](O)C/[N+]2=C(\O)CNC(=O)c2ccc3cc(F)ccc3n2)c(Cl)c1

>  <Energy>  (65) 
65.5536039589818

>  <Genealogy>  (65) 
COc1ccc([C@H](C)[N-]C(=O)[C@@H]2C[C@@H](O)C[NH+]2C(=O)CNC(=O)c2ccc3cc(F)ccc3n2)c(Cl)c1 (protonated)
COc1ccc([C@H](C)[N-]C(=O)[C@@H]2C[C@@H](O)C[N+]2=C(O)CNC(=O)c2ccc3cc(F)ccc3n2)c(Cl)c1 (tautomer)
COc1ccc([C@H](C)[N-]C(=O)[C@@H]2C[C@@H](O)C/[N+]2=C(\O)CNC(=O)c2ccc3cc(F)ccc3n2)c(Cl)c1 (cis-trans isomerization)
COc1ccc([C@H](C)[N-]C(=O)[C@@H]2C[C@@H](O)C/[N+]2=C(\O)CNC(=O)c2ccc3cc(F)ccc3n2)c(Cl)c1 (3D coordinates assigned)
COc1ccc([C@H](C)[N-]C(=O)[C@@H]2C[C@@H](O)C/[N+]2=C(\O)CNC(=O)c2ccc3cc(F)ccc3n2)c(Cl)c1 (nonaromatic ring conformer: 65.5536039589818 kcal/mol)

>  <smiles>  (65) 
COc1ccc([C@H](C)NC(=O)[C@@H]2C[C@@H](O)CN2C(=O)CNC(=O)c2ccc3cc(F)ccc3n2)c(Cl)c1

>  <score_type>  (65) 
oracle

>  <origin>  (65) 
autodockgpu

>  <m_score__min__energy>  (65) 
-8.1099999999999994

>  <m_primary>  (65) 
energy

>  <meeko>  (65) 
{"free_energy": -5.06, "intermolecular_energy": -8.34, "internal_energy": -5.34, "cluster_size": 1, "cluster_id": 14, "rank_in_cluster": 1}

>  <energy>  (65) 
-7.17

>  <cluster_rmsd>  (65) 
1.95

>  <rmsd>  (65) 
270.25

>  <cluster>  (65) 
1

$$$$
JFIDHXWBANSMLJ-LGGCBPRRNA-N
     RDKit          3D

 63 66  0  0  0  0  0  0  0  0999 V2000
  141.8180   76.2500  222.0030 H   0  0  0  0  0  0  0  0  0  0  0  0
  140.9440   75.8690  222.3450 O   0  0  0  0  0  0  0  0  0  0  0  0
  139.7960   75.7260  221.5560 C   0  0  0  0  0  0  0  0  0  0  0  0
  139.1740   76.7810  221.0700 N   0  0  0  0  0  0  0  0  0  0  0  0
  137.9410   77.3180  221.6390 C   0  0  0  0  0  0  0  0  0  0  0  0
  138.0768   77.5325  222.7093 H   0  0  0  0  0  0  0  0  0  0  0  0
  137.1127   76.5996  221.5504 H   0  0  0  0  0  0  0  0  0  0  0  0
  137.6440   78.6070  220.8740 C   0  0  2  0  0  0  0  0  0  0  0  0
  137.9143   79.4939  221.4659 H   0  0  0  0  0  0  0  0  0  0  0  0
  136.2750   78.7290  220.5890 O   0  0  0  0  0  0  0  0  0  0  0  0
  136.0610   79.6980  220.6460 H   0  0  0  0  0  0  0  0  0  0  0  0
  138.4540   78.5100  219.5850 C   0  0  0  0  0  0  0  0  0  0  0  0
  138.8546   79.4965  219.3085 H   0  0  0  0  0  0  0  0  0  0  0  0
  137.8368   78.1648  218.7424 H   0  0  0  0  0  0  0  0  0  0  0  0
  139.5950   77.5360  219.8860 C   0  0  1  0  0  0  0  0  0  0  0  0
  139.7885   76.8725  219.0302 H   0  0  0  0  0  0  0  0  0  0  0  0
  140.8830   78.2710  220.1500 C   0  0  0  0  0  0  0  0  0  0  0  0
  141.8800   77.6350  220.5870 O   0  0  0  0  0  0  0  0  0  0  0  0
  140.9640   79.6850  219.9400 N   0  0  0  0  0  0  0  0  0  0  0  0
  141.2710   80.6220  221.0160 C   0  0  2  0  0  0  0  0  0  0  0  0
  142.2230   80.3289  221.4827 H   0  0  0  0  0  0  0  0  0  0  0  0
  140.1950   80.5690  222.0890 C   0  0  0  0  0  0  0  0  0  0  0  0
  139.0440   81.3570  221.9260 C   0  0  0  0  0  0  0  0  0  0  0  0
  138.9329   81.9758  221.0233 H   0  0  0  0  0  0  0  0  0  0  0  0
  138.0390   81.3650  222.8950 C   0  0  0  0  0  0  0  0  0  0  0  0
  137.1452   81.9889  222.7474 H   0  0  0  0  0  0  0  0  0  0  0  0
  138.1570   80.5900  224.0480 C   0  0  0  0  0  0  0  0  0  0  0  0
  137.1230   80.6430  224.9960 O   0  0  0  0  0  0  0  0  0  0  0  0
  136.9170   81.7230  225.9010 C   0  0  0  0  0  0  0  0  0  0  0  0
  136.9875   81.3537  226.9347 H   0  0  0  0  0  0  0  0  0  0  0  0
  137.6845   82.4931  225.7337 H   0  0  0  0  0  0  0  0  0  0  0  0
  135.9200   82.1565  225.7337 H   0  0  0  0  0  0  0  0  0  0  0  0
  139.3000   79.7910  224.2230 C   0  0  0  0  0  0  0  0  0  0  0  0
  139.4000   79.1745  225.1285 H   0  0  0  0  0  0  0  0  0  0  0  0
  140.3130   79.7720  223.2560 C   0  0  0  0  0  0  0  0  0  0  0  0
  141.7060   78.7430  223.5700 Cl  0  0  0  0  0  0  0  0  0  0  0  0
  141.4430   82.0350  220.4610 C   0  0  0  0  0  0  0  0  0  0  0  0
  141.5298   82.7481  221.2940 H   0  0  0  0  0  0  0  0  0  0  0  0
  142.3531   82.0786  219.8447 H   0  0  0  0  0  0  0  0  0  0  0  0
  140.5699   82.2957  219.8447 H   0  0  0  0  0  0  0  0  0  0  0  0
  139.3410   74.3190  221.2380 C   0  0  0  0  0  0  0  0  0  0  0  0
  138.2556   74.3238  221.0596 H   0  0  0  0  0  0  0  0  0  0  0  0
  139.8776   73.9715  220.3428 H   0  0  0  0  0  0  0  0  0  0  0  0
  139.6400   73.4080  222.3430 N   0  0  0  0  0  0  0  0  0  0  0  0
  139.6080   73.7970  223.3120 H   0  0  0  0  0  0  0  0  0  0  0  0
  139.6810   71.9820  222.1690 C   0  0  0  0  0  0  0  0  0  0  0  0
  139.6650   71.4920  221.0090 O   0  0  0  0  0  0  0  0  0  0  0  0
  139.7250   71.0830  223.3430 C   0  0  0  0  0  0  0  0  0  0  0  0
  140.2550   71.5310  224.5150 N   0  0  0  0  0  0  0  0  0  0  0  0
  140.2890   70.7640  225.6370 C   0  0  0  0  0  0  0  0  0  0  0  0
  140.8380   71.2720  226.8200 C   0  0  0  0  0  0  0  0  0  0  0  0
  141.2596   72.2878  226.8395 H   0  0  0  0  0  0  0  0  0  0  0  0
  140.8500   70.4870  227.9770 C   0  0  0  0  0  0  0  0  0  0  0  0
  141.2803   70.8883  228.9064 H   0  0  0  0  0  0  0  0  0  0  0  0
  140.3170   69.1930  227.9580 C   0  0  0  0  0  0  0  0  0  0  0  0
  140.3250   68.4400  229.0860 F   0  0  0  0  0  0  0  0  0  0  0  0
  139.7740   68.6740  226.7770 C   0  0  0  0  0  0  0  0  0  0  0  0
  139.3610   67.6546  226.7623 H   0  0  0  0  0  0  0  0  0  0  0  0
  139.7570   69.4560  225.6110 C   0  0  0  0  0  0  0  0  0  0  0  0
  139.2180   68.9690  224.4160 C   0  0  0  0  0  0  0  0  0  0  0  0
  138.8092   67.9488  224.3710 H   0  0  0  0  0  0  0  0  0  0  0  0
  139.2000   69.7810  223.2800 C   0  0  0  0  0  0  0  0  0  0  0  0
  138.7759   69.4024  222.3383 H   0  0  0  0  0  0  0  0  0  0  0  0
  1  2  1  0
  2  3  1  0
  3  4  2  0
  4  5  1  0
  5  6  1  0
  5  7  1  0
  5  8  1  0
  8  9  1  1
  8 10  1  0
 10 11  1  0
  8 12  1  0
 12 13  1  0
 12 14  1  0
 12 15  1  0
 15 16  1  6
 15 17  1  0
 17 18  2  0
 17 19  1  0
 19 20  1  0
 20 21  1  1
 20 22  1  0
 22 23  2  0
 23 24  1  0
 23 25  1  0
 25 26  1  0
 25 27  2  0
 27 28  1  0
 28 29  1  0
 29 30  1  0
 29 31  1  0
 29 32  1  0
 27 33  1  0
 33 34  1  0
 33 35  2  0
 35 36  1  0
 20 37  1  0
 37 38  1  0
 37 39  1  0
 37 40  1  0
  3 41  1  0
 41 42  1  0
 41 43  1  0
 41 44  1  0
 44 45  1  0
 44 46  1  0
 46 47  2  0
 46 48  1  0
 48 49  2  0
 49 50  1  0
 50 51  2  0
 51 52  1  0
 51 53  1  0
 53 54  1  0
 53 55  2  0
 55 56  1  0
 55 57  1  0
 57 58  1  0
 57 59  2  0
 59 60  1  0
 60 61  1  0
 60 62  2  0
 62 63  1  0
 15  4  1  0
 35 22  1  0
 62 48  1  0
 59 50  1  0
M  CHG  2   4   1  19  -1
M  END
>  <UniqueID>  (66) 
4

>  <SMILES>  (66) 
COc1ccc([C@H](C)[N-]C(=O)[C@@H]2C[C@@H](O)C/[N+]2=C(\O)CNC(=O)c2ccc3cc(F)ccc3n2)c(Cl)c1

>  <Energy>  (66) 
65.5536039589818

>  <Genealogy>  (66) 
COc1ccc([C@H](C)[N-]C(=O)[C@@H]2C[C@@H](O)C[NH+]2C(=O)CNC(=O)c2ccc3cc(F)ccc3n2)c(Cl)c1 (protonated)
COc1ccc([C@H](C)[N-]C(=O)[C@@H]2C[C@@H](O)C[N+]2=C(O)CNC(=O)c2ccc3cc(F)ccc3n2)c(Cl)c1 (tautomer)
COc1ccc([C@H](C)[N-]C(=O)[C@@H]2C[C@@H](O)C/[N+]2=C(\O)CNC(=O)c2ccc3cc(F)ccc3n2)c(Cl)c1 (cis-trans isomerization)
COc1ccc([C@H](C)[N-]C(=O)[C@@H]2C[C@@H](O)C/[N+]2=C(\O)CNC(=O)c2ccc3cc(F)ccc3n2)c(Cl)c1 (3D coordinates assigned)
COc1ccc([C@H](C)[N-]C(=O)[C@@H]2C[C@@H](O)C/[N+]2=C(\O)CNC(=O)c2ccc3cc(F)ccc3n2)c(Cl)c1 (nonaromatic ring conformer: 65.5536039589818 kcal/mol)

>  <smiles>  (66) 
COc1ccc([C@H](C)NC(=O)[C@@H]2C[C@@H](O)CN2C(=O)CNC(=O)c2ccc3cc(F)ccc3n2)c(Cl)c1

>  <score_type>  (66) 
oracle

>  <origin>  (66) 
autodockgpu

>  <m_score__min__energy>  (66) 
-8.1099999999999994

>  <m_primary>  (66) 
energy

>  <meeko>  (66) 
{"free_energy": -7.27, "intermolecular_energy": -10.55, "internal_energy": -3.48, "cluster_size": 1, "cluster_id": 8, "rank_in_cluster": 1}

>  <energy>  (66) 
-7.12

>  <cluster_rmsd>  (66) 
1.81

>  <rmsd>  (66) 
269.55

>  <cluster>  (66) 
1

$$$$
JFIDHXWBANSMLJ-LGGCBPRRNA-N
     RDKit          3D

 63 66  0  0  0  0  0  0  0  0999 V2000
  142.0560   76.7570  222.8590 H   0  0  0  0  0  0  0  0  0  0  0  0
  141.0660   76.5970  222.7120 O   0  0  0  0  0  0  0  0  0  0  0  0
  140.5390   75.9900  221.5650 C   0  0  0  0  0  0  0  0  0  0  0  0
  141.3070   75.2850  220.7590 N   0  0  0  0  0  0  0  0  0  0  0  0
  142.5000   75.8240  220.1120 C   0  0  0  0  0  0  0  0  0  0  0  0
  143.1838   76.2456  220.8634 H   0  0  0  0  0  0  0  0  0  0  0  0
  142.2451   76.6317  219.4101 H   0  0  0  0  0  0  0  0  0  0  0  0
  143.1620   74.6500  219.3930 C   0  0  2  0  0  0  0  0  0  0  0  0
  144.0337   74.2801  219.9528 H   0  0  0  0  0  0  0  0  0  0  0  0
  143.6400   75.0280  218.1280 O   0  0  0  0  0  0  0  0  0  0  0  0
  144.5820   75.3150  218.2580 H   0  0  0  0  0  0  0  0  0  0  0  0
  142.0750   73.5890  219.2600 C   0  0  0  0  0  0  0  0  0  0  0  0
  142.5010   72.5841  219.3964 H   0  0  0  0  0  0  0  0  0  0  0  0
  141.6077   73.6087  218.2644 H   0  0  0  0  0  0  0  0  0  0  0  0
  141.0620   73.8940  220.3660 C   0  0  1  0  0  0  0  0  0  0  0  0
  140.0306   73.7476  220.0127 H   0  0  0  0  0  0  0  0  0  0  0  0
  141.2420   72.9680  221.5400 C   0  0  0  0  0  0  0  0  0  0  0  0
  142.2200   72.1700  221.5560 O   0  0  0  0  0  0  0  0  0  0  0  0
  140.2940   72.9690  222.6130 N   0  0  0  0  0  0  0  0  0  0  0  0
  139.4250   71.8290  222.8930 C   0  0  2  0  0  0  0  0  0  0  0  0
  138.3782   72.1667  222.8835 H   0  0  0  0  0  0  0  0  0  0  0  0
  139.7160   71.2680  224.2760 C   0  0  0  0  0  0  0  0  0  0  0  0
  140.7630   71.8320  225.0230 C   0  0  0  0  0  0  0  0  0  0  0  0
  141.3335   72.6756  224.6072 H   0  0  0  0  0  0  0  0  0  0  0  0
  141.0890   71.3360  226.2860 C   0  0  0  0  0  0  0  0  0  0  0  0
  141.9123   71.7930  226.8545 H   0  0  0  0  0  0  0  0  0  0  0  0
  140.3810   70.2660  226.8350 C   0  0  0  0  0  0  0  0  0  0  0  0
  140.7570   69.7980  228.1030 O   0  0  0  0  0  0  0  0  0  0  0  0
  141.0030   68.4310  228.4160 C   0  0  0  0  0  0  0  0  0  0  0  0
  141.0260   68.3034  229.5083 H   0  0  0  0  0  0  0  0  0  0  0  0
  140.2026   67.8077  227.9907 H   0  0  0  0  0  0  0  0  0  0  0  0
  141.9705   68.1258  227.9907 H   0  0  0  0  0  0  0  0  0  0  0  0
  139.3270   69.6950  226.1010 C   0  0  0  0  0  0  0  0  0  0  0  0
  138.7618   68.8525  226.5261 H   0  0  0  0  0  0  0  0  0  0  0  0
  138.9890   70.1870  224.8350 C   0  0  0  0  0  0  0  0  0  0  0  0
  137.6560   69.4000  223.9950 Cl  0  0  0  0  0  0  0  0  0  0  0  0
  139.5770   70.7640  221.8090 C   0  0  0  0  0  0  0  0  0  0  0  0
  139.7175   69.7796  222.2793 H   0  0  0  0  0  0  0  0  0  0  0  0
  138.6724   70.7458  221.1835 H   0  0  0  0  0  0  0  0  0  0  0  0
  140.4506   70.9996  221.1835 H   0  0  0  0  0  0  0  0  0  0  0  0
  139.0520   76.1290  221.3260 C   0  0  0  0  0  0  0  0  0  0  0  0
  138.7317   77.1365  221.6300 H   0  0  0  0  0  0  0  0  0  0  0  0
  138.8528   75.9670  220.2564 H   0  0  0  0  0  0  0  0  0  0  0  0
  138.3010   75.1360  222.0950 N   0  0  0  0  0  0  0  0  0  0  0  0
  138.8320   74.5560  222.7840 H   0  0  0  0  0  0  0  0  0  0  0  0
  136.8650   75.1350  222.1480 C   0  0  0  0  0  0  0  0  0  0  0  0
  136.2090   75.8680  221.3610 O   0  0  0  0  0  0  0  0  0  0  0  0
  136.1500   74.2920  223.1310 C   0  0  0  0  0  0  0  0  0  0  0  0
  135.3530   74.8770  224.0670 N   0  0  0  0  0  0  0  0  0  0  0  0
  134.6430   74.1530  224.9730 C   0  0  0  0  0  0  0  0  0  0  0  0
  133.8310   74.8000  225.9110 C   0  0  0  0  0  0  0  0  0  0  0  0
  133.7794   75.8986  225.9295 H   0  0  0  0  0  0  0  0  0  0  0  0
  133.0850   74.0490  226.8250 C   0  0  0  0  0  0  0  0  0  0  0  0
  132.4457   74.5589  227.5607 H   0  0  0  0  0  0  0  0  0  0  0  0
  133.1490   72.6510  226.8070 C   0  0  0  0  0  0  0  0  0  0  0  0
  132.4170   71.9290  227.6920 F   0  0  0  0  0  0  0  0  0  0  0  0
  133.9640   71.9960  225.8780 C   0  0  0  0  0  0  0  0  0  0  0  0
  134.0164   70.8973  225.8699 H   0  0  0  0  0  0  0  0  0  0  0  0
  134.7150   72.7420  224.9560 C   0  0  0  0  0  0  0  0  0  0  0  0
  135.5370   72.1180  224.0110 C   0  0  0  0  0  0  0  0  0  0  0  0
  135.6166   71.0211  223.9882 H   0  0  0  0  0  0  0  0  0  0  0  0
  136.2560   72.8910  223.0970 C   0  0  0  0  0  0  0  0  0  0  0  0
  136.9035   72.4048  222.3525 H   0  0  0  0  0  0  0  0  0  0  0  0
  1  2  1  0
  2  3  1  0
  3  4  2  0
  4  5  1  0
  5  6  1  0
  5  7  1  0
  5  8  1  0
  8  9  1  1
  8 10  1  0
 10 11  1  0
  8 12  1  0
 12 13  1  0
 12 14  1  0
 12 15  1  0
 15 16  1  6
 15 17  1  0
 17 18  2  0
 17 19  1  0
 19 20  1  0
 20 21  1  1
 20 22  1  0
 22 23  2  0
 23 24  1  0
 23 25  1  0
 25 26  1  0
 25 27  2  0
 27 28  1  0
 28 29  1  0
 29 30  1  0
 29 31  1  0
 29 32  1  0
 27 33  1  0
 33 34  1  0
 33 35  2  0
 35 36  1  0
 20 37  1  0
 37 38  1  0
 37 39  1  0
 37 40  1  0
  3 41  1  0
 41 42  1  0
 41 43  1  0
 41 44  1  0
 44 45  1  0
 44 46  1  0
 46 47  2  0
 46 48  1  0
 48 49  2  0
 49 50  1  0
 50 51  2  0
 51 52  1  0
 51 53  1  0
 53 54  1  0
 53 55  2  0
 55 56  1  0
 55 57  1  0
 57 58  1  0
 57 59  2  0
 59 60  1  0
 60 61  1  0
 60 62  2  0
 62 63  1  0
 15  4  1  0
 35 22  1  0
 62 48  1  0
 59 50  1  0
M  CHG  2   4   1  19  -1
M  END
>  <UniqueID>  (67) 
4

>  <SMILES>  (67) 
COc1ccc([C@H](C)[N-]C(=O)[C@@H]2C[C@@H](O)C/[N+]2=C(\O)CNC(=O)c2ccc3cc(F)ccc3n2)c(Cl)c1

>  <Energy>  (67) 
65.5536039589818

>  <Genealogy>  (67) 
COc1ccc([C@H](C)[N-]C(=O)[C@@H]2C[C@@H](O)C[NH+]2C(=O)CNC(=O)c2ccc3cc(F)ccc3n2)c(Cl)c1 (protonated)
COc1ccc([C@H](C)[N-]C(=O)[C@@H]2C[C@@H](O)C[N+]2=C(O)CNC(=O)c2ccc3cc(F)ccc3n2)c(Cl)c1 (tautomer)
COc1ccc([C@H](C)[N-]C(=O)[C@@H]2C[C@@H](O)C/[N+]2=C(\O)CNC(=O)c2ccc3cc(F)ccc3n2)c(Cl)c1 (cis-trans isomerization)
COc1ccc([C@H](C)[N-]C(=O)[C@@H]2C[C@@H](O)C/[N+]2=C(\O)CNC(=O)c2ccc3cc(F)ccc3n2)c(Cl)c1 (3D coordinates assigned)
COc1ccc([C@H](C)[N-]C(=O)[C@@H]2C[C@@H](O)C/[N+]2=C(\O)CNC(=O)c2ccc3cc(F)ccc3n2)c(Cl)c1 (nonaromatic ring conformer: 65.5536039589818 kcal/mol)

>  <smiles>  (67) 
COc1ccc([C@H](C)NC(=O)[C@@H]2C[C@@H](O)CN2C(=O)CNC(=O)c2ccc3cc(F)ccc3n2)c(Cl)c1

>  <score_type>  (67) 
oracle

>  <origin>  (67) 
autodockgpu

>  <m_score__min__energy>  (67) 
-8.1099999999999994

>  <m_primary>  (67) 
energy

>  <meeko>  (67) 
{"free_energy": -7.45, "intermolecular_energy": -10.73, "internal_energy": -3.15, "cluster_size": 2, "cluster_id": 6, "rank_in_cluster": 1}

>  <energy>  (67) 
-8.0

>  <cluster_rmsd>  (67) 
0.0

>  <rmsd>  (67) 
270.22

>  <cluster>  (67) 
2

$$$$
JFIDHXWBANSMLJ-LGGCBPRRNA-N
     RDKit          3D

 63 66  0  0  0  0  0  0  0  0999 V2000
  139.3130   71.6940  219.3720 H   0  0  0  0  0  0  0  0  0  0  0  0
  139.5880   72.6570  219.2180 O   0  0  0  0  0  0  0  0  0  0  0  0
  140.2330   73.4450  220.1800 C   0  0  0  0  0  0  0  0  0  0  0  0
  141.4500   73.9060  219.9720 N   0  0  0  0  0  0  0  0  0  0  0  0
  141.8600   75.2670  220.3060 C   0  0  0  0  0  0  0  0  0  0  0  0
  141.6498   75.4798  221.3646 H   0  0  0  0  0  0  0  0  0  0  0  0
  141.3121   76.0094  219.7071 H   0  0  0  0  0  0  0  0  0  0  0  0
  143.3630   75.3360  220.0400 C   0  0  2  0  0  0  0  0  0  0  0  0
  143.9371   75.2853  220.9770 H   0  0  0  0  0  0  0  0  0  0  0  0
  143.7190   76.5480  219.4280 O   0  0  0  0  0  0  0  0  0  0  0  0
  144.0190   77.1540  220.1560 H   0  0  0  0  0  0  0  0  0  0  0  0
  143.6670   74.1600  219.1190 C   0  0  0  0  0  0  0  0  0  0  0  0
  144.6404   73.7153  219.3734 H   0  0  0  0  0  0  0  0  0  0  0  0
  143.7203   74.4725  218.0657 H   0  0  0  0  0  0  0  0  0  0  0  0
  142.5420   73.1500  219.3520 C   0  0  1  0  0  0  0  0  0  0  0  0
  142.2260   72.6810  218.4085 H   0  0  0  0  0  0  0  0  0  0  0  0
  142.9930   72.0280  220.2480 C   0  0  0  0  0  0  0  0  0  0  0  0
  142.5870   71.9870  221.4420 O   0  0  0  0  0  0  0  0  0  0  0  0
  143.9030   71.0350  219.7610 N   0  0  0  0  0  0  0  0  0  0  0  0
  143.5830   69.6100  219.7600 C   0  0  2  0  0  0  0  0  0  0  0  0
  143.6853   69.2204  220.7836 H   0  0  0  0  0  0  0  0  0  0  0  0
  144.5580   68.8480  218.8780 C   0  0  0  0  0  0  0  0  0  0  0  0
  145.2210   67.7330  219.4160 C   0  0  0  0  0  0  0  0  0  0  0  0
  145.0087   67.4215  220.4494 H   0  0  0  0  0  0  0  0  0  0  0  0
  146.1460   67.0150  218.6560 C   0  0  0  0  0  0  0  0  0  0  0  0
  146.6524   66.1434  219.0964 H   0  0  0  0  0  0  0  0  0  0  0  0
  146.4350   67.3910  217.3440 C   0  0  0  0  0  0  0  0  0  0  0  0
  147.3810   66.6430  216.6280 O   0  0  0  0  0  0  0  0  0  0  0  0
  147.2440   66.2690  215.2610 C   0  0  0  0  0  0  0  0  0  0  0  0
  146.8663   65.2377  215.1991 H   0  0  0  0  0  0  0  0  0  0  0  0
  146.5366   66.9491  214.7639 H   0  0  0  0  0  0  0  0  0  0  0  0
  148.2233   66.3312  214.7639 H   0  0  0  0  0  0  0  0  0  0  0  0
  145.7750   68.5020  216.7900 C   0  0  0  0  0  0  0  0  0  0  0  0
  145.9938   68.8044  215.7553 H   0  0  0  0  0  0  0  0  0  0  0  0
  144.8420   69.2280  217.5410 C   0  0  0  0  0  0  0  0  0  0  0  0
  144.0740   70.6050  216.7580 Cl  0  0  0  0  0  0  0  0  0  0  0  0
  142.1360   69.3890  219.3230 C   0  0  0  0  0  0  0  0  0  0  0  0
  141.4954   69.2912  220.2119 H   0  0  0  0  0  0  0  0  0  0  0  0
  141.7997   70.2462  218.7212 H   0  0  0  0  0  0  0  0  0  0  0  0
  142.0709   68.4705  218.7212 H   0  0  0  0  0  0  0  0  0  0  0  0
  139.4560   73.7900  221.4310 C   0  0  0  0  0  0  0  0  0  0  0  0
  139.6996   74.8193  221.7329 H   0  0  0  0  0  0  0  0  0  0  0  0
  138.3820   73.6953  221.2127 H   0  0  0  0  0  0  0  0  0  0  0  0
  139.7900   72.8790  222.5260 N   0  0  0  0  0  0  0  0  0  0  0  0
  139.9530   73.2980  223.4700 H   0  0  0  0  0  0  0  0  0  0  0  0
  139.6180   71.4570  222.4180 C   0  0  0  0  0  0  0  0  0  0  0  0
  139.3680   70.9390  221.2970 O   0  0  0  0  0  0  0  0  0  0  0  0
  139.7140   70.5950  223.6180 C   0  0  0  0  0  0  0  0  0  0  0  0
  140.2960   71.0800  224.7500 N   0  0  0  0  0  0  0  0  0  0  0  0
  140.3800   70.3480  225.8930 C   0  0  0  0  0  0  0  0  0  0  0  0
  140.9810   70.8930  227.0330 C   0  0  0  0  0  0  0  0  0  0  0  0
  141.4026   71.9085  227.0012 H   0  0  0  0  0  0  0  0  0  0  0  0
  141.0450   70.1450  228.2130 C   0  0  0  0  0  0  0  0  0  0  0  0
  141.5168   70.5748  229.1089 H   0  0  0  0  0  0  0  0  0  0  0  0
  140.5110   68.8510  228.2590 C   0  0  0  0  0  0  0  0  0  0  0  0
  140.5700   68.1350  229.4090 F   0  0  0  0  0  0  0  0  0  0  0  0
  139.9160   68.2960  227.1200 C   0  0  0  0  0  0  0  0  0  0  0  0
  139.5029   67.2771  227.1557 H   0  0  0  0  0  0  0  0  0  0  0  0
  139.8470   69.0410  225.9320 C   0  0  0  0  0  0  0  0  0  0  0  0
  139.2550   68.5170  224.7780 C   0  0  0  0  0  0  0  0  0  0  0  0
  138.8441   67.4967  224.7838 H   0  0  0  0  0  0  0  0  0  0  0  0
  139.1870   69.2920  223.6190 C   0  0  0  0  0  0  0  0  0  0  0  0
  138.7223   68.8842  222.7092 H   0  0  0  0  0  0  0  0  0  0  0  0
  1  2  1  0
  2  3  1  0
  3  4  2  0
  4  5  1  0
  5  6  1  0
  5  7  1  0
  5  8  1  0
  8  9  1  1
  8 10  1  0
 10 11  1  0
  8 12  1  0
 12 13  1  0
 12 14  1  0
 12 15  1  0
 15 16  1  6
 15 17  1  0
 17 18  2  0
 17 19  1  0
 19 20  1  0
 20 21  1  1
 20 22  1  0
 22 23  2  0
 23 24  1  0
 23 25  1  0
 25 26  1  0
 25 27  2  0
 27 28  1  0
 28 29  1  0
 29 30  1  0
 29 31  1  0
 29 32  1  0
 27 33  1  0
 33 34  1  0
 33 35  2  0
 35 36  1  0
 20 37  1  0
 37 38  1  0
 37 39  1  0
 37 40  1  0
  3 41  1  0
 41 42  1  0
 41 43  1  0
 41 44  1  0
 44 45  1  0
 44 46  1  0
 46 47  2  0
 46 48  1  0
 48 49  2  0
 49 50  1  0
 50 51  2  0
 51 52  1  0
 51 53  1  0
 53 54  1  0
 53 55  2  0
 55 56  1  0
 55 57  1  0
 57 58  1  0
 57 59  2  0
 59 60  1  0
 60 61  1  0
 60 62  2  0
 62 63  1  0
 15  4  1  0
 35 22  1  0
 62 48  1  0
 59 50  1  0
M  CHG  2   4   1  19  -1
M  END
>  <UniqueID>  (68) 
4

>  <SMILES>  (68) 
COc1ccc([C@H](C)[N-]C(=O)[C@@H]2C[C@@H](O)C/[N+]2=C(\O)CNC(=O)c2ccc3cc(F)ccc3n2)c(Cl)c1

>  <Energy>  (68) 
65.5536039589818

>  <Genealogy>  (68) 
COc1ccc([C@H](C)[N-]C(=O)[C@@H]2C[C@@H](O)C[NH+]2C(=O)CNC(=O)c2ccc3cc(F)ccc3n2)c(Cl)c1 (protonated)
COc1ccc([C@H](C)[N-]C(=O)[C@@H]2C[C@@H](O)C[N+]2=C(O)CNC(=O)c2ccc3cc(F)ccc3n2)c(Cl)c1 (tautomer)
COc1ccc([C@H](C)[N-]C(=O)[C@@H]2C[C@@H](O)C/[N+]2=C(\O)CNC(=O)c2ccc3cc(F)ccc3n2)c(Cl)c1 (cis-trans isomerization)
COc1ccc([C@H](C)[N-]C(=O)[C@@H]2C[C@@H](O)C/[N+]2=C(\O)CNC(=O)c2ccc3cc(F)ccc3n2)c(Cl)c1 (3D coordinates assigned)
COc1ccc([C@H](C)[N-]C(=O)[C@@H]2C[C@@H](O)C/[N+]2=C(\O)CNC(=O)c2ccc3cc(F)ccc3n2)c(Cl)c1 (nonaromatic ring conformer: 65.5536039589818 kcal/mol)

>  <smiles>  (68) 
COc1ccc([C@H](C)NC(=O)[C@@H]2C[C@@H](O)CN2C(=O)CNC(=O)c2ccc3cc(F)ccc3n2)c(Cl)c1

>  <score_type>  (68) 
oracle

>  <origin>  (68) 
autodockgpu

>  <m_score__min__energy>  (68) 
-8.1099999999999994

>  <m_primary>  (68) 
energy

>  <meeko>  (68) 
{"free_energy": -7.18, "intermolecular_energy": -10.46, "internal_energy": -2.98, "cluster_size": 1, "cluster_id": 10, "rank_in_cluster": 1}

>  <energy>  (68) 
-7.77

>  <cluster_rmsd>  (68) 
0.0

>  <rmsd>  (68) 
270.55

>  <cluster>  (68) 
3

$$$$
JFIDHXWBANSMLJ-LGGCBPRRNA-N
     RDKit          3D

 63 66  0  0  0  0  0  0  0  0999 V2000
  141.5450   72.8150  217.0620 H   0  0  0  0  0  0  0  0  0  0  0  0
  141.6790   72.2170  217.8690 O   0  0  0  0  0  0  0  0  0  0  0  0
  142.0270   72.6930  219.1400 C   0  0  0  0  0  0  0  0  0  0  0  0
  143.2870   72.9130  219.4570 N   0  0  0  0  0  0  0  0  0  0  0  0
  144.3840   72.0420  219.0410 C   0  0  0  0  0  0  0  0  0  0  0  0
  144.3812   71.9207  217.9477 H   0  0  0  0  0  0  0  0  0  0  0  0
  144.2895   71.0390  219.4825 H   0  0  0  0  0  0  0  0  0  0  0  0
  145.6690   72.7310  219.4940 C   0  0  2  0  0  0  0  0  0  0  0  0
  146.1755   73.2233  218.6507 H   0  0  0  0  0  0  0  0  0  0  0  0
  146.5880   71.8070  220.0180 O   0  0  0  0  0  0  0  0  0  0  0  0
  146.2620   71.5710  220.9270 H   0  0  0  0  0  0  0  0  0  0  0  0
  145.2420   73.7290  220.5640 C   0  0  0  0  0  0  0  0  0  0  0  0
  145.8355   74.6519  220.4865 H   0  0  0  0  0  0  0  0  0  0  0  0
  145.3975   73.3297  221.5771 H   0  0  0  0  0  0  0  0  0  0  0  0
  143.7650   74.0200  220.2920 C   0  0  1  0  0  0  0  0  0  0  0  0
  143.1954   74.0964  221.2300 H   0  0  0  0  0  0  0  0  0  0  0  0
  143.5900   75.3370  219.5840 C   0  0  0  0  0  0  0  0  0  0  0  0
  144.0990   76.3790  220.0800 O   0  0  0  0  0  0  0  0  0  0  0  0
  142.8250   75.4120  218.3760 N   0  0  0  0  0  0  0  0  0  0  0  0
  142.9050   76.5500  217.4650 C   0  0  2  0  0  0  0  0  0  0  0  0
  143.9620   76.8181  217.3208 H   0  0  0  0  0  0  0  0  0  0  0  0
  142.1990   77.7570  218.0620 C   0  0  0  0  0  0  0  0  0  0  0  0
  142.9180   78.9570  218.1970 C   0  0  0  0  0  0  0  0  0  0  0  0
  143.9613   79.0067  217.8521 H   0  0  0  0  0  0  0  0  0  0  0  0
  142.3250   80.0860  218.7630 C   0  0  0  0  0  0  0  0  0  0  0  0
  142.9051   81.0158  218.8578 H   0  0  0  0  0  0  0  0  0  0  0  0
  141.0040   80.0480  219.2100 C   0  0  0  0  0  0  0  0  0  0  0  0
  140.4600   81.2080  219.7830 O   0  0  0  0  0  0  0  0  0  0  0  0
  141.0710   82.4930  219.7310 C   0  0  0  0  0  0  0  0  0  0  0  0
  141.2446   82.8581  220.7540 H   0  0  0  0  0  0  0  0  0  0  0  0
  142.0313   82.4211  219.1994 H   0  0  0  0  0  0  0  0  0  0  0  0
  140.4091   83.1925  219.1994 H   0  0  0  0  0  0  0  0  0  0  0  0
  140.2700   78.8560  219.0770 C   0  0  0  0  0  0  0  0  0  0  0  0
  139.2270   78.8173  219.4244 H   0  0  0  0  0  0  0  0  0  0  0  0
  140.8530   77.7180  218.5070 C   0  0  0  0  0  0  0  0  0  0  0  0
  139.8530   76.2740  218.3880 Cl  0  0  0  0  0  0  0  0  0  0  0  0
  142.3300   76.1810  216.0980 C   0  0  0  0  0  0  0  0  0  0  0  0
  141.4113   75.5914  216.2337 H   0  0  0  0  0  0  0  0  0  0  0  0
  142.0973   77.0989  215.5382 H   0  0  0  0  0  0  0  0  0  0  0  0
  143.0675   75.5871  215.5382 H   0  0  0  0  0  0  0  0  0  0  0  0
  140.9010   72.9970  220.1020 C   0  0  0  0  0  0  0  0  0  0  0  0
  139.9416   72.9134  219.5704 H   0  0  0  0  0  0  0  0  0  0  0  0
  140.9463   72.2770  220.9324 H   0  0  0  0  0  0  0  0  0  0  0  0
  141.0280   74.3480  220.6500 N   0  0  0  0  0  0  0  0  0  0  0  0
  141.5810   75.0430  220.0990 H   0  0  0  0  0  0  0  0  0  0  0  0
  140.2020   74.8160  221.7280 C   0  0  0  0  0  0  0  0  0  0  0  0
  139.4860   74.0020  222.3700 O   0  0  0  0  0  0  0  0  0  0  0  0
  140.1720   76.2530  222.0820 C   0  0  0  0  0  0  0  0  0  0  0  0
  141.3230   76.9810  222.0400 N   0  0  0  0  0  0  0  0  0  0  0  0
  141.3510   78.3120  222.3180 C   0  0  0  0  0  0  0  0  0  0  0  0
  142.5570   79.0180  222.2550 C   0  0  0  0  0  0  0  0  0  0  0  0
  143.4893   78.4937  221.9981 H   0  0  0  0  0  0  0  0  0  0  0  0
  142.5760   80.3910  222.5190 C   0  0  0  0  0  0  0  0  0  0  0  0
  143.5246   80.9455  222.4672 H   0  0  0  0  0  0  0  0  0  0  0  0
  141.3930   81.0630  222.8490 C   0  0  0  0  0  0  0  0  0  0  0  0
  141.4180   82.3960  223.0970 F   0  0  0  0  0  0  0  0  0  0  0  0
  140.1840   80.3630  222.9230 C   0  0  0  0  0  0  0  0  0  0  0  0
  139.2567   80.8918  223.1885 H   0  0  0  0  0  0  0  0  0  0  0  0
  140.1560   78.9850  222.6580 C   0  0  0  0  0  0  0  0  0  0  0  0
  138.9630   78.2560  222.7180 C   0  0  0  0  0  0  0  0  0  0  0  0
  138.0232   78.7585  222.9906 H   0  0  0  0  0  0  0  0  0  0  0  0
  138.9680   76.8890  222.4310 C   0  0  0  0  0  0  0  0  0  0  0  0
  138.0327   76.3120  222.4779 H   0  0  0  0  0  0  0  0  0  0  0  0
  1  2  1  0
  2  3  1  0
  3  4  2  0
  4  5  1  0
  5  6  1  0
  5  7  1  0
  5  8  1  0
  8  9  1  6
  8 10  1  0
 10 11  1  0
  8 12  1  0
 12 13  1  0
 12 14  1  0
 12 15  1  0
 15 16  1  1
 15 17  1  0
 17 18  2  0
 17 19  1  0
 19 20  1  0
 20 21  1  6
 20 22  1  0
 22 23  2  0
 23 24  1  0
 23 25  1  0
 25 26  1  0
 25 27  2  0
 27 28  1  0
 28 29  1  0
 29 30  1  0
 29 31  1  0
 29 32  1  0
 27 33  1  0
 33 34  1  0
 33 35  2  0
 35 36  1  0
 20 37  1  0
 37 38  1  0
 37 39  1  0
 37 40  1  0
  3 41  1  0
 41 42  1  0
 41 43  1  0
 41 44  1  0
 44 45  1  0
 44 46  1  0
 46 47  2  0
 46 48  1  0
 48 49  2  0
 49 50  1  0
 50 51  2  0
 51 52  1  0
 51 53  1  0
 53 54  1  0
 53 55  2  0
 55 56  1  0
 55 57  1  0
 57 58  1  0
 57 59  2  0
 59 60  1  0
 60 61  1  0
 60 62  2  0
 62 63  1  0
 15  4  1  0
 35 22  1  0
 62 48  1  0
 59 50  1  0
M  CHG  2   4   1  19  -1
M  END
>  <UniqueID>  (69) 
4

>  <SMILES>  (69) 
COc1ccc([C@H](C)[N-]C(=O)[C@@H]2C[C@@H](O)C/[N+]2=C(\O)CNC(=O)c2ccc3cc(F)ccc3n2)c(Cl)c1

>  <Energy>  (69) 
65.5536039589818

>  <Genealogy>  (69) 
COc1ccc([C@H](C)[N-]C(=O)[C@@H]2C[C@@H](O)C[NH+]2C(=O)CNC(=O)c2ccc3cc(F)ccc3n2)c(Cl)c1 (protonated)
COc1ccc([C@H](C)[N-]C(=O)[C@@H]2C[C@@H](O)C[N+]2=C(O)CNC(=O)c2ccc3cc(F)ccc3n2)c(Cl)c1 (tautomer)
COc1ccc([C@H](C)[N-]C(=O)[C@@H]2C[C@@H](O)C/[N+]2=C(\O)CNC(=O)c2ccc3cc(F)ccc3n2)c(Cl)c1 (cis-trans isomerization)
COc1ccc([C@H](C)[N-]C(=O)[C@@H]2C[C@@H](O)C/[N+]2=C(\O)CNC(=O)c2ccc3cc(F)ccc3n2)c(Cl)c1 (3D coordinates assigned)
COc1ccc([C@H](C)[N-]C(=O)[C@@H]2C[C@@H](O)C/[N+]2=C(\O)CNC(=O)c2ccc3cc(F)ccc3n2)c(Cl)c1 (nonaromatic ring conformer: 65.5536039589818 kcal/mol)

>  <smiles>  (69) 
COc1ccc([C@H](C)NC(=O)[C@@H]2C[C@@H](O)CN2C(=O)CNC(=O)c2ccc3cc(F)ccc3n2)c(Cl)c1

>  <score_type>  (69) 
oracle

>  <origin>  (69) 
autodockgpu

>  <m_score__min__energy>  (69) 
-8.1099999999999994

>  <m_primary>  (69) 
energy

>  <meeko>  (69) 
{"free_energy": -5.22, "intermolecular_energy": -8.5, "internal_energy": -4.84, "cluster_size": 1, "cluster_id": 13, "rank_in_cluster": 1}

>  <energy>  (69) 
-7.56

>  <cluster_rmsd>  (69) 
0.0

>  <rmsd>  (69) 
270.02

>  <cluster>  (69) 
4

$$$$
JFIDHXWBANSMLJ-LGGCBPRRNA-N
     RDKit          3D

 63 66  0  0  0  0  0  0  0  0999 V2000
  141.9850   71.3620  217.2820 H   0  0  0  0  0  0  0  0  0  0  0  0
  142.2110   71.2540  218.2640 O   0  0  0  0  0  0  0  0  0  0  0  0
  142.1160   72.2900  219.2020 C   0  0  0  0  0  0  0  0  0  0  0  0
  143.1940   72.9210  219.6240 N   0  0  0  0  0  0  0  0  0  0  0  0
  144.4470   72.2430  219.9440 C   0  0  0  0  0  0  0  0  0  0  0  0
  144.7842   71.6405  219.0876 H   0  0  0  0  0  0  0  0  0  0  0  0
  144.3269   71.5606  220.7983 H   0  0  0  0  0  0  0  0  0  0  0  0
  145.4610   73.3440  220.2490 C   0  0  2  0  0  0  0  0  0  0  0  0
  146.1457   73.5016  219.4026 H   0  0  0  0  0  0  0  0  0  0  0  0
  146.2680   73.0070  221.3470 O   0  0  0  0  0  0  0  0  0  0  0  0
  146.0010   72.0910  221.6230 H   0  0  0  0  0  0  0  0  0  0  0  0
  144.6320   74.5870  220.5530 C   0  0  0  0  0  0  0  0  0  0  0  0
  145.1239   75.4841  220.1490 H   0  0  0  0  0  0  0  0  0  0  0  0
  144.5157   74.7422  221.6358 H   0  0  0  0  0  0  0  0  0  0  0  0
  143.2830   74.3640  219.8670 C   0  0  1  0  0  0  0  0  0  0  0  0
  142.4527   74.7223  220.4933 H   0  0  0  0  0  0  0  0  0  0  0  0
  143.1970   75.1300  218.5740 C   0  0  0  0  0  0  0  0  0  0  0  0
  143.8880   74.7600  217.5860 O   0  0  0  0  0  0  0  0  0  0  0  0
  142.3620   76.2900  218.4760 N   0  0  0  0  0  0  0  0  0  0  0  0
  142.3370   77.3280  219.5030 C   0  0  2  0  0  0  0  0  0  0  0  0
  143.2913   77.3126  220.0499 H   0  0  0  0  0  0  0  0  0  0  0  0
  141.2260   77.0550  220.5050 C   0  0  0  0  0  0  0  0  0  0  0  0
  140.2990   76.0390  220.2200 C   0  0  0  0  0  0  0  0  0  0  0  0
  140.4052   75.4503  219.2969 H   0  0  0  0  0  0  0  0  0  0  0  0
  139.2450   75.7670  221.0930 C   0  0  0  0  0  0  0  0  0  0  0  0
  138.5305   74.9665  220.8509 H   0  0  0  0  0  0  0  0  0  0  0  0
  139.0880   76.5000  222.2700 C   0  0  0  0  0  0  0  0  0  0  0  0
  138.0040   76.1940  223.1070 O   0  0  0  0  0  0  0  0  0  0  0  0
  136.6410   76.4440  222.7820 C   0  0  0  0  0  0  0  0  0  0  0  0
  136.0570   76.5511  223.7080 H   0  0  0  0  0  0  0  0  0  0  0  0
  136.5684   77.3705  222.1934 H   0  0  0  0  0  0  0  0  0  0  0  0
  136.2443   75.6036  222.1934 H   0  0  0  0  0  0  0  0  0  0  0  0
  140.0120   77.5160  222.5710 C   0  0  0  0  0  0  0  0  0  0  0  0
  139.8985   78.0973  223.4979 H   0  0  0  0  0  0  0  0  0  0  0  0
  141.0750   77.7960  221.7040 C   0  0  0  0  0  0  0  0  0  0  0  0
  142.1740   79.0900  222.1690 Cl  0  0  0  0  0  0  0  0  0  0  0  0
  142.1930   78.7070  218.8640 C   0  0  0  0  0  0  0  0  0  0  0  0
  142.1133   79.4699  219.6524 H   0  0  0  0  0  0  0  0  0  0  0  0
  143.0742   78.9156  218.2396 H   0  0  0  0  0  0  0  0  0  0  0  0
  141.2877   78.7290  218.2396 H   0  0  0  0  0  0  0  0  0  0  0  0
  140.7320   72.6880  219.6610 C   0  0  0  0  0  0  0  0  0  0  0  0
  140.7344   73.7558  219.9252 H   0  0  0  0  0  0  0  0  0  0  0  0
  140.0233   72.4937  218.8425 H   0  0  0  0  0  0  0  0  0  0  0  0
  140.3190   71.9080  220.8280 N   0  0  0  0  0  0  0  0  0  0  0  0
  140.1530   70.8850  220.6910 H   0  0  0  0  0  0  0  0  0  0  0  0
  140.4190   72.4220  222.1660 C   0  0  0  0  0  0  0  0  0  0  0  0
  140.6720   73.6420  222.3520 O   0  0  0  0  0  0  0  0  0  0  0  0
  140.2440   71.5250  223.3300 C   0  0  0  0  0  0  0  0  0  0  0  0
  140.7190   71.9020  224.5490 N   0  0  0  0  0  0  0  0  0  0  0  0
  140.5550   71.1370  225.6610 C   0  0  0  0  0  0  0  0  0  0  0  0
  141.0560   71.5710  226.8940 C   0  0  0  0  0  0  0  0  0  0  0  0
  141.6002   72.5245  226.9623 H   0  0  0  0  0  0  0  0  0  0  0  0
  140.8640   70.7910  228.0390 C   0  0  0  0  0  0  0  0  0  0  0  0
  141.2559   71.1343  229.0078 H   0  0  0  0  0  0  0  0  0  0  0  0
  140.1750   69.5750  227.9570 C   0  0  0  0  0  0  0  0  0  0  0  0
  139.9870   68.8280  229.0730 F   0  0  0  0  0  0  0  0  0  0  0  0
  139.6780   69.1300  226.7270 C   0  0  0  0  0  0  0  0  0  0  0  0
  139.1412   68.1719  226.6642 H   0  0  0  0  0  0  0  0  0  0  0  0
  139.8650   69.9070  225.5740 C   0  0  0  0  0  0  0  0  0  0  0  0
  139.3780   69.4930  224.3290 C   0  0  0  0  0  0  0  0  0  0  0  0
  138.8487   68.5332  224.2361 H   0  0  0  0  0  0  0  0  0  0  0  0
  139.5650   70.3000  223.2050 C   0  0  0  0  0  0  0  0  0  0  0  0
  139.1824   69.9786  222.2250 H   0  0  0  0  0  0  0  0  0  0  0  0
  1  2  1  0
  2  3  1  0
  3  4  2  0
  4  5  1  0
  5  6  1  0
  5  7  1  0
  5  8  1  0
  8  9  1  6
  8 10  1  0
 10 11  1  0
  8 12  1  0
 12 13  1  0
 12 14  1  0
 12 15  1  0
 15 16  1  1
 15 17  1  0
 17 18  2  0
 17 19  1  0
 19 20  1  0
 20 21  1  1
 20 22  1  0
 22 23  2  0
 23 24  1  0
 23 25  1  0
 25 26  1  0
 25 27  2  0
 27 28  1  0
 28 29  1  0
 29 30  1  0
 29 31  1  0
 29 32  1  0
 27 33  1  0
 33 34  1  0
 33 35  2  0
 35 36  1  0
 20 37  1  0
 37 38  1  0
 37 39  1  0
 37 40  1  0
  3 41  1  0
 41 42  1  0
 41 43  1  0
 41 44  1  0
 44 45  1  0
 44 46  1  0
 46 47  2  0
 46 48  1  0
 48 49  2  0
 49 50  1  0
 50 51  2  0
 51 52  1  0
 51 53  1  0
 53 54  1  0
 53 55  2  0
 55 56  1  0
 55 57  1  0
 57 58  1  0
 57 59  2  0
 59 60  1  0
 60 61  1  0
 60 62  2  0
 62 63  1  0
 15  4  1  0
 35 22  1  0
 62 48  1  0
 59 50  1  0
M  CHG  2   4   1  19  -1
M  END
>  <UniqueID>  (70) 
4

>  <SMILES>  (70) 
COc1ccc([C@H](C)[N-]C(=O)[C@@H]2C[C@@H](O)C/[N+]2=C(\O)CNC(=O)c2ccc3cc(F)ccc3n2)c(Cl)c1

>  <Energy>  (70) 
65.5536039589818

>  <Genealogy>  (70) 
COc1ccc([C@H](C)[N-]C(=O)[C@@H]2C[C@@H](O)C[NH+]2C(=O)CNC(=O)c2ccc3cc(F)ccc3n2)c(Cl)c1 (protonated)
COc1ccc([C@H](C)[N-]C(=O)[C@@H]2C[C@@H](O)C[N+]2=C(O)CNC(=O)c2ccc3cc(F)ccc3n2)c(Cl)c1 (tautomer)
COc1ccc([C@H](C)[N-]C(=O)[C@@H]2C[C@@H](O)C/[N+]2=C(\O)CNC(=O)c2ccc3cc(F)ccc3n2)c(Cl)c1 (cis-trans isomerization)
COc1ccc([C@H](C)[N-]C(=O)[C@@H]2C[C@@H](O)C/[N+]2=C(\O)CNC(=O)c2ccc3cc(F)ccc3n2)c(Cl)c1 (3D coordinates assigned)
COc1ccc([C@H](C)[N-]C(=O)[C@@H]2C[C@@H](O)C/[N+]2=C(\O)CNC(=O)c2ccc3cc(F)ccc3n2)c(Cl)c1 (nonaromatic ring conformer: 65.5536039589818 kcal/mol)

>  <smiles>  (70) 
COc1ccc([C@H](C)NC(=O)[C@@H]2C[C@@H](O)CN2C(=O)CNC(=O)c2ccc3cc(F)ccc3n2)c(Cl)c1

>  <score_type>  (70) 
oracle

>  <origin>  (70) 
autodockgpu

>  <m_score__min__energy>  (70) 
-8.1099999999999994

>  <m_primary>  (70) 
energy

>  <meeko>  (70) 
{"free_energy": -7.49, "intermolecular_energy": -10.77, "internal_energy": -2.48, "cluster_size": 1, "cluster_id": 5, "rank_in_cluster": 1}

>  <energy>  (70) 
-7.49

>  <cluster_rmsd>  (70) 
0.0

>  <rmsd>  (70) 
269.79

>  <cluster>  (70) 
5

$$$$
JFIDHXWBANSMLJ-LGGCBPRRNA-N
     RDKit          3D

 63 66  0  0  0  0  0  0  0  0999 V2000
  140.2200   77.6930  221.7490 H   0  0  0  0  0  0  0  0  0  0  0  0
  140.2470   76.7120  222.0010 O   0  0  0  0  0  0  0  0  0  0  0  0
  140.4980   75.6810  221.0870 C   0  0  0  0  0  0  0  0  0  0  0  0
  141.5790   75.6950  220.3330 N   0  0  0  0  0  0  0  0  0  0  0  0
  142.0970   74.5120  219.6510 C   0  0  0  0  0  0  0  0  0  0  0  0
  141.3148   74.0609  219.0228 H   0  0  0  0  0  0  0  0  0  0  0  0
  142.4235   73.7459  220.3696 H   0  0  0  0  0  0  0  0  0  0  0  0
  143.2590   74.9940  218.7850 C   0  0  2  0  0  0  0  0  0  0  0  0
  142.9641   75.0699  217.7280 H   0  0  0  0  0  0  0  0  0  0  0  0
  144.3370   74.0940  218.8280 O   0  0  0  0  0  0  0  0  0  0  0  0
  145.0920   74.5370  218.3580 H   0  0  0  0  0  0  0  0  0  0  0  0
  143.6650   76.3450  219.3640 C   0  0  0  0  0  0  0  0  0  0  0  0
  143.9511   77.0373  218.5585 H   0  0  0  0  0  0  0  0  0  0  0  0
  144.5319   76.2556  220.0352 H   0  0  0  0  0  0  0  0  0  0  0  0
  142.4300   76.8660  220.1020 C   0  0  1  0  0  0  0  0  0  0  0  0
  142.7079   77.3576  221.0460 H   0  0  0  0  0  0  0  0  0  0  0  0
  141.7040   77.9010  219.2840 C   0  0  0  0  0  0  0  0  0  0  0  0
  141.9850   78.0340  218.0610 O   0  0  0  0  0  0  0  0  0  0  0  0
  140.7280   78.7510  219.8970 N   0  0  0  0  0  0  0  0  0  0  0  0
  141.0910   79.8510  220.7850 C   0  0  2  0  0  0  0  0  0  0  0  0
  142.0554   79.6208  221.2613 H   0  0  0  0  0  0  0  0  0  0  0  0
  140.0570   80.0060  221.8890 C   0  0  0  0  0  0  0  0  0  0  0  0
  138.8080   80.5630  221.5650 C   0  0  0  0  0  0  0  0  0  0  0  0
  138.5958   80.8535  220.5255 H   0  0  0  0  0  0  0  0  0  0  0  0
  137.8340   80.7520  222.5460 C   0  0  0  0  0  0  0  0  0  0  0  0
  136.8628   81.1894  222.2714 H   0  0  0  0  0  0  0  0  0  0  0  0
  138.0790   80.3920  223.8720 C   0  0  0  0  0  0  0  0  0  0  0  0
  137.0690   80.6140  224.8200 O   0  0  0  0  0  0  0  0  0  0  0  0
  137.0620   81.6930  225.7500 C   0  0  0  0  0  0  0  0  0  0  0  0
  137.0646   81.2937  226.7750 H   0  0  0  0  0  0  0  0  0  0  0  0
  137.9561   82.3151  225.5966 H   0  0  0  0  0  0  0  0  0  0  0  0
  136.1599   82.3034  225.5966 H   0  0  0  0  0  0  0  0  0  0  0  0
  139.3210   79.8280  224.2090 C   0  0  0  0  0  0  0  0  0  0  0  0
  139.5223   79.5382  225.2509 H   0  0  0  0  0  0  0  0  0  0  0  0
  140.3050   79.6310  223.2330 C   0  0  0  0  0  0  0  0  0  0  0  0
  141.8290   78.9220  223.7580 Cl  0  0  0  0  0  0  0  0  0  0  0  0
  141.2640   81.1440  219.9900 C   0  0  0  0  0  0  0  0  0  0  0  0
  141.3771   81.9893  220.6848 H   0  0  0  0  0  0  0  0  0  0  0  0
  142.1600   81.0678  219.3564 H   0  0  0  0  0  0  0  0  0  0  0  0
  140.3795   81.3060  219.3564 H   0  0  0  0  0  0  0  0  0  0  0  0
  139.5150   74.5320  221.0450 C   0  0  0  0  0  0  0  0  0  0  0  0
  138.4939   74.9348  220.9742 H   0  0  0  0  0  0  0  0  0  0  0  0
  139.7446   73.9067  220.1696 H   0  0  0  0  0  0  0  0  0  0  0  0
  139.6210   73.7060  222.2480 N   0  0  0  0  0  0  0  0  0  0  0  0
  138.9830   73.9290  223.0450 H   0  0  0  0  0  0  0  0  0  0  0  0
  140.3370   72.4600  222.2590 C   0  0  0  0  0  0  0  0  0  0  0  0
  141.0690   72.1490  221.2830 O   0  0  0  0  0  0  0  0  0  0  0  0
  140.2060   71.5300  223.4030 C   0  0  0  0  0  0  0  0  0  0  0  0
  140.6860   71.8930  224.6250 N   0  0  0  0  0  0  0  0  0  0  0  0
  140.5620   71.0970  225.7200 C   0  0  0  0  0  0  0  0  0  0  0  0
  141.0650   71.5180  226.9560 C   0  0  0  0  0  0  0  0  0  0  0  0
  141.5785   72.4871  227.0404 H   0  0  0  0  0  0  0  0  0  0  0  0
  140.9140   70.7050  228.0840 C   0  0  0  0  0  0  0  0  0  0  0  0
  141.3076   71.0381  229.0557 H   0  0  0  0  0  0  0  0  0  0  0  0
  140.2640   69.4690  227.9820 C   0  0  0  0  0  0  0  0  0  0  0  0
  140.1150   68.6900  229.0820 F   0  0  0  0  0  0  0  0  0  0  0  0
  139.7650   69.0370  226.7480 C   0  0  0  0  0  0  0  0  0  0  0  0
  139.2591   68.0635  226.6688 H   0  0  0  0  0  0  0  0  0  0  0  0
  139.9110   69.8480  225.6110 C   0  0  0  0  0  0  0  0  0  0  0  0
  139.4200   69.4470  224.3640 C   0  0  0  0  0  0  0  0  0  0  0  0
  138.9197   68.4734  224.2552 H   0  0  0  0  0  0  0  0  0  0  0  0
  139.5670   70.2870  223.2570 C   0  0  0  0  0  0  0  0  0  0  0  0
  139.1836   69.9761  222.2740 H   0  0  0  0  0  0  0  0  0  0  0  0
  1  2  1  0
  2  3  1  0
  3  4  2  0
  4  5  1  0
  5  6  1  0
  5  7  1  0
  5  8  1  0
  8  9  1  6
  8 10  1  0
 10 11  1  0
  8 12  1  0
 12 13  1  0
 12 14  1  0
 12 15  1  0
 15 16  1  1
 15 17  1  0
 17 18  2  0
 17 19  1  0
 19 20  1  0
 20 21  1  1
 20 22  1  0
 22 23  2  0
 23 24  1  0
 23 25  1  0
 25 26  1  0
 25 27  2  0
 27 28  1  0
 28 29  1  0
 29 30  1  0
 29 31  1  0
 29 32  1  0
 27 33  1  0
 33 34  1  0
 33 35  2  0
 35 36  1  0
 20 37  1  0
 37 38  1  0
 37 39  1  0
 37 40  1  0
  3 41  1  0
 41 42  1  0
 41 43  1  0
 41 44  1  0
 44 45  1  0
 44 46  1  0
 46 47  2  0
 46 48  1  0
 48 49  2  0
 49 50  1  0
 50 51  2  0
 51 52  1  0
 51 53  1  0
 53 54  1  0
 53 55  2  0
 55 56  1  0
 55 57  1  0
 57 58  1  0
 57 59  2  0
 59 60  1  0
 60 61  1  0
 60 62  2  0
 62 63  1  0
 15  4  1  0
 35 22  1  0
 62 48  1  0
 59 50  1  0
M  CHG  2   4   1  19  -1
M  END
>  <UniqueID>  (71) 
4

>  <SMILES>  (71) 
COc1ccc([C@H](C)[N-]C(=O)[C@@H]2C[C@@H](O)C/[N+]2=C(\O)CNC(=O)c2ccc3cc(F)ccc3n2)c(Cl)c1

>  <Energy>  (71) 
65.5536039589818

>  <Genealogy>  (71) 
COc1ccc([C@H](C)[N-]C(=O)[C@@H]2C[C@@H](O)C[NH+]2C(=O)CNC(=O)c2ccc3cc(F)ccc3n2)c(Cl)c1 (protonated)
COc1ccc([C@H](C)[N-]C(=O)[C@@H]2C[C@@H](O)C[N+]2=C(O)CNC(=O)c2ccc3cc(F)ccc3n2)c(Cl)c1 (tautomer)
COc1ccc([C@H](C)[N-]C(=O)[C@@H]2C[C@@H](O)C/[N+]2=C(\O)CNC(=O)c2ccc3cc(F)ccc3n2)c(Cl)c1 (cis-trans isomerization)
COc1ccc([C@H](C)[N-]C(=O)[C@@H]2C[C@@H](O)C/[N+]2=C(\O)CNC(=O)c2ccc3cc(F)ccc3n2)c(Cl)c1 (3D coordinates assigned)
COc1ccc([C@H](C)[N-]C(=O)[C@@H]2C[C@@H](O)C/[N+]2=C(\O)CNC(=O)c2ccc3cc(F)ccc3n2)c(Cl)c1 (nonaromatic ring conformer: 65.5536039589818 kcal/mol)

>  <smiles>  (71) 
COc1ccc([C@H](C)NC(=O)[C@@H]2C[C@@H](O)CN2C(=O)CNC(=O)c2ccc3cc(F)ccc3n2)c(Cl)c1

>  <score_type>  (71) 
oracle

>  <origin>  (71) 
autodockgpu

>  <m_score__min__energy>  (71) 
-8.1099999999999994

>  <m_primary>  (71) 
energy

>  <meeko>  (71) 
{"free_energy": -7.84, "intermolecular_energy": -11.13, "internal_energy": -2.85, "cluster_size": 6, "cluster_id": 1, "rank_in_cluster": 3}

>  <energy>  (71) 
-7.45

>  <cluster_rmsd>  (71) 
0.0

>  <rmsd>  (71) 
269.56

>  <cluster>  (71) 
6

$$$$
JFIDHXWBANSMLJ-LGGCBPRRNA-N
     RDKit          3D

 63 66  0  0  0  0  0  0  0  0999 V2000
  137.2040   71.2130  219.5830 H   0  0  0  0  0  0  0  0  0  0  0  0
  137.4030   72.1330  219.2080 O   0  0  0  0  0  0  0  0  0  0  0  0
  137.9060   73.1930  219.9740 C   0  0  0  0  0  0  0  0  0  0  0  0
  138.7830   74.0360  219.4680 N   0  0  0  0  0  0  0  0  0  0  0  0
  138.5030   74.8900  218.3170 C   0  0  0  0  0  0  0  0  0  0  0  0
  137.5990   75.4900  218.4982 H   0  0  0  0  0  0  0  0  0  0  0  0
  138.3252   74.2942  217.4096 H   0  0  0  0  0  0  0  0  0  0  0  0
  139.7190   75.8000  218.1560 C   0  0  2  0  0  0  0  0  0  0  0  0
  139.5139   76.8104  218.5394 H   0  0  0  0  0  0  0  0  0  0  0  0
  140.0660   75.9570  216.8050 O   0  0  0  0  0  0  0  0  0  0  0  0
  139.7700   75.1290  216.3410 H   0  0  0  0  0  0  0  0  0  0  0  0
  140.8450   75.1150  218.9230 C   0  0  0  0  0  0  0  0  0  0  0  0
  141.4746   75.8619  219.4288 H   0  0  0  0  0  0  0  0  0  0  0  0
  141.5019   74.5402  218.2536 H   0  0  0  0  0  0  0  0  0  0  0  0
  140.1560   74.2140  219.9500 C   0  0  1  0  0  0  0  0  0  0  0  0
  140.6785   73.2511  220.0489 H   0  0  0  0  0  0  0  0  0  0  0  0
  140.1660   74.8410  221.3190 C   0  0  0  0  0  0  0  0  0  0  0  0
  140.4530   74.1330  222.3230 O   0  0  0  0  0  0  0  0  0  0  0  0
  139.8190   76.2210  221.4840 N   0  0  0  0  0  0  0  0  0  0  0  0
  140.7940   77.2330  221.8780 C   0  0  2  0  0  0  0  0  0  0  0  0
  141.5193   76.7801  222.5700 H   0  0  0  0  0  0  0  0  0  0  0  0
  140.1060   78.3740  222.6110 C   0  0  0  0  0  0  0  0  0  0  0  0
  138.7050   78.3580  222.7150 C   0  0  0  0  0  0  0  0  0  0  0  0
  138.1383   77.5177  222.2875 H   0  0  0  0  0  0  0  0  0  0  0  0
  138.0230   79.3950  223.3540 C   0  0  0  0  0  0  0  0  0  0  0  0
  136.9259   79.3616  223.4261 H   0  0  0  0  0  0  0  0  0  0  0  0
  138.7180   80.4730  223.9020 C   0  0  0  0  0  0  0  0  0  0  0  0
  137.9830   81.4940  224.5230 O   0  0  0  0  0  0  0  0  0  0  0  0
  137.0190   81.2820  225.5500 C   0  0  0  0  0  0  0  0  0  0  0  0
  137.5011   81.3880  226.5330 H   0  0  0  0  0  0  0  0  0  0  0  0
  136.2128   82.0243  225.4550 H   0  0  0  0  0  0  0  0  0  0  0  0
  136.5986   80.2699  225.4550 H   0  0  0  0  0  0  0  0  0  0  0  0
  140.1210   80.5000  223.8100 C   0  0  0  0  0  0  0  0  0  0  0  0
  140.6784   81.3444  224.2417 H   0  0  0  0  0  0  0  0  0  0  0  0
  140.8160   79.4640  223.1750 C   0  0  0  0  0  0  0  0  0  0  0  0
  142.5710   79.5940  223.1080 Cl  0  0  0  0  0  0  0  0  0  0  0  0
  141.5670   77.7320  220.6590 C   0  0  0  0  0  0  0  0  0  0  0  0
  142.4480   78.3007  220.9911 H   0  0  0  0  0  0  0  0  0  0  0  0
  141.8920   76.8728  220.0539 H   0  0  0  0  0  0  0  0  0  0  0  0
  140.9177   78.3819  220.0539 H   0  0  0  0  0  0  0  0  0  0  0  0
  137.3590   73.3600  221.3740 C   0  0  0  0  0  0  0  0  0  0  0  0
  137.3690   74.4276  221.6387 H   0  0  0  0  0  0  0  0  0  0  0  0
  136.3324   72.9655  221.3974 H   0  0  0  0  0  0  0  0  0  0  0  0
  138.1640   72.6190  222.3460 N   0  0  0  0  0  0  0  0  0  0  0  0
  138.6420   73.1670  223.0960 H   0  0  0  0  0  0  0  0  0  0  0  0
  138.0820   71.1900  222.4760 C   0  0  0  0  0  0  0  0  0  0  0  0
  137.4640   70.5160  221.6090 O   0  0  0  0  0  0  0  0  0  0  0  0
  138.7050   70.5040  223.6300 C   0  0  0  0  0  0  0  0  0  0  0  0
  139.3200   71.2380  224.5980 N   0  0  0  0  0  0  0  0  0  0  0  0
  139.8770   70.6670  225.6990 C   0  0  0  0  0  0  0  0  0  0  0  0
  140.4920   71.4640  226.6700 C   0  0  0  0  0  0  0  0  0  0  0  0
  140.5429   72.5545  226.5352 H   0  0  0  0  0  0  0  0  0  0  0  0
  141.0420   70.8740  227.8120 C   0  0  0  0  0  0  0  0  0  0  0  0
  141.5229   71.5026  228.5759 H   0  0  0  0  0  0  0  0  0  0  0  0
  140.9830   69.4860  227.9870 C   0  0  0  0  0  0  0  0  0  0  0  0
  141.5130   68.9210  229.1010 F   0  0  0  0  0  0  0  0  0  0  0  0
  140.3770   68.6800  227.0170 C   0  0  0  0  0  0  0  0  0  0  0  0
  140.3365   67.5893  227.1541 H   0  0  0  0  0  0  0  0  0  0  0  0
  139.8210   69.2650  225.8690 C   0  0  0  0  0  0  0  0  0  0  0  0
  139.2040   68.4890  224.8820 C   0  0  0  0  0  0  0  0  0  0  0  0
  139.1590   67.3951  224.9891 H   0  0  0  0  0  0  0  0  0  0  0  0
  138.6450   69.1060  223.7600 C   0  0  0  0  0  0  0  0  0  0  0  0
  138.1596   68.4996  222.9811 H   0  0  0  0  0  0  0  0  0  0  0  0
  1  2  1  0
  2  3  1  0
  3  4  2  0
  4  5  1  0
  5  6  1  0
  5  7  1  0
  5  8  1  0
  8  9  1  1
  8 10  1  0
 10 11  1  0
  8 12  1  0
 12 13  1  0
 12 14  1  0
 12 15  1  0
 15 16  1  1
 15 17  1  0
 17 18  2  0
 17 19  1  0
 19 20  1  0
 20 21  1  1
 20 22  1  0
 22 23  2  0
 23 24  1  0
 23 25  1  0
 25 26  1  0
 25 27  2  0
 27 28  1  0
 28 29  1  0
 29 30  1  0
 29 31  1  0
 29 32  1  0
 27 33  1  0
 33 34  1  0
 33 35  2  0
 35 36  1  0
 20 37  1  0
 37 38  1  0
 37 39  1  0
 37 40  1  0
  3 41  1  0
 41 42  1  0
 41 43  1  0
 41 44  1  0
 44 45  1  0
 44 46  1  0
 46 47  2  0
 46 48  1  0
 48 49  2  0
 49 50  1  0
 50 51  2  0
 51 52  1  0
 51 53  1  0
 53 54  1  0
 53 55  2  0
 55 56  1  0
 55 57  1  0
 57 58  1  0
 57 59  2  0
 59 60  1  0
 60 61  1  0
 60 62  2  0
 62 63  1  0
 15  4  1  0
 35 22  1  0
 62 48  1  0
 59 50  1  0
M  CHG  2   4   1  19  -1
M  END
>  <UniqueID>  (72) 
4

>  <SMILES>  (72) 
COc1ccc([C@H](C)[N-]C(=O)[C@@H]2C[C@@H](O)C/[N+]2=C(\O)CNC(=O)c2ccc3cc(F)ccc3n2)c(Cl)c1

>  <Energy>  (72) 
65.5536039589818

>  <Genealogy>  (72) 
COc1ccc([C@H](C)[N-]C(=O)[C@@H]2C[C@@H](O)C[NH+]2C(=O)CNC(=O)c2ccc3cc(F)ccc3n2)c(Cl)c1 (protonated)
COc1ccc([C@H](C)[N-]C(=O)[C@@H]2C[C@@H](O)C[N+]2=C(O)CNC(=O)c2ccc3cc(F)ccc3n2)c(Cl)c1 (tautomer)
COc1ccc([C@H](C)[N-]C(=O)[C@@H]2C[C@@H](O)C/[N+]2=C(\O)CNC(=O)c2ccc3cc(F)ccc3n2)c(Cl)c1 (cis-trans isomerization)
COc1ccc([C@H](C)[N-]C(=O)[C@@H]2C[C@@H](O)C/[N+]2=C(\O)CNC(=O)c2ccc3cc(F)ccc3n2)c(Cl)c1 (3D coordinates assigned)
COc1ccc([C@H](C)[N-]C(=O)[C@@H]2C[C@@H](O)C/[N+]2=C(\O)CNC(=O)c2ccc3cc(F)ccc3n2)c(Cl)c1 (nonaromatic ring conformer: 65.5536039589818 kcal/mol)

>  <smiles>  (72) 
COc1ccc([C@H](C)NC(=O)[C@@H]2C[C@@H](O)CN2C(=O)CNC(=O)c2ccc3cc(F)ccc3n2)c(Cl)c1

>  <score_type>  (72) 
oracle

>  <origin>  (72) 
autodockgpu

>  <m_score__min__energy>  (72) 
-8.1099999999999994

>  <m_primary>  (72) 
energy

>  <meeko>  (72) 
{"free_energy": -7.12, "intermolecular_energy": -10.4, "internal_energy": -3.48, "cluster_size": 6, "cluster_id": 1, "rank_in_cluster": 6}

>  <energy>  (72) 
-5.64

>  <cluster_rmsd>  (72) 
1.84

>  <rmsd>  (72) 
269.3

>  <cluster>  (72) 
6

$$$$
JFIDHXWBANSMLJ-LGGCBPRRNA-N
     RDKit          3D

 63 66  0  0  0  0  0  0  0  0999 V2000
  136.9840   73.8880  223.2220 H   0  0  0  0  0  0  0  0  0  0  0  0
  137.1970   74.4410  222.4010 O   0  0  0  0  0  0  0  0  0  0  0  0
  138.3570   74.2780  221.6320 C   0  0  0  0  0  0  0  0  0  0  0  0
  139.2840   75.2130  221.6010 N   0  0  0  0  0  0  0  0  0  0  0  0
  139.1770   76.4750  222.3290 C   0  0  0  0  0  0  0  0  0  0  0  0
  138.9975   76.2848  223.3974 H   0  0  0  0  0  0  0  0  0  0  0  0
  138.3380   77.0818  221.9578 H   0  0  0  0  0  0  0  0  0  0  0  0
  140.5110   77.1930  222.1360 C   0  0  2  0  0  0  0  0  0  0  0  0
  141.1426   77.1091  223.0327 H   0  0  0  0  0  0  0  0  0  0  0  0
  140.3250   78.5670  221.9140 O   0  0  0  0  0  0  0  0  0  0  0  0
  139.5530   78.6500  221.2940 H   0  0  0  0  0  0  0  0  0  0  0  0
  141.1540   76.5360  220.9190 C   0  0  0  0  0  0  0  0  0  0  0  0
  142.2419   76.4524  221.0582 H   0  0  0  0  0  0  0  0  0  0  0  0
  140.9901   77.1258  220.0051 H   0  0  0  0  0  0  0  0  0  0  0  0
  140.5210   75.1470  220.8160 C   0  0  1  0  0  0  0  0  0  0  0  0
  140.3230   74.8767  219.7683 H   0  0  0  0  0  0  0  0  0  0  0  0
  141.4420   74.0860  221.3580 C   0  0  0  0  0  0  0  0  0  0  0  0
  141.0690   73.3820  222.3360 O   0  0  0  0  0  0  0  0  0  0  0  0
  142.7440   73.9020  220.7900 N   0  0  0  0  0  0  0  0  0  0  0  0
  142.9450   73.3970  219.4350 C   0  0  2  0  0  0  0  0  0  0  0  0
  141.9636   73.2047  218.9769 H   0  0  0  0  0  0  0  0  0  0  0  0
  143.7060   72.0810  219.4670 C   0  0  0  0  0  0  0  0  0  0  0  0
  145.0990   72.1060  219.2910 C   0  0  0  0  0  0  0  0  0  0  0  0
  145.6122   73.0697  219.1570 H   0  0  0  0  0  0  0  0  0  0  0  0
  145.8410   70.9230  219.2840 C   0  0  0  0  0  0  0  0  0  0  0  0
  146.9312   70.9647  219.1438 H   0  0  0  0  0  0  0  0  0  0  0  0
  145.2130   69.6890  219.4530 C   0  0  0  0  0  0  0  0  0  0  0  0
  146.0040   68.5300  219.4270 O   0  0  0  0  0  0  0  0  0  0  0  0
  145.5270   67.2380  219.0620 C   0  0  0  0  0  0  0  0  0  0  0  0
  145.3122   66.6563  219.9705 H   0  0  0  0  0  0  0  0  0  0  0  0
  144.6077   67.3412  218.4668 H   0  0  0  0  0  0  0  0  0  0  0  0
  146.2928   66.7191  218.4668 H   0  0  0  0  0  0  0  0  0  0  0  0
  143.8200   69.6480  219.6370 C   0  0  0  0  0  0  0  0  0  0  0  0
  143.3172   68.6793  219.7737 H   0  0  0  0  0  0  0  0  0  0  0  0
  143.0660   70.8280  219.6480 C   0  0  0  0  0  0  0  0  0  0  0  0
  141.3280   70.6710  219.8810 Cl  0  0  0  0  0  0  0  0  0  0  0  0
  143.6600   74.4390  218.5780 C   0  0  0  0  0  0  0  0  0  0  0  0
  144.1610   75.1692  219.2305 H   0  0  0  0  0  0  0  0  0  0  0  0
  144.4076   73.9411  217.9430 H   0  0  0  0  0  0  0  0  0  0  0  0
  142.9265   74.9574  217.9430 H   0  0  0  0  0  0  0  0  0  0  0  0
  138.5240   72.9680  220.8940 C   0  0  0  0  0  0  0  0  0  0  0  0
  137.5564   72.6731  220.4618 H   0  0  0  0  0  0  0  0  0  0  0  0
  139.2748   73.1060  220.1020 H   0  0  0  0  0  0  0  0  0  0  0  0
  138.9870   71.9120  221.7950 N   0  0  0  0  0  0  0  0  0  0  0  0
  140.0030   71.6690  221.7720 H   0  0  0  0  0  0  0  0  0  0  0  0
  138.1810   71.4230  222.8790 C   0  0  0  0  0  0  0  0  0  0  0  0
  136.9660   71.7490  222.9540 O   0  0  0  0  0  0  0  0  0  0  0  0
  138.7710   70.5520  223.9210 C   0  0  0  0  0  0  0  0  0  0  0  0
  139.4010   71.1130  224.9900 N   0  0  0  0  0  0  0  0  0  0  0  0
  139.9300   70.3650  225.9950 C   0  0  0  0  0  0  0  0  0  0  0  0
  140.5620   70.9870  227.0770 C   0  0  0  0  0  0  0  0  0  0  0  0
  140.6488   72.0831  227.1076 H   0  0  0  0  0  0  0  0  0  0  0  0
  141.0830   70.2150  228.1190 C   0  0  0  0  0  0  0  0  0  0  0  0
  141.5785   70.7060  228.9695 H   0  0  0  0  0  0  0  0  0  0  0  0
  140.9770   68.8190  228.0850 C   0  0  0  0  0  0  0  0  0  0  0  0
  141.4790   68.0770  229.1030 F   0  0  0  0  0  0  0  0  0  0  0  0
  140.3530   68.1880  227.0030 C   0  0  0  0  0  0  0  0  0  0  0  0
  140.2754   67.0911  226.9751 H   0  0  0  0  0  0  0  0  0  0  0  0
  139.8260   68.9570  225.9530 C   0  0  0  0  0  0  0  0  0  0  0  0
  139.1930   68.3570  224.8590 C   0  0  0  0  0  0  0  0  0  0  0  0
  139.1123   67.2615  224.8010 H   0  0  0  0  0  0  0  0  0  0  0  0
  138.6640   69.1530  223.8410 C   0  0  0  0  0  0  0  0  0  0  0  0
  138.1650   68.6864  222.9789 H   0  0  0  0  0  0  0  0  0  0  0  0
  1  2  1  0
  2  3  1  0
  3  4  2  0
  4  5  1  0
  5  6  1  0
  5  7  1  0
  5  8  1  0
  8  9  1  1
  8 10  1  0
 10 11  1  0
  8 12  1  0
 12 13  1  0
 12 14  1  0
 12 15  1  0
 15 16  1  6
 15 17  1  0
 17 18  2  0
 17 19  1  0
 19 20  1  0
 20 21  1  6
 20 22  1  0
 22 23  2  0
 23 24  1  0
 23 25  1  0
 25 26  1  0
 25 27  2  0
 27 28  1  0
 28 29  1  0
 29 30  1  0
 29 31  1  0
 29 32  1  0
 27 33  1  0
 33 34  1  0
 33 35  2  0
 35 36  1  0
 20 37  1  0
 37 38  1  0
 37 39  1  0
 37 40  1  0
  3 41  1  0
 41 42  1  0
 41 43  1  0
 41 44  1  0
 44 45  1  0
 44 46  1  0
 46 47  2  0
 46 48  1  0
 48 49  2  0
 49 50  1  0
 50 51  2  0
 51 52  1  0
 51 53  1  0
 53 54  1  0
 53 55  2  0
 55 56  1  0
 55 57  1  0
 57 58  1  0
 57 59  2  0
 59 60  1  0
 60 61  1  0
 60 62  2  0
 62 63  1  0
 15  4  1  0
 35 22  1  0
 62 48  1  0
 59 50  1  0
M  CHG  2   4   1  19  -1
M  END
>  <UniqueID>  (73) 
4

>  <SMILES>  (73) 
COc1ccc([C@H](C)[N-]C(=O)[C@@H]2C[C@@H](O)C/[N+]2=C(\O)CNC(=O)c2ccc3cc(F)ccc3n2)c(Cl)c1

>  <Energy>  (73) 
65.5536039589818

>  <Genealogy>  (73) 
COc1ccc([C@H](C)[N-]C(=O)[C@@H]2C[C@@H](O)C[NH+]2C(=O)CNC(=O)c2ccc3cc(F)ccc3n2)c(Cl)c1 (protonated)
COc1ccc([C@H](C)[N-]C(=O)[C@@H]2C[C@@H](O)C[N+]2=C(O)CNC(=O)c2ccc3cc(F)ccc3n2)c(Cl)c1 (tautomer)
COc1ccc([C@H](C)[N-]C(=O)[C@@H]2C[C@@H](O)C/[N+]2=C(\O)CNC(=O)c2ccc3cc(F)ccc3n2)c(Cl)c1 (cis-trans isomerization)
COc1ccc([C@H](C)[N-]C(=O)[C@@H]2C[C@@H](O)C/[N+]2=C(\O)CNC(=O)c2ccc3cc(F)ccc3n2)c(Cl)c1 (3D coordinates assigned)
COc1ccc([C@H](C)[N-]C(=O)[C@@H]2C[C@@H](O)C/[N+]2=C(\O)CNC(=O)c2ccc3cc(F)ccc3n2)c(Cl)c1 (nonaromatic ring conformer: 65.5536039589818 kcal/mol)

>  <smiles>  (73) 
COc1ccc([C@H](C)NC(=O)[C@@H]2C[C@@H](O)CN2C(=O)CNC(=O)c2ccc3cc(F)ccc3n2)c(Cl)c1

>  <score_type>  (73) 
oracle

>  <origin>  (73) 
autodockgpu

>  <m_score__min__energy>  (73) 
-8.1099999999999994

>  <m_primary>  (73) 
energy

>  <meeko>  (73) 
{"free_energy": -7.03, "intermolecular_energy": -10.31, "internal_energy": -3.43, "cluster_size": 1, "cluster_id": 12, "rank_in_cluster": 1}

>  <energy>  (73) 
-7.41

>  <cluster_rmsd>  (73) 
0.0

>  <rmsd>  (73) 
270.18

>  <cluster>  (73) 
7

$$$$
JFIDHXWBANSMLJ-LGGCBPRRNA-N
     RDKit          3D

 63 66  0  0  0  0  0  0  0  0999 V2000
  140.1690   70.8320  219.3140 H   0  0  0  0  0  0  0  0  0  0  0  0
  140.2570   71.7660  218.9320 O   0  0  0  0  0  0  0  0  0  0  0  0
  140.3120   72.9250  219.7180 C   0  0  0  0  0  0  0  0  0  0  0  0
  141.2870   73.7990  219.5680 N   0  0  0  0  0  0  0  0  0  0  0  0
  141.8750   74.1310  218.2730 C   0  0  0  0  0  0  0  0  0  0  0  0
  141.0923   74.4507  217.5693 H   0  0  0  0  0  0  0  0  0  0  0  0
  142.3814   73.2619  217.8277 H   0  0  0  0  0  0  0  0  0  0  0  0
  142.8540   75.2740  218.5310 C   0  0  2  0  0  0  0  0  0  0  0  0
  142.4308   76.2396  218.2171 H   0  0  0  0  0  0  0  0  0  0  0  0
  144.0400   75.1070  217.7970 O   0  0  0  0  0  0  0  0  0  0  0  0
  144.5320   75.9680  217.8590 H   0  0  0  0  0  0  0  0  0  0  0  0
  143.1410   75.2350  220.0280 C   0  0  0  0  0  0  0  0  0  0  0  0
  143.2376   76.2555  220.4270 H   0  0  0  0  0  0  0  0  0  0  0  0
  144.0838   74.7127  220.2477 H   0  0  0  0  0  0  0  0  0  0  0  0
  141.9410   74.5260  220.6600 C   0  0  1  0  0  0  0  0  0  0  0  0
  142.2579   73.8479  221.4661 H   0  0  0  0  0  0  0  0  0  0  0  0
  140.9940   75.5130  221.2880 C   0  0  0  0  0  0  0  0  0  0  0  0
  140.3880   75.2020  222.3500 O   0  0  0  0  0  0  0  0  0  0  0  0
  140.7560   76.7820  220.6680 N   0  0  0  0  0  0  0  0  0  0  0  0
  141.4750   77.9920  221.0560 C   0  0  2  0  0  0  0  0  0  0  0  0
  142.4289   77.7062  221.5233 H   0  0  0  0  0  0  0  0  0  0  0  0
  140.6730   78.7780  222.0820 C   0  0  0  0  0  0  0  0  0  0  0  0
  139.2970   78.5220  222.1980 C   0  0  0  0  0  0  0  0  0  0  0  0
  138.8327   77.7506  221.5661 H   0  0  0  0  0  0  0  0  0  0  0  0
  138.5110   79.2350  223.1060 C   0  0  0  0  0  0  0  0  0  0  0  0
  137.4350   79.0193  223.1816 H   0  0  0  0  0  0  0  0  0  0  0  0
  139.0770   80.2180  223.9180 C   0  0  0  0  0  0  0  0  0  0  0  0
  138.2400   80.9130  224.8050 O   0  0  0  0  0  0  0  0  0  0  0  0
  136.8700   81.2120  224.5510 C   0  0  0  0  0  0  0  0  0  0  0  0
  136.3369   81.3283  225.5061 H   0  0  0  0  0  0  0  0  0  0  0  0
  136.7993   82.1467  223.9754 H   0  0  0  0  0  0  0  0  0  0  0  0
  136.4163   80.3917  223.9754 H   0  0  0  0  0  0  0  0  0  0  0  0
  140.4540   80.4810  223.8170 C   0  0  0  0  0  0  0  0  0  0  0  0
  140.9090   81.2529  224.4551 H   0  0  0  0  0  0  0  0  0  0  0  0
  141.2520   79.7710  222.9130 C   0  0  0  0  0  0  0  0  0  0  0  0
  142.9650   80.1770  222.8590 Cl  0  0  0  0  0  0  0  0  0  0  0  0
  141.7970   78.8390  219.8260 C   0  0  0  0  0  0  0  0  0  0  0  0
  142.1710   79.8228  220.1459 H   0  0  0  0  0  0  0  0  0  0  0  0
  142.5655   78.3329  219.2232 H   0  0  0  0  0  0  0  0  0  0  0  0
  140.8864   78.9712  219.2232 H   0  0  0  0  0  0  0  0  0  0  0  0
  139.1810   73.1560  220.6960 C   0  0  0  0  0  0  0  0  0  0  0  0
  138.9074   74.2214  220.6838 H   0  0  0  0  0  0  0  0  0  0  0  0
  138.3255   72.5338  220.3943 H   0  0  0  0  0  0  0  0  0  0  0  0
  139.5740   72.7790  222.0540 N   0  0  0  0  0  0  0  0  0  0  0  0
  139.3090   73.4270  222.8300 H   0  0  0  0  0  0  0  0  0  0  0  0
  140.0330   71.4570  222.3780 C   0  0  0  0  0  0  0  0  0  0  0  0
  140.3070   70.6450  221.4560 O   0  0  0  0  0  0  0  0  0  0  0  0
  140.1720   71.0360  223.7900 C   0  0  0  0  0  0  0  0  0  0  0  0
  139.8130   69.7740  224.1550 N   0  0  0  0  0  0  0  0  0  0  0  0
  139.9520   69.3190  225.4290 C   0  0  0  0  0  0  0  0  0  0  0  0
  139.5750   68.0110  225.7540 C   0  0  0  0  0  0  0  0  0  0  0  0
  139.1475   67.3538  224.9825 H   0  0  0  0  0  0  0  0  0  0  0  0
  139.7420   67.5400  227.0600 C   0  0  0  0  0  0  0  0  0  0  0  0
  139.4482   66.5106  227.3131 H   0  0  0  0  0  0  0  0  0  0  0  0
  140.2820   68.3740  228.0470 C   0  0  0  0  0  0  0  0  0  0  0  0
  140.4470   67.9080  229.3100 F   0  0  0  0  0  0  0  0  0  0  0  0
  140.6540   69.6860  227.7320 C   0  0  0  0  0  0  0  0  0  0  0  0
  141.0737   70.3410  228.5097 H   0  0  0  0  0  0  0  0  0  0  0  0
  140.4910   70.1650  226.4230 C   0  0  0  0  0  0  0  0  0  0  0  0
  140.8560   71.4700  226.0750 C   0  0  0  0  0  0  0  0  0  0  0  0
  141.2674   72.1488  226.8365 H   0  0  0  0  0  0  0  0  0  0  0  0
  140.6970   71.9090  224.7590 C   0  0  0  0  0  0  0  0  0  0  0  0
  140.9816   72.9346  224.4813 H   0  0  0  0  0  0  0  0  0  0  0  0
  1  2  1  0
  2  3  1  0
  3  4  2  0
  4  5  1  0
  5  6  1  0
  5  7  1  0
  5  8  1  0
  8  9  1  6
  8 10  1  0
 10 11  1  0
  8 12  1  0
 12 13  1  0
 12 14  1  0
 12 15  1  0
 15 16  1  1
 15 17  1  0
 17 18  2  0
 17 19  1  0
 19 20  1  0
 20 21  1  1
 20 22  1  0
 22 23  2  0
 23 24  1  0
 23 25  1  0
 25 26  1  0
 25 27  2  0
 27 28  1  0
 28 29  1  0
 29 30  1  0
 29 31  1  0
 29 32  1  0
 27 33  1  0
 33 34  1  0
 33 35  2  0
 35 36  1  0
 20 37  1  0
 37 38  1  0
 37 39  1  0
 37 40  1  0
  3 41  1  0
 41 42  1  0
 41 43  1  0
 41 44  1  0
 44 45  1  0
 44 46  1  0
 46 47  2  0
 46 48  1  0
 48 49  2  0
 49 50  1  0
 50 51  2  0
 51 52  1  0
 51 53  1  0
 53 54  1  0
 53 55  2  0
 55 56  1  0
 55 57  1  0
 57 58  1  0
 57 59  2  0
 59 60  1  0
 60 61  1  0
 60 62  2  0
 62 63  1  0
 15  4  1  0
 35 22  1  0
 62 48  1  0
 59 50  1  0
M  CHG  2   4   1  19  -1
M  END
>  <UniqueID>  (74) 
4

>  <SMILES>  (74) 
COc1ccc([C@H](C)[N-]C(=O)[C@@H]2C[C@@H](O)C/[N+]2=C(\O)CNC(=O)c2ccc3cc(F)ccc3n2)c(Cl)c1

>  <Energy>  (74) 
65.5536039589818

>  <Genealogy>  (74) 
COc1ccc([C@H](C)[N-]C(=O)[C@@H]2C[C@@H](O)C[NH+]2C(=O)CNC(=O)c2ccc3cc(F)ccc3n2)c(Cl)c1 (protonated)
COc1ccc([C@H](C)[N-]C(=O)[C@@H]2C[C@@H](O)C[N+]2=C(O)CNC(=O)c2ccc3cc(F)ccc3n2)c(Cl)c1 (tautomer)
COc1ccc([C@H](C)[N-]C(=O)[C@@H]2C[C@@H](O)C/[N+]2=C(\O)CNC(=O)c2ccc3cc(F)ccc3n2)c(Cl)c1 (cis-trans isomerization)
COc1ccc([C@H](C)[N-]C(=O)[C@@H]2C[C@@H](O)C/[N+]2=C(\O)CNC(=O)c2ccc3cc(F)ccc3n2)c(Cl)c1 (3D coordinates assigned)
COc1ccc([C@H](C)[N-]C(=O)[C@@H]2C[C@@H](O)C/[N+]2=C(\O)CNC(=O)c2ccc3cc(F)ccc3n2)c(Cl)c1 (nonaromatic ring conformer: 65.5536039589818 kcal/mol)

>  <smiles>  (74) 
COc1ccc([C@H](C)NC(=O)[C@@H]2C[C@@H](O)CN2C(=O)CNC(=O)c2ccc3cc(F)ccc3n2)c(Cl)c1

>  <score_type>  (74) 
oracle

>  <origin>  (74) 
autodockgpu

>  <m_score__min__energy>  (74) 
-8.1099999999999994

>  <m_primary>  (74) 
energy

>  <meeko>  (74) 
{"free_energy": -8.04, "intermolecular_energy": -11.32, "internal_energy": -3.17, "cluster_size": 6, "cluster_id": 1, "rank_in_cluster": 2}

>  <energy>  (74) 
-7.27

>  <cluster_rmsd>  (74) 
0.0

>  <rmsd>  (74) 
270.37

>  <cluster>  (74) 
8

$$$$
JFIDHXWBANSMLJ-LGGCBPRRNA-N
     RDKit          3D

 63 66  0  0  0  0  0  0  0  0999 V2000
  136.2130   73.8340  224.5970 H   0  0  0  0  0  0  0  0  0  0  0  0
  135.8670   74.1830  223.7110 O   0  0  0  0  0  0  0  0  0  0  0  0
  136.6770   74.3930  222.5880 C   0  0  0  0  0  0  0  0  0  0  0  0
  137.0310   75.6100  222.2280 N   0  0  0  0  0  0  0  0  0  0  0  0
  136.3110   76.8110  222.6430 C   0  0  0  0  0  0  0  0  0  0  0  0
  136.2314   76.8481  223.7395 H   0  0  0  0  0  0  0  0  0  0  0  0
  135.2881   76.8249  222.2388 H   0  0  0  0  0  0  0  0  0  0  0  0
  137.1280   77.9960  222.1310 C   0  0  2  0  0  0  0  0  0  0  0  0
  137.7071   78.4612  222.9423 H   0  0  0  0  0  0  0  0  0  0  0  0
  136.2990   79.0040  221.6130 O   0  0  0  0  0  0  0  0  0  0  0  0
  136.5980   79.1630  220.6790 H   0  0  0  0  0  0  0  0  0  0  0  0
  138.0270   77.4280  221.0380 C   0  0  0  0  0  0  0  0  0  0  0  0
  139.0155   77.9098  221.0653 H   0  0  0  0  0  0  0  0  0  0  0  0
  137.6097   77.6051  220.0357 H   0  0  0  0  0  0  0  0  0  0  0  0
  138.1530   75.9330  221.3420 C   0  0  1  0  0  0  0  0  0  0  0  0
  138.1256   75.3348  220.4193 H   0  0  0  0  0  0  0  0  0  0  0  0
  139.4670   75.6220  222.0070 C   0  0  0  0  0  0  0  0  0  0  0  0
  139.7410   74.4280  222.3110 O   0  0  0  0  0  0  0  0  0  0  0  0
  140.3840   76.6750  222.3250 N   0  0  0  0  0  0  0  0  0  0  0  0
  141.4390   77.1000  221.4090 C   0  0  2  0  0  0  0  0  0  0  0  0
  142.4151   76.8291  221.8377 H   0  0  0  0  0  0  0  0  0  0  0  0
  141.4130   78.6110  221.2360 C   0  0  0  0  0  0  0  0  0  0  0  0
  141.2410   79.1360  219.9450 C   0  0  0  0  0  0  0  0  0  0  0  0
  141.1069   78.4520  219.0940 H   0  0  0  0  0  0  0  0  0  0  0  0
  141.2380   80.5150  219.7280 C   0  0  0  0  0  0  0  0  0  0  0  0
  141.1009   80.9053  218.7087 H   0  0  0  0  0  0  0  0  0  0  0  0
  141.4070   81.4030  220.7900 C   0  0  0  0  0  0  0  0  0  0  0  0
  141.4080   82.7790  220.5160 O   0  0  0  0  0  0  0  0  0  0  0  0
  140.3680   83.6750  220.8950 C   0  0  0  0  0  0  0  0  0  0  0  0
  140.3093   83.7255  221.9923 H   0  0  0  0  0  0  0  0  0  0  0  0
  140.5819   84.6762  220.4927 H   0  0  0  0  0  0  0  0  0  0  0  0
  139.4094   83.3153  220.4927 H   0  0  0  0  0  0  0  0  0  0  0  0
  141.5750   80.8920  222.0890 C   0  0  0  0  0  0  0  0  0  0  0  0
  141.7070   81.5845  222.9334 H   0  0  0  0  0  0  0  0  0  0  0  0
  141.5760   79.5110  222.3190 C   0  0  0  0  0  0  0  0  0  0  0  0
  141.7980   78.9720  223.9810 Cl  0  0  0  0  0  0  0  0  0  0  0  0
  141.3050   76.3780  220.0700 C   0  0  0  0  0  0  0  0  0  0  0  0
  141.1069   75.3106  220.2472 H   0  0  0  0  0  0  0  0  0  0  0  0
  140.4727   76.8156  219.4992 H   0  0  0  0  0  0  0  0  0  0  0  0
  142.2389   76.4878  219.4992 H   0  0  0  0  0  0  0  0  0  0  0  0
  137.1730   73.1700  221.8500 C   0  0  0  0  0  0  0  0  0  0  0  0
  136.3092   72.5703  221.5272 H   0  0  0  0  0  0  0  0  0  0  0  0
  137.7605   73.5008  220.9809 H   0  0  0  0  0  0  0  0  0  0  0  0
  138.0310   72.3500  222.7060 N   0  0  0  0  0  0  0  0  0  0  0  0
  138.6580   72.8470  223.3790 H   0  0  0  0  0  0  0  0  0  0  0  0
  137.8320   70.9350  222.8570 C   0  0  0  0  0  0  0  0  0  0  0  0
  137.0390   70.3280  222.0890 O   0  0  0  0  0  0  0  0  0  0  0  0
  138.5400   70.1870  223.9190 C   0  0  0  0  0  0  0  0  0  0  0  0
  139.1700   70.8670  224.9170 N   0  0  0  0  0  0  0  0  0  0  0  0
  139.8050   70.2340  225.9390 C   0  0  0  0  0  0  0  0  0  0  0  0
  140.4320   70.9770  226.9450 C   0  0  0  0  0  0  0  0  0  0  0  0
  140.4281   72.0761  226.9011 H   0  0  0  0  0  0  0  0  0  0  0  0
  141.0640   70.3210  228.0070 C   0  0  0  0  0  0  0  0  0  0  0  0
  141.5548   70.9064  228.7985 H   0  0  0  0  0  0  0  0  0  0  0  0
  141.0740   68.9220  228.0660 C   0  0  0  0  0  0  0  0  0  0  0  0
  141.6820   68.2930  229.1030 F   0  0  0  0  0  0  0  0  0  0  0  0
  140.4560   68.1710  227.0600 C   0  0  0  0  0  0  0  0  0  0  0  0
  140.4693   67.0720  227.1061 H   0  0  0  0  0  0  0  0  0  0  0  0
  139.8190   68.8220  225.9920 C   0  0  0  0  0  0  0  0  0  0  0  0
  139.1880   68.1010  224.9720 C   0  0  0  0  0  0  0  0  0  0  0  0
  139.1968   67.0011  224.9877 H   0  0  0  0  0  0  0  0  0  0  0  0
  138.5470   68.7810  223.9340 C   0  0  0  0  0  0  0  0  0  0  0  0
  138.0491   68.2183  223.1306 H   0  0  0  0  0  0  0  0  0  0  0  0
  1  2  1  0
  2  3  1  0
  3  4  2  0
  4  5  1  0
  5  6  1  0
  5  7  1  0
  5  8  1  0
  8  9  1  1
  8 10  1  0
 10 11  1  0
  8 12  1  0
 12 13  1  0
 12 14  1  0
 12 15  1  0
 15 16  1  6
 15 17  1  0
 17 18  2  0
 17 19  1  0
 19 20  1  0
 20 21  1  1
 20 22  1  0
 22 23  2  0
 23 24  1  0
 23 25  1  0
 25 26  1  0
 25 27  2  0
 27 28  1  0
 28 29  1  0
 29 30  1  0
 29 31  1  0
 29 32  1  0
 27 33  1  0
 33 34  1  0
 33 35  2  0
 35 36  1  0
 20 37  1  0
 37 38  1  0
 37 39  1  0
 37 40  1  0
  3 41  1  0
 41 42  1  0
 41 43  1  0
 41 44  1  0
 44 45  1  0
 44 46  1  0
 46 47  2  0
 46 48  1  0
 48 49  2  0
 49 50  1  0
 50 51  2  0
 51 52  1  0
 51 53  1  0
 53 54  1  0
 53 55  2  0
 55 56  1  0
 55 57  1  0
 57 58  1  0
 57 59  2  0
 59 60  1  0
 60 61  1  0
 60 62  2  0
 62 63  1  0
 15  4  1  0
 35 22  1  0
 62 48  1  0
 59 50  1  0
M  CHG  2   4   1  19  -1
M  END
>  <UniqueID>  (75) 
4

>  <SMILES>  (75) 
COc1ccc([C@H](C)[N-]C(=O)[C@@H]2C[C@@H](O)C/[N+]2=C(\O)CNC(=O)c2ccc3cc(F)ccc3n2)c(Cl)c1

>  <Energy>  (75) 
65.5536039589818

>  <Genealogy>  (75) 
COc1ccc([C@H](C)[N-]C(=O)[C@@H]2C[C@@H](O)C[NH+]2C(=O)CNC(=O)c2ccc3cc(F)ccc3n2)c(Cl)c1 (protonated)
COc1ccc([C@H](C)[N-]C(=O)[C@@H]2C[C@@H](O)C[N+]2=C(O)CNC(=O)c2ccc3cc(F)ccc3n2)c(Cl)c1 (tautomer)
COc1ccc([C@H](C)[N-]C(=O)[C@@H]2C[C@@H](O)C/[N+]2=C(\O)CNC(=O)c2ccc3cc(F)ccc3n2)c(Cl)c1 (cis-trans isomerization)
COc1ccc([C@H](C)[N-]C(=O)[C@@H]2C[C@@H](O)C/[N+]2=C(\O)CNC(=O)c2ccc3cc(F)ccc3n2)c(Cl)c1 (3D coordinates assigned)
COc1ccc([C@H](C)[N-]C(=O)[C@@H]2C[C@@H](O)C/[N+]2=C(\O)CNC(=O)c2ccc3cc(F)ccc3n2)c(Cl)c1 (nonaromatic ring conformer: 65.5536039589818 kcal/mol)

>  <smiles>  (75) 
COc1ccc([C@H](C)NC(=O)[C@@H]2C[C@@H](O)CN2C(=O)CNC(=O)c2ccc3cc(F)ccc3n2)c(Cl)c1

>  <score_type>  (75) 
oracle

>  <origin>  (75) 
autodockgpu

>  <m_score__min__energy>  (75) 
-8.1099999999999994

>  <m_primary>  (75) 
energy

>  <meeko>  (75) 
{"free_energy": -7.56, "intermolecular_energy": -10.84, "internal_energy": -2.8, "cluster_size": 1, "cluster_id": 4, "rank_in_cluster": 1}

>  <energy>  (75) 
-7.22

>  <cluster_rmsd>  (75) 
0.0

>  <rmsd>  (75) 
269.75

>  <cluster>  (75) 
9

$$$$
JFIDHXWBANSMLJ-LGGCBPRRNA-N
     RDKit          3D

 63 66  0  0  0  0  0  0  0  0999 V2000
  135.9820   74.6540  219.2140 H   0  0  0  0  0  0  0  0  0  0  0  0
  136.6760   73.9190  219.2730 O   0  0  0  0  0  0  0  0  0  0  0  0
  137.7190   73.9060  220.2080 C   0  0  0  0  0  0  0  0  0  0  0  0
  138.9780   73.9420  219.8180 N   0  0  0  0  0  0  0  0  0  0  0  0
  139.4500   74.7630  218.7070 C   0  0  0  0  0  0  0  0  0  0  0  0
  139.1677   75.8146  218.8631 H   0  0  0  0  0  0  0  0  0  0  0  0
  139.0051   74.4418  217.7537 H   0  0  0  0  0  0  0  0  0  0  0  0
  140.9710   74.6200  218.6880 C   0  0  2  0  0  0  0  0  0  0  0  0
  141.4603   75.5060  219.1188 H   0  0  0  0  0  0  0  0  0  0  0  0
  141.4580   74.5020  217.3760 O   0  0  0  0  0  0  0  0  0  0  0  0
  140.7840   74.9330  216.7860 H   0  0  0  0  0  0  0  0  0  0  0  0
  141.2700   73.3550  219.4860 C   0  0  0  0  0  0  0  0  0  0  0  0
  142.1867   73.4840  220.0801 H   0  0  0  0  0  0  0  0  0  0  0  0
  141.4312   72.4885  218.8279 H   0  0  0  0  0  0  0  0  0  0  0  0
  140.0640   73.1500  220.4040 C   0  0  1  0  0  0  0  0  0  0  0  0
  139.7959   72.0858  220.4782 H   0  0  0  0  0  0  0  0  0  0  0  0
  140.3630   73.6080  221.8070 C   0  0  0  0  0  0  0  0  0  0  0  0
  140.4830   74.8410  222.0440 O   0  0  0  0  0  0  0  0  0  0  0  0
  140.5430   72.6500  222.8570 N   0  0  0  0  0  0  0  0  0  0  0  0
  139.5910   71.5710  223.1060 C   0  0  2  0  0  0  0  0  0  0  0  0
  138.5692   71.9726  223.0373 H   0  0  0  0  0  0  0  0  0  0  0  0
  139.7760   71.0160  224.5090 C   0  0  0  0  0  0  0  0  0  0  0  0
  140.8240   71.5180  225.2980 C   0  0  0  0  0  0  0  0  0  0  0  0
  141.4718   72.3123  224.8987 H   0  0  0  0  0  0  0  0  0  0  0  0
  141.0540   71.0220  226.5820 C   0  0  0  0  0  0  0  0  0  0  0  0
  141.8808   71.4290  227.1826 H   0  0  0  0  0  0  0  0  0  0  0  0
  140.2460   70.0150  227.1120 C   0  0  0  0  0  0  0  0  0  0  0  0
  140.5270   69.5450  228.4040 O   0  0  0  0  0  0  0  0  0  0  0  0
  141.0560   68.2540  228.6930 C   0  0  0  0  0  0  0  0  0  0  0  0
  141.1124   68.1164  229.7829 H   0  0  0  0  0  0  0  0  0  0  0  0
  140.4009   67.4839  228.2596 H   0  0  0  0  0  0  0  0  0  0  0  0
  142.0631   68.1650  228.2596 H   0  0  0  0  0  0  0  0  0  0  0  0
  139.1890   69.5070  226.3370 C   0  0  0  0  0  0  0  0  0  0  0  0
  138.5447   68.7152  226.7470 H   0  0  0  0  0  0  0  0  0  0  0  0
  138.9480   69.9990  225.0480 C   0  0  0  0  0  0  0  0  0  0  0  0
  137.6030   69.2940  224.1560 Cl  0  0  0  0  0  0  0  0  0  0  0  0
  139.7310   70.4810  222.0460 C   0  0  0  0  0  0  0  0  0  0  0  0
  139.8563   69.5051  222.5379 H   0  0  0  0  0  0  0  0  0  0  0  0
  138.8279   70.4619  221.4182 H   0  0  0  0  0  0  0  0  0  0  0  0
  140.6096   70.6907  221.4182 H   0  0  0  0  0  0  0  0  0  0  0  0
  137.3410   73.9110  221.6730 C   0  0  0  0  0  0  0  0  0  0  0  0
  136.2450   73.8795  221.7615 H   0  0  0  0  0  0  0  0  0  0  0  0
  137.7929   73.0308  222.1537 H   0  0  0  0  0  0  0  0  0  0  0  0
  137.8400   75.1130  222.3410 N   0  0  0  0  0  0  0  0  0  0  0  0
  138.5760   74.9890  223.0720 H   0  0  0  0  0  0  0  0  0  0  0  0
  137.5770   76.4330  221.8380 C   0  0  0  0  0  0  0  0  0  0  0  0
  136.7310   76.5960  220.9190 O   0  0  0  0  0  0  0  0  0  0  0  0
  138.3050   77.6020  222.3800 C   0  0  0  0  0  0  0  0  0  0  0  0
  139.6650   77.5780  222.4440 N   0  0  0  0  0  0  0  0  0  0  0  0
  140.3890   78.6360  222.8970 C   0  0  0  0  0  0  0  0  0  0  0  0
  141.7860   78.5660  222.9370 C   0  0  0  0  0  0  0  0  0  0  0  0
  142.3003   77.6472  222.6187 H   0  0  0  0  0  0  0  0  0  0  0  0
  142.5280   79.6650  223.3820 C   0  0  0  0  0  0  0  0  0  0  0  0
  143.6262   79.6095  223.4106 H   0  0  0  0  0  0  0  0  0  0  0  0
  141.8780   80.8350  223.7910 C   0  0  0  0  0  0  0  0  0  0  0  0
  142.6040   81.9000  224.2150 F   0  0  0  0  0  0  0  0  0  0  0  0
  140.4810   80.9110  223.7610 C   0  0  0  0  0  0  0  0  0  0  0  0
  139.9724   81.8304  224.0867 H   0  0  0  0  0  0  0  0  0  0  0  0
  139.7300   79.8130  223.3150 C   0  0  0  0  0  0  0  0  0  0  0  0
  138.3320   79.8570  223.2690 C   0  0  0  0  0  0  0  0  0  0  0  0
  137.7981   80.7599  223.6002 H   0  0  0  0  0  0  0  0  0  0  0  0
  137.6160   78.7530  222.8020 C   0  0  0  0  0  0  0  0  0  0  0  0
  136.5171   78.7835  222.7643 H   0  0  0  0  0  0  0  0  0  0  0  0
  1  2  1  0
  2  3  1  0
  3  4  2  0
  4  5  1  0
  5  6  1  0
  5  7  1  0
  5  8  1  0
  8  9  1  1
  8 10  1  0
 10 11  1  0
  8 12  1  0
 12 13  1  0
 12 14  1  0
 12 15  1  0
 15 16  1  1
 15 17  1  0
 17 18  2  0
 17 19  1  0
 19 20  1  0
 20 21  1  1
 20 22  1  0
 22 23  2  0
 23 24  1  0
 23 25  1  0
 25 26  1  0
 25 27  2  0
 27 28  1  0
 28 29  1  0
 29 30  1  0
 29 31  1  0
 29 32  1  0
 27 33  1  0
 33 34  1  0
 33 35  2  0
 35 36  1  0
 20 37  1  0
 37 38  1  0
 37 39  1  0
 37 40  1  0
  3 41  1  0
 41 42  1  0
 41 43  1  0
 41 44  1  0
 44 45  1  0
 44 46  1  0
 46 47  2  0
 46 48  1  0
 48 49  2  0
 49 50  1  0
 50 51  2  0
 51 52  1  0
 51 53  1  0
 53 54  1  0
 53 55  2  0
 55 56  1  0
 55 57  1  0
 57 58  1  0
 57 59  2  0
 59 60  1  0
 60 61  1  0
 60 62  2  0
 62 63  1  0
 15  4  1  0
 35 22  1  0
 62 48  1  0
 59 50  1  0
M  CHG  2   4   1  19  -1
M  END
>  <UniqueID>  (76) 
4

>  <SMILES>  (76) 
COc1ccc([C@H](C)[N-]C(=O)[C@@H]2C[C@@H](O)C/[N+]2=C(\O)CNC(=O)c2ccc3cc(F)ccc3n2)c(Cl)c1

>  <Energy>  (76) 
65.5536039589818

>  <Genealogy>  (76) 
COc1ccc([C@H](C)[N-]C(=O)[C@@H]2C[C@@H](O)C[NH+]2C(=O)CNC(=O)c2ccc3cc(F)ccc3n2)c(Cl)c1 (protonated)
COc1ccc([C@H](C)[N-]C(=O)[C@@H]2C[C@@H](O)C[N+]2=C(O)CNC(=O)c2ccc3cc(F)ccc3n2)c(Cl)c1 (tautomer)
COc1ccc([C@H](C)[N-]C(=O)[C@@H]2C[C@@H](O)C/[N+]2=C(\O)CNC(=O)c2ccc3cc(F)ccc3n2)c(Cl)c1 (cis-trans isomerization)
COc1ccc([C@H](C)[N-]C(=O)[C@@H]2C[C@@H](O)C/[N+]2=C(\O)CNC(=O)c2ccc3cc(F)ccc3n2)c(Cl)c1 (3D coordinates assigned)
COc1ccc([C@H](C)[N-]C(=O)[C@@H]2C[C@@H](O)C/[N+]2=C(\O)CNC(=O)c2ccc3cc(F)ccc3n2)c(Cl)c1 (nonaromatic ring conformer: 65.5536039589818 kcal/mol)

>  <smiles>  (76) 
COc1ccc([C@H](C)NC(=O)[C@@H]2C[C@@H](O)CN2C(=O)CNC(=O)c2ccc3cc(F)ccc3n2)c(Cl)c1

>  <score_type>  (76) 
oracle

>  <origin>  (76) 
autodockgpu

>  <m_score__min__energy>  (76) 
-8.1099999999999994

>  <m_primary>  (76) 
energy

>  <meeko>  (76) 
{"free_energy": -7.22, "intermolecular_energy": -10.5, "internal_energy": -3.03, "cluster_size": 1, "cluster_id": 9, "rank_in_cluster": 1}

>  <energy>  (76) 
-7.18

>  <cluster_rmsd>  (76) 
0.0

>  <rmsd>  (76) 
269.02

>  <cluster>  (76) 
10

$$$$
JFIDHXWBANSMLJ-LGGCBPRRNA-N
     RDKit          3D

 63 66  0  0  0  0  0  0  0  0999 V2000
  136.7140   75.9250  221.3810 H   0  0  0  0  0  0  0  0  0  0  0  0
  137.0820   75.2830  220.6890 O   0  0  0  0  0  0  0  0  0  0  0  0
  138.4170   74.8610  220.6520 C   0  0  0  0  0  0  0  0  0  0  0  0
  139.4000   75.7010  220.9070 N   0  0  0  0  0  0  0  0  0  0  0  0
  140.3120   76.2030  219.8830 C   0  0  0  0  0  0  0  0  0  0  0  0
  139.7454   76.6647  219.0609 H   0  0  0  0  0  0  0  0  0  0  0  0
  140.9153   75.3911  219.4507 H   0  0  0  0  0  0  0  0  0  0  0  0
  141.1920   77.2450  220.5700 C   0  0  2  0  0  0  0  0  0  0  0  0
  140.8717   78.2666  220.3175 H   0  0  0  0  0  0  0  0  0  0  0  0
  142.5290   77.1400  220.1550 O   0  0  0  0  0  0  0  0  0  0  0  0
  143.0790   77.5670  220.8640 H   0  0  0  0  0  0  0  0  0  0  0  0
  141.0700   76.9590  222.0630 C   0  0  0  0  0  0  0  0  0  0  0  0
  141.0613   77.8990  222.6342 H   0  0  0  0  0  0  0  0  0  0  0  0
  141.9182   76.3644  222.4333 H   0  0  0  0  0  0  0  0  0  0  0  0
  139.7430   76.2180  222.2350 C   0  0  1  0  0  0  0  0  0  0  0  0
  139.8316   75.4086  222.9746 H   0  0  0  0  0  0  0  0  0  0  0  0
  138.6670   77.1380  222.7460 C   0  0  0  0  0  0  0  0  0  0  0  0
  137.4560   76.8550  222.5310 O   0  0  0  0  0  0  0  0  0  0  0  0
  139.0140   78.3420  223.4390 N   0  0  0  0  0  0  0  0  0  0  0  0
  138.6870   79.6680  222.9220 C   0  0  2  0  0  0  0  0  0  0  0  0
  137.7090   79.6246  222.4203 H   0  0  0  0  0  0  0  0  0  0  0  0
  139.7160   80.1030  221.8910 C   0  0  0  0  0  0  0  0  0  0  0  0
  139.2850   80.3560  220.5780 C   0  0  0  0  0  0  0  0  0  0  0  0
  138.2185   80.2567  220.3276 H   0  0  0  0  0  0  0  0  0  0  0  0
  140.1940   80.7320  219.5870 C   0  0  0  0  0  0  0  0  0  0  0  0
  139.8358   80.9254  218.5651 H   0  0  0  0  0  0  0  0  0  0  0  0
  141.5510   80.8650  219.8790 C   0  0  0  0  0  0  0  0  0  0  0  0
  142.4230   81.2340  218.8440 O   0  0  0  0  0  0  0  0  0  0  0  0
  142.5910   80.5020  217.6340 C   0  0  0  0  0  0  0  0  0  0  0  0
  142.8314   79.4547  217.8694 H   0  0  0  0  0  0  0  0  0  0  0  0
  141.6603   80.5420  217.0490 H   0  0  0  0  0  0  0  0  0  0  0  0
  143.4111   80.9438  217.0490 H   0  0  0  0  0  0  0  0  0  0  0  0
  141.9960   80.6210  221.1900 C   0  0  0  0  0  0  0  0  0  0  0  0
  143.0643   80.7258  221.4304 H   0  0  0  0  0  0  0  0  0  0  0  0
  141.0940   80.2460  222.1930 C   0  0  0  0  0  0  0  0  0  0  0  0
  141.7510   79.9590  223.8010 Cl  0  0  0  0  0  0  0  0  0  0  0  0
  138.5760   80.6740  224.0660 C   0  0  0  0  0  0  0  0  0  0  0  0
  138.6345   80.1434  225.0278 H   0  0  0  0  0  0  0  0  0  0  0  0
  139.3995   81.4000  223.9970 H   0  0  0  0  0  0  0  0  0  0  0  0
  137.6140   81.2030  223.9970 H   0  0  0  0  0  0  0  0  0  0  0  0
  138.6760   73.3980  220.3690 C   0  0  0  0  0  0  0  0  0  0  0  0
  137.9018   73.0220  219.6840 H   0  0  0  0  0  0  0  0  0  0  0  0
  139.6735   73.3010  219.9155 H   0  0  0  0  0  0  0  0  0  0  0  0
  138.6470   72.6100  221.6020 N   0  0  0  0  0  0  0  0  0  0  0  0
  137.8830   71.9040  221.7060 H   0  0  0  0  0  0  0  0  0  0  0  0
  139.7610   72.5660  222.5080 C   0  0  0  0  0  0  0  0  0  0  0  0
  140.7160   73.3740  222.3660 O   0  0  0  0  0  0  0  0  0  0  0  0
  139.8020   71.5670  223.5990 C   0  0  0  0  0  0  0  0  0  0  0  0
  140.3890   71.8880  224.7850 N   0  0  0  0  0  0  0  0  0  0  0  0
  140.4250   71.0250  225.8350 C   0  0  0  0  0  0  0  0  0  0  0  0
  141.0340   71.4030  227.0360 C   0  0  0  0  0  0  0  0  0  0  0  0
  141.5020   72.3943  227.1271 H   0  0  0  0  0  0  0  0  0  0  0  0
  141.0480   70.5210  228.1210 C   0  0  0  0  0  0  0  0  0  0  0  0
  141.5261   70.8207  229.0652 H   0  0  0  0  0  0  0  0  0  0  0  0
  140.4550   69.2570  228.0090 C   0  0  0  0  0  0  0  0  0  0  0  0
  140.4660   68.4090  229.0680 F   0  0  0  0  0  0  0  0  0  0  0  0
  139.8510   68.8670  226.8090 C   0  0  0  0  0  0  0  0  0  0  0  0
  139.3915   67.8714  226.7219 H   0  0  0  0  0  0  0  0  0  0  0  0
  139.8320   69.7480  225.7160 C   0  0  0  0  0  0  0  0  0  0  0  0
  139.2320   69.3910  224.5040 C   0  0  0  0  0  0  0  0  0  0  0  0
  138.7740   68.3978  224.3868 H   0  0  0  0  0  0  0  0  0  0  0  0
  139.2160   70.2990  223.4430 C   0  0  0  0  0  0  0  0  0  0  0  0
  138.7460   70.0225  222.4877 H   0  0  0  0  0  0  0  0  0  0  0  0
  1  2  1  0
  2  3  1  0
  3  4  2  0
  4  5  1  0
  5  6  1  0
  5  7  1  0
  5  8  1  0
  8  9  1  1
  8 10  1  0
 10 11  1  0
  8 12  1  0
 12 13  1  0
 12 14  1  0
 12 15  1  0
 15 16  1  1
 15 17  1  0
 17 18  2  0
 17 19  1  0
 19 20  1  0
 20 21  1  6
 20 22  1  0
 22 23  2  0
 23 24  1  0
 23 25  1  0
 25 26  1  0
 25 27  2  0
 27 28  1  0
 28 29  1  0
 29 30  1  0
 29 31  1  0
 29 32  1  0
 27 33  1  0
 33 34  1  0
 33 35  2  0
 35 36  1  0
 20 37  1  0
 37 38  1  0
 37 39  1  0
 37 40  1  0
  3 41  1  0
 41 42  1  0
 41 43  1  0
 41 44  1  0
 44 45  1  0
 44 46  1  0
 46 47  2  0
 46 48  1  0
 48 49  2  0
 49 50  1  0
 50 51  2  0
 51 52  1  0
 51 53  1  0
 53 54  1  0
 53 55  2  0
 55 56  1  0
 55 57  1  0
 57 58  1  0
 57 59  2  0
 59 60  1  0
 60 61  1  0
 60 62  2  0
 62 63  1  0
 15  4  1  0
 35 22  1  0
 62 48  1  0
 59 50  1  0
M  CHG  2   4   1  19  -1
M  END
>  <UniqueID>  (77) 
4

>  <SMILES>  (77) 
COc1ccc([C@H](C)[N-]C(=O)[C@@H]2C[C@@H](O)C/[N+]2=C(\O)CNC(=O)c2ccc3cc(F)ccc3n2)c(Cl)c1

>  <Energy>  (77) 
65.5536039589818

>  <Genealogy>  (77) 
COc1ccc([C@H](C)[N-]C(=O)[C@@H]2C[C@@H](O)C[NH+]2C(=O)CNC(=O)c2ccc3cc(F)ccc3n2)c(Cl)c1 (protonated)
COc1ccc([C@H](C)[N-]C(=O)[C@@H]2C[C@@H](O)C[N+]2=C(O)CNC(=O)c2ccc3cc(F)ccc3n2)c(Cl)c1 (tautomer)
COc1ccc([C@H](C)[N-]C(=O)[C@@H]2C[C@@H](O)C/[N+]2=C(\O)CNC(=O)c2ccc3cc(F)ccc3n2)c(Cl)c1 (cis-trans isomerization)
COc1ccc([C@H](C)[N-]C(=O)[C@@H]2C[C@@H](O)C/[N+]2=C(\O)CNC(=O)c2ccc3cc(F)ccc3n2)c(Cl)c1 (3D coordinates assigned)
COc1ccc([C@H](C)[N-]C(=O)[C@@H]2C[C@@H](O)C/[N+]2=C(\O)CNC(=O)c2ccc3cc(F)ccc3n2)c(Cl)c1 (nonaromatic ring conformer: 65.5536039589818 kcal/mol)

>  <smiles>  (77) 
COc1ccc([C@H](C)NC(=O)[C@@H]2C[C@@H](O)CN2C(=O)CNC(=O)c2ccc3cc(F)ccc3n2)c(Cl)c1

>  <score_type>  (77) 
oracle

>  <origin>  (77) 
autodockgpu

>  <m_score__min__energy>  (77) 
-8.1099999999999994

>  <m_primary>  (77) 
energy

>  <meeko>  (77) 
{"free_energy": -7.41, "intermolecular_energy": -10.69, "internal_energy": -3.13, "cluster_size": 1, "cluster_id": 7, "rank_in_cluster": 1}

>  <energy>  (77) 
-7.14

>  <cluster_rmsd>  (77) 
0.0

>  <rmsd>  (77) 
269.19

>  <cluster>  (77) 
11

$$$$
JFIDHXWBANSMLJ-LGGCBPRRNA-N
     RDKit          3D

 63 66  0  0  0  0  0  0  0  0999 V2000
  139.2840   73.9950  222.7230 H   0  0  0  0  0  0  0  0  0  0  0  0
  140.0550   74.3810  222.1910 O   0  0  0  0  0  0  0  0  0  0  0  0
  140.6800   73.7110  221.1310 C   0  0  0  0  0  0  0  0  0  0  0  0
  141.8220   74.1450  220.6360 N   0  0  0  0  0  0  0  0  0  0  0  0
  142.9320   73.2630  220.2860 C   0  0  0  0  0  0  0  0  0  0  0  0
  142.5941   72.4838  219.5869 H   0  0  0  0  0  0  0  0  0  0  0  0
  143.3355   72.7547  221.1742 H   0  0  0  0  0  0  0  0  0  0  0  0
  143.9860   74.1470  219.6240 C   0  0  2  0  0  0  0  0  0  0  0  0
  143.9773   74.0263  218.5307 H   0  0  0  0  0  0  0  0  0  0  0  0
  145.2810   73.8040  220.0460 O   0  0  0  0  0  0  0  0  0  0  0  0
  145.9080   74.3470  219.4980 H   0  0  0  0  0  0  0  0  0  0  0  0
  143.6450   75.5730  220.0450 C   0  0  0  0  0  0  0  0  0  0  0  0
  143.8310   76.2725  219.2167 H   0  0  0  0  0  0  0  0  0  0  0  0
  144.2627   75.9055  220.8923 H   0  0  0  0  0  0  0  0  0  0  0  0
  142.1580   75.5530  220.4030 C   0  0  1  0  0  0  0  0  0  0  0  0
  141.9537   76.1705  221.2901 H   0  0  0  0  0  0  0  0  0  0  0  0
  141.3220   76.1250  219.2890 C   0  0  0  0  0  0  0  0  0  0  0  0
  141.8720   76.4360  218.1980 O   0  0  0  0  0  0  0  0  0  0  0  0
  139.9190   76.3460  219.4790 N   0  0  0  0  0  0  0  0  0  0  0  0
  139.3750   77.6400  219.8790 C   0  0  2  0  0  0  0  0  0  0  0  0
  139.2677   78.2741  218.9866 H   0  0  0  0  0  0  0  0  0  0  0  0
  140.3280   78.3420  220.8340 C   0  0  0  0  0  0  0  0  0  0  0  0
  140.2770   78.0120  222.1980 C   0  0  0  0  0  0  0  0  0  0  0  0
  139.5710   77.2428  222.5442 H   0  0  0  0  0  0  0  0  0  0  0  0
  141.1100   78.6470  223.1200 C   0  0  0  0  0  0  0  0  0  0  0  0
  141.0534   78.3731  224.1838 H   0  0  0  0  0  0  0  0  0  0  0  0
  142.0140   79.6260  222.7060 C   0  0  0  0  0  0  0  0  0  0  0  0
  142.8210   80.2420  223.6750 O   0  0  0  0  0  0  0  0  0  0  0  0
  142.5650   81.5250  224.2370 C   0  0  0  0  0  0  0  0  0  0  0  0
  142.5792   81.4540  225.3346 H   0  0  0  0  0  0  0  0  0  0  0  0
  143.3398   82.2318  223.9053 H   0  0  0  0  0  0  0  0  0  0  0  0
  141.5782   81.8804  223.9053 H   0  0  0  0  0  0  0  0  0  0  0  0
  142.0810   79.9630  221.3430 C   0  0  0  0  0  0  0  0  0  0  0  0
  142.7925   80.7317  221.0071 H   0  0  0  0  0  0  0  0  0  0  0  0
  141.2520   79.3310  220.4080 C   0  0  0  0  0  0  0  0  0  0  0  0
  141.4090   79.8270  218.7260 Cl  0  0  0  0  0  0  0  0  0  0  0  0
  137.9880   77.4680  220.4940 C   0  0  0  0  0  0  0  0  0  0  0  0
  138.0695   77.4781  221.5909 H   0  0  0  0  0  0  0  0  0  0  0  0
  137.3371   78.2923  220.1671 H   0  0  0  0  0  0  0  0  0  0  0  0
  137.5582   76.5097  220.1671 H   0  0  0  0  0  0  0  0  0  0  0  0
  140.0250   72.4460  220.6250 C   0  0  0  0  0  0  0  0  0  0  0  0
  138.9750   72.6599  220.3765 H   0  0  0  0  0  0  0  0  0  0  0  0
  140.5711   72.1023  219.7342 H   0  0  0  0  0  0  0  0  0  0  0  0
  140.0710   71.3880  221.6350 N   0  0  0  0  0  0  0  0  0  0  0  0
  140.8950   70.7450  221.6230 H   0  0  0  0  0  0  0  0  0  0  0  0
  139.2070   71.3880  222.7830 C   0  0  0  0  0  0  0  0  0  0  0  0
  138.2400   72.1940  222.8390 O   0  0  0  0  0  0  0  0  0  0  0  0
  139.4540   70.4600  223.9080 C   0  0  0  0  0  0  0  0  0  0  0  0
  140.1040   70.9050  225.0190 N   0  0  0  0  0  0  0  0  0  0  0  0
  140.3260   70.1090  226.0990 C   0  0  0  0  0  0  0  0  0  0  0  0
  140.9930   70.6140  227.2200 C   0  0  0  0  0  0  0  0  0  0  0  0
  141.3560   71.6524  227.2229 H   0  0  0  0  0  0  0  0  0  0  0  0
  141.1980   69.7980  228.3370 C   0  0  0  0  0  0  0  0  0  0  0  0
  141.7197   70.1977  229.2191 H   0  0  0  0  0  0  0  0  0  0  0  0
  140.7420   68.4750  228.3370 C   0  0  0  0  0  0  0  0  0  0  0  0
  140.9390   67.6910  229.4270 F   0  0  0  0  0  0  0  0  0  0  0  0
  140.0810   67.9590  227.2170 C   0  0  0  0  0  0  0  0  0  0  0  0
  139.7270   66.9175  227.2179 H   0  0  0  0  0  0  0  0  0  0  0  0
  139.8700   68.7720  226.0920 C   0  0  0  0  0  0  0  0  0  0  0  0
  139.2100   68.2880  224.9580 C   0  0  0  0  0  0  0  0  0  0  0  0
  138.8572   67.2466  224.9279 H   0  0  0  0  0  0  0  0  0  0  0  0
  139.0000   69.1300  223.8640 C   0  0  0  0  0  0  0  0  0  0  0  0
  138.4808   68.7538  222.9702 H   0  0  0  0  0  0  0  0  0  0  0  0
  1  2  1  0
  2  3  1  0
  3  4  2  0
  4  5  1  0
  5  6  1  0
  5  7  1  0
  5  8  1  0
  8  9  1  6
  8 10  1  0
 10 11  1  0
  8 12  1  0
 12 13  1  0
 12 14  1  0
 12 15  1  0
 15 16  1  1
 15 17  1  0
 17 18  2  0
 17 19  1  0
 19 20  1  0
 20 21  1  6
 20 22  1  0
 22 23  2  0
 23 24  1  0
 23 25  1  0
 25 26  1  0
 25 27  2  0
 27 28  1  0
 28 29  1  0
 29 30  1  0
 29 31  1  0
 29 32  1  0
 27 33  1  0
 33 34  1  0
 33 35  2  0
 35 36  1  0
 20 37  1  0
 37 38  1  0
 37 39  1  0
 37 40  1  0
  3 41  1  0
 41 42  1  0
 41 43  1  0
 41 44  1  0
 44 45  1  0
 44 46  1  0
 46 47  2  0
 46 48  1  0
 48 49  2  0
 49 50  1  0
 50 51  2  0
 51 52  1  0
 51 53  1  0
 53 54  1  0
 53 55  2  0
 55 56  1  0
 55 57  1  0
 57 58  1  0
 57 59  2  0
 59 60  1  0
 60 61  1  0
 60 62  2  0
 62 63  1  0
 15  4  1  0
 35 22  1  0
 62 48  1  0
 59 50  1  0
M  CHG  2   4   1  19  -1
M  END
>  <UniqueID>  (78) 
4

>  <SMILES>  (78) 
COc1ccc([C@H](C)[N-]C(=O)[C@@H]2C[C@@H](O)C/[N+]2=C(\O)CNC(=O)c2ccc3cc(F)ccc3n2)c(Cl)c1

>  <Energy>  (78) 
65.5536039589818

>  <Genealogy>  (78) 
COc1ccc([C@H](C)[N-]C(=O)[C@@H]2C[C@@H](O)C[NH+]2C(=O)CNC(=O)c2ccc3cc(F)ccc3n2)c(Cl)c1 (protonated)
COc1ccc([C@H](C)[N-]C(=O)[C@@H]2C[C@@H](O)C[N+]2=C(O)CNC(=O)c2ccc3cc(F)ccc3n2)c(Cl)c1 (tautomer)
COc1ccc([C@H](C)[N-]C(=O)[C@@H]2C[C@@H](O)C/[N+]2=C(\O)CNC(=O)c2ccc3cc(F)ccc3n2)c(Cl)c1 (cis-trans isomerization)
COc1ccc([C@H](C)[N-]C(=O)[C@@H]2C[C@@H](O)C/[N+]2=C(\O)CNC(=O)c2ccc3cc(F)ccc3n2)c(Cl)c1 (3D coordinates assigned)
COc1ccc([C@H](C)[N-]C(=O)[C@@H]2C[C@@H](O)C/[N+]2=C(\O)CNC(=O)c2ccc3cc(F)ccc3n2)c(Cl)c1 (nonaromatic ring conformer: 65.5536039589818 kcal/mol)

>  <smiles>  (78) 
COc1ccc([C@H](C)NC(=O)[C@@H]2C[C@@H](O)CN2C(=O)CNC(=O)c2ccc3cc(F)ccc3n2)c(Cl)c1

>  <score_type>  (78) 
oracle

>  <origin>  (78) 
autodockgpu

>  <m_score__min__energy>  (78) 
-8.1099999999999994

>  <m_primary>  (78) 
energy

>  <meeko>  (78) 
{"free_energy": -8.0, "intermolecular_energy": -11.28, "internal_energy": -2.84, "cluster_size": 1, "cluster_id": 2, "rank_in_cluster": 1}

>  <energy>  (78) 
-7.03

>  <cluster_rmsd>  (78) 
0.0

>  <rmsd>  (78) 
269.52

>  <cluster>  (78) 
12

$$$$
JFIDHXWBANSMLJ-LGGCBPRRNA-N
     RDKit          3D

 63 66  0  0  0  0  0  0  0  0999 V2000
  137.2750   78.3850  223.6630 H   0  0  0  0  0  0  0  0  0  0  0  0
  138.0860   78.1130  223.1200 O   0  0  0  0  0  0  0  0  0  0  0  0
  138.0210   77.3030  221.9780 C   0  0  0  0  0  0  0  0  0  0  0  0
  139.1080   76.7510  221.4770 N   0  0  0  0  0  0  0  0  0  0  0  0
  140.4270   77.3750  221.5420 C   0  0  0  0  0  0  0  0  0  0  0  0
  140.6829   77.6186  222.5837 H   0  0  0  0  0  0  0  0  0  0  0  0
  140.4555   78.3137  220.9693 H   0  0  0  0  0  0  0  0  0  0  0  0
  141.4100   76.3500  220.9810 C   0  0  2  0  0  0  0  0  0  0  0  0
  141.9689   75.8515  221.7867 H   0  0  0  0  0  0  0  0  0  0  0  0
  142.3700   76.9590  220.1570 O   0  0  0  0  0  0  0  0  0  0  0  0
  142.9820   77.4580  220.7590 H   0  0  0  0  0  0  0  0  0  0  0  0
  140.5620   75.3670  220.1810 C   0  0  0  0  0  0  0  0  0  0  0  0
  140.9485   74.3437  220.2973 H   0  0  0  0  0  0  0  0  0  0  0  0
  140.5785   75.5976  219.1056 H   0  0  0  0  0  0  0  0  0  0  0  0
  139.1500   75.4730  220.7600 C   0  0  1  0  0  0  0  0  0  0  0  0
  138.3896   75.4280  219.9664 H   0  0  0  0  0  0  0  0  0  0  0  0
  138.8550   74.3270  221.6910 C   0  0  0  0  0  0  0  0  0  0  0  0
  137.6560   74.0080  221.9210 O   0  0  0  0  0  0  0  0  0  0  0  0
  139.9250   73.6280  222.3370 N   0  0  0  0  0  0  0  0  0  0  0  0
  140.1310   72.1910  222.1790 C   0  0  2  0  0  0  0  0  0  0  0  0
  139.3901   71.8001  221.4661 H   0  0  0  0  0  0  0  0  0  0  0  0
  139.9190   71.4770  223.5050 C   0  0  0  0  0  0  0  0  0  0  0  0
  140.6960   71.8660  224.6090 C   0  0  0  0  0  0  0  0  0  0  0  0
  141.4210   72.6863  224.5013 H   0  0  0  0  0  0  0  0  0  0  0  0
  140.5590   71.2240  225.8410 C   0  0  0  0  0  0  0  0  0  0  0  0
  141.1761   71.5448  226.6933 H   0  0  0  0  0  0  0  0  0  0  0  0
  139.6480   70.1800  226.0030 C   0  0  0  0  0  0  0  0  0  0  0  0
  139.5590   69.5620  227.2600 O   0  0  0  0  0  0  0  0  0  0  0  0
  140.4480   68.5500  227.7230 C   0  0  0  0  0  0  0  0  0  0  0  0
  140.4544   68.5428  228.8230 H   0  0  0  0  0  0  0  0  0  0  0  0
  140.1133   67.5701  227.3518 H   0  0  0  0  0  0  0  0  0  0  0  0
  141.4629   68.7556  227.3518 H   0  0  0  0  0  0  0  0  0  0  0  0
  138.8600   69.7840  224.9090 C   0  0  0  0  0  0  0  0  0  0  0  0
  138.1365   68.9640  225.0280 H   0  0  0  0  0  0  0  0  0  0  0  0
  138.9860   70.4220  223.6690 C   0  0  0  0  0  0  0  0  0  0  0  0
  137.9570   69.8490  222.3600 Cl  0  0  0  0  0  0  0  0  0  0  0  0
  141.5180   71.9110  221.6050 C   0  0  0  0  0  0  0  0  0  0  0  0
  142.2332   71.7666  222.4282 H   0  0  0  0  0  0  0  0  0  0  0  0
  141.4823   71.0020  220.9866 H   0  0  0  0  0  0  0  0  0  0  0  0
  141.8377   72.7627  220.9866 H   0  0  0  0  0  0  0  0  0  0  0  0
  136.6530   77.0430  221.3870 C   0  0  0  0  0  0  0  0  0  0  0  0
  136.0543   77.9638  221.4477 H   0  0  0  0  0  0  0  0  0  0  0  0
  136.7780   76.7320  220.3393 H   0  0  0  0  0  0  0  0  0  0  0  0
  135.9620   75.9750  222.1100 N   0  0  0  0  0  0  0  0  0  0  0  0
  136.0260   75.0070  221.7210 H   0  0  0  0  0  0  0  0  0  0  0  0
  135.4650   76.1530  223.4470 C   0  0  0  0  0  0  0  0  0  0  0  0
  135.4300   77.3060  223.9540 O   0  0  0  0  0  0  0  0  0  0  0  0
  135.0100   74.9900  224.2400 C   0  0  0  0  0  0  0  0  0  0  0  0
  135.4240   73.7380  223.8990 N   0  0  0  0  0  0  0  0  0  0  0  0
  135.0690   72.6360  224.6120 C   0  0  0  0  0  0  0  0  0  0  0  0
  135.5260   71.3710  224.2260 C   0  0  0  0  0  0  0  0  0  0  0  0
  136.1594   71.2634  223.3331 H   0  0  0  0  0  0  0  0  0  0  0  0
  135.1770   70.2440  224.9760 C   0  0  0  0  0  0  0  0  0  0  0  0
  135.5386   69.2505  224.6725 H   0  0  0  0  0  0  0  0  0  0  0  0
  134.3690   70.3750  226.1120 C   0  0  0  0  0  0  0  0  0  0  0  0
  134.0400   69.2770  226.8380 F   0  0  0  0  0  0  0  0  0  0  0  0
  133.9010   71.6350  226.5000 C   0  0  0  0  0  0  0  0  0  0  0  0
  133.2618   71.7350  227.3896 H   0  0  0  0  0  0  0  0  0  0  0  0
  134.2480   72.7710  225.7530 C   0  0  0  0  0  0  0  0  0  0  0  0
  133.8000   74.0460  226.1170 C   0  0  0  0  0  0  0  0  0  0  0  0
  133.1502   74.1720  226.9956 H   0  0  0  0  0  0  0  0  0  0  0  0
  134.1800   75.1580  225.3620 C   0  0  0  0  0  0  0  0  0  0  0  0
  133.8308   76.1621  225.6445 H   0  0  0  0  0  0  0  0  0  0  0  0
  1  2  1  0
  2  3  1  0
  3  4  2  0
  4  5  1  0
  5  6  1  0
  5  7  1  0
  5  8  1  0
  8  9  1  1
  8 10  1  0
 10 11  1  0
  8 12  1  0
 12 13  1  0
 12 14  1  0
 12 15  1  0
 15 16  1  6
 15 17  1  0
 17 18  2  0
 17 19  1  0
 19 20  1  0
 20 21  1  6
 20 22  1  0
 22 23  2  0
 23 24  1  0
 23 25  1  0
 25 26  1  0
 25 27  2  0
 27 28  1  0
 28 29  1  0
 29 30  1  0
 29 31  1  0
 29 32  1  0
 27 33  1  0
 33 34  1  0
 33 35  2  0
 35 36  1  0
 20 37  1  0
 37 38  1  0
 37 39  1  0
 37 40  1  0
  3 41  1  0
 41 42  1  0
 41 43  1  0
 41 44  1  0
 44 45  1  0
 44 46  1  0
 46 47  2  0
 46 48  1  0
 48 49  2  0
 49 50  1  0
 50 51  2  0
 51 52  1  0
 51 53  1  0
 53 54  1  0
 53 55  2  0
 55 56  1  0
 55 57  1  0
 57 58  1  0
 57 59  2  0
 59 60  1  0
 60 61  1  0
 60 62  2  0
 62 63  1  0
 15  4  1  0
 35 22  1  0
 62 48  1  0
 59 50  1  0
M  CHG  2   4   1  19  -1
M  END
>  <UniqueID>  (79) 
4

>  <SMILES>  (79) 
COc1ccc([C@H](C)[N-]C(=O)[C@@H]2C[C@@H](O)C/[N+]2=C(\O)CNC(=O)c2ccc3cc(F)ccc3n2)c(Cl)c1

>  <Energy>  (79) 
65.5536039589818

>  <Genealogy>  (79) 
COc1ccc([C@H](C)[N-]C(=O)[C@@H]2C[C@@H](O)C[NH+]2C(=O)CNC(=O)c2ccc3cc(F)ccc3n2)c(Cl)c1 (protonated)
COc1ccc([C@H](C)[N-]C(=O)[C@@H]2C[C@@H](O)C[N+]2=C(O)CNC(=O)c2ccc3cc(F)ccc3n2)c(Cl)c1 (tautomer)
COc1ccc([C@H](C)[N-]C(=O)[C@@H]2C[C@@H](O)C/[N+]2=C(\O)CNC(=O)c2ccc3cc(F)ccc3n2)c(Cl)c1 (cis-trans isomerization)
COc1ccc([C@H](C)[N-]C(=O)[C@@H]2C[C@@H](O)C/[N+]2=C(\O)CNC(=O)c2ccc3cc(F)ccc3n2)c(Cl)c1 (3D coordinates assigned)
COc1ccc([C@H](C)[N-]C(=O)[C@@H]2C[C@@H](O)C/[N+]2=C(\O)CNC(=O)c2ccc3cc(F)ccc3n2)c(Cl)c1 (nonaromatic ring conformer: 65.5536039589818 kcal/mol)

>  <smiles>  (79) 
COc1ccc([C@H](C)NC(=O)[C@@H]2C[C@@H](O)CN2C(=O)CNC(=O)c2ccc3cc(F)ccc3n2)c(Cl)c1

>  <score_type>  (79) 
oracle

>  <origin>  (79) 
autodockgpu

>  <m_score__min__energy>  (79) 
-8.1099999999999994

>  <m_primary>  (79) 
energy

>  <meeko>  (79) 
{"free_energy": -5.64, "intermolecular_energy": -8.92, "internal_energy": -4.32, "cluster_size": 2, "cluster_id": 6, "rank_in_cluster": 2}

>  <energy>  (79) 
-5.22

>  <cluster_rmsd>  (79) 
0.0

>  <rmsd>  (79) 
269.57

>  <cluster>  (79) 
13

$$$$
JFIDHXWBANSMLJ-LGGCBPRRNA-N
     RDKit          3D

 63 66  0  0  0  0  0  0  0  0999 V2000
  138.8150   74.5210  222.7700 H   0  0  0  0  0  0  0  0  0  0  0  0
  139.5760   75.1770  222.6450 O   0  0  0  0  0  0  0  0  0  0  0  0
  140.2710   75.3410  221.4400 C   0  0  0  0  0  0  0  0  0  0  0  0
  140.3880   76.5300  220.8830 N   0  0  0  0  0  0  0  0  0  0  0  0
  139.6280   76.9430  219.7070 C   0  0  0  0  0  0  0  0  0  0  0  0
  138.5502   76.8142  219.8851 H   0  0  0  0  0  0  0  0  0  0  0  0
  139.8905   76.3370  218.8273 H   0  0  0  0  0  0  0  0  0  0  0  0
  139.9550   78.4180  219.4840 C   0  0  2  0  0  0  0  0  0  0  0  0
  139.1361   79.0647  219.8321 H   0  0  0  0  0  0  0  0  0  0  0  0
  140.1270   78.7050  218.1200 O   0  0  0  0  0  0  0  0  0  0  0  0
  140.9080   79.3160  218.0570 H   0  0  0  0  0  0  0  0  0  0  0  0
  141.2490   78.6680  220.2520 C   0  0  0  0  0  0  0  0  0  0  0  0
  141.2335   79.6655  220.7154 H   0  0  0  0  0  0  0  0  0  0  0  0
  142.1272   78.6334  219.5906 H   0  0  0  0  0  0  0  0  0  0  0  0
  141.3080   77.5810  221.3270 C   0  0  1  0  0  0  0  0  0  0  0  0
  142.3317   77.1978  221.4504 H   0  0  0  0  0  0  0  0  0  0  0  0
  140.8950   78.1210  222.6700 C   0  0  0  0  0  0  0  0  0  0  0  0
  139.7070   77.9620  223.0640 O   0  0  0  0  0  0  0  0  0  0  0  0
  141.8340   78.8390  223.4800 N   0  0  0  0  0  0  0  0  0  0  0  0
  141.6420   80.2390  223.8490 C   0  0  2  0  0  0  0  0  0  0  0  0
  141.0051   80.2882  224.7445 H   0  0  0  0  0  0  0  0  0  0  0  0
  140.9300   80.9880  222.7340 C   0  0  0  0  0  0  0  0  0  0  0  0
  141.6960   81.5110  221.6790 C   0  0  0  0  0  0  0  0  0  0  0  0
  142.7844   81.3519  221.6675 H   0  0  0  0  0  0  0  0  0  0  0  0
  141.0940   82.2300  220.6450 C   0  0  0  0  0  0  0  0  0  0  0  0
  141.7123   82.6294  219.8276 H   0  0  0  0  0  0  0  0  0  0  0  0
  139.7160   82.4470  220.6380 C   0  0  0  0  0  0  0  0  0  0  0  0
  139.1630   83.1860  219.5810 O   0  0  0  0  0  0  0  0  0  0  0  0
  138.9280   82.6690  218.2740 C   0  0  0  0  0  0  0  0  0  0  0  0
  138.4739   81.6701  218.3510 H   0  0  0  0  0  0  0  0  0  0  0  0
  138.2467   83.3406  217.7311 H   0  0  0  0  0  0  0  0  0  0  0  0
  139.8820   82.5973  217.7311 H   0  0  0  0  0  0  0  0  0  0  0  0
  138.9350   81.9250  221.6830 C   0  0  0  0  0  0  0  0  0  0  0  0
  137.8472   82.0881  221.6836 H   0  0  0  0  0  0  0  0  0  0  0  0
  139.5280   81.1990  222.7240 C   0  0  0  0  0  0  0  0  0  0  0  0
  138.4640   80.5910  223.9890 Cl  0  0  0  0  0  0  0  0  0  0  0  0
  142.9810   80.8870  224.1960 C   0  0  0  0  0  0  0  0  0  0  0  0
  143.0904   80.9399  225.2893 H   0  0  0  0  0  0  0  0  0  0  0  0
  143.7997   80.2854  223.7743 H   0  0  0  0  0  0  0  0  0  0  0  0
  143.0172   81.9023  223.7743 H   0  0  0  0  0  0  0  0  0  0  0  0
  140.9270   74.1160  220.8430 C   0  0  0  0  0  0  0  0  0  0  0  0
  140.3706   73.8123  219.9440 H   0  0  0  0  0  0  0  0  0  0  0  0
  141.9672   74.3658  220.5871 H   0  0  0  0  0  0  0  0  0  0  0  0
  140.9360   73.0070  221.7970 N   0  0  0  0  0  0  0  0  0  0  0  0
  141.8300   72.8120  222.3010 H   0  0  0  0  0  0  0  0  0  0  0  0
  139.7260   72.3900  222.2650 C   0  0  0  0  0  0  0  0  0  0  0  0
  138.6300   72.6540  221.7030 O   0  0  0  0  0  0  0  0  0  0  0  0
  139.7540   71.4580  223.4140 C   0  0  0  0  0  0  0  0  0  0  0  0
  140.3550   71.8380  224.5750 N   0  0  0  0  0  0  0  0  0  0  0  0
  140.3790   71.0400  225.6750 C   0  0  0  0  0  0  0  0  0  0  0  0
  141.0030   71.4780  226.8490 C   0  0  0  0  0  0  0  0  0  0  0  0
  141.4908   72.4635  226.8781 H   0  0  0  0  0  0  0  0  0  0  0  0
  141.0060   70.6620  227.9850 C   0  0  0  0  0  0  0  0  0  0  0  0
  141.4957   71.0083  228.9071 H   0  0  0  0  0  0  0  0  0  0  0  0
  140.3880   69.4060  227.9530 C   0  0  0  0  0  0  0  0  0  0  0  0
  140.3890   68.6240  229.0610 F   0  0  0  0  0  0  0  0  0  0  0  0
  139.7690   68.9570  226.7810 C   0  0  0  0  0  0  0  0  0  0  0  0
  139.2890   67.9675  226.7564 H   0  0  0  0  0  0  0  0  0  0  0  0
  139.7610   69.7700  225.6370 C   0  0  0  0  0  0  0  0  0  0  0  0
  139.1470   69.3520  224.4510 C   0  0  0  0  0  0  0  0  0  0  0  0
  138.6697   68.3625  224.3961 H   0  0  0  0  0  0  0  0  0  0  0  0
  139.1420   70.1950  223.3370 C   0  0  0  0  0  0  0  0  0  0  0  0
  138.6606   69.8713  222.4024 H   0  0  0  0  0  0  0  0  0  0  0  0
  1  2  1  0
  2  3  1  0
  3  4  2  0
  4  5  1  0
  5  6  1  0
  5  7  1  0
  5  8  1  0
  8  9  1  1
  8 10  1  0
 10 11  1  0
  8 12  1  0
 12 13  1  0
 12 14  1  0
 12 15  1  0
 15 16  1  1
 15 17  1  0
 17 18  2  0
 17 19  1  0
 19 20  1  0
 20 21  1  1
 20 22  1  0
 22 23  2  0
 23 24  1  0
 23 25  1  0
 25 26  1  0
 25 27  2  0
 27 28  1  0
 28 29  1  0
 29 30  1  0
 29 31  1  0
 29 32  1  0
 27 33  1  0
 33 34  1  0
 33 35  2  0
 35 36  1  0
 20 37  1  0
 37 38  1  0
 37 39  1  0
 37 40  1  0
  3 41  1  0
 41 42  1  0
 41 43  1  0
 41 44  1  0
 44 45  1  0
 44 46  1  0
 46 47  2  0
 46 48  1  0
 48 49  2  0
 49 50  1  0
 50 51  2  0
 51 52  1  0
 51 53  1  0
 53 54  1  0
 53 55  2  0
 55 56  1  0
 55 57  1  0
 57 58  1  0
 57 59  2  0
 59 60  1  0
 60 61  1  0
 60 62  2  0
 62 63  1  0
 15  4  1  0
 35 22  1  0
 62 48  1  0
 59 50  1  0
M  CHG  2   4   1  19  -1
M  END
>  <UniqueID>  (80) 
4

>  <SMILES>  (80) 
COc1ccc([C@H](C)[N-]C(=O)[C@@H]2C[C@@H](O)C/[N+]2=C(\O)CNC(=O)c2ccc3cc(F)ccc3n2)c(Cl)c1

>  <Energy>  (80) 
65.5536039589818

>  <Genealogy>  (80) 
COc1ccc([C@H](C)[N-]C(=O)[C@@H]2C[C@@H](O)C[NH+]2C(=O)CNC(=O)c2ccc3cc(F)ccc3n2)c(Cl)c1 (protonated)
COc1ccc([C@H](C)[N-]C(=O)[C@@H]2C[C@@H](O)C[N+]2=C(O)CNC(=O)c2ccc3cc(F)ccc3n2)c(Cl)c1 (tautomer)
COc1ccc([C@H](C)[N-]C(=O)[C@@H]2C[C@@H](O)C/[N+]2=C(\O)CNC(=O)c2ccc3cc(F)ccc3n2)c(Cl)c1 (cis-trans isomerization)
COc1ccc([C@H](C)[N-]C(=O)[C@@H]2C[C@@H](O)C/[N+]2=C(\O)CNC(=O)c2ccc3cc(F)ccc3n2)c(Cl)c1 (3D coordinates assigned)
COc1ccc([C@H](C)[N-]C(=O)[C@@H]2C[C@@H](O)C/[N+]2=C(\O)CNC(=O)c2ccc3cc(F)ccc3n2)c(Cl)c1 (nonaromatic ring conformer: 65.5536039589818 kcal/mol)

>  <smiles>  (80) 
COc1ccc([C@H](C)NC(=O)[C@@H]2C[C@@H](O)CN2C(=O)CNC(=O)c2ccc3cc(F)ccc3n2)c(Cl)c1

>  <score_type>  (80) 
oracle

>  <origin>  (80) 
autodockgpu

>  <m_score__min__energy>  (80) 
-8.1099999999999994

>  <m_primary>  (80) 
energy

>  <meeko>  (80) 
{"free_energy": -7.77, "intermolecular_energy": -11.06, "internal_energy": -2.82, "cluster_size": 1, "cluster_id": 3, "rank_in_cluster": 1}

>  <energy>  (80) 
-5.06

>  <cluster_rmsd>  (80) 
0.0

>  <rmsd>  (80) 
269.01

>  <cluster>  (80) 
14

$$$$
