WCZRIPJXOMUAPT-QHCPKHFHNA-N
     RDKit          3D

 48 52  0  0  0  0  0  0  0  0999 V2000
  141.1640   75.6100  222.3510 O   0  0  0  0  0  0  0  0  0  0  0  0
  140.2260   74.7330  221.5700 S   0  0  0  0  0  0  0  0  0  0  0  0
  139.9740   73.4720  222.3500 O   0  0  0  0  0  0  0  0  0  0  0  0
  141.0390   74.3310  220.0270 C   0  0  0  0  0  0  0  0  0  0  0  0
  142.4760   73.9360  220.2320 C   0  0  0  0  0  0  0  0  0  0  0  0
  142.8150   72.5970  220.4940 C   0  0  0  0  0  0  0  0  0  0  0  0
  144.1500   72.2350  220.6960 C   0  0  0  0  0  0  0  0  0  0  0  0
  145.1560   73.2020  220.6310 C   0  0  0  0  0  0  0  0  0  0  0  0
  144.8290   74.5330  220.3590 C   0  0  0  0  0  0  0  0  0  0  0  0
  143.4960   74.9000  220.1560 C   0  0  0  0  0  0  0  0  0  0  0  0
  138.7260   75.5940  221.2810 N   0  0  0  0  0  0  0  0  0  0  0  0
  137.9750   75.9060  222.5140 C   0  0  0  0  0  0  0  0  0  0  0  0
  137.2740   77.1720  222.2110 C   0  0  0  0  0  0  0  0  0  0  0  0
  136.2880   77.8140  222.9620 C   0  0  0  0  0  0  0  0  0  0  0  0
  135.7640   79.0260  222.4810 C   0  0  0  0  0  0  0  0  0  0  0  0
  136.2370   79.5710  221.2710 C   0  0  0  0  0  0  0  0  0  0  0  0
  137.2360   78.9080  220.5410 C   0  0  0  0  0  0  0  0  0  0  0  0
  137.7330   77.7000  221.0390 C   0  0  0  0  0  0  0  0  0  0  0  0
  138.8190   76.8510  220.4880 C   0  0  1  0  0  0  0  0  0  0  0  0
  140.1370   77.5880  220.6210 C   0  0  0  0  0  0  0  0  0  0  0  0
  141.1610   77.6630  219.6740 C   0  0  0  0  0  0  0  0  0  0  0  0
  142.1890   78.4050  220.1440 N   0  0  0  0  0  0  0  0  0  0  0  0
  141.8300   78.7970  221.3780 C   0  0  0  0  0  0  0  0  0  0  0  0
  142.5700   79.5850  222.2580 C   0  0  0  0  0  0  0  0  0  0  0  0
  142.0020   79.8820  223.5110 C   0  0  0  0  0  0  0  0  0  0  0  0
  140.7220   79.3900  223.8500 C   0  0  0  0  0  0  0  0  0  0  0  0
  139.9980   78.5960  222.9420 C   0  0  0  0  0  0  0  0  0  0  0  0
  140.5870   78.3180  221.7060 C   0  0  0  0  0  0  0  0  0  0  0  0
  140.5053   73.4946  219.5520 H   0  0  0  0  0  0  0  0  0  0  0  0
  141.0212   75.2279  219.3904 H   0  0  0  0  0  0  0  0  0  0  0  0
  142.0267   71.8312  220.5402 H   0  0  0  0  0  0  0  0  0  0  0  0
  144.4088   71.1868  220.9065 H   0  0  0  0  0  0  0  0  0  0  0  0
  146.2055   72.9157  220.7939 H   0  0  0  0  0  0  0  0  0  0  0  0
  145.6222   75.2932  220.3046 H   0  0  0  0  0  0  0  0  0  0  0  0
  143.2439   75.9478  219.9358 H   0  0  0  0  0  0  0  0  0  0  0  0
  137.2538   75.1074  222.7424 H   0  0  0  0  0  0  0  0  0  0  0  0
  138.6312   75.9915  223.3927 H   0  0  0  0  0  0  0  0  0  0  0  0
  135.9297   77.3815  223.9078 H   0  0  0  0  0  0  0  0  0  0  0  0
  134.9827   79.5504  223.0506 H   0  0  0  0  0  0  0  0  0  0  0  0
  135.8223   80.5188  220.8972 H   0  0  0  0  0  0  0  0  0  0  0  0
  137.6186   79.3290  219.5995 H   0  0  0  0  0  0  0  0  0  0  0  0
  138.7374   76.6196  219.4157 H   0  0  0  0  0  0  0  0  0  0  0  0
  141.1348   77.1850  218.6837 H   0  0  0  0  0  0  0  0  0  0  0  0
  143.0790   78.6250  219.6450 H   0  0  0  0  0  0  0  0  0  0  0  0
  143.5657   79.9625  221.9821 H   0  0  0  0  0  0  0  0  0  0  0  0
  142.5581   80.5009  224.2305 H   0  0  0  0  0  0  0  0  0  0  0  0
  140.2879   79.6296  224.8319 H   0  0  0  0  0  0  0  0  0  0  0  0
  139.0011   78.2069  223.1967 H   0  0  0  0  0  0  0  0  0  0  0  0
  1  2  2  0
  2  3  2  0
  2  4  1  0
  4  5  1  0
  5  6  2  0
  6  7  1  0
  7  8  2  0
  8  9  1  0
  9 10  2  0
  2 11  1  0
 11 12  1  0
 12 13  1  0
 13 14  2  0
 14 15  1  0
 15 16  2  0
 16 17  1  0
 17 18  2  0
 18 19  1  0
 19 20  1  0
 20 21  2  0
 21 22  1  0
 22 23  1  0
 23 24  2  0
 24 25  1  0
 25 26  2  0
 26 27  1  0
 27 28  2  0
 10  5  1  0
 19 11  1  0
 28 20  1  0
 18 13  1  0
 28 23  1  0
  4 29  1  0
  4 30  1  0
  6 31  1  0
  7 32  1  0
  8 33  1  0
  9 34  1  0
 10 35  1  0
 12 36  1  0
 12 37  1  0
 14 38  1  0
 15 39  1  0
 16 40  1  0
 17 41  1  0
 19 42  1  6
 21 43  1  0
 22 44  1  0
 24 45  1  0
 25 46  1  0
 26 47  1  0
 27 48  1  0
M  END
>  <UniqueID>  (1) 
5

>  <SMILES>  (1) 
O=S(=O)(Cc1ccccc1)N1Cc2ccccc2[C@H]1c1c[nH]c2ccccc12

>  <Energy>  (1) 
91.48008314365012

>  <Genealogy>  (1) 
O=S(=O)(Cc1ccccc1)N1Cc2ccccc2[C@H]1c1c[nH]c2ccccc12 (chirality)
O=S(=O)(Cc1ccccc1)N1Cc2ccccc2[C@H]1c1c[nH]c2ccccc12 (3D coordinates assigned)
O=S(=O)(Cc1ccccc1)N1Cc2ccccc2[C@H]1c1c[nH]c2ccccc12 (nonaromatic ring conformer: 91.48008314365012 kcal/mol)

>  <smiles>  (1) 
O=S(=O)(Cc1ccccc1)N1Cc2ccccc2C1c1c[nH]c2ccccc12

>  <score_type>  (1) 
oracle

>  <origin>  (1) 
autodockgpu

>  <m_score__min__energy>  (1) 
-7.29

>  <m_primary>  (1) 
energy

>  <meeko>  (1) 
{"free_energy": -7.28, "intermolecular_energy": -8.47, "internal_energy": -1.97, "cluster_size": 14, "cluster_id": 1, "rank_in_cluster": 3}

>  <energy>  (1) 
-7.29

>  <cluster_rmsd>  (1) 
0.0

>  <rmsd>  (1) 
271.34

>  <cluster>  (1) 
1

$$$$
WCZRIPJXOMUAPT-QHCPKHFHNA-N
     RDKit          3D

 48 52  0  0  0  0  0  0  0  0999 V2000
  141.1600   75.6170  222.3460 O   0  0  0  0  0  0  0  0  0  0  0  0
  140.2220   74.7360  221.5700 S   0  0  0  0  0  0  0  0  0  0  0  0
  139.9710   73.4790  222.3560 O   0  0  0  0  0  0  0  0  0  0  0  0
  141.0350   74.3260  220.0280 C   0  0  0  0  0  0  0  0  0  0  0  0
  142.4720   73.9320  220.2340 C   0  0  0  0  0  0  0  0  0  0  0  0
  143.4930   74.8950  220.1570 C   0  0  0  0  0  0  0  0  0  0  0  0
  144.8280   74.5230  220.3370 C   0  0  0  0  0  0  0  0  0  0  0  0
  145.1550   73.1910  220.6030 C   0  0  0  0  0  0  0  0  0  0  0  0
  144.1450   72.2290  220.6940 C   0  0  0  0  0  0  0  0  0  0  0  0
  142.8090   72.5960  220.5140 C   0  0  0  0  0  0  0  0  0  0  0  0
  138.7220   75.5950  221.2770 N   0  0  0  0  0  0  0  0  0  0  0  0
  137.9680   75.9060  222.5080 C   0  0  0  0  0  0  0  0  0  0  0  0
  137.2660   77.1720  222.2030 C   0  0  0  0  0  0  0  0  0  0  0  0
  136.2770   77.8130  222.9520 C   0  0  0  0  0  0  0  0  0  0  0  0
  135.7530   79.0230  222.4690 C   0  0  0  0  0  0  0  0  0  0  0  0
  136.2280   79.5690  221.2600 C   0  0  0  0  0  0  0  0  0  0  0  0
  137.2300   78.9060  220.5330 C   0  0  0  0  0  0  0  0  0  0  0  0
  137.7270   77.7000  221.0320 C   0  0  0  0  0  0  0  0  0  0  0  0
  138.8160   76.8520  220.4830 C   0  0  1  0  0  0  0  0  0  0  0  0
  140.1330   77.5910  220.6190 C   0  0  0  0  0  0  0  0  0  0  0  0
  141.1580   77.6680  219.6740 C   0  0  0  0  0  0  0  0  0  0  0  0
  142.1840   78.4110  220.1470 N   0  0  0  0  0  0  0  0  0  0  0  0
  141.8230   78.8010  221.3800 C   0  0  0  0  0  0  0  0  0  0  0  0
  142.5600   79.5890  222.2630 C   0  0  0  0  0  0  0  0  0  0  0  0
  141.9890   79.8840  223.5140 C   0  0  0  0  0  0  0  0  0  0  0  0
  140.7100   79.3900  223.8520 C   0  0  0  0  0  0  0  0  0  0  0  0
  139.9890   78.5960  222.9410 C   0  0  0  0  0  0  0  0  0  0  0  0
  140.5800   78.3200  221.7060 C   0  0  0  0  0  0  0  0  0  0  0  0
  140.5011   73.4872  219.5575 H   0  0  0  0  0  0  0  0  0  0  0  0
  141.0171   75.2199  219.3872 H   0  0  0  0  0  0  0  0  0  0  0  0
  143.2401   75.9461  219.9541 H   0  0  0  0  0  0  0  0  0  0  0  0
  145.6229   75.2804  220.2691 H   0  0  0  0  0  0  0  0  0  0  0  0
  146.2067   72.8995  220.7407 H   0  0  0  0  0  0  0  0  0  0  0  0
  144.4025   71.1811  220.9077 H   0  0  0  0  0  0  0  0  0  0  0  0
  142.0173   71.8363  220.5917 H   0  0  0  0  0  0  0  0  0  0  0  0
  137.2471   75.1066  222.7347 H   0  0  0  0  0  0  0  0  0  0  0  0
  138.6219   75.9921  223.3883 H   0  0  0  0  0  0  0  0  0  0  0  0
  135.9172   77.3807  223.8973 H   0  0  0  0  0  0  0  0  0  0  0  0
  134.9692   79.5463  223.0363 H   0  0  0  0  0  0  0  0  0  0  0  0
  135.8132   80.5163  220.8850 H   0  0  0  0  0  0  0  0  0  0  0  0
  137.6145   79.3268  219.5922 H   0  0  0  0  0  0  0  0  0  0  0  0
  138.7378   76.6202  219.4106 H   0  0  0  0  0  0  0  0  0  0  0  0
  141.1342   77.1909  218.6831 H   0  0  0  0  0  0  0  0  0  0  0  0
  143.0750   78.6320  219.6490 H   0  0  0  0  0  0  0  0  0  0  0  0
  143.5560   79.9678  221.9900 H   0  0  0  0  0  0  0  0  0  0  0  0
  142.5427   80.5040  224.2344 H   0  0  0  0  0  0  0  0  0  0  0  0
  140.2745   79.6274  224.8338 H   0  0  0  0  0  0  0  0  0  0  0  0
  138.9922   78.2053  223.1934 H   0  0  0  0  0  0  0  0  0  0  0  0
  1  2  2  0
  2  3  2  0
  2  4  1  0
  4  5  1  0
  5  6  2  0
  6  7  1  0
  7  8  2  0
  8  9  1  0
  9 10  2  0
  2 11  1  0
 11 12  1  0
 12 13  1  0
 13 14  2  0
 14 15  1  0
 15 16  2  0
 16 17  1  0
 17 18  2  0
 18 19  1  0
 19 20  1  0
 20 21  2  0
 21 22  1  0
 22 23  1  0
 23 24  2  0
 24 25  1  0
 25 26  2  0
 26 27  1  0
 27 28  2  0
 10  5  1  0
 19 11  1  0
 28 20  1  0
 18 13  1  0
 28 23  1  0
  4 29  1  0
  4 30  1  0
  6 31  1  0
  7 32  1  0
  8 33  1  0
  9 34  1  0
 10 35  1  0
 12 36  1  0
 12 37  1  0
 14 38  1  0
 15 39  1  0
 16 40  1  0
 17 41  1  0
 19 42  1  6
 21 43  1  0
 22 44  1  0
 24 45  1  0
 25 46  1  0
 26 47  1  0
 27 48  1  0
M  END
>  <UniqueID>  (2) 
5

>  <SMILES>  (2) 
O=S(=O)(Cc1ccccc1)N1Cc2ccccc2[C@H]1c1c[nH]c2ccccc12

>  <Energy>  (2) 
91.48008314365012

>  <Genealogy>  (2) 
O=S(=O)(Cc1ccccc1)N1Cc2ccccc2[C@H]1c1c[nH]c2ccccc12 (chirality)
O=S(=O)(Cc1ccccc1)N1Cc2ccccc2[C@H]1c1c[nH]c2ccccc12 (3D coordinates assigned)
O=S(=O)(Cc1ccccc1)N1Cc2ccccc2[C@H]1c1c[nH]c2ccccc12 (nonaromatic ring conformer: 91.48008314365012 kcal/mol)

>  <smiles>  (2) 
O=S(=O)(Cc1ccccc1)N1Cc2ccccc2C1c1c[nH]c2ccccc12

>  <score_type>  (2) 
oracle

>  <origin>  (2) 
autodockgpu

>  <m_score__min__energy>  (2) 
-7.29

>  <m_primary>  (2) 
energy

>  <meeko>  (2) 
{"free_energy": -7.27, "intermolecular_energy": -8.47, "internal_energy": -1.97, "cluster_size": 14, "cluster_id": 1, "rank_in_cluster": 6}

>  <energy>  (2) 
-7.28

>  <cluster_rmsd>  (2) 
0.03

>  <rmsd>  (2) 
271.34

>  <cluster>  (2) 
1

$$$$
WCZRIPJXOMUAPT-QHCPKHFHNA-N
     RDKit          3D

 48 52  0  0  0  0  0  0  0  0999 V2000
  138.7890   77.7010  219.4190 O   0  0  0  0  0  0  0  0  0  0  0  0
  140.1880   77.3100  219.0320 S   0  0  0  0  0  0  0  0  0  0  0  0
  140.4390   77.7400  217.6130 O   0  0  0  0  0  0  0  0  0  0  0  0
  140.2890   75.5260  219.1450 C   0  0  0  0  0  0  0  0  0  0  0  0
  141.6460   75.0650  219.6020 C   0  0  0  0  0  0  0  0  0  0  0  0
  141.7780   73.9020  220.3810 C   0  0  0  0  0  0  0  0  0  0  0  0
  143.0390   73.4830  220.8140 C   0  0  0  0  0  0  0  0  0  0  0  0
  144.1780   74.2160  220.4690 C   0  0  0  0  0  0  0  0  0  0  0  0
  144.0570   75.3670  219.6860 C   0  0  0  0  0  0  0  0  0  0  0  0
  142.7990   75.7890  219.2500 C   0  0  0  0  0  0  0  0  0  0  0  0
  141.3290   78.0720  220.1230 N   0  0  0  0  0  0  0  0  0  0  0  0
  141.2190   79.5440  220.1620 C   0  0  0  0  0  0  0  0  0  0  0  0
  141.6110   79.9090  221.5410 C   0  0  0  0  0  0  0  0  0  0  0  0
  141.8540   81.1810  222.0610 C   0  0  0  0  0  0  0  0  0  0  0  0
  142.2090   81.2930  223.4160 C   0  0  0  0  0  0  0  0  0  0  0  0
  142.3060   80.1400  224.2200 C   0  0  0  0  0  0  0  0  0  0  0  0
  142.0470   78.8740  223.6710 C   0  0  0  0  0  0  0  0  0  0  0  0
  141.7050   78.7910  222.3190 C   0  0  0  0  0  0  0  0  0  0  0  0
  141.3310   77.5890  221.5320 C   0  0  1  0  0  0  0  0  0  0  0  0
  139.9950   77.0710  222.0260 C   0  0  0  0  0  0  0  0  0  0  0  0
  139.6470   75.7420  222.2790 C   0  0  0  0  0  0  0  0  0  0  0  0
  138.3660   75.6600  222.7040 N   0  0  0  0  0  0  0  0  0  0  0  0
  137.8980   76.9200  222.7200 C   0  0  0  0  0  0  0  0  0  0  0  0
  136.6210   77.3380  223.0920 C   0  0  0  0  0  0  0  0  0  0  0  0
  136.3400   78.7160  223.0370 C   0  0  0  0  0  0  0  0  0  0  0  0
  137.3290   79.6320  222.6170 C   0  0  0  0  0  0  0  0  0  0  0  0
  138.6090   79.1810  222.2480 C   0  0  0  0  0  0  0  0  0  0  0  0
  138.8610   77.8080  222.3120 C   0  0  0  0  0  0  0  0  0  0  0  0
  139.5339   75.1725  219.8625 H   0  0  0  0  0  0  0  0  0  0  0  0
  140.1101   75.1119  218.1418 H   0  0  0  0  0  0  0  0  0  0  0  0
  140.8849   73.3194  220.6508 H   0  0  0  0  0  0  0  0  0  0  0  0
  143.1353   72.5749  221.4273 H   0  0  0  0  0  0  0  0  0  0  0  0
  145.1694   73.8869  220.8138 H   0  0  0  0  0  0  0  0  0  0  0  0
  144.9541   75.9418  219.4125 H   0  0  0  0  0  0  0  0  0  0  0  0
  142.7097   76.6920  218.6283 H   0  0  0  0  0  0  0  0  0  0  0  0
  141.8990   80.0041  219.4299 H   0  0  0  0  0  0  0  0  0  0  0  0
  140.2077   79.8945  219.9083 H   0  0  0  0  0  0  0  0  0  0  0  0
  141.7697   82.0747  221.4253 H   0  0  0  0  0  0  0  0  0  0  0  0
  142.4117   82.2832  223.8501 H   0  0  0  0  0  0  0  0  0  0  0  0
  142.5852   80.2319  225.2800 H   0  0  0  0  0  0  0  0  0  0  0  0
  142.1119   77.9680  224.2914 H   0  0  0  0  0  0  0  0  0  0  0  0
  142.0136   76.7319  221.6293 H   0  0  0  0  0  0  0  0  0  0  0  0
  140.3210   74.8822  222.1505 H   0  0  0  0  0  0  0  0  0  0  0  0
  137.8490   74.7910  222.9650 H   0  0  0  0  0  0  0  0  0  0  0  0
  135.8586   76.6150  223.4176 H   0  0  0  0  0  0  0  0  0  0  0  0
  135.3429   79.0819  223.3232 H   0  0  0  0  0  0  0  0  0  0  0  0
  137.0966   80.7065  222.5781 H   0  0  0  0  0  0  0  0  0  0  0  0
  139.3867   79.8863  221.9196 H   0  0  0  0  0  0  0  0  0  0  0  0
  1  2  2  0
  2  3  2  0
  2  4  1  0
  4  5  1  0
  5  6  2  0
  6  7  1  0
  7  8  2  0
  8  9  1  0
  9 10  2  0
  2 11  1  0
 11 12  1  0
 12 13  1  0
 13 14  2  0
 14 15  1  0
 15 16  2  0
 16 17  1  0
 17 18  2  0
 18 19  1  0
 19 20  1  0
 20 21  2  0
 21 22  1  0
 22 23  1  0
 23 24  2  0
 24 25  1  0
 25 26  2  0
 26 27  1  0
 27 28  2  0
 10  5  1  0
 19 11  1  0
 28 20  1  0
 18 13  1  0
 28 23  1  0
  4 29  1  0
  4 30  1  0
  6 31  1  0
  7 32  1  0
  8 33  1  0
  9 34  1  0
 10 35  1  0
 12 36  1  0
 12 37  1  0
 14 38  1  0
 15 39  1  0
 16 40  1  0
 17 41  1  0
 19 42  1  6
 21 43  1  0
 22 44  1  0
 24 45  1  0
 25 46  1  0
 26 47  1  0
 27 48  1  0
M  END
>  <UniqueID>  (3) 
5

>  <SMILES>  (3) 
O=S(=O)(Cc1ccccc1)N1Cc2ccccc2[C@H]1c1c[nH]c2ccccc12

>  <Energy>  (3) 
91.48008314365012

>  <Genealogy>  (3) 
O=S(=O)(Cc1ccccc1)N1Cc2ccccc2[C@H]1c1c[nH]c2ccccc12 (chirality)
O=S(=O)(Cc1ccccc1)N1Cc2ccccc2[C@H]1c1c[nH]c2ccccc12 (3D coordinates assigned)
O=S(=O)(Cc1ccccc1)N1Cc2ccccc2[C@H]1c1c[nH]c2ccccc12 (nonaromatic ring conformer: 91.48008314365012 kcal/mol)

>  <smiles>  (3) 
O=S(=O)(Cc1ccccc1)N1Cc2ccccc2C1c1c[nH]c2ccccc12

>  <score_type>  (3) 
oracle

>  <origin>  (3) 
autodockgpu

>  <m_score__min__energy>  (3) 
-7.29

>  <m_primary>  (3) 
energy

>  <meeko>  (3) 
{"free_energy": -6.91, "intermolecular_energy": -8.11, "internal_energy": -2.14, "cluster_size": 3, "cluster_id": 2, "rank_in_cluster": 3}

>  <energy>  (3) 
-7.28

>  <cluster_rmsd>  (3) 
0.02

>  <rmsd>  (3) 
271.34

>  <cluster>  (3) 
1

$$$$
WCZRIPJXOMUAPT-QHCPKHFHNA-N
     RDKit          3D

 48 52  0  0  0  0  0  0  0  0999 V2000
  141.1630   75.6030  222.3520 O   0  0  0  0  0  0  0  0  0  0  0  0
  140.2220   74.7320  221.5690 S   0  0  0  0  0  0  0  0  0  0  0  0
  139.9680   73.4680  222.3440 O   0  0  0  0  0  0  0  0  0  0  0  0
  141.0320   74.3340  220.0230 C   0  0  0  0  0  0  0  0  0  0  0  0
  142.4650   73.9250  220.2250 C   0  0  0  0  0  0  0  0  0  0  0  0
  142.7900   72.5870  220.5110 C   0  0  0  0  0  0  0  0  0  0  0  0
  144.1220   72.2130  220.7110 C   0  0  0  0  0  0  0  0  0  0  0  0
  145.1390   73.1660  220.6200 C   0  0  0  0  0  0  0  0  0  0  0  0
  144.8270   74.4950  220.3240 C   0  0  0  0  0  0  0  0  0  0  0  0
  143.4970   74.8750  220.1240 C   0  0  0  0  0  0  0  0  0  0  0  0
  138.7230   75.5970  221.2860 N   0  0  0  0  0  0  0  0  0  0  0  0
  137.9770   75.9090  222.5210 C   0  0  0  0  0  0  0  0  0  0  0  0
  137.2790   77.1780  222.2220 C   0  0  0  0  0  0  0  0  0  0  0  0
  136.2960   77.8210  222.9770 C   0  0  0  0  0  0  0  0  0  0  0  0
  135.7740   79.0350  222.4990 C   0  0  0  0  0  0  0  0  0  0  0  0
  136.2450   79.5810  221.2890 C   0  0  0  0  0  0  0  0  0  0  0  0
  137.2400   78.9150  220.5550 C   0  0  0  0  0  0  0  0  0  0  0  0
  137.7360   77.7060  221.0490 C   0  0  0  0  0  0  0  0  0  0  0  0
  138.8180   76.8550  220.4940 C   0  0  1  0  0  0  0  0  0  0  0  0
  140.1380   77.5880  220.6240 C   0  0  0  0  0  0  0  0  0  0  0  0
  141.1600   77.6600  219.6750 C   0  0  0  0  0  0  0  0  0  0  0  0
  142.1920   78.3990  220.1430 N   0  0  0  0  0  0  0  0  0  0  0  0
  141.8360   78.7920  221.3780 C   0  0  0  0  0  0  0  0  0  0  0  0
  142.5800   79.5780  222.2570 C   0  0  0  0  0  0  0  0  0  0  0  0
  142.0150   79.8760  223.5100 C   0  0  0  0  0  0  0  0  0  0  0  0
  140.7350   79.3880  223.8530 C   0  0  0  0  0  0  0  0  0  0  0  0
  140.0070   78.5960  222.9450 C   0  0  0  0  0  0  0  0  0  0  0  0
  140.5930   78.3160  221.7080 C   0  0  0  0  0  0  0  0  0  0  0  0
  140.4910   73.5058  219.5419 H   0  0  0  0  0  0  0  0  0  0  0  0
  141.0223   75.2358  219.3931 H   0  0  0  0  0  0  0  0  0  0  0  0
  141.9930   71.8318  220.5776 H   0  0  0  0  0  0  0  0  0  0  0  0
  144.3697   71.1661  220.9405 H   0  0  0  0  0  0  0  0  0  0  0  0
  146.1860   72.8699  220.7815 H   0  0  0  0  0  0  0  0  0  0  0  0
  145.6293   75.2437  220.2482 H   0  0  0  0  0  0  0  0  0  0  0  0
  143.2564   75.9218  219.8865 H   0  0  0  0  0  0  0  0  0  0  0  0
  137.2540   75.1123  222.7501 H   0  0  0  0  0  0  0  0  0  0  0  0
  138.6359   75.9909  223.3980 H   0  0  0  0  0  0  0  0  0  0  0  0
  135.9389   77.3878  223.9229 H   0  0  0  0  0  0  0  0  0  0  0  0
  134.9953   79.5604  223.0714 H   0  0  0  0  0  0  0  0  0  0  0  0
  135.8326   80.5310  220.9182 H   0  0  0  0  0  0  0  0  0  0  0  0
  137.6202   79.3358  219.6124 H   0  0  0  0  0  0  0  0  0  0  0  0
  138.7333   76.6251  219.4216 H   0  0  0  0  0  0  0  0  0  0  0  0
  141.1300   77.1822  218.6846 H   0  0  0  0  0  0  0  0  0  0  0  0
  143.0820   78.6160  219.6420 H   0  0  0  0  0  0  0  0  0  0  0  0
  143.5763   79.9528  221.9796 H   0  0  0  0  0  0  0  0  0  0  0  0
  142.5743   80.4937  224.2281 H   0  0  0  0  0  0  0  0  0  0  0  0
  140.3040   79.6283  224.8361 H   0  0  0  0  0  0  0  0  0  0  0  0
  139.0092   78.2101  223.2011 H   0  0  0  0  0  0  0  0  0  0  0  0
  1  2  2  0
  2  3  2  0
  2  4  1  0
  4  5  1  0
  5  6  2  0
  6  7  1  0
  7  8  2  0
  8  9  1  0
  9 10  2  0
  2 11  1  0
 11 12  1  0
 12 13  1  0
 13 14  2  0
 14 15  1  0
 15 16  2  0
 16 17  1  0
 17 18  2  0
 18 19  1  0
 19 20  1  0
 20 21  2  0
 21 22  1  0
 22 23  1  0
 23 24  2  0
 24 25  1  0
 25 26  2  0
 26 27  1  0
 27 28  2  0
 10  5  1  0
 19 11  1  0
 28 20  1  0
 18 13  1  0
 28 23  1  0
  4 29  1  0
  4 30  1  0
  6 31  1  0
  7 32  1  0
  8 33  1  0
  9 34  1  0
 10 35  1  0
 12 36  1  0
 12 37  1  0
 14 38  1  0
 15 39  1  0
 16 40  1  0
 17 41  1  0
 19 42  1  6
 21 43  1  0
 22 44  1  0
 24 45  1  0
 25 46  1  0
 26 47  1  0
 27 48  1  0
M  END
>  <UniqueID>  (4) 
5

>  <SMILES>  (4) 
O=S(=O)(Cc1ccccc1)N1Cc2ccccc2[C@H]1c1c[nH]c2ccccc12

>  <Energy>  (4) 
91.48008314365012

>  <Genealogy>  (4) 
O=S(=O)(Cc1ccccc1)N1Cc2ccccc2[C@H]1c1c[nH]c2ccccc12 (chirality)
O=S(=O)(Cc1ccccc1)N1Cc2ccccc2[C@H]1c1c[nH]c2ccccc12 (3D coordinates assigned)
O=S(=O)(Cc1ccccc1)N1Cc2ccccc2[C@H]1c1c[nH]c2ccccc12 (nonaromatic ring conformer: 91.48008314365012 kcal/mol)

>  <smiles>  (4) 
O=S(=O)(Cc1ccccc1)N1Cc2ccccc2C1c1c[nH]c2ccccc12

>  <score_type>  (4) 
oracle

>  <origin>  (4) 
autodockgpu

>  <m_score__min__energy>  (4) 
-7.29

>  <m_primary>  (4) 
energy

>  <meeko>  (4) 
{"free_energy": -7.27, "intermolecular_energy": -8.46, "internal_energy": -1.97, "cluster_size": 14, "cluster_id": 1, "rank_in_cluster": 8}

>  <energy>  (4) 
-7.27

>  <cluster_rmsd>  (4) 
0.04

>  <rmsd>  (4) 
271.33

>  <cluster>  (4) 
1

$$$$
WCZRIPJXOMUAPT-QHCPKHFHNA-N
     RDKit          3D

 48 52  0  0  0  0  0  0  0  0999 V2000
  141.1610   75.6180  222.3380 O   0  0  0  0  0  0  0  0  0  0  0  0
  140.2190   74.7360  221.5680 S   0  0  0  0  0  0  0  0  0  0  0  0
  139.9690   73.4810  222.3590 O   0  0  0  0  0  0  0  0  0  0  0  0
  141.0250   74.3210  220.0240 C   0  0  0  0  0  0  0  0  0  0  0  0
  142.4640   73.9310  220.2260 C   0  0  0  0  0  0  0  0  0  0  0  0
  142.8090   72.5960  220.4980 C   0  0  0  0  0  0  0  0  0  0  0  0
  144.1460   72.2390  220.6970 C   0  0  0  0  0  0  0  0  0  0  0  0
  145.1490   73.2090  220.6190 C   0  0  0  0  0  0  0  0  0  0  0  0
  144.8160   74.5360  220.3370 C   0  0  0  0  0  0  0  0  0  0  0  0
  143.4820   74.8980  220.1370 C   0  0  0  0  0  0  0  0  0  0  0  0
  138.7190   75.5960  221.2780 N   0  0  0  0  0  0  0  0  0  0  0  0
  137.9690   75.9090  222.5110 C   0  0  0  0  0  0  0  0  0  0  0  0
  137.2670   77.1750  222.2070 C   0  0  0  0  0  0  0  0  0  0  0  0
  136.2810   77.8180  222.9570 C   0  0  0  0  0  0  0  0  0  0  0  0
  135.7560   79.0290  222.4750 C   0  0  0  0  0  0  0  0  0  0  0  0
  136.2290   79.5720  221.2640 C   0  0  0  0  0  0  0  0  0  0  0  0
  137.2280   78.9080  220.5350 C   0  0  0  0  0  0  0  0  0  0  0  0
  137.7250   77.7020  221.0330 C   0  0  0  0  0  0  0  0  0  0  0  0
  138.8120   76.8520  220.4830 C   0  0  1  0  0  0  0  0  0  0  0  0
  140.1300   77.5890  220.6150 C   0  0  0  0  0  0  0  0  0  0  0  0
  141.1520   77.6640  219.6670 C   0  0  0  0  0  0  0  0  0  0  0  0
  142.1810   78.4060  220.1360 N   0  0  0  0  0  0  0  0  0  0  0  0
  141.8230   78.7990  221.3700 C   0  0  0  0  0  0  0  0  0  0  0  0
  142.5630   79.5880  222.2490 C   0  0  0  0  0  0  0  0  0  0  0  0
  141.9960   79.8850  223.5020 C   0  0  0  0  0  0  0  0  0  0  0  0
  140.7170   79.3930  223.8430 C   0  0  0  0  0  0  0  0  0  0  0  0
  139.9920   78.5980  222.9350 C   0  0  0  0  0  0  0  0  0  0  0  0
  140.5800   78.3200  221.6990 C   0  0  0  0  0  0  0  0  0  0  0  0
  140.4907   73.4790  219.5597 H   0  0  0  0  0  0  0  0  0  0  0  0
  141.0019   75.2116  219.3787 H   0  0  0  0  0  0  0  0  0  0  0  0
  142.0233   71.8283  220.5546 H   0  0  0  0  0  0  0  0  0  0  0  0
  144.4088   71.1934  220.9152 H   0  0  0  0  0  0  0  0  0  0  0  0
  146.2002   72.9277  220.7796 H   0  0  0  0  0  0  0  0  0  0  0  0
  145.6067   75.2980  220.2723 H   0  0  0  0  0  0  0  0  0  0  0  0
  143.2263   75.9433  219.9090 H   0  0  0  0  0  0  0  0  0  0  0  0
  137.2483   75.1104  222.7409 H   0  0  0  0  0  0  0  0  0  0  0  0
  138.6258   75.9957  223.3891 H   0  0  0  0  0  0  0  0  0  0  0  0
  135.9232   77.3867  223.9035 H   0  0  0  0  0  0  0  0  0  0  0  0
  134.9745   79.5539  223.0440 H   0  0  0  0  0  0  0  0  0  0  0  0
  135.8142   80.5191  220.8887 H   0  0  0  0  0  0  0  0  0  0  0  0
  137.6105   79.3281  219.5931 H   0  0  0  0  0  0  0  0  0  0  0  0
  138.7306   76.6193  219.4110 H   0  0  0  0  0  0  0  0  0  0  0  0
  141.1243   77.1862  218.6766 H   0  0  0  0  0  0  0  0  0  0  0  0
  143.0700   78.6270  219.6360 H   0  0  0  0  0  0  0  0  0  0  0  0
  143.5581   79.9662  221.9721 H   0  0  0  0  0  0  0  0  0  0  0  0
  142.5526   80.5045  224.2206 H   0  0  0  0  0  0  0  0  0  0  0  0
  140.2840   79.6327  224.8254 H   0  0  0  0  0  0  0  0  0  0  0  0
  138.9954   78.2087  223.1905 H   0  0  0  0  0  0  0  0  0  0  0  0
  1  2  2  0
  2  3  2  0
  2  4  1  0
  4  5  1  0
  5  6  2  0
  6  7  1  0
  7  8  2  0
  8  9  1  0
  9 10  2  0
  2 11  1  0
 11 12  1  0
 12 13  1  0
 13 14  2  0
 14 15  1  0
 15 16  2  0
 16 17  1  0
 17 18  2  0
 18 19  1  0
 19 20  1  0
 20 21  2  0
 21 22  1  0
 22 23  1  0
 23 24  2  0
 24 25  1  0
 25 26  2  0
 26 27  1  0
 27 28  2  0
 10  5  1  0
 19 11  1  0
 28 20  1  0
 18 13  1  0
 28 23  1  0
  4 29  1  0
  4 30  1  0
  6 31  1  0
  7 32  1  0
  8 33  1  0
  9 34  1  0
 10 35  1  0
 12 36  1  0
 12 37  1  0
 14 38  1  0
 15 39  1  0
 16 40  1  0
 17 41  1  0
 19 42  1  6
 21 43  1  0
 22 44  1  0
 24 45  1  0
 25 46  1  0
 26 47  1  0
 27 48  1  0
M  END
>  <UniqueID>  (5) 
5

>  <SMILES>  (5) 
O=S(=O)(Cc1ccccc1)N1Cc2ccccc2[C@H]1c1c[nH]c2ccccc12

>  <Energy>  (5) 
91.48008314365012

>  <Genealogy>  (5) 
O=S(=O)(Cc1ccccc1)N1Cc2ccccc2[C@H]1c1c[nH]c2ccccc12 (chirality)
O=S(=O)(Cc1ccccc1)N1Cc2ccccc2[C@H]1c1c[nH]c2ccccc12 (3D coordinates assigned)
O=S(=O)(Cc1ccccc1)N1Cc2ccccc2[C@H]1c1c[nH]c2ccccc12 (nonaromatic ring conformer: 91.48008314365012 kcal/mol)

>  <smiles>  (5) 
O=S(=O)(Cc1ccccc1)N1Cc2ccccc2C1c1c[nH]c2ccccc12

>  <score_type>  (5) 
oracle

>  <origin>  (5) 
autodockgpu

>  <m_score__min__energy>  (5) 
-7.29

>  <m_primary>  (5) 
energy

>  <meeko>  (5) 
{"free_energy": -7.27, "intermolecular_energy": -8.46, "internal_energy": -1.97, "cluster_size": 14, "cluster_id": 1, "rank_in_cluster": 7}

>  <energy>  (5) 
-7.27

>  <cluster_rmsd>  (5) 
0.04

>  <rmsd>  (5) 
271.34

>  <cluster>  (5) 
1

$$$$
WCZRIPJXOMUAPT-QHCPKHFHNA-N
     RDKit          3D

 48 52  0  0  0  0  0  0  0  0999 V2000
  141.1560   75.6460  222.4090 O   0  0  0  0  0  0  0  0  0  0  0  0
  140.2180   74.7970  221.5980 S   0  0  0  0  0  0  0  0  0  0  0  0
  139.9670   73.5100  222.3340 O   0  0  0  0  0  0  0  0  0  0  0  0
  141.0310   74.4500  220.0410 C   0  0  0  0  0  0  0  0  0  0  0  0
  142.4530   74.0010  220.2350 C   0  0  0  0  0  0  0  0  0  0  0  0
  143.5200   74.8700  219.9470 C   0  0  0  0  0  0  0  0  0  0  0  0
  144.8410   74.4460  220.1160 C   0  0  0  0  0  0  0  0  0  0  0  0
  145.1080   73.1560  220.5800 C   0  0  0  0  0  0  0  0  0  0  0  0
  144.0540   72.2890  220.8810 C   0  0  0  0  0  0  0  0  0  0  0  0
  142.7320   72.7090  220.7130 C   0  0  0  0  0  0  0  0  0  0  0  0
  138.7180   75.6670  221.3400 N   0  0  0  0  0  0  0  0  0  0  0  0
  137.9870   75.9700  222.5870 C   0  0  0  0  0  0  0  0  0  0  0  0
  137.2870   77.2420  222.3080 C   0  0  0  0  0  0  0  0  0  0  0  0
  136.3140   77.8810  223.0790 C   0  0  0  0  0  0  0  0  0  0  0  0
  135.7880   79.0990  222.6180 C   0  0  0  0  0  0  0  0  0  0  0  0
  136.2460   79.6540  221.4070 C   0  0  0  0  0  0  0  0  0  0  0  0
  137.2310   78.9940  220.6560 C   0  0  0  0  0  0  0  0  0  0  0  0
  137.7310   77.7800  221.1340 C   0  0  0  0  0  0  0  0  0  0  0  0
  138.8050   76.9320  220.5580 C   0  0  1  0  0  0  0  0  0  0  0  0
  140.1280   77.6620  220.6790 C   0  0  0  0  0  0  0  0  0  0  0  0
  141.1390   77.7400  219.7190 C   0  0  0  0  0  0  0  0  0  0  0  0
  142.1770   78.4740  220.1810 N   0  0  0  0  0  0  0  0  0  0  0  0
  141.8360   78.8570  221.4220 C   0  0  0  0  0  0  0  0  0  0  0  0
  142.5920   79.6350  222.2990 C   0  0  0  0  0  0  0  0  0  0  0  0
  142.0410   79.9240  223.5610 C   0  0  0  0  0  0  0  0  0  0  0  0
  140.7650   79.4350  223.9150 C   0  0  0  0  0  0  0  0  0  0  0  0
  140.0250   78.6520  223.0090 C   0  0  0  0  0  0  0  0  0  0  0  0
  140.5960   78.3810  221.7630 C   0  0  0  0  0  0  0  0  0  0  0  0
  140.4760   73.6560  219.5199 H   0  0  0  0  0  0  0  0  0  0  0  0
  141.0456   75.3785  219.4514 H   0  0  0  0  0  0  0  0  0  0  0  0
  143.3141   75.8888  219.5869 H   0  0  0  0  0  0  0  0  0  0  0  0
  145.6713   75.1290  219.8833 H   0  0  0  0  0  0  0  0  0  0  0  0
  146.1482   72.8223  220.7086 H   0  0  0  0  0  0  0  0  0  0  0  0
  144.2654   71.2748  221.2506 H   0  0  0  0  0  0  0  0  0  0  0  0
  141.9054   72.0251  220.9560 H   0  0  0  0  0  0  0  0  0  0  0  0
  137.2658   75.1722  222.8182 H   0  0  0  0  0  0  0  0  0  0  0  0
  138.6569   76.0440  223.4563 H   0  0  0  0  0  0  0  0  0  0  0  0
  135.9674   77.4407  224.0256 H   0  0  0  0  0  0  0  0  0  0  0  0
  135.0168   79.6206  223.2038 H   0  0  0  0  0  0  0  0  0  0  0  0
  135.8304   80.6075  221.0489 H   0  0  0  0  0  0  0  0  0  0  0  0
  137.6008   79.4226  219.7129 H   0  0  0  0  0  0  0  0  0  0  0  0
  138.7066   76.7119  219.4847 H   0  0  0  0  0  0  0  0  0  0  0  0
  141.0971   77.2700  218.7254 H   0  0  0  0  0  0  0  0  0  0  0  0
  143.0610   78.6940  219.6710 H   0  0  0  0  0  0  0  0  0  0  0  0
  143.5859   80.0101  222.0134 H   0  0  0  0  0  0  0  0  0  0  0  0
  142.6090   80.5358  224.2773 H   0  0  0  0  0  0  0  0  0  0  0  0
  140.3462   79.6673  224.9053 H   0  0  0  0  0  0  0  0  0  0  0  0
  139.0295   78.2660  223.2735 H   0  0  0  0  0  0  0  0  0  0  0  0
  1  2  2  0
  2  3  2  0
  2  4  1  0
  4  5  1  0
  5  6  2  0
  6  7  1  0
  7  8  2  0
  8  9  1  0
  9 10  2  0
  2 11  1  0
 11 12  1  0
 12 13  1  0
 13 14  2  0
 14 15  1  0
 15 16  2  0
 16 17  1  0
 17 18  2  0
 18 19  1  0
 19 20  1  0
 20 21  2  0
 21 22  1  0
 22 23  1  0
 23 24  2  0
 24 25  1  0
 25 26  2  0
 26 27  1  0
 27 28  2  0
 10  5  1  0
 19 11  1  0
 28 20  1  0
 18 13  1  0
 28 23  1  0
  4 29  1  0
  4 30  1  0
  6 31  1  0
  7 32  1  0
  8 33  1  0
  9 34  1  0
 10 35  1  0
 12 36  1  0
 12 37  1  0
 14 38  1  0
 15 39  1  0
 16 40  1  0
 17 41  1  0
 19 42  1  6
 21 43  1  0
 22 44  1  0
 24 45  1  0
 25 46  1  0
 26 47  1  0
 27 48  1  0
M  END
>  <UniqueID>  (6) 
5

>  <SMILES>  (6) 
O=S(=O)(Cc1ccccc1)N1Cc2ccccc2[C@H]1c1c[nH]c2ccccc12

>  <Energy>  (6) 
91.48008314365012

>  <Genealogy>  (6) 
O=S(=O)(Cc1ccccc1)N1Cc2ccccc2[C@H]1c1c[nH]c2ccccc12 (chirality)
O=S(=O)(Cc1ccccc1)N1Cc2ccccc2[C@H]1c1c[nH]c2ccccc12 (3D coordinates assigned)
O=S(=O)(Cc1ccccc1)N1Cc2ccccc2[C@H]1c1c[nH]c2ccccc12 (nonaromatic ring conformer: 91.48008314365012 kcal/mol)

>  <smiles>  (6) 
O=S(=O)(Cc1ccccc1)N1Cc2ccccc2C1c1c[nH]c2ccccc12

>  <score_type>  (6) 
oracle

>  <origin>  (6) 
autodockgpu

>  <m_score__min__energy>  (6) 
-7.29

>  <m_primary>  (6) 
energy

>  <meeko>  (6) 
{"free_energy": -7.15, "intermolecular_energy": -8.35, "internal_energy": -1.96, "cluster_size": 14, "cluster_id": 1, "rank_in_cluster": 14}

>  <energy>  (6) 
-7.27

>  <cluster_rmsd>  (6) 
0.02

>  <rmsd>  (6) 
271.34

>  <cluster>  (6) 
1

$$$$
WCZRIPJXOMUAPT-QHCPKHFHNA-N
     RDKit          3D

 48 52  0  0  0  0  0  0  0  0999 V2000
  141.1640   75.5780  222.3470 O   0  0  0  0  0  0  0  0  0  0  0  0
  140.2240   74.6900  221.5810 S   0  0  0  0  0  0  0  0  0  0  0  0
  139.9710   73.4420  222.3820 O   0  0  0  0  0  0  0  0  0  0  0  0
  141.0370   74.2610  220.0450 C   0  0  0  0  0  0  0  0  0  0  0  0
  142.4780   73.8820  220.2550 C   0  0  0  0  0  0  0  0  0  0  0  0
  143.4860   74.8610  220.2070 C   0  0  0  0  0  0  0  0  0  0  0  0
  144.8250   74.5040  220.3910 C   0  0  0  0  0  0  0  0  0  0  0  0
  145.1680   73.1710  220.6290 C   0  0  0  0  0  0  0  0  0  0  0  0
  144.1720   72.1930  220.6900 C   0  0  0  0  0  0  0  0  0  0  0  0
  142.8320   72.5450  220.5080 C   0  0  0  0  0  0  0  0  0  0  0  0
  138.7260   75.5480  221.2770 N   0  0  0  0  0  0  0  0  0  0  0  0
  137.9650   75.8620  222.5030 C   0  0  0  0  0  0  0  0  0  0  0  0
  137.2640   77.1260  222.1920 C   0  0  0  0  0  0  0  0  0  0  0  0
  136.2710   77.7690  222.9330 C   0  0  0  0  0  0  0  0  0  0  0  0
  135.7490   78.9780  222.4450 C   0  0  0  0  0  0  0  0  0  0  0  0
  136.2320   79.5210  221.2380 C   0  0  0  0  0  0  0  0  0  0  0  0
  137.2380   78.8580  220.5180 C   0  0  0  0  0  0  0  0  0  0  0  0
  137.7330   77.6520  221.0220 C   0  0  0  0  0  0  0  0  0  0  0  0
  138.8250   76.8030  220.4820 C   0  0  1  0  0  0  0  0  0  0  0  0
  140.1400   77.5430  220.6250 C   0  0  0  0  0  0  0  0  0  0  0  0
  141.1730   77.6140  219.6880 C   0  0  0  0  0  0  0  0  0  0  0  0
  142.1960   78.3590  220.1650 N   0  0  0  0  0  0  0  0  0  0  0  0
  141.8240   78.7570  221.3930 C   0  0  0  0  0  0  0  0  0  0  0  0
  142.5550   79.5500  222.2770 C   0  0  0  0  0  0  0  0  0  0  0  0
  141.9730   79.8520  223.5220 C   0  0  0  0  0  0  0  0  0  0  0  0
  140.6910   79.3600  223.8520 C   0  0  0  0  0  0  0  0  0  0  0  0
  139.9780   78.5610  222.9390 C   0  0  0  0  0  0  0  0  0  0  0  0
  140.5790   78.2780  221.7110 C   0  0  0  0  0  0  0  0  0  0  0  0
  140.5090   73.4102  219.5896 H   0  0  0  0  0  0  0  0  0  0  0  0
  141.0106   75.1438  219.3892 H   0  0  0  0  0  0  0  0  0  0  0  0
  143.2198   75.9125  220.0238 H   0  0  0  0  0  0  0  0  0  0  0  0
  145.6096   75.2738  220.3483 H   0  0  0  0  0  0  0  0  0  0  0  0
  146.2226   72.8911  220.7684 H   0  0  0  0  0  0  0  0  0  0  0  0
  144.4431   71.1443  220.8816 H   0  0  0  0  0  0  0  0  0  0  0  0
  142.0507   71.7727  220.5629 H   0  0  0  0  0  0  0  0  0  0  0  0
  137.2435   75.0627  222.7278 H   0  0  0  0  0  0  0  0  0  0  0  0
  138.6144   75.9510  223.3863 H   0  0  0  0  0  0  0  0  0  0  0  0
  135.9058   77.3387  223.8772 H   0  0  0  0  0  0  0  0  0  0  0  0
  134.9614   79.5021  223.0063 H   0  0  0  0  0  0  0  0  0  0  0  0
  135.8194   80.4675  220.8587 H   0  0  0  0  0  0  0  0  0  0  0  0
  137.6278   79.2778  219.5789 H   0  0  0  0  0  0  0  0  0  0  0  0
  138.7540   76.5683  219.4097 H   0  0  0  0  0  0  0  0  0  0  0  0
  141.1569   77.1313  218.6997 H   0  0  0  0  0  0  0  0  0  0  0  0
  143.0910   78.5780  219.6730 H   0  0  0  0  0  0  0  0  0  0  0  0
  143.5533   79.9269  222.0099 H   0  0  0  0  0  0  0  0  0  0  0  0
  142.5207   80.4759  224.2436 H   0  0  0  0  0  0  0  0  0  0  0  0
  140.2471   79.6028  224.8287 H   0  0  0  0  0  0  0  0  0  0  0  0
  138.9790   78.1718  223.1850 H   0  0  0  0  0  0  0  0  0  0  0  0
  1  2  2  0
  2  3  2  0
  2  4  1  0
  4  5  1  0
  5  6  2  0
  6  7  1  0
  7  8  2  0
  8  9  1  0
  9 10  2  0
  2 11  1  0
 11 12  1  0
 12 13  1  0
 13 14  2  0
 14 15  1  0
 15 16  2  0
 16 17  1  0
 17 18  2  0
 18 19  1  0
 19 20  1  0
 20 21  2  0
 21 22  1  0
 22 23  1  0
 23 24  2  0
 24 25  1  0
 25 26  2  0
 26 27  1  0
 27 28  2  0
 10  5  1  0
 19 11  1  0
 28 20  1  0
 18 13  1  0
 28 23  1  0
  4 29  1  0
  4 30  1  0
  6 31  1  0
  7 32  1  0
  8 33  1  0
  9 34  1  0
 10 35  1  0
 12 36  1  0
 12 37  1  0
 14 38  1  0
 15 39  1  0
 16 40  1  0
 17 41  1  0
 19 42  1  6
 21 43  1  0
 22 44  1  0
 24 45  1  0
 25 46  1  0
 26 47  1  0
 27 48  1  0
M  END
>  <UniqueID>  (7) 
5

>  <SMILES>  (7) 
O=S(=O)(Cc1ccccc1)N1Cc2ccccc2[C@H]1c1c[nH]c2ccccc12

>  <Energy>  (7) 
91.48008314365012

>  <Genealogy>  (7) 
O=S(=O)(Cc1ccccc1)N1Cc2ccccc2[C@H]1c1c[nH]c2ccccc12 (chirality)
O=S(=O)(Cc1ccccc1)N1Cc2ccccc2[C@H]1c1c[nH]c2ccccc12 (3D coordinates assigned)
O=S(=O)(Cc1ccccc1)N1Cc2ccccc2[C@H]1c1c[nH]c2ccccc12 (nonaromatic ring conformer: 91.48008314365012 kcal/mol)

>  <smiles>  (7) 
O=S(=O)(Cc1ccccc1)N1Cc2ccccc2C1c1c[nH]c2ccccc12

>  <score_type>  (7) 
oracle

>  <origin>  (7) 
autodockgpu

>  <m_score__min__energy>  (7) 
-7.29

>  <m_primary>  (7) 
energy

>  <meeko>  (7) 
{"free_energy": -7.27, "intermolecular_energy": -8.47, "internal_energy": -1.96, "cluster_size": 14, "cluster_id": 1, "rank_in_cluster": 4}

>  <energy>  (7) 
-7.27

>  <cluster_rmsd>  (7) 
0.03

>  <rmsd>  (7) 
271.34

>  <cluster>  (7) 
1

$$$$
WCZRIPJXOMUAPT-QHCPKHFHNA-N
     RDKit          3D

 48 52  0  0  0  0  0  0  0  0999 V2000
  141.1660   75.6150  222.3450 O   0  0  0  0  0  0  0  0  0  0  0  0
  140.2270   74.7260  221.5790 S   0  0  0  0  0  0  0  0  0  0  0  0
  139.9770   73.4770  222.3790 O   0  0  0  0  0  0  0  0  0  0  0  0
  141.0380   74.3000  220.0400 C   0  0  0  0  0  0  0  0  0  0  0  0
  142.4790   73.9200  220.2480 C   0  0  0  0  0  0  0  0  0  0  0  0
  142.8310   72.5870  220.5250 C   0  0  0  0  0  0  0  0  0  0  0  0
  144.1700   72.2400  220.7290 C   0  0  0  0  0  0  0  0  0  0  0  0
  145.1670   73.2160  220.6520 C   0  0  0  0  0  0  0  0  0  0  0  0
  144.8270   74.5410  220.3650 C   0  0  0  0  0  0  0  0  0  0  0  0
  143.4900   74.8930  220.1600 C   0  0  0  0  0  0  0  0  0  0  0  0
  138.7270   75.5810  221.2790 N   0  0  0  0  0  0  0  0  0  0  0  0
  137.9680   75.8940  222.5060 C   0  0  0  0  0  0  0  0  0  0  0  0
  137.2650   77.1580  222.1970 C   0  0  0  0  0  0  0  0  0  0  0  0
  136.2720   77.7990  222.9400 C   0  0  0  0  0  0  0  0  0  0  0  0
  135.7470   79.0070  222.4530 C   0  0  0  0  0  0  0  0  0  0  0  0
  136.2260   79.5510  221.2450 C   0  0  0  0  0  0  0  0  0  0  0  0
  137.2320   78.8890  220.5220 C   0  0  0  0  0  0  0  0  0  0  0  0
  137.7290   77.6840  221.0260 C   0  0  0  0  0  0  0  0  0  0  0  0
  138.8210   76.8370  220.4830 C   0  0  1  0  0  0  0  0  0  0  0  0
  140.1360   77.5780  220.6220 C   0  0  0  0  0  0  0  0  0  0  0  0
  141.1670   77.6500  219.6830 C   0  0  0  0  0  0  0  0  0  0  0  0
  142.1900   78.3970  220.1570 N   0  0  0  0  0  0  0  0  0  0  0  0
  141.8200   78.7950  221.3860 C   0  0  0  0  0  0  0  0  0  0  0  0
  142.5510   79.5910  222.2670 C   0  0  0  0  0  0  0  0  0  0  0  0
  141.9720   79.8940  223.5130 C   0  0  0  0  0  0  0  0  0  0  0  0
  140.6910   79.4000  223.8460 C   0  0  0  0  0  0  0  0  0  0  0  0
  139.9760   78.5990  222.9360 C   0  0  0  0  0  0  0  0  0  0  0  0
  140.5760   78.3150  221.7060 C   0  0  0  0  0  0  0  0  0  0  0  0
  140.5091   73.4505  219.5833 H   0  0  0  0  0  0  0  0  0  0  0  0
  141.0110   75.1840  219.3859 H   0  0  0  0  0  0  0  0  0  0  0  0
  142.0500   71.8144  220.5814 H   0  0  0  0  0  0  0  0  0  0  0  0
  144.4391   71.1967  220.9506 H   0  0  0  0  0  0  0  0  0  0  0  0
  146.2193   72.9416  220.8172 H   0  0  0  0  0  0  0  0  0  0  0  0
  145.6129   75.3079  220.3004 H   0  0  0  0  0  0  0  0  0  0  0  0
  143.2276   75.9359  219.9288 H   0  0  0  0  0  0  0  0  0  0  0  0
  137.2475   75.0940  222.7317 H   0  0  0  0  0  0  0  0  0  0  0  0
  138.6191   75.9834  223.3881 H   0  0  0  0  0  0  0  0  0  0  0  0
  135.9093   77.3679  223.8848 H   0  0  0  0  0  0  0  0  0  0  0  0
  134.9598   79.5297  223.0161 H   0  0  0  0  0  0  0  0  0  0  0  0
  135.8110   80.4969  220.8669 H   0  0  0  0  0  0  0  0  0  0  0  0
  137.6192   79.3089  219.5819 H   0  0  0  0  0  0  0  0  0  0  0  0
  138.7464   76.6031  219.4108 H   0  0  0  0  0  0  0  0  0  0  0  0
  141.1496   77.1664  218.6952 H   0  0  0  0  0  0  0  0  0  0  0  0
  143.0830   78.6170  219.6640 H   0  0  0  0  0  0  0  0  0  0  0  0
  143.5478   79.9697  221.9967 H   0  0  0  0  0  0  0  0  0  0  0  0
  142.5204   80.5196  224.2326 H   0  0  0  0  0  0  0  0  0  0  0  0
  140.2492   79.6432  224.8236 H   0  0  0  0  0  0  0  0  0  0  0  0
  138.9778   78.2093  223.1846 H   0  0  0  0  0  0  0  0  0  0  0  0
  1  2  2  0
  2  3  2  0
  2  4  1  0
  4  5  1  0
  5  6  2  0
  6  7  1  0
  7  8  2  0
  8  9  1  0
  9 10  2  0
  2 11  1  0
 11 12  1  0
 12 13  1  0
 13 14  2  0
 14 15  1  0
 15 16  2  0
 16 17  1  0
 17 18  2  0
 18 19  1  0
 19 20  1  0
 20 21  2  0
 21 22  1  0
 22 23  1  0
 23 24  2  0
 24 25  1  0
 25 26  2  0
 26 27  1  0
 27 28  2  0
 10  5  1  0
 19 11  1  0
 28 20  1  0
 18 13  1  0
 28 23  1  0
  4 29  1  0
  4 30  1  0
  6 31  1  0
  7 32  1  0
  8 33  1  0
  9 34  1  0
 10 35  1  0
 12 36  1  0
 12 37  1  0
 14 38  1  0
 15 39  1  0
 16 40  1  0
 17 41  1  0
 19 42  1  6
 21 43  1  0
 22 44  1  0
 24 45  1  0
 25 46  1  0
 26 47  1  0
 27 48  1  0
M  END
>  <UniqueID>  (8) 
5

>  <SMILES>  (8) 
O=S(=O)(Cc1ccccc1)N1Cc2ccccc2[C@H]1c1c[nH]c2ccccc12

>  <Energy>  (8) 
91.48008314365012

>  <Genealogy>  (8) 
O=S(=O)(Cc1ccccc1)N1Cc2ccccc2[C@H]1c1c[nH]c2ccccc12 (chirality)
O=S(=O)(Cc1ccccc1)N1Cc2ccccc2[C@H]1c1c[nH]c2ccccc12 (3D coordinates assigned)
O=S(=O)(Cc1ccccc1)N1Cc2ccccc2[C@H]1c1c[nH]c2ccccc12 (nonaromatic ring conformer: 91.48008314365012 kcal/mol)

>  <smiles>  (8) 
O=S(=O)(Cc1ccccc1)N1Cc2ccccc2C1c1c[nH]c2ccccc12

>  <score_type>  (8) 
oracle

>  <origin>  (8) 
autodockgpu

>  <m_score__min__energy>  (8) 
-7.29

>  <m_primary>  (8) 
energy

>  <meeko>  (8) 
{"free_energy": -7.29, "intermolecular_energy": -8.48, "internal_energy": -1.97, "cluster_size": 14, "cluster_id": 1, "rank_in_cluster": 1}

>  <energy>  (8) 
-7.27

>  <cluster_rmsd>  (8) 
0.04

>  <rmsd>  (8) 
271.34

>  <cluster>  (8) 
1

$$$$
WCZRIPJXOMUAPT-QHCPKHFHNA-N
     RDKit          3D

 48 52  0  0  0  0  0  0  0  0999 V2000
  138.8010   77.6640  219.4200 O   0  0  0  0  0  0  0  0  0  0  0  0
  140.2020   77.2770  219.0340 S   0  0  0  0  0  0  0  0  0  0  0  0
  140.4510   77.7020  217.6130 O   0  0  0  0  0  0  0  0  0  0  0  0
  140.3100   75.4940  219.1550 C   0  0  0  0  0  0  0  0  0  0  0  0
  141.6680   75.0400  219.6160 C   0  0  0  0  0  0  0  0  0  0  0  0
  141.8030   73.8780  220.3960 C   0  0  0  0  0  0  0  0  0  0  0  0
  143.0650   73.4660  220.8330 C   0  0  0  0  0  0  0  0  0  0  0  0
  144.2010   74.2040  220.4900 C   0  0  0  0  0  0  0  0  0  0  0  0
  144.0770   75.3530  219.7050 C   0  0  0  0  0  0  0  0  0  0  0  0
  142.8180   75.7690  219.2650 C   0  0  0  0  0  0  0  0  0  0  0  0
  141.3410   78.0470  220.1220 N   0  0  0  0  0  0  0  0  0  0  0  0
  141.2230   79.5190  220.1570 C   0  0  0  0  0  0  0  0  0  0  0  0
  141.6150   79.8900  221.5340 C   0  0  0  0  0  0  0  0  0  0  0  0
  141.8530   81.1650  222.0500 C   0  0  0  0  0  0  0  0  0  0  0  0
  142.2080   81.2820  223.4040 C   0  0  0  0  0  0  0  0  0  0  0  0
  142.3120   80.1320  224.2110 C   0  0  0  0  0  0  0  0  0  0  0  0
  142.0580   78.8630  223.6670 C   0  0  0  0  0  0  0  0  0  0  0  0
  141.7150   78.7750  222.3150 C   0  0  0  0  0  0  0  0  0  0  0  0
  141.3470   77.5680  221.5320 C   0  0  1  0  0  0  0  0  0  0  0  0
  140.0130   77.0460  222.0300 C   0  0  0  0  0  0  0  0  0  0  0  0
  139.6710   75.7160  222.2850 C   0  0  0  0  0  0  0  0  0  0  0  0
  138.3910   75.6290  222.7120 N   0  0  0  0  0  0  0  0  0  0  0  0
  137.9180   76.8870  222.7260 C   0  0  0  0  0  0  0  0  0  0  0  0
  136.6400   77.3000  223.0990 C   0  0  0  0  0  0  0  0  0  0  0  0
  136.3530   78.6770  223.0430 C   0  0  0  0  0  0  0  0  0  0  0  0
  137.3370   79.5970  222.6200 C   0  0  0  0  0  0  0  0  0  0  0  0
  138.6190   79.1500  222.2490 C   0  0  0  0  0  0  0  0  0  0  0  0
  138.8760   77.7790  222.3150 C   0  0  0  0  0  0  0  0  0  0  0  0
  139.5552   75.1407  219.8729 H   0  0  0  0  0  0  0  0  0  0  0  0
  140.1345   75.0750  218.1532 H   0  0  0  0  0  0  0  0  0  0  0  0
  140.9120   73.2909  220.6633 H   0  0  0  0  0  0  0  0  0  0  0  0
  143.1642   72.5593  221.4479 H   0  0  0  0  0  0  0  0  0  0  0  0
  145.1930   73.8802  220.8381 H   0  0  0  0  0  0  0  0  0  0  0  0
  144.9723   75.9312  219.4329 H   0  0  0  0  0  0  0  0  0  0  0  0
  142.7260   76.6705  218.6414 H   0  0  0  0  0  0  0  0  0  0  0  0
  141.8994   79.9807  219.4226 H   0  0  0  0  0  0  0  0  0  0  0  0
  140.2094   79.8632  219.9039 H   0  0  0  0  0  0  0  0  0  0  0  0
  141.7647   82.0565  221.4117 H   0  0  0  0  0  0  0  0  0  0  0  0
  142.4053   82.2744  223.8354 H   0  0  0  0  0  0  0  0  0  0  0  0
  142.5930   80.2286  225.2701 H   0  0  0  0  0  0  0  0  0  0  0  0
  142.1273   77.9592  224.2902 H   0  0  0  0  0  0  0  0  0  0  0  0
  142.0338   76.7144  221.6305 H   0  0  0  0  0  0  0  0  0  0  0  0
  140.3484   74.8589  222.1564 H   0  0  0  0  0  0  0  0  0  0  0  0
  137.8790   74.7580  222.9760 H   0  0  0  0  0  0  0  0  0  0  0  0
  135.8810   76.5741  223.4262 H   0  0  0  0  0  0  0  0  0  0  0  0
  135.3549   79.0389  223.3309 H   0  0  0  0  0  0  0  0  0  0  0  0
  137.1001   80.6704  222.5801 H   0  0  0  0  0  0  0  0  0  0  0  0
  139.3933   79.8576  221.9178 H   0  0  0  0  0  0  0  0  0  0  0  0
  1  2  2  0
  2  3  2  0
  2  4  1  0
  4  5  1  0
  5  6  2  0
  6  7  1  0
  7  8  2  0
  8  9  1  0
  9 10  2  0
  2 11  1  0
 11 12  1  0
 12 13  1  0
 13 14  2  0
 14 15  1  0
 15 16  2  0
 16 17  1  0
 17 18  2  0
 18 19  1  0
 19 20  1  0
 20 21  2  0
 21 22  1  0
 22 23  1  0
 23 24  2  0
 24 25  1  0
 25 26  2  0
 26 27  1  0
 27 28  2  0
 10  5  1  0
 19 11  1  0
 28 20  1  0
 18 13  1  0
 28 23  1  0
  4 29  1  0
  4 30  1  0
  6 31  1  0
  7 32  1  0
  8 33  1  0
  9 34  1  0
 10 35  1  0
 12 36  1  0
 12 37  1  0
 14 38  1  0
 15 39  1  0
 16 40  1  0
 17 41  1  0
 19 42  1  6
 21 43  1  0
 22 44  1  0
 24 45  1  0
 25 46  1  0
 26 47  1  0
 27 48  1  0
M  END
>  <UniqueID>  (9) 
5

>  <SMILES>  (9) 
O=S(=O)(Cc1ccccc1)N1Cc2ccccc2[C@H]1c1c[nH]c2ccccc12

>  <Energy>  (9) 
91.48008314365012

>  <Genealogy>  (9) 
O=S(=O)(Cc1ccccc1)N1Cc2ccccc2[C@H]1c1c[nH]c2ccccc12 (chirality)
O=S(=O)(Cc1ccccc1)N1Cc2ccccc2[C@H]1c1c[nH]c2ccccc12 (3D coordinates assigned)
O=S(=O)(Cc1ccccc1)N1Cc2ccccc2[C@H]1c1c[nH]c2ccccc12 (nonaromatic ring conformer: 91.48008314365012 kcal/mol)

>  <smiles>  (9) 
O=S(=O)(Cc1ccccc1)N1Cc2ccccc2C1c1c[nH]c2ccccc12

>  <score_type>  (9) 
oracle

>  <origin>  (9) 
autodockgpu

>  <m_score__min__energy>  (9) 
-7.29

>  <m_primary>  (9) 
energy

>  <meeko>  (9) 
{"free_energy": -6.92, "intermolecular_energy": -8.11, "internal_energy": -2.14, "cluster_size": 3, "cluster_id": 2, "rank_in_cluster": 1}

>  <energy>  (9) 
-7.27

>  <cluster_rmsd>  (9) 
0.03

>  <rmsd>  (9) 
271.33

>  <cluster>  (9) 
1

$$$$
WCZRIPJXOMUAPT-QHCPKHFHNA-N
     RDKit          3D

 48 52  0  0  0  0  0  0  0  0999 V2000
  141.1600   75.5250  222.3400 O   0  0  0  0  0  0  0  0  0  0  0  0
  140.2100   74.6270  221.5990 S   0  0  0  0  0  0  0  0  0  0  0  0
  139.9620   73.3940  222.4230 O   0  0  0  0  0  0  0  0  0  0  0  0
  141.0040   74.1710  220.0610 C   0  0  0  0  0  0  0  0  0  0  0  0
  142.4650   73.8630  220.2490 C   0  0  0  0  0  0  0  0  0  0  0  0
  143.4170   74.8970  220.2430 C   0  0  0  0  0  0  0  0  0  0  0  0
  144.7740   74.6070  220.4060 C   0  0  0  0  0  0  0  0  0  0  0  0
  145.1920   73.2850  220.5840 C   0  0  0  0  0  0  0  0  0  0  0  0
  144.2510   72.2520  220.6040 C   0  0  0  0  0  0  0  0  0  0  0  0
  142.8930   72.5380  220.4410 C   0  0  0  0  0  0  0  0  0  0  0  0
  138.7100   75.4840  221.2980 N   0  0  0  0  0  0  0  0  0  0  0  0
  137.9490   75.7940  222.5240 C   0  0  0  0  0  0  0  0  0  0  0  0
  137.2470   77.0590  222.2160 C   0  0  0  0  0  0  0  0  0  0  0  0
  136.2530   77.6980  222.9590 C   0  0  0  0  0  0  0  0  0  0  0  0
  135.7290   78.9080  222.4730 C   0  0  0  0  0  0  0  0  0  0  0  0
  136.2110   79.4550  221.2670 C   0  0  0  0  0  0  0  0  0  0  0  0
  137.2180   78.7940  220.5460 C   0  0  0  0  0  0  0  0  0  0  0  0
  137.7140   77.5880  221.0470 C   0  0  0  0  0  0  0  0  0  0  0  0
  138.8070   76.7410  220.5050 C   0  0  1  0  0  0  0  0  0  0  0  0
  140.1220   77.4820  220.6480 C   0  0  0  0  0  0  0  0  0  0  0  0
  141.1660   77.5330  219.7230 C   0  0  0  0  0  0  0  0  0  0  0  0
  142.1840   78.2870  220.1970 N   0  0  0  0  0  0  0  0  0  0  0  0
  141.7980   78.7090  221.4120 C   0  0  0  0  0  0  0  0  0  0  0  0
  142.5180   79.5200  222.2880 C   0  0  0  0  0  0  0  0  0  0  0  0
  141.9220   79.8480  223.5200 C   0  0  0  0  0  0  0  0  0  0  0  0
  140.6360   79.3640  223.8440 C   0  0  0  0  0  0  0  0  0  0  0  0
  139.9320   78.5480  222.9390 C   0  0  0  0  0  0  0  0  0  0  0  0
  140.5480   78.2390  221.7240 C   0  0  0  0  0  0  0  0  0  0  0  0
  140.5031   73.2805  219.6534 H   0  0  0  0  0  0  0  0  0  0  0  0
  140.9232   75.0243  219.3715 H   0  0  0  0  0  0  0  0  0  0  0  0
  143.0922   75.9394  220.1093 H   0  0  0  0  0  0  0  0  0  0  0  0
  145.5146   75.4202  220.3943 H   0  0  0  0  0  0  0  0  0  0  0  0
  146.2611   73.0579  220.7083 H   0  0  0  0  0  0  0  0  0  0  0  0
  144.5798   71.2123  220.7483 H   0  0  0  0  0  0  0  0  0  0  0  0
  142.1554   71.7223  220.4630 H   0  0  0  0  0  0  0  0  0  0  0  0
  137.2279   74.9937  222.7465 H   0  0  0  0  0  0  0  0  0  0  0  0
  138.5982   75.8810  223.4078 H   0  0  0  0  0  0  0  0  0  0  0  0
  135.8886   77.2649  223.9022 H   0  0  0  0  0  0  0  0  0  0  0  0
  134.9405   79.4295  223.0354 H   0  0  0  0  0  0  0  0  0  0  0  0
  135.7973   80.4019  220.8898 H   0  0  0  0  0  0  0  0  0  0  0  0
  137.6076   79.2161  219.6079 H   0  0  0  0  0  0  0  0  0  0  0  0
  138.7353   76.5083  219.4323 H   0  0  0  0  0  0  0  0  0  0  0  0
  141.1615   77.0300  218.7447 H   0  0  0  0  0  0  0  0  0  0  0  0
  143.0850   78.4940  219.7120 H   0  0  0  0  0  0  0  0  0  0  0  0
  143.5194   79.8915  222.0248 H   0  0  0  0  0  0  0  0  0  0  0  0
  142.4618   80.4858  224.2354 H   0  0  0  0  0  0  0  0  0  0  0  0
  140.1811   79.6265  224.8105 H   0  0  0  0  0  0  0  0  0  0  0  0
  138.9292   78.1659  223.1806 H   0  0  0  0  0  0  0  0  0  0  0  0
  1  2  2  0
  2  3  2  0
  2  4  1  0
  4  5  1  0
  5  6  2  0
  6  7  1  0
  7  8  2  0
  8  9  1  0
  9 10  2  0
  2 11  1  0
 11 12  1  0
 12 13  1  0
 13 14  2  0
 14 15  1  0
 15 16  2  0
 16 17  1  0
 17 18  2  0
 18 19  1  0
 19 20  1  0
 20 21  2  0
 21 22  1  0
 22 23  1  0
 23 24  2  0
 24 25  1  0
 25 26  2  0
 26 27  1  0
 27 28  2  0
 10  5  1  0
 19 11  1  0
 28 20  1  0
 18 13  1  0
 28 23  1  0
  4 29  1  0
  4 30  1  0
  6 31  1  0
  7 32  1  0
  8 33  1  0
  9 34  1  0
 10 35  1  0
 12 36  1  0
 12 37  1  0
 14 38  1  0
 15 39  1  0
 16 40  1  0
 17 41  1  0
 19 42  1  6
 21 43  1  0
 22 44  1  0
 24 45  1  0
 25 46  1  0
 26 47  1  0
 27 48  1  0
M  END
>  <UniqueID>  (10) 
5

>  <SMILES>  (10) 
O=S(=O)(Cc1ccccc1)N1Cc2ccccc2[C@H]1c1c[nH]c2ccccc12

>  <Energy>  (10) 
91.48008314365012

>  <Genealogy>  (10) 
O=S(=O)(Cc1ccccc1)N1Cc2ccccc2[C@H]1c1c[nH]c2ccccc12 (chirality)
O=S(=O)(Cc1ccccc1)N1Cc2ccccc2[C@H]1c1c[nH]c2ccccc12 (3D coordinates assigned)
O=S(=O)(Cc1ccccc1)N1Cc2ccccc2[C@H]1c1c[nH]c2ccccc12 (nonaromatic ring conformer: 91.48008314365012 kcal/mol)

>  <smiles>  (10) 
O=S(=O)(Cc1ccccc1)N1Cc2ccccc2C1c1c[nH]c2ccccc12

>  <score_type>  (10) 
oracle

>  <origin>  (10) 
autodockgpu

>  <m_score__min__energy>  (10) 
-7.29

>  <m_primary>  (10) 
energy

>  <meeko>  (10) 
{"free_energy": -7.26, "intermolecular_energy": -8.46, "internal_energy": -1.96, "cluster_size": 14, "cluster_id": 1, "rank_in_cluster": 12}

>  <energy>  (10) 
-7.27

>  <cluster_rmsd>  (10) 
0.03

>  <rmsd>  (10) 
271.33

>  <cluster>  (10) 
1

$$$$
WCZRIPJXOMUAPT-QHCPKHFHNA-N
     RDKit          3D

 48 52  0  0  0  0  0  0  0  0999 V2000
  141.1580   75.6140  222.3410 O   0  0  0  0  0  0  0  0  0  0  0  0
  140.2170   74.7350  221.5670 S   0  0  0  0  0  0  0  0  0  0  0  0
  139.9620   73.4800  222.3560 O   0  0  0  0  0  0  0  0  0  0  0  0
  141.0290   74.3190  220.0260 C   0  0  0  0  0  0  0  0  0  0  0  0
  142.4670   73.9290  220.2320 C   0  0  0  0  0  0  0  0  0  0  0  0
  143.4850   74.8970  220.1600 C   0  0  0  0  0  0  0  0  0  0  0  0
  144.8210   74.5290  220.3400 C   0  0  0  0  0  0  0  0  0  0  0  0
  145.1520   73.1970  220.6010 C   0  0  0  0  0  0  0  0  0  0  0  0
  144.1470   72.2310  220.6860 C   0  0  0  0  0  0  0  0  0  0  0  0
  142.8090   72.5940  220.5070 C   0  0  0  0  0  0  0  0  0  0  0  0
  138.7200   75.5980  221.2720 N   0  0  0  0  0  0  0  0  0  0  0  0
  137.9670   75.9150  222.5020 C   0  0  0  0  0  0  0  0  0  0  0  0
  137.2700   77.1820  222.1950 C   0  0  0  0  0  0  0  0  0  0  0  0
  136.2830   77.8280  222.9410 C   0  0  0  0  0  0  0  0  0  0  0  0
  135.7620   79.0390  222.4560 C   0  0  0  0  0  0  0  0  0  0  0  0
  136.2390   79.5800  221.2450 C   0  0  0  0  0  0  0  0  0  0  0  0
  137.2390   78.9120  220.5200 C   0  0  0  0  0  0  0  0  0  0  0  0
  137.7320   77.7050  221.0210 C   0  0  0  0  0  0  0  0  0  0  0  0
  138.8180   76.8520  220.4750 C   0  0  1  0  0  0  0  0  0  0  0  0
  140.1370   77.5870  220.6090 C   0  0  0  0  0  0  0  0  0  0  0  0
  141.1620   77.6590  219.6630 C   0  0  0  0  0  0  0  0  0  0  0  0
  142.1910   78.3990  220.1340 N   0  0  0  0  0  0  0  0  0  0  0  0
  141.8310   78.7940  221.3670 C   0  0  0  0  0  0  0  0  0  0  0  0
  142.5710   79.5820  222.2470 C   0  0  0  0  0  0  0  0  0  0  0  0
  142.0020   79.8810  223.4980 C   0  0  0  0  0  0  0  0  0  0  0  0
  140.7210   79.3920  223.8370 C   0  0  0  0  0  0  0  0  0  0  0  0
  139.9970   78.5990  222.9280 C   0  0  0  0  0  0  0  0  0  0  0  0
  140.5870   78.3170  221.6940 C   0  0  0  0  0  0  0  0  0  0  0  0
  140.4962   73.4768  219.5603 H   0  0  0  0  0  0  0  0  0  0  0  0
  141.0085   75.2097  219.3809 H   0  0  0  0  0  0  0  0  0  0  0  0
  143.2284   75.9480  219.9612 H   0  0  0  0  0  0  0  0  0  0  0  0
  145.6134   75.2893  220.2761 H   0  0  0  0  0  0  0  0  0  0  0  0
  146.2045   72.9090  220.7396 H   0  0  0  0  0  0  0  0  0  0  0  0
  144.4087   71.1830  220.8941 H   0  0  0  0  0  0  0  0  0  0  0  0
  142.0201   71.8311  220.5818 H   0  0  0  0  0  0  0  0  0  0  0  0
  137.2432   75.1188  222.7305 H   0  0  0  0  0  0  0  0  0  0  0  0
  138.6215   76.0010  223.3819 H   0  0  0  0  0  0  0  0  0  0  0  0
  135.9214   77.3987  223.8870 H   0  0  0  0  0  0  0  0  0  0  0  0
  134.9802   79.5662  223.0224 H   0  0  0  0  0  0  0  0  0  0  0  0
  135.8271   80.5274  220.8671 H   0  0  0  0  0  0  0  0  0  0  0  0
  137.6254   79.3299  219.5787 H   0  0  0  0  0  0  0  0  0  0  0  0
  138.7391   76.6172  219.4033 H   0  0  0  0  0  0  0  0  0  0  0  0
  141.1358   77.1804  218.6729 H   0  0  0  0  0  0  0  0  0  0  0  0
  143.0830   78.6170  219.6360 H   0  0  0  0  0  0  0  0  0  0  0  0
  143.5676   79.9578  221.9720 H   0  0  0  0  0  0  0  0  0  0  0  0
  142.5584   80.4999  224.2173 H   0  0  0  0  0  0  0  0  0  0  0  0
  140.2865   79.6328  224.8184 H   0  0  0  0  0  0  0  0  0  0  0  0
  138.9983   78.2135  223.1811 H   0  0  0  0  0  0  0  0  0  0  0  0
  1  2  2  0
  2  3  2  0
  2  4  1  0
  4  5  1  0
  5  6  2  0
  6  7  1  0
  7  8  2  0
  8  9  1  0
  9 10  2  0
  2 11  1  0
 11 12  1  0
 12 13  1  0
 13 14  2  0
 14 15  1  0
 15 16  2  0
 16 17  1  0
 17 18  2  0
 18 19  1  0
 19 20  1  0
 20 21  2  0
 21 22  1  0
 22 23  1  0
 23 24  2  0
 24 25  1  0
 25 26  2  0
 26 27  1  0
 27 28  2  0
 10  5  1  0
 19 11  1  0
 28 20  1  0
 18 13  1  0
 28 23  1  0
  4 29  1  0
  4 30  1  0
  6 31  1  0
  7 32  1  0
  8 33  1  0
  9 34  1  0
 10 35  1  0
 12 36  1  0
 12 37  1  0
 14 38  1  0
 15 39  1  0
 16 40  1  0
 17 41  1  0
 19 42  1  6
 21 43  1  0
 22 44  1  0
 24 45  1  0
 25 46  1  0
 26 47  1  0
 27 48  1  0
M  END
>  <UniqueID>  (11) 
5

>  <SMILES>  (11) 
O=S(=O)(Cc1ccccc1)N1Cc2ccccc2[C@H]1c1c[nH]c2ccccc12

>  <Energy>  (11) 
91.48008314365012

>  <Genealogy>  (11) 
O=S(=O)(Cc1ccccc1)N1Cc2ccccc2[C@H]1c1c[nH]c2ccccc12 (chirality)
O=S(=O)(Cc1ccccc1)N1Cc2ccccc2[C@H]1c1c[nH]c2ccccc12 (3D coordinates assigned)
O=S(=O)(Cc1ccccc1)N1Cc2ccccc2[C@H]1c1c[nH]c2ccccc12 (nonaromatic ring conformer: 91.48008314365012 kcal/mol)

>  <smiles>  (11) 
O=S(=O)(Cc1ccccc1)N1Cc2ccccc2C1c1c[nH]c2ccccc12

>  <score_type>  (11) 
oracle

>  <origin>  (11) 
autodockgpu

>  <m_score__min__energy>  (11) 
-7.29

>  <m_primary>  (11) 
energy

>  <meeko>  (11) 
{"free_energy": -7.27, "intermolecular_energy": -8.46, "internal_energy": -1.97, "cluster_size": 14, "cluster_id": 1, "rank_in_cluster": 10}

>  <energy>  (11) 
-7.27

>  <cluster_rmsd>  (11) 
0.04

>  <rmsd>  (11) 
271.35

>  <cluster>  (11) 
1

$$$$
WCZRIPJXOMUAPT-QHCPKHFHNA-N
     RDKit          3D

 48 52  0  0  0  0  0  0  0  0999 V2000
  139.7380   74.5980  222.3400 O   0  0  0  0  0  0  0  0  0  0  0  0
  139.3410   75.8720  221.6480 S   0  0  0  0  0  0  0  0  0  0  0  0
  137.8630   75.8380  221.3760 O   0  0  0  0  0  0  0  0  0  0  0  0
  140.2350   75.9330  220.0980 C   0  0  0  0  0  0  0  0  0  0  0  0
  141.6180   75.3530  220.2210 C   0  0  0  0  0  0  0  0  0  0  0  0
  141.7960   74.0110  220.5990 C   0  0  0  0  0  0  0  0  0  0  0  0
  143.0830   73.4790  220.7240 C   0  0  0  0  0  0  0  0  0  0  0  0
  144.2000   74.2780  220.4660 C   0  0  0  0  0  0  0  0  0  0  0  0
  144.0320   75.6090  220.0770 C   0  0  0  0  0  0  0  0  0  0  0  0
  142.7480   76.1460  219.9510 C   0  0  0  0  0  0  0  0  0  0  0  0
  139.7550   77.2410  222.6630 N   0  0  0  0  0  0  0  0  0  0  0  0
  141.2040   77.3760  222.9130 C   0  0  0  0  0  0  0  0  0  0  0  0
  141.4220   78.8310  223.0570 C   0  0  0  0  0  0  0  0  0  0  0  0
  142.5740   79.4950  223.4820 C   0  0  0  0  0  0  0  0  0  0  0  0
  142.5580   80.8980  223.5340 C   0  0  0  0  0  0  0  0  0  0  0  0
  141.3990   81.6070  223.1580 C   0  0  0  0  0  0  0  0  0  0  0  0
  140.2570   80.9140  222.7260 C   0  0  0  0  0  0  0  0  0  0  0  0
  140.2990   79.5180  222.6920 C   0  0  0  0  0  0  0  0  0  0  0  0
  139.2530   78.5730  222.2240 C   0  0  1  0  0  0  0  0  0  0  0  0
  139.0870   78.7250  220.7240 C   0  0  0  0  0  0  0  0  0  0  0  0
  137.9060   78.6010  219.9900 C   0  0  0  0  0  0  0  0  0  0  0  0
  138.1430   78.7980  218.6730 N   0  0  0  0  0  0  0  0  0  0  0  0
  139.4600   79.0420  218.5660 C   0  0  0  0  0  0  0  0  0  0  0  0
  140.1730   79.3070  217.3970 C   0  0  0  0  0  0  0  0  0  0  0  0
  141.5560   79.5390  217.5100 C   0  0  0  0  0  0  0  0  0  0  0  0
  142.1870   79.5010  218.7730 C   0  0  0  0  0  0  0  0  0  0  0  0
  141.4420   79.2300  219.9350 C   0  0  0  0  0  0  0  0  0  0  0  0
  140.0710   79.0040  219.7930 C   0  0  0  0  0  0  0  0  0  0  0  0
  139.6759   75.3608  219.3430 H   0  0  0  0  0  0  0  0  0  0  0  0
  140.3344   76.9885  219.8047 H   0  0  0  0  0  0  0  0  0  0  0  0
  140.9194   73.3768  220.7973 H   0  0  0  0  0  0  0  0  0  0  0  0
  143.2164   72.4297  221.0259 H   0  0  0  0  0  0  0  0  0  0  0  0
  145.2117   73.8588  220.5693 H   0  0  0  0  0  0  0  0  0  0  0  0
  144.9120   76.2356  219.8695 H   0  0  0  0  0  0  0  0  0  0  0  0
  142.6204   77.1932  219.6394 H   0  0  0  0  0  0  0  0  0  0  0  0
  141.4904   76.8471  223.8340 H   0  0  0  0  0  0  0  0  0  0  0  0
  141.8098   76.9408  222.1045 H   0  0  0  0  0  0  0  0  0  0  0  0
  143.4740   78.9318  223.7697 H   0  0  0  0  0  0  0  0  0  0  0  0
  143.4517   81.4451  223.8688 H   0  0  0  0  0  0  0  0  0  0  0  0
  141.3894   82.7060  223.2032 H   0  0  0  0  0  0  0  0  0  0  0  0
  139.3504   81.4575  222.4214 H   0  0  0  0  0  0  0  0  0  0  0  0
  138.2464   78.7434  222.6336 H   0  0  0  0  0  0  0  0  0  0  0  0
  136.9202   78.3747  220.4224 H   0  0  0  0  0  0  0  0  0  0  0  0
  137.4410   78.7660  217.9010 H   0  0  0  0  0  0  0  0  0  0  0  0
  139.6705   79.3337  216.4188 H   0  0  0  0  0  0  0  0  0  0  0  0
  142.1498   79.7514  216.6087 H   0  0  0  0  0  0  0  0  0  0  0  0
  143.2689   79.6847  218.8485 H   0  0  0  0  0  0  0  0  0  0  0  0
  141.9235   79.1971  220.9235 H   0  0  0  0  0  0  0  0  0  0  0  0
  1  2  2  0
  2  3  2  0
  2  4  1  0
  4  5  1  0
  5  6  2  0
  6  7  1  0
  7  8  2  0
  8  9  1  0
  9 10  2  0
  2 11  1  0
 11 12  1  0
 12 13  1  0
 13 14  2  0
 14 15  1  0
 15 16  2  0
 16 17  1  0
 17 18  2  0
 18 19  1  0
 19 20  1  0
 20 21  2  0
 21 22  1  0
 22 23  1  0
 23 24  2  0
 24 25  1  0
 25 26  2  0
 26 27  1  0
 27 28  2  0
 10  5  1  0
 19 11  1  0
 28 20  1  0
 18 13  1  0
 28 23  1  0
  4 29  1  0
  4 30  1  0
  6 31  1  0
  7 32  1  0
  8 33  1  0
  9 34  1  0
 10 35  1  0
 12 36  1  0
 12 37  1  0
 14 38  1  0
 15 39  1  0
 16 40  1  0
 17 41  1  0
 19 42  1  1
 21 43  1  0
 22 44  1  0
 24 45  1  0
 25 46  1  0
 26 47  1  0
 27 48  1  0
M  END
>  <UniqueID>  (12) 
5

>  <SMILES>  (12) 
O=S(=O)(Cc1ccccc1)N1Cc2ccccc2[C@H]1c1c[nH]c2ccccc12

>  <Energy>  (12) 
91.48008314365012

>  <Genealogy>  (12) 
O=S(=O)(Cc1ccccc1)N1Cc2ccccc2[C@H]1c1c[nH]c2ccccc12 (chirality)
O=S(=O)(Cc1ccccc1)N1Cc2ccccc2[C@H]1c1c[nH]c2ccccc12 (3D coordinates assigned)
O=S(=O)(Cc1ccccc1)N1Cc2ccccc2[C@H]1c1c[nH]c2ccccc12 (nonaromatic ring conformer: 91.48008314365012 kcal/mol)

>  <smiles>  (12) 
O=S(=O)(Cc1ccccc1)N1Cc2ccccc2C1c1c[nH]c2ccccc12

>  <score_type>  (12) 
oracle

>  <origin>  (12) 
autodockgpu

>  <m_score__min__energy>  (12) 
-7.29

>  <m_primary>  (12) 
energy

>  <meeko>  (12) 
{"free_energy": -6.75, "intermolecular_energy": -7.94, "internal_energy": -2.22, "cluster_size": 2, "cluster_id": 3, "rank_in_cluster": 1}

>  <energy>  (12) 
-7.26

>  <cluster_rmsd>  (12) 
0.1

>  <rmsd>  (12) 
271.32

>  <cluster>  (12) 
1

$$$$
WCZRIPJXOMUAPT-QHCPKHFHNA-N
     RDKit          3D

 48 52  0  0  0  0  0  0  0  0999 V2000
  139.1460   75.0240  221.7970 O   0  0  0  0  0  0  0  0  0  0  0  0
  140.1600   76.1300  221.7220 S   0  0  0  0  0  0  0  0  0  0  0  0
  141.4510   75.6490  222.3260 O   0  0  0  0  0  0  0  0  0  0  0  0
  139.5220   77.4980  222.6840 C   0  0  0  0  0  0  0  0  0  0  0  0
  140.4840   78.6550  222.7290 C   0  0  0  0  0  0  0  0  0  0  0  0
  141.6820   78.5560  223.4570 C   0  0  0  0  0  0  0  0  0  0  0  0
  142.5680   79.6360  223.5060 C   0  0  0  0  0  0  0  0  0  0  0  0
  142.2690   80.8190  222.8250 C   0  0  0  0  0  0  0  0  0  0  0  0
  141.0860   80.9210  222.0880 C   0  0  0  0  0  0  0  0  0  0  0  0
  140.1980   79.8440  222.0360 C   0  0  0  0  0  0  0  0  0  0  0  0
  140.3940   76.5970  220.0490 N   0  0  0  0  0  0  0  0  0  0  0  0
  141.4840   77.5730  219.8540 C   0  0  0  0  0  0  0  0  0  0  0  0
  142.0220   77.2660  218.5110 C   0  0  0  0  0  0  0  0  0  0  0  0
  142.9420   78.0000  217.7600 C   0  0  0  0  0  0  0  0  0  0  0  0
  143.3200   77.5080  216.4990 C   0  0  0  0  0  0  0  0  0  0  0  0
  142.7800   76.2980  216.0200 C   0  0  0  0  0  0  0  0  0  0  0  0
  141.8630   75.5760  216.8020 C   0  0  0  0  0  0  0  0  0  0  0  0
  141.4990   76.0930  218.0470 C   0  0  0  0  0  0  0  0  0  0  0  0
  140.6040   75.4940  219.0700 C   0  0  1  0  0  0  0  0  0  0  0  0
  141.2690   74.2570  219.6430 C   0  0  0  0  0  0  0  0  0  0  0  0
  140.6680   73.0250  219.9100 C   0  0  0  0  0  0  0  0  0  0  0  0
  141.5710   72.1590  220.4220 N   0  0  0  0  0  0  0  0  0  0  0  0
  142.7340   72.8280  220.4850 C   0  0  0  0  0  0  0  0  0  0  0  0
  143.9580   72.3460  220.9460 C   0  0  0  0  0  0  0  0  0  0  0  0
  145.0600   73.2210  220.9230 C   0  0  0  0  0  0  0  0  0  0  0  0
  144.9140   74.5420  220.4460 C   0  0  0  0  0  0  0  0  0  0  0  0
  143.6660   75.0010  219.9870 C   0  0  0  0  0  0  0  0  0  0  0  0
  142.5900   74.1110  220.0210 C   0  0  0  0  0  0  0  0  0  0  0  0
  138.5780   77.8387  222.2337 H   0  0  0  0  0  0  0  0  0  0  0  0
  139.3677   77.1451  223.7144 H   0  0  0  0  0  0  0  0  0  0  0  0
  141.9235   77.6248  223.9904 H   0  0  0  0  0  0  0  0  0  0  0  0
  143.5019   79.5546  224.0814 H   0  0  0  0  0  0  0  0  0  0  0  0
  142.9647   81.6699  222.8690 H   0  0  0  0  0  0  0  0  0  0  0  0
  140.8538   81.8508  221.5480 H   0  0  0  0  0  0  0  0  0  0  0  0
  139.2707   79.9267  221.4501 H   0  0  0  0  0  0  0  0  0  0  0  0
  141.0958   78.6016  219.8913 H   0  0  0  0  0  0  0  0  0  0  0  0
  142.2525   77.5030  220.6379 H   0  0  0  0  0  0  0  0  0  0  0  0
  143.3610   78.9410  218.1461 H   0  0  0  0  0  0  0  0  0  0  0  0
  144.0393   78.0690  215.8844 H   0  0  0  0  0  0  0  0  0  0  0  0
  143.0771   75.9178  215.0315 H   0  0  0  0  0  0  0  0  0  0  0  0
  141.4417   74.6258  216.4420 H   0  0  0  0  0  0  0  0  0  0  0  0
  139.6321   75.1396  218.6961 H   0  0  0  0  0  0  0  0  0  0  0  0
  139.6083   72.7919  219.7291 H   0  0  0  0  0  0  0  0  0  0  0  0
  141.3940   71.1700  220.7090 H   0  0  0  0  0  0  0  0  0  0  0  0
  144.0593   71.3150  221.3158 H   0  0  0  0  0  0  0  0  0  0  0  0
  146.0412   72.8737  221.2788 H   0  0  0  0  0  0  0  0  0  0  0  0
  145.7824   75.2170  220.4332 H   0  0  0  0  0  0  0  0  0  0  0  0
  143.5415   76.0280  219.6132 H   0  0  0  0  0  0  0  0  0  0  0  0
  1  2  2  0
  2  3  2  0
  2  4  1  0
  4  5  1  0
  5  6  2  0
  6  7  1  0
  7  8  2  0
  8  9  1  0
  9 10  2  0
  2 11  1  0
 11 12  1  0
 12 13  1  0
 13 14  2  0
 14 15  1  0
 15 16  2  0
 16 17  1  0
 17 18  2  0
 18 19  1  0
 19 20  1  0
 20 21  2  0
 21 22  1  0
 22 23  1  0
 23 24  2  0
 24 25  1  0
 25 26  2  0
 26 27  1  0
 27 28  2  0
 10  5  1  0
 19 11  1  0
 28 20  1  0
 18 13  1  0
 28 23  1  0
  4 29  1  0
  4 30  1  0
  6 31  1  0
  7 32  1  0
  8 33  1  0
  9 34  1  0
 10 35  1  0
 12 36  1  0
 12 37  1  0
 14 38  1  0
 15 39  1  0
 16 40  1  0
 17 41  1  0
 19 42  1  6
 21 43  1  0
 22 44  1  0
 24 45  1  0
 25 46  1  0
 26 47  1  0
 27 48  1  0
M  END
>  <UniqueID>  (13) 
5

>  <SMILES>  (13) 
O=S(=O)(Cc1ccccc1)N1Cc2ccccc2[C@H]1c1c[nH]c2ccccc12

>  <Energy>  (13) 
91.48008314365012

>  <Genealogy>  (13) 
O=S(=O)(Cc1ccccc1)N1Cc2ccccc2[C@H]1c1c[nH]c2ccccc12 (chirality)
O=S(=O)(Cc1ccccc1)N1Cc2ccccc2[C@H]1c1c[nH]c2ccccc12 (3D coordinates assigned)
O=S(=O)(Cc1ccccc1)N1Cc2ccccc2[C@H]1c1c[nH]c2ccccc12 (nonaromatic ring conformer: 91.48008314365012 kcal/mol)

>  <smiles>  (13) 
O=S(=O)(Cc1ccccc1)N1Cc2ccccc2C1c1c[nH]c2ccccc12

>  <score_type>  (13) 
oracle

>  <origin>  (13) 
autodockgpu

>  <m_score__min__energy>  (13) 
-7.29

>  <m_primary>  (13) 
energy

>  <meeko>  (13) 
{"free_energy": -6.74, "intermolecular_energy": -7.93, "internal_energy": -2.1, "cluster_size": 1, "cluster_id": 4, "rank_in_cluster": 1}

>  <energy>  (13) 
-7.18

>  <cluster_rmsd>  (13) 
0.16

>  <rmsd>  (13) 
271.41

>  <cluster>  (13) 
1

$$$$
WCZRIPJXOMUAPT-QHCPKHFHNA-N
     RDKit          3D

 48 52  0  0  0  0  0  0  0  0999 V2000
  141.1570   75.6090  222.3490 O   0  0  0  0  0  0  0  0  0  0  0  0
  140.2110   74.7340  221.5760 S   0  0  0  0  0  0  0  0  0  0  0  0
  139.9590   73.4760  222.3610 O   0  0  0  0  0  0  0  0  0  0  0  0
  141.0130   74.3250  220.0290 C   0  0  0  0  0  0  0  0  0  0  0  0
  142.4510   73.9260  220.2260 C   0  0  0  0  0  0  0  0  0  0  0  0
  142.7870   72.5890  220.5020 C   0  0  0  0  0  0  0  0  0  0  0  0
  144.1220   72.2250  220.6970 C   0  0  0  0  0  0  0  0  0  0  0  0
  145.1310   73.1870  220.6110 C   0  0  0  0  0  0  0  0  0  0  0  0
  144.8070   74.5160  220.3250 C   0  0  0  0  0  0  0  0  0  0  0  0
  143.4740   74.8860  220.1290 C   0  0  0  0  0  0  0  0  0  0  0  0
  138.7130   75.6010  221.2930 N   0  0  0  0  0  0  0  0  0  0  0  0
  137.9700   75.9170  222.5290 C   0  0  0  0  0  0  0  0  0  0  0  0
  137.2720   77.1860  222.2290 C   0  0  0  0  0  0  0  0  0  0  0  0
  136.2920   77.8330  222.9840 C   0  0  0  0  0  0  0  0  0  0  0  0
  135.7710   79.0450  222.5050 C   0  0  0  0  0  0  0  0  0  0  0  0
  136.2400   79.5880  221.2920 C   0  0  0  0  0  0  0  0  0  0  0  0
  137.2330   78.9190  220.5580 C   0  0  0  0  0  0  0  0  0  0  0  0
  137.7280   77.7110  221.0540 C   0  0  0  0  0  0  0  0  0  0  0  0
  138.8080   76.8570  220.4980 C   0  0  1  0  0  0  0  0  0  0  0  0
  140.1290   77.5890  220.6240 C   0  0  0  0  0  0  0  0  0  0  0  0
  141.1490   77.6580  219.6720 C   0  0  0  0  0  0  0  0  0  0  0  0
  142.1820   78.3960  220.1370 N   0  0  0  0  0  0  0  0  0  0  0  0
  141.8310   78.7920  221.3710 C   0  0  0  0  0  0  0  0  0  0  0  0
  142.5780   79.5790  222.2470 C   0  0  0  0  0  0  0  0  0  0  0  0
  142.0160   79.8800  223.5010 C   0  0  0  0  0  0  0  0  0  0  0  0
  140.7360   79.3940  223.8480 C   0  0  0  0  0  0  0  0  0  0  0  0
  140.0050   78.6010  222.9430 C   0  0  0  0  0  0  0  0  0  0  0  0
  140.5870   78.3180  221.7060 C   0  0  0  0  0  0  0  0  0  0  0  0
  140.4738   73.4888  219.5599 H   0  0  0  0  0  0  0  0  0  0  0  0
  140.9939   75.2202  219.3900 H   0  0  0  0  0  0  0  0  0  0  0  0
  141.9963   71.8268  220.5647 H   0  0  0  0  0  0  0  0  0  0  0  0
  144.3788   71.1786  220.9187 H   0  0  0  0  0  0  0  0  0  0  0  0
  146.1808   72.8985  220.7684 H   0  0  0  0  0  0  0  0  0  0  0  0
  145.6028   75.2721  220.2541 H   0  0  0  0  0  0  0  0  0  0  0  0
  143.2239   75.9320  219.8980 H   0  0  0  0  0  0  0  0  0  0  0  0
  137.2469   75.1214  222.7619 H   0  0  0  0  0  0  0  0  0  0  0  0
  138.6313   76.0008  223.4040 H   0  0  0  0  0  0  0  0  0  0  0  0
  135.9365   77.4030  223.9320 H   0  0  0  0  0  0  0  0  0  0  0  0
  134.9943   79.5726  223.0780 H   0  0  0  0  0  0  0  0  0  0  0  0
  135.8277   80.5373  220.9196 H   0  0  0  0  0  0  0  0  0  0  0  0
  137.6123   79.3370  219.6138 H   0  0  0  0  0  0  0  0  0  0  0  0
  138.7209   76.6247  219.4263 H   0  0  0  0  0  0  0  0  0  0  0  0
  141.1163   77.1789  218.6824 H   0  0  0  0  0  0  0  0  0  0  0  0
  143.0710   78.6120  219.6330 H   0  0  0  0  0  0  0  0  0  0  0  0
  143.5740   79.9522  221.9666 H   0  0  0  0  0  0  0  0  0  0  0  0
  142.5776   80.4984  224.2166 H   0  0  0  0  0  0  0  0  0  0  0  0
  140.3075   79.6366  224.8316 H   0  0  0  0  0  0  0  0  0  0  0  0
  139.0074   78.2168  223.2022 H   0  0  0  0  0  0  0  0  0  0  0  0
  1  2  2  0
  2  3  2  0
  2  4  1  0
  4  5  1  0
  5  6  2  0
  6  7  1  0
  7  8  2  0
  8  9  1  0
  9 10  2  0
  2 11  1  0
 11 12  1  0
 12 13  1  0
 13 14  2  0
 14 15  1  0
 15 16  2  0
 16 17  1  0
 17 18  2  0
 18 19  1  0
 19 20  1  0
 20 21  2  0
 21 22  1  0
 22 23  1  0
 23 24  2  0
 24 25  1  0
 25 26  2  0
 26 27  1  0
 27 28  2  0
 10  5  1  0
 19 11  1  0
 28 20  1  0
 18 13  1  0
 28 23  1  0
  4 29  1  0
  4 30  1  0
  6 31  1  0
  7 32  1  0
  8 33  1  0
  9 34  1  0
 10 35  1  0
 12 36  1  0
 12 37  1  0
 14 38  1  0
 15 39  1  0
 16 40  1  0
 17 41  1  0
 19 42  1  6
 21 43  1  0
 22 44  1  0
 24 45  1  0
 25 46  1  0
 26 47  1  0
 27 48  1  0
M  END
>  <UniqueID>  (14) 
5

>  <SMILES>  (14) 
O=S(=O)(Cc1ccccc1)N1Cc2ccccc2[C@H]1c1c[nH]c2ccccc12

>  <Energy>  (14) 
91.48008314365012

>  <Genealogy>  (14) 
O=S(=O)(Cc1ccccc1)N1Cc2ccccc2[C@H]1c1c[nH]c2ccccc12 (chirality)
O=S(=O)(Cc1ccccc1)N1Cc2ccccc2[C@H]1c1c[nH]c2ccccc12 (3D coordinates assigned)
O=S(=O)(Cc1ccccc1)N1Cc2ccccc2[C@H]1c1c[nH]c2ccccc12 (nonaromatic ring conformer: 91.48008314365012 kcal/mol)

>  <smiles>  (14) 
O=S(=O)(Cc1ccccc1)N1Cc2ccccc2C1c1c[nH]c2ccccc12

>  <score_type>  (14) 
oracle

>  <origin>  (14) 
autodockgpu

>  <m_score__min__energy>  (14) 
-7.29

>  <m_primary>  (14) 
energy

>  <meeko>  (14) 
{"free_energy": -7.27, "intermolecular_energy": -8.47, "internal_energy": -1.97, "cluster_size": 14, "cluster_id": 1, "rank_in_cluster": 5}

>  <energy>  (14) 
-7.15

>  <cluster_rmsd>  (14) 
0.14

>  <rmsd>  (14) 
271.4

>  <cluster>  (14) 
1

$$$$
WCZRIPJXOMUAPT-QHCPKHFHNA-N
     RDKit          3D

 48 52  0  0  0  0  0  0  0  0999 V2000
  139.7790   74.5850  222.3370 O   0  0  0  0  0  0  0  0  0  0  0  0
  139.3470   75.8420  221.6350 S   0  0  0  0  0  0  0  0  0  0  0  0
  137.8660   75.7720  221.3780 O   0  0  0  0  0  0  0  0  0  0  0  0
  140.2240   75.9050  220.0760 C   0  0  0  0  0  0  0  0  0  0  0  0
  141.6110   75.3330  220.1850 C   0  0  0  0  0  0  0  0  0  0  0  0
  141.7980   73.9720  220.4830 C   0  0  0  0  0  0  0  0  0  0  0  0
  143.0880   73.4460  220.5960 C   0  0  0  0  0  0  0  0  0  0  0  0
  144.2000   74.2700  220.4040 C   0  0  0  0  0  0  0  0  0  0  0  0
  144.0230   75.6210  220.0950 C   0  0  0  0  0  0  0  0  0  0  0  0
  142.7360   76.1510  219.9810 C   0  0  0  0  0  0  0  0  0  0  0  0
  139.7380   77.2310  222.6300 N   0  0  0  0  0  0  0  0  0  0  0  0
  141.1800   77.3630  222.9220 C   0  0  0  0  0  0  0  0  0  0  0  0
  141.4040   78.8200  223.0390 C   0  0  0  0  0  0  0  0  0  0  0  0
  142.5480   79.4850  223.4830 C   0  0  0  0  0  0  0  0  0  0  0  0
  142.5390   80.8900  223.5030 C   0  0  0  0  0  0  0  0  0  0  0  0
  141.3980   81.5970  223.0750 C   0  0  0  0  0  0  0  0  0  0  0  0
  140.2650   80.9010  222.6250 C   0  0  0  0  0  0  0  0  0  0  0  0
  140.2980   79.5040  222.6240 C   0  0  0  0  0  0  0  0  0  0  0  0
  139.2600   78.5560  222.1450 C   0  0  1  0  0  0  0  0  0  0  0  0
  139.1420   78.6740  220.6380 C   0  0  0  0  0  0  0  0  0  0  0  0
  137.9920   78.4920  219.8670 C   0  0  0  0  0  0  0  0  0  0  0  0
  138.2680   78.6740  218.5550 N   0  0  0  0  0  0  0  0  0  0  0  0
  139.5770   78.9650  218.4880 C   0  0  0  0  0  0  0  0  0  0  0  0
  140.3210   79.2360  217.3400 C   0  0  0  0  0  0  0  0  0  0  0  0
  141.6900   79.5220  217.4960 C   0  0  0  0  0  0  0  0  0  0  0  0
  142.2770   79.5310  218.7800 C   0  0  0  0  0  0  0  0  0  0  0  0
  141.5020   79.2540  219.9210 C   0  0  0  0  0  0  0  0  0  0  0  0
  140.1460   78.9730  219.7360 C   0  0  0  0  0  0  0  0  0  0  0  0
  139.6601   75.3284  219.3280 H   0  0  0  0  0  0  0  0  0  0  0  0
  140.3146   76.9606  219.7800 H   0  0  0  0  0  0  0  0  0  0  0  0
  140.9254   73.3182  220.6279 H   0  0  0  0  0  0  0  0  0  0  0  0
  143.2280   72.3818  220.8364 H   0  0  0  0  0  0  0  0  0  0  0  0
  145.2146   73.8551  220.4961 H   0  0  0  0  0  0  0  0  0  0  0  0
  144.8989   76.2684  219.9412 H   0  0  0  0  0  0  0  0  0  0  0  0
  142.6019   77.2136  219.7304 H   0  0  0  0  0  0  0  0  0  0  0  0
  141.4339   76.8540  223.8635 H   0  0  0  0  0  0  0  0  0  0  0  0
  141.8074   76.9053  222.1430 H   0  0  0  0  0  0  0  0  0  0  0  0
  143.4353   78.9227  223.8094 H   0  0  0  0  0  0  0  0  0  0  0  0
  143.4251   81.4393  223.8538 H   0  0  0  0  0  0  0  0  0  0  0  0
  141.3949   82.6968  223.0935 H   0  0  0  0  0  0  0  0  0  0  0  0
  139.3717   81.4429  222.2811 H   0  0  0  0  0  0  0  0  0  0  0  0
  138.2424   78.7432  222.5186 H   0  0  0  0  0  0  0  0  0  0  0  0
  137.0008   78.2365  220.2698 H   0  0  0  0  0  0  0  0  0  0  0  0
  137.5950   78.6010  217.7600 H   0  0  0  0  0  0  0  0  0  0  0  0
  139.8528   79.2265  216.3446 H   0  0  0  0  0  0  0  0  0  0  0  0
  142.3069   79.7400  216.6117 H   0  0  0  0  0  0  0  0  0  0  0  0
  143.3481   79.7562  218.8891 H   0  0  0  0  0  0  0  0  0  0  0  0
  141.9491   79.2585  220.9260 H   0  0  0  0  0  0  0  0  0  0  0  0
  1  2  2  0
  2  3  2  0
  2  4  1  0
  4  5  1  0
  5  6  2  0
  6  7  1  0
  7  8  2  0
  8  9  1  0
  9 10  2  0
  2 11  1  0
 11 12  1  0
 12 13  1  0
 13 14  2  0
 14 15  1  0
 15 16  2  0
 16 17  1  0
 17 18  2  0
 18 19  1  0
 19 20  1  0
 20 21  2  0
 21 22  1  0
 22 23  1  0
 23 24  2  0
 24 25  1  0
 25 26  2  0
 26 27  1  0
 27 28  2  0
 10  5  1  0
 19 11  1  0
 28 20  1  0
 18 13  1  0
 28 23  1  0
  4 29  1  0
  4 30  1  0
  6 31  1  0
  7 32  1  0
  8 33  1  0
  9 34  1  0
 10 35  1  0
 12 36  1  0
 12 37  1  0
 14 38  1  0
 15 39  1  0
 16 40  1  0
 17 41  1  0
 19 42  1  1
 21 43  1  0
 22 44  1  0
 24 45  1  0
 25 46  1  0
 26 47  1  0
 27 48  1  0
M  END
>  <UniqueID>  (15) 
5

>  <SMILES>  (15) 
O=S(=O)(Cc1ccccc1)N1Cc2ccccc2[C@H]1c1c[nH]c2ccccc12

>  <Energy>  (15) 
91.48008314365012

>  <Genealogy>  (15) 
O=S(=O)(Cc1ccccc1)N1Cc2ccccc2[C@H]1c1c[nH]c2ccccc12 (chirality)
O=S(=O)(Cc1ccccc1)N1Cc2ccccc2[C@H]1c1c[nH]c2ccccc12 (3D coordinates assigned)
O=S(=O)(Cc1ccccc1)N1Cc2ccccc2[C@H]1c1c[nH]c2ccccc12 (nonaromatic ring conformer: 91.48008314365012 kcal/mol)

>  <smiles>  (15) 
O=S(=O)(Cc1ccccc1)N1Cc2ccccc2C1c1c[nH]c2ccccc12

>  <score_type>  (15) 
oracle

>  <origin>  (15) 
autodockgpu

>  <m_score__min__energy>  (15) 
-7.29

>  <m_primary>  (15) 
energy

>  <meeko>  (15) 
{"free_energy": -6.74, "intermolecular_energy": -7.93, "internal_energy": -2.2, "cluster_size": 2, "cluster_id": 3, "rank_in_cluster": 2}

>  <energy>  (15) 
-6.92

>  <cluster_rmsd>  (15) 
0.0

>  <rmsd>  (15) 
271.54

>  <cluster>  (15) 
2

$$$$
WCZRIPJXOMUAPT-QHCPKHFHNA-N
     RDKit          3D

 48 52  0  0  0  0  0  0  0  0999 V2000
  141.1530   75.6030  222.3450 O   0  0  0  0  0  0  0  0  0  0  0  0
  140.2090   74.7280  221.5700 S   0  0  0  0  0  0  0  0  0  0  0  0
  139.9540   73.4700  222.3550 O   0  0  0  0  0  0  0  0  0  0  0  0
  141.0160   74.3170  220.0250 C   0  0  0  0  0  0  0  0  0  0  0  0
  142.4530   73.9200  220.2270 C   0  0  0  0  0  0  0  0  0  0  0  0
  142.7900   72.5830  220.5010 C   0  0  0  0  0  0  0  0  0  0  0  0
  144.1250   72.2200  220.6990 C   0  0  0  0  0  0  0  0  0  0  0  0
  145.1330   73.1840  220.6200 C   0  0  0  0  0  0  0  0  0  0  0  0
  144.8080   74.5130  220.3360 C   0  0  0  0  0  0  0  0  0  0  0  0
  143.4750   74.8810  220.1360 C   0  0  0  0  0  0  0  0  0  0  0  0
  138.7120   75.5940  221.2830 N   0  0  0  0  0  0  0  0  0  0  0  0
  137.9620   75.9060  222.5160 C   0  0  0  0  0  0  0  0  0  0  0  0
  137.2650   77.1750  222.2160 C   0  0  0  0  0  0  0  0  0  0  0  0
  136.2810   77.8190  222.9680 C   0  0  0  0  0  0  0  0  0  0  0  0
  135.7610   79.0330  222.4900 C   0  0  0  0  0  0  0  0  0  0  0  0
  136.2360   79.5790  221.2820 C   0  0  0  0  0  0  0  0  0  0  0  0
  137.2330   78.9140  220.5500 C   0  0  0  0  0  0  0  0  0  0  0  0
  137.7260   77.7040  221.0450 C   0  0  0  0  0  0  0  0  0  0  0  0
  138.8100   76.8530  220.4920 C   0  0  1  0  0  0  0  0  0  0  0  0
  140.1300   77.5850  220.6270 C   0  0  0  0  0  0  0  0  0  0  0  0
  141.1540   77.6600  219.6800 C   0  0  0  0  0  0  0  0  0  0  0  0
  142.1850   78.3970  220.1530 N   0  0  0  0  0  0  0  0  0  0  0  0
  141.8270   78.7860  221.3880 C   0  0  0  0  0  0  0  0  0  0  0  0
  142.5700   79.5690  222.2700 C   0  0  0  0  0  0  0  0  0  0  0  0
  142.0030   79.8630  223.5240 C   0  0  0  0  0  0  0  0  0  0  0  0
  140.7220   79.3740  223.8620 C   0  0  0  0  0  0  0  0  0  0  0  0
  139.9950   78.5860  222.9510 C   0  0  0  0  0  0  0  0  0  0  0  0
  140.5830   78.3100  221.7140 C   0  0  0  0  0  0  0  0  0  0  0  0
  140.4789   73.4795  219.5558 H   0  0  0  0  0  0  0  0  0  0  0  0
  140.9977   75.2109  219.3842 H   0  0  0  0  0  0  0  0  0  0  0  0
  142.0001   71.8198  220.5598 H   0  0  0  0  0  0  0  0  0  0  0  0
  144.3826   71.1731  220.9175 H   0  0  0  0  0  0  0  0  0  0  0  0
  146.1825   72.8968  220.7813 H   0  0  0  0  0  0  0  0  0  0  0  0
  145.6027   75.2706  220.2698 H   0  0  0  0  0  0  0  0  0  0  0  0
  143.2242   75.9271  219.9064 H   0  0  0  0  0  0  0  0  0  0  0  0
  137.2382   75.1093  222.7426 H   0  0  0  0  0  0  0  0  0  0  0  0
  138.6185   75.9877  223.3948 H   0  0  0  0  0  0  0  0  0  0  0  0
  135.9212   77.3858  223.9129 H   0  0  0  0  0  0  0  0  0  0  0  0
  134.9810   79.5584  223.0605 H   0  0  0  0  0  0  0  0  0  0  0  0
  135.8248   80.5293  220.9106 H   0  0  0  0  0  0  0  0  0  0  0  0
  137.6167   79.3357  219.6093 H   0  0  0  0  0  0  0  0  0  0  0  0
  138.7286   76.6246  219.4191 H   0  0  0  0  0  0  0  0  0  0  0  0
  141.1260   77.1858  218.6878 H   0  0  0  0  0  0  0  0  0  0  0  0
  143.0750   78.6150  219.6540 H   0  0  0  0  0  0  0  0  0  0  0  0
  143.5666   79.9447  221.9949 H   0  0  0  0  0  0  0  0  0  0  0  0
  142.5612   80.4776  224.2456 H   0  0  0  0  0  0  0  0  0  0  0  0
  140.2893   79.6110  224.8451 H   0  0  0  0  0  0  0  0  0  0  0  0
  138.9966   78.1999  223.2043 H   0  0  0  0  0  0  0  0  0  0  0  0
  1  2  2  0
  2  3  2  0
  2  4  1  0
  4  5  1  0
  5  6  2  0
  6  7  1  0
  7  8  2  0
  8  9  1  0
  9 10  2  0
  2 11  1  0
 11 12  1  0
 12 13  1  0
 13 14  2  0
 14 15  1  0
 15 16  2  0
 16 17  1  0
 17 18  2  0
 18 19  1  0
 19 20  1  0
 20 21  2  0
 21 22  1  0
 22 23  1  0
 23 24  2  0
 24 25  1  0
 25 26  2  0
 26 27  1  0
 27 28  2  0
 10  5  1  0
 19 11  1  0
 28 20  1  0
 18 13  1  0
 28 23  1  0
  4 29  1  0
  4 30  1  0
  6 31  1  0
  7 32  1  0
  8 33  1  0
  9 34  1  0
 10 35  1  0
 12 36  1  0
 12 37  1  0
 14 38  1  0
 15 39  1  0
 16 40  1  0
 17 41  1  0
 19 42  1  6
 21 43  1  0
 22 44  1  0
 24 45  1  0
 25 46  1  0
 26 47  1  0
 27 48  1  0
M  END
>  <UniqueID>  (16) 
5

>  <SMILES>  (16) 
O=S(=O)(Cc1ccccc1)N1Cc2ccccc2[C@H]1c1c[nH]c2ccccc12

>  <Energy>  (16) 
91.48008314365012

>  <Genealogy>  (16) 
O=S(=O)(Cc1ccccc1)N1Cc2ccccc2[C@H]1c1c[nH]c2ccccc12 (chirality)
O=S(=O)(Cc1ccccc1)N1Cc2ccccc2[C@H]1c1c[nH]c2ccccc12 (3D coordinates assigned)
O=S(=O)(Cc1ccccc1)N1Cc2ccccc2[C@H]1c1c[nH]c2ccccc12 (nonaromatic ring conformer: 91.48008314365012 kcal/mol)

>  <smiles>  (16) 
O=S(=O)(Cc1ccccc1)N1Cc2ccccc2C1c1c[nH]c2ccccc12

>  <score_type>  (16) 
oracle

>  <origin>  (16) 
autodockgpu

>  <m_score__min__energy>  (16) 
-7.29

>  <m_primary>  (16) 
energy

>  <meeko>  (16) 
{"free_energy": -7.28, "intermolecular_energy": -8.47, "internal_energy": -1.97, "cluster_size": 14, "cluster_id": 1, "rank_in_cluster": 2}

>  <energy>  (16) 
-6.91

>  <cluster_rmsd>  (16) 
0.04

>  <rmsd>  (16) 
271.54

>  <cluster>  (16) 
2

$$$$
WCZRIPJXOMUAPT-QHCPKHFHNA-N
     RDKit          3D

 48 52  0  0  0  0  0  0  0  0999 V2000
  141.1530   75.6160  222.3410 O   0  0  0  0  0  0  0  0  0  0  0  0
  140.2120   74.7360  221.5680 S   0  0  0  0  0  0  0  0  0  0  0  0
  139.9580   73.4810  222.3580 O   0  0  0  0  0  0  0  0  0  0  0  0
  141.0220   74.3190  220.0270 C   0  0  0  0  0  0  0  0  0  0  0  0
  142.4600   73.9280  220.2330 C   0  0  0  0  0  0  0  0  0  0  0  0
  143.4800   74.8920  220.1450 C   0  0  0  0  0  0  0  0  0  0  0  0
  144.8160   74.5230  220.3250 C   0  0  0  0  0  0  0  0  0  0  0  0
  145.1450   73.1930  220.6000 C   0  0  0  0  0  0  0  0  0  0  0  0
  144.1370   72.2310  220.7000 C   0  0  0  0  0  0  0  0  0  0  0  0
  142.8000   72.5950  220.5220 C   0  0  0  0  0  0  0  0  0  0  0  0
  138.7140   75.5980  221.2740 N   0  0  0  0  0  0  0  0  0  0  0  0
  137.9620   75.9150  222.5040 C   0  0  0  0  0  0  0  0  0  0  0  0
  137.2630   77.1810  222.1970 C   0  0  0  0  0  0  0  0  0  0  0  0
  136.2770   77.8270  222.9440 C   0  0  0  0  0  0  0  0  0  0  0  0
  135.7550   79.0380  222.4590 C   0  0  0  0  0  0  0  0  0  0  0  0
  136.2320   79.5790  221.2480 C   0  0  0  0  0  0  0  0  0  0  0  0
  137.2310   78.9120  220.5220 C   0  0  0  0  0  0  0  0  0  0  0  0
  137.7260   77.7050  221.0240 C   0  0  0  0  0  0  0  0  0  0  0  0
  138.8110   76.8530  220.4770 C   0  0  1  0  0  0  0  0  0  0  0  0
  140.1300   77.5880  220.6110 C   0  0  0  0  0  0  0  0  0  0  0  0
  141.1540   77.6620  219.6640 C   0  0  0  0  0  0  0  0  0  0  0  0
  142.1840   78.4020  220.1350 N   0  0  0  0  0  0  0  0  0  0  0  0
  141.8250   78.7940  221.3690 C   0  0  0  0  0  0  0  0  0  0  0  0
  142.5650   79.5810  222.2490 C   0  0  0  0  0  0  0  0  0  0  0  0
  141.9970   79.8790  223.5010 C   0  0  0  0  0  0  0  0  0  0  0  0
  140.7160   79.3890  223.8410 C   0  0  0  0  0  0  0  0  0  0  0  0
  139.9920   78.5960  222.9310 C   0  0  0  0  0  0  0  0  0  0  0  0
  140.5810   78.3170  221.6960 C   0  0  0  0  0  0  0  0  0  0  0  0
  140.4883   73.4770  219.5619 H   0  0  0  0  0  0  0  0  0  0  0  0
  141.0015   75.2092  219.3811 H   0  0  0  0  0  0  0  0  0  0  0  0
  143.2253   75.9410  219.9336 H   0  0  0  0  0  0  0  0  0  0  0  0
  145.6098   75.2808  220.2501 H   0  0  0  0  0  0  0  0  0  0  0  0
  146.1973   72.9037  220.7377 H   0  0  0  0  0  0  0  0  0  0  0  0
  144.3965   71.1848  220.9193 H   0  0  0  0  0  0  0  0  0  0  0  0
  142.0096   71.8349  220.6084 H   0  0  0  0  0  0  0  0  0  0  0  0
  137.2394   75.1181  222.7338 H   0  0  0  0  0  0  0  0  0  0  0  0
  138.6174   76.0025  223.3831 H   0  0  0  0  0  0  0  0  0  0  0  0
  135.9168   77.3980  223.8907 H   0  0  0  0  0  0  0  0  0  0  0  0
  134.9728   79.5647  223.0253 H   0  0  0  0  0  0  0  0  0  0  0  0
  135.8201   80.5267  220.8708 H   0  0  0  0  0  0  0  0  0  0  0  0
  137.6155   79.3295  219.5797 H   0  0  0  0  0  0  0  0  0  0  0  0
  138.7312   76.6189  219.4052 H   0  0  0  0  0  0  0  0  0  0  0  0
  141.1268   77.1850  218.6732 H   0  0  0  0  0  0  0  0  0  0  0  0
  143.0740   78.6210  219.6360 H   0  0  0  0  0  0  0  0  0  0  0  0
  143.5613   79.9572  221.9736 H   0  0  0  0  0  0  0  0  0  0  0  0
  142.5538   80.4976  224.2202 H   0  0  0  0  0  0  0  0  0  0  0  0
  140.2819   79.6288  224.8229 H   0  0  0  0  0  0  0  0  0  0  0  0
  138.9942   78.2085  223.1845 H   0  0  0  0  0  0  0  0  0  0  0  0
  1  2  2  0
  2  3  2  0
  2  4  1  0
  4  5  1  0
  5  6  2  0
  6  7  1  0
  7  8  2  0
  8  9  1  0
  9 10  2  0
  2 11  1  0
 11 12  1  0
 12 13  1  0
 13 14  2  0
 14 15  1  0
 15 16  2  0
 16 17  1  0
 17 18  2  0
 18 19  1  0
 19 20  1  0
 20 21  2  0
 21 22  1  0
 22 23  1  0
 23 24  2  0
 24 25  1  0
 25 26  2  0
 26 27  1  0
 27 28  2  0
 10  5  1  0
 19 11  1  0
 28 20  1  0
 18 13  1  0
 28 23  1  0
  4 29  1  0
  4 30  1  0
  6 31  1  0
  7 32  1  0
  8 33  1  0
  9 34  1  0
 10 35  1  0
 12 36  1  0
 12 37  1  0
 14 38  1  0
 15 39  1  0
 16 40  1  0
 17 41  1  0
 19 42  1  6
 21 43  1  0
 22 44  1  0
 24 45  1  0
 25 46  1  0
 26 47  1  0
 27 48  1  0
M  END
>  <UniqueID>  (17) 
5

>  <SMILES>  (17) 
O=S(=O)(Cc1ccccc1)N1Cc2ccccc2[C@H]1c1c[nH]c2ccccc12

>  <Energy>  (17) 
91.48008314365012

>  <Genealogy>  (17) 
O=S(=O)(Cc1ccccc1)N1Cc2ccccc2[C@H]1c1c[nH]c2ccccc12 (chirality)
O=S(=O)(Cc1ccccc1)N1Cc2ccccc2[C@H]1c1c[nH]c2ccccc12 (3D coordinates assigned)
O=S(=O)(Cc1ccccc1)N1Cc2ccccc2[C@H]1c1c[nH]c2ccccc12 (nonaromatic ring conformer: 91.48008314365012 kcal/mol)

>  <smiles>  (17) 
O=S(=O)(Cc1ccccc1)N1Cc2ccccc2C1c1c[nH]c2ccccc12

>  <score_type>  (17) 
oracle

>  <origin>  (17) 
autodockgpu

>  <m_score__min__energy>  (17) 
-7.29

>  <m_primary>  (17) 
energy

>  <meeko>  (17) 
{"free_energy": -7.27, "intermolecular_energy": -8.46, "internal_energy": -1.97, "cluster_size": 14, "cluster_id": 1, "rank_in_cluster": 9}

>  <energy>  (17) 
-6.91

>  <cluster_rmsd>  (17) 
0.03

>  <rmsd>  (17) 
271.54

>  <cluster>  (17) 
2

$$$$
WCZRIPJXOMUAPT-QHCPKHFHNA-N
     RDKit          3D

 48 52  0  0  0  0  0  0  0  0999 V2000
  141.2660   75.7490  222.4070 O   0  0  0  0  0  0  0  0  0  0  0  0
  140.3860   74.8500  221.5850 S   0  0  0  0  0  0  0  0  0  0  0  0
  140.1800   73.5580  222.3260 O   0  0  0  0  0  0  0  0  0  0  0  0
  141.2470   74.5280  220.0480 C   0  0  0  0  0  0  0  0  0  0  0  0
  142.6470   74.0280  220.2800 C   0  0  0  0  0  0  0  0  0  0  0  0
  142.8820   72.6690  220.5530 C   0  0  0  0  0  0  0  0  0  0  0  0
  144.1820   72.2100  220.7800 C   0  0  0  0  0  0  0  0  0  0  0  0
  145.2580   73.1000  220.7280 C   0  0  0  0  0  0  0  0  0  0  0  0
  145.0360   74.4500  220.4450 C   0  0  0  0  0  0  0  0  0  0  0  0
  143.7380   74.9140  220.2170 C   0  0  0  0  0  0  0  0  0  0  0  0
  138.8530   75.6460  221.2870 N   0  0  0  0  0  0  0  0  0  0  0  0
  138.0890   75.9380  222.5170 C   0  0  0  0  0  0  0  0  0  0  0  0
  137.3370   77.1720  222.2030 C   0  0  0  0  0  0  0  0  0  0  0  0
  136.3250   77.7800  222.9470 C   0  0  0  0  0  0  0  0  0  0  0  0
  135.7520   78.9640  222.4560 C   0  0  0  0  0  0  0  0  0  0  0  0
  136.2040   79.5180  221.2410 C   0  0  0  0  0  0  0  0  0  0  0  0
  137.2300   78.8900  220.5180 C   0  0  0  0  0  0  0  0  0  0  0  0
  137.7750   77.7080  221.0260 C   0  0  0  0  0  0  0  0  0  0  0  0
  138.8960   76.8990  220.4830 C   0  0  1  0  0  0  0  0  0  0  0  0
  140.1820   77.6910  220.6100 C   0  0  0  0  0  0  0  0  0  0  0  0
  141.1800   77.8390  219.6450 C   0  0  0  0  0  0  0  0  0  0  0  0
  142.1850   78.6120  220.1160 N   0  0  0  0  0  0  0  0  0  0  0  0
  141.8370   78.9510  221.3680 C   0  0  0  0  0  0  0  0  0  0  0  0
  142.5610   79.7450  222.2560 C   0  0  0  0  0  0  0  0  0  0  0  0
  142.0080   79.9790  223.5290 C   0  0  0  0  0  0  0  0  0  0  0  0
  140.7600   79.4200  223.8810 C   0  0  0  0  0  0  0  0  0  0  0  0
  140.0510   78.6220  222.9630 C   0  0  0  0  0  0  0  0  0  0  0  0
  140.6240   78.4070  221.7070 C   0  0  0  0  0  0  0  0  0  0  0  0
  140.6884   73.7692  219.4803 H   0  0  0  0  0  0  0  0  0  0  0  0
  141.3122   75.4740  219.4905 H   0  0  0  0  0  0  0  0  0  0  0  0
  142.0385   71.9638  220.5880 H   0  0  0  0  0  0  0  0  0  0  0  0
  144.3586   71.1468  220.9999 H   0  0  0  0  0  0  0  0  0  0  0  0
  146.2805   72.7375  220.9100 H   0  0  0  0  0  0  0  0  0  0  0  0
  145.8845   75.1487  220.4016 H   0  0  0  0  0  0  0  0  0  0  0  0
  143.5684   75.9763  219.9873 H   0  0  0  0  0  0  0  0  0  0  0  0
  137.4008   75.1127  222.7521 H   0  0  0  0  0  0  0  0  0  0  0  0
  138.7407   76.0579  223.3951 H   0  0  0  0  0  0  0  0  0  0  0  0
  135.9840   77.3416  223.8965 H   0  0  0  0  0  0  0  0  0  0  0  0
  134.9488   79.4603  223.0204 H   0  0  0  0  0  0  0  0  0  0  0  0
  135.7514   80.4448  220.8587 H   0  0  0  0  0  0  0  0  0  0  0  0
  137.5965   79.3184  219.5735 H   0  0  0  0  0  0  0  0  0  0  0  0
  138.8258   76.6546  219.4128 H   0  0  0  0  0  0  0  0  0  0  0  0
  141.1528   77.3895  218.6414 H   0  0  0  0  0  0  0  0  0  0  0  0
  143.0530   78.8870  219.6050 H   0  0  0  0  0  0  0  0  0  0  0  0
  143.5327   80.1746  221.9712 H   0  0  0  0  0  0  0  0  0  0  0  0
  142.5518   80.6016  224.2547 H   0  0  0  0  0  0  0  0  0  0  0  0
  140.3388   79.6093  224.8794 H   0  0  0  0  0  0  0  0  0  0  0  0
  139.0777   78.1821  223.2260 H   0  0  0  0  0  0  0  0  0  0  0  0
  1  2  2  0
  2  3  2  0
  2  4  1  0
  4  5  1  0
  5  6  2  0
  6  7  1  0
  7  8  2  0
  8  9  1  0
  9 10  2  0
  2 11  1  0
 11 12  1  0
 12 13  1  0
 13 14  2  0
 14 15  1  0
 15 16  2  0
 16 17  1  0
 17 18  2  0
 18 19  1  0
 19 20  1  0
 20 21  2  0
 21 22  1  0
 22 23  1  0
 23 24  2  0
 24 25  1  0
 25 26  2  0
 26 27  1  0
 27 28  2  0
 10  5  1  0
 19 11  1  0
 28 20  1  0
 18 13  1  0
 28 23  1  0
  4 29  1  0
  4 30  1  0
  6 31  1  0
  7 32  1  0
  8 33  1  0
  9 34  1  0
 10 35  1  0
 12 36  1  0
 12 37  1  0
 14 38  1  0
 15 39  1  0
 16 40  1  0
 17 41  1  0
 19 42  1  6
 21 43  1  0
 22 44  1  0
 24 45  1  0
 25 46  1  0
 26 47  1  0
 27 48  1  0
M  END
>  <UniqueID>  (18) 
5

>  <SMILES>  (18) 
O=S(=O)(Cc1ccccc1)N1Cc2ccccc2[C@H]1c1c[nH]c2ccccc12

>  <Energy>  (18) 
91.48008314365012

>  <Genealogy>  (18) 
O=S(=O)(Cc1ccccc1)N1Cc2ccccc2[C@H]1c1c[nH]c2ccccc12 (chirality)
O=S(=O)(Cc1ccccc1)N1Cc2ccccc2[C@H]1c1c[nH]c2ccccc12 (3D coordinates assigned)
O=S(=O)(Cc1ccccc1)N1Cc2ccccc2[C@H]1c1c[nH]c2ccccc12 (nonaromatic ring conformer: 91.48008314365012 kcal/mol)

>  <smiles>  (18) 
O=S(=O)(Cc1ccccc1)N1Cc2ccccc2C1c1c[nH]c2ccccc12

>  <score_type>  (18) 
oracle

>  <origin>  (18) 
autodockgpu

>  <m_score__min__energy>  (18) 
-7.29

>  <m_primary>  (18) 
energy

>  <meeko>  (18) 
{"free_energy": -7.18, "intermolecular_energy": -8.37, "internal_energy": -1.94, "cluster_size": 14, "cluster_id": 1, "rank_in_cluster": 13}

>  <energy>  (18) 
-6.75

>  <cluster_rmsd>  (18) 
0.0

>  <rmsd>  (18) 
271.31

>  <cluster>  (18) 
3

$$$$
WCZRIPJXOMUAPT-QHCPKHFHNA-N
     RDKit          3D

 48 52  0  0  0  0  0  0  0  0999 V2000
  138.7890   77.7090  219.4180 O   0  0  0  0  0  0  0  0  0  0  0  0
  140.1880   77.3130  219.0380 S   0  0  0  0  0  0  0  0  0  0  0  0
  140.4440   77.7310  217.6160 O   0  0  0  0  0  0  0  0  0  0  0  0
  140.2860   75.5300  219.1650 C   0  0  0  0  0  0  0  0  0  0  0  0
  141.6440   75.0700  219.6210 C   0  0  0  0  0  0  0  0  0  0  0  0
  142.7970   75.7880  219.2580 C   0  0  0  0  0  0  0  0  0  0  0  0
  144.0590   75.3510  219.6730 C   0  0  0  0  0  0  0  0  0  0  0  0
  144.1790   74.2010  220.4570 C   0  0  0  0  0  0  0  0  0  0  0  0
  143.0370   73.4880  220.8320 C   0  0  0  0  0  0  0  0  0  0  0  0
  141.7740   73.9210  220.4200 C   0  0  0  0  0  0  0  0  0  0  0  0
  141.3280   78.0810  220.1260 N   0  0  0  0  0  0  0  0  0  0  0  0
  141.2140   79.5530  220.1600 C   0  0  0  0  0  0  0  0  0  0  0  0
  141.6060   79.9240  221.5370 C   0  0  0  0  0  0  0  0  0  0  0  0
  141.8460   81.1980  222.0530 C   0  0  0  0  0  0  0  0  0  0  0  0
  142.2010   81.3160  223.4070 C   0  0  0  0  0  0  0  0  0  0  0  0
  142.3020   80.1650  224.2150 C   0  0  0  0  0  0  0  0  0  0  0  0
  142.0450   78.8970  223.6710 C   0  0  0  0  0  0  0  0  0  0  0  0
  141.7030   78.8090  222.3190 C   0  0  0  0  0  0  0  0  0  0  0  0
  141.3320   77.6030  221.5370 C   0  0  1  0  0  0  0  0  0  0  0  0
  139.9970   77.0830  222.0330 C   0  0  0  0  0  0  0  0  0  0  0  0
  139.6520   75.7550  222.2920 C   0  0  0  0  0  0  0  0  0  0  0  0
  138.3710   75.6720  222.7170 N   0  0  0  0  0  0  0  0  0  0  0  0
  137.9010   76.9300  222.7270 C   0  0  0  0  0  0  0  0  0  0  0  0
  136.6230   77.3460  223.0970 C   0  0  0  0  0  0  0  0  0  0  0  0
  136.3370   78.7230  223.0370 C   0  0  0  0  0  0  0  0  0  0  0  0
  137.3240   79.6400  222.6130 C   0  0  0  0  0  0  0  0  0  0  0  0
  138.6050   79.1910  222.2450 C   0  0  0  0  0  0  0  0  0  0  0  0
  138.8610   77.8190  222.3150 C   0  0  0  0  0  0  0  0  0  0  0  0
  139.5327   75.1838  219.8880 H   0  0  0  0  0  0  0  0  0  0  0  0
  140.1028   75.1082  218.1658 H   0  0  0  0  0  0  0  0  0  0  0  0
  142.7061   76.6970  218.6452 H   0  0  0  0  0  0  0  0  0  0  0  0
  144.9583   75.9135  219.3817 H   0  0  0  0  0  0  0  0  0  0  0  0
  145.1727   73.8565  220.7793 H   0  0  0  0  0  0  0  0  0  0  0  0
  143.1326   72.5847  221.4524 H   0  0  0  0  0  0  0  0  0  0  0  0
  140.8774   73.3601  220.7223 H   0  0  0  0  0  0  0  0  0  0  0  0
  141.8921   80.0124  219.4258 H   0  0  0  0  0  0  0  0  0  0  0  0
  140.2015   79.8997  219.9060 H   0  0  0  0  0  0  0  0  0  0  0  0
  141.7592   82.0893  221.4143 H   0  0  0  0  0  0  0  0  0  0  0  0
  142.4006   82.3083  223.8377 H   0  0  0  0  0  0  0  0  0  0  0  0
  142.5829   80.2610  225.2742 H   0  0  0  0  0  0  0  0  0  0  0  0
  142.1113   77.9933  224.2946 H   0  0  0  0  0  0  0  0  0  0  0  0
  142.0170   76.7482  221.6378 H   0  0  0  0  0  0  0  0  0  0  0  0
  140.3280   74.8962  222.1677 H   0  0  0  0  0  0  0  0  0  0  0  0
  137.8570   74.8020  222.9820 H   0  0  0  0  0  0  0  0  0  0  0  0
  135.8628   76.6218  223.4251 H   0  0  0  0  0  0  0  0  0  0  0  0
  135.3389   79.0870  223.3220 H   0  0  0  0  0  0  0  0  0  0  0  0
  137.0890   80.7137  222.5703 H   0  0  0  0  0  0  0  0  0  0  0  0
  139.3804   79.8970  221.9128 H   0  0  0  0  0  0  0  0  0  0  0  0
  1  2  2  0
  2  3  2  0
  2  4  1  0
  4  5  1  0
  5  6  2  0
  6  7  1  0
  7  8  2  0
  8  9  1  0
  9 10  2  0
  2 11  1  0
 11 12  1  0
 12 13  1  0
 13 14  2  0
 14 15  1  0
 15 16  2  0
 16 17  1  0
 17 18  2  0
 18 19  1  0
 19 20  1  0
 20 21  2  0
 21 22  1  0
 22 23  1  0
 23 24  2  0
 24 25  1  0
 25 26  2  0
 26 27  1  0
 27 28  2  0
 10  5  1  0
 19 11  1  0
 28 20  1  0
 18 13  1  0
 28 23  1  0
  4 29  1  0
  4 30  1  0
  6 31  1  0
  7 32  1  0
  8 33  1  0
  9 34  1  0
 10 35  1  0
 12 36  1  0
 12 37  1  0
 14 38  1  0
 15 39  1  0
 16 40  1  0
 17 41  1  0
 19 42  1  6
 21 43  1  0
 22 44  1  0
 24 45  1  0
 25 46  1  0
 26 47  1  0
 27 48  1  0
M  END
>  <UniqueID>  (19) 
5

>  <SMILES>  (19) 
O=S(=O)(Cc1ccccc1)N1Cc2ccccc2[C@H]1c1c[nH]c2ccccc12

>  <Energy>  (19) 
91.48008314365012

>  <Genealogy>  (19) 
O=S(=O)(Cc1ccccc1)N1Cc2ccccc2[C@H]1c1c[nH]c2ccccc12 (chirality)
O=S(=O)(Cc1ccccc1)N1Cc2ccccc2[C@H]1c1c[nH]c2ccccc12 (3D coordinates assigned)
O=S(=O)(Cc1ccccc1)N1Cc2ccccc2[C@H]1c1c[nH]c2ccccc12 (nonaromatic ring conformer: 91.48008314365012 kcal/mol)

>  <smiles>  (19) 
O=S(=O)(Cc1ccccc1)N1Cc2ccccc2C1c1c[nH]c2ccccc12

>  <score_type>  (19) 
oracle

>  <origin>  (19) 
autodockgpu

>  <m_score__min__energy>  (19) 
-7.29

>  <m_primary>  (19) 
energy

>  <meeko>  (19) 
{"free_energy": -6.91, "intermolecular_energy": -8.11, "internal_energy": -2.14, "cluster_size": 3, "cluster_id": 2, "rank_in_cluster": 2}

>  <energy>  (19) 
-6.74

>  <cluster_rmsd>  (19) 
0.11

>  <rmsd>  (19) 
271.27

>  <cluster>  (19) 
3

$$$$
WCZRIPJXOMUAPT-QHCPKHFHNA-N
     RDKit          3D

 48 52  0  0  0  0  0  0  0  0999 V2000
  141.1680   75.6300  222.3460 O   0  0  0  0  0  0  0  0  0  0  0  0
  140.2260   74.7510  221.5720 S   0  0  0  0  0  0  0  0  0  0  0  0
  139.9740   73.4950  222.3600 O   0  0  0  0  0  0  0  0  0  0  0  0
  141.0340   74.3380  220.0290 C   0  0  0  0  0  0  0  0  0  0  0  0
  142.4720   73.9460  220.2320 C   0  0  0  0  0  0  0  0  0  0  0  0
  143.4890   74.9150  220.1690 C   0  0  0  0  0  0  0  0  0  0  0  0
  144.8260   74.5460  220.3450 C   0  0  0  0  0  0  0  0  0  0  0  0
  145.1580   73.2120  220.5930 C   0  0  0  0  0  0  0  0  0  0  0  0
  144.1520   72.2440  220.6700 C   0  0  0  0  0  0  0  0  0  0  0  0
  142.8150   72.6080  220.4940 C   0  0  0  0  0  0  0  0  0  0  0  0
  138.7270   75.6130  221.2820 N   0  0  0  0  0  0  0  0  0  0  0  0
  137.9780   75.9280  222.5150 C   0  0  0  0  0  0  0  0  0  0  0  0
  137.2780   77.1950  222.2100 C   0  0  0  0  0  0  0  0  0  0  0  0
  136.2930   77.8400  222.9600 C   0  0  0  0  0  0  0  0  0  0  0  0
  135.7700   79.0510  222.4770 C   0  0  0  0  0  0  0  0  0  0  0  0
  136.2430   79.5930  221.2660 C   0  0  0  0  0  0  0  0  0  0  0  0
  137.2410   78.9270  220.5370 C   0  0  0  0  0  0  0  0  0  0  0  0
  137.7370   77.7200  221.0360 C   0  0  0  0  0  0  0  0  0  0  0  0
  138.8220   76.8680  220.4860 C   0  0  1  0  0  0  0  0  0  0  0  0
  140.1410   77.6040  220.6170 C   0  0  0  0  0  0  0  0  0  0  0  0
  141.1630   77.6780  219.6680 C   0  0  0  0  0  0  0  0  0  0  0  0
  142.1920   78.4180  220.1370 N   0  0  0  0  0  0  0  0  0  0  0  0
  141.8360   78.8100  221.3710 C   0  0  0  0  0  0  0  0  0  0  0  0
  142.5780   79.5980  222.2500 C   0  0  0  0  0  0  0  0  0  0  0  0
  142.0120   79.8950  223.5040 C   0  0  0  0  0  0  0  0  0  0  0  0
  140.7330   79.4050  223.8460 C   0  0  0  0  0  0  0  0  0  0  0  0
  140.0070   78.6120  222.9380 C   0  0  0  0  0  0  0  0  0  0  0  0
  140.5930   78.3330  221.7010 C   0  0  0  0  0  0  0  0  0  0  0  0
  140.4995   73.4975  219.5623 H   0  0  0  0  0  0  0  0  0  0  0  0
  141.0130   75.2300  219.3857 H   0  0  0  0  0  0  0  0  0  0  0  0
  143.2316   75.9677  219.9805 H   0  0  0  0  0  0  0  0  0  0  0  0
  145.6178   75.3074  220.2881 H   0  0  0  0  0  0  0  0  0  0  0  0
  146.2108   72.9231  220.7277 H   0  0  0  0  0  0  0  0  0  0  0  0
  144.4138   71.1944  220.8694 H   0  0  0  0  0  0  0  0  0  0  0  0
  142.0265   71.8439  220.5607 H   0  0  0  0  0  0  0  0  0  0  0  0
  137.2561   75.1308  222.7457 H   0  0  0  0  0  0  0  0  0  0  0  0
  138.6351   76.0141  223.3930 H   0  0  0  0  0  0  0  0  0  0  0  0
  135.9348   77.4100  223.9070 H   0  0  0  0  0  0  0  0  0  0  0  0
  134.9893   79.5772  223.0458 H   0  0  0  0  0  0  0  0  0  0  0  0
  135.8293   80.5406  220.8905 H   0  0  0  0  0  0  0  0  0  0  0  0
  137.6236   79.3459  219.5946 H   0  0  0  0  0  0  0  0  0  0  0  0
  138.7403   76.6340  219.4143 H   0  0  0  0  0  0  0  0  0  0  0  0
  141.1344   77.2007  218.6774 H   0  0  0  0  0  0  0  0  0  0  0  0
  143.0820   78.6370  219.6360 H   0  0  0  0  0  0  0  0  0  0  0  0
  143.5733   79.9753  221.9725 H   0  0  0  0  0  0  0  0  0  0  0  0
  142.5701   80.5132  224.2225 H   0  0  0  0  0  0  0  0  0  0  0  0
  140.3010   79.6447  224.8288 H   0  0  0  0  0  0  0  0  0  0  0  0
  139.0100   78.2242  223.1941 H   0  0  0  0  0  0  0  0  0  0  0  0
  1  2  2  0
  2  3  2  0
  2  4  1  0
  4  5  1  0
  5  6  2  0
  6  7  1  0
  7  8  2  0
  8  9  1  0
  9 10  2  0
  2 11  1  0
 11 12  1  0
 12 13  1  0
 13 14  2  0
 14 15  1  0
 15 16  2  0
 16 17  1  0
 17 18  2  0
 18 19  1  0
 19 20  1  0
 20 21  2  0
 21 22  1  0
 22 23  1  0
 23 24  2  0
 24 25  1  0
 25 26  2  0
 26 27  1  0
 27 28  2  0
 10  5  1  0
 19 11  1  0
 28 20  1  0
 18 13  1  0
 28 23  1  0
  4 29  1  0
  4 30  1  0
  6 31  1  0
  7 32  1  0
  8 33  1  0
  9 34  1  0
 10 35  1  0
 12 36  1  0
 12 37  1  0
 14 38  1  0
 15 39  1  0
 16 40  1  0
 17 41  1  0
 19 42  1  6
 21 43  1  0
 22 44  1  0
 24 45  1  0
 25 46  1  0
 26 47  1  0
 27 48  1  0
M  END
>  <UniqueID>  (20) 
5

>  <SMILES>  (20) 
O=S(=O)(Cc1ccccc1)N1Cc2ccccc2[C@H]1c1c[nH]c2ccccc12

>  <Energy>  (20) 
91.48008314365012

>  <Genealogy>  (20) 
O=S(=O)(Cc1ccccc1)N1Cc2ccccc2[C@H]1c1c[nH]c2ccccc12 (chirality)
O=S(=O)(Cc1ccccc1)N1Cc2ccccc2[C@H]1c1c[nH]c2ccccc12 (3D coordinates assigned)
O=S(=O)(Cc1ccccc1)N1Cc2ccccc2[C@H]1c1c[nH]c2ccccc12 (nonaromatic ring conformer: 91.48008314365012 kcal/mol)

>  <smiles>  (20) 
O=S(=O)(Cc1ccccc1)N1Cc2ccccc2C1c1c[nH]c2ccccc12

>  <score_type>  (20) 
oracle

>  <origin>  (20) 
autodockgpu

>  <m_score__min__energy>  (20) 
-7.29

>  <m_primary>  (20) 
energy

>  <meeko>  (20) 
{"free_energy": -7.27, "intermolecular_energy": -8.46, "internal_energy": -1.97, "cluster_size": 14, "cluster_id": 1, "rank_in_cluster": 11}

>  <energy>  (20) 
-6.74

>  <cluster_rmsd>  (20) 
0.0

>  <rmsd>  (20) 
271.05

>  <cluster>  (20) 
4

$$$$
WCZRIPJXOMUAPT-HSZRJFAPNA-N
     RDKit          3D

 48 52  0  0  0  0  0  0  0  0999 V2000
  140.0490   72.7610  219.9580 O   0  0  0  0  0  0  0  0  0  0  0  0
  140.3620   72.6630  221.4250 S   0  0  0  0  0  0  0  0  0  0  0  0
  141.7280   72.0580  221.6000 O   0  0  0  0  0  0  0  0  0  0  0  0
  139.1580   71.6000  222.2010 C   0  0  0  0  0  0  0  0  0  0  0  0
  139.6720   71.1060  223.5240 C   0  0  0  0  0  0  0  0  0  0  0  0
  140.5650   71.8900  224.2730 C   0  0  0  0  0  0  0  0  0  0  0  0
  141.0140   71.4500  225.5220 C   0  0  0  0  0  0  0  0  0  0  0  0
  140.5710   70.2270  226.0340 C   0  0  0  0  0  0  0  0  0  0  0  0
  139.6780   69.4440  225.2980 C   0  0  0  0  0  0  0  0  0  0  0  0
  139.2270   69.8810  224.0490 C   0  0  0  0  0  0  0  0  0  0  0  0
  140.3100   74.2420  222.1780 N   0  0  0  0  0  0  0  0  0  0  0  0
  139.0170   74.9270  221.9960 C   0  0  0  0  0  0  0  0  0  0  0  0
  139.3610   76.3650  221.9920 C   0  0  0  0  0  0  0  0  0  0  0  0
  138.4980   77.4620  222.0380 C   0  0  0  0  0  0  0  0  0  0  0  0
  139.0530   78.7520  222.0030 C   0  0  0  0  0  0  0  0  0  0  0  0
  140.4490   78.9200  221.9150 C   0  0  0  0  0  0  0  0  0  0  0  0
  141.2930   77.7990  221.8610 C   0  0  0  0  0  0  0  0  0  0  0  0
  140.7160   76.5290  221.9050 C   0  0  0  0  0  0  0  0  0  0  0  0
  141.3820   75.2050  221.8120 C   0  0  2  0  0  0  0  0  0  0  0  0
  141.9460   75.0220  220.4160 C   0  0  0  0  0  0  0  0  0  0  0  0
  141.3680   75.4320  219.2130 C   0  0  0  0  0  0  0  0  0  0  0  0
  142.1550   75.0910  218.1680 N   0  0  0  0  0  0  0  0  0  0  0  0
  143.2240   74.4710  218.6950 C   0  0  0  0  0  0  0  0  0  0  0  0
  144.3100   73.9320  218.0070 C   0  0  0  0  0  0  0  0  0  0  0  0
  145.3260   73.3170  218.7590 C   0  0  0  0  0  0  0  0  0  0  0  0
  145.2340   73.2530  220.1670 C   0  0  0  0  0  0  0  0  0  0  0  0
  144.1270   73.8040  220.8350 C   0  0  0  0  0  0  0  0  0  0  0  0
  143.1340   74.4100  220.0630 C   0  0  0  0  0  0  0  0  0  0  0  0
  138.2268   72.1632  222.3612 H   0  0  0  0  0  0  0  0  0  0  0  0
  138.9691   70.7365  221.5462 H   0  0  0  0  0  0  0  0  0  0  0  0
  140.9128   72.8547  223.8751 H   0  0  0  0  0  0  0  0  0  0  0  0
  141.7163   72.0667  226.1021 H   0  0  0  0  0  0  0  0  0  0  0  0
  140.9254   69.8811  227.0162 H   0  0  0  0  0  0  0  0  0  0  0  0
  139.3292   68.4822  225.7020 H   0  0  0  0  0  0  0  0  0  0  0  0
  138.5208   69.2632  223.4748 H   0  0  0  0  0  0  0  0  0  0  0  0
  138.5525   74.6351  221.0426 H   0  0  0  0  0  0  0  0  0  0  0  0
  138.2921   74.6711  222.7828 H   0  0  0  0  0  0  0  0  0  0  0  0
  137.4091   77.3193  222.1002 H   0  0  0  0  0  0  0  0  0  0  0  0
  138.3959   79.6332  222.0444 H   0  0  0  0  0  0  0  0  0  0  0  0
  140.8790   79.9321  221.8885 H   0  0  0  0  0  0  0  0  0  0  0  0
  142.3838   77.9191  221.7857 H   0  0  0  0  0  0  0  0  0  0  0  0
  142.2484   75.0712  222.4764 H   0  0  0  0  0  0  0  0  0  0  0  0
  140.4063   75.9590  219.1274 H   0  0  0  0  0  0  0  0  0  0  0  0
  141.9630   75.2710  217.1570 H   0  0  0  0  0  0  0  0  0  0  0  0
  144.3700   73.9862  216.9100 H   0  0  0  0  0  0  0  0  0  0  0  0
  146.1980   72.8830  218.2478 H   0  0  0  0  0  0  0  0  0  0  0  0
  146.0347   72.7683  220.7450 H   0  0  0  0  0  0  0  0  0  0  0  0
  144.0455   73.7592  221.9311 H   0  0  0  0  0  0  0  0  0  0  0  0
  1  2  2  0
  2  3  2  0
  2  4  1  0
  4  5  1  0
  5  6  2  0
  6  7  1  0
  7  8  2  0
  8  9  1  0
  9 10  2  0
  2 11  1  0
 11 12  1  0
 12 13  1  0
 13 14  2  0
 14 15  1  0
 15 16  2  0
 16 17  1  0
 17 18  2  0
 18 19  1  0
 19 20  1  0
 20 21  2  0
 21 22  1  0
 22 23  1  0
 23 24  2  0
 24 25  1  0
 25 26  2  0
 26 27  1  0
 27 28  2  0
 10  5  1  0
 19 11  1  0
 28 20  1  0
 18 13  1  0
 28 23  1  0
  4 29  1  0
  4 30  1  0
  6 31  1  0
  7 32  1  0
  8 33  1  0
  9 34  1  0
 10 35  1  0
 12 36  1  0
 12 37  1  0
 14 38  1  0
 15 39  1  0
 16 40  1  0
 17 41  1  0
 19 42  1  1
 21 43  1  0
 22 44  1  0
 24 45  1  0
 25 46  1  0
 26 47  1  0
 27 48  1  0
M  END
>  <UniqueID>  (21) 
6

>  <SMILES>  (21) 
O=S(=O)(Cc1ccccc1)N1Cc2ccccc2[C@@H]1c1c[nH]c2ccccc12

>  <Energy>  (21) 
97.32731379793171

>  <Genealogy>  (21) 
O=S(=O)(Cc1ccccc1)N1Cc2ccccc2[C@@H]1c1c[nH]c2ccccc12 (chirality)
O=S(=O)(Cc1ccccc1)N1Cc2ccccc2[C@@H]1c1c[nH]c2ccccc12 (3D coordinates assigned)
O=S(=O)(Cc1ccccc1)N1Cc2ccccc2[C@@H]1c1c[nH]c2ccccc12 (nonaromatic ring conformer: 97.32731379793171 kcal/mol)

>  <smiles>  (21) 
O=S(=O)(Cc1ccccc1)N1Cc2ccccc2C1c1c[nH]c2ccccc12

>  <score_type>  (21) 
oracle

>  <origin>  (21) 
autodockgpu

>  <m_score__min__energy>  (21) 
-7.2199999999999998

>  <m_primary>  (21) 
energy

>  <meeko>  (21) 
{"free_energy": -7.21, "intermolecular_energy": -8.4, "internal_energy": -1.78, "cluster_size": 4, "cluster_id": 1, "rank_in_cluster": 2}

>  <energy>  (21) 
-7.22

>  <cluster_rmsd>  (21) 
0.0

>  <rmsd>  (21) 
269.71

>  <cluster>  (21) 
1

$$$$
WCZRIPJXOMUAPT-HSZRJFAPNA-N
     RDKit          3D

 48 52  0  0  0  0  0  0  0  0999 V2000
  140.3500   74.1610  221.8910 O   0  0  0  0  0  0  0  0  0  0  0  0
  140.4900   75.3170  220.9420 S   0  0  0  0  0  0  0  0  0  0  0  0
  139.1300   75.7110  220.4360 O   0  0  0  0  0  0  0  0  0  0  0  0
  141.4930   74.8080  219.5570 C   0  0  0  0  0  0  0  0  0  0  0  0
  142.8020   74.2460  220.0370 C   0  0  0  0  0  0  0  0  0  0  0  0
  142.9000   72.8920  220.3990 C   0  0  0  0  0  0  0  0  0  0  0  0
  144.1250   72.3580  220.8080 C   0  0  0  0  0  0  0  0  0  0  0  0
  145.2620   73.1690  220.8550 C   0  0  0  0  0  0  0  0  0  0  0  0
  145.1750   74.5160  220.4910 C   0  0  0  0  0  0  0  0  0  0  0  0
  143.9500   75.0530  220.0810 C   0  0  0  0  0  0  0  0  0  0  0  0
  141.2480   76.6820  221.7330 N   0  0  0  0  0  0  0  0  0  0  0  0
  140.3680   77.3430  222.7150 C   0  0  0  0  0  0  0  0  0  0  0  0
  140.8020   78.7560  222.7050 C   0  0  0  0  0  0  0  0  0  0  0  0
  140.4340   79.7820  223.5770 C   0  0  0  0  0  0  0  0  0  0  0  0
  140.9610   81.0660  223.3620 C   0  0  0  0  0  0  0  0  0  0  0  0
  141.8340   81.3000  222.2810 C   0  0  0  0  0  0  0  0  0  0  0  0
  142.1810   80.2520  221.4130 C   0  0  0  0  0  0  0  0  0  0  0  0
  141.6480   78.9840  221.6550 C   0  0  0  0  0  0  0  0  0  0  0  0
  141.8200   77.7410  220.8610 C   0  0  2  0  0  0  0  0  0  0  0  0
  141.1260   77.8990  219.5210 C   0  0  0  0  0  0  0  0  0  0  0  0
  139.7990   78.2690  219.2980 C   0  0  0  0  0  0  0  0  0  0  0  0
  139.5310   78.2980  217.9730 N   0  0  0  0  0  0  0  0  0  0  0  0
  140.6730   77.9510  217.3560 C   0  0  0  0  0  0  0  0  0  0  0  0
  140.8880   77.8360  215.9830 C   0  0  0  0  0  0  0  0  0  0  0  0
  142.1680   77.4510  215.5480 C   0  0  0  0  0  0  0  0  0  0  0  0
  143.1940   77.1930  216.4830 C   0  0  0  0  0  0  0  0  0  0  0  0
  142.9500   77.3170  217.8620 C   0  0  0  0  0  0  0  0  0  0  0  0
  141.6700   77.7020  218.2660 C   0  0  0  0  0  0  0  0  0  0  0  0
  140.9560   74.0376  218.9842 H   0  0  0  0  0  0  0  0  0  0  0  0
  141.6920   75.6824  218.9199 H   0  0  0  0  0  0  0  0  0  0  0  0
  142.0082   72.2491  220.3603 H   0  0  0  0  0  0  0  0  0  0  0  0
  144.1943   71.2979  221.0933 H   0  0  0  0  0  0  0  0  0  0  0  0
  146.2253   72.7476  221.1783 H   0  0  0  0  0  0  0  0  0  0  0  0
  146.0703   75.1540  220.5270 H   0  0  0  0  0  0  0  0  0  0  0  0
  143.8859   76.1124  219.7918 H   0  0  0  0  0  0  0  0  0  0  0  0
  139.3138   77.2574  222.4126 H   0  0  0  0  0  0  0  0  0  0  0  0
  140.4398   76.8894  223.7145 H   0  0  0  0  0  0  0  0  0  0  0  0
  139.7466   79.5892  224.4139 H   0  0  0  0  0  0  0  0  0  0  0  0
  140.6918   81.8904  224.0387 H   0  0  0  0  0  0  0  0  0  0  0  0
  142.2451   82.3069  222.1165 H   0  0  0  0  0  0  0  0  0  0  0  0
  142.8567   80.4257  220.5625 H   0  0  0  0  0  0  0  0  0  0  0  0
  142.8600   77.4928  220.6024 H   0  0  0  0  0  0  0  0  0  0  0  0
  139.0724   78.5042  220.0897 H   0  0  0  0  0  0  0  0  0  0  0  0
  138.6180   78.5370  217.5250 H   0  0  0  0  0  0  0  0  0  0  0  0
  140.0816   78.0401  215.2633 H   0  0  0  0  0  0  0  0  0  0  0  0
  142.3717   77.3500  214.4718 H   0  0  0  0  0  0  0  0  0  0  0  0
  144.1916   76.8928  216.1299 H   0  0  0  0  0  0  0  0  0  0  0  0
  143.7419   77.1172  218.5989 H   0  0  0  0  0  0  0  0  0  0  0  0
  1  2  2  0
  2  3  2  0
  2  4  1  0
  4  5  1  0
  5  6  2  0
  6  7  1  0
  7  8  2  0
  8  9  1  0
  9 10  2  0
  2 11  1  0
 11 12  1  0
 12 13  1  0
 13 14  2  0
 14 15  1  0
 15 16  2  0
 16 17  1  0
 17 18  2  0
 18 19  1  0
 19 20  1  0
 20 21  2  0
 21 22  1  0
 22 23  1  0
 23 24  2  0
 24 25  1  0
 25 26  2  0
 26 27  1  0
 27 28  2  0
 10  5  1  0
 19 11  1  0
 28 20  1  0
 18 13  1  0
 28 23  1  0
  4 29  1  0
  4 30  1  0
  6 31  1  0
  7 32  1  0
  8 33  1  0
  9 34  1  0
 10 35  1  0
 12 36  1  0
 12 37  1  0
 14 38  1  0
 15 39  1  0
 16 40  1  0
 17 41  1  0
 19 42  1  6
 21 43  1  0
 22 44  1  0
 24 45  1  0
 25 46  1  0
 26 47  1  0
 27 48  1  0
M  END
>  <UniqueID>  (22) 
6

>  <SMILES>  (22) 
O=S(=O)(Cc1ccccc1)N1Cc2ccccc2[C@@H]1c1c[nH]c2ccccc12

>  <Energy>  (22) 
97.32731379793171

>  <Genealogy>  (22) 
O=S(=O)(Cc1ccccc1)N1Cc2ccccc2[C@@H]1c1c[nH]c2ccccc12 (chirality)
O=S(=O)(Cc1ccccc1)N1Cc2ccccc2[C@@H]1c1c[nH]c2ccccc12 (3D coordinates assigned)
O=S(=O)(Cc1ccccc1)N1Cc2ccccc2[C@@H]1c1c[nH]c2ccccc12 (nonaromatic ring conformer: 97.32731379793171 kcal/mol)

>  <smiles>  (22) 
O=S(=O)(Cc1ccccc1)N1Cc2ccccc2C1c1c[nH]c2ccccc12

>  <score_type>  (22) 
oracle

>  <origin>  (22) 
autodockgpu

>  <m_score__min__energy>  (22) 
-7.2199999999999998

>  <m_primary>  (22) 
energy

>  <meeko>  (22) 
{"free_energy": -7.13, "intermolecular_energy": -8.33, "internal_energy": -1.98, "cluster_size": 14, "cluster_id": 2, "rank_in_cluster": 5}

>  <energy>  (22) 
-7.21

>  <cluster_rmsd>  (22) 
0.09

>  <rmsd>  (22) 
269.7

>  <cluster>  (22) 
1

$$$$
WCZRIPJXOMUAPT-HSZRJFAPNA-N
     RDKit          3D

 48 52  0  0  0  0  0  0  0  0999 V2000
  140.0710   72.6480  220.0070 O   0  0  0  0  0  0  0  0  0  0  0  0
  140.3930   72.6150  221.4740 S   0  0  0  0  0  0  0  0  0  0  0  0
  141.7570   72.0130  221.6690 O   0  0  0  0  0  0  0  0  0  0  0  0
  139.1890   71.5940  222.3060 C   0  0  0  0  0  0  0  0  0  0  0  0
  139.7530   71.0630  223.5940 C   0  0  0  0  0  0  0  0  0  0  0  0
  140.5740   71.8750  224.3940 C   0  0  0  0  0  0  0  0  0  0  0  0
  141.0680   71.3970  225.6110 C   0  0  0  0  0  0  0  0  0  0  0  0
  140.7430   70.1070  226.0410 C   0  0  0  0  0  0  0  0  0  0  0  0
  139.9220   69.2950  225.2540 C   0  0  0  0  0  0  0  0  0  0  0  0
  139.4250   69.7700  224.0350 C   0  0  0  0  0  0  0  0  0  0  0  0
  140.3520   74.2270  222.1550 N   0  0  0  0  0  0  0  0  0  0  0  0
  139.0640   74.9140  221.9390 C   0  0  0  0  0  0  0  0  0  0  0  0
  139.4200   76.3470  221.8710 C   0  0  0  0  0  0  0  0  0  0  0  0
  138.5660   77.4520  221.8640 C   0  0  0  0  0  0  0  0  0  0  0  0
  139.1320   78.7340  221.7730 C   0  0  0  0  0  0  0  0  0  0  0  0
  140.5290   78.8870  221.6810 C   0  0  0  0  0  0  0  0  0  0  0  0
  141.3640   77.7580  221.6800 C   0  0  0  0  0  0  0  0  0  0  0  0
  140.7760   76.4950  221.7800 C   0  0  0  0  0  0  0  0  0  0  0  0
  141.4320   75.1630  221.7490 C   0  0  2  0  0  0  0  0  0  0  0  0
  141.9980   74.9130  220.3640 C   0  0  0  0  0  0  0  0  0  0  0  0
  141.3960   75.2140  219.1410 C   0  0  0  0  0  0  0  0  0  0  0  0
  142.1940   74.8400  218.1150 N   0  0  0  0  0  0  0  0  0  0  0  0
  143.2920   74.3060  218.6750 C   0  0  0  0  0  0  0  0  0  0  0  0
  144.3990   73.7730  218.0160 C   0  0  0  0  0  0  0  0  0  0  0  0
  145.4460   73.2570  218.8000 C   0  0  0  0  0  0  0  0  0  0  0  0
  145.3640   73.2850  220.2100 C   0  0  0  0  0  0  0  0  0  0  0  0
  144.2340   73.8280  220.8480 C   0  0  0  0  0  0  0  0  0  0  0  0
  143.2120   74.3340  220.0440 C   0  0  0  0  0  0  0  0  0  0  0  0
  138.2928   72.1939  222.5228 H   0  0  0  0  0  0  0  0  0  0  0  0
  138.9282   70.7469  221.6545 H   0  0  0  0  0  0  0  0  0  0  0  0
  140.8293   72.8918  224.0611 H   0  0  0  0  0  0  0  0  0  0  0  0
  141.7132   72.0365  226.2312 H   0  0  0  0  0  0  0  0  0  0  0  0
  141.1334   69.7314  226.9984 H   0  0  0  0  0  0  0  0  0  0  0  0
  139.6659   68.2805  225.5933 H   0  0  0  0  0  0  0  0  0  0  0  0
  138.7757   69.1292  223.4204 H   0  0  0  0  0  0  0  0  0  0  0  0
  138.5990   74.5832  220.9986 H   0  0  0  0  0  0  0  0  0  0  0  0
  138.3353   74.6998  222.7347 H   0  0  0  0  0  0  0  0  0  0  0  0
  137.4757   77.3213  221.9282 H   0  0  0  0  0  0  0  0  0  0  0  0
  138.4821   79.6215  221.7736 H   0  0  0  0  0  0  0  0  0  0  0  0
  140.9672   79.8935  221.6098 H   0  0  0  0  0  0  0  0  0  0  0  0
  142.4559   77.8658  221.6022 H   0  0  0  0  0  0  0  0  0  0  0  0
  142.2958   75.0521  222.4210 H   0  0  0  0  0  0  0  0  0  0  0  0
  140.4103   75.6890  219.0276 H   0  0  0  0  0  0  0  0  0  0  0  0
  141.9900   74.9430  217.0960 H   0  0  0  0  0  0  0  0  0  0  0  0
  144.4517   73.7567  216.9174 H   0  0  0  0  0  0  0  0  0  0  0  0
  146.3343   72.8289  218.3125 H   0  0  0  0  0  0  0  0  0  0  0  0
  146.1896   72.8794  220.8133 H   0  0  0  0  0  0  0  0  0  0  0  0
  144.1585   73.8529  221.9451 H   0  0  0  0  0  0  0  0  0  0  0  0
  1  2  2  0
  2  3  2  0
  2  4  1  0
  4  5  1  0
  5  6  2  0
  6  7  1  0
  7  8  2  0
  8  9  1  0
  9 10  2  0
  2 11  1  0
 11 12  1  0
 12 13  1  0
 13 14  2  0
 14 15  1  0
 15 16  2  0
 16 17  1  0
 17 18  2  0
 18 19  1  0
 19 20  1  0
 20 21  2  0
 21 22  1  0
 22 23  1  0
 23 24  2  0
 24 25  1  0
 25 26  2  0
 26 27  1  0
 27 28  2  0
 10  5  1  0
 19 11  1  0
 28 20  1  0
 18 13  1  0
 28 23  1  0
  4 29  1  0
  4 30  1  0
  6 31  1  0
  7 32  1  0
  8 33  1  0
  9 34  1  0
 10 35  1  0
 12 36  1  0
 12 37  1  0
 14 38  1  0
 15 39  1  0
 16 40  1  0
 17 41  1  0
 19 42  1  1
 21 43  1  0
 22 44  1  0
 24 45  1  0
 25 46  1  0
 26 47  1  0
 27 48  1  0
M  END
>  <UniqueID>  (23) 
6

>  <SMILES>  (23) 
O=S(=O)(Cc1ccccc1)N1Cc2ccccc2[C@@H]1c1c[nH]c2ccccc12

>  <Energy>  (23) 
97.32731379793171

>  <Genealogy>  (23) 
O=S(=O)(Cc1ccccc1)N1Cc2ccccc2[C@@H]1c1c[nH]c2ccccc12 (chirality)
O=S(=O)(Cc1ccccc1)N1Cc2ccccc2[C@@H]1c1c[nH]c2ccccc12 (3D coordinates assigned)
O=S(=O)(Cc1ccccc1)N1Cc2ccccc2[C@@H]1c1c[nH]c2ccccc12 (nonaromatic ring conformer: 97.32731379793171 kcal/mol)

>  <smiles>  (23) 
O=S(=O)(Cc1ccccc1)N1Cc2ccccc2C1c1c[nH]c2ccccc12

>  <score_type>  (23) 
oracle

>  <origin>  (23) 
autodockgpu

>  <m_score__min__energy>  (23) 
-7.2199999999999998

>  <m_primary>  (23) 
energy

>  <meeko>  (23) 
{"free_energy": -7.2, "intermolecular_energy": -8.39, "internal_energy": -1.77, "cluster_size": 4, "cluster_id": 1, "rank_in_cluster": 3}

>  <energy>  (23) 
-7.2

>  <cluster_rmsd>  (23) 
0.26

>  <rmsd>  (23) 
269.69

>  <cluster>  (23) 
1

$$$$
WCZRIPJXOMUAPT-HSZRJFAPNA-N
     RDKit          3D

 48 52  0  0  0  0  0  0  0  0999 V2000
  140.3640   74.1400  221.8790 O   0  0  0  0  0  0  0  0  0  0  0  0
  140.5090   75.2980  220.9330 S   0  0  0  0  0  0  0  0  0  0  0  0
  139.1510   75.6920  220.4200 O   0  0  0  0  0  0  0  0  0  0  0  0
  141.5210   74.7930  219.5530 C   0  0  0  0  0  0  0  0  0  0  0  0
  142.8260   74.2290  220.0400 C   0  0  0  0  0  0  0  0  0  0  0  0
  142.9220   72.8740  220.3970 C   0  0  0  0  0  0  0  0  0  0  0  0
  144.1450   72.3390  220.8130 C   0  0  0  0  0  0  0  0  0  0  0  0
  145.2810   73.1500  220.8710 C   0  0  0  0  0  0  0  0  0  0  0  0
  145.1960   74.4980  220.5120 C   0  0  0  0  0  0  0  0  0  0  0  0
  143.9740   75.0370  220.0950 C   0  0  0  0  0  0  0  0  0  0  0  0
  141.2600   76.6630  221.7310 N   0  0  0  0  0  0  0  0  0  0  0  0
  140.3760   77.3160  222.7150 C   0  0  0  0  0  0  0  0  0  0  0  0
  140.8050   78.7310  222.7110 C   0  0  0  0  0  0  0  0  0  0  0  0
  140.4310   79.7510  223.5880 C   0  0  0  0  0  0  0  0  0  0  0  0
  140.9550   81.0380  223.3790 C   0  0  0  0  0  0  0  0  0  0  0  0
  141.8280   81.2800  222.3010 C   0  0  0  0  0  0  0  0  0  0  0  0
  142.1800   80.2380  221.4280 C   0  0  0  0  0  0  0  0  0  0  0  0
  141.6510   78.9670  221.6640 C   0  0  0  0  0  0  0  0  0  0  0  0
  141.8290   77.7280  220.8640 C   0  0  2  0  0  0  0  0  0  0  0  0
  141.1370   77.8900  219.5250 C   0  0  0  0  0  0  0  0  0  0  0  0
  139.8090   78.2560  219.3010 C   0  0  0  0  0  0  0  0  0  0  0  0
  139.5420   78.2900  217.9760 N   0  0  0  0  0  0  0  0  0  0  0  0
  140.6860   77.9490  217.3590 C   0  0  0  0  0  0  0  0  0  0  0  0
  140.9020   77.8390  215.9860 C   0  0  0  0  0  0  0  0  0  0  0  0
  142.1840   77.4600  215.5510 C   0  0  0  0  0  0  0  0  0  0  0  0
  143.2100   77.2010  216.4860 C   0  0  0  0  0  0  0  0  0  0  0  0
  142.9640   77.3190  217.8660 C   0  0  0  0  0  0  0  0  0  0  0  0
  141.6820   77.6990  218.2690 C   0  0  0  0  0  0  0  0  0  0  0  0
  140.9875   74.0247  218.9741 H   0  0  0  0  0  0  0  0  0  0  0  0
  141.7247   75.6692  218.9200 H   0  0  0  0  0  0  0  0  0  0  0  0
  142.0310   72.2308  220.3491 H   0  0  0  0  0  0  0  0  0  0  0  0
  144.2128   71.2779  221.0950 H   0  0  0  0  0  0  0  0  0  0  0  0
  146.2422   72.7277  221.1992 H   0  0  0  0  0  0  0  0  0  0  0  0
  146.0909   75.1360  220.5573 H   0  0  0  0  0  0  0  0  0  0  0  0
  143.9119   76.0974  219.8092 H   0  0  0  0  0  0  0  0  0  0  0  0
  139.3225   77.2276  222.4111 H   0  0  0  0  0  0  0  0  0  0  0  0
  140.4481   76.8584  223.7127 H   0  0  0  0  0  0  0  0  0  0  0  0
  139.7426   79.5519  224.4226 H   0  0  0  0  0  0  0  0  0  0  0  0
  140.6825   81.8584  224.0592 H   0  0  0  0  0  0  0  0  0  0  0  0
  142.2358   82.2892  222.1421 H   0  0  0  0  0  0  0  0  0  0  0  0
  142.8558   80.4183  220.5790 H   0  0  0  0  0  0  0  0  0  0  0  0
  142.8700   77.4844  220.6051 H   0  0  0  0  0  0  0  0  0  0  0  0
  139.0805   78.4851  220.0927 H   0  0  0  0  0  0  0  0  0  0  0  0
  138.6290   78.5290  217.5280 H   0  0  0  0  0  0  0  0  0  0  0  0
  140.0953   78.0422  215.2663 H   0  0  0  0  0  0  0  0  0  0  0  0
  142.3893   77.3645  214.4746 H   0  0  0  0  0  0  0  0  0  0  0  0
  144.2087   76.9048  216.1327 H   0  0  0  0  0  0  0  0  0  0  0  0
  143.7553   77.1186  218.6033 H   0  0  0  0  0  0  0  0  0  0  0  0
  1  2  2  0
  2  3  2  0
  2  4  1  0
  4  5  1  0
  5  6  2  0
  6  7  1  0
  7  8  2  0
  8  9  1  0
  9 10  2  0
  2 11  1  0
 11 12  1  0
 12 13  1  0
 13 14  2  0
 14 15  1  0
 15 16  2  0
 16 17  1  0
 17 18  2  0
 18 19  1  0
 19 20  1  0
 20 21  2  0
 21 22  1  0
 22 23  1  0
 23 24  2  0
 24 25  1  0
 25 26  2  0
 26 27  1  0
 27 28  2  0
 10  5  1  0
 19 11  1  0
 28 20  1  0
 18 13  1  0
 28 23  1  0
  4 29  1  0
  4 30  1  0
  6 31  1  0
  7 32  1  0
  8 33  1  0
  9 34  1  0
 10 35  1  0
 12 36  1  0
 12 37  1  0
 14 38  1  0
 15 39  1  0
 16 40  1  0
 17 41  1  0
 19 42  1  6
 21 43  1  0
 22 44  1  0
 24 45  1  0
 25 46  1  0
 26 47  1  0
 27 48  1  0
M  END
>  <UniqueID>  (24) 
6

>  <SMILES>  (24) 
O=S(=O)(Cc1ccccc1)N1Cc2ccccc2[C@@H]1c1c[nH]c2ccccc12

>  <Energy>  (24) 
97.32731379793171

>  <Genealogy>  (24) 
O=S(=O)(Cc1ccccc1)N1Cc2ccccc2[C@@H]1c1c[nH]c2ccccc12 (chirality)
O=S(=O)(Cc1ccccc1)N1Cc2ccccc2[C@@H]1c1c[nH]c2ccccc12 (3D coordinates assigned)
O=S(=O)(Cc1ccccc1)N1Cc2ccccc2[C@@H]1c1c[nH]c2ccccc12 (nonaromatic ring conformer: 97.32731379793171 kcal/mol)

>  <smiles>  (24) 
O=S(=O)(Cc1ccccc1)N1Cc2ccccc2C1c1c[nH]c2ccccc12

>  <score_type>  (24) 
oracle

>  <origin>  (24) 
autodockgpu

>  <m_score__min__energy>  (24) 
-7.2199999999999998

>  <m_primary>  (24) 
energy

>  <meeko>  (24) 
{"free_energy": -7.14, "intermolecular_energy": -8.33, "internal_energy": -1.98, "cluster_size": 14, "cluster_id": 2, "rank_in_cluster": 3}

>  <energy>  (24) 
-7.19

>  <cluster_rmsd>  (24) 
0.24

>  <rmsd>  (24) 
269.68

>  <cluster>  (24) 
1

$$$$
WCZRIPJXOMUAPT-HSZRJFAPNA-N
     RDKit          3D

 48 52  0  0  0  0  0  0  0  0999 V2000
  140.3920   74.1680  221.8790 O   0  0  0  0  0  0  0  0  0  0  0  0
  140.5410   75.3230  220.9290 S   0  0  0  0  0  0  0  0  0  0  0  0
  139.1860   75.7140  220.4080 O   0  0  0  0  0  0  0  0  0  0  0  0
  141.5600   74.8120  219.5560 C   0  0  0  0  0  0  0  0  0  0  0  0
  142.8500   74.2210  220.0520 C   0  0  0  0  0  0  0  0  0  0  0  0
  142.9090   72.8690  220.4290 C   0  0  0  0  0  0  0  0  0  0  0  0
  144.1170   72.3080  220.8540 C   0  0  0  0  0  0  0  0  0  0  0  0
  145.2750   73.0900  220.9010 C   0  0  0  0  0  0  0  0  0  0  0  0
  145.2250   74.4340  220.5230 C   0  0  0  0  0  0  0  0  0  0  0  0
  144.0180   74.9990  220.0970 C   0  0  0  0  0  0  0  0  0  0  0  0
  141.2890   76.6900  221.7260 N   0  0  0  0  0  0  0  0  0  0  0  0
  140.4020   77.3430  222.7080 C   0  0  0  0  0  0  0  0  0  0  0  0
  140.8280   78.7590  222.7020 C   0  0  0  0  0  0  0  0  0  0  0  0
  140.4510   79.7800  223.5760 C   0  0  0  0  0  0  0  0  0  0  0  0
  140.9700   81.0670  223.3650 C   0  0  0  0  0  0  0  0  0  0  0  0
  141.8430   81.3110  222.2870 C   0  0  0  0  0  0  0  0  0  0  0  0
  142.1980   80.2680  221.4170 C   0  0  0  0  0  0  0  0  0  0  0  0
  141.6730   78.9950  221.6540 C   0  0  0  0  0  0  0  0  0  0  0  0
  141.8550   77.7560  220.8570 C   0  0  2  0  0  0  0  0  0  0  0  0
  141.1620   77.9130  219.5170 C   0  0  0  0  0  0  0  0  0  0  0  0
  139.8360   78.2860  219.2920 C   0  0  0  0  0  0  0  0  0  0  0  0
  139.5690   78.3130  217.9670 N   0  0  0  0  0  0  0  0  0  0  0  0
  140.7100   77.9620  217.3510 C   0  0  0  0  0  0  0  0  0  0  0  0
  140.9250   77.8420  215.9790 C   0  0  0  0  0  0  0  0  0  0  0  0
  142.2040   77.4530  215.5440 C   0  0  0  0  0  0  0  0  0  0  0  0
  143.2290   77.1940  216.4810 C   0  0  0  0  0  0  0  0  0  0  0  0
  142.9840   77.3220  217.8600 C   0  0  0  0  0  0  0  0  0  0  0  0
  141.7050   77.7110  218.2620 C   0  0  0  0  0  0  0  0  0  0  0  0
  141.0197   74.0581  218.9646 H   0  0  0  0  0  0  0  0  0  0  0  0
  141.7861   75.6902  218.9333 H   0  0  0  0  0  0  0  0  0  0  0  0
  142.0011   72.2492  220.3897 H   0  0  0  0  0  0  0  0  0  0  0  0
  144.1564   71.2498  221.1518 H   0  0  0  0  0  0  0  0  0  0  0  0
  146.2248   72.6473  221.2354 H   0  0  0  0  0  0  0  0  0  0  0  0
  146.1362   75.0491  220.5603 H   0  0  0  0  0  0  0  0  0  0  0  0
  143.9840   76.0565  219.7962 H   0  0  0  0  0  0  0  0  0  0  0  0
  139.3491   77.2518  222.4029 H   0  0  0  0  0  0  0  0  0  0  0  0
  140.4737   76.8873  223.7066 H   0  0  0  0  0  0  0  0  0  0  0  0
  139.7631   79.5806  224.4109 H   0  0  0  0  0  0  0  0  0  0  0  0
  140.6941   81.8875  224.0437 H   0  0  0  0  0  0  0  0  0  0  0  0
  142.2476   82.3212  222.1264 H   0  0  0  0  0  0  0  0  0  0  0  0
  142.8739   80.4488  220.5682 H   0  0  0  0  0  0  0  0  0  0  0  0
  142.8969   77.5157  220.5990 H   0  0  0  0  0  0  0  0  0  0  0  0
  139.1094   78.5247  220.0826 H   0  0  0  0  0  0  0  0  0  0  0  0
  138.6570   78.5540  217.5190 H   0  0  0  0  0  0  0  0  0  0  0  0
  140.1188   78.0454  215.2589 H   0  0  0  0  0  0  0  0  0  0  0  0
  142.4078   77.3497  214.4680 H   0  0  0  0  0  0  0  0  0  0  0  0
  144.2260   76.8900  216.1295 H   0  0  0  0  0  0  0  0  0  0  0  0
  143.7748   77.1220  218.5980 H   0  0  0  0  0  0  0  0  0  0  0  0
  1  2  2  0
  2  3  2  0
  2  4  1  0
  4  5  1  0
  5  6  2  0
  6  7  1  0
  7  8  2  0
  8  9  1  0
  9 10  2  0
  2 11  1  0
 11 12  1  0
 12 13  1  0
 13 14  2  0
 14 15  1  0
 15 16  2  0
 16 17  1  0
 17 18  2  0
 18 19  1  0
 19 20  1  0
 20 21  2  0
 21 22  1  0
 22 23  1  0
 23 24  2  0
 24 25  1  0
 25 26  2  0
 26 27  1  0
 27 28  2  0
 10  5  1  0
 19 11  1  0
 28 20  1  0
 18 13  1  0
 28 23  1  0
  4 29  1  0
  4 30  1  0
  6 31  1  0
  7 32  1  0
  8 33  1  0
  9 34  1  0
 10 35  1  0
 12 36  1  0
 12 37  1  0
 14 38  1  0
 15 39  1  0
 16 40  1  0
 17 41  1  0
 19 42  1  6
 21 43  1  0
 22 44  1  0
 24 45  1  0
 25 46  1  0
 26 47  1  0
 27 48  1  0
M  END
>  <UniqueID>  (25) 
6

>  <SMILES>  (25) 
O=S(=O)(Cc1ccccc1)N1Cc2ccccc2[C@@H]1c1c[nH]c2ccccc12

>  <Energy>  (25) 
97.32731379793171

>  <Genealogy>  (25) 
O=S(=O)(Cc1ccccc1)N1Cc2ccccc2[C@@H]1c1c[nH]c2ccccc12 (chirality)
O=S(=O)(Cc1ccccc1)N1Cc2ccccc2[C@@H]1c1c[nH]c2ccccc12 (3D coordinates assigned)
O=S(=O)(Cc1ccccc1)N1Cc2ccccc2[C@@H]1c1c[nH]c2ccccc12 (nonaromatic ring conformer: 97.32731379793171 kcal/mol)

>  <smiles>  (25) 
O=S(=O)(Cc1ccccc1)N1Cc2ccccc2C1c1c[nH]c2ccccc12

>  <score_type>  (25) 
oracle

>  <origin>  (25) 
autodockgpu

>  <m_score__min__energy>  (25) 
-7.2199999999999998

>  <m_primary>  (25) 
energy

>  <meeko>  (25) 
{"free_energy": -7.13, "intermolecular_energy": -8.32, "internal_energy": -1.98, "cluster_size": 14, "cluster_id": 2, "rank_in_cluster": 6}

>  <energy>  (25) 
-7.14

>  <cluster_rmsd>  (25) 
0.0

>  <rmsd>  (25) 
269.57

>  <cluster>  (25) 
2

$$$$
WCZRIPJXOMUAPT-HSZRJFAPNA-N
     RDKit          3D

 48 52  0  0  0  0  0  0  0  0999 V2000
  140.3570   74.1570  221.8550 O   0  0  0  0  0  0  0  0  0  0  0  0
  140.5190   75.3170  220.9140 S   0  0  0  0  0  0  0  0  0  0  0  0
  139.1690   75.7230  220.3900 O   0  0  0  0  0  0  0  0  0  0  0  0
  141.5380   74.8070  219.5410 C   0  0  0  0  0  0  0  0  0  0  0  0
  142.8350   74.2320  220.0370 C   0  0  0  0  0  0  0  0  0  0  0  0
  142.9190   72.8730  220.3870 C   0  0  0  0  0  0  0  0  0  0  0  0
  144.1340   72.3280  220.8120 C   0  0  0  0  0  0  0  0  0  0  0  0
  145.2750   73.1320  220.8860 C   0  0  0  0  0  0  0  0  0  0  0  0
  145.2020   74.4820  220.5350 C   0  0  0  0  0  0  0  0  0  0  0  0
  143.9880   75.0320  220.1090 C   0  0  0  0  0  0  0  0  0  0  0  0
  141.2750   76.6730  221.7220 N   0  0  0  0  0  0  0  0  0  0  0  0
  140.3970   77.3140  222.7190 C   0  0  0  0  0  0  0  0  0  0  0  0
  140.8240   78.7300  222.7280 C   0  0  0  0  0  0  0  0  0  0  0  0
  140.4560   79.7400  223.6180 C   0  0  0  0  0  0  0  0  0  0  0  0
  140.9760   81.0290  223.4200 C   0  0  0  0  0  0  0  0  0  0  0  0
  141.8420   81.2850  222.3380 C   0  0  0  0  0  0  0  0  0  0  0  0
  142.1880   80.2520  221.4520 C   0  0  0  0  0  0  0  0  0  0  0  0
  141.6630   78.9780  221.6770 C   0  0  0  0  0  0  0  0  0  0  0  0
  141.8370   77.7480  220.8630 C   0  0  2  0  0  0  0  0  0  0  0  0
  141.1350   77.9240  219.5300 C   0  0  0  0  0  0  0  0  0  0  0  0
  139.8080   78.3010  219.3200 C   0  0  0  0  0  0  0  0  0  0  0  0
  139.5310   78.3460  217.9970 N   0  0  0  0  0  0  0  0  0  0  0  0
  140.6680   78.0020  217.3680 C   0  0  0  0  0  0  0  0  0  0  0  0
  140.8720   77.9000  215.9930 C   0  0  0  0  0  0  0  0  0  0  0  0
  142.1480   77.5160  215.5450 C   0  0  0  0  0  0  0  0  0  0  0  0
  143.1790   77.2440  216.4700 C   0  0  0  0  0  0  0  0  0  0  0  0
  142.9450   77.3530  217.8520 C   0  0  0  0  0  0  0  0  0  0  0  0
  141.6690   77.7380  218.2690 C   0  0  0  0  0  0  0  0  0  0  0  0
  141.0032   74.0440  218.9564 H   0  0  0  0  0  0  0  0  0  0  0  0
  141.7533   75.6830  218.9115 H   0  0  0  0  0  0  0  0  0  0  0  0
  142.0245   72.2357  220.3261 H   0  0  0  0  0  0  0  0  0  0  0  0
  144.1923   71.2649  221.0886 H   0  0  0  0  0  0  0  0  0  0  0  0
  146.2304   72.7016  221.2206 H   0  0  0  0  0  0  0  0  0  0  0  0
  146.1005   75.1139  220.5936 H   0  0  0  0  0  0  0  0  0  0  0  0
  143.9360   76.0946  219.8294 H   0  0  0  0  0  0  0  0  0  0  0  0
  139.3416   77.2275  222.4212 H   0  0  0  0  0  0  0  0  0  0  0  0
  140.4766   76.8455  223.7110 H   0  0  0  0  0  0  0  0  0  0  0  0
  139.7741   79.5309  224.4555 H   0  0  0  0  0  0  0  0  0  0  0  0
  140.7068   81.8413  224.1112 H   0  0  0  0  0  0  0  0  0  0  0  0
  142.2478   82.2962  222.1872 H   0  0  0  0  0  0  0  0  0  0  0  0
  142.8574   80.4422  220.6001 H   0  0  0  0  0  0  0  0  0  0  0  0
  142.8765   77.5082  220.5948 H   0  0  0  0  0  0  0  0  0  0  0  0
  139.0876   78.5297  220.1192 H   0  0  0  0  0  0  0  0  0  0  0  0
  138.6160   78.5940  217.5580 H   0  0  0  0  0  0  0  0  0  0  0  0
  140.0607   78.1131  215.2813 H   0  0  0  0  0  0  0  0  0  0  0  0
  142.3443   77.4269  214.4663 H   0  0  0  0  0  0  0  0  0  0  0  0
  144.1731   76.9445  216.1067 H   0  0  0  0  0  0  0  0  0  0  0  0
  143.7411   77.1419  218.5811 H   0  0  0  0  0  0  0  0  0  0  0  0
  1  2  2  0
  2  3  2  0
  2  4  1  0
  4  5  1  0
  5  6  2  0
  6  7  1  0
  7  8  2  0
  8  9  1  0
  9 10  2  0
  2 11  1  0
 11 12  1  0
 12 13  1  0
 13 14  2  0
 14 15  1  0
 15 16  2  0
 16 17  1  0
 17 18  2  0
 18 19  1  0
 19 20  1  0
 20 21  2  0
 21 22  1  0
 22 23  1  0
 23 24  2  0
 24 25  1  0
 25 26  2  0
 26 27  1  0
 27 28  2  0
 10  5  1  0
 19 11  1  0
 28 20  1  0
 18 13  1  0
 28 23  1  0
  4 29  1  0
  4 30  1  0
  6 31  1  0
  7 32  1  0
  8 33  1  0
  9 34  1  0
 10 35  1  0
 12 36  1  0
 12 37  1  0
 14 38  1  0
 15 39  1  0
 16 40  1  0
 17 41  1  0
 19 42  1  6
 21 43  1  0
 22 44  1  0
 24 45  1  0
 25 46  1  0
 26 47  1  0
 27 48  1  0
M  END
>  <UniqueID>  (26) 
6

>  <SMILES>  (26) 
O=S(=O)(Cc1ccccc1)N1Cc2ccccc2[C@@H]1c1c[nH]c2ccccc12

>  <Energy>  (26) 
97.32731379793171

>  <Genealogy>  (26) 
O=S(=O)(Cc1ccccc1)N1Cc2ccccc2[C@@H]1c1c[nH]c2ccccc12 (chirality)
O=S(=O)(Cc1ccccc1)N1Cc2ccccc2[C@@H]1c1c[nH]c2ccccc12 (3D coordinates assigned)
O=S(=O)(Cc1ccccc1)N1Cc2ccccc2[C@@H]1c1c[nH]c2ccccc12 (nonaromatic ring conformer: 97.32731379793171 kcal/mol)

>  <smiles>  (26) 
O=S(=O)(Cc1ccccc1)N1Cc2ccccc2C1c1c[nH]c2ccccc12

>  <score_type>  (26) 
oracle

>  <origin>  (26) 
autodockgpu

>  <m_score__min__energy>  (26) 
-7.2199999999999998

>  <m_primary>  (26) 
energy

>  <meeko>  (26) 
{"free_energy": -7.12, "intermolecular_energy": -8.32, "internal_energy": -1.99, "cluster_size": 14, "cluster_id": 2, "rank_in_cluster": 10}

>  <energy>  (26) 
-7.14

>  <cluster_rmsd>  (26) 
0.03

>  <rmsd>  (26) 
269.57

>  <cluster>  (26) 
2

$$$$
WCZRIPJXOMUAPT-HSZRJFAPNA-N
     RDKit          3D

 48 52  0  0  0  0  0  0  0  0999 V2000
  140.3690   74.1450  221.8670 O   0  0  0  0  0  0  0  0  0  0  0  0
  140.5150   75.3060  220.9240 S   0  0  0  0  0  0  0  0  0  0  0  0
  139.1580   75.7050  220.4140 O   0  0  0  0  0  0  0  0  0  0  0  0
  141.5230   74.8010  219.5400 C   0  0  0  0  0  0  0  0  0  0  0  0
  142.8290   74.2340  220.0230 C   0  0  0  0  0  0  0  0  0  0  0  0
  142.9230   72.8780  220.3770 C   0  0  0  0  0  0  0  0  0  0  0  0
  144.1450   72.3390  220.7890 C   0  0  0  0  0  0  0  0  0  0  0  0
  145.2830   73.1480  220.8470 C   0  0  0  0  0  0  0  0  0  0  0  0
  145.2000   74.4970  220.4910 C   0  0  0  0  0  0  0  0  0  0  0  0
  143.9780   75.0390  220.0780 C   0  0  0  0  0  0  0  0  0  0  0  0
  141.2730   76.6650  221.7240 N   0  0  0  0  0  0  0  0  0  0  0  0
  140.3950   77.3140  222.7170 C   0  0  0  0  0  0  0  0  0  0  0  0
  140.8250   78.7290  222.7180 C   0  0  0  0  0  0  0  0  0  0  0  0
  140.4570   79.7450  223.6010 C   0  0  0  0  0  0  0  0  0  0  0  0
  140.9800   81.0330  223.3960 C   0  0  0  0  0  0  0  0  0  0  0  0
  141.8470   81.2800  222.3140 C   0  0  0  0  0  0  0  0  0  0  0  0
  142.1930   80.2420  221.4340 C   0  0  0  0  0  0  0  0  0  0  0  0
  141.6650   78.9700  221.6660 C   0  0  0  0  0  0  0  0  0  0  0  0
  141.8370   77.7350  220.8590 C   0  0  2  0  0  0  0  0  0  0  0  0
  141.1370   77.9040  219.5250 C   0  0  0  0  0  0  0  0  0  0  0  0
  139.8100   78.2780  219.3110 C   0  0  0  0  0  0  0  0  0  0  0  0
  139.5340   78.3170  217.9880 N   0  0  0  0  0  0  0  0  0  0  0  0
  140.6730   77.9710  217.3620 C   0  0  0  0  0  0  0  0  0  0  0  0
  140.8790   77.8630  215.9880 C   0  0  0  0  0  0  0  0  0  0  0  0
  142.1550   77.4780  215.5430 C   0  0  0  0  0  0  0  0  0  0  0  0
  143.1860   77.2100  216.4710 C   0  0  0  0  0  0  0  0  0  0  0  0
  142.9490   77.3260  217.8520 C   0  0  0  0  0  0  0  0  0  0  0  0
  141.6730   77.7130  218.2650 C   0  0  0  0  0  0  0  0  0  0  0  0
  140.9867   74.0344  218.9615 H   0  0  0  0  0  0  0  0  0  0  0  0
  141.7264   75.6778  218.9076 H   0  0  0  0  0  0  0  0  0  0  0  0
  142.0303   72.2370  220.3297 H   0  0  0  0  0  0  0  0  0  0  0  0
  144.2110   71.2770  221.0679 H   0  0  0  0  0  0  0  0  0  0  0  0
  146.2439   72.7232  221.1728 H   0  0  0  0  0  0  0  0  0  0  0  0
  146.0962   75.1332  220.5355 H   0  0  0  0  0  0  0  0  0  0  0  0
  143.9172   76.1003  219.7952 H   0  0  0  0  0  0  0  0  0  0  0  0
  139.3397   77.2280  222.4188 H   0  0  0  0  0  0  0  0  0  0  0  0
  140.4728   76.8512  223.7118 H   0  0  0  0  0  0  0  0  0  0  0  0
  139.7731   79.5422  224.4384 H   0  0  0  0  0  0  0  0  0  0  0  0
  140.7117   81.8500  224.0820 H   0  0  0  0  0  0  0  0  0  0  0  0
  142.2546   82.2897  222.1577 H   0  0  0  0  0  0  0  0  0  0  0  0
  142.8640   80.4263  220.5821 H   0  0  0  0  0  0  0  0  0  0  0  0
  142.8764   77.4923  220.5928 H   0  0  0  0  0  0  0  0  0  0  0  0
  139.0882   78.5091  220.1083 H   0  0  0  0  0  0  0  0  0  0  0  0
  138.6200   78.5620  217.5470 H   0  0  0  0  0  0  0  0  0  0  0  0
  140.0685   78.0725  215.2745 H   0  0  0  0  0  0  0  0  0  0  0  0
  142.3525   77.3846  214.4649 H   0  0  0  0  0  0  0  0  0  0  0  0
  144.1807   76.9086  216.1107 H   0  0  0  0  0  0  0  0  0  0  0  0
  143.7437   77.1184  218.5837 H   0  0  0  0  0  0  0  0  0  0  0  0
  1  2  2  0
  2  3  2  0
  2  4  1  0
  4  5  1  0
  5  6  2  0
  6  7  1  0
  7  8  2  0
  8  9  1  0
  9 10  2  0
  2 11  1  0
 11 12  1  0
 12 13  1  0
 13 14  2  0
 14 15  1  0
 15 16  2  0
 16 17  1  0
 17 18  2  0
 18 19  1  0
 19 20  1  0
 20 21  2  0
 21 22  1  0
 22 23  1  0
 23 24  2  0
 24 25  1  0
 25 26  2  0
 26 27  1  0
 27 28  2  0
 10  5  1  0
 19 11  1  0
 28 20  1  0
 18 13  1  0
 28 23  1  0
  4 29  1  0
  4 30  1  0
  6 31  1  0
  7 32  1  0
  8 33  1  0
  9 34  1  0
 10 35  1  0
 12 36  1  0
 12 37  1  0
 14 38  1  0
 15 39  1  0
 16 40  1  0
 17 41  1  0
 19 42  1  6
 21 43  1  0
 22 44  1  0
 24 45  1  0
 25 46  1  0
 26 47  1  0
 27 48  1  0
M  END
>  <UniqueID>  (27) 
6

>  <SMILES>  (27) 
O=S(=O)(Cc1ccccc1)N1Cc2ccccc2[C@@H]1c1c[nH]c2ccccc12

>  <Energy>  (27) 
97.32731379793171

>  <Genealogy>  (27) 
O=S(=O)(Cc1ccccc1)N1Cc2ccccc2[C@@H]1c1c[nH]c2ccccc12 (chirality)
O=S(=O)(Cc1ccccc1)N1Cc2ccccc2[C@@H]1c1c[nH]c2ccccc12 (3D coordinates assigned)
O=S(=O)(Cc1ccccc1)N1Cc2ccccc2[C@@H]1c1c[nH]c2ccccc12 (nonaromatic ring conformer: 97.32731379793171 kcal/mol)

>  <smiles>  (27) 
O=S(=O)(Cc1ccccc1)N1Cc2ccccc2C1c1c[nH]c2ccccc12

>  <score_type>  (27) 
oracle

>  <origin>  (27) 
autodockgpu

>  <m_score__min__energy>  (27) 
-7.2199999999999998

>  <m_primary>  (27) 
energy

>  <meeko>  (27) 
{"free_energy": -7.13, "intermolecular_energy": -8.32, "internal_energy": -1.98, "cluster_size": 14, "cluster_id": 2, "rank_in_cluster": 7}

>  <energy>  (27) 
-7.14

>  <cluster_rmsd>  (27) 
0.03

>  <rmsd>  (27) 
269.57

>  <cluster>  (27) 
2

$$$$
WCZRIPJXOMUAPT-HSZRJFAPNA-N
     RDKit          3D

 48 52  0  0  0  0  0  0  0  0999 V2000
  140.1140   72.7920  219.9160 O   0  0  0  0  0  0  0  0  0  0  0  0
  140.4040   72.6640  221.3850 S   0  0  0  0  0  0  0  0  0  0  0  0
  141.7720   72.0680  221.5700 O   0  0  0  0  0  0  0  0  0  0  0  0
  139.1970   71.5720  222.1170 C   0  0  0  0  0  0  0  0  0  0  0  0
  139.6530   71.1260  223.4780 C   0  0  0  0  0  0  0  0  0  0  0  0
  140.5890   71.8900  224.1960 C   0  0  0  0  0  0  0  0  0  0  0  0
  140.9850   71.4980  225.4780 C   0  0  0  0  0  0  0  0  0  0  0  0
  140.4470   70.3440  226.0550 C   0  0  0  0  0  0  0  0  0  0  0  0
  139.5110   69.5820  225.3500 C   0  0  0  0  0  0  0  0  0  0  0  0
  139.1130   69.9710  224.0670 C   0  0  0  0  0  0  0  0  0  0  0  0
  140.3240   74.2250  222.1720 N   0  0  0  0  0  0  0  0  0  0  0  0
  139.0220   74.8950  221.9960 C   0  0  0  0  0  0  0  0  0  0  0  0
  139.3440   76.3380  222.0260 C   0  0  0  0  0  0  0  0  0  0  0  0
  138.4660   77.4200  222.0900 C   0  0  0  0  0  0  0  0  0  0  0  0
  139.0010   78.7190  222.0870 C   0  0  0  0  0  0  0  0  0  0  0  0
  140.3950   78.9090  222.0120 C   0  0  0  0  0  0  0  0  0  0  0  0
  141.2560   77.8020  221.9380 C   0  0  0  0  0  0  0  0  0  0  0  0
  140.6970   76.5220  221.9510 C   0  0  0  0  0  0  0  0  0  0  0  0
  141.3840   75.2110  221.8330 C   0  0  2  0  0  0  0  0  0  0  0  0
  141.9590   75.0670  220.4370 C   0  0  0  0  0  0  0  0  0  0  0  0
  141.3990   75.5260  219.2440 C   0  0  0  0  0  0  0  0  0  0  0  0
  142.1910   75.2090  218.1950 N   0  0  0  0  0  0  0  0  0  0  0  0
  143.2450   74.5550  218.7120 C   0  0  0  0  0  0  0  0  0  0  0  0
  144.3300   74.0240  218.0150 C   0  0  0  0  0  0  0  0  0  0  0  0
  145.3290   73.3680  218.7550 C   0  0  0  0  0  0  0  0  0  0  0  0
  145.2230   73.2580  220.1590 C   0  0  0  0  0  0  0  0  0  0  0  0
  144.1170   73.8030  220.8360 C   0  0  0  0  0  0  0  0  0  0  0  0
  143.1410   74.4500  220.0750 C   0  0  0  0  0  0  0  0  0  0  0  0
  138.2381   72.1026  222.2116 H   0  0  0  0  0  0  0  0  0  0  0  0
  139.0774   70.6884  221.4729 H   0  0  0  0  0  0  0  0  0  0  0  0
  141.0120   72.8008  223.7470 H   0  0  0  0  0  0  0  0  0  0  0  0
  141.7207   72.0982  226.0334 H   0  0  0  0  0  0  0  0  0  0  0  0
  140.7601   70.0357  227.0634 H   0  0  0  0  0  0  0  0  0  0  0  0
  139.0867   68.6749  225.8051 H   0  0  0  0  0  0  0  0  0  0  0  0
  138.3740   69.3699  223.5169 H   0  0  0  0  0  0  0  0  0  0  0  0
  138.5683   74.6173  221.0331 H   0  0  0  0  0  0  0  0  0  0  0  0
  138.2960   74.6111  222.7721 H   0  0  0  0  0  0  0  0  0  0  0  0
  137.3790   77.2597  222.1417 H   0  0  0  0  0  0  0  0  0  0  0  0
  138.3305   79.5892  222.1433 H   0  0  0  0  0  0  0  0  0  0  0  0
  140.8103   79.9276  222.0114 H   0  0  0  0  0  0  0  0  0  0  0  0
  142.3453   77.9397  221.8714 H   0  0  0  0  0  0  0  0  0  0  0  0
  142.2491   75.0754  222.4988 H   0  0  0  0  0  0  0  0  0  0  0  0
  140.4460   76.0700  219.1677 H   0  0  0  0  0  0  0  0  0  0  0  0
  142.0120   75.4260  217.1890 H   0  0  0  0  0  0  0  0  0  0  0  0
  144.4017   74.1156  216.9212 H   0  0  0  0  0  0  0  0  0  0  0  0
  146.1989   72.9376  218.2372 H   0  0  0  0  0  0  0  0  0  0  0  0
  146.0111   72.7424  220.7273 H   0  0  0  0  0  0  0  0  0  0  0  0
  144.0239   73.7222  221.9291 H   0  0  0  0  0  0  0  0  0  0  0  0
  1  2  2  0
  2  3  2  0
  2  4  1  0
  4  5  1  0
  5  6  2  0
  6  7  1  0
  7  8  2  0
  8  9  1  0
  9 10  2  0
  2 11  1  0
 11 12  1  0
 12 13  1  0
 13 14  2  0
 14 15  1  0
 15 16  2  0
 16 17  1  0
 17 18  2  0
 18 19  1  0
 19 20  1  0
 20 21  2  0
 21 22  1  0
 22 23  1  0
 23 24  2  0
 24 25  1  0
 25 26  2  0
 26 27  1  0
 27 28  2  0
 10  5  1  0
 19 11  1  0
 28 20  1  0
 18 13  1  0
 28 23  1  0
  4 29  1  0
  4 30  1  0
  6 31  1  0
  7 32  1  0
  8 33  1  0
  9 34  1  0
 10 35  1  0
 12 36  1  0
 12 37  1  0
 14 38  1  0
 15 39  1  0
 16 40  1  0
 17 41  1  0
 19 42  1  1
 21 43  1  0
 22 44  1  0
 24 45  1  0
 25 46  1  0
 26 47  1  0
 27 48  1  0
M  END
>  <UniqueID>  (28) 
6

>  <SMILES>  (28) 
O=S(=O)(Cc1ccccc1)N1Cc2ccccc2[C@@H]1c1c[nH]c2ccccc12

>  <Energy>  (28) 
97.32731379793171

>  <Genealogy>  (28) 
O=S(=O)(Cc1ccccc1)N1Cc2ccccc2[C@@H]1c1c[nH]c2ccccc12 (chirality)
O=S(=O)(Cc1ccccc1)N1Cc2ccccc2[C@@H]1c1c[nH]c2ccccc12 (3D coordinates assigned)
O=S(=O)(Cc1ccccc1)N1Cc2ccccc2[C@@H]1c1c[nH]c2ccccc12 (nonaromatic ring conformer: 97.32731379793171 kcal/mol)

>  <smiles>  (28) 
O=S(=O)(Cc1ccccc1)N1Cc2ccccc2C1c1c[nH]c2ccccc12

>  <score_type>  (28) 
oracle

>  <origin>  (28) 
autodockgpu

>  <m_score__min__energy>  (28) 
-7.2199999999999998

>  <m_primary>  (28) 
energy

>  <meeko>  (28) 
{"free_energy": -7.22, "intermolecular_energy": -8.41, "internal_energy": -1.77, "cluster_size": 4, "cluster_id": 1, "rank_in_cluster": 1}

>  <energy>  (28) 
-7.13

>  <cluster_rmsd>  (28) 
0.03

>  <rmsd>  (28) 
269.57

>  <cluster>  (28) 
2

$$$$
WCZRIPJXOMUAPT-HSZRJFAPNA-N
     RDKit          3D

 48 52  0  0  0  0  0  0  0  0999 V2000
  140.3680   74.1670  221.8550 O   0  0  0  0  0  0  0  0  0  0  0  0
  140.5350   75.3230  220.9100 S   0  0  0  0  0  0  0  0  0  0  0  0
  139.1870   75.7290  220.3800 O   0  0  0  0  0  0  0  0  0  0  0  0
  141.5590   74.8060  219.5430 C   0  0  0  0  0  0  0  0  0  0  0  0
  142.8540   74.2340  220.0460 C   0  0  0  0  0  0  0  0  0  0  0  0
  142.9330   72.8800  220.4120 C   0  0  0  0  0  0  0  0  0  0  0  0
  144.1470   72.3350  220.8430 C   0  0  0  0  0  0  0  0  0  0  0  0
  145.2900   73.1370  220.9080 C   0  0  0  0  0  0  0  0  0  0  0  0
  145.2210   74.4830  220.5400 C   0  0  0  0  0  0  0  0  0  0  0  0
  144.0090   75.0310  220.1080 C   0  0  0  0  0  0  0  0  0  0  0  0
  141.2900   76.6810  221.7160 N   0  0  0  0  0  0  0  0  0  0  0  0
  140.4150   77.3170  222.7190 C   0  0  0  0  0  0  0  0  0  0  0  0
  140.8370   78.7340  222.7280 C   0  0  0  0  0  0  0  0  0  0  0  0
  140.4700   79.7420  223.6220 C   0  0  0  0  0  0  0  0  0  0  0  0
  140.9830   81.0330  223.4230 C   0  0  0  0  0  0  0  0  0  0  0  0
  141.8410   81.2940  222.3360 C   0  0  0  0  0  0  0  0  0  0  0  0
  142.1870   80.2650  221.4470 C   0  0  0  0  0  0  0  0  0  0  0  0
  141.6680   78.9880  221.6720 C   0  0  0  0  0  0  0  0  0  0  0  0
  141.8420   77.7600  220.8550 C   0  0  2  0  0  0  0  0  0  0  0  0
  141.1320   77.9350  219.5270 C   0  0  0  0  0  0  0  0  0  0  0  0
  139.8060   78.3200  219.3250 C   0  0  0  0  0  0  0  0  0  0  0  0
  139.5190   78.3620  218.0040 N   0  0  0  0  0  0  0  0  0  0  0  0
  140.6490   78.0070  217.3690 C   0  0  0  0  0  0  0  0  0  0  0  0
  140.8430   77.8980  215.9920 C   0  0  0  0  0  0  0  0  0  0  0  0
  142.1120   77.5030  215.5360 C   0  0  0  0  0  0  0  0  0  0  0  0
  143.1480   77.2280  216.4550 C   0  0  0  0  0  0  0  0  0  0  0  0
  142.9250   77.3450  217.8380 C   0  0  0  0  0  0  0  0  0  0  0  0
  141.6550   77.7410  218.2630 C   0  0  0  0  0  0  0  0  0  0  0  0
  141.0263   74.0399  218.9605 H   0  0  0  0  0  0  0  0  0  0  0  0
  141.7764   75.6788  218.9098 H   0  0  0  0  0  0  0  0  0  0  0  0
  142.0360   72.2454  220.3594 H   0  0  0  0  0  0  0  0  0  0  0  0
  144.2022   71.2748  221.1309 H   0  0  0  0  0  0  0  0  0  0  0  0
  146.2439   72.7083  221.2490 H   0  0  0  0  0  0  0  0  0  0  0  0
  146.1215   75.1128  220.5901 H   0  0  0  0  0  0  0  0  0  0  0  0
  143.9600   76.0903  219.8156 H   0  0  0  0  0  0  0  0  0  0  0  0
  139.3583   77.2272  222.4268 H   0  0  0  0  0  0  0  0  0  0  0  0
  140.5015   76.8470  223.7098 H   0  0  0  0  0  0  0  0  0  0  0  0
  139.7940   79.5289  224.4632 H   0  0  0  0  0  0  0  0  0  0  0  0
  140.7147   81.8431  224.1171 H   0  0  0  0  0  0  0  0  0  0  0  0
  142.2407   82.3075  222.1840 H   0  0  0  0  0  0  0  0  0  0  0  0
  142.8518   80.4596  220.5925 H   0  0  0  0  0  0  0  0  0  0  0  0
  142.8808   77.5249  220.5800 H   0  0  0  0  0  0  0  0  0  0  0  0
  139.0931   78.5565  220.1286 H   0  0  0  0  0  0  0  0  0  0  0  0
  138.6030   78.6140  217.5710 H   0  0  0  0  0  0  0  0  0  0  0  0
  140.0282   78.1144  215.2854 H   0  0  0  0  0  0  0  0  0  0  0  0
  142.2995   77.4074  214.4563 H   0  0  0  0  0  0  0  0  0  0  0  0
  144.1373   76.9198  216.0859 H   0  0  0  0  0  0  0  0  0  0  0  0
  143.7251   77.1315  218.5621 H   0  0  0  0  0  0  0  0  0  0  0  0
  1  2  2  0
  2  3  2  0
  2  4  1  0
  4  5  1  0
  5  6  2  0
  6  7  1  0
  7  8  2  0
  8  9  1  0
  9 10  2  0
  2 11  1  0
 11 12  1  0
 12 13  1  0
 13 14  2  0
 14 15  1  0
 15 16  2  0
 16 17  1  0
 17 18  2  0
 18 19  1  0
 19 20  1  0
 20 21  2  0
 21 22  1  0
 22 23  1  0
 23 24  2  0
 24 25  1  0
 25 26  2  0
 26 27  1  0
 27 28  2  0
 10  5  1  0
 19 11  1  0
 28 20  1  0
 18 13  1  0
 28 23  1  0
  4 29  1  0
  4 30  1  0
  6 31  1  0
  7 32  1  0
  8 33  1  0
  9 34  1  0
 10 35  1  0
 12 36  1  0
 12 37  1  0
 14 38  1  0
 15 39  1  0
 16 40  1  0
 17 41  1  0
 19 42  1  6
 21 43  1  0
 22 44  1  0
 24 45  1  0
 25 46  1  0
 26 47  1  0
 27 48  1  0
M  END
>  <UniqueID>  (29) 
6

>  <SMILES>  (29) 
O=S(=O)(Cc1ccccc1)N1Cc2ccccc2[C@@H]1c1c[nH]c2ccccc12

>  <Energy>  (29) 
97.32731379793171

>  <Genealogy>  (29) 
O=S(=O)(Cc1ccccc1)N1Cc2ccccc2[C@@H]1c1c[nH]c2ccccc12 (chirality)
O=S(=O)(Cc1ccccc1)N1Cc2ccccc2[C@@H]1c1c[nH]c2ccccc12 (3D coordinates assigned)
O=S(=O)(Cc1ccccc1)N1Cc2ccccc2[C@@H]1c1c[nH]c2ccccc12 (nonaromatic ring conformer: 97.32731379793171 kcal/mol)

>  <smiles>  (29) 
O=S(=O)(Cc1ccccc1)N1Cc2ccccc2C1c1c[nH]c2ccccc12

>  <score_type>  (29) 
oracle

>  <origin>  (29) 
autodockgpu

>  <m_score__min__energy>  (29) 
-7.2199999999999998

>  <m_primary>  (29) 
energy

>  <meeko>  (29) 
{"free_energy": -7.12, "intermolecular_energy": -8.31, "internal_energy": -1.99, "cluster_size": 14, "cluster_id": 2, "rank_in_cluster": 11}

>  <energy>  (29) 
-7.13

>  <cluster_rmsd>  (29) 
0.03

>  <rmsd>  (29) 
269.57

>  <cluster>  (29) 
2

$$$$
WCZRIPJXOMUAPT-HSZRJFAPNA-N
     RDKit          3D

 48 52  0  0  0  0  0  0  0  0999 V2000
  140.3850   74.1290  221.8510 O   0  0  0  0  0  0  0  0  0  0  0  0
  140.5410   75.2910  220.9110 S   0  0  0  0  0  0  0  0  0  0  0  0
  139.1890   75.6910  220.3890 O   0  0  0  0  0  0  0  0  0  0  0  0
  141.5620   74.7880  219.5370 C   0  0  0  0  0  0  0  0  0  0  0  0
  142.8630   74.2200  220.0310 C   0  0  0  0  0  0  0  0  0  0  0  0
  142.9520   72.8640  220.3870 C   0  0  0  0  0  0  0  0  0  0  0  0
  144.1700   72.3240  220.8110 C   0  0  0  0  0  0  0  0  0  0  0  0
  145.3090   73.1320  220.8760 C   0  0  0  0  0  0  0  0  0  0  0  0
  145.2300   74.4810  220.5180 C   0  0  0  0  0  0  0  0  0  0  0  0
  144.0130   75.0240  220.0940 C   0  0  0  0  0  0  0  0  0  0  0  0
  141.2910   76.6480  221.7210 N   0  0  0  0  0  0  0  0  0  0  0  0
  140.4110   77.2830  222.7210 C   0  0  0  0  0  0  0  0  0  0  0  0
  140.8320   78.7000  222.7330 C   0  0  0  0  0  0  0  0  0  0  0  0
  140.4590   79.7070  223.6260 C   0  0  0  0  0  0  0  0  0  0  0  0
  140.9730   80.9990  223.4300 C   0  0  0  0  0  0  0  0  0  0  0  0
  141.8350   81.2620  222.3480 C   0  0  0  0  0  0  0  0  0  0  0  0
  142.1860   80.2330  221.4590 C   0  0  0  0  0  0  0  0  0  0  0  0
  141.6680   78.9560  221.6810 C   0  0  0  0  0  0  0  0  0  0  0  0
  141.8460   77.7290  220.8640 C   0  0  2  0  0  0  0  0  0  0  0  0
  141.1420   77.9040  219.5330 C   0  0  0  0  0  0  0  0  0  0  0  0
  139.8140   78.2830  219.3250 C   0  0  0  0  0  0  0  0  0  0  0  0
  139.5340   78.3270  218.0030 N   0  0  0  0  0  0  0  0  0  0  0  0
  140.6690   77.9800  217.3720 C   0  0  0  0  0  0  0  0  0  0  0  0
  140.8710   77.8770  215.9970 C   0  0  0  0  0  0  0  0  0  0  0  0
  142.1440   77.4900  215.5450 C   0  0  0  0  0  0  0  0  0  0  0  0
  143.1780   77.2170  216.4690 C   0  0  0  0  0  0  0  0  0  0  0  0
  142.9460   77.3290  217.8510 C   0  0  0  0  0  0  0  0  0  0  0  0
  141.6720   77.7160  218.2700 C   0  0  0  0  0  0  0  0  0  0  0  0
  141.0311   74.0224  218.9522 H   0  0  0  0  0  0  0  0  0  0  0  0
  141.7719   75.6659  218.9083 H   0  0  0  0  0  0  0  0  0  0  0  0
  142.0591   72.2239  220.3319 H   0  0  0  0  0  0  0  0  0  0  0  0
  144.2321   71.2627  221.0936 H   0  0  0  0  0  0  0  0  0  0  0  0
  146.2672   72.7064  221.2088 H   0  0  0  0  0  0  0  0  0  0  0  0
  146.1264   75.1164  220.5699 H   0  0  0  0  0  0  0  0  0  0  0  0
  143.9561   76.0848  219.8087 H   0  0  0  0  0  0  0  0  0  0  0  0
  139.3556   77.1928  222.4241 H   0  0  0  0  0  0  0  0  0  0  0  0
  140.4935   76.8123  223.7118 H   0  0  0  0  0  0  0  0  0  0  0  0
  139.7785   79.4930  224.4633 H   0  0  0  0  0  0  0  0  0  0  0  0
  140.7014   81.8082  224.1239 H   0  0  0  0  0  0  0  0  0  0  0  0
  142.2345   82.2760  222.1987 H   0  0  0  0  0  0  0  0  0  0  0  0
  142.8539   80.4289  220.6072 H   0  0  0  0  0  0  0  0  0  0  0  0
  142.8865   77.4956  220.5940 H   0  0  0  0  0  0  0  0  0  0  0  0
  139.0957   78.5137  220.1255 H   0  0  0  0  0  0  0  0  0  0  0  0
  138.6190   78.5760  217.5660 H   0  0  0  0  0  0  0  0  0  0  0  0
  140.0587   78.0921  215.2871 H   0  0  0  0  0  0  0  0  0  0  0  0
  142.3368   77.3990  214.4659 H   0  0  0  0  0  0  0  0  0  0  0  0
  144.1709   76.9149  216.1044 H   0  0  0  0  0  0  0  0  0  0  0  0
  143.7432   77.1183  218.5791 H   0  0  0  0  0  0  0  0  0  0  0  0
  1  2  2  0
  2  3  2  0
  2  4  1  0
  4  5  1  0
  5  6  2  0
  6  7  1  0
  7  8  2  0
  8  9  1  0
  9 10  2  0
  2 11  1  0
 11 12  1  0
 12 13  1  0
 13 14  2  0
 14 15  1  0
 15 16  2  0
 16 17  1  0
 17 18  2  0
 18 19  1  0
 19 20  1  0
 20 21  2  0
 21 22  1  0
 22 23  1  0
 23 24  2  0
 24 25  1  0
 25 26  2  0
 26 27  1  0
 27 28  2  0
 10  5  1  0
 19 11  1  0
 28 20  1  0
 18 13  1  0
 28 23  1  0
  4 29  1  0
  4 30  1  0
  6 31  1  0
  7 32  1  0
  8 33  1  0
  9 34  1  0
 10 35  1  0
 12 36  1  0
 12 37  1  0
 14 38  1  0
 15 39  1  0
 16 40  1  0
 17 41  1  0
 19 42  1  6
 21 43  1  0
 22 44  1  0
 24 45  1  0
 25 46  1  0
 26 47  1  0
 27 48  1  0
M  END
>  <UniqueID>  (30) 
6

>  <SMILES>  (30) 
O=S(=O)(Cc1ccccc1)N1Cc2ccccc2[C@@H]1c1c[nH]c2ccccc12

>  <Energy>  (30) 
97.32731379793171

>  <Genealogy>  (30) 
O=S(=O)(Cc1ccccc1)N1Cc2ccccc2[C@@H]1c1c[nH]c2ccccc12 (chirality)
O=S(=O)(Cc1ccccc1)N1Cc2ccccc2[C@@H]1c1c[nH]c2ccccc12 (3D coordinates assigned)
O=S(=O)(Cc1ccccc1)N1Cc2ccccc2[C@@H]1c1c[nH]c2ccccc12 (nonaromatic ring conformer: 97.32731379793171 kcal/mol)

>  <smiles>  (30) 
O=S(=O)(Cc1ccccc1)N1Cc2ccccc2C1c1c[nH]c2ccccc12

>  <score_type>  (30) 
oracle

>  <origin>  (30) 
autodockgpu

>  <m_score__min__energy>  (30) 
-7.2199999999999998

>  <m_primary>  (30) 
energy

>  <meeko>  (30) 
{"free_energy": -7.12, "intermolecular_energy": -8.32, "internal_energy": -1.98, "cluster_size": 14, "cluster_id": 2, "rank_in_cluster": 8}

>  <energy>  (30) 
-7.13

>  <cluster_rmsd>  (30) 
0.03

>  <rmsd>  (30) 
269.58

>  <cluster>  (30) 
2

$$$$
WCZRIPJXOMUAPT-HSZRJFAPNA-N
     RDKit          3D

 48 52  0  0  0  0  0  0  0  0999 V2000
  140.4120   74.1470  221.9660 O   0  0  0  0  0  0  0  0  0  0  0  0
  140.5330   75.2990  221.0080 S   0  0  0  0  0  0  0  0  0  0  0  0
  139.1640   75.6750  220.5100 O   0  0  0  0  0  0  0  0  0  0  0  0
  141.5310   74.7920  219.6190 C   0  0  0  0  0  0  0  0  0  0  0  0
  142.8430   74.2320  220.0940 C   0  0  0  0  0  0  0  0  0  0  0  0
  142.9430   72.8790  220.4590 C   0  0  0  0  0  0  0  0  0  0  0  0
  144.1710   72.3460  220.8640 C   0  0  0  0  0  0  0  0  0  0  0  0
  145.3080   73.1580  220.9020 C   0  0  0  0  0  0  0  0  0  0  0  0
  145.2180   74.5040  220.5350 C   0  0  0  0  0  0  0  0  0  0  0  0
  143.9910   75.0400  220.1290 C   0  0  0  0  0  0  0  0  0  0  0  0
  141.2810   76.6770  221.7850 N   0  0  0  0  0  0  0  0  0  0  0  0
  140.3920   77.3510  222.7500 C   0  0  0  0  0  0  0  0  0  0  0  0
  140.8230   78.7650  222.7220 C   0  0  0  0  0  0  0  0  0  0  0  0
  140.4450   79.8020  223.5750 C   0  0  0  0  0  0  0  0  0  0  0  0
  140.9720   81.0840  223.3450 C   0  0  0  0  0  0  0  0  0  0  0  0
  141.8530   81.3040  222.2680 C   0  0  0  0  0  0  0  0  0  0  0  0
  142.2090   80.2440  221.4190 C   0  0  0  0  0  0  0  0  0  0  0  0
  141.6770   78.9790  221.6750 C   0  0  0  0  0  0  0  0  0  0  0  0
  141.8580   77.7240  220.9010 C   0  0  2  0  0  0  0  0  0  0  0  0
  141.1750   77.8610  219.5540 C   0  0  0  0  0  0  0  0  0  0  0  0
  139.8440   78.2080  219.3160 C   0  0  0  0  0  0  0  0  0  0  0  0
  139.5880   78.2230  217.9880 N   0  0  0  0  0  0  0  0  0  0  0  0
  140.7420   77.8880  217.3850 C   0  0  0  0  0  0  0  0  0  0  0  0
  140.9700   77.7650  216.0150 C   0  0  0  0  0  0  0  0  0  0  0  0
  142.2600   77.3960  215.5940 C   0  0  0  0  0  0  0  0  0  0  0  0
  143.2810   77.1610  216.5410 C   0  0  0  0  0  0  0  0  0  0  0  0
  143.0220   77.2930  217.9170 C   0  0  0  0  0  0  0  0  0  0  0  0
  141.7330   77.6620  218.3060 C   0  0  0  0  0  0  0  0  0  0  0  0
  140.9930   74.0208  219.0482 H   0  0  0  0  0  0  0  0  0  0  0  0
  141.7260   75.6667  218.9811 H   0  0  0  0  0  0  0  0  0  0  0  0
  142.0512   72.2358  220.4261 H   0  0  0  0  0  0  0  0  0  0  0  0
  144.2421   71.2870  221.1528 H   0  0  0  0  0  0  0  0  0  0  0  0
  146.2735   72.7381  221.2206 H   0  0  0  0  0  0  0  0  0  0  0  0
  146.1131   75.1426  220.5655 H   0  0  0  0  0  0  0  0  0  0  0  0
  143.9254   76.0983  219.8361 H   0  0  0  0  0  0  0  0  0  0  0  0
  139.3404   77.2585  222.4408 H   0  0  0  0  0  0  0  0  0  0  0  0
  140.4572   76.9128  223.7568 H   0  0  0  0  0  0  0  0  0  0  0  0
  139.7504   79.6203  224.4084 H   0  0  0  0  0  0  0  0  0  0  0  0
  140.6960   81.9177  224.0074 H   0  0  0  0  0  0  0  0  0  0  0  0
  142.2632   82.3093  222.0917 H   0  0  0  0  0  0  0  0  0  0  0  0
  142.8914   80.4065  220.5717 H   0  0  0  0  0  0  0  0  0  0  0  0
  142.9003   77.4733  220.6543 H   0  0  0  0  0  0  0  0  0  0  0  0
  139.1063   78.4372  220.0991 H   0  0  0  0  0  0  0  0  0  0  0  0
  138.6760   78.4450  217.5300 H   0  0  0  0  0  0  0  0  0  0  0  0
  140.1666   77.9506  215.2869 H   0  0  0  0  0  0  0  0  0  0  0  0
  142.4751   77.2898  214.5205 H   0  0  0  0  0  0  0  0  0  0  0  0
  144.2862   76.8726  216.1999 H   0  0  0  0  0  0  0  0  0  0  0  0
  143.8098   77.1113  218.6629 H   0  0  0  0  0  0  0  0  0  0  0  0
  1  2  2  0
  2  3  2  0
  2  4  1  0
  4  5  1  0
  5  6  2  0
  6  7  1  0
  7  8  2  0
  8  9  1  0
  9 10  2  0
  2 11  1  0
 11 12  1  0
 12 13  1  0
 13 14  2  0
 14 15  1  0
 15 16  2  0
 16 17  1  0
 17 18  2  0
 18 19  1  0
 19 20  1  0
 20 21  2  0
 21 22  1  0
 22 23  1  0
 23 24  2  0
 24 25  1  0
 25 26  2  0
 26 27  1  0
 27 28  2  0
 10  5  1  0
 19 11  1  0
 28 20  1  0
 18 13  1  0
 28 23  1  0
  4 29  1  0
  4 30  1  0
  6 31  1  0
  7 32  1  0
  8 33  1  0
  9 34  1  0
 10 35  1  0
 12 36  1  0
 12 37  1  0
 14 38  1  0
 15 39  1  0
 16 40  1  0
 17 41  1  0
 19 42  1  6
 21 43  1  0
 22 44  1  0
 24 45  1  0
 25 46  1  0
 26 47  1  0
 27 48  1  0
M  END
>  <UniqueID>  (31) 
6

>  <SMILES>  (31) 
O=S(=O)(Cc1ccccc1)N1Cc2ccccc2[C@@H]1c1c[nH]c2ccccc12

>  <Energy>  (31) 
97.32731379793171

>  <Genealogy>  (31) 
O=S(=O)(Cc1ccccc1)N1Cc2ccccc2[C@@H]1c1c[nH]c2ccccc12 (chirality)
O=S(=O)(Cc1ccccc1)N1Cc2ccccc2[C@@H]1c1c[nH]c2ccccc12 (3D coordinates assigned)
O=S(=O)(Cc1ccccc1)N1Cc2ccccc2[C@@H]1c1c[nH]c2ccccc12 (nonaromatic ring conformer: 97.32731379793171 kcal/mol)

>  <smiles>  (31) 
O=S(=O)(Cc1ccccc1)N1Cc2ccccc2C1c1c[nH]c2ccccc12

>  <score_type>  (31) 
oracle

>  <origin>  (31) 
autodockgpu

>  <m_score__min__energy>  (31) 
-7.2199999999999998

>  <m_primary>  (31) 
energy

>  <meeko>  (31) 
{"free_energy": -7.11, "intermolecular_energy": -8.31, "internal_energy": -1.97, "cluster_size": 14, "cluster_id": 2, "rank_in_cluster": 13}

>  <energy>  (31) 
-7.13

>  <cluster_rmsd>  (31) 
0.04

>  <rmsd>  (31) 
269.57

>  <cluster>  (31) 
2

$$$$
WCZRIPJXOMUAPT-HSZRJFAPNA-N
     RDKit          3D

 48 52  0  0  0  0  0  0  0  0999 V2000
  140.3570   74.1630  221.8980 O   0  0  0  0  0  0  0  0  0  0  0  0
  140.5010   75.3170  220.9460 S   0  0  0  0  0  0  0  0  0  0  0  0
  139.1430   75.7100  220.4340 O   0  0  0  0  0  0  0  0  0  0  0  0
  141.5100   74.8030  219.5670 C   0  0  0  0  0  0  0  0  0  0  0  0
  142.8080   74.2230  220.0540 C   0  0  0  0  0  0  0  0  0  0  0  0
  142.8800   72.8720  220.4350 C   0  0  0  0  0  0  0  0  0  0  0  0
  144.0950   72.3210  220.8520 C   0  0  0  0  0  0  0  0  0  0  0  0
  145.2480   73.1110  220.8870 C   0  0  0  0  0  0  0  0  0  0  0  0
  145.1850   74.4540  220.5050 C   0  0  0  0  0  0  0  0  0  0  0  0
  143.9710   75.0090  220.0870 C   0  0  0  0  0  0  0  0  0  0  0  0
  141.2570   76.6840  221.7360 N   0  0  0  0  0  0  0  0  0  0  0  0
  140.3750   77.3450  222.7160 C   0  0  0  0  0  0  0  0  0  0  0  0
  140.8080   78.7590  222.7030 C   0  0  0  0  0  0  0  0  0  0  0  0
  140.4370   79.7860  223.5730 C   0  0  0  0  0  0  0  0  0  0  0  0
  140.9640   81.0700  223.3560 C   0  0  0  0  0  0  0  0  0  0  0  0
  141.8380   81.3030  222.2770 C   0  0  0  0  0  0  0  0  0  0  0  0
  142.1870   80.2540  221.4110 C   0  0  0  0  0  0  0  0  0  0  0  0
  141.6550   78.9860  221.6540 C   0  0  0  0  0  0  0  0  0  0  0  0
  141.8290   77.7420  220.8620 C   0  0  2  0  0  0  0  0  0  0  0  0
  141.1370   77.8970  219.5220 C   0  0  0  0  0  0  0  0  0  0  0  0
  139.8080   78.2580  219.2960 C   0  0  0  0  0  0  0  0  0  0  0  0
  139.5430   78.2870  217.9710 N   0  0  0  0  0  0  0  0  0  0  0  0
  140.6890   77.9490  217.3560 C   0  0  0  0  0  0  0  0  0  0  0  0
  140.9060   77.8360  215.9830 C   0  0  0  0  0  0  0  0  0  0  0  0
  142.1900   77.4600  215.5500 C   0  0  0  0  0  0  0  0  0  0  0  0
  143.2150   77.2080  216.4870 C   0  0  0  0  0  0  0  0  0  0  0  0
  142.9680   77.3290  217.8660 C   0  0  0  0  0  0  0  0  0  0  0  0
  141.6840   77.7050  218.2670 C   0  0  0  0  0  0  0  0  0  0  0  0
  140.9686   74.0421  218.9857 H   0  0  0  0  0  0  0  0  0  0  0  0
  141.7250   75.6785  218.9367 H   0  0  0  0  0  0  0  0  0  0  0  0
  141.9763   72.2456  220.4049 H   0  0  0  0  0  0  0  0  0  0  0  0
  144.1441   71.2642  221.1531 H   0  0  0  0  0  0  0  0  0  0  0  0
  146.2037   72.6761  221.2148 H   0  0  0  0  0  0  0  0  0  0  0  0
  146.0920   75.0758  220.5331 H   0  0  0  0  0  0  0  0  0  0  0  0
  143.9273   76.0653  219.7830 H   0  0  0  0  0  0  0  0  0  0  0  0
  139.3212   77.2575  222.4129 H   0  0  0  0  0  0  0  0  0  0  0  0
  140.4458   76.8933  223.7165 H   0  0  0  0  0  0  0  0  0  0  0  0
  139.7481   79.5942  224.4089 H   0  0  0  0  0  0  0  0  0  0  0  0
  140.6932   81.8954  224.0308 H   0  0  0  0  0  0  0  0  0  0  0  0
  142.2488   82.3100  222.1118 H   0  0  0  0  0  0  0  0  0  0  0  0
  142.8636   80.4271  220.5611 H   0  0  0  0  0  0  0  0  0  0  0  0
  142.8693   77.4941  220.6044 H   0  0  0  0  0  0  0  0  0  0  0  0
  139.0778   78.4870  220.0862 H   0  0  0  0  0  0  0  0  0  0  0  0
  138.6290   78.5220  217.5220 H   0  0  0  0  0  0  0  0  0  0  0  0
  140.0991   78.0345  215.2623 H   0  0  0  0  0  0  0  0  0  0  0  0
  142.3969   77.3616  214.4741 H   0  0  0  0  0  0  0  0  0  0  0  0
  144.2152   76.9146  216.1356 H   0  0  0  0  0  0  0  0  0  0  0  0
  143.7597   77.1340  218.6044 H   0  0  0  0  0  0  0  0  0  0  0  0
  1  2  2  0
  2  3  2  0
  2  4  1  0
  4  5  1  0
  5  6  2  0
  6  7  1  0
  7  8  2  0
  8  9  1  0
  9 10  2  0
  2 11  1  0
 11 12  1  0
 12 13  1  0
 13 14  2  0
 14 15  1  0
 15 16  2  0
 16 17  1  0
 17 18  2  0
 18 19  1  0
 19 20  1  0
 20 21  2  0
 21 22  1  0
 22 23  1  0
 23 24  2  0
 24 25  1  0
 25 26  2  0
 26 27  1  0
 27 28  2  0
 10  5  1  0
 19 11  1  0
 28 20  1  0
 18 13  1  0
 28 23  1  0
  4 29  1  0
  4 30  1  0
  6 31  1  0
  7 32  1  0
  8 33  1  0
  9 34  1  0
 10 35  1  0
 12 36  1  0
 12 37  1  0
 14 38  1  0
 15 39  1  0
 16 40  1  0
 17 41  1  0
 19 42  1  6
 21 43  1  0
 22 44  1  0
 24 45  1  0
 25 46  1  0
 26 47  1  0
 27 48  1  0
M  END
>  <UniqueID>  (32) 
6

>  <SMILES>  (32) 
O=S(=O)(Cc1ccccc1)N1Cc2ccccc2[C@@H]1c1c[nH]c2ccccc12

>  <Energy>  (32) 
97.32731379793171

>  <Genealogy>  (32) 
O=S(=O)(Cc1ccccc1)N1Cc2ccccc2[C@@H]1c1c[nH]c2ccccc12 (chirality)
O=S(=O)(Cc1ccccc1)N1Cc2ccccc2[C@@H]1c1c[nH]c2ccccc12 (3D coordinates assigned)
O=S(=O)(Cc1ccccc1)N1Cc2ccccc2[C@@H]1c1c[nH]c2ccccc12 (nonaromatic ring conformer: 97.32731379793171 kcal/mol)

>  <smiles>  (32) 
O=S(=O)(Cc1ccccc1)N1Cc2ccccc2C1c1c[nH]c2ccccc12

>  <score_type>  (32) 
oracle

>  <origin>  (32) 
autodockgpu

>  <m_score__min__energy>  (32) 
-7.2199999999999998

>  <m_primary>  (32) 
energy

>  <meeko>  (32) 
{"free_energy": -7.14, "intermolecular_energy": -8.34, "internal_energy": -1.98, "cluster_size": 14, "cluster_id": 2, "rank_in_cluster": 1}

>  <energy>  (32) 
-7.12

>  <cluster_rmsd>  (32) 
0.06

>  <rmsd>  (32) 
269.58

>  <cluster>  (32) 
2

$$$$
WCZRIPJXOMUAPT-HSZRJFAPNA-N
     RDKit          3D

 48 52  0  0  0  0  0  0  0  0999 V2000
  137.4980   78.3350  220.1070 O   0  0  0  0  0  0  0  0  0  0  0  0
  138.9540   78.5410  219.8010 S   0  0  0  0  0  0  0  0  0  0  0  0
  139.1140   79.7740  218.9570 O   0  0  0  0  0  0  0  0  0  0  0  0
  139.5540   77.1330  218.8830 C   0  0  0  0  0  0  0  0  0  0  0  0
  140.0710   76.0780  219.8200 C   0  0  0  0  0  0  0  0  0  0  0  0
  141.3650   75.5560  219.6520 C   0  0  0  0  0  0  0  0  0  0  0  0
  141.8620   74.6020  220.5450 C   0  0  0  0  0  0  0  0  0  0  0  0
  141.0750   74.1670  221.6150 C   0  0  0  0  0  0  0  0  0  0  0  0
  139.7890   74.6860  221.7930 C   0  0  0  0  0  0  0  0  0  0  0  0
  139.2890   75.6400  220.9010 C   0  0  0  0  0  0  0  0  0  0  0  0
  139.8820   78.7060  221.2760 N   0  0  0  0  0  0  0  0  0  0  0  0
  139.5180   79.9030  222.0570 C   0  0  0  0  0  0  0  0  0  0  0  0
  140.7660   80.2790  222.7550 C   0  0  0  0  0  0  0  0  0  0  0  0
  140.9400   81.2250  223.7670 C   0  0  0  0  0  0  0  0  0  0  0  0
  142.2340   81.4320  224.2740 C   0  0  0  0  0  0  0  0  0  0  0  0
  143.3220   80.7010  223.7580 C   0  0  0  0  0  0  0  0  0  0  0  0
  143.1190   79.7630  222.7330 C   0  0  0  0  0  0  0  0  0  0  0  0
  141.8220   79.5710  222.2530 C   0  0  0  0  0  0  0  0  0  0  0  0
  141.3630   78.6860  221.1520 C   0  0  2  0  0  0  0  0  0  0  0  0
  141.8950   79.2080  219.8320 C   0  0  0  0  0  0  0  0  0  0  0  0
  142.5410   78.4750  218.8350 C   0  0  0  0  0  0  0  0  0  0  0  0
  142.8810   79.2770  217.8010 N   0  0  0  0  0  0  0  0  0  0  0  0
  142.4580   80.5090  218.1330 C   0  0  0  0  0  0  0  0  0  0  0  0
  142.5890   81.6760  217.3810 C   0  0  0  0  0  0  0  0  0  0  0  0
  142.0770   82.8680  217.9220 C   0  0  0  0  0  0  0  0  0  0  0  0
  141.4520   82.8680  219.1890 C   0  0  0  0  0  0  0  0  0  0  0  0
  141.3340   81.6760  219.9260 C   0  0  0  0  0  0  0  0  0  0  0  0
  141.8500   80.5070  219.3630 C   0  0  0  0  0  0  0  0  0  0  0  0
  138.7322   76.7142  218.2837 H   0  0  0  0  0  0  0  0  0  0  0  0
  140.3735   77.4588  218.2255 H   0  0  0  0  0  0  0  0  0  0  0  0
  141.9895   75.8996  218.8142 H   0  0  0  0  0  0  0  0  0  0  0  0
  142.8736   74.1932  220.4053 H   0  0  0  0  0  0  0  0  0  0  0  0
  141.4673   73.4164  222.3170 H   0  0  0  0  0  0  0  0  0  0  0  0
  139.1700   74.3436  222.6354 H   0  0  0  0  0  0  0  0  0  0  0  0
  138.2784   76.0492  221.0469 H   0  0  0  0  0  0  0  0  0  0  0  0
  139.1834   80.7140  221.3935 H   0  0  0  0  0  0  0  0  0  0  0  0
  138.6883   79.7132  222.7538 H   0  0  0  0  0  0  0  0  0  0  0  0
  140.0843   81.7948  224.1582 H   0  0  0  0  0  0  0  0  0  0  0  0
  142.3978   82.1668  225.0760 H   0  0  0  0  0  0  0  0  0  0  0  0
  144.3330   80.8654  224.1590 H   0  0  0  0  0  0  0  0  0  0  0  0
  143.9627   79.1924  222.3176 H   0  0  0  0  0  0  0  0  0  0  0  0
  141.7286   77.6497  221.2021 H   0  0  0  0  0  0  0  0  0  0  0  0
  142.7450   77.3952  218.8838 H   0  0  0  0  0  0  0  0  0  0  0  0
  143.3770   78.9940  216.9260 H   0  0  0  0  0  0  0  0  0  0  0  0
  143.0776   81.6641  216.3955 H   0  0  0  0  0  0  0  0  0  0  0  0
  142.1635   83.8068  217.3553 H   0  0  0  0  0  0  0  0  0  0  0  0
  141.0548   83.8070  219.6020 H   0  0  0  0  0  0  0  0  0  0  0  0
  140.8508   81.6650  220.9141 H   0  0  0  0  0  0  0  0  0  0  0  0
  1  2  2  0
  2  3  2  0
  2  4  1  0
  4  5  1  0
  5  6  2  0
  6  7  1  0
  7  8  2  0
  8  9  1  0
  9 10  2  0
  2 11  1  0
 11 12  1  0
 12 13  1  0
 13 14  2  0
 14 15  1  0
 15 16  2  0
 16 17  1  0
 17 18  2  0
 18 19  1  0
 19 20  1  0
 20 21  2  0
 21 22  1  0
 22 23  1  0
 23 24  2  0
 24 25  1  0
 25 26  2  0
 26 27  1  0
 27 28  2  0
 10  5  1  0
 19 11  1  0
 28 20  1  0
 18 13  1  0
 28 23  1  0
  4 29  1  0
  4 30  1  0
  6 31  1  0
  7 32  1  0
  8 33  1  0
  9 34  1  0
 10 35  1  0
 12 36  1  0
 12 37  1  0
 14 38  1  0
 15 39  1  0
 16 40  1  0
 17 41  1  0
 19 42  1  1
 21 43  1  0
 22 44  1  0
 24 45  1  0
 25 46  1  0
 26 47  1  0
 27 48  1  0
M  END
>  <UniqueID>  (33) 
6

>  <SMILES>  (33) 
O=S(=O)(Cc1ccccc1)N1Cc2ccccc2[C@@H]1c1c[nH]c2ccccc12

>  <Energy>  (33) 
97.32731379793171

>  <Genealogy>  (33) 
O=S(=O)(Cc1ccccc1)N1Cc2ccccc2[C@@H]1c1c[nH]c2ccccc12 (chirality)
O=S(=O)(Cc1ccccc1)N1Cc2ccccc2[C@@H]1c1c[nH]c2ccccc12 (3D coordinates assigned)
O=S(=O)(Cc1ccccc1)N1Cc2ccccc2[C@@H]1c1c[nH]c2ccccc12 (nonaromatic ring conformer: 97.32731379793171 kcal/mol)

>  <smiles>  (33) 
O=S(=O)(Cc1ccccc1)N1Cc2ccccc2C1c1c[nH]c2ccccc12

>  <score_type>  (33) 
oracle

>  <origin>  (33) 
autodockgpu

>  <m_score__min__energy>  (33) 
-7.2199999999999998

>  <m_primary>  (33) 
energy

>  <meeko>  (33) 
{"free_energy": -6.66, "intermolecular_energy": -7.86, "internal_energy": -2.27, "cluster_size": 1, "cluster_id": 4, "rank_in_cluster": 1}

>  <energy>  (33) 
-7.12

>  <cluster_rmsd>  (33) 
0.05

>  <rmsd>  (33) 
269.58

>  <cluster>  (33) 
2

$$$$
WCZRIPJXOMUAPT-HSZRJFAPNA-N
     RDKit          3D

 48 52  0  0  0  0  0  0  0  0999 V2000
  138.8230   67.6540  225.6590 O   0  0  0  0  0  0  0  0  0  0  0  0
  138.7730   68.7770  224.6620 S   0  0  0  0  0  0  0  0  0  0  0  0
  138.5760   68.2080  223.2840 O   0  0  0  0  0  0  0  0  0  0  0  0
  140.3260   69.6550  224.7040 C   0  0  0  0  0  0  0  0  0  0  0  0
  140.4640   70.4120  225.9950 C   0  0  0  0  0  0  0  0  0  0  0  0
  141.2080   71.6030  226.0400 C   0  0  0  0  0  0  0  0  0  0  0  0
  141.3060   72.3300  227.2300 C   0  0  0  0  0  0  0  0  0  0  0  0
  140.6580   71.8760  228.3830 C   0  0  0  0  0  0  0  0  0  0  0  0
  139.9110   70.6950  228.3450 C   0  0  0  0  0  0  0  0  0  0  0  0
  139.8120   69.9660  227.1560 C   0  0  0  0  0  0  0  0  0  0  0  0
  137.4730   69.8850  225.0380 N   0  0  0  0  0  0  0  0  0  0  0  0
  136.1490   69.2350  225.0680 C   0  0  0  0  0  0  0  0  0  0  0  0
  135.2080   70.2990  224.6580 C   0  0  0  0  0  0  0  0  0  0  0  0
  133.8120   70.2820  224.6950 C   0  0  0  0  0  0  0  0  0  0  0  0
  133.1170   71.4110  224.2320 C   0  0  0  0  0  0  0  0  0  0  0  0
  133.8240   72.5230  223.7350 C   0  0  0  0  0  0  0  0  0  0  0  0
  135.2270   72.5100  223.7000 C   0  0  0  0  0  0  0  0  0  0  0  0
  135.8940   71.3780  224.1740 C   0  0  0  0  0  0  0  0  0  0  0  0
  137.3530   71.1040  224.1950 C   0  0  2  0  0  0  0  0  0  0  0  0
  137.8550   70.9400  222.7730 C   0  0  0  0  0  0  0  0  0  0  0  0
  137.2520   70.2140  221.7450 C   0  0  0  0  0  0  0  0  0  0  0  0
  137.9910   70.2880  220.6150 N   0  0  0  0  0  0  0  0  0  0  0  0
  139.0540   71.0520  220.9170 C   0  0  0  0  0  0  0  0  0  0  0  0
  140.1030   71.4080  220.0700 C   0  0  0  0  0  0  0  0  0  0  0  0
  141.1260   72.2170  220.5950 C   0  0  0  0  0  0  0  0  0  0  0  0
  141.0790   72.6470  221.9390 C   0  0  0  0  0  0  0  0  0  0  0  0
  140.0090   72.2730  222.7710 C   0  0  0  0  0  0  0  0  0  0  0  0
  139.0070   71.4700  222.2230 C   0  0  0  0  0  0  0  0  0  0  0  0
  141.1525   68.9344  224.6160 H   0  0  0  0  0  0  0  0  0  0  0  0
  140.3561   70.3679  223.8669 H   0  0  0  0  0  0  0  0  0  0  0  0
  141.7160   71.9653  225.1341 H   0  0  0  0  0  0  0  0  0  0  0  0
  141.8932   73.2597  227.2594 H   0  0  0  0  0  0  0  0  0  0  0  0
  140.7360   72.4479  229.3194 H   0  0  0  0  0  0  0  0  0  0  0  0
  139.4004   70.3387  229.2518 H   0  0  0  0  0  0  0  0  0  0  0  0
  139.2206   69.0388  227.1299 H   0  0  0  0  0  0  0  0  0  0  0  0
  136.1135   68.3912  224.3632 H   0  0  0  0  0  0  0  0  0  0  0  0
  135.9077   68.8203  226.0578 H   0  0  0  0  0  0  0  0  0  0  0  0
  133.2696   69.4049  225.0778 H   0  0  0  0  0  0  0  0  0  0  0  0
  132.0174   71.4269  224.2576 H   0  0  0  0  0  0  0  0  0  0  0  0
  133.2748   73.4047  223.3730 H   0  0  0  0  0  0  0  0  0  0  0  0
  135.7882   73.3712  223.3084 H   0  0  0  0  0  0  0  0  0  0  0  0
  137.9730   71.9110  224.6126 H   0  0  0  0  0  0  0  0  0  0  0  0
  136.3072   69.6589  221.8406 H   0  0  0  0  0  0  0  0  0  0  0  0
  137.7760   69.8360  219.6980 H   0  0  0  0  0  0  0  0  0  0  0  0
  140.1292   71.0668  219.0246 H   0  0  0  0  0  0  0  0  0  0  0  0
  141.9685   72.5169  219.9545 H   0  0  0  0  0  0  0  0  0  0  0  0
  141.8856   73.2794  222.3382 H   0  0  0  0  0  0  0  0  0  0  0  0
  139.9629   72.6024  223.8195 H   0  0  0  0  0  0  0  0  0  0  0  0
  1  2  2  0
  2  3  2  0
  2  4  1  0
  4  5  1  0
  5  6  2  0
  6  7  1  0
  7  8  2  0
  8  9  1  0
  9 10  2  0
  2 11  1  0
 11 12  1  0
 12 13  1  0
 13 14  2  0
 14 15  1  0
 15 16  2  0
 16 17  1  0
 17 18  2  0
 18 19  1  0
 19 20  1  0
 20 21  2  0
 21 22  1  0
 22 23  1  0
 23 24  2  0
 24 25  1  0
 25 26  2  0
 26 27  1  0
 27 28  2  0
 10  5  1  0
 19 11  1  0
 28 20  1  0
 18 13  1  0
 28 23  1  0
  4 29  1  0
  4 30  1  0
  6 31  1  0
  7 32  1  0
  8 33  1  0
  9 34  1  0
 10 35  1  0
 12 36  1  0
 12 37  1  0
 14 38  1  0
 15 39  1  0
 16 40  1  0
 17 41  1  0
 19 42  1  1
 21 43  1  0
 22 44  1  0
 24 45  1  0
 25 46  1  0
 26 47  1  0
 27 48  1  0
M  END
>  <UniqueID>  (34) 
6

>  <SMILES>  (34) 
O=S(=O)(Cc1ccccc1)N1Cc2ccccc2[C@@H]1c1c[nH]c2ccccc12

>  <Energy>  (34) 
97.32731379793171

>  <Genealogy>  (34) 
O=S(=O)(Cc1ccccc1)N1Cc2ccccc2[C@@H]1c1c[nH]c2ccccc12 (chirality)
O=S(=O)(Cc1ccccc1)N1Cc2ccccc2[C@@H]1c1c[nH]c2ccccc12 (3D coordinates assigned)
O=S(=O)(Cc1ccccc1)N1Cc2ccccc2[C@@H]1c1c[nH]c2ccccc12 (nonaromatic ring conformer: 97.32731379793171 kcal/mol)

>  <smiles>  (34) 
O=S(=O)(Cc1ccccc1)N1Cc2ccccc2C1c1c[nH]c2ccccc12

>  <score_type>  (34) 
oracle

>  <origin>  (34) 
autodockgpu

>  <m_score__min__energy>  (34) 
-7.2199999999999998

>  <m_primary>  (34) 
energy

>  <meeko>  (34) 
{"free_energy": -6.93, "intermolecular_energy": -8.12, "internal_energy": -2.05, "cluster_size": 1, "cluster_id": 3, "rank_in_cluster": 1}

>  <energy>  (34) 
-7.12

>  <cluster_rmsd>  (34) 
0.05

>  <rmsd>  (34) 
269.58

>  <cluster>  (34) 
2

$$$$
WCZRIPJXOMUAPT-HSZRJFAPNA-N
     RDKit          3D

 48 52  0  0  0  0  0  0  0  0999 V2000
  140.3940   74.1590  221.8810 O   0  0  0  0  0  0  0  0  0  0  0  0
  140.5450   75.3100  220.9280 S   0  0  0  0  0  0  0  0  0  0  0  0
  139.1890   75.7080  220.4130 O   0  0  0  0  0  0  0  0  0  0  0  0
  141.5530   74.7900  219.5500 C   0  0  0  0  0  0  0  0  0  0  0  0
  142.8580   74.2290  220.0390 C   0  0  0  0  0  0  0  0  0  0  0  0
  142.9540   72.8750  220.4030 C   0  0  0  0  0  0  0  0  0  0  0  0
  144.1770   72.3420  220.8210 C   0  0  0  0  0  0  0  0  0  0  0  0
  145.3130   73.1530  220.8750 C   0  0  0  0  0  0  0  0  0  0  0  0
  145.2280   74.5000  220.5090 C   0  0  0  0  0  0  0  0  0  0  0  0
  144.0060   75.0370  220.0900 C   0  0  0  0  0  0  0  0  0  0  0  0
  141.3050   76.6750  221.7170 N   0  0  0  0  0  0  0  0  0  0  0  0
  140.4340   77.3250  222.7140 C   0  0  0  0  0  0  0  0  0  0  0  0
  140.8590   78.7410  222.7060 C   0  0  0  0  0  0  0  0  0  0  0  0
  140.4960   79.7600  223.5890 C   0  0  0  0  0  0  0  0  0  0  0  0
  141.0130   81.0480  223.3740 C   0  0  0  0  0  0  0  0  0  0  0  0
  141.8700   81.2940  222.2830 C   0  0  0  0  0  0  0  0  0  0  0  0
  142.2110   80.2530  221.4050 C   0  0  0  0  0  0  0  0  0  0  0  0
  141.6900   78.9800  221.6460 C   0  0  0  0  0  0  0  0  0  0  0  0
  141.8580   77.7430  220.8430 C   0  0  2  0  0  0  0  0  0  0  0  0
  141.1460   77.9050  219.5140 C   0  0  0  0  0  0  0  0  0  0  0  0
  139.8150   78.2720  219.3100 C   0  0  0  0  0  0  0  0  0  0  0  0
  139.5290   78.3060  217.9890 N   0  0  0  0  0  0  0  0  0  0  0  0
  140.6630   77.9640  217.3550 C   0  0  0  0  0  0  0  0  0  0  0  0
  140.8590   77.8540  215.9790 C   0  0  0  0  0  0  0  0  0  0  0  0
  142.1330   77.4740  215.5240 C   0  0  0  0  0  0  0  0  0  0  0  0
  143.1730   77.2150  216.4440 C   0  0  0  0  0  0  0  0  0  0  0  0
  142.9480   77.3330  217.8270 C   0  0  0  0  0  0  0  0  0  0  0  0
  141.6720   77.7130  218.2500 C   0  0  0  0  0  0  0  0  0  0  0  0
  141.0169   74.0169  218.9799 H   0  0  0  0  0  0  0  0  0  0  0  0
  141.7563   75.6597  218.9080 H   0  0  0  0  0  0  0  0  0  0  0  0
  142.0628   72.2317  220.3588 H   0  0  0  0  0  0  0  0  0  0  0  0
  144.2448   71.2822  221.1078 H   0  0  0  0  0  0  0  0  0  0  0  0
  146.2742   72.7322  221.2053 H   0  0  0  0  0  0  0  0  0  0  0  0
  146.1230   75.1381  220.5506 H   0  0  0  0  0  0  0  0  0  0  0  0
  143.9439   76.0961  219.7993 H   0  0  0  0  0  0  0  0  0  0  0  0
  139.3765   77.2343  222.4251 H   0  0  0  0  0  0  0  0  0  0  0  0
  140.5219   76.8665  223.7100 H   0  0  0  0  0  0  0  0  0  0  0  0
  139.8207   79.5586  224.4336 H   0  0  0  0  0  0  0  0  0  0  0  0
  140.7482   81.8668  224.0591 H   0  0  0  0  0  0  0  0  0  0  0  0
  142.2729   82.3043  222.1188 H   0  0  0  0  0  0  0  0  0  0  0  0
  142.8738   80.4360  220.5464 H   0  0  0  0  0  0  0  0  0  0  0  0
  142.8956   77.5019  220.5687 H   0  0  0  0  0  0  0  0  0  0  0  0
  139.0984   78.5016  220.1123 H   0  0  0  0  0  0  0  0  0  0  0  0
  138.6090   78.5450  217.5550 H   0  0  0  0  0  0  0  0  0  0  0  0
  140.0418   78.0583  215.2716 H   0  0  0  0  0  0  0  0  0  0  0  0
  142.3216   77.3776  214.4446 H   0  0  0  0  0  0  0  0  0  0  0  0
  144.1663   76.9188  216.0758 H   0  0  0  0  0  0  0  0  0  0  0  0
  143.7505   77.1326  218.5521 H   0  0  0  0  0  0  0  0  0  0  0  0
  1  2  2  0
  2  3  2  0
  2  4  1  0
  4  5  1  0
  5  6  2  0
  6  7  1  0
  7  8  2  0
  8  9  1  0
  9 10  2  0
  2 11  1  0
 11 12  1  0
 12 13  1  0
 13 14  2  0
 14 15  1  0
 15 16  2  0
 16 17  1  0
 17 18  2  0
 18 19  1  0
 19 20  1  0
 20 21  2  0
 21 22  1  0
 22 23  1  0
 23 24  2  0
 24 25  1  0
 25 26  2  0
 26 27  1  0
 27 28  2  0
 10  5  1  0
 19 11  1  0
 28 20  1  0
 18 13  1  0
 28 23  1  0
  4 29  1  0
  4 30  1  0
  6 31  1  0
  7 32  1  0
  8 33  1  0
  9 34  1  0
 10 35  1  0
 12 36  1  0
 12 37  1  0
 14 38  1  0
 15 39  1  0
 16 40  1  0
 17 41  1  0
 19 42  1  6
 21 43  1  0
 22 44  1  0
 24 45  1  0
 25 46  1  0
 26 47  1  0
 27 48  1  0
M  END
>  <UniqueID>  (35) 
6

>  <SMILES>  (35) 
O=S(=O)(Cc1ccccc1)N1Cc2ccccc2[C@@H]1c1c[nH]c2ccccc12

>  <Energy>  (35) 
97.32731379793171

>  <Genealogy>  (35) 
O=S(=O)(Cc1ccccc1)N1Cc2ccccc2[C@@H]1c1c[nH]c2ccccc12 (chirality)
O=S(=O)(Cc1ccccc1)N1Cc2ccccc2[C@@H]1c1c[nH]c2ccccc12 (3D coordinates assigned)
O=S(=O)(Cc1ccccc1)N1Cc2ccccc2[C@@H]1c1c[nH]c2ccccc12 (nonaromatic ring conformer: 97.32731379793171 kcal/mol)

>  <smiles>  (35) 
O=S(=O)(Cc1ccccc1)N1Cc2ccccc2C1c1c[nH]c2ccccc12

>  <score_type>  (35) 
oracle

>  <origin>  (35) 
autodockgpu

>  <m_score__min__energy>  (35) 
-7.2199999999999998

>  <m_primary>  (35) 
energy

>  <meeko>  (35) 
{"free_energy": -7.12, "intermolecular_energy": -8.32, "internal_energy": -1.99, "cluster_size": 14, "cluster_id": 2, "rank_in_cluster": 9}

>  <energy>  (35) 
-7.12

>  <cluster_rmsd>  (35) 
0.06

>  <rmsd>  (35) 
269.59

>  <cluster>  (35) 
2

$$$$
WCZRIPJXOMUAPT-HSZRJFAPNA-N
     RDKit          3D

 48 52  0  0  0  0  0  0  0  0999 V2000
  140.3410   74.1820  221.8920 O   0  0  0  0  0  0  0  0  0  0  0  0
  140.4890   75.3370  220.9420 S   0  0  0  0  0  0  0  0  0  0  0  0
  139.1320   75.7380  220.4330 O   0  0  0  0  0  0  0  0  0  0  0  0
  141.4920   74.8200  219.5590 C   0  0  0  0  0  0  0  0  0  0  0  0
  142.7930   74.2440  220.0420 C   0  0  0  0  0  0  0  0  0  0  0  0
  142.8700   72.8950  220.4260 C   0  0  0  0  0  0  0  0  0  0  0  0
  144.0890   72.3470  220.8390 C   0  0  0  0  0  0  0  0  0  0  0  0
  145.2390   73.1400  220.8670 C   0  0  0  0  0  0  0  0  0  0  0  0
  145.1730   74.4820  220.4820 C   0  0  0  0  0  0  0  0  0  0  0  0
  143.9550   75.0330  220.0680 C   0  0  0  0  0  0  0  0  0  0  0  0
  141.2540   76.6980  221.7330 N   0  0  0  0  0  0  0  0  0  0  0  0
  140.3780   77.3610  222.7180 C   0  0  0  0  0  0  0  0  0  0  0  0
  140.8180   78.7730  222.7070 C   0  0  0  0  0  0  0  0  0  0  0  0
  140.4550   79.7990  223.5810 C   0  0  0  0  0  0  0  0  0  0  0  0
  140.9870   81.0810  223.3660 C   0  0  0  0  0  0  0  0  0  0  0  0
  141.8580   81.3130  222.2840 C   0  0  0  0  0  0  0  0  0  0  0  0
  142.1990   80.2650  221.4140 C   0  0  0  0  0  0  0  0  0  0  0  0
  141.6620   78.9990  221.6560 C   0  0  0  0  0  0  0  0  0  0  0  0
  141.8280   77.7560  220.8600 C   0  0  2  0  0  0  0  0  0  0  0  0
  141.1320   77.9180  219.5230 C   0  0  0  0  0  0  0  0  0  0  0  0
  139.8020   78.2790  219.3030 C   0  0  0  0  0  0  0  0  0  0  0  0
  139.5320   78.3150  217.9790 N   0  0  0  0  0  0  0  0  0  0  0  0
  140.6760   77.9820  217.3580 C   0  0  0  0  0  0  0  0  0  0  0  0
  140.8900   77.8770  215.9840 C   0  0  0  0  0  0  0  0  0  0  0  0
  142.1730   77.5050  215.5450 C   0  0  0  0  0  0  0  0  0  0  0  0
  143.2020   77.2490  216.4770 C   0  0  0  0  0  0  0  0  0  0  0  0
  142.9580   77.3610  217.8580 C   0  0  0  0  0  0  0  0  0  0  0  0
  141.6750   77.7340  218.2650 C   0  0  0  0  0  0  0  0  0  0  0  0
  140.9491   74.0562  218.9830 H   0  0  0  0  0  0  0  0  0  0  0  0
  141.7022   75.6935  218.9243 H   0  0  0  0  0  0  0  0  0  0  0  0
  141.9675   72.2666  220.4018 H   0  0  0  0  0  0  0  0  0  0  0  0
  144.1422   71.2909  221.1420 H   0  0  0  0  0  0  0  0  0  0  0  0
  146.1969   72.7079  221.1922 H   0  0  0  0  0  0  0  0  0  0  0  0
  146.0790   75.1055  220.5044 H   0  0  0  0  0  0  0  0  0  0  0  0
  143.9073   76.0884  219.7616 H   0  0  0  0  0  0  0  0  0  0  0  0
  139.3228   77.2794  222.4181 H   0  0  0  0  0  0  0  0  0  0  0  0
  140.4498   76.9064  223.7171 H   0  0  0  0  0  0  0  0  0  0  0  0
  139.7682   79.6080  224.4187 H   0  0  0  0  0  0  0  0  0  0  0  0
  140.7227   81.9057  224.0443 H   0  0  0  0  0  0  0  0  0  0  0  0
  142.2726   82.3186  222.1199 H   0  0  0  0  0  0  0  0  0  0  0  0
  142.8732   80.4372  220.5620 H   0  0  0  0  0  0  0  0  0  0  0  0
  142.8663   77.5041  220.5984 H   0  0  0  0  0  0  0  0  0  0  0  0
  139.0743   78.5031  220.0969 H   0  0  0  0  0  0  0  0  0  0  0  0
  138.6170   78.5510  217.5330 H   0  0  0  0  0  0  0  0  0  0  0  0
  140.0810   78.0787  215.2665 H   0  0  0  0  0  0  0  0  0  0  0  0
  142.3763   77.4128  214.4679 H   0  0  0  0  0  0  0  0  0  0  0  0
  144.2018   76.9599  216.1209 H   0  0  0  0  0  0  0  0  0  0  0  0
  143.7516   77.1614  218.5931 H   0  0  0  0  0  0  0  0  0  0  0  0
  1  2  2  0
  2  3  2  0
  2  4  1  0
  4  5  1  0
  5  6  2  0
  6  7  1  0
  7  8  2  0
  8  9  1  0
  9 10  2  0
  2 11  1  0
 11 12  1  0
 12 13  1  0
 13 14  2  0
 14 15  1  0
 15 16  2  0
 16 17  1  0
 17 18  2  0
 18 19  1  0
 19 20  1  0
 20 21  2  0
 21 22  1  0
 22 23  1  0
 23 24  2  0
 24 25  1  0
 25 26  2  0
 26 27  1  0
 27 28  2  0
 10  5  1  0
 19 11  1  0
 28 20  1  0
 18 13  1  0
 28 23  1  0
  4 29  1  0
  4 30  1  0
  6 31  1  0
  7 32  1  0
  8 33  1  0
  9 34  1  0
 10 35  1  0
 12 36  1  0
 12 37  1  0
 14 38  1  0
 15 39  1  0
 16 40  1  0
 17 41  1  0
 19 42  1  6
 21 43  1  0
 22 44  1  0
 24 45  1  0
 25 46  1  0
 26 47  1  0
 27 48  1  0
M  END
>  <UniqueID>  (36) 
6

>  <SMILES>  (36) 
O=S(=O)(Cc1ccccc1)N1Cc2ccccc2[C@@H]1c1c[nH]c2ccccc12

>  <Energy>  (36) 
97.32731379793171

>  <Genealogy>  (36) 
O=S(=O)(Cc1ccccc1)N1Cc2ccccc2[C@@H]1c1c[nH]c2ccccc12 (chirality)
O=S(=O)(Cc1ccccc1)N1Cc2ccccc2[C@@H]1c1c[nH]c2ccccc12 (3D coordinates assigned)
O=S(=O)(Cc1ccccc1)N1Cc2ccccc2[C@@H]1c1c[nH]c2ccccc12 (nonaromatic ring conformer: 97.32731379793171 kcal/mol)

>  <smiles>  (36) 
O=S(=O)(Cc1ccccc1)N1Cc2ccccc2C1c1c[nH]c2ccccc12

>  <score_type>  (36) 
oracle

>  <origin>  (36) 
autodockgpu

>  <m_score__min__energy>  (36) 
-7.2199999999999998

>  <m_primary>  (36) 
energy

>  <meeko>  (36) 
{"free_energy": -7.14, "intermolecular_energy": -8.34, "internal_energy": -1.98, "cluster_size": 14, "cluster_id": 2, "rank_in_cluster": 2}

>  <energy>  (36) 
-7.12

>  <cluster_rmsd>  (36) 
0.04

>  <rmsd>  (36) 
269.57

>  <cluster>  (36) 
2

$$$$
WCZRIPJXOMUAPT-HSZRJFAPNA-N
     RDKit          3D

 48 52  0  0  0  0  0  0  0  0999 V2000
  140.1180   72.5810  219.9680 O   0  0  0  0  0  0  0  0  0  0  0  0
  140.4250   72.5290  221.4380 S   0  0  0  0  0  0  0  0  0  0  0  0
  141.8000   71.9530  221.6370 O   0  0  0  0  0  0  0  0  0  0  0  0
  139.2360   71.4660  222.2380 C   0  0  0  0  0  0  0  0  0  0  0  0
  139.7380   71.0420  223.5900 C   0  0  0  0  0  0  0  0  0  0  0  0
  139.4240   69.7680  224.0930 C   0  0  0  0  0  0  0  0  0  0  0  0
  139.9230   69.3570  225.3330 C   0  0  0  0  0  0  0  0  0  0  0  0
  140.7410   70.2110  226.0770 C   0  0  0  0  0  0  0  0  0  0  0  0
  141.0630   71.4780  225.5810 C   0  0  0  0  0  0  0  0  0  0  0  0
  140.5660   71.8920  224.3410 C   0  0  0  0  0  0  0  0  0  0  0  0
  140.3410   74.1260  222.1470 N   0  0  0  0  0  0  0  0  0  0  0  0
  139.0370   74.7840  221.9390 C   0  0  0  0  0  0  0  0  0  0  0  0
  139.3560   76.2270  221.8970 C   0  0  0  0  0  0  0  0  0  0  0  0
  138.4740   77.3090  221.9070 C   0  0  0  0  0  0  0  0  0  0  0  0
  139.0070   78.6070  221.8400 C   0  0  0  0  0  0  0  0  0  0  0  0
  140.4000   78.7970  221.7560 C   0  0  0  0  0  0  0  0  0  0  0  0
  141.2640   77.6900  221.7380 C   0  0  0  0  0  0  0  0  0  0  0  0
  140.7080   76.4110  221.8130 C   0  0  0  0  0  0  0  0  0  0  0  0
  141.3980   75.0970  221.7610 C   0  0  2  0  0  0  0  0  0  0  0  0
  141.9740   74.8860  220.3740 C   0  0  0  0  0  0  0  0  0  0  0  0
  141.3730   75.2030  219.1550 C   0  0  0  0  0  0  0  0  0  0  0  0
  142.1810   74.8650  218.1250 N   0  0  0  0  0  0  0  0  0  0  0  0
  143.2860   74.3370  218.6790 C   0  0  0  0  0  0  0  0  0  0  0  0
  144.4040   73.8360  218.0140 C   0  0  0  0  0  0  0  0  0  0  0  0
  145.4550   73.3200  218.7910 C   0  0  0  0  0  0  0  0  0  0  0  0
  145.3660   73.3150  220.2010 C   0  0  0  0  0  0  0  0  0  0  0  0
  144.2260   73.8270  220.8450 C   0  0  0  0  0  0  0  0  0  0  0  0
  143.1980   74.3340  220.0480 C   0  0  0  0  0  0  0  0  0  0  0  0
  138.2870   72.0093  222.3578 H   0  0  0  0  0  0  0  0  0  0  0  0
  139.0834   70.5708  221.6173 H   0  0  0  0  0  0  0  0  0  0  0  0
  138.7830   69.0912  223.5089 H   0  0  0  0  0  0  0  0  0  0  0  0
  139.6711   68.3599  225.7232 H   0  0  0  0  0  0  0  0  0  0  0  0
  141.1316   69.8867  227.0528 H   0  0  0  0  0  0  0  0  0  0  0  0
  141.7078   72.1498  226.1666 H   0  0  0  0  0  0  0  0  0  0  0  0
  140.8248   72.8879  223.9522 H   0  0  0  0  0  0  0  0  0  0  0  0
  138.5832   74.4579  220.9915 H   0  0  0  0  0  0  0  0  0  0  0  0
  138.3122   74.5376  222.7289 H   0  0  0  0  0  0  0  0  0  0  0  0
  137.3873   77.1490  221.9659 H   0  0  0  0  0  0  0  0  0  0  0  0
  138.3345   79.4774  221.8532 H   0  0  0  0  0  0  0  0  0  0  0  0
  140.8124   79.8154  221.7043 H   0  0  0  0  0  0  0  0  0  0  0  0
  142.3531   77.8271  221.6665 H   0  0  0  0  0  0  0  0  0  0  0  0
  142.2623   74.9967  222.4340 H   0  0  0  0  0  0  0  0  0  0  0  0
  140.3800   75.6638  219.0472 H   0  0  0  0  0  0  0  0  0  0  0  0
  141.9800   74.9860  217.1070 H   0  0  0  0  0  0  0  0  0  0  0  0
  144.4617   73.8443  216.9156 H   0  0  0  0  0  0  0  0  0  0  0  0
  146.3525   72.9175  218.2985 H   0  0  0  0  0  0  0  0  0  0  0  0
  146.1945   72.9077  220.7991 H   0  0  0  0  0  0  0  0  0  0  0  0
  144.1465   73.8281  221.9421 H   0  0  0  0  0  0  0  0  0  0  0  0
  1  2  2  0
  2  3  2  0
  2  4  1  0
  4  5  1  0
  5  6  2  0
  6  7  1  0
  7  8  2  0
  8  9  1  0
  9 10  2  0
  2 11  1  0
 11 12  1  0
 12 13  1  0
 13 14  2  0
 14 15  1  0
 15 16  2  0
 16 17  1  0
 17 18  2  0
 18 19  1  0
 19 20  1  0
 20 21  2  0
 21 22  1  0
 22 23  1  0
 23 24  2  0
 24 25  1  0
 25 26  2  0
 26 27  1  0
 27 28  2  0
 10  5  1  0
 19 11  1  0
 28 20  1  0
 18 13  1  0
 28 23  1  0
  4 29  1  0
  4 30  1  0
  6 31  1  0
  7 32  1  0
  8 33  1  0
  9 34  1  0
 10 35  1  0
 12 36  1  0
 12 37  1  0
 14 38  1  0
 15 39  1  0
 16 40  1  0
 17 41  1  0
 19 42  1  1
 21 43  1  0
 22 44  1  0
 24 45  1  0
 25 46  1  0
 26 47  1  0
 27 48  1  0
M  END
>  <UniqueID>  (37) 
6

>  <SMILES>  (37) 
O=S(=O)(Cc1ccccc1)N1Cc2ccccc2[C@@H]1c1c[nH]c2ccccc12

>  <Energy>  (37) 
97.32731379793171

>  <Genealogy>  (37) 
O=S(=O)(Cc1ccccc1)N1Cc2ccccc2[C@@H]1c1c[nH]c2ccccc12 (chirality)
O=S(=O)(Cc1ccccc1)N1Cc2ccccc2[C@@H]1c1c[nH]c2ccccc12 (3D coordinates assigned)
O=S(=O)(Cc1ccccc1)N1Cc2ccccc2[C@@H]1c1c[nH]c2ccccc12 (nonaromatic ring conformer: 97.32731379793171 kcal/mol)

>  <smiles>  (37) 
O=S(=O)(Cc1ccccc1)N1Cc2ccccc2C1c1c[nH]c2ccccc12

>  <score_type>  (37) 
oracle

>  <origin>  (37) 
autodockgpu

>  <m_score__min__energy>  (37) 
-7.2199999999999998

>  <m_primary>  (37) 
energy

>  <meeko>  (37) 
{"free_energy": -7.19, "intermolecular_energy": -8.38, "internal_energy": -1.79, "cluster_size": 4, "cluster_id": 1, "rank_in_cluster": 4}

>  <energy>  (37) 
-7.11

>  <cluster_rmsd>  (37) 
0.07

>  <rmsd>  (37) 
269.61

>  <cluster>  (37) 
2

$$$$
WCZRIPJXOMUAPT-HSZRJFAPNA-N
     RDKit          3D

 48 52  0  0  0  0  0  0  0  0999 V2000
  140.3530   74.1190  221.9010 O   0  0  0  0  0  0  0  0  0  0  0  0
  140.4990   75.2750  220.9520 S   0  0  0  0  0  0  0  0  0  0  0  0
  139.1410   75.6710  220.4420 O   0  0  0  0  0  0  0  0  0  0  0  0
  141.5050   74.7620  219.5700 C   0  0  0  0  0  0  0  0  0  0  0  0
  142.8140   74.2040  220.0540 C   0  0  0  0  0  0  0  0  0  0  0  0
  142.9200   72.8450  220.3940 C   0  0  0  0  0  0  0  0  0  0  0  0
  144.1460   72.3140  220.8070 C   0  0  0  0  0  0  0  0  0  0  0  0
  145.2750   73.1350  220.8790 C   0  0  0  0  0  0  0  0  0  0  0  0
  145.1790   74.4870  220.5380 C   0  0  0  0  0  0  0  0  0  0  0  0
  143.9540   75.0200  220.1240 C   0  0  0  0  0  0  0  0  0  0  0  0
  141.2570   76.6380  221.7440 N   0  0  0  0  0  0  0  0  0  0  0  0
  140.3770   77.2990  222.7270 C   0  0  0  0  0  0  0  0  0  0  0  0
  140.8130   78.7120  222.7180 C   0  0  0  0  0  0  0  0  0  0  0  0
  140.4450   79.7370  223.5910 C   0  0  0  0  0  0  0  0  0  0  0  0
  140.9730   81.0210  223.3770 C   0  0  0  0  0  0  0  0  0  0  0  0
  141.8450   81.2560  222.2970 C   0  0  0  0  0  0  0  0  0  0  0  0
  142.1910   80.2090  221.4280 C   0  0  0  0  0  0  0  0  0  0  0  0
  141.6580   78.9410  221.6680 C   0  0  0  0  0  0  0  0  0  0  0  0
  141.8290   77.6980  220.8730 C   0  0  2  0  0  0  0  0  0  0  0  0
  141.1360   77.8580  219.5340 C   0  0  0  0  0  0  0  0  0  0  0  0
  139.8060   78.2200  219.3120 C   0  0  0  0  0  0  0  0  0  0  0  0
  139.5380   78.2540  217.9870 N   0  0  0  0  0  0  0  0  0  0  0  0
  140.6830   77.9180  217.3690 C   0  0  0  0  0  0  0  0  0  0  0  0
  140.8990   77.8100  215.9950 C   0  0  0  0  0  0  0  0  0  0  0  0
  142.1820   77.4360  215.5580 C   0  0  0  0  0  0  0  0  0  0  0  0
  143.2090   77.1800  216.4930 C   0  0  0  0  0  0  0  0  0  0  0  0
  142.9630   77.2960  217.8730 C   0  0  0  0  0  0  0  0  0  0  0  0
  141.6810   77.6700  218.2780 C   0  0  0  0  0  0  0  0  0  0  0  0
  140.9700   73.9885  218.9995 H   0  0  0  0  0  0  0  0  0  0  0  0
  141.7036   75.6342  218.9298 H   0  0  0  0  0  0  0  0  0  0  0  0
  142.0343   72.1954  220.3350 H   0  0  0  0  0  0  0  0  0  0  0  0
  144.2219   71.2499  221.0753 H   0  0  0  0  0  0  0  0  0  0  0  0
  146.2391   72.7170  221.2041 H   0  0  0  0  0  0  0  0  0  0  0  0
  146.0678   75.1325  220.5953 H   0  0  0  0  0  0  0  0  0  0  0  0
  143.8836   76.0835  219.8520 H   0  0  0  0  0  0  0  0  0  0  0  0
  139.3228   77.2149  222.4244 H   0  0  0  0  0  0  0  0  0  0  0  0
  140.4479   76.8443  223.7261 H   0  0  0  0  0  0  0  0  0  0  0  0
  139.7573   79.5437  224.4275 H   0  0  0  0  0  0  0  0  0  0  0  0
  140.7045   81.8447  224.0548 H   0  0  0  0  0  0  0  0  0  0  0  0
  142.2565   82.2630  222.1335 H   0  0  0  0  0  0  0  0  0  0  0  0
  142.8665   80.3836  220.5776 H   0  0  0  0  0  0  0  0  0  0  0  0
  142.8687   77.4489  220.6144 H   0  0  0  0  0  0  0  0  0  0  0  0
  139.0775   78.4461  220.1046 H   0  0  0  0  0  0  0  0  0  0  0  0
  138.6240   78.4890  217.5400 H   0  0  0  0  0  0  0  0  0  0  0  0
  140.0910   78.0111  215.2761 H   0  0  0  0  0  0  0  0  0  0  0  0
  142.3871   77.3422  214.4814 H   0  0  0  0  0  0  0  0  0  0  0  0
  144.2088   76.8877  216.1394 H   0  0  0  0  0  0  0  0  0  0  0  0
  143.7558   77.0982  218.6095 H   0  0  0  0  0  0  0  0  0  0  0  0
  1  2  2  0
  2  3  2  0
  2  4  1  0
  4  5  1  0
  5  6  2  0
  6  7  1  0
  7  8  2  0
  8  9  1  0
  9 10  2  0
  2 11  1  0
 11 12  1  0
 12 13  1  0
 13 14  2  0
 14 15  1  0
 15 16  2  0
 16 17  1  0
 17 18  2  0
 18 19  1  0
 19 20  1  0
 20 21  2  0
 21 22  1  0
 22 23  1  0
 23 24  2  0
 24 25  1  0
 25 26  2  0
 26 27  1  0
 27 28  2  0
 10  5  1  0
 19 11  1  0
 28 20  1  0
 18 13  1  0
 28 23  1  0
  4 29  1  0
  4 30  1  0
  6 31  1  0
  7 32  1  0
  8 33  1  0
  9 34  1  0
 10 35  1  0
 12 36  1  0
 12 37  1  0
 14 38  1  0
 15 39  1  0
 16 40  1  0
 17 41  1  0
 19 42  1  6
 21 43  1  0
 22 44  1  0
 24 45  1  0
 25 46  1  0
 26 47  1  0
 27 48  1  0
M  END
>  <UniqueID>  (38) 
6

>  <SMILES>  (38) 
O=S(=O)(Cc1ccccc1)N1Cc2ccccc2[C@@H]1c1c[nH]c2ccccc12

>  <Energy>  (38) 
97.32731379793171

>  <Genealogy>  (38) 
O=S(=O)(Cc1ccccc1)N1Cc2ccccc2[C@@H]1c1c[nH]c2ccccc12 (chirality)
O=S(=O)(Cc1ccccc1)N1Cc2ccccc2[C@@H]1c1c[nH]c2ccccc12 (3D coordinates assigned)
O=S(=O)(Cc1ccccc1)N1Cc2ccccc2[C@@H]1c1c[nH]c2ccccc12 (nonaromatic ring conformer: 97.32731379793171 kcal/mol)

>  <smiles>  (38) 
O=S(=O)(Cc1ccccc1)N1Cc2ccccc2C1c1c[nH]c2ccccc12

>  <score_type>  (38) 
oracle

>  <origin>  (38) 
autodockgpu

>  <m_score__min__energy>  (38) 
-7.2199999999999998

>  <m_primary>  (38) 
energy

>  <meeko>  (38) 
{"free_energy": -7.12, "intermolecular_energy": -8.31, "internal_energy": -1.99, "cluster_size": 14, "cluster_id": 2, "rank_in_cluster": 12}

>  <energy>  (38) 
-7.09

>  <cluster_rmsd>  (38) 
0.07

>  <rmsd>  (38) 
269.58

>  <cluster>  (38) 
2

$$$$
WCZRIPJXOMUAPT-HSZRJFAPNA-N
     RDKit          3D

 48 52  0  0  0  0  0  0  0  0999 V2000
  140.3620   74.1520  221.8660 O   0  0  0  0  0  0  0  0  0  0  0  0
  140.5110   75.3120  220.9230 S   0  0  0  0  0  0  0  0  0  0  0  0
  139.1550   75.7090  220.4070 O   0  0  0  0  0  0  0  0  0  0  0  0
  141.5260   74.8080  219.5450 C   0  0  0  0  0  0  0  0  0  0  0  0
  142.8250   74.2330  220.0340 C   0  0  0  0  0  0  0  0  0  0  0  0
  142.9050   72.8790  220.4020 C   0  0  0  0  0  0  0  0  0  0  0  0
  144.1220   72.3330  220.8210 C   0  0  0  0  0  0  0  0  0  0  0  0
  145.2680   73.1310  220.8700 C   0  0  0  0  0  0  0  0  0  0  0  0
  145.1980   74.4770  220.5010 C   0  0  0  0  0  0  0  0  0  0  0  0
  143.9830   75.0270  220.0810 C   0  0  0  0  0  0  0  0  0  0  0  0
  141.2620   76.6740  221.7260 N   0  0  0  0  0  0  0  0  0  0  0  0
  140.3800   77.3210  222.7150 C   0  0  0  0  0  0  0  0  0  0  0  0
  140.8070   78.7360  222.7170 C   0  0  0  0  0  0  0  0  0  0  0  0
  140.4340   79.7520  223.6000 C   0  0  0  0  0  0  0  0  0  0  0  0
  140.9550   81.0400  223.3960 C   0  0  0  0  0  0  0  0  0  0  0  0
  141.8250   81.2890  222.3170 C   0  0  0  0  0  0  0  0  0  0  0  0
  142.1760   80.2520  221.4380 C   0  0  0  0  0  0  0  0  0  0  0  0
  141.6500   78.9790  221.6690 C   0  0  0  0  0  0  0  0  0  0  0  0
  141.8270   77.7440  220.8630 C   0  0  2  0  0  0  0  0  0  0  0  0
  141.1320   77.9110  219.5260 C   0  0  0  0  0  0  0  0  0  0  0  0
  139.8030   78.2780  219.3080 C   0  0  0  0  0  0  0  0  0  0  0  0
  139.5320   78.3170  217.9840 N   0  0  0  0  0  0  0  0  0  0  0  0
  140.6750   77.9800  217.3620 C   0  0  0  0  0  0  0  0  0  0  0  0
  140.8870   77.8770  215.9880 C   0  0  0  0  0  0  0  0  0  0  0  0
  142.1680   77.5010  215.5470 C   0  0  0  0  0  0  0  0  0  0  0  0
  143.1970   77.2380  216.4780 C   0  0  0  0  0  0  0  0  0  0  0  0
  142.9540   77.3500  217.8590 C   0  0  0  0  0  0  0  0  0  0  0  0
  141.6730   77.7260  218.2680 C   0  0  0  0  0  0  0  0  0  0  0  0
  140.9901   74.0464  218.9595 H   0  0  0  0  0  0  0  0  0  0  0  0
  141.7382   75.6866  218.9180 H   0  0  0  0  0  0  0  0  0  0  0  0
  142.0063   72.2461  220.3602 H   0  0  0  0  0  0  0  0  0  0  0  0
  144.1774   71.2738  221.1125 H   0  0  0  0  0  0  0  0  0  0  0  0
  146.2250   72.6998  221.1989 H   0  0  0  0  0  0  0  0  0  0  0  0
  146.1003   75.1049  220.5410 H   0  0  0  0  0  0  0  0  0  0  0  0
  143.9337   76.0856  219.7862 H   0  0  0  0  0  0  0  0  0  0  0  0
  139.3259   77.2328  222.4132 H   0  0  0  0  0  0  0  0  0  0  0  0
  140.4552   76.8586  223.7102 H   0  0  0  0  0  0  0  0  0  0  0  0
  139.7483   79.5480  224.4356 H   0  0  0  0  0  0  0  0  0  0  0  0
  140.6828   81.8566  224.0809 H   0  0  0  0  0  0  0  0  0  0  0  0
  142.2310   82.2996  222.1623 H   0  0  0  0  0  0  0  0  0  0  0  0
  142.8490   80.4377  220.5879 H   0  0  0  0  0  0  0  0  0  0  0  0
  142.8677   77.5031  220.6007 H   0  0  0  0  0  0  0  0  0  0  0  0
  139.0771   78.5041  220.1029 H   0  0  0  0  0  0  0  0  0  0  0  0
  138.6180   78.5570  217.5390 H   0  0  0  0  0  0  0  0  0  0  0  0
  140.0780   78.0833  215.2718 H   0  0  0  0  0  0  0  0  0  0  0  0
  142.3702   77.4110  214.4695 H   0  0  0  0  0  0  0  0  0  0  0  0
  144.1949   76.9437  216.1209 H   0  0  0  0  0  0  0  0  0  0  0  0
  143.7478   77.1478  218.5932 H   0  0  0  0  0  0  0  0  0  0  0  0
  1  2  2  0
  2  3  2  0
  2  4  1  0
  4  5  1  0
  5  6  2  0
  6  7  1  0
  7  8  2  0
  8  9  1  0
  9 10  2  0
  2 11  1  0
 11 12  1  0
 12 13  1  0
 13 14  2  0
 14 15  1  0
 15 16  2  0
 16 17  1  0
 17 18  2  0
 18 19  1  0
 19 20  1  0
 20 21  2  0
 21 22  1  0
 22 23  1  0
 23 24  2  0
 24 25  1  0
 25 26  2  0
 26 27  1  0
 27 28  2  0
 10  5  1  0
 19 11  1  0
 28 20  1  0
 18 13  1  0
 28 23  1  0
  4 29  1  0
  4 30  1  0
  6 31  1  0
  7 32  1  0
  8 33  1  0
  9 34  1  0
 10 35  1  0
 12 36  1  0
 12 37  1  0
 14 38  1  0
 15 39  1  0
 16 40  1  0
 17 41  1  0
 19 42  1  6
 21 43  1  0
 22 44  1  0
 24 45  1  0
 25 46  1  0
 26 47  1  0
 27 48  1  0
M  END
>  <UniqueID>  (39) 
6

>  <SMILES>  (39) 
O=S(=O)(Cc1ccccc1)N1Cc2ccccc2[C@@H]1c1c[nH]c2ccccc12

>  <Energy>  (39) 
97.32731379793171

>  <Genealogy>  (39) 
O=S(=O)(Cc1ccccc1)N1Cc2ccccc2[C@@H]1c1c[nH]c2ccccc12 (chirality)
O=S(=O)(Cc1ccccc1)N1Cc2ccccc2[C@@H]1c1c[nH]c2ccccc12 (3D coordinates assigned)
O=S(=O)(Cc1ccccc1)N1Cc2ccccc2[C@@H]1c1c[nH]c2ccccc12 (nonaromatic ring conformer: 97.32731379793171 kcal/mol)

>  <smiles>  (39) 
O=S(=O)(Cc1ccccc1)N1Cc2ccccc2C1c1c[nH]c2ccccc12

>  <score_type>  (39) 
oracle

>  <origin>  (39) 
autodockgpu

>  <m_score__min__energy>  (39) 
-7.2199999999999998

>  <m_primary>  (39) 
energy

>  <meeko>  (39) 
{"free_energy": -7.13, "intermolecular_energy": -8.33, "internal_energy": -1.98, "cluster_size": 14, "cluster_id": 2, "rank_in_cluster": 4}

>  <energy>  (39) 
-6.93

>  <cluster_rmsd>  (39) 
0.0

>  <rmsd>  (39) 
269.32

>  <cluster>  (39) 
3

$$$$
WCZRIPJXOMUAPT-HSZRJFAPNA-N
     RDKit          3D

 48 52  0  0  0  0  0  0  0  0999 V2000
  140.4640   74.1210  221.8550 O   0  0  0  0  0  0  0  0  0  0  0  0
  140.5810   75.2870  220.9150 S   0  0  0  0  0  0  0  0  0  0  0  0
  139.2110   75.6720  220.4290 O   0  0  0  0  0  0  0  0  0  0  0  0
  141.5720   74.8010  219.5140 C   0  0  0  0  0  0  0  0  0  0  0  0
  142.8710   74.2010  219.9740 C   0  0  0  0  0  0  0  0  0  0  0  0
  144.0230   74.9990  220.0720 C   0  0  0  0  0  0  0  0  0  0  0  0
  145.2230   74.4520  220.5370 C   0  0  0  0  0  0  0  0  0  0  0  0
  145.2810   73.1070  220.9120 C   0  0  0  0  0  0  0  0  0  0  0  0
  144.1380   72.3080  220.8230 C   0  0  0  0  0  0  0  0  0  0  0  0
  142.9360   72.8520  220.3590 C   0  0  0  0  0  0  0  0  0  0  0  0
  141.3340   76.6530  221.7100 N   0  0  0  0  0  0  0  0  0  0  0  0
  140.4640   77.2880  222.7180 C   0  0  0  0  0  0  0  0  0  0  0  0
  140.8780   78.7070  222.7180 C   0  0  0  0  0  0  0  0  0  0  0  0
  140.5110   79.7160  223.6110 C   0  0  0  0  0  0  0  0  0  0  0  0
  141.0160   81.0100  223.4020 C   0  0  0  0  0  0  0  0  0  0  0  0
  141.8640   81.2720  222.3080 C   0  0  0  0  0  0  0  0  0  0  0  0
  142.2080   80.2410  221.4200 C   0  0  0  0  0  0  0  0  0  0  0  0
  141.6990   78.9620  221.6540 C   0  0  0  0  0  0  0  0  0  0  0  0
  141.8730   77.7320  220.8400 C   0  0  2  0  0  0  0  0  0  0  0  0
  141.1510   77.8980  219.5170 C   0  0  0  0  0  0  0  0  0  0  0  0
  139.8130   78.2460  219.3250 C   0  0  0  0  0  0  0  0  0  0  0  0
  139.5190   78.2910  218.0060 N   0  0  0  0  0  0  0  0  0  0  0  0
  140.6550   77.9730  217.3620 C   0  0  0  0  0  0  0  0  0  0  0  0
  140.8440   77.8820  215.9840 C   0  0  0  0  0  0  0  0  0  0  0  0
  142.1220   77.5270  215.5180 C   0  0  0  0  0  0  0  0  0  0  0  0
  143.1710   77.2730  216.4290 C   0  0  0  0  0  0  0  0  0  0  0  0
  142.9510   77.3720  217.8150 C   0  0  0  0  0  0  0  0  0  0  0  0
  141.6730   77.7280  218.2490 C   0  0  0  0  0  0  0  0  0  0  0  0
  141.0199   74.0580  218.9198 H   0  0  0  0  0  0  0  0  0  0  0  0
  141.7863   75.6902  218.9029 H   0  0  0  0  0  0  0  0  0  0  0  0
  143.9809   76.0591  219.7816 H   0  0  0  0  0  0  0  0  0  0  0  0
  146.1225   75.0812  220.6077 H   0  0  0  0  0  0  0  0  0  0  0  0
  146.2257   72.6776  221.2770 H   0  0  0  0  0  0  0  0  0  0  0  0
  144.1837   71.2494  221.1184 H   0  0  0  0  0  0  0  0  0  0  0  0
  142.0376   72.2205  220.2953 H   0  0  0  0  0  0  0  0  0  0  0  0
  139.4054   77.1912  222.4352 H   0  0  0  0  0  0  0  0  0  0  0  0
  140.5616   76.8223  223.7098 H   0  0  0  0  0  0  0  0  0  0  0  0
  139.8423   79.5025  224.4579 H   0  0  0  0  0  0  0  0  0  0  0  0
  140.7484   81.8214  224.0948 H   0  0  0  0  0  0  0  0  0  0  0  0
  142.2574   82.2869  222.1494 H   0  0  0  0  0  0  0  0  0  0  0  0
  142.8640   80.4362  220.5588 H   0  0  0  0  0  0  0  0  0  0  0  0
  142.9107   77.5017  220.5571 H   0  0  0  0  0  0  0  0  0  0  0  0
  139.0974   78.4546  220.1340 H   0  0  0  0  0  0  0  0  0  0  0  0
  138.5940   78.5200  217.5800 H   0  0  0  0  0  0  0  0  0  0  0  0
  140.0196   78.0816  215.2836 H   0  0  0  0  0  0  0  0  0  0  0  0
  142.3062   77.4465  214.4365 H   0  0  0  0  0  0  0  0  0  0  0  0
  144.1667   76.9959  216.0523 H   0  0  0  0  0  0  0  0  0  0  0  0
  143.7602   77.1752  218.5337 H   0  0  0  0  0  0  0  0  0  0  0  0
  1  2  2  0
  2  3  2  0
  2  4  1  0
  4  5  1  0
  5  6  2  0
  6  7  1  0
  7  8  2  0
  8  9  1  0
  9 10  2  0
  2 11  1  0
 11 12  1  0
 12 13  1  0
 13 14  2  0
 14 15  1  0
 15 16  2  0
 16 17  1  0
 17 18  2  0
 18 19  1  0
 19 20  1  0
 20 21  2  0
 21 22  1  0
 22 23  1  0
 23 24  2  0
 24 25  1  0
 25 26  2  0
 26 27  1  0
 27 28  2  0
 10  5  1  0
 19 11  1  0
 28 20  1  0
 18 13  1  0
 28 23  1  0
  4 29  1  0
  4 30  1  0
  6 31  1  0
  7 32  1  0
  8 33  1  0
  9 34  1  0
 10 35  1  0
 12 36  1  0
 12 37  1  0
 14 38  1  0
 15 39  1  0
 16 40  1  0
 17 41  1  0
 19 42  1  6
 21 43  1  0
 22 44  1  0
 24 45  1  0
 25 46  1  0
 26 47  1  0
 27 48  1  0
M  END
>  <UniqueID>  (40) 
6

>  <SMILES>  (40) 
O=S(=O)(Cc1ccccc1)N1Cc2ccccc2[C@@H]1c1c[nH]c2ccccc12

>  <Energy>  (40) 
97.32731379793171

>  <Genealogy>  (40) 
O=S(=O)(Cc1ccccc1)N1Cc2ccccc2[C@@H]1c1c[nH]c2ccccc12 (chirality)
O=S(=O)(Cc1ccccc1)N1Cc2ccccc2[C@@H]1c1c[nH]c2ccccc12 (3D coordinates assigned)
O=S(=O)(Cc1ccccc1)N1Cc2ccccc2[C@@H]1c1c[nH]c2ccccc12 (nonaromatic ring conformer: 97.32731379793171 kcal/mol)

>  <smiles>  (40) 
O=S(=O)(Cc1ccccc1)N1Cc2ccccc2C1c1c[nH]c2ccccc12

>  <score_type>  (40) 
oracle

>  <origin>  (40) 
autodockgpu

>  <m_score__min__energy>  (40) 
-7.2199999999999998

>  <m_primary>  (40) 
energy

>  <meeko>  (40) 
{"free_energy": -7.09, "intermolecular_energy": -8.28, "internal_energy": -1.99, "cluster_size": 14, "cluster_id": 2, "rank_in_cluster": 14}

>  <energy>  (40) 
-6.66

>  <cluster_rmsd>  (40) 
0.0

>  <rmsd>  (40) 
270.16

>  <cluster>  (40) 
4

$$$$
WCZRIPJXOMUAPT-QHCPKHFHNA-N
     RDKit          3D

 48 52  0  0  0  0  0  0  0  0999 V2000
  141.1640   75.6100  222.3510 O   0  0  0  0  0  0  0  0  0  0  0  0
  140.2260   74.7330  221.5700 S   0  0  0  0  0  0  0  0  0  0  0  0
  139.9740   73.4720  222.3500 O   0  0  0  0  0  0  0  0  0  0  0  0
  141.0390   74.3310  220.0270 C   0  0  0  0  0  0  0  0  0  0  0  0
  142.4760   73.9360  220.2320 C   0  0  0  0  0  0  0  0  0  0  0  0
  142.8150   72.5970  220.4940 C   0  0  0  0  0  0  0  0  0  0  0  0
  144.1500   72.2350  220.6960 C   0  0  0  0  0  0  0  0  0  0  0  0
  145.1560   73.2020  220.6310 C   0  0  0  0  0  0  0  0  0  0  0  0
  144.8290   74.5330  220.3590 C   0  0  0  0  0  0  0  0  0  0  0  0
  143.4960   74.9000  220.1560 C   0  0  0  0  0  0  0  0  0  0  0  0
  138.7260   75.5940  221.2810 N   0  0  0  0  0  0  0  0  0  0  0  0
  137.9750   75.9060  222.5140 C   0  0  0  0  0  0  0  0  0  0  0  0
  137.2740   77.1720  222.2110 C   0  0  0  0  0  0  0  0  0  0  0  0
  136.2880   77.8140  222.9620 C   0  0  0  0  0  0  0  0  0  0  0  0
  135.7640   79.0260  222.4810 C   0  0  0  0  0  0  0  0  0  0  0  0
  136.2370   79.5710  221.2710 C   0  0  0  0  0  0  0  0  0  0  0  0
  137.2360   78.9080  220.5410 C   0  0  0  0  0  0  0  0  0  0  0  0
  137.7330   77.7000  221.0390 C   0  0  0  0  0  0  0  0  0  0  0  0
  138.8190   76.8510  220.4880 C   0  0  1  0  0  0  0  0  0  0  0  0
  140.1370   77.5880  220.6210 C   0  0  0  0  0  0  0  0  0  0  0  0
  141.1610   77.6630  219.6740 C   0  0  0  0  0  0  0  0  0  0  0  0
  142.1890   78.4050  220.1440 N   0  0  0  0  0  0  0  0  0  0  0  0
  141.8300   78.7970  221.3780 C   0  0  0  0  0  0  0  0  0  0  0  0
  142.5700   79.5850  222.2580 C   0  0  0  0  0  0  0  0  0  0  0  0
  142.0020   79.8820  223.5110 C   0  0  0  0  0  0  0  0  0  0  0  0
  140.7220   79.3900  223.8500 C   0  0  0  0  0  0  0  0  0  0  0  0
  139.9980   78.5960  222.9420 C   0  0  0  0  0  0  0  0  0  0  0  0
  140.5870   78.3180  221.7060 C   0  0  0  0  0  0  0  0  0  0  0  0
  140.5053   73.4946  219.5520 H   0  0  0  0  0  0  0  0  0  0  0  0
  141.0212   75.2279  219.3904 H   0  0  0  0  0  0  0  0  0  0  0  0
  142.0267   71.8312  220.5402 H   0  0  0  0  0  0  0  0  0  0  0  0
  144.4088   71.1868  220.9065 H   0  0  0  0  0  0  0  0  0  0  0  0
  146.2055   72.9157  220.7939 H   0  0  0  0  0  0  0  0  0  0  0  0
  145.6222   75.2932  220.3046 H   0  0  0  0  0  0  0  0  0  0  0  0
  143.2439   75.9478  219.9358 H   0  0  0  0  0  0  0  0  0  0  0  0
  137.2538   75.1074  222.7424 H   0  0  0  0  0  0  0  0  0  0  0  0
  138.6312   75.9915  223.3927 H   0  0  0  0  0  0  0  0  0  0  0  0
  135.9297   77.3815  223.9078 H   0  0  0  0  0  0  0  0  0  0  0  0
  134.9827   79.5504  223.0506 H   0  0  0  0  0  0  0  0  0  0  0  0
  135.8223   80.5188  220.8972 H   0  0  0  0  0  0  0  0  0  0  0  0
  137.6186   79.3290  219.5995 H   0  0  0  0  0  0  0  0  0  0  0  0
  138.7374   76.6196  219.4157 H   0  0  0  0  0  0  0  0  0  0  0  0
  141.1348   77.1850  218.6837 H   0  0  0  0  0  0  0  0  0  0  0  0
  143.0790   78.6250  219.6450 H   0  0  0  0  0  0  0  0  0  0  0  0
  143.5657   79.9625  221.9821 H   0  0  0  0  0  0  0  0  0  0  0  0
  142.5581   80.5009  224.2305 H   0  0  0  0  0  0  0  0  0  0  0  0
  140.2879   79.6296  224.8319 H   0  0  0  0  0  0  0  0  0  0  0  0
  139.0011   78.2069  223.1967 H   0  0  0  0  0  0  0  0  0  0  0  0
  1  2  2  0
  2  3  2  0
  2  4  1  0
  4  5  1  0
  5  6  2  0
  6  7  1  0
  7  8  2  0
  8  9  1  0
  9 10  2  0
  2 11  1  0
 11 12  1  0
 12 13  1  0
 13 14  2  0
 14 15  1  0
 15 16  2  0
 16 17  1  0
 17 18  2  0
 18 19  1  0
 19 20  1  0
 20 21  2  0
 21 22  1  0
 22 23  1  0
 23 24  2  0
 24 25  1  0
 25 26  2  0
 26 27  1  0
 27 28  2  0
 10  5  1  0
 19 11  1  0
 28 20  1  0
 18 13  1  0
 28 23  1  0
  4 29  1  0
  4 30  1  0
  6 31  1  0
  7 32  1  0
  8 33  1  0
  9 34  1  0
 10 35  1  0
 12 36  1  0
 12 37  1  0
 14 38  1  0
 15 39  1  0
 16 40  1  0
 17 41  1  0
 19 42  1  6
 21 43  1  0
 22 44  1  0
 24 45  1  0
 25 46  1  0
 26 47  1  0
 27 48  1  0
M  END
>  <UniqueID>  (41) 
7

>  <SMILES>  (41) 
O=S(=O)(Cc1ccccc1)N1Cc2ccccc2[C@H]1c1c[nH]c2ccccc12

>  <Energy>  (41) 
98.05596573207966

>  <Genealogy>  (41) 
O=S(=O)(Cc1ccccc1)N1Cc2ccccc2[C@H]1c1c[nH]c2ccccc12 (chirality)
O=S(=O)(Cc1ccccc1)N1Cc2ccccc2[C@H]1c1c[nH]c2ccccc12 (3D coordinates assigned)
O=S(=O)(Cc1ccccc1)N1Cc2ccccc2[C@H]1c1c[nH]c2ccccc12 (nonaromatic ring conformer: 98.05596573207966 kcal/mol)

>  <smiles>  (41) 
O=S(=O)(Cc1ccccc1)N1Cc2ccccc2C1c1c[nH]c2ccccc12

>  <score_type>  (41) 
oracle

>  <origin>  (41) 
autodockgpu

>  <m_score__min__energy>  (41) 
-7.29

>  <m_primary>  (41) 
energy

>  <meeko>  (41) 
{"free_energy": -7.28, "intermolecular_energy": -8.47, "internal_energy": -1.97, "cluster_size": 14, "cluster_id": 1, "rank_in_cluster": 3}

>  <energy>  (41) 
-7.29

>  <cluster_rmsd>  (41) 
0.0

>  <rmsd>  (41) 
271.34

>  <cluster>  (41) 
1

$$$$
WCZRIPJXOMUAPT-QHCPKHFHNA-N
     RDKit          3D

 48 52  0  0  0  0  0  0  0  0999 V2000
  141.1600   75.6170  222.3460 O   0  0  0  0  0  0  0  0  0  0  0  0
  140.2220   74.7360  221.5700 S   0  0  0  0  0  0  0  0  0  0  0  0
  139.9710   73.4790  222.3560 O   0  0  0  0  0  0  0  0  0  0  0  0
  141.0350   74.3260  220.0280 C   0  0  0  0  0  0  0  0  0  0  0  0
  142.4720   73.9320  220.2340 C   0  0  0  0  0  0  0  0  0  0  0  0
  143.4930   74.8950  220.1570 C   0  0  0  0  0  0  0  0  0  0  0  0
  144.8280   74.5230  220.3370 C   0  0  0  0  0  0  0  0  0  0  0  0
  145.1550   73.1910  220.6030 C   0  0  0  0  0  0  0  0  0  0  0  0
  144.1450   72.2290  220.6940 C   0  0  0  0  0  0  0  0  0  0  0  0
  142.8090   72.5960  220.5140 C   0  0  0  0  0  0  0  0  0  0  0  0
  138.7220   75.5950  221.2770 N   0  0  0  0  0  0  0  0  0  0  0  0
  137.9680   75.9060  222.5080 C   0  0  0  0  0  0  0  0  0  0  0  0
  137.2660   77.1720  222.2030 C   0  0  0  0  0  0  0  0  0  0  0  0
  136.2770   77.8130  222.9520 C   0  0  0  0  0  0  0  0  0  0  0  0
  135.7530   79.0230  222.4690 C   0  0  0  0  0  0  0  0  0  0  0  0
  136.2280   79.5690  221.2600 C   0  0  0  0  0  0  0  0  0  0  0  0
  137.2300   78.9060  220.5330 C   0  0  0  0  0  0  0  0  0  0  0  0
  137.7270   77.7000  221.0320 C   0  0  0  0  0  0  0  0  0  0  0  0
  138.8160   76.8520  220.4830 C   0  0  1  0  0  0  0  0  0  0  0  0
  140.1330   77.5910  220.6190 C   0  0  0  0  0  0  0  0  0  0  0  0
  141.1580   77.6680  219.6740 C   0  0  0  0  0  0  0  0  0  0  0  0
  142.1840   78.4110  220.1470 N   0  0  0  0  0  0  0  0  0  0  0  0
  141.8230   78.8010  221.3800 C   0  0  0  0  0  0  0  0  0  0  0  0
  142.5600   79.5890  222.2630 C   0  0  0  0  0  0  0  0  0  0  0  0
  141.9890   79.8840  223.5140 C   0  0  0  0  0  0  0  0  0  0  0  0
  140.7100   79.3900  223.8520 C   0  0  0  0  0  0  0  0  0  0  0  0
  139.9890   78.5960  222.9410 C   0  0  0  0  0  0  0  0  0  0  0  0
  140.5800   78.3200  221.7060 C   0  0  0  0  0  0  0  0  0  0  0  0
  140.5011   73.4872  219.5575 H   0  0  0  0  0  0  0  0  0  0  0  0
  141.0171   75.2199  219.3872 H   0  0  0  0  0  0  0  0  0  0  0  0
  143.2401   75.9461  219.9541 H   0  0  0  0  0  0  0  0  0  0  0  0
  145.6229   75.2804  220.2691 H   0  0  0  0  0  0  0  0  0  0  0  0
  146.2067   72.8995  220.7407 H   0  0  0  0  0  0  0  0  0  0  0  0
  144.4025   71.1811  220.9077 H   0  0  0  0  0  0  0  0  0  0  0  0
  142.0173   71.8363  220.5917 H   0  0  0  0  0  0  0  0  0  0  0  0
  137.2471   75.1066  222.7347 H   0  0  0  0  0  0  0  0  0  0  0  0
  138.6219   75.9921  223.3883 H   0  0  0  0  0  0  0  0  0  0  0  0
  135.9172   77.3807  223.8973 H   0  0  0  0  0  0  0  0  0  0  0  0
  134.9692   79.5463  223.0363 H   0  0  0  0  0  0  0  0  0  0  0  0
  135.8132   80.5163  220.8850 H   0  0  0  0  0  0  0  0  0  0  0  0
  137.6145   79.3268  219.5922 H   0  0  0  0  0  0  0  0  0  0  0  0
  138.7378   76.6202  219.4106 H   0  0  0  0  0  0  0  0  0  0  0  0
  141.1342   77.1909  218.6831 H   0  0  0  0  0  0  0  0  0  0  0  0
  143.0750   78.6320  219.6490 H   0  0  0  0  0  0  0  0  0  0  0  0
  143.5560   79.9678  221.9900 H   0  0  0  0  0  0  0  0  0  0  0  0
  142.5427   80.5040  224.2344 H   0  0  0  0  0  0  0  0  0  0  0  0
  140.2745   79.6274  224.8338 H   0  0  0  0  0  0  0  0  0  0  0  0
  138.9922   78.2053  223.1934 H   0  0  0  0  0  0  0  0  0  0  0  0
  1  2  2  0
  2  3  2  0
  2  4  1  0
  4  5  1  0
  5  6  2  0
  6  7  1  0
  7  8  2  0
  8  9  1  0
  9 10  2  0
  2 11  1  0
 11 12  1  0
 12 13  1  0
 13 14  2  0
 14 15  1  0
 15 16  2  0
 16 17  1  0
 17 18  2  0
 18 19  1  0
 19 20  1  0
 20 21  2  0
 21 22  1  0
 22 23  1  0
 23 24  2  0
 24 25  1  0
 25 26  2  0
 26 27  1  0
 27 28  2  0
 10  5  1  0
 19 11  1  0
 28 20  1  0
 18 13  1  0
 28 23  1  0
  4 29  1  0
  4 30  1  0
  6 31  1  0
  7 32  1  0
  8 33  1  0
  9 34  1  0
 10 35  1  0
 12 36  1  0
 12 37  1  0
 14 38  1  0
 15 39  1  0
 16 40  1  0
 17 41  1  0
 19 42  1  6
 21 43  1  0
 22 44  1  0
 24 45  1  0
 25 46  1  0
 26 47  1  0
 27 48  1  0
M  END
>  <UniqueID>  (42) 
7

>  <SMILES>  (42) 
O=S(=O)(Cc1ccccc1)N1Cc2ccccc2[C@H]1c1c[nH]c2ccccc12

>  <Energy>  (42) 
98.05596573207966

>  <Genealogy>  (42) 
O=S(=O)(Cc1ccccc1)N1Cc2ccccc2[C@H]1c1c[nH]c2ccccc12 (chirality)
O=S(=O)(Cc1ccccc1)N1Cc2ccccc2[C@H]1c1c[nH]c2ccccc12 (3D coordinates assigned)
O=S(=O)(Cc1ccccc1)N1Cc2ccccc2[C@H]1c1c[nH]c2ccccc12 (nonaromatic ring conformer: 98.05596573207966 kcal/mol)

>  <smiles>  (42) 
O=S(=O)(Cc1ccccc1)N1Cc2ccccc2C1c1c[nH]c2ccccc12

>  <score_type>  (42) 
oracle

>  <origin>  (42) 
autodockgpu

>  <m_score__min__energy>  (42) 
-7.29

>  <m_primary>  (42) 
energy

>  <meeko>  (42) 
{"free_energy": -7.27, "intermolecular_energy": -8.47, "internal_energy": -1.97, "cluster_size": 14, "cluster_id": 1, "rank_in_cluster": 6}

>  <energy>  (42) 
-7.28

>  <cluster_rmsd>  (42) 
0.03

>  <rmsd>  (42) 
271.34

>  <cluster>  (42) 
1

$$$$
WCZRIPJXOMUAPT-QHCPKHFHNA-N
     RDKit          3D

 48 52  0  0  0  0  0  0  0  0999 V2000
  138.7890   77.7010  219.4190 O   0  0  0  0  0  0  0  0  0  0  0  0
  140.1880   77.3100  219.0320 S   0  0  0  0  0  0  0  0  0  0  0  0
  140.4390   77.7400  217.6130 O   0  0  0  0  0  0  0  0  0  0  0  0
  140.2890   75.5260  219.1450 C   0  0  0  0  0  0  0  0  0  0  0  0
  141.6460   75.0650  219.6020 C   0  0  0  0  0  0  0  0  0  0  0  0
  141.7780   73.9020  220.3810 C   0  0  0  0  0  0  0  0  0  0  0  0
  143.0390   73.4830  220.8140 C   0  0  0  0  0  0  0  0  0  0  0  0
  144.1780   74.2160  220.4690 C   0  0  0  0  0  0  0  0  0  0  0  0
  144.0570   75.3670  219.6860 C   0  0  0  0  0  0  0  0  0  0  0  0
  142.7990   75.7890  219.2500 C   0  0  0  0  0  0  0  0  0  0  0  0
  141.3290   78.0720  220.1230 N   0  0  0  0  0  0  0  0  0  0  0  0
  141.2190   79.5440  220.1620 C   0  0  0  0  0  0  0  0  0  0  0  0
  141.6110   79.9090  221.5410 C   0  0  0  0  0  0  0  0  0  0  0  0
  141.8540   81.1810  222.0610 C   0  0  0  0  0  0  0  0  0  0  0  0
  142.2090   81.2930  223.4160 C   0  0  0  0  0  0  0  0  0  0  0  0
  142.3060   80.1400  224.2200 C   0  0  0  0  0  0  0  0  0  0  0  0
  142.0470   78.8740  223.6710 C   0  0  0  0  0  0  0  0  0  0  0  0
  141.7050   78.7910  222.3190 C   0  0  0  0  0  0  0  0  0  0  0  0
  141.3310   77.5890  221.5320 C   0  0  1  0  0  0  0  0  0  0  0  0
  139.9950   77.0710  222.0260 C   0  0  0  0  0  0  0  0  0  0  0  0
  139.6470   75.7420  222.2790 C   0  0  0  0  0  0  0  0  0  0  0  0
  138.3660   75.6600  222.7040 N   0  0  0  0  0  0  0  0  0  0  0  0
  137.8980   76.9200  222.7200 C   0  0  0  0  0  0  0  0  0  0  0  0
  136.6210   77.3380  223.0920 C   0  0  0  0  0  0  0  0  0  0  0  0
  136.3400   78.7160  223.0370 C   0  0  0  0  0  0  0  0  0  0  0  0
  137.3290   79.6320  222.6170 C   0  0  0  0  0  0  0  0  0  0  0  0
  138.6090   79.1810  222.2480 C   0  0  0  0  0  0  0  0  0  0  0  0
  138.8610   77.8080  222.3120 C   0  0  0  0  0  0  0  0  0  0  0  0
  139.5339   75.1725  219.8625 H   0  0  0  0  0  0  0  0  0  0  0  0
  140.1101   75.1119  218.1418 H   0  0  0  0  0  0  0  0  0  0  0  0
  140.8849   73.3194  220.6508 H   0  0  0  0  0  0  0  0  0  0  0  0
  143.1353   72.5749  221.4273 H   0  0  0  0  0  0  0  0  0  0  0  0
  145.1694   73.8869  220.8138 H   0  0  0  0  0  0  0  0  0  0  0  0
  144.9541   75.9418  219.4125 H   0  0  0  0  0  0  0  0  0  0  0  0
  142.7097   76.6920  218.6283 H   0  0  0  0  0  0  0  0  0  0  0  0
  141.8990   80.0041  219.4299 H   0  0  0  0  0  0  0  0  0  0  0  0
  140.2077   79.8945  219.9083 H   0  0  0  0  0  0  0  0  0  0  0  0
  141.7697   82.0747  221.4253 H   0  0  0  0  0  0  0  0  0  0  0  0
  142.4117   82.2832  223.8501 H   0  0  0  0  0  0  0  0  0  0  0  0
  142.5852   80.2319  225.2800 H   0  0  0  0  0  0  0  0  0  0  0  0
  142.1119   77.9680  224.2914 H   0  0  0  0  0  0  0  0  0  0  0  0
  142.0136   76.7319  221.6293 H   0  0  0  0  0  0  0  0  0  0  0  0
  140.3210   74.8822  222.1505 H   0  0  0  0  0  0  0  0  0  0  0  0
  137.8490   74.7910  222.9650 H   0  0  0  0  0  0  0  0  0  0  0  0
  135.8586   76.6150  223.4176 H   0  0  0  0  0  0  0  0  0  0  0  0
  135.3429   79.0819  223.3232 H   0  0  0  0  0  0  0  0  0  0  0  0
  137.0966   80.7065  222.5781 H   0  0  0  0  0  0  0  0  0  0  0  0
  139.3867   79.8863  221.9196 H   0  0  0  0  0  0  0  0  0  0  0  0
  1  2  2  0
  2  3  2  0
  2  4  1  0
  4  5  1  0
  5  6  2  0
  6  7  1  0
  7  8  2  0
  8  9  1  0
  9 10  2  0
  2 11  1  0
 11 12  1  0
 12 13  1  0
 13 14  2  0
 14 15  1  0
 15 16  2  0
 16 17  1  0
 17 18  2  0
 18 19  1  0
 19 20  1  0
 20 21  2  0
 21 22  1  0
 22 23  1  0
 23 24  2  0
 24 25  1  0
 25 26  2  0
 26 27  1  0
 27 28  2  0
 10  5  1  0
 19 11  1  0
 28 20  1  0
 18 13  1  0
 28 23  1  0
  4 29  1  0
  4 30  1  0
  6 31  1  0
  7 32  1  0
  8 33  1  0
  9 34  1  0
 10 35  1  0
 12 36  1  0
 12 37  1  0
 14 38  1  0
 15 39  1  0
 16 40  1  0
 17 41  1  0
 19 42  1  6
 21 43  1  0
 22 44  1  0
 24 45  1  0
 25 46  1  0
 26 47  1  0
 27 48  1  0
M  END
>  <UniqueID>  (43) 
7

>  <SMILES>  (43) 
O=S(=O)(Cc1ccccc1)N1Cc2ccccc2[C@H]1c1c[nH]c2ccccc12

>  <Energy>  (43) 
98.05596573207966

>  <Genealogy>  (43) 
O=S(=O)(Cc1ccccc1)N1Cc2ccccc2[C@H]1c1c[nH]c2ccccc12 (chirality)
O=S(=O)(Cc1ccccc1)N1Cc2ccccc2[C@H]1c1c[nH]c2ccccc12 (3D coordinates assigned)
O=S(=O)(Cc1ccccc1)N1Cc2ccccc2[C@H]1c1c[nH]c2ccccc12 (nonaromatic ring conformer: 98.05596573207966 kcal/mol)

>  <smiles>  (43) 
O=S(=O)(Cc1ccccc1)N1Cc2ccccc2C1c1c[nH]c2ccccc12

>  <score_type>  (43) 
oracle

>  <origin>  (43) 
autodockgpu

>  <m_score__min__energy>  (43) 
-7.29

>  <m_primary>  (43) 
energy

>  <meeko>  (43) 
{"free_energy": -6.91, "intermolecular_energy": -8.11, "internal_energy": -2.14, "cluster_size": 3, "cluster_id": 2, "rank_in_cluster": 3}

>  <energy>  (43) 
-7.28

>  <cluster_rmsd>  (43) 
0.02

>  <rmsd>  (43) 
271.34

>  <cluster>  (43) 
1

$$$$
WCZRIPJXOMUAPT-QHCPKHFHNA-N
     RDKit          3D

 48 52  0  0  0  0  0  0  0  0999 V2000
  141.1630   75.6030  222.3520 O   0  0  0  0  0  0  0  0  0  0  0  0
  140.2220   74.7320  221.5690 S   0  0  0  0  0  0  0  0  0  0  0  0
  139.9680   73.4680  222.3440 O   0  0  0  0  0  0  0  0  0  0  0  0
  141.0320   74.3340  220.0230 C   0  0  0  0  0  0  0  0  0  0  0  0
  142.4650   73.9250  220.2250 C   0  0  0  0  0  0  0  0  0  0  0  0
  142.7900   72.5870  220.5110 C   0  0  0  0  0  0  0  0  0  0  0  0
  144.1220   72.2130  220.7110 C   0  0  0  0  0  0  0  0  0  0  0  0
  145.1390   73.1660  220.6200 C   0  0  0  0  0  0  0  0  0  0  0  0
  144.8270   74.4950  220.3240 C   0  0  0  0  0  0  0  0  0  0  0  0
  143.4970   74.8750  220.1240 C   0  0  0  0  0  0  0  0  0  0  0  0
  138.7230   75.5970  221.2860 N   0  0  0  0  0  0  0  0  0  0  0  0
  137.9770   75.9090  222.5210 C   0  0  0  0  0  0  0  0  0  0  0  0
  137.2790   77.1780  222.2220 C   0  0  0  0  0  0  0  0  0  0  0  0
  136.2960   77.8210  222.9770 C   0  0  0  0  0  0  0  0  0  0  0  0
  135.7740   79.0350  222.4990 C   0  0  0  0  0  0  0  0  0  0  0  0
  136.2450   79.5810  221.2890 C   0  0  0  0  0  0  0  0  0  0  0  0
  137.2400   78.9150  220.5550 C   0  0  0  0  0  0  0  0  0  0  0  0
  137.7360   77.7060  221.0490 C   0  0  0  0  0  0  0  0  0  0  0  0
  138.8180   76.8550  220.4940 C   0  0  1  0  0  0  0  0  0  0  0  0
  140.1380   77.5880  220.6240 C   0  0  0  0  0  0  0  0  0  0  0  0
  141.1600   77.6600  219.6750 C   0  0  0  0  0  0  0  0  0  0  0  0
  142.1920   78.3990  220.1430 N   0  0  0  0  0  0  0  0  0  0  0  0
  141.8360   78.7920  221.3780 C   0  0  0  0  0  0  0  0  0  0  0  0
  142.5800   79.5780  222.2570 C   0  0  0  0  0  0  0  0  0  0  0  0
  142.0150   79.8760  223.5100 C   0  0  0  0  0  0  0  0  0  0  0  0
  140.7350   79.3880  223.8530 C   0  0  0  0  0  0  0  0  0  0  0  0
  140.0070   78.5960  222.9450 C   0  0  0  0  0  0  0  0  0  0  0  0
  140.5930   78.3160  221.7080 C   0  0  0  0  0  0  0  0  0  0  0  0
  140.4910   73.5058  219.5419 H   0  0  0  0  0  0  0  0  0  0  0  0
  141.0223   75.2358  219.3931 H   0  0  0  0  0  0  0  0  0  0  0  0
  141.9930   71.8318  220.5776 H   0  0  0  0  0  0  0  0  0  0  0  0
  144.3697   71.1661  220.9405 H   0  0  0  0  0  0  0  0  0  0  0  0
  146.1860   72.8699  220.7815 H   0  0  0  0  0  0  0  0  0  0  0  0
  145.6293   75.2437  220.2482 H   0  0  0  0  0  0  0  0  0  0  0  0
  143.2564   75.9218  219.8865 H   0  0  0  0  0  0  0  0  0  0  0  0
  137.2540   75.1123  222.7501 H   0  0  0  0  0  0  0  0  0  0  0  0
  138.6359   75.9909  223.3980 H   0  0  0  0  0  0  0  0  0  0  0  0
  135.9389   77.3878  223.9229 H   0  0  0  0  0  0  0  0  0  0  0  0
  134.9953   79.5604  223.0714 H   0  0  0  0  0  0  0  0  0  0  0  0
  135.8326   80.5310  220.9182 H   0  0  0  0  0  0  0  0  0  0  0  0
  137.6202   79.3358  219.6124 H   0  0  0  0  0  0  0  0  0  0  0  0
  138.7333   76.6251  219.4216 H   0  0  0  0  0  0  0  0  0  0  0  0
  141.1300   77.1822  218.6846 H   0  0  0  0  0  0  0  0  0  0  0  0
  143.0820   78.6160  219.6420 H   0  0  0  0  0  0  0  0  0  0  0  0
  143.5763   79.9528  221.9796 H   0  0  0  0  0  0  0  0  0  0  0  0
  142.5743   80.4937  224.2281 H   0  0  0  0  0  0  0  0  0  0  0  0
  140.3040   79.6283  224.8361 H   0  0  0  0  0  0  0  0  0  0  0  0
  139.0092   78.2101  223.2011 H   0  0  0  0  0  0  0  0  0  0  0  0
  1  2  2  0
  2  3  2  0
  2  4  1  0
  4  5  1  0
  5  6  2  0
  6  7  1  0
  7  8  2  0
  8  9  1  0
  9 10  2  0
  2 11  1  0
 11 12  1  0
 12 13  1  0
 13 14  2  0
 14 15  1  0
 15 16  2  0
 16 17  1  0
 17 18  2  0
 18 19  1  0
 19 20  1  0
 20 21  2  0
 21 22  1  0
 22 23  1  0
 23 24  2  0
 24 25  1  0
 25 26  2  0
 26 27  1  0
 27 28  2  0
 10  5  1  0
 19 11  1  0
 28 20  1  0
 18 13  1  0
 28 23  1  0
  4 29  1  0
  4 30  1  0
  6 31  1  0
  7 32  1  0
  8 33  1  0
  9 34  1  0
 10 35  1  0
 12 36  1  0
 12 37  1  0
 14 38  1  0
 15 39  1  0
 16 40  1  0
 17 41  1  0
 19 42  1  6
 21 43  1  0
 22 44  1  0
 24 45  1  0
 25 46  1  0
 26 47  1  0
 27 48  1  0
M  END
>  <UniqueID>  (44) 
7

>  <SMILES>  (44) 
O=S(=O)(Cc1ccccc1)N1Cc2ccccc2[C@H]1c1c[nH]c2ccccc12

>  <Energy>  (44) 
98.05596573207966

>  <Genealogy>  (44) 
O=S(=O)(Cc1ccccc1)N1Cc2ccccc2[C@H]1c1c[nH]c2ccccc12 (chirality)
O=S(=O)(Cc1ccccc1)N1Cc2ccccc2[C@H]1c1c[nH]c2ccccc12 (3D coordinates assigned)
O=S(=O)(Cc1ccccc1)N1Cc2ccccc2[C@H]1c1c[nH]c2ccccc12 (nonaromatic ring conformer: 98.05596573207966 kcal/mol)

>  <smiles>  (44) 
O=S(=O)(Cc1ccccc1)N1Cc2ccccc2C1c1c[nH]c2ccccc12

>  <score_type>  (44) 
oracle

>  <origin>  (44) 
autodockgpu

>  <m_score__min__energy>  (44) 
-7.29

>  <m_primary>  (44) 
energy

>  <meeko>  (44) 
{"free_energy": -7.27, "intermolecular_energy": -8.46, "internal_energy": -1.97, "cluster_size": 14, "cluster_id": 1, "rank_in_cluster": 8}

>  <energy>  (44) 
-7.27

>  <cluster_rmsd>  (44) 
0.04

>  <rmsd>  (44) 
271.33

>  <cluster>  (44) 
1

$$$$
WCZRIPJXOMUAPT-QHCPKHFHNA-N
     RDKit          3D

 48 52  0  0  0  0  0  0  0  0999 V2000
  141.1610   75.6180  222.3380 O   0  0  0  0  0  0  0  0  0  0  0  0
  140.2190   74.7360  221.5680 S   0  0  0  0  0  0  0  0  0  0  0  0
  139.9690   73.4810  222.3590 O   0  0  0  0  0  0  0  0  0  0  0  0
  141.0250   74.3210  220.0240 C   0  0  0  0  0  0  0  0  0  0  0  0
  142.4640   73.9310  220.2260 C   0  0  0  0  0  0  0  0  0  0  0  0
  142.8090   72.5960  220.4980 C   0  0  0  0  0  0  0  0  0  0  0  0
  144.1460   72.2390  220.6970 C   0  0  0  0  0  0  0  0  0  0  0  0
  145.1490   73.2090  220.6190 C   0  0  0  0  0  0  0  0  0  0  0  0
  144.8160   74.5360  220.3370 C   0  0  0  0  0  0  0  0  0  0  0  0
  143.4820   74.8980  220.1370 C   0  0  0  0  0  0  0  0  0  0  0  0
  138.7190   75.5960  221.2780 N   0  0  0  0  0  0  0  0  0  0  0  0
  137.9690   75.9090  222.5110 C   0  0  0  0  0  0  0  0  0  0  0  0
  137.2670   77.1750  222.2070 C   0  0  0  0  0  0  0  0  0  0  0  0
  136.2810   77.8180  222.9570 C   0  0  0  0  0  0  0  0  0  0  0  0
  135.7560   79.0290  222.4750 C   0  0  0  0  0  0  0  0  0  0  0  0
  136.2290   79.5720  221.2640 C   0  0  0  0  0  0  0  0  0  0  0  0
  137.2280   78.9080  220.5350 C   0  0  0  0  0  0  0  0  0  0  0  0
  137.7250   77.7020  221.0330 C   0  0  0  0  0  0  0  0  0  0  0  0
  138.8120   76.8520  220.4830 C   0  0  1  0  0  0  0  0  0  0  0  0
  140.1300   77.5890  220.6150 C   0  0  0  0  0  0  0  0  0  0  0  0
  141.1520   77.6640  219.6670 C   0  0  0  0  0  0  0  0  0  0  0  0
  142.1810   78.4060  220.1360 N   0  0  0  0  0  0  0  0  0  0  0  0
  141.8230   78.7990  221.3700 C   0  0  0  0  0  0  0  0  0  0  0  0
  142.5630   79.5880  222.2490 C   0  0  0  0  0  0  0  0  0  0  0  0
  141.9960   79.8850  223.5020 C   0  0  0  0  0  0  0  0  0  0  0  0
  140.7170   79.3930  223.8430 C   0  0  0  0  0  0  0  0  0  0  0  0
  139.9920   78.5980  222.9350 C   0  0  0  0  0  0  0  0  0  0  0  0
  140.5800   78.3200  221.6990 C   0  0  0  0  0  0  0  0  0  0  0  0
  140.4907   73.4790  219.5597 H   0  0  0  0  0  0  0  0  0  0  0  0
  141.0019   75.2116  219.3787 H   0  0  0  0  0  0  0  0  0  0  0  0
  142.0233   71.8283  220.5546 H   0  0  0  0  0  0  0  0  0  0  0  0
  144.4088   71.1934  220.9152 H   0  0  0  0  0  0  0  0  0  0  0  0
  146.2002   72.9277  220.7796 H   0  0  0  0  0  0  0  0  0  0  0  0
  145.6067   75.2980  220.2723 H   0  0  0  0  0  0  0  0  0  0  0  0
  143.2263   75.9433  219.9090 H   0  0  0  0  0  0  0  0  0  0  0  0
  137.2483   75.1104  222.7409 H   0  0  0  0  0  0  0  0  0  0  0  0
  138.6258   75.9957  223.3891 H   0  0  0  0  0  0  0  0  0  0  0  0
  135.9232   77.3867  223.9035 H   0  0  0  0  0  0  0  0  0  0  0  0
  134.9745   79.5539  223.0440 H   0  0  0  0  0  0  0  0  0  0  0  0
  135.8142   80.5191  220.8887 H   0  0  0  0  0  0  0  0  0  0  0  0
  137.6105   79.3281  219.5931 H   0  0  0  0  0  0  0  0  0  0  0  0
  138.7306   76.6193  219.4110 H   0  0  0  0  0  0  0  0  0  0  0  0
  141.1243   77.1862  218.6766 H   0  0  0  0  0  0  0  0  0  0  0  0
  143.0700   78.6270  219.6360 H   0  0  0  0  0  0  0  0  0  0  0  0
  143.5581   79.9662  221.9721 H   0  0  0  0  0  0  0  0  0  0  0  0
  142.5526   80.5045  224.2206 H   0  0  0  0  0  0  0  0  0  0  0  0
  140.2840   79.6327  224.8254 H   0  0  0  0  0  0  0  0  0  0  0  0
  138.9954   78.2087  223.1905 H   0  0  0  0  0  0  0  0  0  0  0  0
  1  2  2  0
  2  3  2  0
  2  4  1  0
  4  5  1  0
  5  6  2  0
  6  7  1  0
  7  8  2  0
  8  9  1  0
  9 10  2  0
  2 11  1  0
 11 12  1  0
 12 13  1  0
 13 14  2  0
 14 15  1  0
 15 16  2  0
 16 17  1  0
 17 18  2  0
 18 19  1  0
 19 20  1  0
 20 21  2  0
 21 22  1  0
 22 23  1  0
 23 24  2  0
 24 25  1  0
 25 26  2  0
 26 27  1  0
 27 28  2  0
 10  5  1  0
 19 11  1  0
 28 20  1  0
 18 13  1  0
 28 23  1  0
  4 29  1  0
  4 30  1  0
  6 31  1  0
  7 32  1  0
  8 33  1  0
  9 34  1  0
 10 35  1  0
 12 36  1  0
 12 37  1  0
 14 38  1  0
 15 39  1  0
 16 40  1  0
 17 41  1  0
 19 42  1  6
 21 43  1  0
 22 44  1  0
 24 45  1  0
 25 46  1  0
 26 47  1  0
 27 48  1  0
M  END
>  <UniqueID>  (45) 
7

>  <SMILES>  (45) 
O=S(=O)(Cc1ccccc1)N1Cc2ccccc2[C@H]1c1c[nH]c2ccccc12

>  <Energy>  (45) 
98.05596573207966

>  <Genealogy>  (45) 
O=S(=O)(Cc1ccccc1)N1Cc2ccccc2[C@H]1c1c[nH]c2ccccc12 (chirality)
O=S(=O)(Cc1ccccc1)N1Cc2ccccc2[C@H]1c1c[nH]c2ccccc12 (3D coordinates assigned)
O=S(=O)(Cc1ccccc1)N1Cc2ccccc2[C@H]1c1c[nH]c2ccccc12 (nonaromatic ring conformer: 98.05596573207966 kcal/mol)

>  <smiles>  (45) 
O=S(=O)(Cc1ccccc1)N1Cc2ccccc2C1c1c[nH]c2ccccc12

>  <score_type>  (45) 
oracle

>  <origin>  (45) 
autodockgpu

>  <m_score__min__energy>  (45) 
-7.29

>  <m_primary>  (45) 
energy

>  <meeko>  (45) 
{"free_energy": -7.27, "intermolecular_energy": -8.46, "internal_energy": -1.97, "cluster_size": 14, "cluster_id": 1, "rank_in_cluster": 7}

>  <energy>  (45) 
-7.27

>  <cluster_rmsd>  (45) 
0.04

>  <rmsd>  (45) 
271.34

>  <cluster>  (45) 
1

$$$$
WCZRIPJXOMUAPT-QHCPKHFHNA-N
     RDKit          3D

 48 52  0  0  0  0  0  0  0  0999 V2000
  141.1560   75.6460  222.4090 O   0  0  0  0  0  0  0  0  0  0  0  0
  140.2180   74.7970  221.5980 S   0  0  0  0  0  0  0  0  0  0  0  0
  139.9670   73.5100  222.3340 O   0  0  0  0  0  0  0  0  0  0  0  0
  141.0310   74.4500  220.0410 C   0  0  0  0  0  0  0  0  0  0  0  0
  142.4530   74.0010  220.2350 C   0  0  0  0  0  0  0  0  0  0  0  0
  143.5200   74.8700  219.9470 C   0  0  0  0  0  0  0  0  0  0  0  0
  144.8410   74.4460  220.1160 C   0  0  0  0  0  0  0  0  0  0  0  0
  145.1080   73.1560  220.5800 C   0  0  0  0  0  0  0  0  0  0  0  0
  144.0540   72.2890  220.8810 C   0  0  0  0  0  0  0  0  0  0  0  0
  142.7320   72.7090  220.7130 C   0  0  0  0  0  0  0  0  0  0  0  0
  138.7180   75.6670  221.3400 N   0  0  0  0  0  0  0  0  0  0  0  0
  137.9870   75.9700  222.5870 C   0  0  0  0  0  0  0  0  0  0  0  0
  137.2870   77.2420  222.3080 C   0  0  0  0  0  0  0  0  0  0  0  0
  136.3140   77.8810  223.0790 C   0  0  0  0  0  0  0  0  0  0  0  0
  135.7880   79.0990  222.6180 C   0  0  0  0  0  0  0  0  0  0  0  0
  136.2460   79.6540  221.4070 C   0  0  0  0  0  0  0  0  0  0  0  0
  137.2310   78.9940  220.6560 C   0  0  0  0  0  0  0  0  0  0  0  0
  137.7310   77.7800  221.1340 C   0  0  0  0  0  0  0  0  0  0  0  0
  138.8050   76.9320  220.5580 C   0  0  1  0  0  0  0  0  0  0  0  0
  140.1280   77.6620  220.6790 C   0  0  0  0  0  0  0  0  0  0  0  0
  141.1390   77.7400  219.7190 C   0  0  0  0  0  0  0  0  0  0  0  0
  142.1770   78.4740  220.1810 N   0  0  0  0  0  0  0  0  0  0  0  0
  141.8360   78.8570  221.4220 C   0  0  0  0  0  0  0  0  0  0  0  0
  142.5920   79.6350  222.2990 C   0  0  0  0  0  0  0  0  0  0  0  0
  142.0410   79.9240  223.5610 C   0  0  0  0  0  0  0  0  0  0  0  0
  140.7650   79.4350  223.9150 C   0  0  0  0  0  0  0  0  0  0  0  0
  140.0250   78.6520  223.0090 C   0  0  0  0  0  0  0  0  0  0  0  0
  140.5960   78.3810  221.7630 C   0  0  0  0  0  0  0  0  0  0  0  0
  140.4760   73.6560  219.5199 H   0  0  0  0  0  0  0  0  0  0  0  0
  141.0456   75.3785  219.4514 H   0  0  0  0  0  0  0  0  0  0  0  0
  143.3141   75.8888  219.5869 H   0  0  0  0  0  0  0  0  0  0  0  0
  145.6713   75.1290  219.8833 H   0  0  0  0  0  0  0  0  0  0  0  0
  146.1482   72.8223  220.7086 H   0  0  0  0  0  0  0  0  0  0  0  0
  144.2654   71.2748  221.2506 H   0  0  0  0  0  0  0  0  0  0  0  0
  141.9054   72.0251  220.9560 H   0  0  0  0  0  0  0  0  0  0  0  0
  137.2658   75.1722  222.8182 H   0  0  0  0  0  0  0  0  0  0  0  0
  138.6569   76.0440  223.4563 H   0  0  0  0  0  0  0  0  0  0  0  0
  135.9674   77.4407  224.0256 H   0  0  0  0  0  0  0  0  0  0  0  0
  135.0168   79.6206  223.2038 H   0  0  0  0  0  0  0  0  0  0  0  0
  135.8304   80.6075  221.0489 H   0  0  0  0  0  0  0  0  0  0  0  0
  137.6008   79.4226  219.7129 H   0  0  0  0  0  0  0  0  0  0  0  0
  138.7066   76.7119  219.4847 H   0  0  0  0  0  0  0  0  0  0  0  0
  141.0971   77.2700  218.7254 H   0  0  0  0  0  0  0  0  0  0  0  0
  143.0610   78.6940  219.6710 H   0  0  0  0  0  0  0  0  0  0  0  0
  143.5859   80.0101  222.0134 H   0  0  0  0  0  0  0  0  0  0  0  0
  142.6090   80.5358  224.2773 H   0  0  0  0  0  0  0  0  0  0  0  0
  140.3462   79.6673  224.9053 H   0  0  0  0  0  0  0  0  0  0  0  0
  139.0295   78.2660  223.2735 H   0  0  0  0  0  0  0  0  0  0  0  0
  1  2  2  0
  2  3  2  0
  2  4  1  0
  4  5  1  0
  5  6  2  0
  6  7  1  0
  7  8  2  0
  8  9  1  0
  9 10  2  0
  2 11  1  0
 11 12  1  0
 12 13  1  0
 13 14  2  0
 14 15  1  0
 15 16  2  0
 16 17  1  0
 17 18  2  0
 18 19  1  0
 19 20  1  0
 20 21  2  0
 21 22  1  0
 22 23  1  0
 23 24  2  0
 24 25  1  0
 25 26  2  0
 26 27  1  0
 27 28  2  0
 10  5  1  0
 19 11  1  0
 28 20  1  0
 18 13  1  0
 28 23  1  0
  4 29  1  0
  4 30  1  0
  6 31  1  0
  7 32  1  0
  8 33  1  0
  9 34  1  0
 10 35  1  0
 12 36  1  0
 12 37  1  0
 14 38  1  0
 15 39  1  0
 16 40  1  0
 17 41  1  0
 19 42  1  6
 21 43  1  0
 22 44  1  0
 24 45  1  0
 25 46  1  0
 26 47  1  0
 27 48  1  0
M  END
>  <UniqueID>  (46) 
7

>  <SMILES>  (46) 
O=S(=O)(Cc1ccccc1)N1Cc2ccccc2[C@H]1c1c[nH]c2ccccc12

>  <Energy>  (46) 
98.05596573207966

>  <Genealogy>  (46) 
O=S(=O)(Cc1ccccc1)N1Cc2ccccc2[C@H]1c1c[nH]c2ccccc12 (chirality)
O=S(=O)(Cc1ccccc1)N1Cc2ccccc2[C@H]1c1c[nH]c2ccccc12 (3D coordinates assigned)
O=S(=O)(Cc1ccccc1)N1Cc2ccccc2[C@H]1c1c[nH]c2ccccc12 (nonaromatic ring conformer: 98.05596573207966 kcal/mol)

>  <smiles>  (46) 
O=S(=O)(Cc1ccccc1)N1Cc2ccccc2C1c1c[nH]c2ccccc12

>  <score_type>  (46) 
oracle

>  <origin>  (46) 
autodockgpu

>  <m_score__min__energy>  (46) 
-7.29

>  <m_primary>  (46) 
energy

>  <meeko>  (46) 
{"free_energy": -7.15, "intermolecular_energy": -8.35, "internal_energy": -1.96, "cluster_size": 14, "cluster_id": 1, "rank_in_cluster": 14}

>  <energy>  (46) 
-7.27

>  <cluster_rmsd>  (46) 
0.02

>  <rmsd>  (46) 
271.34

>  <cluster>  (46) 
1

$$$$
WCZRIPJXOMUAPT-QHCPKHFHNA-N
     RDKit          3D

 48 52  0  0  0  0  0  0  0  0999 V2000
  141.1640   75.5780  222.3470 O   0  0  0  0  0  0  0  0  0  0  0  0
  140.2240   74.6900  221.5810 S   0  0  0  0  0  0  0  0  0  0  0  0
  139.9710   73.4420  222.3820 O   0  0  0  0  0  0  0  0  0  0  0  0
  141.0370   74.2610  220.0450 C   0  0  0  0  0  0  0  0  0  0  0  0
  142.4780   73.8820  220.2550 C   0  0  0  0  0  0  0  0  0  0  0  0
  143.4860   74.8610  220.2070 C   0  0  0  0  0  0  0  0  0  0  0  0
  144.8250   74.5040  220.3910 C   0  0  0  0  0  0  0  0  0  0  0  0
  145.1680   73.1710  220.6290 C   0  0  0  0  0  0  0  0  0  0  0  0
  144.1720   72.1930  220.6900 C   0  0  0  0  0  0  0  0  0  0  0  0
  142.8320   72.5450  220.5080 C   0  0  0  0  0  0  0  0  0  0  0  0
  138.7260   75.5480  221.2770 N   0  0  0  0  0  0  0  0  0  0  0  0
  137.9650   75.8620  222.5030 C   0  0  0  0  0  0  0  0  0  0  0  0
  137.2640   77.1260  222.1920 C   0  0  0  0  0  0  0  0  0  0  0  0
  136.2710   77.7690  222.9330 C   0  0  0  0  0  0  0  0  0  0  0  0
  135.7490   78.9780  222.4450 C   0  0  0  0  0  0  0  0  0  0  0  0
  136.2320   79.5210  221.2380 C   0  0  0  0  0  0  0  0  0  0  0  0
  137.2380   78.8580  220.5180 C   0  0  0  0  0  0  0  0  0  0  0  0
  137.7330   77.6520  221.0220 C   0  0  0  0  0  0  0  0  0  0  0  0
  138.8250   76.8030  220.4820 C   0  0  1  0  0  0  0  0  0  0  0  0
  140.1400   77.5430  220.6250 C   0  0  0  0  0  0  0  0  0  0  0  0
  141.1730   77.6140  219.6880 C   0  0  0  0  0  0  0  0  0  0  0  0
  142.1960   78.3590  220.1650 N   0  0  0  0  0  0  0  0  0  0  0  0
  141.8240   78.7570  221.3930 C   0  0  0  0  0  0  0  0  0  0  0  0
  142.5550   79.5500  222.2770 C   0  0  0  0  0  0  0  0  0  0  0  0
  141.9730   79.8520  223.5220 C   0  0  0  0  0  0  0  0  0  0  0  0
  140.6910   79.3600  223.8520 C   0  0  0  0  0  0  0  0  0  0  0  0
  139.9780   78.5610  222.9390 C   0  0  0  0  0  0  0  0  0  0  0  0
  140.5790   78.2780  221.7110 C   0  0  0  0  0  0  0  0  0  0  0  0
  140.5090   73.4102  219.5896 H   0  0  0  0  0  0  0  0  0  0  0  0
  141.0106   75.1438  219.3892 H   0  0  0  0  0  0  0  0  0  0  0  0
  143.2198   75.9125  220.0238 H   0  0  0  0  0  0  0  0  0  0  0  0
  145.6096   75.2738  220.3483 H   0  0  0  0  0  0  0  0  0  0  0  0
  146.2226   72.8911  220.7684 H   0  0  0  0  0  0  0  0  0  0  0  0
  144.4431   71.1443  220.8816 H   0  0  0  0  0  0  0  0  0  0  0  0
  142.0507   71.7727  220.5629 H   0  0  0  0  0  0  0  0  0  0  0  0
  137.2435   75.0627  222.7278 H   0  0  0  0  0  0  0  0  0  0  0  0
  138.6144   75.9510  223.3863 H   0  0  0  0  0  0  0  0  0  0  0  0
  135.9058   77.3387  223.8772 H   0  0  0  0  0  0  0  0  0  0  0  0
  134.9614   79.5021  223.0063 H   0  0  0  0  0  0  0  0  0  0  0  0
  135.8194   80.4675  220.8587 H   0  0  0  0  0  0  0  0  0  0  0  0
  137.6278   79.2778  219.5789 H   0  0  0  0  0  0  0  0  0  0  0  0
  138.7540   76.5683  219.4097 H   0  0  0  0  0  0  0  0  0  0  0  0
  141.1569   77.1313  218.6997 H   0  0  0  0  0  0  0  0  0  0  0  0
  143.0910   78.5780  219.6730 H   0  0  0  0  0  0  0  0  0  0  0  0
  143.5533   79.9269  222.0099 H   0  0  0  0  0  0  0  0  0  0  0  0
  142.5207   80.4759  224.2436 H   0  0  0  0  0  0  0  0  0  0  0  0
  140.2471   79.6028  224.8287 H   0  0  0  0  0  0  0  0  0  0  0  0
  138.9790   78.1718  223.1850 H   0  0  0  0  0  0  0  0  0  0  0  0
  1  2  2  0
  2  3  2  0
  2  4  1  0
  4  5  1  0
  5  6  2  0
  6  7  1  0
  7  8  2  0
  8  9  1  0
  9 10  2  0
  2 11  1  0
 11 12  1  0
 12 13  1  0
 13 14  2  0
 14 15  1  0
 15 16  2  0
 16 17  1  0
 17 18  2  0
 18 19  1  0
 19 20  1  0
 20 21  2  0
 21 22  1  0
 22 23  1  0
 23 24  2  0
 24 25  1  0
 25 26  2  0
 26 27  1  0
 27 28  2  0
 10  5  1  0
 19 11  1  0
 28 20  1  0
 18 13  1  0
 28 23  1  0
  4 29  1  0
  4 30  1  0
  6 31  1  0
  7 32  1  0
  8 33  1  0
  9 34  1  0
 10 35  1  0
 12 36  1  0
 12 37  1  0
 14 38  1  0
 15 39  1  0
 16 40  1  0
 17 41  1  0
 19 42  1  6
 21 43  1  0
 22 44  1  0
 24 45  1  0
 25 46  1  0
 26 47  1  0
 27 48  1  0
M  END
>  <UniqueID>  (47) 
7

>  <SMILES>  (47) 
O=S(=O)(Cc1ccccc1)N1Cc2ccccc2[C@H]1c1c[nH]c2ccccc12

>  <Energy>  (47) 
98.05596573207966

>  <Genealogy>  (47) 
O=S(=O)(Cc1ccccc1)N1Cc2ccccc2[C@H]1c1c[nH]c2ccccc12 (chirality)
O=S(=O)(Cc1ccccc1)N1Cc2ccccc2[C@H]1c1c[nH]c2ccccc12 (3D coordinates assigned)
O=S(=O)(Cc1ccccc1)N1Cc2ccccc2[C@H]1c1c[nH]c2ccccc12 (nonaromatic ring conformer: 98.05596573207966 kcal/mol)

>  <smiles>  (47) 
O=S(=O)(Cc1ccccc1)N1Cc2ccccc2C1c1c[nH]c2ccccc12

>  <score_type>  (47) 
oracle

>  <origin>  (47) 
autodockgpu

>  <m_score__min__energy>  (47) 
-7.29

>  <m_primary>  (47) 
energy

>  <meeko>  (47) 
{"free_energy": -7.27, "intermolecular_energy": -8.47, "internal_energy": -1.96, "cluster_size": 14, "cluster_id": 1, "rank_in_cluster": 4}

>  <energy>  (47) 
-7.27

>  <cluster_rmsd>  (47) 
0.03

>  <rmsd>  (47) 
271.34

>  <cluster>  (47) 
1

$$$$
WCZRIPJXOMUAPT-QHCPKHFHNA-N
     RDKit          3D

 48 52  0  0  0  0  0  0  0  0999 V2000
  141.1660   75.6150  222.3450 O   0  0  0  0  0  0  0  0  0  0  0  0
  140.2270   74.7260  221.5790 S   0  0  0  0  0  0  0  0  0  0  0  0
  139.9770   73.4770  222.3790 O   0  0  0  0  0  0  0  0  0  0  0  0
  141.0380   74.3000  220.0400 C   0  0  0  0  0  0  0  0  0  0  0  0
  142.4790   73.9200  220.2480 C   0  0  0  0  0  0  0  0  0  0  0  0
  142.8310   72.5870  220.5250 C   0  0  0  0  0  0  0  0  0  0  0  0
  144.1700   72.2400  220.7290 C   0  0  0  0  0  0  0  0  0  0  0  0
  145.1670   73.2160  220.6520 C   0  0  0  0  0  0  0  0  0  0  0  0
  144.8270   74.5410  220.3650 C   0  0  0  0  0  0  0  0  0  0  0  0
  143.4900   74.8930  220.1600 C   0  0  0  0  0  0  0  0  0  0  0  0
  138.7270   75.5810  221.2790 N   0  0  0  0  0  0  0  0  0  0  0  0
  137.9680   75.8940  222.5060 C   0  0  0  0  0  0  0  0  0  0  0  0
  137.2650   77.1580  222.1970 C   0  0  0  0  0  0  0  0  0  0  0  0
  136.2720   77.7990  222.9400 C   0  0  0  0  0  0  0  0  0  0  0  0
  135.7470   79.0070  222.4530 C   0  0  0  0  0  0  0  0  0  0  0  0
  136.2260   79.5510  221.2450 C   0  0  0  0  0  0  0  0  0  0  0  0
  137.2320   78.8890  220.5220 C   0  0  0  0  0  0  0  0  0  0  0  0
  137.7290   77.6840  221.0260 C   0  0  0  0  0  0  0  0  0  0  0  0
  138.8210   76.8370  220.4830 C   0  0  1  0  0  0  0  0  0  0  0  0
  140.1360   77.5780  220.6220 C   0  0  0  0  0  0  0  0  0  0  0  0
  141.1670   77.6500  219.6830 C   0  0  0  0  0  0  0  0  0  0  0  0
  142.1900   78.3970  220.1570 N   0  0  0  0  0  0  0  0  0  0  0  0
  141.8200   78.7950  221.3860 C   0  0  0  0  0  0  0  0  0  0  0  0
  142.5510   79.5910  222.2670 C   0  0  0  0  0  0  0  0  0  0  0  0
  141.9720   79.8940  223.5130 C   0  0  0  0  0  0  0  0  0  0  0  0
  140.6910   79.4000  223.8460 C   0  0  0  0  0  0  0  0  0  0  0  0
  139.9760   78.5990  222.9360 C   0  0  0  0  0  0  0  0  0  0  0  0
  140.5760   78.3150  221.7060 C   0  0  0  0  0  0  0  0  0  0  0  0
  140.5091   73.4505  219.5833 H   0  0  0  0  0  0  0  0  0  0  0  0
  141.0110   75.1840  219.3859 H   0  0  0  0  0  0  0  0  0  0  0  0
  142.0500   71.8144  220.5814 H   0  0  0  0  0  0  0  0  0  0  0  0
  144.4391   71.1967  220.9506 H   0  0  0  0  0  0  0  0  0  0  0  0
  146.2193   72.9416  220.8172 H   0  0  0  0  0  0  0  0  0  0  0  0
  145.6129   75.3079  220.3004 H   0  0  0  0  0  0  0  0  0  0  0  0
  143.2276   75.9359  219.9288 H   0  0  0  0  0  0  0  0  0  0  0  0
  137.2475   75.0940  222.7317 H   0  0  0  0  0  0  0  0  0  0  0  0
  138.6191   75.9834  223.3881 H   0  0  0  0  0  0  0  0  0  0  0  0
  135.9093   77.3679  223.8848 H   0  0  0  0  0  0  0  0  0  0  0  0
  134.9598   79.5297  223.0161 H   0  0  0  0  0  0  0  0  0  0  0  0
  135.8110   80.4969  220.8669 H   0  0  0  0  0  0  0  0  0  0  0  0
  137.6192   79.3089  219.5819 H   0  0  0  0  0  0  0  0  0  0  0  0
  138.7464   76.6031  219.4108 H   0  0  0  0  0  0  0  0  0  0  0  0
  141.1496   77.1664  218.6952 H   0  0  0  0  0  0  0  0  0  0  0  0
  143.0830   78.6170  219.6640 H   0  0  0  0  0  0  0  0  0  0  0  0
  143.5478   79.9697  221.9967 H   0  0  0  0  0  0  0  0  0  0  0  0
  142.5204   80.5196  224.2326 H   0  0  0  0  0  0  0  0  0  0  0  0
  140.2492   79.6432  224.8236 H   0  0  0  0  0  0  0  0  0  0  0  0
  138.9778   78.2093  223.1846 H   0  0  0  0  0  0  0  0  0  0  0  0
  1  2  2  0
  2  3  2  0
  2  4  1  0
  4  5  1  0
  5  6  2  0
  6  7  1  0
  7  8  2  0
  8  9  1  0
  9 10  2  0
  2 11  1  0
 11 12  1  0
 12 13  1  0
 13 14  2  0
 14 15  1  0
 15 16  2  0
 16 17  1  0
 17 18  2  0
 18 19  1  0
 19 20  1  0
 20 21  2  0
 21 22  1  0
 22 23  1  0
 23 24  2  0
 24 25  1  0
 25 26  2  0
 26 27  1  0
 27 28  2  0
 10  5  1  0
 19 11  1  0
 28 20  1  0
 18 13  1  0
 28 23  1  0
  4 29  1  0
  4 30  1  0
  6 31  1  0
  7 32  1  0
  8 33  1  0
  9 34  1  0
 10 35  1  0
 12 36  1  0
 12 37  1  0
 14 38  1  0
 15 39  1  0
 16 40  1  0
 17 41  1  0
 19 42  1  6
 21 43  1  0
 22 44  1  0
 24 45  1  0
 25 46  1  0
 26 47  1  0
 27 48  1  0
M  END
>  <UniqueID>  (48) 
7

>  <SMILES>  (48) 
O=S(=O)(Cc1ccccc1)N1Cc2ccccc2[C@H]1c1c[nH]c2ccccc12

>  <Energy>  (48) 
98.05596573207966

>  <Genealogy>  (48) 
O=S(=O)(Cc1ccccc1)N1Cc2ccccc2[C@H]1c1c[nH]c2ccccc12 (chirality)
O=S(=O)(Cc1ccccc1)N1Cc2ccccc2[C@H]1c1c[nH]c2ccccc12 (3D coordinates assigned)
O=S(=O)(Cc1ccccc1)N1Cc2ccccc2[C@H]1c1c[nH]c2ccccc12 (nonaromatic ring conformer: 98.05596573207966 kcal/mol)

>  <smiles>  (48) 
O=S(=O)(Cc1ccccc1)N1Cc2ccccc2C1c1c[nH]c2ccccc12

>  <score_type>  (48) 
oracle

>  <origin>  (48) 
autodockgpu

>  <m_score__min__energy>  (48) 
-7.29

>  <m_primary>  (48) 
energy

>  <meeko>  (48) 
{"free_energy": -7.29, "intermolecular_energy": -8.48, "internal_energy": -1.97, "cluster_size": 14, "cluster_id": 1, "rank_in_cluster": 1}

>  <energy>  (48) 
-7.27

>  <cluster_rmsd>  (48) 
0.04

>  <rmsd>  (48) 
271.34

>  <cluster>  (48) 
1

$$$$
WCZRIPJXOMUAPT-QHCPKHFHNA-N
     RDKit          3D

 48 52  0  0  0  0  0  0  0  0999 V2000
  138.8010   77.6640  219.4200 O   0  0  0  0  0  0  0  0  0  0  0  0
  140.2020   77.2770  219.0340 S   0  0  0  0  0  0  0  0  0  0  0  0
  140.4510   77.7020  217.6130 O   0  0  0  0  0  0  0  0  0  0  0  0
  140.3100   75.4940  219.1550 C   0  0  0  0  0  0  0  0  0  0  0  0
  141.6680   75.0400  219.6160 C   0  0  0  0  0  0  0  0  0  0  0  0
  141.8030   73.8780  220.3960 C   0  0  0  0  0  0  0  0  0  0  0  0
  143.0650   73.4660  220.8330 C   0  0  0  0  0  0  0  0  0  0  0  0
  144.2010   74.2040  220.4900 C   0  0  0  0  0  0  0  0  0  0  0  0
  144.0770   75.3530  219.7050 C   0  0  0  0  0  0  0  0  0  0  0  0
  142.8180   75.7690  219.2650 C   0  0  0  0  0  0  0  0  0  0  0  0
  141.3410   78.0470  220.1220 N   0  0  0  0  0  0  0  0  0  0  0  0
  141.2230   79.5190  220.1570 C   0  0  0  0  0  0  0  0  0  0  0  0
  141.6150   79.8900  221.5340 C   0  0  0  0  0  0  0  0  0  0  0  0
  141.8530   81.1650  222.0500 C   0  0  0  0  0  0  0  0  0  0  0  0
  142.2080   81.2820  223.4040 C   0  0  0  0  0  0  0  0  0  0  0  0
  142.3120   80.1320  224.2110 C   0  0  0  0  0  0  0  0  0  0  0  0
  142.0580   78.8630  223.6670 C   0  0  0  0  0  0  0  0  0  0  0  0
  141.7150   78.7750  222.3150 C   0  0  0  0  0  0  0  0  0  0  0  0
  141.3470   77.5680  221.5320 C   0  0  1  0  0  0  0  0  0  0  0  0
  140.0130   77.0460  222.0300 C   0  0  0  0  0  0  0  0  0  0  0  0
  139.6710   75.7160  222.2850 C   0  0  0  0  0  0  0  0  0  0  0  0
  138.3910   75.6290  222.7120 N   0  0  0  0  0  0  0  0  0  0  0  0
  137.9180   76.8870  222.7260 C   0  0  0  0  0  0  0  0  0  0  0  0
  136.6400   77.3000  223.0990 C   0  0  0  0  0  0  0  0  0  0  0  0
  136.3530   78.6770  223.0430 C   0  0  0  0  0  0  0  0  0  0  0  0
  137.3370   79.5970  222.6200 C   0  0  0  0  0  0  0  0  0  0  0  0
  138.6190   79.1500  222.2490 C   0  0  0  0  0  0  0  0  0  0  0  0
  138.8760   77.7790  222.3150 C   0  0  0  0  0  0  0  0  0  0  0  0
  139.5552   75.1407  219.8729 H   0  0  0  0  0  0  0  0  0  0  0  0
  140.1345   75.0750  218.1532 H   0  0  0  0  0  0  0  0  0  0  0  0
  140.9120   73.2909  220.6633 H   0  0  0  0  0  0  0  0  0  0  0  0
  143.1642   72.5593  221.4479 H   0  0  0  0  0  0  0  0  0  0  0  0
  145.1930   73.8802  220.8381 H   0  0  0  0  0  0  0  0  0  0  0  0
  144.9723   75.9312  219.4329 H   0  0  0  0  0  0  0  0  0  0  0  0
  142.7260   76.6705  218.6414 H   0  0  0  0  0  0  0  0  0  0  0  0
  141.8994   79.9807  219.4226 H   0  0  0  0  0  0  0  0  0  0  0  0
  140.2094   79.8632  219.9039 H   0  0  0  0  0  0  0  0  0  0  0  0
  141.7647   82.0565  221.4117 H   0  0  0  0  0  0  0  0  0  0  0  0
  142.4053   82.2744  223.8354 H   0  0  0  0  0  0  0  0  0  0  0  0
  142.5930   80.2286  225.2701 H   0  0  0  0  0  0  0  0  0  0  0  0
  142.1273   77.9592  224.2902 H   0  0  0  0  0  0  0  0  0  0  0  0
  142.0338   76.7144  221.6305 H   0  0  0  0  0  0  0  0  0  0  0  0
  140.3484   74.8589  222.1564 H   0  0  0  0  0  0  0  0  0  0  0  0
  137.8790   74.7580  222.9760 H   0  0  0  0  0  0  0  0  0  0  0  0
  135.8810   76.5741  223.4262 H   0  0  0  0  0  0  0  0  0  0  0  0
  135.3549   79.0389  223.3309 H   0  0  0  0  0  0  0  0  0  0  0  0
  137.1001   80.6704  222.5801 H   0  0  0  0  0  0  0  0  0  0  0  0
  139.3933   79.8576  221.9178 H   0  0  0  0  0  0  0  0  0  0  0  0
  1  2  2  0
  2  3  2  0
  2  4  1  0
  4  5  1  0
  5  6  2  0
  6  7  1  0
  7  8  2  0
  8  9  1  0
  9 10  2  0
  2 11  1  0
 11 12  1  0
 12 13  1  0
 13 14  2  0
 14 15  1  0
 15 16  2  0
 16 17  1  0
 17 18  2  0
 18 19  1  0
 19 20  1  0
 20 21  2  0
 21 22  1  0
 22 23  1  0
 23 24  2  0
 24 25  1  0
 25 26  2  0
 26 27  1  0
 27 28  2  0
 10  5  1  0
 19 11  1  0
 28 20  1  0
 18 13  1  0
 28 23  1  0
  4 29  1  0
  4 30  1  0
  6 31  1  0
  7 32  1  0
  8 33  1  0
  9 34  1  0
 10 35  1  0
 12 36  1  0
 12 37  1  0
 14 38  1  0
 15 39  1  0
 16 40  1  0
 17 41  1  0
 19 42  1  6
 21 43  1  0
 22 44  1  0
 24 45  1  0
 25 46  1  0
 26 47  1  0
 27 48  1  0
M  END
>  <UniqueID>  (49) 
7

>  <SMILES>  (49) 
O=S(=O)(Cc1ccccc1)N1Cc2ccccc2[C@H]1c1c[nH]c2ccccc12

>  <Energy>  (49) 
98.05596573207966

>  <Genealogy>  (49) 
O=S(=O)(Cc1ccccc1)N1Cc2ccccc2[C@H]1c1c[nH]c2ccccc12 (chirality)
O=S(=O)(Cc1ccccc1)N1Cc2ccccc2[C@H]1c1c[nH]c2ccccc12 (3D coordinates assigned)
O=S(=O)(Cc1ccccc1)N1Cc2ccccc2[C@H]1c1c[nH]c2ccccc12 (nonaromatic ring conformer: 98.05596573207966 kcal/mol)

>  <smiles>  (49) 
O=S(=O)(Cc1ccccc1)N1Cc2ccccc2C1c1c[nH]c2ccccc12

>  <score_type>  (49) 
oracle

>  <origin>  (49) 
autodockgpu

>  <m_score__min__energy>  (49) 
-7.29

>  <m_primary>  (49) 
energy

>  <meeko>  (49) 
{"free_energy": -6.92, "intermolecular_energy": -8.11, "internal_energy": -2.14, "cluster_size": 3, "cluster_id": 2, "rank_in_cluster": 1}

>  <energy>  (49) 
-7.27

>  <cluster_rmsd>  (49) 
0.03

>  <rmsd>  (49) 
271.33

>  <cluster>  (49) 
1

$$$$
WCZRIPJXOMUAPT-QHCPKHFHNA-N
     RDKit          3D

 48 52  0  0  0  0  0  0  0  0999 V2000
  141.1600   75.5250  222.3400 O   0  0  0  0  0  0  0  0  0  0  0  0
  140.2100   74.6270  221.5990 S   0  0  0  0  0  0  0  0  0  0  0  0
  139.9620   73.3940  222.4230 O   0  0  0  0  0  0  0  0  0  0  0  0
  141.0040   74.1710  220.0610 C   0  0  0  0  0  0  0  0  0  0  0  0
  142.4650   73.8630  220.2490 C   0  0  0  0  0  0  0  0  0  0  0  0
  143.4170   74.8970  220.2430 C   0  0  0  0  0  0  0  0  0  0  0  0
  144.7740   74.6070  220.4060 C   0  0  0  0  0  0  0  0  0  0  0  0
  145.1920   73.2850  220.5840 C   0  0  0  0  0  0  0  0  0  0  0  0
  144.2510   72.2520  220.6040 C   0  0  0  0  0  0  0  0  0  0  0  0
  142.8930   72.5380  220.4410 C   0  0  0  0  0  0  0  0  0  0  0  0
  138.7100   75.4840  221.2980 N   0  0  0  0  0  0  0  0  0  0  0  0
  137.9490   75.7940  222.5240 C   0  0  0  0  0  0  0  0  0  0  0  0
  137.2470   77.0590  222.2160 C   0  0  0  0  0  0  0  0  0  0  0  0
  136.2530   77.6980  222.9590 C   0  0  0  0  0  0  0  0  0  0  0  0
  135.7290   78.9080  222.4730 C   0  0  0  0  0  0  0  0  0  0  0  0
  136.2110   79.4550  221.2670 C   0  0  0  0  0  0  0  0  0  0  0  0
  137.2180   78.7940  220.5460 C   0  0  0  0  0  0  0  0  0  0  0  0
  137.7140   77.5880  221.0470 C   0  0  0  0  0  0  0  0  0  0  0  0
  138.8070   76.7410  220.5050 C   0  0  1  0  0  0  0  0  0  0  0  0
  140.1220   77.4820  220.6480 C   0  0  0  0  0  0  0  0  0  0  0  0
  141.1660   77.5330  219.7230 C   0  0  0  0  0  0  0  0  0  0  0  0
  142.1840   78.2870  220.1970 N   0  0  0  0  0  0  0  0  0  0  0  0
  141.7980   78.7090  221.4120 C   0  0  0  0  0  0  0  0  0  0  0  0
  142.5180   79.5200  222.2880 C   0  0  0  0  0  0  0  0  0  0  0  0
  141.9220   79.8480  223.5200 C   0  0  0  0  0  0  0  0  0  0  0  0
  140.6360   79.3640  223.8440 C   0  0  0  0  0  0  0  0  0  0  0  0
  139.9320   78.5480  222.9390 C   0  0  0  0  0  0  0  0  0  0  0  0
  140.5480   78.2390  221.7240 C   0  0  0  0  0  0  0  0  0  0  0  0
  140.5031   73.2805  219.6534 H   0  0  0  0  0  0  0  0  0  0  0  0
  140.9232   75.0243  219.3715 H   0  0  0  0  0  0  0  0  0  0  0  0
  143.0922   75.9394  220.1093 H   0  0  0  0  0  0  0  0  0  0  0  0
  145.5146   75.4202  220.3943 H   0  0  0  0  0  0  0  0  0  0  0  0
  146.2611   73.0579  220.7083 H   0  0  0  0  0  0  0  0  0  0  0  0
  144.5798   71.2123  220.7483 H   0  0  0  0  0  0  0  0  0  0  0  0
  142.1554   71.7223  220.4630 H   0  0  0  0  0  0  0  0  0  0  0  0
  137.2279   74.9937  222.7465 H   0  0  0  0  0  0  0  0  0  0  0  0
  138.5982   75.8810  223.4078 H   0  0  0  0  0  0  0  0  0  0  0  0
  135.8886   77.2649  223.9022 H   0  0  0  0  0  0  0  0  0  0  0  0
  134.9405   79.4295  223.0354 H   0  0  0  0  0  0  0  0  0  0  0  0
  135.7973   80.4019  220.8898 H   0  0  0  0  0  0  0  0  0  0  0  0
  137.6076   79.2161  219.6079 H   0  0  0  0  0  0  0  0  0  0  0  0
  138.7353   76.5083  219.4323 H   0  0  0  0  0  0  0  0  0  0  0  0
  141.1615   77.0300  218.7447 H   0  0  0  0  0  0  0  0  0  0  0  0
  143.0850   78.4940  219.7120 H   0  0  0  0  0  0  0  0  0  0  0  0
  143.5194   79.8915  222.0248 H   0  0  0  0  0  0  0  0  0  0  0  0
  142.4618   80.4858  224.2354 H   0  0  0  0  0  0  0  0  0  0  0  0
  140.1811   79.6265  224.8105 H   0  0  0  0  0  0  0  0  0  0  0  0
  138.9292   78.1659  223.1806 H   0  0  0  0  0  0  0  0  0  0  0  0
  1  2  2  0
  2  3  2  0
  2  4  1  0
  4  5  1  0
  5  6  2  0
  6  7  1  0
  7  8  2  0
  8  9  1  0
  9 10  2  0
  2 11  1  0
 11 12  1  0
 12 13  1  0
 13 14  2  0
 14 15  1  0
 15 16  2  0
 16 17  1  0
 17 18  2  0
 18 19  1  0
 19 20  1  0
 20 21  2  0
 21 22  1  0
 22 23  1  0
 23 24  2  0
 24 25  1  0
 25 26  2  0
 26 27  1  0
 27 28  2  0
 10  5  1  0
 19 11  1  0
 28 20  1  0
 18 13  1  0
 28 23  1  0
  4 29  1  0
  4 30  1  0
  6 31  1  0
  7 32  1  0
  8 33  1  0
  9 34  1  0
 10 35  1  0
 12 36  1  0
 12 37  1  0
 14 38  1  0
 15 39  1  0
 16 40  1  0
 17 41  1  0
 19 42  1  6
 21 43  1  0
 22 44  1  0
 24 45  1  0
 25 46  1  0
 26 47  1  0
 27 48  1  0
M  END
>  <UniqueID>  (50) 
7

>  <SMILES>  (50) 
O=S(=O)(Cc1ccccc1)N1Cc2ccccc2[C@H]1c1c[nH]c2ccccc12

>  <Energy>  (50) 
98.05596573207966

>  <Genealogy>  (50) 
O=S(=O)(Cc1ccccc1)N1Cc2ccccc2[C@H]1c1c[nH]c2ccccc12 (chirality)
O=S(=O)(Cc1ccccc1)N1Cc2ccccc2[C@H]1c1c[nH]c2ccccc12 (3D coordinates assigned)
O=S(=O)(Cc1ccccc1)N1Cc2ccccc2[C@H]1c1c[nH]c2ccccc12 (nonaromatic ring conformer: 98.05596573207966 kcal/mol)

>  <smiles>  (50) 
O=S(=O)(Cc1ccccc1)N1Cc2ccccc2C1c1c[nH]c2ccccc12

>  <score_type>  (50) 
oracle

>  <origin>  (50) 
autodockgpu

>  <m_score__min__energy>  (50) 
-7.29

>  <m_primary>  (50) 
energy

>  <meeko>  (50) 
{"free_energy": -7.26, "intermolecular_energy": -8.46, "internal_energy": -1.96, "cluster_size": 14, "cluster_id": 1, "rank_in_cluster": 12}

>  <energy>  (50) 
-7.27

>  <cluster_rmsd>  (50) 
0.03

>  <rmsd>  (50) 
271.33

>  <cluster>  (50) 
1

$$$$
WCZRIPJXOMUAPT-QHCPKHFHNA-N
     RDKit          3D

 48 52  0  0  0  0  0  0  0  0999 V2000
  141.1580   75.6140  222.3410 O   0  0  0  0  0  0  0  0  0  0  0  0
  140.2170   74.7350  221.5670 S   0  0  0  0  0  0  0  0  0  0  0  0
  139.9620   73.4800  222.3560 O   0  0  0  0  0  0  0  0  0  0  0  0
  141.0290   74.3190  220.0260 C   0  0  0  0  0  0  0  0  0  0  0  0
  142.4670   73.9290  220.2320 C   0  0  0  0  0  0  0  0  0  0  0  0
  143.4850   74.8970  220.1600 C   0  0  0  0  0  0  0  0  0  0  0  0
  144.8210   74.5290  220.3400 C   0  0  0  0  0  0  0  0  0  0  0  0
  145.1520   73.1970  220.6010 C   0  0  0  0  0  0  0  0  0  0  0  0
  144.1470   72.2310  220.6860 C   0  0  0  0  0  0  0  0  0  0  0  0
  142.8090   72.5940  220.5070 C   0  0  0  0  0  0  0  0  0  0  0  0
  138.7200   75.5980  221.2720 N   0  0  0  0  0  0  0  0  0  0  0  0
  137.9670   75.9150  222.5020 C   0  0  0  0  0  0  0  0  0  0  0  0
  137.2700   77.1820  222.1950 C   0  0  0  0  0  0  0  0  0  0  0  0
  136.2830   77.8280  222.9410 C   0  0  0  0  0  0  0  0  0  0  0  0
  135.7620   79.0390  222.4560 C   0  0  0  0  0  0  0  0  0  0  0  0
  136.2390   79.5800  221.2450 C   0  0  0  0  0  0  0  0  0  0  0  0
  137.2390   78.9120  220.5200 C   0  0  0  0  0  0  0  0  0  0  0  0
  137.7320   77.7050  221.0210 C   0  0  0  0  0  0  0  0  0  0  0  0
  138.8180   76.8520  220.4750 C   0  0  1  0  0  0  0  0  0  0  0  0
  140.1370   77.5870  220.6090 C   0  0  0  0  0  0  0  0  0  0  0  0
  141.1620   77.6590  219.6630 C   0  0  0  0  0  0  0  0  0  0  0  0
  142.1910   78.3990  220.1340 N   0  0  0  0  0  0  0  0  0  0  0  0
  141.8310   78.7940  221.3670 C   0  0  0  0  0  0  0  0  0  0  0  0
  142.5710   79.5820  222.2470 C   0  0  0  0  0  0  0  0  0  0  0  0
  142.0020   79.8810  223.4980 C   0  0  0  0  0  0  0  0  0  0  0  0
  140.7210   79.3920  223.8370 C   0  0  0  0  0  0  0  0  0  0  0  0
  139.9970   78.5990  222.9280 C   0  0  0  0  0  0  0  0  0  0  0  0
  140.5870   78.3170  221.6940 C   0  0  0  0  0  0  0  0  0  0  0  0
  140.4962   73.4768  219.5603 H   0  0  0  0  0  0  0  0  0  0  0  0
  141.0085   75.2097  219.3809 H   0  0  0  0  0  0  0  0  0  0  0  0
  143.2284   75.9480  219.9612 H   0  0  0  0  0  0  0  0  0  0  0  0
  145.6134   75.2893  220.2761 H   0  0  0  0  0  0  0  0  0  0  0  0
  146.2045   72.9090  220.7396 H   0  0  0  0  0  0  0  0  0  0  0  0
  144.4087   71.1830  220.8941 H   0  0  0  0  0  0  0  0  0  0  0  0
  142.0201   71.8311  220.5818 H   0  0  0  0  0  0  0  0  0  0  0  0
  137.2432   75.1188  222.7305 H   0  0  0  0  0  0  0  0  0  0  0  0
  138.6215   76.0010  223.3819 H   0  0  0  0  0  0  0  0  0  0  0  0
  135.9214   77.3987  223.8870 H   0  0  0  0  0  0  0  0  0  0  0  0
  134.9802   79.5662  223.0224 H   0  0  0  0  0  0  0  0  0  0  0  0
  135.8271   80.5274  220.8671 H   0  0  0  0  0  0  0  0  0  0  0  0
  137.6254   79.3299  219.5787 H   0  0  0  0  0  0  0  0  0  0  0  0
  138.7391   76.6172  219.4033 H   0  0  0  0  0  0  0  0  0  0  0  0
  141.1358   77.1804  218.6729 H   0  0  0  0  0  0  0  0  0  0  0  0
  143.0830   78.6170  219.6360 H   0  0  0  0  0  0  0  0  0  0  0  0
  143.5676   79.9578  221.9720 H   0  0  0  0  0  0  0  0  0  0  0  0
  142.5584   80.4999  224.2173 H   0  0  0  0  0  0  0  0  0  0  0  0
  140.2865   79.6328  224.8184 H   0  0  0  0  0  0  0  0  0  0  0  0
  138.9983   78.2135  223.1811 H   0  0  0  0  0  0  0  0  0  0  0  0
  1  2  2  0
  2  3  2  0
  2  4  1  0
  4  5  1  0
  5  6  2  0
  6  7  1  0
  7  8  2  0
  8  9  1  0
  9 10  2  0
  2 11  1  0
 11 12  1  0
 12 13  1  0
 13 14  2  0
 14 15  1  0
 15 16  2  0
 16 17  1  0
 17 18  2  0
 18 19  1  0
 19 20  1  0
 20 21  2  0
 21 22  1  0
 22 23  1  0
 23 24  2  0
 24 25  1  0
 25 26  2  0
 26 27  1  0
 27 28  2  0
 10  5  1  0
 19 11  1  0
 28 20  1  0
 18 13  1  0
 28 23  1  0
  4 29  1  0
  4 30  1  0
  6 31  1  0
  7 32  1  0
  8 33  1  0
  9 34  1  0
 10 35  1  0
 12 36  1  0
 12 37  1  0
 14 38  1  0
 15 39  1  0
 16 40  1  0
 17 41  1  0
 19 42  1  6
 21 43  1  0
 22 44  1  0
 24 45  1  0
 25 46  1  0
 26 47  1  0
 27 48  1  0
M  END
>  <UniqueID>  (51) 
7

>  <SMILES>  (51) 
O=S(=O)(Cc1ccccc1)N1Cc2ccccc2[C@H]1c1c[nH]c2ccccc12

>  <Energy>  (51) 
98.05596573207966

>  <Genealogy>  (51) 
O=S(=O)(Cc1ccccc1)N1Cc2ccccc2[C@H]1c1c[nH]c2ccccc12 (chirality)
O=S(=O)(Cc1ccccc1)N1Cc2ccccc2[C@H]1c1c[nH]c2ccccc12 (3D coordinates assigned)
O=S(=O)(Cc1ccccc1)N1Cc2ccccc2[C@H]1c1c[nH]c2ccccc12 (nonaromatic ring conformer: 98.05596573207966 kcal/mol)

>  <smiles>  (51) 
O=S(=O)(Cc1ccccc1)N1Cc2ccccc2C1c1c[nH]c2ccccc12

>  <score_type>  (51) 
oracle

>  <origin>  (51) 
autodockgpu

>  <m_score__min__energy>  (51) 
-7.29

>  <m_primary>  (51) 
energy

>  <meeko>  (51) 
{"free_energy": -7.27, "intermolecular_energy": -8.46, "internal_energy": -1.97, "cluster_size": 14, "cluster_id": 1, "rank_in_cluster": 10}

>  <energy>  (51) 
-7.27

>  <cluster_rmsd>  (51) 
0.04

>  <rmsd>  (51) 
271.35

>  <cluster>  (51) 
1

$$$$
WCZRIPJXOMUAPT-QHCPKHFHNA-N
     RDKit          3D

 48 52  0  0  0  0  0  0  0  0999 V2000
  139.7380   74.5980  222.3400 O   0  0  0  0  0  0  0  0  0  0  0  0
  139.3410   75.8720  221.6480 S   0  0  0  0  0  0  0  0  0  0  0  0
  137.8630   75.8380  221.3760 O   0  0  0  0  0  0  0  0  0  0  0  0
  140.2350   75.9330  220.0980 C   0  0  0  0  0  0  0  0  0  0  0  0
  141.6180   75.3530  220.2210 C   0  0  0  0  0  0  0  0  0  0  0  0
  141.7960   74.0110  220.5990 C   0  0  0  0  0  0  0  0  0  0  0  0
  143.0830   73.4790  220.7240 C   0  0  0  0  0  0  0  0  0  0  0  0
  144.2000   74.2780  220.4660 C   0  0  0  0  0  0  0  0  0  0  0  0
  144.0320   75.6090  220.0770 C   0  0  0  0  0  0  0  0  0  0  0  0
  142.7480   76.1460  219.9510 C   0  0  0  0  0  0  0  0  0  0  0  0
  139.7550   77.2410  222.6630 N   0  0  0  0  0  0  0  0  0  0  0  0
  141.2040   77.3760  222.9130 C   0  0  0  0  0  0  0  0  0  0  0  0
  141.4220   78.8310  223.0570 C   0  0  0  0  0  0  0  0  0  0  0  0
  142.5740   79.4950  223.4820 C   0  0  0  0  0  0  0  0  0  0  0  0
  142.5580   80.8980  223.5340 C   0  0  0  0  0  0  0  0  0  0  0  0
  141.3990   81.6070  223.1580 C   0  0  0  0  0  0  0  0  0  0  0  0
  140.2570   80.9140  222.7260 C   0  0  0  0  0  0  0  0  0  0  0  0
  140.2990   79.5180  222.6920 C   0  0  0  0  0  0  0  0  0  0  0  0
  139.2530   78.5730  222.2240 C   0  0  1  0  0  0  0  0  0  0  0  0
  139.0870   78.7250  220.7240 C   0  0  0  0  0  0  0  0  0  0  0  0
  137.9060   78.6010  219.9900 C   0  0  0  0  0  0  0  0  0  0  0  0
  138.1430   78.7980  218.6730 N   0  0  0  0  0  0  0  0  0  0  0  0
  139.4600   79.0420  218.5660 C   0  0  0  0  0  0  0  0  0  0  0  0
  140.1730   79.3070  217.3970 C   0  0  0  0  0  0  0  0  0  0  0  0
  141.5560   79.5390  217.5100 C   0  0  0  0  0  0  0  0  0  0  0  0
  142.1870   79.5010  218.7730 C   0  0  0  0  0  0  0  0  0  0  0  0
  141.4420   79.2300  219.9350 C   0  0  0  0  0  0  0  0  0  0  0  0
  140.0710   79.0040  219.7930 C   0  0  0  0  0  0  0  0  0  0  0  0
  139.6759   75.3608  219.3430 H   0  0  0  0  0  0  0  0  0  0  0  0
  140.3344   76.9885  219.8047 H   0  0  0  0  0  0  0  0  0  0  0  0
  140.9194   73.3768  220.7973 H   0  0  0  0  0  0  0  0  0  0  0  0
  143.2164   72.4297  221.0259 H   0  0  0  0  0  0  0  0  0  0  0  0
  145.2117   73.8588  220.5693 H   0  0  0  0  0  0  0  0  0  0  0  0
  144.9120   76.2356  219.8695 H   0  0  0  0  0  0  0  0  0  0  0  0
  142.6204   77.1932  219.6394 H   0  0  0  0  0  0  0  0  0  0  0  0
  141.4904   76.8471  223.8340 H   0  0  0  0  0  0  0  0  0  0  0  0
  141.8098   76.9408  222.1045 H   0  0  0  0  0  0  0  0  0  0  0  0
  143.4740   78.9318  223.7697 H   0  0  0  0  0  0  0  0  0  0  0  0
  143.4517   81.4451  223.8688 H   0  0  0  0  0  0  0  0  0  0  0  0
  141.3894   82.7060  223.2032 H   0  0  0  0  0  0  0  0  0  0  0  0
  139.3504   81.4575  222.4214 H   0  0  0  0  0  0  0  0  0  0  0  0
  138.2464   78.7434  222.6336 H   0  0  0  0  0  0  0  0  0  0  0  0
  136.9202   78.3747  220.4224 H   0  0  0  0  0  0  0  0  0  0  0  0
  137.4410   78.7660  217.9010 H   0  0  0  0  0  0  0  0  0  0  0  0
  139.6705   79.3337  216.4188 H   0  0  0  0  0  0  0  0  0  0  0  0
  142.1498   79.7514  216.6087 H   0  0  0  0  0  0  0  0  0  0  0  0
  143.2689   79.6847  218.8485 H   0  0  0  0  0  0  0  0  0  0  0  0
  141.9235   79.1971  220.9235 H   0  0  0  0  0  0  0  0  0  0  0  0
  1  2  2  0
  2  3  2  0
  2  4  1  0
  4  5  1  0
  5  6  2  0
  6  7  1  0
  7  8  2  0
  8  9  1  0
  9 10  2  0
  2 11  1  0
 11 12  1  0
 12 13  1  0
 13 14  2  0
 14 15  1  0
 15 16  2  0
 16 17  1  0
 17 18  2  0
 18 19  1  0
 19 20  1  0
 20 21  2  0
 21 22  1  0
 22 23  1  0
 23 24  2  0
 24 25  1  0
 25 26  2  0
 26 27  1  0
 27 28  2  0
 10  5  1  0
 19 11  1  0
 28 20  1  0
 18 13  1  0
 28 23  1  0
  4 29  1  0
  4 30  1  0
  6 31  1  0
  7 32  1  0
  8 33  1  0
  9 34  1  0
 10 35  1  0
 12 36  1  0
 12 37  1  0
 14 38  1  0
 15 39  1  0
 16 40  1  0
 17 41  1  0
 19 42  1  1
 21 43  1  0
 22 44  1  0
 24 45  1  0
 25 46  1  0
 26 47  1  0
 27 48  1  0
M  END
>  <UniqueID>  (52) 
7

>  <SMILES>  (52) 
O=S(=O)(Cc1ccccc1)N1Cc2ccccc2[C@H]1c1c[nH]c2ccccc12

>  <Energy>  (52) 
98.05596573207966

>  <Genealogy>  (52) 
O=S(=O)(Cc1ccccc1)N1Cc2ccccc2[C@H]1c1c[nH]c2ccccc12 (chirality)
O=S(=O)(Cc1ccccc1)N1Cc2ccccc2[C@H]1c1c[nH]c2ccccc12 (3D coordinates assigned)
O=S(=O)(Cc1ccccc1)N1Cc2ccccc2[C@H]1c1c[nH]c2ccccc12 (nonaromatic ring conformer: 98.05596573207966 kcal/mol)

>  <smiles>  (52) 
O=S(=O)(Cc1ccccc1)N1Cc2ccccc2C1c1c[nH]c2ccccc12

>  <score_type>  (52) 
oracle

>  <origin>  (52) 
autodockgpu

>  <m_score__min__energy>  (52) 
-7.29

>  <m_primary>  (52) 
energy

>  <meeko>  (52) 
{"free_energy": -6.75, "intermolecular_energy": -7.94, "internal_energy": -2.22, "cluster_size": 2, "cluster_id": 3, "rank_in_cluster": 1}

>  <energy>  (52) 
-7.26

>  <cluster_rmsd>  (52) 
0.1

>  <rmsd>  (52) 
271.32

>  <cluster>  (52) 
1

$$$$
WCZRIPJXOMUAPT-QHCPKHFHNA-N
     RDKit          3D

 48 52  0  0  0  0  0  0  0  0999 V2000
  139.1460   75.0240  221.7970 O   0  0  0  0  0  0  0  0  0  0  0  0
  140.1600   76.1300  221.7220 S   0  0  0  0  0  0  0  0  0  0  0  0
  141.4510   75.6490  222.3260 O   0  0  0  0  0  0  0  0  0  0  0  0
  139.5220   77.4980  222.6840 C   0  0  0  0  0  0  0  0  0  0  0  0
  140.4840   78.6550  222.7290 C   0  0  0  0  0  0  0  0  0  0  0  0
  141.6820   78.5560  223.4570 C   0  0  0  0  0  0  0  0  0  0  0  0
  142.5680   79.6360  223.5060 C   0  0  0  0  0  0  0  0  0  0  0  0
  142.2690   80.8190  222.8250 C   0  0  0  0  0  0  0  0  0  0  0  0
  141.0860   80.9210  222.0880 C   0  0  0  0  0  0  0  0  0  0  0  0
  140.1980   79.8440  222.0360 C   0  0  0  0  0  0  0  0  0  0  0  0
  140.3940   76.5970  220.0490 N   0  0  0  0  0  0  0  0  0  0  0  0
  141.4840   77.5730  219.8540 C   0  0  0  0  0  0  0  0  0  0  0  0
  142.0220   77.2660  218.5110 C   0  0  0  0  0  0  0  0  0  0  0  0
  142.9420   78.0000  217.7600 C   0  0  0  0  0  0  0  0  0  0  0  0
  143.3200   77.5080  216.4990 C   0  0  0  0  0  0  0  0  0  0  0  0
  142.7800   76.2980  216.0200 C   0  0  0  0  0  0  0  0  0  0  0  0
  141.8630   75.5760  216.8020 C   0  0  0  0  0  0  0  0  0  0  0  0
  141.4990   76.0930  218.0470 C   0  0  0  0  0  0  0  0  0  0  0  0
  140.6040   75.4940  219.0700 C   0  0  1  0  0  0  0  0  0  0  0  0
  141.2690   74.2570  219.6430 C   0  0  0  0  0  0  0  0  0  0  0  0
  140.6680   73.0250  219.9100 C   0  0  0  0  0  0  0  0  0  0  0  0
  141.5710   72.1590  220.4220 N   0  0  0  0  0  0  0  0  0  0  0  0
  142.7340   72.8280  220.4850 C   0  0  0  0  0  0  0  0  0  0  0  0
  143.9580   72.3460  220.9460 C   0  0  0  0  0  0  0  0  0  0  0  0
  145.0600   73.2210  220.9230 C   0  0  0  0  0  0  0  0  0  0  0  0
  144.9140   74.5420  220.4460 C   0  0  0  0  0  0  0  0  0  0  0  0
  143.6660   75.0010  219.9870 C   0  0  0  0  0  0  0  0  0  0  0  0
  142.5900   74.1110  220.0210 C   0  0  0  0  0  0  0  0  0  0  0  0
  138.5780   77.8387  222.2337 H   0  0  0  0  0  0  0  0  0  0  0  0
  139.3677   77.1451  223.7144 H   0  0  0  0  0  0  0  0  0  0  0  0
  141.9235   77.6248  223.9904 H   0  0  0  0  0  0  0  0  0  0  0  0
  143.5019   79.5546  224.0814 H   0  0  0  0  0  0  0  0  0  0  0  0
  142.9647   81.6699  222.8690 H   0  0  0  0  0  0  0  0  0  0  0  0
  140.8538   81.8508  221.5480 H   0  0  0  0  0  0  0  0  0  0  0  0
  139.2707   79.9267  221.4501 H   0  0  0  0  0  0  0  0  0  0  0  0
  141.0958   78.6016  219.8913 H   0  0  0  0  0  0  0  0  0  0  0  0
  142.2525   77.5030  220.6379 H   0  0  0  0  0  0  0  0  0  0  0  0
  143.3610   78.9410  218.1461 H   0  0  0  0  0  0  0  0  0  0  0  0
  144.0393   78.0690  215.8844 H   0  0  0  0  0  0  0  0  0  0  0  0
  143.0771   75.9178  215.0315 H   0  0  0  0  0  0  0  0  0  0  0  0
  141.4417   74.6258  216.4420 H   0  0  0  0  0  0  0  0  0  0  0  0
  139.6321   75.1396  218.6961 H   0  0  0  0  0  0  0  0  0  0  0  0
  139.6083   72.7919  219.7291 H   0  0  0  0  0  0  0  0  0  0  0  0
  141.3940   71.1700  220.7090 H   0  0  0  0  0  0  0  0  0  0  0  0
  144.0593   71.3150  221.3158 H   0  0  0  0  0  0  0  0  0  0  0  0
  146.0412   72.8737  221.2788 H   0  0  0  0  0  0  0  0  0  0  0  0
  145.7824   75.2170  220.4332 H   0  0  0  0  0  0  0  0  0  0  0  0
  143.5415   76.0280  219.6132 H   0  0  0  0  0  0  0  0  0  0  0  0
  1  2  2  0
  2  3  2  0
  2  4  1  0
  4  5  1  0
  5  6  2  0
  6  7  1  0
  7  8  2  0
  8  9  1  0
  9 10  2  0
  2 11  1  0
 11 12  1  0
 12 13  1  0
 13 14  2  0
 14 15  1  0
 15 16  2  0
 16 17  1  0
 17 18  2  0
 18 19  1  0
 19 20  1  0
 20 21  2  0
 21 22  1  0
 22 23  1  0
 23 24  2  0
 24 25  1  0
 25 26  2  0
 26 27  1  0
 27 28  2  0
 10  5  1  0
 19 11  1  0
 28 20  1  0
 18 13  1  0
 28 23  1  0
  4 29  1  0
  4 30  1  0
  6 31  1  0
  7 32  1  0
  8 33  1  0
  9 34  1  0
 10 35  1  0
 12 36  1  0
 12 37  1  0
 14 38  1  0
 15 39  1  0
 16 40  1  0
 17 41  1  0
 19 42  1  6
 21 43  1  0
 22 44  1  0
 24 45  1  0
 25 46  1  0
 26 47  1  0
 27 48  1  0
M  END
>  <UniqueID>  (53) 
7

>  <SMILES>  (53) 
O=S(=O)(Cc1ccccc1)N1Cc2ccccc2[C@H]1c1c[nH]c2ccccc12

>  <Energy>  (53) 
98.05596573207966

>  <Genealogy>  (53) 
O=S(=O)(Cc1ccccc1)N1Cc2ccccc2[C@H]1c1c[nH]c2ccccc12 (chirality)
O=S(=O)(Cc1ccccc1)N1Cc2ccccc2[C@H]1c1c[nH]c2ccccc12 (3D coordinates assigned)
O=S(=O)(Cc1ccccc1)N1Cc2ccccc2[C@H]1c1c[nH]c2ccccc12 (nonaromatic ring conformer: 98.05596573207966 kcal/mol)

>  <smiles>  (53) 
O=S(=O)(Cc1ccccc1)N1Cc2ccccc2C1c1c[nH]c2ccccc12

>  <score_type>  (53) 
oracle

>  <origin>  (53) 
autodockgpu

>  <m_score__min__energy>  (53) 
-7.29

>  <m_primary>  (53) 
energy

>  <meeko>  (53) 
{"free_energy": -6.74, "intermolecular_energy": -7.93, "internal_energy": -2.1, "cluster_size": 1, "cluster_id": 4, "rank_in_cluster": 1}

>  <energy>  (53) 
-7.18

>  <cluster_rmsd>  (53) 
0.16

>  <rmsd>  (53) 
271.41

>  <cluster>  (53) 
1

$$$$
WCZRIPJXOMUAPT-QHCPKHFHNA-N
     RDKit          3D

 48 52  0  0  0  0  0  0  0  0999 V2000
  141.1570   75.6090  222.3490 O   0  0  0  0  0  0  0  0  0  0  0  0
  140.2110   74.7340  221.5760 S   0  0  0  0  0  0  0  0  0  0  0  0
  139.9590   73.4760  222.3610 O   0  0  0  0  0  0  0  0  0  0  0  0
  141.0130   74.3250  220.0290 C   0  0  0  0  0  0  0  0  0  0  0  0
  142.4510   73.9260  220.2260 C   0  0  0  0  0  0  0  0  0  0  0  0
  142.7870   72.5890  220.5020 C   0  0  0  0  0  0  0  0  0  0  0  0
  144.1220   72.2250  220.6970 C   0  0  0  0  0  0  0  0  0  0  0  0
  145.1310   73.1870  220.6110 C   0  0  0  0  0  0  0  0  0  0  0  0
  144.8070   74.5160  220.3250 C   0  0  0  0  0  0  0  0  0  0  0  0
  143.4740   74.8860  220.1290 C   0  0  0  0  0  0  0  0  0  0  0  0
  138.7130   75.6010  221.2930 N   0  0  0  0  0  0  0  0  0  0  0  0
  137.9700   75.9170  222.5290 C   0  0  0  0  0  0  0  0  0  0  0  0
  137.2720   77.1860  222.2290 C   0  0  0  0  0  0  0  0  0  0  0  0
  136.2920   77.8330  222.9840 C   0  0  0  0  0  0  0  0  0  0  0  0
  135.7710   79.0450  222.5050 C   0  0  0  0  0  0  0  0  0  0  0  0
  136.2400   79.5880  221.2920 C   0  0  0  0  0  0  0  0  0  0  0  0
  137.2330   78.9190  220.5580 C   0  0  0  0  0  0  0  0  0  0  0  0
  137.7280   77.7110  221.0540 C   0  0  0  0  0  0  0  0  0  0  0  0
  138.8080   76.8570  220.4980 C   0  0  1  0  0  0  0  0  0  0  0  0
  140.1290   77.5890  220.6240 C   0  0  0  0  0  0  0  0  0  0  0  0
  141.1490   77.6580  219.6720 C   0  0  0  0  0  0  0  0  0  0  0  0
  142.1820   78.3960  220.1370 N   0  0  0  0  0  0  0  0  0  0  0  0
  141.8310   78.7920  221.3710 C   0  0  0  0  0  0  0  0  0  0  0  0
  142.5780   79.5790  222.2470 C   0  0  0  0  0  0  0  0  0  0  0  0
  142.0160   79.8800  223.5010 C   0  0  0  0  0  0  0  0  0  0  0  0
  140.7360   79.3940  223.8480 C   0  0  0  0  0  0  0  0  0  0  0  0
  140.0050   78.6010  222.9430 C   0  0  0  0  0  0  0  0  0  0  0  0
  140.5870   78.3180  221.7060 C   0  0  0  0  0  0  0  0  0  0  0  0
  140.4738   73.4888  219.5599 H   0  0  0  0  0  0  0  0  0  0  0  0
  140.9939   75.2202  219.3900 H   0  0  0  0  0  0  0  0  0  0  0  0
  141.9963   71.8268  220.5647 H   0  0  0  0  0  0  0  0  0  0  0  0
  144.3788   71.1786  220.9187 H   0  0  0  0  0  0  0  0  0  0  0  0
  146.1808   72.8985  220.7684 H   0  0  0  0  0  0  0  0  0  0  0  0
  145.6028   75.2721  220.2541 H   0  0  0  0  0  0  0  0  0  0  0  0
  143.2239   75.9320  219.8980 H   0  0  0  0  0  0  0  0  0  0  0  0
  137.2469   75.1214  222.7619 H   0  0  0  0  0  0  0  0  0  0  0  0
  138.6313   76.0008  223.4040 H   0  0  0  0  0  0  0  0  0  0  0  0
  135.9365   77.4030  223.9320 H   0  0  0  0  0  0  0  0  0  0  0  0
  134.9943   79.5726  223.0780 H   0  0  0  0  0  0  0  0  0  0  0  0
  135.8277   80.5373  220.9196 H   0  0  0  0  0  0  0  0  0  0  0  0
  137.6123   79.3370  219.6138 H   0  0  0  0  0  0  0  0  0  0  0  0
  138.7209   76.6247  219.4263 H   0  0  0  0  0  0  0  0  0  0  0  0
  141.1163   77.1789  218.6824 H   0  0  0  0  0  0  0  0  0  0  0  0
  143.0710   78.6120  219.6330 H   0  0  0  0  0  0  0  0  0  0  0  0
  143.5740   79.9522  221.9666 H   0  0  0  0  0  0  0  0  0  0  0  0
  142.5776   80.4984  224.2166 H   0  0  0  0  0  0  0  0  0  0  0  0
  140.3075   79.6366  224.8316 H   0  0  0  0  0  0  0  0  0  0  0  0
  139.0074   78.2168  223.2022 H   0  0  0  0  0  0  0  0  0  0  0  0
  1  2  2  0
  2  3  2  0
  2  4  1  0
  4  5  1  0
  5  6  2  0
  6  7  1  0
  7  8  2  0
  8  9  1  0
  9 10  2  0
  2 11  1  0
 11 12  1  0
 12 13  1  0
 13 14  2  0
 14 15  1  0
 15 16  2  0
 16 17  1  0
 17 18  2  0
 18 19  1  0
 19 20  1  0
 20 21  2  0
 21 22  1  0
 22 23  1  0
 23 24  2  0
 24 25  1  0
 25 26  2  0
 26 27  1  0
 27 28  2  0
 10  5  1  0
 19 11  1  0
 28 20  1  0
 18 13  1  0
 28 23  1  0
  4 29  1  0
  4 30  1  0
  6 31  1  0
  7 32  1  0
  8 33  1  0
  9 34  1  0
 10 35  1  0
 12 36  1  0
 12 37  1  0
 14 38  1  0
 15 39  1  0
 16 40  1  0
 17 41  1  0
 19 42  1  6
 21 43  1  0
 22 44  1  0
 24 45  1  0
 25 46  1  0
 26 47  1  0
 27 48  1  0
M  END
>  <UniqueID>  (54) 
7

>  <SMILES>  (54) 
O=S(=O)(Cc1ccccc1)N1Cc2ccccc2[C@H]1c1c[nH]c2ccccc12

>  <Energy>  (54) 
98.05596573207966

>  <Genealogy>  (54) 
O=S(=O)(Cc1ccccc1)N1Cc2ccccc2[C@H]1c1c[nH]c2ccccc12 (chirality)
O=S(=O)(Cc1ccccc1)N1Cc2ccccc2[C@H]1c1c[nH]c2ccccc12 (3D coordinates assigned)
O=S(=O)(Cc1ccccc1)N1Cc2ccccc2[C@H]1c1c[nH]c2ccccc12 (nonaromatic ring conformer: 98.05596573207966 kcal/mol)

>  <smiles>  (54) 
O=S(=O)(Cc1ccccc1)N1Cc2ccccc2C1c1c[nH]c2ccccc12

>  <score_type>  (54) 
oracle

>  <origin>  (54) 
autodockgpu

>  <m_score__min__energy>  (54) 
-7.29

>  <m_primary>  (54) 
energy

>  <meeko>  (54) 
{"free_energy": -7.27, "intermolecular_energy": -8.47, "internal_energy": -1.97, "cluster_size": 14, "cluster_id": 1, "rank_in_cluster": 5}

>  <energy>  (54) 
-7.15

>  <cluster_rmsd>  (54) 
0.14

>  <rmsd>  (54) 
271.4

>  <cluster>  (54) 
1

$$$$
WCZRIPJXOMUAPT-QHCPKHFHNA-N
     RDKit          3D

 48 52  0  0  0  0  0  0  0  0999 V2000
  139.7790   74.5850  222.3370 O   0  0  0  0  0  0  0  0  0  0  0  0
  139.3470   75.8420  221.6350 S   0  0  0  0  0  0  0  0  0  0  0  0
  137.8660   75.7720  221.3780 O   0  0  0  0  0  0  0  0  0  0  0  0
  140.2240   75.9050  220.0760 C   0  0  0  0  0  0  0  0  0  0  0  0
  141.6110   75.3330  220.1850 C   0  0  0  0  0  0  0  0  0  0  0  0
  141.7980   73.9720  220.4830 C   0  0  0  0  0  0  0  0  0  0  0  0
  143.0880   73.4460  220.5960 C   0  0  0  0  0  0  0  0  0  0  0  0
  144.2000   74.2700  220.4040 C   0  0  0  0  0  0  0  0  0  0  0  0
  144.0230   75.6210  220.0950 C   0  0  0  0  0  0  0  0  0  0  0  0
  142.7360   76.1510  219.9810 C   0  0  0  0  0  0  0  0  0  0  0  0
  139.7380   77.2310  222.6300 N   0  0  0  0  0  0  0  0  0  0  0  0
  141.1800   77.3630  222.9220 C   0  0  0  0  0  0  0  0  0  0  0  0
  141.4040   78.8200  223.0390 C   0  0  0  0  0  0  0  0  0  0  0  0
  142.5480   79.4850  223.4830 C   0  0  0  0  0  0  0  0  0  0  0  0
  142.5390   80.8900  223.5030 C   0  0  0  0  0  0  0  0  0  0  0  0
  141.3980   81.5970  223.0750 C   0  0  0  0  0  0  0  0  0  0  0  0
  140.2650   80.9010  222.6250 C   0  0  0  0  0  0  0  0  0  0  0  0
  140.2980   79.5040  222.6240 C   0  0  0  0  0  0  0  0  0  0  0  0
  139.2600   78.5560  222.1450 C   0  0  1  0  0  0  0  0  0  0  0  0
  139.1420   78.6740  220.6380 C   0  0  0  0  0  0  0  0  0  0  0  0
  137.9920   78.4920  219.8670 C   0  0  0  0  0  0  0  0  0  0  0  0
  138.2680   78.6740  218.5550 N   0  0  0  0  0  0  0  0  0  0  0  0
  139.5770   78.9650  218.4880 C   0  0  0  0  0  0  0  0  0  0  0  0
  140.3210   79.2360  217.3400 C   0  0  0  0  0  0  0  0  0  0  0  0
  141.6900   79.5220  217.4960 C   0  0  0  0  0  0  0  0  0  0  0  0
  142.2770   79.5310  218.7800 C   0  0  0  0  0  0  0  0  0  0  0  0
  141.5020   79.2540  219.9210 C   0  0  0  0  0  0  0  0  0  0  0  0
  140.1460   78.9730  219.7360 C   0  0  0  0  0  0  0  0  0  0  0  0
  139.6601   75.3284  219.3280 H   0  0  0  0  0  0  0  0  0  0  0  0
  140.3146   76.9606  219.7800 H   0  0  0  0  0  0  0  0  0  0  0  0
  140.9254   73.3182  220.6279 H   0  0  0  0  0  0  0  0  0  0  0  0
  143.2280   72.3818  220.8364 H   0  0  0  0  0  0  0  0  0  0  0  0
  145.2146   73.8551  220.4961 H   0  0  0  0  0  0  0  0  0  0  0  0
  144.8989   76.2684  219.9412 H   0  0  0  0  0  0  0  0  0  0  0  0
  142.6019   77.2136  219.7304 H   0  0  0  0  0  0  0  0  0  0  0  0
  141.4339   76.8540  223.8635 H   0  0  0  0  0  0  0  0  0  0  0  0
  141.8074   76.9053  222.1430 H   0  0  0  0  0  0  0  0  0  0  0  0
  143.4353   78.9227  223.8094 H   0  0  0  0  0  0  0  0  0  0  0  0
  143.4251   81.4393  223.8538 H   0  0  0  0  0  0  0  0  0  0  0  0
  141.3949   82.6968  223.0935 H   0  0  0  0  0  0  0  0  0  0  0  0
  139.3717   81.4429  222.2811 H   0  0  0  0  0  0  0  0  0  0  0  0
  138.2424   78.7432  222.5186 H   0  0  0  0  0  0  0  0  0  0  0  0
  137.0008   78.2365  220.2698 H   0  0  0  0  0  0  0  0  0  0  0  0
  137.5950   78.6010  217.7600 H   0  0  0  0  0  0  0  0  0  0  0  0
  139.8528   79.2265  216.3446 H   0  0  0  0  0  0  0  0  0  0  0  0
  142.3069   79.7400  216.6117 H   0  0  0  0  0  0  0  0  0  0  0  0
  143.3481   79.7562  218.8891 H   0  0  0  0  0  0  0  0  0  0  0  0
  141.9491   79.2585  220.9260 H   0  0  0  0  0  0  0  0  0  0  0  0
  1  2  2  0
  2  3  2  0
  2  4  1  0
  4  5  1  0
  5  6  2  0
  6  7  1  0
  7  8  2  0
  8  9  1  0
  9 10  2  0
  2 11  1  0
 11 12  1  0
 12 13  1  0
 13 14  2  0
 14 15  1  0
 15 16  2  0
 16 17  1  0
 17 18  2  0
 18 19  1  0
 19 20  1  0
 20 21  2  0
 21 22  1  0
 22 23  1  0
 23 24  2  0
 24 25  1  0
 25 26  2  0
 26 27  1  0
 27 28  2  0
 10  5  1  0
 19 11  1  0
 28 20  1  0
 18 13  1  0
 28 23  1  0
  4 29  1  0
  4 30  1  0
  6 31  1  0
  7 32  1  0
  8 33  1  0
  9 34  1  0
 10 35  1  0
 12 36  1  0
 12 37  1  0
 14 38  1  0
 15 39  1  0
 16 40  1  0
 17 41  1  0
 19 42  1  1
 21 43  1  0
 22 44  1  0
 24 45  1  0
 25 46  1  0
 26 47  1  0
 27 48  1  0
M  END
>  <UniqueID>  (55) 
7

>  <SMILES>  (55) 
O=S(=O)(Cc1ccccc1)N1Cc2ccccc2[C@H]1c1c[nH]c2ccccc12

>  <Energy>  (55) 
98.05596573207966

>  <Genealogy>  (55) 
O=S(=O)(Cc1ccccc1)N1Cc2ccccc2[C@H]1c1c[nH]c2ccccc12 (chirality)
O=S(=O)(Cc1ccccc1)N1Cc2ccccc2[C@H]1c1c[nH]c2ccccc12 (3D coordinates assigned)
O=S(=O)(Cc1ccccc1)N1Cc2ccccc2[C@H]1c1c[nH]c2ccccc12 (nonaromatic ring conformer: 98.05596573207966 kcal/mol)

>  <smiles>  (55) 
O=S(=O)(Cc1ccccc1)N1Cc2ccccc2C1c1c[nH]c2ccccc12

>  <score_type>  (55) 
oracle

>  <origin>  (55) 
autodockgpu

>  <m_score__min__energy>  (55) 
-7.29

>  <m_primary>  (55) 
energy

>  <meeko>  (55) 
{"free_energy": -6.74, "intermolecular_energy": -7.93, "internal_energy": -2.2, "cluster_size": 2, "cluster_id": 3, "rank_in_cluster": 2}

>  <energy>  (55) 
-6.92

>  <cluster_rmsd>  (55) 
0.0

>  <rmsd>  (55) 
271.54

>  <cluster>  (55) 
2

$$$$
WCZRIPJXOMUAPT-QHCPKHFHNA-N
     RDKit          3D

 48 52  0  0  0  0  0  0  0  0999 V2000
  141.1530   75.6030  222.3450 O   0  0  0  0  0  0  0  0  0  0  0  0
  140.2090   74.7280  221.5700 S   0  0  0  0  0  0  0  0  0  0  0  0
  139.9540   73.4700  222.3550 O   0  0  0  0  0  0  0  0  0  0  0  0
  141.0160   74.3170  220.0250 C   0  0  0  0  0  0  0  0  0  0  0  0
  142.4530   73.9200  220.2270 C   0  0  0  0  0  0  0  0  0  0  0  0
  142.7900   72.5830  220.5010 C   0  0  0  0  0  0  0  0  0  0  0  0
  144.1250   72.2200  220.6990 C   0  0  0  0  0  0  0  0  0  0  0  0
  145.1330   73.1840  220.6200 C   0  0  0  0  0  0  0  0  0  0  0  0
  144.8080   74.5130  220.3360 C   0  0  0  0  0  0  0  0  0  0  0  0
  143.4750   74.8810  220.1360 C   0  0  0  0  0  0  0  0  0  0  0  0
  138.7120   75.5940  221.2830 N   0  0  0  0  0  0  0  0  0  0  0  0
  137.9620   75.9060  222.5160 C   0  0  0  0  0  0  0  0  0  0  0  0
  137.2650   77.1750  222.2160 C   0  0  0  0  0  0  0  0  0  0  0  0
  136.2810   77.8190  222.9680 C   0  0  0  0  0  0  0  0  0  0  0  0
  135.7610   79.0330  222.4900 C   0  0  0  0  0  0  0  0  0  0  0  0
  136.2360   79.5790  221.2820 C   0  0  0  0  0  0  0  0  0  0  0  0
  137.2330   78.9140  220.5500 C   0  0  0  0  0  0  0  0  0  0  0  0
  137.7260   77.7040  221.0450 C   0  0  0  0  0  0  0  0  0  0  0  0
  138.8100   76.8530  220.4920 C   0  0  1  0  0  0  0  0  0  0  0  0
  140.1300   77.5850  220.6270 C   0  0  0  0  0  0  0  0  0  0  0  0
  141.1540   77.6600  219.6800 C   0  0  0  0  0  0  0  0  0  0  0  0
  142.1850   78.3970  220.1530 N   0  0  0  0  0  0  0  0  0  0  0  0
  141.8270   78.7860  221.3880 C   0  0  0  0  0  0  0  0  0  0  0  0
  142.5700   79.5690  222.2700 C   0  0  0  0  0  0  0  0  0  0  0  0
  142.0030   79.8630  223.5240 C   0  0  0  0  0  0  0  0  0  0  0  0
  140.7220   79.3740  223.8620 C   0  0  0  0  0  0  0  0  0  0  0  0
  139.9950   78.5860  222.9510 C   0  0  0  0  0  0  0  0  0  0  0  0
  140.5830   78.3100  221.7140 C   0  0  0  0  0  0  0  0  0  0  0  0
  140.4789   73.4795  219.5558 H   0  0  0  0  0  0  0  0  0  0  0  0
  140.9977   75.2109  219.3842 H   0  0  0  0  0  0  0  0  0  0  0  0
  142.0001   71.8198  220.5598 H   0  0  0  0  0  0  0  0  0  0  0  0
  144.3826   71.1731  220.9175 H   0  0  0  0  0  0  0  0  0  0  0  0
  146.1825   72.8968  220.7813 H   0  0  0  0  0  0  0  0  0  0  0  0
  145.6027   75.2706  220.2698 H   0  0  0  0  0  0  0  0  0  0  0  0
  143.2242   75.9271  219.9064 H   0  0  0  0  0  0  0  0  0  0  0  0
  137.2382   75.1093  222.7426 H   0  0  0  0  0  0  0  0  0  0  0  0
  138.6185   75.9877  223.3948 H   0  0  0  0  0  0  0  0  0  0  0  0
  135.9212   77.3858  223.9129 H   0  0  0  0  0  0  0  0  0  0  0  0
  134.9810   79.5584  223.0605 H   0  0  0  0  0  0  0  0  0  0  0  0
  135.8248   80.5293  220.9106 H   0  0  0  0  0  0  0  0  0  0  0  0
  137.6167   79.3357  219.6093 H   0  0  0  0  0  0  0  0  0  0  0  0
  138.7286   76.6246  219.4191 H   0  0  0  0  0  0  0  0  0  0  0  0
  141.1260   77.1858  218.6878 H   0  0  0  0  0  0  0  0  0  0  0  0
  143.0750   78.6150  219.6540 H   0  0  0  0  0  0  0  0  0  0  0  0
  143.5666   79.9447  221.9949 H   0  0  0  0  0  0  0  0  0  0  0  0
  142.5612   80.4776  224.2456 H   0  0  0  0  0  0  0  0  0  0  0  0
  140.2893   79.6110  224.8451 H   0  0  0  0  0  0  0  0  0  0  0  0
  138.9966   78.1999  223.2043 H   0  0  0  0  0  0  0  0  0  0  0  0
  1  2  2  0
  2  3  2  0
  2  4  1  0
  4  5  1  0
  5  6  2  0
  6  7  1  0
  7  8  2  0
  8  9  1  0
  9 10  2  0
  2 11  1  0
 11 12  1  0
 12 13  1  0
 13 14  2  0
 14 15  1  0
 15 16  2  0
 16 17  1  0
 17 18  2  0
 18 19  1  0
 19 20  1  0
 20 21  2  0
 21 22  1  0
 22 23  1  0
 23 24  2  0
 24 25  1  0
 25 26  2  0
 26 27  1  0
 27 28  2  0
 10  5  1  0
 19 11  1  0
 28 20  1  0
 18 13  1  0
 28 23  1  0
  4 29  1  0
  4 30  1  0
  6 31  1  0
  7 32  1  0
  8 33  1  0
  9 34  1  0
 10 35  1  0
 12 36  1  0
 12 37  1  0
 14 38  1  0
 15 39  1  0
 16 40  1  0
 17 41  1  0
 19 42  1  6
 21 43  1  0
 22 44  1  0
 24 45  1  0
 25 46  1  0
 26 47  1  0
 27 48  1  0
M  END
>  <UniqueID>  (56) 
7

>  <SMILES>  (56) 
O=S(=O)(Cc1ccccc1)N1Cc2ccccc2[C@H]1c1c[nH]c2ccccc12

>  <Energy>  (56) 
98.05596573207966

>  <Genealogy>  (56) 
O=S(=O)(Cc1ccccc1)N1Cc2ccccc2[C@H]1c1c[nH]c2ccccc12 (chirality)
O=S(=O)(Cc1ccccc1)N1Cc2ccccc2[C@H]1c1c[nH]c2ccccc12 (3D coordinates assigned)
O=S(=O)(Cc1ccccc1)N1Cc2ccccc2[C@H]1c1c[nH]c2ccccc12 (nonaromatic ring conformer: 98.05596573207966 kcal/mol)

>  <smiles>  (56) 
O=S(=O)(Cc1ccccc1)N1Cc2ccccc2C1c1c[nH]c2ccccc12

>  <score_type>  (56) 
oracle

>  <origin>  (56) 
autodockgpu

>  <m_score__min__energy>  (56) 
-7.29

>  <m_primary>  (56) 
energy

>  <meeko>  (56) 
{"free_energy": -7.28, "intermolecular_energy": -8.47, "internal_energy": -1.97, "cluster_size": 14, "cluster_id": 1, "rank_in_cluster": 2}

>  <energy>  (56) 
-6.91

>  <cluster_rmsd>  (56) 
0.04

>  <rmsd>  (56) 
271.54

>  <cluster>  (56) 
2

$$$$
WCZRIPJXOMUAPT-QHCPKHFHNA-N
     RDKit          3D

 48 52  0  0  0  0  0  0  0  0999 V2000
  141.1530   75.6160  222.3410 O   0  0  0  0  0  0  0  0  0  0  0  0
  140.2120   74.7360  221.5680 S   0  0  0  0  0  0  0  0  0  0  0  0
  139.9580   73.4810  222.3580 O   0  0  0  0  0  0  0  0  0  0  0  0
  141.0220   74.3190  220.0270 C   0  0  0  0  0  0  0  0  0  0  0  0
  142.4600   73.9280  220.2330 C   0  0  0  0  0  0  0  0  0  0  0  0
  143.4800   74.8920  220.1450 C   0  0  0  0  0  0  0  0  0  0  0  0
  144.8160   74.5230  220.3250 C   0  0  0  0  0  0  0  0  0  0  0  0
  145.1450   73.1930  220.6000 C   0  0  0  0  0  0  0  0  0  0  0  0
  144.1370   72.2310  220.7000 C   0  0  0  0  0  0  0  0  0  0  0  0
  142.8000   72.5950  220.5220 C   0  0  0  0  0  0  0  0  0  0  0  0
  138.7140   75.5980  221.2740 N   0  0  0  0  0  0  0  0  0  0  0  0
  137.9620   75.9150  222.5040 C   0  0  0  0  0  0  0  0  0  0  0  0
  137.2630   77.1810  222.1970 C   0  0  0  0  0  0  0  0  0  0  0  0
  136.2770   77.8270  222.9440 C   0  0  0  0  0  0  0  0  0  0  0  0
  135.7550   79.0380  222.4590 C   0  0  0  0  0  0  0  0  0  0  0  0
  136.2320   79.5790  221.2480 C   0  0  0  0  0  0  0  0  0  0  0  0
  137.2310   78.9120  220.5220 C   0  0  0  0  0  0  0  0  0  0  0  0
  137.7260   77.7050  221.0240 C   0  0  0  0  0  0  0  0  0  0  0  0
  138.8110   76.8530  220.4770 C   0  0  1  0  0  0  0  0  0  0  0  0
  140.1300   77.5880  220.6110 C   0  0  0  0  0  0  0  0  0  0  0  0
  141.1540   77.6620  219.6640 C   0  0  0  0  0  0  0  0  0  0  0  0
  142.1840   78.4020  220.1350 N   0  0  0  0  0  0  0  0  0  0  0  0
  141.8250   78.7940  221.3690 C   0  0  0  0  0  0  0  0  0  0  0  0
  142.5650   79.5810  222.2490 C   0  0  0  0  0  0  0  0  0  0  0  0
  141.9970   79.8790  223.5010 C   0  0  0  0  0  0  0  0  0  0  0  0
  140.7160   79.3890  223.8410 C   0  0  0  0  0  0  0  0  0  0  0  0
  139.9920   78.5960  222.9310 C   0  0  0  0  0  0  0  0  0  0  0  0
  140.5810   78.3170  221.6960 C   0  0  0  0  0  0  0  0  0  0  0  0
  140.4883   73.4770  219.5619 H   0  0  0  0  0  0  0  0  0  0  0  0
  141.0015   75.2092  219.3811 H   0  0  0  0  0  0  0  0  0  0  0  0
  143.2253   75.9410  219.9336 H   0  0  0  0  0  0  0  0  0  0  0  0
  145.6098   75.2808  220.2501 H   0  0  0  0  0  0  0  0  0  0  0  0
  146.1973   72.9037  220.7377 H   0  0  0  0  0  0  0  0  0  0  0  0
  144.3965   71.1848  220.9193 H   0  0  0  0  0  0  0  0  0  0  0  0
  142.0096   71.8349  220.6084 H   0  0  0  0  0  0  0  0  0  0  0  0
  137.2394   75.1181  222.7338 H   0  0  0  0  0  0  0  0  0  0  0  0
  138.6174   76.0025  223.3831 H   0  0  0  0  0  0  0  0  0  0  0  0
  135.9168   77.3980  223.8907 H   0  0  0  0  0  0  0  0  0  0  0  0
  134.9728   79.5647  223.0253 H   0  0  0  0  0  0  0  0  0  0  0  0
  135.8201   80.5267  220.8708 H   0  0  0  0  0  0  0  0  0  0  0  0
  137.6155   79.3295  219.5797 H   0  0  0  0  0  0  0  0  0  0  0  0
  138.7312   76.6189  219.4052 H   0  0  0  0  0  0  0  0  0  0  0  0
  141.1268   77.1850  218.6732 H   0  0  0  0  0  0  0  0  0  0  0  0
  143.0740   78.6210  219.6360 H   0  0  0  0  0  0  0  0  0  0  0  0
  143.5613   79.9572  221.9736 H   0  0  0  0  0  0  0  0  0  0  0  0
  142.5538   80.4976  224.2202 H   0  0  0  0  0  0  0  0  0  0  0  0
  140.2819   79.6288  224.8229 H   0  0  0  0  0  0  0  0  0  0  0  0
  138.9942   78.2085  223.1845 H   0  0  0  0  0  0  0  0  0  0  0  0
  1  2  2  0
  2  3  2  0
  2  4  1  0
  4  5  1  0
  5  6  2  0
  6  7  1  0
  7  8  2  0
  8  9  1  0
  9 10  2  0
  2 11  1  0
 11 12  1  0
 12 13  1  0
 13 14  2  0
 14 15  1  0
 15 16  2  0
 16 17  1  0
 17 18  2  0
 18 19  1  0
 19 20  1  0
 20 21  2  0
 21 22  1  0
 22 23  1  0
 23 24  2  0
 24 25  1  0
 25 26  2  0
 26 27  1  0
 27 28  2  0
 10  5  1  0
 19 11  1  0
 28 20  1  0
 18 13  1  0
 28 23  1  0
  4 29  1  0
  4 30  1  0
  6 31  1  0
  7 32  1  0
  8 33  1  0
  9 34  1  0
 10 35  1  0
 12 36  1  0
 12 37  1  0
 14 38  1  0
 15 39  1  0
 16 40  1  0
 17 41  1  0
 19 42  1  6
 21 43  1  0
 22 44  1  0
 24 45  1  0
 25 46  1  0
 26 47  1  0
 27 48  1  0
M  END
>  <UniqueID>  (57) 
7

>  <SMILES>  (57) 
O=S(=O)(Cc1ccccc1)N1Cc2ccccc2[C@H]1c1c[nH]c2ccccc12

>  <Energy>  (57) 
98.05596573207966

>  <Genealogy>  (57) 
O=S(=O)(Cc1ccccc1)N1Cc2ccccc2[C@H]1c1c[nH]c2ccccc12 (chirality)
O=S(=O)(Cc1ccccc1)N1Cc2ccccc2[C@H]1c1c[nH]c2ccccc12 (3D coordinates assigned)
O=S(=O)(Cc1ccccc1)N1Cc2ccccc2[C@H]1c1c[nH]c2ccccc12 (nonaromatic ring conformer: 98.05596573207966 kcal/mol)

>  <smiles>  (57) 
O=S(=O)(Cc1ccccc1)N1Cc2ccccc2C1c1c[nH]c2ccccc12

>  <score_type>  (57) 
oracle

>  <origin>  (57) 
autodockgpu

>  <m_score__min__energy>  (57) 
-7.29

>  <m_primary>  (57) 
energy

>  <meeko>  (57) 
{"free_energy": -7.27, "intermolecular_energy": -8.46, "internal_energy": -1.97, "cluster_size": 14, "cluster_id": 1, "rank_in_cluster": 9}

>  <energy>  (57) 
-6.91

>  <cluster_rmsd>  (57) 
0.03

>  <rmsd>  (57) 
271.54

>  <cluster>  (57) 
2

$$$$
WCZRIPJXOMUAPT-QHCPKHFHNA-N
     RDKit          3D

 48 52  0  0  0  0  0  0  0  0999 V2000
  141.2660   75.7490  222.4070 O   0  0  0  0  0  0  0  0  0  0  0  0
  140.3860   74.8500  221.5850 S   0  0  0  0  0  0  0  0  0  0  0  0
  140.1800   73.5580  222.3260 O   0  0  0  0  0  0  0  0  0  0  0  0
  141.2470   74.5280  220.0480 C   0  0  0  0  0  0  0  0  0  0  0  0
  142.6470   74.0280  220.2800 C   0  0  0  0  0  0  0  0  0  0  0  0
  142.8820   72.6690  220.5530 C   0  0  0  0  0  0  0  0  0  0  0  0
  144.1820   72.2100  220.7800 C   0  0  0  0  0  0  0  0  0  0  0  0
  145.2580   73.1000  220.7280 C   0  0  0  0  0  0  0  0  0  0  0  0
  145.0360   74.4500  220.4450 C   0  0  0  0  0  0  0  0  0  0  0  0
  143.7380   74.9140  220.2170 C   0  0  0  0  0  0  0  0  0  0  0  0
  138.8530   75.6460  221.2870 N   0  0  0  0  0  0  0  0  0  0  0  0
  138.0890   75.9380  222.5170 C   0  0  0  0  0  0  0  0  0  0  0  0
  137.3370   77.1720  222.2030 C   0  0  0  0  0  0  0  0  0  0  0  0
  136.3250   77.7800  222.9470 C   0  0  0  0  0  0  0  0  0  0  0  0
  135.7520   78.9640  222.4560 C   0  0  0  0  0  0  0  0  0  0  0  0
  136.2040   79.5180  221.2410 C   0  0  0  0  0  0  0  0  0  0  0  0
  137.2300   78.8900  220.5180 C   0  0  0  0  0  0  0  0  0  0  0  0
  137.7750   77.7080  221.0260 C   0  0  0  0  0  0  0  0  0  0  0  0
  138.8960   76.8990  220.4830 C   0  0  1  0  0  0  0  0  0  0  0  0
  140.1820   77.6910  220.6100 C   0  0  0  0  0  0  0  0  0  0  0  0
  141.1800   77.8390  219.6450 C   0  0  0  0  0  0  0  0  0  0  0  0
  142.1850   78.6120  220.1160 N   0  0  0  0  0  0  0  0  0  0  0  0
  141.8370   78.9510  221.3680 C   0  0  0  0  0  0  0  0  0  0  0  0
  142.5610   79.7450  222.2560 C   0  0  0  0  0  0  0  0  0  0  0  0
  142.0080   79.9790  223.5290 C   0  0  0  0  0  0  0  0  0  0  0  0
  140.7600   79.4200  223.8810 C   0  0  0  0  0  0  0  0  0  0  0  0
  140.0510   78.6220  222.9630 C   0  0  0  0  0  0  0  0  0  0  0  0
  140.6240   78.4070  221.7070 C   0  0  0  0  0  0  0  0  0  0  0  0
  140.6884   73.7692  219.4803 H   0  0  0  0  0  0  0  0  0  0  0  0
  141.3122   75.4740  219.4905 H   0  0  0  0  0  0  0  0  0  0  0  0
  142.0385   71.9638  220.5880 H   0  0  0  0  0  0  0  0  0  0  0  0
  144.3586   71.1468  220.9999 H   0  0  0  0  0  0  0  0  0  0  0  0
  146.2805   72.7375  220.9100 H   0  0  0  0  0  0  0  0  0  0  0  0
  145.8845   75.1487  220.4016 H   0  0  0  0  0  0  0  0  0  0  0  0
  143.5684   75.9763  219.9873 H   0  0  0  0  0  0  0  0  0  0  0  0
  137.4008   75.1127  222.7521 H   0  0  0  0  0  0  0  0  0  0  0  0
  138.7407   76.0579  223.3951 H   0  0  0  0  0  0  0  0  0  0  0  0
  135.9840   77.3416  223.8965 H   0  0  0  0  0  0  0  0  0  0  0  0
  134.9488   79.4603  223.0204 H   0  0  0  0  0  0  0  0  0  0  0  0
  135.7514   80.4448  220.8587 H   0  0  0  0  0  0  0  0  0  0  0  0
  137.5965   79.3184  219.5735 H   0  0  0  0  0  0  0  0  0  0  0  0
  138.8258   76.6546  219.4128 H   0  0  0  0  0  0  0  0  0  0  0  0
  141.1528   77.3895  218.6414 H   0  0  0  0  0  0  0  0  0  0  0  0
  143.0530   78.8870  219.6050 H   0  0  0  0  0  0  0  0  0  0  0  0
  143.5327   80.1746  221.9712 H   0  0  0  0  0  0  0  0  0  0  0  0
  142.5518   80.6016  224.2547 H   0  0  0  0  0  0  0  0  0  0  0  0
  140.3388   79.6093  224.8794 H   0  0  0  0  0  0  0  0  0  0  0  0
  139.0777   78.1821  223.2260 H   0  0  0  0  0  0  0  0  0  0  0  0
  1  2  2  0
  2  3  2  0
  2  4  1  0
  4  5  1  0
  5  6  2  0
  6  7  1  0
  7  8  2  0
  8  9  1  0
  9 10  2  0
  2 11  1  0
 11 12  1  0
 12 13  1  0
 13 14  2  0
 14 15  1  0
 15 16  2  0
 16 17  1  0
 17 18  2  0
 18 19  1  0
 19 20  1  0
 20 21  2  0
 21 22  1  0
 22 23  1  0
 23 24  2  0
 24 25  1  0
 25 26  2  0
 26 27  1  0
 27 28  2  0
 10  5  1  0
 19 11  1  0
 28 20  1  0
 18 13  1  0
 28 23  1  0
  4 29  1  0
  4 30  1  0
  6 31  1  0
  7 32  1  0
  8 33  1  0
  9 34  1  0
 10 35  1  0
 12 36  1  0
 12 37  1  0
 14 38  1  0
 15 39  1  0
 16 40  1  0
 17 41  1  0
 19 42  1  6
 21 43  1  0
 22 44  1  0
 24 45  1  0
 25 46  1  0
 26 47  1  0
 27 48  1  0
M  END
>  <UniqueID>  (58) 
7

>  <SMILES>  (58) 
O=S(=O)(Cc1ccccc1)N1Cc2ccccc2[C@H]1c1c[nH]c2ccccc12

>  <Energy>  (58) 
98.05596573207966

>  <Genealogy>  (58) 
O=S(=O)(Cc1ccccc1)N1Cc2ccccc2[C@H]1c1c[nH]c2ccccc12 (chirality)
O=S(=O)(Cc1ccccc1)N1Cc2ccccc2[C@H]1c1c[nH]c2ccccc12 (3D coordinates assigned)
O=S(=O)(Cc1ccccc1)N1Cc2ccccc2[C@H]1c1c[nH]c2ccccc12 (nonaromatic ring conformer: 98.05596573207966 kcal/mol)

>  <smiles>  (58) 
O=S(=O)(Cc1ccccc1)N1Cc2ccccc2C1c1c[nH]c2ccccc12

>  <score_type>  (58) 
oracle

>  <origin>  (58) 
autodockgpu

>  <m_score__min__energy>  (58) 
-7.29

>  <m_primary>  (58) 
energy

>  <meeko>  (58) 
{"free_energy": -7.18, "intermolecular_energy": -8.37, "internal_energy": -1.94, "cluster_size": 14, "cluster_id": 1, "rank_in_cluster": 13}

>  <energy>  (58) 
-6.75

>  <cluster_rmsd>  (58) 
0.0

>  <rmsd>  (58) 
271.31

>  <cluster>  (58) 
3

$$$$
WCZRIPJXOMUAPT-QHCPKHFHNA-N
     RDKit          3D

 48 52  0  0  0  0  0  0  0  0999 V2000
  138.7890   77.7090  219.4180 O   0  0  0  0  0  0  0  0  0  0  0  0
  140.1880   77.3130  219.0380 S   0  0  0  0  0  0  0  0  0  0  0  0
  140.4440   77.7310  217.6160 O   0  0  0  0  0  0  0  0  0  0  0  0
  140.2860   75.5300  219.1650 C   0  0  0  0  0  0  0  0  0  0  0  0
  141.6440   75.0700  219.6210 C   0  0  0  0  0  0  0  0  0  0  0  0
  142.7970   75.7880  219.2580 C   0  0  0  0  0  0  0  0  0  0  0  0
  144.0590   75.3510  219.6730 C   0  0  0  0  0  0  0  0  0  0  0  0
  144.1790   74.2010  220.4570 C   0  0  0  0  0  0  0  0  0  0  0  0
  143.0370   73.4880  220.8320 C   0  0  0  0  0  0  0  0  0  0  0  0
  141.7740   73.9210  220.4200 C   0  0  0  0  0  0  0  0  0  0  0  0
  141.3280   78.0810  220.1260 N   0  0  0  0  0  0  0  0  0  0  0  0
  141.2140   79.5530  220.1600 C   0  0  0  0  0  0  0  0  0  0  0  0
  141.6060   79.9240  221.5370 C   0  0  0  0  0  0  0  0  0  0  0  0
  141.8460   81.1980  222.0530 C   0  0  0  0  0  0  0  0  0  0  0  0
  142.2010   81.3160  223.4070 C   0  0  0  0  0  0  0  0  0  0  0  0
  142.3020   80.1650  224.2150 C   0  0  0  0  0  0  0  0  0  0  0  0
  142.0450   78.8970  223.6710 C   0  0  0  0  0  0  0  0  0  0  0  0
  141.7030   78.8090  222.3190 C   0  0  0  0  0  0  0  0  0  0  0  0
  141.3320   77.6030  221.5370 C   0  0  1  0  0  0  0  0  0  0  0  0
  139.9970   77.0830  222.0330 C   0  0  0  0  0  0  0  0  0  0  0  0
  139.6520   75.7550  222.2920 C   0  0  0  0  0  0  0  0  0  0  0  0
  138.3710   75.6720  222.7170 N   0  0  0  0  0  0  0  0  0  0  0  0
  137.9010   76.9300  222.7270 C   0  0  0  0  0  0  0  0  0  0  0  0
  136.6230   77.3460  223.0970 C   0  0  0  0  0  0  0  0  0  0  0  0
  136.3370   78.7230  223.0370 C   0  0  0  0  0  0  0  0  0  0  0  0
  137.3240   79.6400  222.6130 C   0  0  0  0  0  0  0  0  0  0  0  0
  138.6050   79.1910  222.2450 C   0  0  0  0  0  0  0  0  0  0  0  0
  138.8610   77.8190  222.3150 C   0  0  0  0  0  0  0  0  0  0  0  0
  139.5327   75.1838  219.8880 H   0  0  0  0  0  0  0  0  0  0  0  0
  140.1028   75.1082  218.1658 H   0  0  0  0  0  0  0  0  0  0  0  0
  142.7061   76.6970  218.6452 H   0  0  0  0  0  0  0  0  0  0  0  0
  144.9583   75.9135  219.3817 H   0  0  0  0  0  0  0  0  0  0  0  0
  145.1727   73.8565  220.7793 H   0  0  0  0  0  0  0  0  0  0  0  0
  143.1326   72.5847  221.4524 H   0  0  0  0  0  0  0  0  0  0  0  0
  140.8774   73.3601  220.7223 H   0  0  0  0  0  0  0  0  0  0  0  0
  141.8921   80.0124  219.4258 H   0  0  0  0  0  0  0  0  0  0  0  0
  140.2015   79.8997  219.9060 H   0  0  0  0  0  0  0  0  0  0  0  0
  141.7592   82.0893  221.4143 H   0  0  0  0  0  0  0  0  0  0  0  0
  142.4006   82.3083  223.8377 H   0  0  0  0  0  0  0  0  0  0  0  0
  142.5829   80.2610  225.2742 H   0  0  0  0  0  0  0  0  0  0  0  0
  142.1113   77.9933  224.2946 H   0  0  0  0  0  0  0  0  0  0  0  0
  142.0170   76.7482  221.6378 H   0  0  0  0  0  0  0  0  0  0  0  0
  140.3280   74.8962  222.1677 H   0  0  0  0  0  0  0  0  0  0  0  0
  137.8570   74.8020  222.9820 H   0  0  0  0  0  0  0  0  0  0  0  0
  135.8628   76.6218  223.4251 H   0  0  0  0  0  0  0  0  0  0  0  0
  135.3389   79.0870  223.3220 H   0  0  0  0  0  0  0  0  0  0  0  0
  137.0890   80.7137  222.5703 H   0  0  0  0  0  0  0  0  0  0  0  0
  139.3804   79.8970  221.9128 H   0  0  0  0  0  0  0  0  0  0  0  0
  1  2  2  0
  2  3  2  0
  2  4  1  0
  4  5  1  0
  5  6  2  0
  6  7  1  0
  7  8  2  0
  8  9  1  0
  9 10  2  0
  2 11  1  0
 11 12  1  0
 12 13  1  0
 13 14  2  0
 14 15  1  0
 15 16  2  0
 16 17  1  0
 17 18  2  0
 18 19  1  0
 19 20  1  0
 20 21  2  0
 21 22  1  0
 22 23  1  0
 23 24  2  0
 24 25  1  0
 25 26  2  0
 26 27  1  0
 27 28  2  0
 10  5  1  0
 19 11  1  0
 28 20  1  0
 18 13  1  0
 28 23  1  0
  4 29  1  0
  4 30  1  0
  6 31  1  0
  7 32  1  0
  8 33  1  0
  9 34  1  0
 10 35  1  0
 12 36  1  0
 12 37  1  0
 14 38  1  0
 15 39  1  0
 16 40  1  0
 17 41  1  0
 19 42  1  6
 21 43  1  0
 22 44  1  0
 24 45  1  0
 25 46  1  0
 26 47  1  0
 27 48  1  0
M  END
>  <UniqueID>  (59) 
7

>  <SMILES>  (59) 
O=S(=O)(Cc1ccccc1)N1Cc2ccccc2[C@H]1c1c[nH]c2ccccc12

>  <Energy>  (59) 
98.05596573207966

>  <Genealogy>  (59) 
O=S(=O)(Cc1ccccc1)N1Cc2ccccc2[C@H]1c1c[nH]c2ccccc12 (chirality)
O=S(=O)(Cc1ccccc1)N1Cc2ccccc2[C@H]1c1c[nH]c2ccccc12 (3D coordinates assigned)
O=S(=O)(Cc1ccccc1)N1Cc2ccccc2[C@H]1c1c[nH]c2ccccc12 (nonaromatic ring conformer: 98.05596573207966 kcal/mol)

>  <smiles>  (59) 
O=S(=O)(Cc1ccccc1)N1Cc2ccccc2C1c1c[nH]c2ccccc12

>  <score_type>  (59) 
oracle

>  <origin>  (59) 
autodockgpu

>  <m_score__min__energy>  (59) 
-7.29

>  <m_primary>  (59) 
energy

>  <meeko>  (59) 
{"free_energy": -6.91, "intermolecular_energy": -8.11, "internal_energy": -2.14, "cluster_size": 3, "cluster_id": 2, "rank_in_cluster": 2}

>  <energy>  (59) 
-6.74

>  <cluster_rmsd>  (59) 
0.11

>  <rmsd>  (59) 
271.27

>  <cluster>  (59) 
3

$$$$
WCZRIPJXOMUAPT-QHCPKHFHNA-N
     RDKit          3D

 48 52  0  0  0  0  0  0  0  0999 V2000
  141.1680   75.6300  222.3460 O   0  0  0  0  0  0  0  0  0  0  0  0
  140.2260   74.7510  221.5720 S   0  0  0  0  0  0  0  0  0  0  0  0
  139.9740   73.4950  222.3600 O   0  0  0  0  0  0  0  0  0  0  0  0
  141.0340   74.3380  220.0290 C   0  0  0  0  0  0  0  0  0  0  0  0
  142.4720   73.9460  220.2320 C   0  0  0  0  0  0  0  0  0  0  0  0
  143.4890   74.9150  220.1690 C   0  0  0  0  0  0  0  0  0  0  0  0
  144.8260   74.5460  220.3450 C   0  0  0  0  0  0  0  0  0  0  0  0
  145.1580   73.2120  220.5930 C   0  0  0  0  0  0  0  0  0  0  0  0
  144.1520   72.2440  220.6700 C   0  0  0  0  0  0  0  0  0  0  0  0
  142.8150   72.6080  220.4940 C   0  0  0  0  0  0  0  0  0  0  0  0
  138.7270   75.6130  221.2820 N   0  0  0  0  0  0  0  0  0  0  0  0
  137.9780   75.9280  222.5150 C   0  0  0  0  0  0  0  0  0  0  0  0
  137.2780   77.1950  222.2100 C   0  0  0  0  0  0  0  0  0  0  0  0
  136.2930   77.8400  222.9600 C   0  0  0  0  0  0  0  0  0  0  0  0
  135.7700   79.0510  222.4770 C   0  0  0  0  0  0  0  0  0  0  0  0
  136.2430   79.5930  221.2660 C   0  0  0  0  0  0  0  0  0  0  0  0
  137.2410   78.9270  220.5370 C   0  0  0  0  0  0  0  0  0  0  0  0
  137.7370   77.7200  221.0360 C   0  0  0  0  0  0  0  0  0  0  0  0
  138.8220   76.8680  220.4860 C   0  0  1  0  0  0  0  0  0  0  0  0
  140.1410   77.6040  220.6170 C   0  0  0  0  0  0  0  0  0  0  0  0
  141.1630   77.6780  219.6680 C   0  0  0  0  0  0  0  0  0  0  0  0
  142.1920   78.4180  220.1370 N   0  0  0  0  0  0  0  0  0  0  0  0
  141.8360   78.8100  221.3710 C   0  0  0  0  0  0  0  0  0  0  0  0
  142.5780   79.5980  222.2500 C   0  0  0  0  0  0  0  0  0  0  0  0
  142.0120   79.8950  223.5040 C   0  0  0  0  0  0  0  0  0  0  0  0
  140.7330   79.4050  223.8460 C   0  0  0  0  0  0  0  0  0  0  0  0
  140.0070   78.6120  222.9380 C   0  0  0  0  0  0  0  0  0  0  0  0
  140.5930   78.3330  221.7010 C   0  0  0  0  0  0  0  0  0  0  0  0
  140.4995   73.4975  219.5623 H   0  0  0  0  0  0  0  0  0  0  0  0
  141.0130   75.2300  219.3857 H   0  0  0  0  0  0  0  0  0  0  0  0
  143.2316   75.9677  219.9805 H   0  0  0  0  0  0  0  0  0  0  0  0
  145.6178   75.3074  220.2881 H   0  0  0  0  0  0  0  0  0  0  0  0
  146.2108   72.9231  220.7277 H   0  0  0  0  0  0  0  0  0  0  0  0
  144.4138   71.1944  220.8694 H   0  0  0  0  0  0  0  0  0  0  0  0
  142.0265   71.8439  220.5607 H   0  0  0  0  0  0  0  0  0  0  0  0
  137.2561   75.1308  222.7457 H   0  0  0  0  0  0  0  0  0  0  0  0
  138.6351   76.0141  223.3930 H   0  0  0  0  0  0  0  0  0  0  0  0
  135.9348   77.4100  223.9070 H   0  0  0  0  0  0  0  0  0  0  0  0
  134.9893   79.5772  223.0458 H   0  0  0  0  0  0  0  0  0  0  0  0
  135.8293   80.5406  220.8905 H   0  0  0  0  0  0  0  0  0  0  0  0
  137.6236   79.3459  219.5946 H   0  0  0  0  0  0  0  0  0  0  0  0
  138.7403   76.6340  219.4143 H   0  0  0  0  0  0  0  0  0  0  0  0
  141.1344   77.2007  218.6774 H   0  0  0  0  0  0  0  0  0  0  0  0
  143.0820   78.6370  219.6360 H   0  0  0  0  0  0  0  0  0  0  0  0
  143.5733   79.9753  221.9725 H   0  0  0  0  0  0  0  0  0  0  0  0
  142.5701   80.5132  224.2225 H   0  0  0  0  0  0  0  0  0  0  0  0
  140.3010   79.6447  224.8288 H   0  0  0  0  0  0  0  0  0  0  0  0
  139.0100   78.2242  223.1941 H   0  0  0  0  0  0  0  0  0  0  0  0
  1  2  2  0
  2  3  2  0
  2  4  1  0
  4  5  1  0
  5  6  2  0
  6  7  1  0
  7  8  2  0
  8  9  1  0
  9 10  2  0
  2 11  1  0
 11 12  1  0
 12 13  1  0
 13 14  2  0
 14 15  1  0
 15 16  2  0
 16 17  1  0
 17 18  2  0
 18 19  1  0
 19 20  1  0
 20 21  2  0
 21 22  1  0
 22 23  1  0
 23 24  2  0
 24 25  1  0
 25 26  2  0
 26 27  1  0
 27 28  2  0
 10  5  1  0
 19 11  1  0
 28 20  1  0
 18 13  1  0
 28 23  1  0
  4 29  1  0
  4 30  1  0
  6 31  1  0
  7 32  1  0
  8 33  1  0
  9 34  1  0
 10 35  1  0
 12 36  1  0
 12 37  1  0
 14 38  1  0
 15 39  1  0
 16 40  1  0
 17 41  1  0
 19 42  1  6
 21 43  1  0
 22 44  1  0
 24 45  1  0
 25 46  1  0
 26 47  1  0
 27 48  1  0
M  END
>  <UniqueID>  (60) 
7

>  <SMILES>  (60) 
O=S(=O)(Cc1ccccc1)N1Cc2ccccc2[C@H]1c1c[nH]c2ccccc12

>  <Energy>  (60) 
98.05596573207966

>  <Genealogy>  (60) 
O=S(=O)(Cc1ccccc1)N1Cc2ccccc2[C@H]1c1c[nH]c2ccccc12 (chirality)
O=S(=O)(Cc1ccccc1)N1Cc2ccccc2[C@H]1c1c[nH]c2ccccc12 (3D coordinates assigned)
O=S(=O)(Cc1ccccc1)N1Cc2ccccc2[C@H]1c1c[nH]c2ccccc12 (nonaromatic ring conformer: 98.05596573207966 kcal/mol)

>  <smiles>  (60) 
O=S(=O)(Cc1ccccc1)N1Cc2ccccc2C1c1c[nH]c2ccccc12

>  <score_type>  (60) 
oracle

>  <origin>  (60) 
autodockgpu

>  <m_score__min__energy>  (60) 
-7.29

>  <m_primary>  (60) 
energy

>  <meeko>  (60) 
{"free_energy": -7.27, "intermolecular_energy": -8.46, "internal_energy": -1.97, "cluster_size": 14, "cluster_id": 1, "rank_in_cluster": 11}

>  <energy>  (60) 
-6.74

>  <cluster_rmsd>  (60) 
0.0

>  <rmsd>  (60) 
271.05

>  <cluster>  (60) 
4

$$$$
WCZRIPJXOMUAPT-QHCPKHFHNA-N
     RDKit          3D

 48 52  0  0  0  0  0  0  0  0999 V2000
  141.1640   75.6100  222.3510 O   0  0  0  0  0  0  0  0  0  0  0  0
  140.2260   74.7330  221.5700 S   0  0  0  0  0  0  0  0  0  0  0  0
  139.9740   73.4720  222.3500 O   0  0  0  0  0  0  0  0  0  0  0  0
  141.0390   74.3310  220.0270 C   0  0  0  0  0  0  0  0  0  0  0  0
  142.4760   73.9360  220.2320 C   0  0  0  0  0  0  0  0  0  0  0  0
  142.8150   72.5970  220.4940 C   0  0  0  0  0  0  0  0  0  0  0  0
  144.1500   72.2350  220.6960 C   0  0  0  0  0  0  0  0  0  0  0  0
  145.1560   73.2020  220.6310 C   0  0  0  0  0  0  0  0  0  0  0  0
  144.8290   74.5330  220.3590 C   0  0  0  0  0  0  0  0  0  0  0  0
  143.4960   74.9000  220.1560 C   0  0  0  0  0  0  0  0  0  0  0  0
  138.7260   75.5940  221.2810 N   0  0  0  0  0  0  0  0  0  0  0  0
  137.9750   75.9060  222.5140 C   0  0  0  0  0  0  0  0  0  0  0  0
  137.2740   77.1720  222.2110 C   0  0  0  0  0  0  0  0  0  0  0  0
  136.2880   77.8140  222.9620 C   0  0  0  0  0  0  0  0  0  0  0  0
  135.7640   79.0260  222.4810 C   0  0  0  0  0  0  0  0  0  0  0  0
  136.2370   79.5710  221.2710 C   0  0  0  0  0  0  0  0  0  0  0  0
  137.2360   78.9080  220.5410 C   0  0  0  0  0  0  0  0  0  0  0  0
  137.7330   77.7000  221.0390 C   0  0  0  0  0  0  0  0  0  0  0  0
  138.8190   76.8510  220.4880 C   0  0  1  0  0  0  0  0  0  0  0  0
  140.1370   77.5880  220.6210 C   0  0  0  0  0  0  0  0  0  0  0  0
  141.1610   77.6630  219.6740 C   0  0  0  0  0  0  0  0  0  0  0  0
  142.1890   78.4050  220.1440 N   0  0  0  0  0  0  0  0  0  0  0  0
  141.8300   78.7970  221.3780 C   0  0  0  0  0  0  0  0  0  0  0  0
  142.5700   79.5850  222.2580 C   0  0  0  0  0  0  0  0  0  0  0  0
  142.0020   79.8820  223.5110 C   0  0  0  0  0  0  0  0  0  0  0  0
  140.7220   79.3900  223.8500 C   0  0  0  0  0  0  0  0  0  0  0  0
  139.9980   78.5960  222.9420 C   0  0  0  0  0  0  0  0  0  0  0  0
  140.5870   78.3180  221.7060 C   0  0  0  0  0  0  0  0  0  0  0  0
  140.5053   73.4946  219.5520 H   0  0  0  0  0  0  0  0  0  0  0  0
  141.0212   75.2279  219.3904 H   0  0  0  0  0  0  0  0  0  0  0  0
  142.0267   71.8312  220.5402 H   0  0  0  0  0  0  0  0  0  0  0  0
  144.4088   71.1868  220.9065 H   0  0  0  0  0  0  0  0  0  0  0  0
  146.2055   72.9157  220.7939 H   0  0  0  0  0  0  0  0  0  0  0  0
  145.6222   75.2932  220.3046 H   0  0  0  0  0  0  0  0  0  0  0  0
  143.2439   75.9478  219.9358 H   0  0  0  0  0  0  0  0  0  0  0  0
  137.2538   75.1074  222.7424 H   0  0  0  0  0  0  0  0  0  0  0  0
  138.6312   75.9915  223.3927 H   0  0  0  0  0  0  0  0  0  0  0  0
  135.9297   77.3815  223.9078 H   0  0  0  0  0  0  0  0  0  0  0  0
  134.9827   79.5504  223.0506 H   0  0  0  0  0  0  0  0  0  0  0  0
  135.8223   80.5188  220.8972 H   0  0  0  0  0  0  0  0  0  0  0  0
  137.6186   79.3290  219.5995 H   0  0  0  0  0  0  0  0  0  0  0  0
  138.7374   76.6196  219.4157 H   0  0  0  0  0  0  0  0  0  0  0  0
  141.1348   77.1850  218.6837 H   0  0  0  0  0  0  0  0  0  0  0  0
  143.0790   78.6250  219.6450 H   0  0  0  0  0  0  0  0  0  0  0  0
  143.5657   79.9625  221.9821 H   0  0  0  0  0  0  0  0  0  0  0  0
  142.5581   80.5009  224.2305 H   0  0  0  0  0  0  0  0  0  0  0  0
  140.2879   79.6296  224.8319 H   0  0  0  0  0  0  0  0  0  0  0  0
  139.0011   78.2069  223.1967 H   0  0  0  0  0  0  0  0  0  0  0  0
  1  2  2  0
  2  3  2  0
  2  4  1  0
  4  5  1  0
  5  6  2  0
  6  7  1  0
  7  8  2  0
  8  9  1  0
  9 10  2  0
  2 11  1  0
 11 12  1  0
 12 13  1  0
 13 14  2  0
 14 15  1  0
 15 16  2  0
 16 17  1  0
 17 18  2  0
 18 19  1  0
 19 20  1  0
 20 21  2  0
 21 22  1  0
 22 23  1  0
 23 24  2  0
 24 25  1  0
 25 26  2  0
 26 27  1  0
 27 28  2  0
 10  5  1  0
 19 11  1  0
 28 20  1  0
 18 13  1  0
 28 23  1  0
  4 29  1  0
  4 30  1  0
  6 31  1  0
  7 32  1  0
  8 33  1  0
  9 34  1  0
 10 35  1  0
 12 36  1  0
 12 37  1  0
 14 38  1  0
 15 39  1  0
 16 40  1  0
 17 41  1  0
 19 42  1  6
 21 43  1  0
 22 44  1  0
 24 45  1  0
 25 46  1  0
 26 47  1  0
 27 48  1  0
M  END
>  <UniqueID>  (61) 
8

>  <SMILES>  (61) 
O=S(=O)(Cc1ccccc1)N1Cc2ccccc2[C@H]1c1c[nH]c2ccccc12

>  <Energy>  (61) 
98.32218443584806

>  <Genealogy>  (61) 
O=S(=O)(Cc1ccccc1)N1Cc2ccccc2[C@H]1c1c[nH]c2ccccc12 (chirality)
O=S(=O)(Cc1ccccc1)N1Cc2ccccc2[C@H]1c1c[nH]c2ccccc12 (3D coordinates assigned)
O=S(=O)(Cc1ccccc1)N1Cc2ccccc2[C@H]1c1c[nH]c2ccccc12 (nonaromatic ring conformer: 98.32218443584806 kcal/mol)

>  <smiles>  (61) 
O=S(=O)(Cc1ccccc1)N1Cc2ccccc2C1c1c[nH]c2ccccc12

>  <score_type>  (61) 
oracle

>  <origin>  (61) 
autodockgpu

>  <m_score__min__energy>  (61) 
-7.29

>  <m_primary>  (61) 
energy

>  <meeko>  (61) 
{"free_energy": -7.28, "intermolecular_energy": -8.47, "internal_energy": -1.97, "cluster_size": 14, "cluster_id": 1, "rank_in_cluster": 3}

>  <energy>  (61) 
-7.29

>  <cluster_rmsd>  (61) 
0.0

>  <rmsd>  (61) 
271.34

>  <cluster>  (61) 
1

$$$$
WCZRIPJXOMUAPT-QHCPKHFHNA-N
     RDKit          3D

 48 52  0  0  0  0  0  0  0  0999 V2000
  141.1600   75.6170  222.3460 O   0  0  0  0  0  0  0  0  0  0  0  0
  140.2220   74.7360  221.5700 S   0  0  0  0  0  0  0  0  0  0  0  0
  139.9710   73.4790  222.3560 O   0  0  0  0  0  0  0  0  0  0  0  0
  141.0350   74.3260  220.0280 C   0  0  0  0  0  0  0  0  0  0  0  0
  142.4720   73.9320  220.2340 C   0  0  0  0  0  0  0  0  0  0  0  0
  143.4930   74.8950  220.1570 C   0  0  0  0  0  0  0  0  0  0  0  0
  144.8280   74.5230  220.3370 C   0  0  0  0  0  0  0  0  0  0  0  0
  145.1550   73.1910  220.6030 C   0  0  0  0  0  0  0  0  0  0  0  0
  144.1450   72.2290  220.6940 C   0  0  0  0  0  0  0  0  0  0  0  0
  142.8090   72.5960  220.5140 C   0  0  0  0  0  0  0  0  0  0  0  0
  138.7220   75.5950  221.2770 N   0  0  0  0  0  0  0  0  0  0  0  0
  137.9680   75.9060  222.5080 C   0  0  0  0  0  0  0  0  0  0  0  0
  137.2660   77.1720  222.2030 C   0  0  0  0  0  0  0  0  0  0  0  0
  136.2770   77.8130  222.9520 C   0  0  0  0  0  0  0  0  0  0  0  0
  135.7530   79.0230  222.4690 C   0  0  0  0  0  0  0  0  0  0  0  0
  136.2280   79.5690  221.2600 C   0  0  0  0  0  0  0  0  0  0  0  0
  137.2300   78.9060  220.5330 C   0  0  0  0  0  0  0  0  0  0  0  0
  137.7270   77.7000  221.0320 C   0  0  0  0  0  0  0  0  0  0  0  0
  138.8160   76.8520  220.4830 C   0  0  1  0  0  0  0  0  0  0  0  0
  140.1330   77.5910  220.6190 C   0  0  0  0  0  0  0  0  0  0  0  0
  141.1580   77.6680  219.6740 C   0  0  0  0  0  0  0  0  0  0  0  0
  142.1840   78.4110  220.1470 N   0  0  0  0  0  0  0  0  0  0  0  0
  141.8230   78.8010  221.3800 C   0  0  0  0  0  0  0  0  0  0  0  0
  142.5600   79.5890  222.2630 C   0  0  0  0  0  0  0  0  0  0  0  0
  141.9890   79.8840  223.5140 C   0  0  0  0  0  0  0  0  0  0  0  0
  140.7100   79.3900  223.8520 C   0  0  0  0  0  0  0  0  0  0  0  0
  139.9890   78.5960  222.9410 C   0  0  0  0  0  0  0  0  0  0  0  0
  140.5800   78.3200  221.7060 C   0  0  0  0  0  0  0  0  0  0  0  0
  140.5011   73.4872  219.5575 H   0  0  0  0  0  0  0  0  0  0  0  0
  141.0171   75.2199  219.3872 H   0  0  0  0  0  0  0  0  0  0  0  0
  143.2401   75.9461  219.9541 H   0  0  0  0  0  0  0  0  0  0  0  0
  145.6229   75.2804  220.2691 H   0  0  0  0  0  0  0  0  0  0  0  0
  146.2067   72.8995  220.7407 H   0  0  0  0  0  0  0  0  0  0  0  0
  144.4025   71.1811  220.9077 H   0  0  0  0  0  0  0  0  0  0  0  0
  142.0173   71.8363  220.5917 H   0  0  0  0  0  0  0  0  0  0  0  0
  137.2471   75.1066  222.7347 H   0  0  0  0  0  0  0  0  0  0  0  0
  138.6219   75.9921  223.3883 H   0  0  0  0  0  0  0  0  0  0  0  0
  135.9172   77.3807  223.8973 H   0  0  0  0  0  0  0  0  0  0  0  0
  134.9692   79.5463  223.0363 H   0  0  0  0  0  0  0  0  0  0  0  0
  135.8132   80.5163  220.8850 H   0  0  0  0  0  0  0  0  0  0  0  0
  137.6145   79.3268  219.5922 H   0  0  0  0  0  0  0  0  0  0  0  0
  138.7378   76.6202  219.4106 H   0  0  0  0  0  0  0  0  0  0  0  0
  141.1342   77.1909  218.6831 H   0  0  0  0  0  0  0  0  0  0  0  0
  143.0750   78.6320  219.6490 H   0  0  0  0  0  0  0  0  0  0  0  0
  143.5560   79.9678  221.9900 H   0  0  0  0  0  0  0  0  0  0  0  0
  142.5427   80.5040  224.2344 H   0  0  0  0  0  0  0  0  0  0  0  0
  140.2745   79.6274  224.8338 H   0  0  0  0  0  0  0  0  0  0  0  0
  138.9922   78.2053  223.1934 H   0  0  0  0  0  0  0  0  0  0  0  0
  1  2  2  0
  2  3  2  0
  2  4  1  0
  4  5  1  0
  5  6  2  0
  6  7  1  0
  7  8  2  0
  8  9  1  0
  9 10  2  0
  2 11  1  0
 11 12  1  0
 12 13  1  0
 13 14  2  0
 14 15  1  0
 15 16  2  0
 16 17  1  0
 17 18  2  0
 18 19  1  0
 19 20  1  0
 20 21  2  0
 21 22  1  0
 22 23  1  0
 23 24  2  0
 24 25  1  0
 25 26  2  0
 26 27  1  0
 27 28  2  0
 10  5  1  0
 19 11  1  0
 28 20  1  0
 18 13  1  0
 28 23  1  0
  4 29  1  0
  4 30  1  0
  6 31  1  0
  7 32  1  0
  8 33  1  0
  9 34  1  0
 10 35  1  0
 12 36  1  0
 12 37  1  0
 14 38  1  0
 15 39  1  0
 16 40  1  0
 17 41  1  0
 19 42  1  6
 21 43  1  0
 22 44  1  0
 24 45  1  0
 25 46  1  0
 26 47  1  0
 27 48  1  0
M  END
>  <UniqueID>  (62) 
8

>  <SMILES>  (62) 
O=S(=O)(Cc1ccccc1)N1Cc2ccccc2[C@H]1c1c[nH]c2ccccc12

>  <Energy>  (62) 
98.32218443584806

>  <Genealogy>  (62) 
O=S(=O)(Cc1ccccc1)N1Cc2ccccc2[C@H]1c1c[nH]c2ccccc12 (chirality)
O=S(=O)(Cc1ccccc1)N1Cc2ccccc2[C@H]1c1c[nH]c2ccccc12 (3D coordinates assigned)
O=S(=O)(Cc1ccccc1)N1Cc2ccccc2[C@H]1c1c[nH]c2ccccc12 (nonaromatic ring conformer: 98.32218443584806 kcal/mol)

>  <smiles>  (62) 
O=S(=O)(Cc1ccccc1)N1Cc2ccccc2C1c1c[nH]c2ccccc12

>  <score_type>  (62) 
oracle

>  <origin>  (62) 
autodockgpu

>  <m_score__min__energy>  (62) 
-7.29

>  <m_primary>  (62) 
energy

>  <meeko>  (62) 
{"free_energy": -7.27, "intermolecular_energy": -8.47, "internal_energy": -1.97, "cluster_size": 14, "cluster_id": 1, "rank_in_cluster": 6}

>  <energy>  (62) 
-7.28

>  <cluster_rmsd>  (62) 
0.03

>  <rmsd>  (62) 
271.34

>  <cluster>  (62) 
1

$$$$
WCZRIPJXOMUAPT-QHCPKHFHNA-N
     RDKit          3D

 48 52  0  0  0  0  0  0  0  0999 V2000
  138.7890   77.7010  219.4190 O   0  0  0  0  0  0  0  0  0  0  0  0
  140.1880   77.3100  219.0320 S   0  0  0  0  0  0  0  0  0  0  0  0
  140.4390   77.7400  217.6130 O   0  0  0  0  0  0  0  0  0  0  0  0
  140.2890   75.5260  219.1450 C   0  0  0  0  0  0  0  0  0  0  0  0
  141.6460   75.0650  219.6020 C   0  0  0  0  0  0  0  0  0  0  0  0
  141.7780   73.9020  220.3810 C   0  0  0  0  0  0  0  0  0  0  0  0
  143.0390   73.4830  220.8140 C   0  0  0  0  0  0  0  0  0  0  0  0
  144.1780   74.2160  220.4690 C   0  0  0  0  0  0  0  0  0  0  0  0
  144.0570   75.3670  219.6860 C   0  0  0  0  0  0  0  0  0  0  0  0
  142.7990   75.7890  219.2500 C   0  0  0  0  0  0  0  0  0  0  0  0
  141.3290   78.0720  220.1230 N   0  0  0  0  0  0  0  0  0  0  0  0
  141.2190   79.5440  220.1620 C   0  0  0  0  0  0  0  0  0  0  0  0
  141.6110   79.9090  221.5410 C   0  0  0  0  0  0  0  0  0  0  0  0
  141.8540   81.1810  222.0610 C   0  0  0  0  0  0  0  0  0  0  0  0
  142.2090   81.2930  223.4160 C   0  0  0  0  0  0  0  0  0  0  0  0
  142.3060   80.1400  224.2200 C   0  0  0  0  0  0  0  0  0  0  0  0
  142.0470   78.8740  223.6710 C   0  0  0  0  0  0  0  0  0  0  0  0
  141.7050   78.7910  222.3190 C   0  0  0  0  0  0  0  0  0  0  0  0
  141.3310   77.5890  221.5320 C   0  0  1  0  0  0  0  0  0  0  0  0
  139.9950   77.0710  222.0260 C   0  0  0  0  0  0  0  0  0  0  0  0
  139.6470   75.7420  222.2790 C   0  0  0  0  0  0  0  0  0  0  0  0
  138.3660   75.6600  222.7040 N   0  0  0  0  0  0  0  0  0  0  0  0
  137.8980   76.9200  222.7200 C   0  0  0  0  0  0  0  0  0  0  0  0
  136.6210   77.3380  223.0920 C   0  0  0  0  0  0  0  0  0  0  0  0
  136.3400   78.7160  223.0370 C   0  0  0  0  0  0  0  0  0  0  0  0
  137.3290   79.6320  222.6170 C   0  0  0  0  0  0  0  0  0  0  0  0
  138.6090   79.1810  222.2480 C   0  0  0  0  0  0  0  0  0  0  0  0
  138.8610   77.8080  222.3120 C   0  0  0  0  0  0  0  0  0  0  0  0
  139.5339   75.1725  219.8625 H   0  0  0  0  0  0  0  0  0  0  0  0
  140.1101   75.1119  218.1418 H   0  0  0  0  0  0  0  0  0  0  0  0
  140.8849   73.3194  220.6508 H   0  0  0  0  0  0  0  0  0  0  0  0
  143.1353   72.5749  221.4273 H   0  0  0  0  0  0  0  0  0  0  0  0
  145.1694   73.8869  220.8138 H   0  0  0  0  0  0  0  0  0  0  0  0
  144.9541   75.9418  219.4125 H   0  0  0  0  0  0  0  0  0  0  0  0
  142.7097   76.6920  218.6283 H   0  0  0  0  0  0  0  0  0  0  0  0
  141.8990   80.0041  219.4299 H   0  0  0  0  0  0  0  0  0  0  0  0
  140.2077   79.8945  219.9083 H   0  0  0  0  0  0  0  0  0  0  0  0
  141.7697   82.0747  221.4253 H   0  0  0  0  0  0  0  0  0  0  0  0
  142.4117   82.2832  223.8501 H   0  0  0  0  0  0  0  0  0  0  0  0
  142.5852   80.2319  225.2800 H   0  0  0  0  0  0  0  0  0  0  0  0
  142.1119   77.9680  224.2914 H   0  0  0  0  0  0  0  0  0  0  0  0
  142.0136   76.7319  221.6293 H   0  0  0  0  0  0  0  0  0  0  0  0
  140.3210   74.8822  222.1505 H   0  0  0  0  0  0  0  0  0  0  0  0
  137.8490   74.7910  222.9650 H   0  0  0  0  0  0  0  0  0  0  0  0
  135.8586   76.6150  223.4176 H   0  0  0  0  0  0  0  0  0  0  0  0
  135.3429   79.0819  223.3232 H   0  0  0  0  0  0  0  0  0  0  0  0
  137.0966   80.7065  222.5781 H   0  0  0  0  0  0  0  0  0  0  0  0
  139.3867   79.8863  221.9196 H   0  0  0  0  0  0  0  0  0  0  0  0
  1  2  2  0
  2  3  2  0
  2  4  1  0
  4  5  1  0
  5  6  2  0
  6  7  1  0
  7  8  2  0
  8  9  1  0
  9 10  2  0
  2 11  1  0
 11 12  1  0
 12 13  1  0
 13 14  2  0
 14 15  1  0
 15 16  2  0
 16 17  1  0
 17 18  2  0
 18 19  1  0
 19 20  1  0
 20 21  2  0
 21 22  1  0
 22 23  1  0
 23 24  2  0
 24 25  1  0
 25 26  2  0
 26 27  1  0
 27 28  2  0
 10  5  1  0
 19 11  1  0
 28 20  1  0
 18 13  1  0
 28 23  1  0
  4 29  1  0
  4 30  1  0
  6 31  1  0
  7 32  1  0
  8 33  1  0
  9 34  1  0
 10 35  1  0
 12 36  1  0
 12 37  1  0
 14 38  1  0
 15 39  1  0
 16 40  1  0
 17 41  1  0
 19 42  1  6
 21 43  1  0
 22 44  1  0
 24 45  1  0
 25 46  1  0
 26 47  1  0
 27 48  1  0
M  END
>  <UniqueID>  (63) 
8

>  <SMILES>  (63) 
O=S(=O)(Cc1ccccc1)N1Cc2ccccc2[C@H]1c1c[nH]c2ccccc12

>  <Energy>  (63) 
98.32218443584806

>  <Genealogy>  (63) 
O=S(=O)(Cc1ccccc1)N1Cc2ccccc2[C@H]1c1c[nH]c2ccccc12 (chirality)
O=S(=O)(Cc1ccccc1)N1Cc2ccccc2[C@H]1c1c[nH]c2ccccc12 (3D coordinates assigned)
O=S(=O)(Cc1ccccc1)N1Cc2ccccc2[C@H]1c1c[nH]c2ccccc12 (nonaromatic ring conformer: 98.32218443584806 kcal/mol)

>  <smiles>  (63) 
O=S(=O)(Cc1ccccc1)N1Cc2ccccc2C1c1c[nH]c2ccccc12

>  <score_type>  (63) 
oracle

>  <origin>  (63) 
autodockgpu

>  <m_score__min__energy>  (63) 
-7.29

>  <m_primary>  (63) 
energy

>  <meeko>  (63) 
{"free_energy": -6.91, "intermolecular_energy": -8.11, "internal_energy": -2.14, "cluster_size": 3, "cluster_id": 2, "rank_in_cluster": 3}

>  <energy>  (63) 
-7.28

>  <cluster_rmsd>  (63) 
0.02

>  <rmsd>  (63) 
271.34

>  <cluster>  (63) 
1

$$$$
WCZRIPJXOMUAPT-QHCPKHFHNA-N
     RDKit          3D

 48 52  0  0  0  0  0  0  0  0999 V2000
  141.1630   75.6030  222.3520 O   0  0  0  0  0  0  0  0  0  0  0  0
  140.2220   74.7320  221.5690 S   0  0  0  0  0  0  0  0  0  0  0  0
  139.9680   73.4680  222.3440 O   0  0  0  0  0  0  0  0  0  0  0  0
  141.0320   74.3340  220.0230 C   0  0  0  0  0  0  0  0  0  0  0  0
  142.4650   73.9250  220.2250 C   0  0  0  0  0  0  0  0  0  0  0  0
  142.7900   72.5870  220.5110 C   0  0  0  0  0  0  0  0  0  0  0  0
  144.1220   72.2130  220.7110 C   0  0  0  0  0  0  0  0  0  0  0  0
  145.1390   73.1660  220.6200 C   0  0  0  0  0  0  0  0  0  0  0  0
  144.8270   74.4950  220.3240 C   0  0  0  0  0  0  0  0  0  0  0  0
  143.4970   74.8750  220.1240 C   0  0  0  0  0  0  0  0  0  0  0  0
  138.7230   75.5970  221.2860 N   0  0  0  0  0  0  0  0  0  0  0  0
  137.9770   75.9090  222.5210 C   0  0  0  0  0  0  0  0  0  0  0  0
  137.2790   77.1780  222.2220 C   0  0  0  0  0  0  0  0  0  0  0  0
  136.2960   77.8210  222.9770 C   0  0  0  0  0  0  0  0  0  0  0  0
  135.7740   79.0350  222.4990 C   0  0  0  0  0  0  0  0  0  0  0  0
  136.2450   79.5810  221.2890 C   0  0  0  0  0  0  0  0  0  0  0  0
  137.2400   78.9150  220.5550 C   0  0  0  0  0  0  0  0  0  0  0  0
  137.7360   77.7060  221.0490 C   0  0  0  0  0  0  0  0  0  0  0  0
  138.8180   76.8550  220.4940 C   0  0  1  0  0  0  0  0  0  0  0  0
  140.1380   77.5880  220.6240 C   0  0  0  0  0  0  0  0  0  0  0  0
  141.1600   77.6600  219.6750 C   0  0  0  0  0  0  0  0  0  0  0  0
  142.1920   78.3990  220.1430 N   0  0  0  0  0  0  0  0  0  0  0  0
  141.8360   78.7920  221.3780 C   0  0  0  0  0  0  0  0  0  0  0  0
  142.5800   79.5780  222.2570 C   0  0  0  0  0  0  0  0  0  0  0  0
  142.0150   79.8760  223.5100 C   0  0  0  0  0  0  0  0  0  0  0  0
  140.7350   79.3880  223.8530 C   0  0  0  0  0  0  0  0  0  0  0  0
  140.0070   78.5960  222.9450 C   0  0  0  0  0  0  0  0  0  0  0  0
  140.5930   78.3160  221.7080 C   0  0  0  0  0  0  0  0  0  0  0  0
  140.4910   73.5058  219.5419 H   0  0  0  0  0  0  0  0  0  0  0  0
  141.0223   75.2358  219.3931 H   0  0  0  0  0  0  0  0  0  0  0  0
  141.9930   71.8318  220.5776 H   0  0  0  0  0  0  0  0  0  0  0  0
  144.3697   71.1661  220.9405 H   0  0  0  0  0  0  0  0  0  0  0  0
  146.1860   72.8699  220.7815 H   0  0  0  0  0  0  0  0  0  0  0  0
  145.6293   75.2437  220.2482 H   0  0  0  0  0  0  0  0  0  0  0  0
  143.2564   75.9218  219.8865 H   0  0  0  0  0  0  0  0  0  0  0  0
  137.2540   75.1123  222.7501 H   0  0  0  0  0  0  0  0  0  0  0  0
  138.6359   75.9909  223.3980 H   0  0  0  0  0  0  0  0  0  0  0  0
  135.9389   77.3878  223.9229 H   0  0  0  0  0  0  0  0  0  0  0  0
  134.9953   79.5604  223.0714 H   0  0  0  0  0  0  0  0  0  0  0  0
  135.8326   80.5310  220.9182 H   0  0  0  0  0  0  0  0  0  0  0  0
  137.6202   79.3358  219.6124 H   0  0  0  0  0  0  0  0  0  0  0  0
  138.7333   76.6251  219.4216 H   0  0  0  0  0  0  0  0  0  0  0  0
  141.1300   77.1822  218.6846 H   0  0  0  0  0  0  0  0  0  0  0  0
  143.0820   78.6160  219.6420 H   0  0  0  0  0  0  0  0  0  0  0  0
  143.5763   79.9528  221.9796 H   0  0  0  0  0  0  0  0  0  0  0  0
  142.5743   80.4937  224.2281 H   0  0  0  0  0  0  0  0  0  0  0  0
  140.3040   79.6283  224.8361 H   0  0  0  0  0  0  0  0  0  0  0  0
  139.0092   78.2101  223.2011 H   0  0  0  0  0  0  0  0  0  0  0  0
  1  2  2  0
  2  3  2  0
  2  4  1  0
  4  5  1  0
  5  6  2  0
  6  7  1  0
  7  8  2  0
  8  9  1  0
  9 10  2  0
  2 11  1  0
 11 12  1  0
 12 13  1  0
 13 14  2  0
 14 15  1  0
 15 16  2  0
 16 17  1  0
 17 18  2  0
 18 19  1  0
 19 20  1  0
 20 21  2  0
 21 22  1  0
 22 23  1  0
 23 24  2  0
 24 25  1  0
 25 26  2  0
 26 27  1  0
 27 28  2  0
 10  5  1  0
 19 11  1  0
 28 20  1  0
 18 13  1  0
 28 23  1  0
  4 29  1  0
  4 30  1  0
  6 31  1  0
  7 32  1  0
  8 33  1  0
  9 34  1  0
 10 35  1  0
 12 36  1  0
 12 37  1  0
 14 38  1  0
 15 39  1  0
 16 40  1  0
 17 41  1  0
 19 42  1  6
 21 43  1  0
 22 44  1  0
 24 45  1  0
 25 46  1  0
 26 47  1  0
 27 48  1  0
M  END
>  <UniqueID>  (64) 
8

>  <SMILES>  (64) 
O=S(=O)(Cc1ccccc1)N1Cc2ccccc2[C@H]1c1c[nH]c2ccccc12

>  <Energy>  (64) 
98.32218443584806

>  <Genealogy>  (64) 
O=S(=O)(Cc1ccccc1)N1Cc2ccccc2[C@H]1c1c[nH]c2ccccc12 (chirality)
O=S(=O)(Cc1ccccc1)N1Cc2ccccc2[C@H]1c1c[nH]c2ccccc12 (3D coordinates assigned)
O=S(=O)(Cc1ccccc1)N1Cc2ccccc2[C@H]1c1c[nH]c2ccccc12 (nonaromatic ring conformer: 98.32218443584806 kcal/mol)

>  <smiles>  (64) 
O=S(=O)(Cc1ccccc1)N1Cc2ccccc2C1c1c[nH]c2ccccc12

>  <score_type>  (64) 
oracle

>  <origin>  (64) 
autodockgpu

>  <m_score__min__energy>  (64) 
-7.29

>  <m_primary>  (64) 
energy

>  <meeko>  (64) 
{"free_energy": -7.27, "intermolecular_energy": -8.46, "internal_energy": -1.97, "cluster_size": 14, "cluster_id": 1, "rank_in_cluster": 8}

>  <energy>  (64) 
-7.27

>  <cluster_rmsd>  (64) 
0.04

>  <rmsd>  (64) 
271.33

>  <cluster>  (64) 
1

$$$$
WCZRIPJXOMUAPT-QHCPKHFHNA-N
     RDKit          3D

 48 52  0  0  0  0  0  0  0  0999 V2000
  141.1610   75.6180  222.3380 O   0  0  0  0  0  0  0  0  0  0  0  0
  140.2190   74.7360  221.5680 S   0  0  0  0  0  0  0  0  0  0  0  0
  139.9690   73.4810  222.3590 O   0  0  0  0  0  0  0  0  0  0  0  0
  141.0250   74.3210  220.0240 C   0  0  0  0  0  0  0  0  0  0  0  0
  142.4640   73.9310  220.2260 C   0  0  0  0  0  0  0  0  0  0  0  0
  142.8090   72.5960  220.4980 C   0  0  0  0  0  0  0  0  0  0  0  0
  144.1460   72.2390  220.6970 C   0  0  0  0  0  0  0  0  0  0  0  0
  145.1490   73.2090  220.6190 C   0  0  0  0  0  0  0  0  0  0  0  0
  144.8160   74.5360  220.3370 C   0  0  0  0  0  0  0  0  0  0  0  0
  143.4820   74.8980  220.1370 C   0  0  0  0  0  0  0  0  0  0  0  0
  138.7190   75.5960  221.2780 N   0  0  0  0  0  0  0  0  0  0  0  0
  137.9690   75.9090  222.5110 C   0  0  0  0  0  0  0  0  0  0  0  0
  137.2670   77.1750  222.2070 C   0  0  0  0  0  0  0  0  0  0  0  0
  136.2810   77.8180  222.9570 C   0  0  0  0  0  0  0  0  0  0  0  0
  135.7560   79.0290  222.4750 C   0  0  0  0  0  0  0  0  0  0  0  0
  136.2290   79.5720  221.2640 C   0  0  0  0  0  0  0  0  0  0  0  0
  137.2280   78.9080  220.5350 C   0  0  0  0  0  0  0  0  0  0  0  0
  137.7250   77.7020  221.0330 C   0  0  0  0  0  0  0  0  0  0  0  0
  138.8120   76.8520  220.4830 C   0  0  1  0  0  0  0  0  0  0  0  0
  140.1300   77.5890  220.6150 C   0  0  0  0  0  0  0  0  0  0  0  0
  141.1520   77.6640  219.6670 C   0  0  0  0  0  0  0  0  0  0  0  0
  142.1810   78.4060  220.1360 N   0  0  0  0  0  0  0  0  0  0  0  0
  141.8230   78.7990  221.3700 C   0  0  0  0  0  0  0  0  0  0  0  0
  142.5630   79.5880  222.2490 C   0  0  0  0  0  0  0  0  0  0  0  0
  141.9960   79.8850  223.5020 C   0  0  0  0  0  0  0  0  0  0  0  0
  140.7170   79.3930  223.8430 C   0  0  0  0  0  0  0  0  0  0  0  0
  139.9920   78.5980  222.9350 C   0  0  0  0  0  0  0  0  0  0  0  0
  140.5800   78.3200  221.6990 C   0  0  0  0  0  0  0  0  0  0  0  0
  140.4907   73.4790  219.5597 H   0  0  0  0  0  0  0  0  0  0  0  0
  141.0019   75.2116  219.3787 H   0  0  0  0  0  0  0  0  0  0  0  0
  142.0233   71.8283  220.5546 H   0  0  0  0  0  0  0  0  0  0  0  0
  144.4088   71.1934  220.9152 H   0  0  0  0  0  0  0  0  0  0  0  0
  146.2002   72.9277  220.7796 H   0  0  0  0  0  0  0  0  0  0  0  0
  145.6067   75.2980  220.2723 H   0  0  0  0  0  0  0  0  0  0  0  0
  143.2263   75.9433  219.9090 H   0  0  0  0  0  0  0  0  0  0  0  0
  137.2483   75.1104  222.7409 H   0  0  0  0  0  0  0  0  0  0  0  0
  138.6258   75.9957  223.3891 H   0  0  0  0  0  0  0  0  0  0  0  0
  135.9232   77.3867  223.9035 H   0  0  0  0  0  0  0  0  0  0  0  0
  134.9745   79.5539  223.0440 H   0  0  0  0  0  0  0  0  0  0  0  0
  135.8142   80.5191  220.8887 H   0  0  0  0  0  0  0  0  0  0  0  0
  137.6105   79.3281  219.5931 H   0  0  0  0  0  0  0  0  0  0  0  0
  138.7306   76.6193  219.4110 H   0  0  0  0  0  0  0  0  0  0  0  0
  141.1243   77.1862  218.6766 H   0  0  0  0  0  0  0  0  0  0  0  0
  143.0700   78.6270  219.6360 H   0  0  0  0  0  0  0  0  0  0  0  0
  143.5581   79.9662  221.9721 H   0  0  0  0  0  0  0  0  0  0  0  0
  142.5526   80.5045  224.2206 H   0  0  0  0  0  0  0  0  0  0  0  0
  140.2840   79.6327  224.8254 H   0  0  0  0  0  0  0  0  0  0  0  0
  138.9954   78.2087  223.1905 H   0  0  0  0  0  0  0  0  0  0  0  0
  1  2  2  0
  2  3  2  0
  2  4  1  0
  4  5  1  0
  5  6  2  0
  6  7  1  0
  7  8  2  0
  8  9  1  0
  9 10  2  0
  2 11  1  0
 11 12  1  0
 12 13  1  0
 13 14  2  0
 14 15  1  0
 15 16  2  0
 16 17  1  0
 17 18  2  0
 18 19  1  0
 19 20  1  0
 20 21  2  0
 21 22  1  0
 22 23  1  0
 23 24  2  0
 24 25  1  0
 25 26  2  0
 26 27  1  0
 27 28  2  0
 10  5  1  0
 19 11  1  0
 28 20  1  0
 18 13  1  0
 28 23  1  0
  4 29  1  0
  4 30  1  0
  6 31  1  0
  7 32  1  0
  8 33  1  0
  9 34  1  0
 10 35  1  0
 12 36  1  0
 12 37  1  0
 14 38  1  0
 15 39  1  0
 16 40  1  0
 17 41  1  0
 19 42  1  6
 21 43  1  0
 22 44  1  0
 24 45  1  0
 25 46  1  0
 26 47  1  0
 27 48  1  0
M  END
>  <UniqueID>  (65) 
8

>  <SMILES>  (65) 
O=S(=O)(Cc1ccccc1)N1Cc2ccccc2[C@H]1c1c[nH]c2ccccc12

>  <Energy>  (65) 
98.32218443584806

>  <Genealogy>  (65) 
O=S(=O)(Cc1ccccc1)N1Cc2ccccc2[C@H]1c1c[nH]c2ccccc12 (chirality)
O=S(=O)(Cc1ccccc1)N1Cc2ccccc2[C@H]1c1c[nH]c2ccccc12 (3D coordinates assigned)
O=S(=O)(Cc1ccccc1)N1Cc2ccccc2[C@H]1c1c[nH]c2ccccc12 (nonaromatic ring conformer: 98.32218443584806 kcal/mol)

>  <smiles>  (65) 
O=S(=O)(Cc1ccccc1)N1Cc2ccccc2C1c1c[nH]c2ccccc12

>  <score_type>  (65) 
oracle

>  <origin>  (65) 
autodockgpu

>  <m_score__min__energy>  (65) 
-7.29

>  <m_primary>  (65) 
energy

>  <meeko>  (65) 
{"free_energy": -7.27, "intermolecular_energy": -8.46, "internal_energy": -1.97, "cluster_size": 14, "cluster_id": 1, "rank_in_cluster": 7}

>  <energy>  (65) 
-7.27

>  <cluster_rmsd>  (65) 
0.04

>  <rmsd>  (65) 
271.34

>  <cluster>  (65) 
1

$$$$
WCZRIPJXOMUAPT-QHCPKHFHNA-N
     RDKit          3D

 48 52  0  0  0  0  0  0  0  0999 V2000
  141.1560   75.6460  222.4090 O   0  0  0  0  0  0  0  0  0  0  0  0
  140.2180   74.7970  221.5980 S   0  0  0  0  0  0  0  0  0  0  0  0
  139.9670   73.5100  222.3340 O   0  0  0  0  0  0  0  0  0  0  0  0
  141.0310   74.4500  220.0410 C   0  0  0  0  0  0  0  0  0  0  0  0
  142.4530   74.0010  220.2350 C   0  0  0  0  0  0  0  0  0  0  0  0
  143.5200   74.8700  219.9470 C   0  0  0  0  0  0  0  0  0  0  0  0
  144.8410   74.4460  220.1160 C   0  0  0  0  0  0  0  0  0  0  0  0
  145.1080   73.1560  220.5800 C   0  0  0  0  0  0  0  0  0  0  0  0
  144.0540   72.2890  220.8810 C   0  0  0  0  0  0  0  0  0  0  0  0
  142.7320   72.7090  220.7130 C   0  0  0  0  0  0  0  0  0  0  0  0
  138.7180   75.6670  221.3400 N   0  0  0  0  0  0  0  0  0  0  0  0
  137.9870   75.9700  222.5870 C   0  0  0  0  0  0  0  0  0  0  0  0
  137.2870   77.2420  222.3080 C   0  0  0  0  0  0  0  0  0  0  0  0
  136.3140   77.8810  223.0790 C   0  0  0  0  0  0  0  0  0  0  0  0
  135.7880   79.0990  222.6180 C   0  0  0  0  0  0  0  0  0  0  0  0
  136.2460   79.6540  221.4070 C   0  0  0  0  0  0  0  0  0  0  0  0
  137.2310   78.9940  220.6560 C   0  0  0  0  0  0  0  0  0  0  0  0
  137.7310   77.7800  221.1340 C   0  0  0  0  0  0  0  0  0  0  0  0
  138.8050   76.9320  220.5580 C   0  0  1  0  0  0  0  0  0  0  0  0
  140.1280   77.6620  220.6790 C   0  0  0  0  0  0  0  0  0  0  0  0
  141.1390   77.7400  219.7190 C   0  0  0  0  0  0  0  0  0  0  0  0
  142.1770   78.4740  220.1810 N   0  0  0  0  0  0  0  0  0  0  0  0
  141.8360   78.8570  221.4220 C   0  0  0  0  0  0  0  0  0  0  0  0
  142.5920   79.6350  222.2990 C   0  0  0  0  0  0  0  0  0  0  0  0
  142.0410   79.9240  223.5610 C   0  0  0  0  0  0  0  0  0  0  0  0
  140.7650   79.4350  223.9150 C   0  0  0  0  0  0  0  0  0  0  0  0
  140.0250   78.6520  223.0090 C   0  0  0  0  0  0  0  0  0  0  0  0
  140.5960   78.3810  221.7630 C   0  0  0  0  0  0  0  0  0  0  0  0
  140.4760   73.6560  219.5199 H   0  0  0  0  0  0  0  0  0  0  0  0
  141.0456   75.3785  219.4514 H   0  0  0  0  0  0  0  0  0  0  0  0
  143.3141   75.8888  219.5869 H   0  0  0  0  0  0  0  0  0  0  0  0
  145.6713   75.1290  219.8833 H   0  0  0  0  0  0  0  0  0  0  0  0
  146.1482   72.8223  220.7086 H   0  0  0  0  0  0  0  0  0  0  0  0
  144.2654   71.2748  221.2506 H   0  0  0  0  0  0  0  0  0  0  0  0
  141.9054   72.0251  220.9560 H   0  0  0  0  0  0  0  0  0  0  0  0
  137.2658   75.1722  222.8182 H   0  0  0  0  0  0  0  0  0  0  0  0
  138.6569   76.0440  223.4563 H   0  0  0  0  0  0  0  0  0  0  0  0
  135.9674   77.4407  224.0256 H   0  0  0  0  0  0  0  0  0  0  0  0
  135.0168   79.6206  223.2038 H   0  0  0  0  0  0  0  0  0  0  0  0
  135.8304   80.6075  221.0489 H   0  0  0  0  0  0  0  0  0  0  0  0
  137.6008   79.4226  219.7129 H   0  0  0  0  0  0  0  0  0  0  0  0
  138.7066   76.7119  219.4847 H   0  0  0  0  0  0  0  0  0  0  0  0
  141.0971   77.2700  218.7254 H   0  0  0  0  0  0  0  0  0  0  0  0
  143.0610   78.6940  219.6710 H   0  0  0  0  0  0  0  0  0  0  0  0
  143.5859   80.0101  222.0134 H   0  0  0  0  0  0  0  0  0  0  0  0
  142.6090   80.5358  224.2773 H   0  0  0  0  0  0  0  0  0  0  0  0
  140.3462   79.6673  224.9053 H   0  0  0  0  0  0  0  0  0  0  0  0
  139.0295   78.2660  223.2735 H   0  0  0  0  0  0  0  0  0  0  0  0
  1  2  2  0
  2  3  2  0
  2  4  1  0
  4  5  1  0
  5  6  2  0
  6  7  1  0
  7  8  2  0
  8  9  1  0
  9 10  2  0
  2 11  1  0
 11 12  1  0
 12 13  1  0
 13 14  2  0
 14 15  1  0
 15 16  2  0
 16 17  1  0
 17 18  2  0
 18 19  1  0
 19 20  1  0
 20 21  2  0
 21 22  1  0
 22 23  1  0
 23 24  2  0
 24 25  1  0
 25 26  2  0
 26 27  1  0
 27 28  2  0
 10  5  1  0
 19 11  1  0
 28 20  1  0
 18 13  1  0
 28 23  1  0
  4 29  1  0
  4 30  1  0
  6 31  1  0
  7 32  1  0
  8 33  1  0
  9 34  1  0
 10 35  1  0
 12 36  1  0
 12 37  1  0
 14 38  1  0
 15 39  1  0
 16 40  1  0
 17 41  1  0
 19 42  1  6
 21 43  1  0
 22 44  1  0
 24 45  1  0
 25 46  1  0
 26 47  1  0
 27 48  1  0
M  END
>  <UniqueID>  (66) 
8

>  <SMILES>  (66) 
O=S(=O)(Cc1ccccc1)N1Cc2ccccc2[C@H]1c1c[nH]c2ccccc12

>  <Energy>  (66) 
98.32218443584806

>  <Genealogy>  (66) 
O=S(=O)(Cc1ccccc1)N1Cc2ccccc2[C@H]1c1c[nH]c2ccccc12 (chirality)
O=S(=O)(Cc1ccccc1)N1Cc2ccccc2[C@H]1c1c[nH]c2ccccc12 (3D coordinates assigned)
O=S(=O)(Cc1ccccc1)N1Cc2ccccc2[C@H]1c1c[nH]c2ccccc12 (nonaromatic ring conformer: 98.32218443584806 kcal/mol)

>  <smiles>  (66) 
O=S(=O)(Cc1ccccc1)N1Cc2ccccc2C1c1c[nH]c2ccccc12

>  <score_type>  (66) 
oracle

>  <origin>  (66) 
autodockgpu

>  <m_score__min__energy>  (66) 
-7.29

>  <m_primary>  (66) 
energy

>  <meeko>  (66) 
{"free_energy": -7.15, "intermolecular_energy": -8.35, "internal_energy": -1.96, "cluster_size": 14, "cluster_id": 1, "rank_in_cluster": 14}

>  <energy>  (66) 
-7.27

>  <cluster_rmsd>  (66) 
0.02

>  <rmsd>  (66) 
271.34

>  <cluster>  (66) 
1

$$$$
WCZRIPJXOMUAPT-QHCPKHFHNA-N
     RDKit          3D

 48 52  0  0  0  0  0  0  0  0999 V2000
  141.1640   75.5780  222.3470 O   0  0  0  0  0  0  0  0  0  0  0  0
  140.2240   74.6900  221.5810 S   0  0  0  0  0  0  0  0  0  0  0  0
  139.9710   73.4420  222.3820 O   0  0  0  0  0  0  0  0  0  0  0  0
  141.0370   74.2610  220.0450 C   0  0  0  0  0  0  0  0  0  0  0  0
  142.4780   73.8820  220.2550 C   0  0  0  0  0  0  0  0  0  0  0  0
  143.4860   74.8610  220.2070 C   0  0  0  0  0  0  0  0  0  0  0  0
  144.8250   74.5040  220.3910 C   0  0  0  0  0  0  0  0  0  0  0  0
  145.1680   73.1710  220.6290 C   0  0  0  0  0  0  0  0  0  0  0  0
  144.1720   72.1930  220.6900 C   0  0  0  0  0  0  0  0  0  0  0  0
  142.8320   72.5450  220.5080 C   0  0  0  0  0  0  0  0  0  0  0  0
  138.7260   75.5480  221.2770 N   0  0  0  0  0  0  0  0  0  0  0  0
  137.9650   75.8620  222.5030 C   0  0  0  0  0  0  0  0  0  0  0  0
  137.2640   77.1260  222.1920 C   0  0  0  0  0  0  0  0  0  0  0  0
  136.2710   77.7690  222.9330 C   0  0  0  0  0  0  0  0  0  0  0  0
  135.7490   78.9780  222.4450 C   0  0  0  0  0  0  0  0  0  0  0  0
  136.2320   79.5210  221.2380 C   0  0  0  0  0  0  0  0  0  0  0  0
  137.2380   78.8580  220.5180 C   0  0  0  0  0  0  0  0  0  0  0  0
  137.7330   77.6520  221.0220 C   0  0  0  0  0  0  0  0  0  0  0  0
  138.8250   76.8030  220.4820 C   0  0  1  0  0  0  0  0  0  0  0  0
  140.1400   77.5430  220.6250 C   0  0  0  0  0  0  0  0  0  0  0  0
  141.1730   77.6140  219.6880 C   0  0  0  0  0  0  0  0  0  0  0  0
  142.1960   78.3590  220.1650 N   0  0  0  0  0  0  0  0  0  0  0  0
  141.8240   78.7570  221.3930 C   0  0  0  0  0  0  0  0  0  0  0  0
  142.5550   79.5500  222.2770 C   0  0  0  0  0  0  0  0  0  0  0  0
  141.9730   79.8520  223.5220 C   0  0  0  0  0  0  0  0  0  0  0  0
  140.6910   79.3600  223.8520 C   0  0  0  0  0  0  0  0  0  0  0  0
  139.9780   78.5610  222.9390 C   0  0  0  0  0  0  0  0  0  0  0  0
  140.5790   78.2780  221.7110 C   0  0  0  0  0  0  0  0  0  0  0  0
  140.5090   73.4102  219.5896 H   0  0  0  0  0  0  0  0  0  0  0  0
  141.0106   75.1438  219.3892 H   0  0  0  0  0  0  0  0  0  0  0  0
  143.2198   75.9125  220.0238 H   0  0  0  0  0  0  0  0  0  0  0  0
  145.6096   75.2738  220.3483 H   0  0  0  0  0  0  0  0  0  0  0  0
  146.2226   72.8911  220.7684 H   0  0  0  0  0  0  0  0  0  0  0  0
  144.4431   71.1443  220.8816 H   0  0  0  0  0  0  0  0  0  0  0  0
  142.0507   71.7727  220.5629 H   0  0  0  0  0  0  0  0  0  0  0  0
  137.2435   75.0627  222.7278 H   0  0  0  0  0  0  0  0  0  0  0  0
  138.6144   75.9510  223.3863 H   0  0  0  0  0  0  0  0  0  0  0  0
  135.9058   77.3387  223.8772 H   0  0  0  0  0  0  0  0  0  0  0  0
  134.9614   79.5021  223.0063 H   0  0  0  0  0  0  0  0  0  0  0  0
  135.8194   80.4675  220.8587 H   0  0  0  0  0  0  0  0  0  0  0  0
  137.6278   79.2778  219.5789 H   0  0  0  0  0  0  0  0  0  0  0  0
  138.7540   76.5683  219.4097 H   0  0  0  0  0  0  0  0  0  0  0  0
  141.1569   77.1313  218.6997 H   0  0  0  0  0  0  0  0  0  0  0  0
  143.0910   78.5780  219.6730 H   0  0  0  0  0  0  0  0  0  0  0  0
  143.5533   79.9269  222.0099 H   0  0  0  0  0  0  0  0  0  0  0  0
  142.5207   80.4759  224.2436 H   0  0  0  0  0  0  0  0  0  0  0  0
  140.2471   79.6028  224.8287 H   0  0  0  0  0  0  0  0  0  0  0  0
  138.9790   78.1718  223.1850 H   0  0  0  0  0  0  0  0  0  0  0  0
  1  2  2  0
  2  3  2  0
  2  4  1  0
  4  5  1  0
  5  6  2  0
  6  7  1  0
  7  8  2  0
  8  9  1  0
  9 10  2  0
  2 11  1  0
 11 12  1  0
 12 13  1  0
 13 14  2  0
 14 15  1  0
 15 16  2  0
 16 17  1  0
 17 18  2  0
 18 19  1  0
 19 20  1  0
 20 21  2  0
 21 22  1  0
 22 23  1  0
 23 24  2  0
 24 25  1  0
 25 26  2  0
 26 27  1  0
 27 28  2  0
 10  5  1  0
 19 11  1  0
 28 20  1  0
 18 13  1  0
 28 23  1  0
  4 29  1  0
  4 30  1  0
  6 31  1  0
  7 32  1  0
  8 33  1  0
  9 34  1  0
 10 35  1  0
 12 36  1  0
 12 37  1  0
 14 38  1  0
 15 39  1  0
 16 40  1  0
 17 41  1  0
 19 42  1  6
 21 43  1  0
 22 44  1  0
 24 45  1  0
 25 46  1  0
 26 47  1  0
 27 48  1  0
M  END
>  <UniqueID>  (67) 
8

>  <SMILES>  (67) 
O=S(=O)(Cc1ccccc1)N1Cc2ccccc2[C@H]1c1c[nH]c2ccccc12

>  <Energy>  (67) 
98.32218443584806

>  <Genealogy>  (67) 
O=S(=O)(Cc1ccccc1)N1Cc2ccccc2[C@H]1c1c[nH]c2ccccc12 (chirality)
O=S(=O)(Cc1ccccc1)N1Cc2ccccc2[C@H]1c1c[nH]c2ccccc12 (3D coordinates assigned)
O=S(=O)(Cc1ccccc1)N1Cc2ccccc2[C@H]1c1c[nH]c2ccccc12 (nonaromatic ring conformer: 98.32218443584806 kcal/mol)

>  <smiles>  (67) 
O=S(=O)(Cc1ccccc1)N1Cc2ccccc2C1c1c[nH]c2ccccc12

>  <score_type>  (67) 
oracle

>  <origin>  (67) 
autodockgpu

>  <m_score__min__energy>  (67) 
-7.29

>  <m_primary>  (67) 
energy

>  <meeko>  (67) 
{"free_energy": -7.27, "intermolecular_energy": -8.47, "internal_energy": -1.96, "cluster_size": 14, "cluster_id": 1, "rank_in_cluster": 4}

>  <energy>  (67) 
-7.27

>  <cluster_rmsd>  (67) 
0.03

>  <rmsd>  (67) 
271.34

>  <cluster>  (67) 
1

$$$$
WCZRIPJXOMUAPT-QHCPKHFHNA-N
     RDKit          3D

 48 52  0  0  0  0  0  0  0  0999 V2000
  141.1660   75.6150  222.3450 O   0  0  0  0  0  0  0  0  0  0  0  0
  140.2270   74.7260  221.5790 S   0  0  0  0  0  0  0  0  0  0  0  0
  139.9770   73.4770  222.3790 O   0  0  0  0  0  0  0  0  0  0  0  0
  141.0380   74.3000  220.0400 C   0  0  0  0  0  0  0  0  0  0  0  0
  142.4790   73.9200  220.2480 C   0  0  0  0  0  0  0  0  0  0  0  0
  142.8310   72.5870  220.5250 C   0  0  0  0  0  0  0  0  0  0  0  0
  144.1700   72.2400  220.7290 C   0  0  0  0  0  0  0  0  0  0  0  0
  145.1670   73.2160  220.6520 C   0  0  0  0  0  0  0  0  0  0  0  0
  144.8270   74.5410  220.3650 C   0  0  0  0  0  0  0  0  0  0  0  0
  143.4900   74.8930  220.1600 C   0  0  0  0  0  0  0  0  0  0  0  0
  138.7270   75.5810  221.2790 N   0  0  0  0  0  0  0  0  0  0  0  0
  137.9680   75.8940  222.5060 C   0  0  0  0  0  0  0  0  0  0  0  0
  137.2650   77.1580  222.1970 C   0  0  0  0  0  0  0  0  0  0  0  0
  136.2720   77.7990  222.9400 C   0  0  0  0  0  0  0  0  0  0  0  0
  135.7470   79.0070  222.4530 C   0  0  0  0  0  0  0  0  0  0  0  0
  136.2260   79.5510  221.2450 C   0  0  0  0  0  0  0  0  0  0  0  0
  137.2320   78.8890  220.5220 C   0  0  0  0  0  0  0  0  0  0  0  0
  137.7290   77.6840  221.0260 C   0  0  0  0  0  0  0  0  0  0  0  0
  138.8210   76.8370  220.4830 C   0  0  1  0  0  0  0  0  0  0  0  0
  140.1360   77.5780  220.6220 C   0  0  0  0  0  0  0  0  0  0  0  0
  141.1670   77.6500  219.6830 C   0  0  0  0  0  0  0  0  0  0  0  0
  142.1900   78.3970  220.1570 N   0  0  0  0  0  0  0  0  0  0  0  0
  141.8200   78.7950  221.3860 C   0  0  0  0  0  0  0  0  0  0  0  0
  142.5510   79.5910  222.2670 C   0  0  0  0  0  0  0  0  0  0  0  0
  141.9720   79.8940  223.5130 C   0  0  0  0  0  0  0  0  0  0  0  0
  140.6910   79.4000  223.8460 C   0  0  0  0  0  0  0  0  0  0  0  0
  139.9760   78.5990  222.9360 C   0  0  0  0  0  0  0  0  0  0  0  0
  140.5760   78.3150  221.7060 C   0  0  0  0  0  0  0  0  0  0  0  0
  140.5091   73.4505  219.5833 H   0  0  0  0  0  0  0  0  0  0  0  0
  141.0110   75.1840  219.3859 H   0  0  0  0  0  0  0  0  0  0  0  0
  142.0500   71.8144  220.5814 H   0  0  0  0  0  0  0  0  0  0  0  0
  144.4391   71.1967  220.9506 H   0  0  0  0  0  0  0  0  0  0  0  0
  146.2193   72.9416  220.8172 H   0  0  0  0  0  0  0  0  0  0  0  0
  145.6129   75.3079  220.3004 H   0  0  0  0  0  0  0  0  0  0  0  0
  143.2276   75.9359  219.9288 H   0  0  0  0  0  0  0  0  0  0  0  0
  137.2475   75.0940  222.7317 H   0  0  0  0  0  0  0  0  0  0  0  0
  138.6191   75.9834  223.3881 H   0  0  0  0  0  0  0  0  0  0  0  0
  135.9093   77.3679  223.8848 H   0  0  0  0  0  0  0  0  0  0  0  0
  134.9598   79.5297  223.0161 H   0  0  0  0  0  0  0  0  0  0  0  0
  135.8110   80.4969  220.8669 H   0  0  0  0  0  0  0  0  0  0  0  0
  137.6192   79.3089  219.5819 H   0  0  0  0  0  0  0  0  0  0  0  0
  138.7464   76.6031  219.4108 H   0  0  0  0  0  0  0  0  0  0  0  0
  141.1496   77.1664  218.6952 H   0  0  0  0  0  0  0  0  0  0  0  0
  143.0830   78.6170  219.6640 H   0  0  0  0  0  0  0  0  0  0  0  0
  143.5478   79.9697  221.9967 H   0  0  0  0  0  0  0  0  0  0  0  0
  142.5204   80.5196  224.2326 H   0  0  0  0  0  0  0  0  0  0  0  0
  140.2492   79.6432  224.8236 H   0  0  0  0  0  0  0  0  0  0  0  0
  138.9778   78.2093  223.1846 H   0  0  0  0  0  0  0  0  0  0  0  0
  1  2  2  0
  2  3  2  0
  2  4  1  0
  4  5  1  0
  5  6  2  0
  6  7  1  0
  7  8  2  0
  8  9  1  0
  9 10  2  0
  2 11  1  0
 11 12  1  0
 12 13  1  0
 13 14  2  0
 14 15  1  0
 15 16  2  0
 16 17  1  0
 17 18  2  0
 18 19  1  0
 19 20  1  0
 20 21  2  0
 21 22  1  0
 22 23  1  0
 23 24  2  0
 24 25  1  0
 25 26  2  0
 26 27  1  0
 27 28  2  0
 10  5  1  0
 19 11  1  0
 28 20  1  0
 18 13  1  0
 28 23  1  0
  4 29  1  0
  4 30  1  0
  6 31  1  0
  7 32  1  0
  8 33  1  0
  9 34  1  0
 10 35  1  0
 12 36  1  0
 12 37  1  0
 14 38  1  0
 15 39  1  0
 16 40  1  0
 17 41  1  0
 19 42  1  6
 21 43  1  0
 22 44  1  0
 24 45  1  0
 25 46  1  0
 26 47  1  0
 27 48  1  0
M  END
>  <UniqueID>  (68) 
8

>  <SMILES>  (68) 
O=S(=O)(Cc1ccccc1)N1Cc2ccccc2[C@H]1c1c[nH]c2ccccc12

>  <Energy>  (68) 
98.32218443584806

>  <Genealogy>  (68) 
O=S(=O)(Cc1ccccc1)N1Cc2ccccc2[C@H]1c1c[nH]c2ccccc12 (chirality)
O=S(=O)(Cc1ccccc1)N1Cc2ccccc2[C@H]1c1c[nH]c2ccccc12 (3D coordinates assigned)
O=S(=O)(Cc1ccccc1)N1Cc2ccccc2[C@H]1c1c[nH]c2ccccc12 (nonaromatic ring conformer: 98.32218443584806 kcal/mol)

>  <smiles>  (68) 
O=S(=O)(Cc1ccccc1)N1Cc2ccccc2C1c1c[nH]c2ccccc12

>  <score_type>  (68) 
oracle

>  <origin>  (68) 
autodockgpu

>  <m_score__min__energy>  (68) 
-7.29

>  <m_primary>  (68) 
energy

>  <meeko>  (68) 
{"free_energy": -7.29, "intermolecular_energy": -8.48, "internal_energy": -1.97, "cluster_size": 14, "cluster_id": 1, "rank_in_cluster": 1}

>  <energy>  (68) 
-7.27

>  <cluster_rmsd>  (68) 
0.04

>  <rmsd>  (68) 
271.34

>  <cluster>  (68) 
1

$$$$
WCZRIPJXOMUAPT-QHCPKHFHNA-N
     RDKit          3D

 48 52  0  0  0  0  0  0  0  0999 V2000
  138.8010   77.6640  219.4200 O   0  0  0  0  0  0  0  0  0  0  0  0
  140.2020   77.2770  219.0340 S   0  0  0  0  0  0  0  0  0  0  0  0
  140.4510   77.7020  217.6130 O   0  0  0  0  0  0  0  0  0  0  0  0
  140.3100   75.4940  219.1550 C   0  0  0  0  0  0  0  0  0  0  0  0
  141.6680   75.0400  219.6160 C   0  0  0  0  0  0  0  0  0  0  0  0
  141.8030   73.8780  220.3960 C   0  0  0  0  0  0  0  0  0  0  0  0
  143.0650   73.4660  220.8330 C   0  0  0  0  0  0  0  0  0  0  0  0
  144.2010   74.2040  220.4900 C   0  0  0  0  0  0  0  0  0  0  0  0
  144.0770   75.3530  219.7050 C   0  0  0  0  0  0  0  0  0  0  0  0
  142.8180   75.7690  219.2650 C   0  0  0  0  0  0  0  0  0  0  0  0
  141.3410   78.0470  220.1220 N   0  0  0  0  0  0  0  0  0  0  0  0
  141.2230   79.5190  220.1570 C   0  0  0  0  0  0  0  0  0  0  0  0
  141.6150   79.8900  221.5340 C   0  0  0  0  0  0  0  0  0  0  0  0
  141.8530   81.1650  222.0500 C   0  0  0  0  0  0  0  0  0  0  0  0
  142.2080   81.2820  223.4040 C   0  0  0  0  0  0  0  0  0  0  0  0
  142.3120   80.1320  224.2110 C   0  0  0  0  0  0  0  0  0  0  0  0
  142.0580   78.8630  223.6670 C   0  0  0  0  0  0  0  0  0  0  0  0
  141.7150   78.7750  222.3150 C   0  0  0  0  0  0  0  0  0  0  0  0
  141.3470   77.5680  221.5320 C   0  0  1  0  0  0  0  0  0  0  0  0
  140.0130   77.0460  222.0300 C   0  0  0  0  0  0  0  0  0  0  0  0
  139.6710   75.7160  222.2850 C   0  0  0  0  0  0  0  0  0  0  0  0
  138.3910   75.6290  222.7120 N   0  0  0  0  0  0  0  0  0  0  0  0
  137.9180   76.8870  222.7260 C   0  0  0  0  0  0  0  0  0  0  0  0
  136.6400   77.3000  223.0990 C   0  0  0  0  0  0  0  0  0  0  0  0
  136.3530   78.6770  223.0430 C   0  0  0  0  0  0  0  0  0  0  0  0
  137.3370   79.5970  222.6200 C   0  0  0  0  0  0  0  0  0  0  0  0
  138.6190   79.1500  222.2490 C   0  0  0  0  0  0  0  0  0  0  0  0
  138.8760   77.7790  222.3150 C   0  0  0  0  0  0  0  0  0  0  0  0
  139.5552   75.1407  219.8729 H   0  0  0  0  0  0  0  0  0  0  0  0
  140.1345   75.0750  218.1532 H   0  0  0  0  0  0  0  0  0  0  0  0
  140.9120   73.2909  220.6633 H   0  0  0  0  0  0  0  0  0  0  0  0
  143.1642   72.5593  221.4479 H   0  0  0  0  0  0  0  0  0  0  0  0
  145.1930   73.8802  220.8381 H   0  0  0  0  0  0  0  0  0  0  0  0
  144.9723   75.9312  219.4329 H   0  0  0  0  0  0  0  0  0  0  0  0
  142.7260   76.6705  218.6414 H   0  0  0  0  0  0  0  0  0  0  0  0
  141.8994   79.9807  219.4226 H   0  0  0  0  0  0  0  0  0  0  0  0
  140.2094   79.8632  219.9039 H   0  0  0  0  0  0  0  0  0  0  0  0
  141.7647   82.0565  221.4117 H   0  0  0  0  0  0  0  0  0  0  0  0
  142.4053   82.2744  223.8354 H   0  0  0  0  0  0  0  0  0  0  0  0
  142.5930   80.2286  225.2701 H   0  0  0  0  0  0  0  0  0  0  0  0
  142.1273   77.9592  224.2902 H   0  0  0  0  0  0  0  0  0  0  0  0
  142.0338   76.7144  221.6305 H   0  0  0  0  0  0  0  0  0  0  0  0
  140.3484   74.8589  222.1564 H   0  0  0  0  0  0  0  0  0  0  0  0
  137.8790   74.7580  222.9760 H   0  0  0  0  0  0  0  0  0  0  0  0
  135.8810   76.5741  223.4262 H   0  0  0  0  0  0  0  0  0  0  0  0
  135.3549   79.0389  223.3309 H   0  0  0  0  0  0  0  0  0  0  0  0
  137.1001   80.6704  222.5801 H   0  0  0  0  0  0  0  0  0  0  0  0
  139.3933   79.8576  221.9178 H   0  0  0  0  0  0  0  0  0  0  0  0
  1  2  2  0
  2  3  2  0
  2  4  1  0
  4  5  1  0
  5  6  2  0
  6  7  1  0
  7  8  2  0
  8  9  1  0
  9 10  2  0
  2 11  1  0
 11 12  1  0
 12 13  1  0
 13 14  2  0
 14 15  1  0
 15 16  2  0
 16 17  1  0
 17 18  2  0
 18 19  1  0
 19 20  1  0
 20 21  2  0
 21 22  1  0
 22 23  1  0
 23 24  2  0
 24 25  1  0
 25 26  2  0
 26 27  1  0
 27 28  2  0
 10  5  1  0
 19 11  1  0
 28 20  1  0
 18 13  1  0
 28 23  1  0
  4 29  1  0
  4 30  1  0
  6 31  1  0
  7 32  1  0
  8 33  1  0
  9 34  1  0
 10 35  1  0
 12 36  1  0
 12 37  1  0
 14 38  1  0
 15 39  1  0
 16 40  1  0
 17 41  1  0
 19 42  1  6
 21 43  1  0
 22 44  1  0
 24 45  1  0
 25 46  1  0
 26 47  1  0
 27 48  1  0
M  END
>  <UniqueID>  (69) 
8

>  <SMILES>  (69) 
O=S(=O)(Cc1ccccc1)N1Cc2ccccc2[C@H]1c1c[nH]c2ccccc12

>  <Energy>  (69) 
98.32218443584806

>  <Genealogy>  (69) 
O=S(=O)(Cc1ccccc1)N1Cc2ccccc2[C@H]1c1c[nH]c2ccccc12 (chirality)
O=S(=O)(Cc1ccccc1)N1Cc2ccccc2[C@H]1c1c[nH]c2ccccc12 (3D coordinates assigned)
O=S(=O)(Cc1ccccc1)N1Cc2ccccc2[C@H]1c1c[nH]c2ccccc12 (nonaromatic ring conformer: 98.32218443584806 kcal/mol)

>  <smiles>  (69) 
O=S(=O)(Cc1ccccc1)N1Cc2ccccc2C1c1c[nH]c2ccccc12

>  <score_type>  (69) 
oracle

>  <origin>  (69) 
autodockgpu

>  <m_score__min__energy>  (69) 
-7.29

>  <m_primary>  (69) 
energy

>  <meeko>  (69) 
{"free_energy": -6.92, "intermolecular_energy": -8.11, "internal_energy": -2.14, "cluster_size": 3, "cluster_id": 2, "rank_in_cluster": 1}

>  <energy>  (69) 
-7.27

>  <cluster_rmsd>  (69) 
0.03

>  <rmsd>  (69) 
271.33

>  <cluster>  (69) 
1

$$$$
WCZRIPJXOMUAPT-QHCPKHFHNA-N
     RDKit          3D

 48 52  0  0  0  0  0  0  0  0999 V2000
  141.1600   75.5250  222.3400 O   0  0  0  0  0  0  0  0  0  0  0  0
  140.2100   74.6270  221.5990 S   0  0  0  0  0  0  0  0  0  0  0  0
  139.9620   73.3940  222.4230 O   0  0  0  0  0  0  0  0  0  0  0  0
  141.0040   74.1710  220.0610 C   0  0  0  0  0  0  0  0  0  0  0  0
  142.4650   73.8630  220.2490 C   0  0  0  0  0  0  0  0  0  0  0  0
  143.4170   74.8970  220.2430 C   0  0  0  0  0  0  0  0  0  0  0  0
  144.7740   74.6070  220.4060 C   0  0  0  0  0  0  0  0  0  0  0  0
  145.1920   73.2850  220.5840 C   0  0  0  0  0  0  0  0  0  0  0  0
  144.2510   72.2520  220.6040 C   0  0  0  0  0  0  0  0  0  0  0  0
  142.8930   72.5380  220.4410 C   0  0  0  0  0  0  0  0  0  0  0  0
  138.7100   75.4840  221.2980 N   0  0  0  0  0  0  0  0  0  0  0  0
  137.9490   75.7940  222.5240 C   0  0  0  0  0  0  0  0  0  0  0  0
  137.2470   77.0590  222.2160 C   0  0  0  0  0  0  0  0  0  0  0  0
  136.2530   77.6980  222.9590 C   0  0  0  0  0  0  0  0  0  0  0  0
  135.7290   78.9080  222.4730 C   0  0  0  0  0  0  0  0  0  0  0  0
  136.2110   79.4550  221.2670 C   0  0  0  0  0  0  0  0  0  0  0  0
  137.2180   78.7940  220.5460 C   0  0  0  0  0  0  0  0  0  0  0  0
  137.7140   77.5880  221.0470 C   0  0  0  0  0  0  0  0  0  0  0  0
  138.8070   76.7410  220.5050 C   0  0  1  0  0  0  0  0  0  0  0  0
  140.1220   77.4820  220.6480 C   0  0  0  0  0  0  0  0  0  0  0  0
  141.1660   77.5330  219.7230 C   0  0  0  0  0  0  0  0  0  0  0  0
  142.1840   78.2870  220.1970 N   0  0  0  0  0  0  0  0  0  0  0  0
  141.7980   78.7090  221.4120 C   0  0  0  0  0  0  0  0  0  0  0  0
  142.5180   79.5200  222.2880 C   0  0  0  0  0  0  0  0  0  0  0  0
  141.9220   79.8480  223.5200 C   0  0  0  0  0  0  0  0  0  0  0  0
  140.6360   79.3640  223.8440 C   0  0  0  0  0  0  0  0  0  0  0  0
  139.9320   78.5480  222.9390 C   0  0  0  0  0  0  0  0  0  0  0  0
  140.5480   78.2390  221.7240 C   0  0  0  0  0  0  0  0  0  0  0  0
  140.5031   73.2805  219.6534 H   0  0  0  0  0  0  0  0  0  0  0  0
  140.9232   75.0243  219.3715 H   0  0  0  0  0  0  0  0  0  0  0  0
  143.0922   75.9394  220.1093 H   0  0  0  0  0  0  0  0  0  0  0  0
  145.5146   75.4202  220.3943 H   0  0  0  0  0  0  0  0  0  0  0  0
  146.2611   73.0579  220.7083 H   0  0  0  0  0  0  0  0  0  0  0  0
  144.5798   71.2123  220.7483 H   0  0  0  0  0  0  0  0  0  0  0  0
  142.1554   71.7223  220.4630 H   0  0  0  0  0  0  0  0  0  0  0  0
  137.2279   74.9937  222.7465 H   0  0  0  0  0  0  0  0  0  0  0  0
  138.5982   75.8810  223.4078 H   0  0  0  0  0  0  0  0  0  0  0  0
  135.8886   77.2649  223.9022 H   0  0  0  0  0  0  0  0  0  0  0  0
  134.9405   79.4295  223.0354 H   0  0  0  0  0  0  0  0  0  0  0  0
  135.7973   80.4019  220.8898 H   0  0  0  0  0  0  0  0  0  0  0  0
  137.6076   79.2161  219.6079 H   0  0  0  0  0  0  0  0  0  0  0  0
  138.7353   76.5083  219.4323 H   0  0  0  0  0  0  0  0  0  0  0  0
  141.1615   77.0300  218.7447 H   0  0  0  0  0  0  0  0  0  0  0  0
  143.0850   78.4940  219.7120 H   0  0  0  0  0  0  0  0  0  0  0  0
  143.5194   79.8915  222.0248 H   0  0  0  0  0  0  0  0  0  0  0  0
  142.4618   80.4858  224.2354 H   0  0  0  0  0  0  0  0  0  0  0  0
  140.1811   79.6265  224.8105 H   0  0  0  0  0  0  0  0  0  0  0  0
  138.9292   78.1659  223.1806 H   0  0  0  0  0  0  0  0  0  0  0  0
  1  2  2  0
  2  3  2  0
  2  4  1  0
  4  5  1  0
  5  6  2  0
  6  7  1  0
  7  8  2  0
  8  9  1  0
  9 10  2  0
  2 11  1  0
 11 12  1  0
 12 13  1  0
 13 14  2  0
 14 15  1  0
 15 16  2  0
 16 17  1  0
 17 18  2  0
 18 19  1  0
 19 20  1  0
 20 21  2  0
 21 22  1  0
 22 23  1  0
 23 24  2  0
 24 25  1  0
 25 26  2  0
 26 27  1  0
 27 28  2  0
 10  5  1  0
 19 11  1  0
 28 20  1  0
 18 13  1  0
 28 23  1  0
  4 29  1  0
  4 30  1  0
  6 31  1  0
  7 32  1  0
  8 33  1  0
  9 34  1  0
 10 35  1  0
 12 36  1  0
 12 37  1  0
 14 38  1  0
 15 39  1  0
 16 40  1  0
 17 41  1  0
 19 42  1  6
 21 43  1  0
 22 44  1  0
 24 45  1  0
 25 46  1  0
 26 47  1  0
 27 48  1  0
M  END
>  <UniqueID>  (70) 
8

>  <SMILES>  (70) 
O=S(=O)(Cc1ccccc1)N1Cc2ccccc2[C@H]1c1c[nH]c2ccccc12

>  <Energy>  (70) 
98.32218443584806

>  <Genealogy>  (70) 
O=S(=O)(Cc1ccccc1)N1Cc2ccccc2[C@H]1c1c[nH]c2ccccc12 (chirality)
O=S(=O)(Cc1ccccc1)N1Cc2ccccc2[C@H]1c1c[nH]c2ccccc12 (3D coordinates assigned)
O=S(=O)(Cc1ccccc1)N1Cc2ccccc2[C@H]1c1c[nH]c2ccccc12 (nonaromatic ring conformer: 98.32218443584806 kcal/mol)

>  <smiles>  (70) 
O=S(=O)(Cc1ccccc1)N1Cc2ccccc2C1c1c[nH]c2ccccc12

>  <score_type>  (70) 
oracle

>  <origin>  (70) 
autodockgpu

>  <m_score__min__energy>  (70) 
-7.29

>  <m_primary>  (70) 
energy

>  <meeko>  (70) 
{"free_energy": -7.26, "intermolecular_energy": -8.46, "internal_energy": -1.96, "cluster_size": 14, "cluster_id": 1, "rank_in_cluster": 12}

>  <energy>  (70) 
-7.27

>  <cluster_rmsd>  (70) 
0.03

>  <rmsd>  (70) 
271.33

>  <cluster>  (70) 
1

$$$$
WCZRIPJXOMUAPT-QHCPKHFHNA-N
     RDKit          3D

 48 52  0  0  0  0  0  0  0  0999 V2000
  141.1580   75.6140  222.3410 O   0  0  0  0  0  0  0  0  0  0  0  0
  140.2170   74.7350  221.5670 S   0  0  0  0  0  0  0  0  0  0  0  0
  139.9620   73.4800  222.3560 O   0  0  0  0  0  0  0  0  0  0  0  0
  141.0290   74.3190  220.0260 C   0  0  0  0  0  0  0  0  0  0  0  0
  142.4670   73.9290  220.2320 C   0  0  0  0  0  0  0  0  0  0  0  0
  143.4850   74.8970  220.1600 C   0  0  0  0  0  0  0  0  0  0  0  0
  144.8210   74.5290  220.3400 C   0  0  0  0  0  0  0  0  0  0  0  0
  145.1520   73.1970  220.6010 C   0  0  0  0  0  0  0  0  0  0  0  0
  144.1470   72.2310  220.6860 C   0  0  0  0  0  0  0  0  0  0  0  0
  142.8090   72.5940  220.5070 C   0  0  0  0  0  0  0  0  0  0  0  0
  138.7200   75.5980  221.2720 N   0  0  0  0  0  0  0  0  0  0  0  0
  137.9670   75.9150  222.5020 C   0  0  0  0  0  0  0  0  0  0  0  0
  137.2700   77.1820  222.1950 C   0  0  0  0  0  0  0  0  0  0  0  0
  136.2830   77.8280  222.9410 C   0  0  0  0  0  0  0  0  0  0  0  0
  135.7620   79.0390  222.4560 C   0  0  0  0  0  0  0  0  0  0  0  0
  136.2390   79.5800  221.2450 C   0  0  0  0  0  0  0  0  0  0  0  0
  137.2390   78.9120  220.5200 C   0  0  0  0  0  0  0  0  0  0  0  0
  137.7320   77.7050  221.0210 C   0  0  0  0  0  0  0  0  0  0  0  0
  138.8180   76.8520  220.4750 C   0  0  1  0  0  0  0  0  0  0  0  0
  140.1370   77.5870  220.6090 C   0  0  0  0  0  0  0  0  0  0  0  0
  141.1620   77.6590  219.6630 C   0  0  0  0  0  0  0  0  0  0  0  0
  142.1910   78.3990  220.1340 N   0  0  0  0  0  0  0  0  0  0  0  0
  141.8310   78.7940  221.3670 C   0  0  0  0  0  0  0  0  0  0  0  0
  142.5710   79.5820  222.2470 C   0  0  0  0  0  0  0  0  0  0  0  0
  142.0020   79.8810  223.4980 C   0  0  0  0  0  0  0  0  0  0  0  0
  140.7210   79.3920  223.8370 C   0  0  0  0  0  0  0  0  0  0  0  0
  139.9970   78.5990  222.9280 C   0  0  0  0  0  0  0  0  0  0  0  0
  140.5870   78.3170  221.6940 C   0  0  0  0  0  0  0  0  0  0  0  0
  140.4962   73.4768  219.5603 H   0  0  0  0  0  0  0  0  0  0  0  0
  141.0085   75.2097  219.3809 H   0  0  0  0  0  0  0  0  0  0  0  0
  143.2284   75.9480  219.9612 H   0  0  0  0  0  0  0  0  0  0  0  0
  145.6134   75.2893  220.2761 H   0  0  0  0  0  0  0  0  0  0  0  0
  146.2045   72.9090  220.7396 H   0  0  0  0  0  0  0  0  0  0  0  0
  144.4087   71.1830  220.8941 H   0  0  0  0  0  0  0  0  0  0  0  0
  142.0201   71.8311  220.5818 H   0  0  0  0  0  0  0  0  0  0  0  0
  137.2432   75.1188  222.7305 H   0  0  0  0  0  0  0  0  0  0  0  0
  138.6215   76.0010  223.3819 H   0  0  0  0  0  0  0  0  0  0  0  0
  135.9214   77.3987  223.8870 H   0  0  0  0  0  0  0  0  0  0  0  0
  134.9802   79.5662  223.0224 H   0  0  0  0  0  0  0  0  0  0  0  0
  135.8271   80.5274  220.8671 H   0  0  0  0  0  0  0  0  0  0  0  0
  137.6254   79.3299  219.5787 H   0  0  0  0  0  0  0  0  0  0  0  0
  138.7391   76.6172  219.4033 H   0  0  0  0  0  0  0  0  0  0  0  0
  141.1358   77.1804  218.6729 H   0  0  0  0  0  0  0  0  0  0  0  0
  143.0830   78.6170  219.6360 H   0  0  0  0  0  0  0  0  0  0  0  0
  143.5676   79.9578  221.9720 H   0  0  0  0  0  0  0  0  0  0  0  0
  142.5584   80.4999  224.2173 H   0  0  0  0  0  0  0  0  0  0  0  0
  140.2865   79.6328  224.8184 H   0  0  0  0  0  0  0  0  0  0  0  0
  138.9983   78.2135  223.1811 H   0  0  0  0  0  0  0  0  0  0  0  0
  1  2  2  0
  2  3  2  0
  2  4  1  0
  4  5  1  0
  5  6  2  0
  6  7  1  0
  7  8  2  0
  8  9  1  0
  9 10  2  0
  2 11  1  0
 11 12  1  0
 12 13  1  0
 13 14  2  0
 14 15  1  0
 15 16  2  0
 16 17  1  0
 17 18  2  0
 18 19  1  0
 19 20  1  0
 20 21  2  0
 21 22  1  0
 22 23  1  0
 23 24  2  0
 24 25  1  0
 25 26  2  0
 26 27  1  0
 27 28  2  0
 10  5  1  0
 19 11  1  0
 28 20  1  0
 18 13  1  0
 28 23  1  0
  4 29  1  0
  4 30  1  0
  6 31  1  0
  7 32  1  0
  8 33  1  0
  9 34  1  0
 10 35  1  0
 12 36  1  0
 12 37  1  0
 14 38  1  0
 15 39  1  0
 16 40  1  0
 17 41  1  0
 19 42  1  6
 21 43  1  0
 22 44  1  0
 24 45  1  0
 25 46  1  0
 26 47  1  0
 27 48  1  0
M  END
>  <UniqueID>  (71) 
8

>  <SMILES>  (71) 
O=S(=O)(Cc1ccccc1)N1Cc2ccccc2[C@H]1c1c[nH]c2ccccc12

>  <Energy>  (71) 
98.32218443584806

>  <Genealogy>  (71) 
O=S(=O)(Cc1ccccc1)N1Cc2ccccc2[C@H]1c1c[nH]c2ccccc12 (chirality)
O=S(=O)(Cc1ccccc1)N1Cc2ccccc2[C@H]1c1c[nH]c2ccccc12 (3D coordinates assigned)
O=S(=O)(Cc1ccccc1)N1Cc2ccccc2[C@H]1c1c[nH]c2ccccc12 (nonaromatic ring conformer: 98.32218443584806 kcal/mol)

>  <smiles>  (71) 
O=S(=O)(Cc1ccccc1)N1Cc2ccccc2C1c1c[nH]c2ccccc12

>  <score_type>  (71) 
oracle

>  <origin>  (71) 
autodockgpu

>  <m_score__min__energy>  (71) 
-7.29

>  <m_primary>  (71) 
energy

>  <meeko>  (71) 
{"free_energy": -7.27, "intermolecular_energy": -8.46, "internal_energy": -1.97, "cluster_size": 14, "cluster_id": 1, "rank_in_cluster": 10}

>  <energy>  (71) 
-7.27

>  <cluster_rmsd>  (71) 
0.04

>  <rmsd>  (71) 
271.35

>  <cluster>  (71) 
1

$$$$
WCZRIPJXOMUAPT-QHCPKHFHNA-N
     RDKit          3D

 48 52  0  0  0  0  0  0  0  0999 V2000
  139.7380   74.5980  222.3400 O   0  0  0  0  0  0  0  0  0  0  0  0
  139.3410   75.8720  221.6480 S   0  0  0  0  0  0  0  0  0  0  0  0
  137.8630   75.8380  221.3760 O   0  0  0  0  0  0  0  0  0  0  0  0
  140.2350   75.9330  220.0980 C   0  0  0  0  0  0  0  0  0  0  0  0
  141.6180   75.3530  220.2210 C   0  0  0  0  0  0  0  0  0  0  0  0
  141.7960   74.0110  220.5990 C   0  0  0  0  0  0  0  0  0  0  0  0
  143.0830   73.4790  220.7240 C   0  0  0  0  0  0  0  0  0  0  0  0
  144.2000   74.2780  220.4660 C   0  0  0  0  0  0  0  0  0  0  0  0
  144.0320   75.6090  220.0770 C   0  0  0  0  0  0  0  0  0  0  0  0
  142.7480   76.1460  219.9510 C   0  0  0  0  0  0  0  0  0  0  0  0
  139.7550   77.2410  222.6630 N   0  0  0  0  0  0  0  0  0  0  0  0
  141.2040   77.3760  222.9130 C   0  0  0  0  0  0  0  0  0  0  0  0
  141.4220   78.8310  223.0570 C   0  0  0  0  0  0  0  0  0  0  0  0
  142.5740   79.4950  223.4820 C   0  0  0  0  0  0  0  0  0  0  0  0
  142.5580   80.8980  223.5340 C   0  0  0  0  0  0  0  0  0  0  0  0
  141.3990   81.6070  223.1580 C   0  0  0  0  0  0  0  0  0  0  0  0
  140.2570   80.9140  222.7260 C   0  0  0  0  0  0  0  0  0  0  0  0
  140.2990   79.5180  222.6920 C   0  0  0  0  0  0  0  0  0  0  0  0
  139.2530   78.5730  222.2240 C   0  0  1  0  0  0  0  0  0  0  0  0
  139.0870   78.7250  220.7240 C   0  0  0  0  0  0  0  0  0  0  0  0
  137.9060   78.6010  219.9900 C   0  0  0  0  0  0  0  0  0  0  0  0
  138.1430   78.7980  218.6730 N   0  0  0  0  0  0  0  0  0  0  0  0
  139.4600   79.0420  218.5660 C   0  0  0  0  0  0  0  0  0  0  0  0
  140.1730   79.3070  217.3970 C   0  0  0  0  0  0  0  0  0  0  0  0
  141.5560   79.5390  217.5100 C   0  0  0  0  0  0  0  0  0  0  0  0
  142.1870   79.5010  218.7730 C   0  0  0  0  0  0  0  0  0  0  0  0
  141.4420   79.2300  219.9350 C   0  0  0  0  0  0  0  0  0  0  0  0
  140.0710   79.0040  219.7930 C   0  0  0  0  0  0  0  0  0  0  0  0
  139.6759   75.3608  219.3430 H   0  0  0  0  0  0  0  0  0  0  0  0
  140.3344   76.9885  219.8047 H   0  0  0  0  0  0  0  0  0  0  0  0
  140.9194   73.3768  220.7973 H   0  0  0  0  0  0  0  0  0  0  0  0
  143.2164   72.4297  221.0259 H   0  0  0  0  0  0  0  0  0  0  0  0
  145.2117   73.8588  220.5693 H   0  0  0  0  0  0  0  0  0  0  0  0
  144.9120   76.2356  219.8695 H   0  0  0  0  0  0  0  0  0  0  0  0
  142.6204   77.1932  219.6394 H   0  0  0  0  0  0  0  0  0  0  0  0
  141.4904   76.8471  223.8340 H   0  0  0  0  0  0  0  0  0  0  0  0
  141.8098   76.9408  222.1045 H   0  0  0  0  0  0  0  0  0  0  0  0
  143.4740   78.9318  223.7697 H   0  0  0  0  0  0  0  0  0  0  0  0
  143.4517   81.4451  223.8688 H   0  0  0  0  0  0  0  0  0  0  0  0
  141.3894   82.7060  223.2032 H   0  0  0  0  0  0  0  0  0  0  0  0
  139.3504   81.4575  222.4214 H   0  0  0  0  0  0  0  0  0  0  0  0
  138.2464   78.7434  222.6336 H   0  0  0  0  0  0  0  0  0  0  0  0
  136.9202   78.3747  220.4224 H   0  0  0  0  0  0  0  0  0  0  0  0
  137.4410   78.7660  217.9010 H   0  0  0  0  0  0  0  0  0  0  0  0
  139.6705   79.3337  216.4188 H   0  0  0  0  0  0  0  0  0  0  0  0
  142.1498   79.7514  216.6087 H   0  0  0  0  0  0  0  0  0  0  0  0
  143.2689   79.6847  218.8485 H   0  0  0  0  0  0  0  0  0  0  0  0
  141.9235   79.1971  220.9235 H   0  0  0  0  0  0  0  0  0  0  0  0
  1  2  2  0
  2  3  2  0
  2  4  1  0
  4  5  1  0
  5  6  2  0
  6  7  1  0
  7  8  2  0
  8  9  1  0
  9 10  2  0
  2 11  1  0
 11 12  1  0
 12 13  1  0
 13 14  2  0
 14 15  1  0
 15 16  2  0
 16 17  1  0
 17 18  2  0
 18 19  1  0
 19 20  1  0
 20 21  2  0
 21 22  1  0
 22 23  1  0
 23 24  2  0
 24 25  1  0
 25 26  2  0
 26 27  1  0
 27 28  2  0
 10  5  1  0
 19 11  1  0
 28 20  1  0
 18 13  1  0
 28 23  1  0
  4 29  1  0
  4 30  1  0
  6 31  1  0
  7 32  1  0
  8 33  1  0
  9 34  1  0
 10 35  1  0
 12 36  1  0
 12 37  1  0
 14 38  1  0
 15 39  1  0
 16 40  1  0
 17 41  1  0
 19 42  1  1
 21 43  1  0
 22 44  1  0
 24 45  1  0
 25 46  1  0
 26 47  1  0
 27 48  1  0
M  END
>  <UniqueID>  (72) 
8

>  <SMILES>  (72) 
O=S(=O)(Cc1ccccc1)N1Cc2ccccc2[C@H]1c1c[nH]c2ccccc12

>  <Energy>  (72) 
98.32218443584806

>  <Genealogy>  (72) 
O=S(=O)(Cc1ccccc1)N1Cc2ccccc2[C@H]1c1c[nH]c2ccccc12 (chirality)
O=S(=O)(Cc1ccccc1)N1Cc2ccccc2[C@H]1c1c[nH]c2ccccc12 (3D coordinates assigned)
O=S(=O)(Cc1ccccc1)N1Cc2ccccc2[C@H]1c1c[nH]c2ccccc12 (nonaromatic ring conformer: 98.32218443584806 kcal/mol)

>  <smiles>  (72) 
O=S(=O)(Cc1ccccc1)N1Cc2ccccc2C1c1c[nH]c2ccccc12

>  <score_type>  (72) 
oracle

>  <origin>  (72) 
autodockgpu

>  <m_score__min__energy>  (72) 
-7.29

>  <m_primary>  (72) 
energy

>  <meeko>  (72) 
{"free_energy": -6.75, "intermolecular_energy": -7.94, "internal_energy": -2.22, "cluster_size": 2, "cluster_id": 3, "rank_in_cluster": 1}

>  <energy>  (72) 
-7.26

>  <cluster_rmsd>  (72) 
0.1

>  <rmsd>  (72) 
271.32

>  <cluster>  (72) 
1

$$$$
WCZRIPJXOMUAPT-QHCPKHFHNA-N
     RDKit          3D

 48 52  0  0  0  0  0  0  0  0999 V2000
  139.1460   75.0240  221.7970 O   0  0  0  0  0  0  0  0  0  0  0  0
  140.1600   76.1300  221.7220 S   0  0  0  0  0  0  0  0  0  0  0  0
  141.4510   75.6490  222.3260 O   0  0  0  0  0  0  0  0  0  0  0  0
  139.5220   77.4980  222.6840 C   0  0  0  0  0  0  0  0  0  0  0  0
  140.4840   78.6550  222.7290 C   0  0  0  0  0  0  0  0  0  0  0  0
  141.6820   78.5560  223.4570 C   0  0  0  0  0  0  0  0  0  0  0  0
  142.5680   79.6360  223.5060 C   0  0  0  0  0  0  0  0  0  0  0  0
  142.2690   80.8190  222.8250 C   0  0  0  0  0  0  0  0  0  0  0  0
  141.0860   80.9210  222.0880 C   0  0  0  0  0  0  0  0  0  0  0  0
  140.1980   79.8440  222.0360 C   0  0  0  0  0  0  0  0  0  0  0  0
  140.3940   76.5970  220.0490 N   0  0  0  0  0  0  0  0  0  0  0  0
  141.4840   77.5730  219.8540 C   0  0  0  0  0  0  0  0  0  0  0  0
  142.0220   77.2660  218.5110 C   0  0  0  0  0  0  0  0  0  0  0  0
  142.9420   78.0000  217.7600 C   0  0  0  0  0  0  0  0  0  0  0  0
  143.3200   77.5080  216.4990 C   0  0  0  0  0  0  0  0  0  0  0  0
  142.7800   76.2980  216.0200 C   0  0  0  0  0  0  0  0  0  0  0  0
  141.8630   75.5760  216.8020 C   0  0  0  0  0  0  0  0  0  0  0  0
  141.4990   76.0930  218.0470 C   0  0  0  0  0  0  0  0  0  0  0  0
  140.6040   75.4940  219.0700 C   0  0  1  0  0  0  0  0  0  0  0  0
  141.2690   74.2570  219.6430 C   0  0  0  0  0  0  0  0  0  0  0  0
  140.6680   73.0250  219.9100 C   0  0  0  0  0  0  0  0  0  0  0  0
  141.5710   72.1590  220.4220 N   0  0  0  0  0  0  0  0  0  0  0  0
  142.7340   72.8280  220.4850 C   0  0  0  0  0  0  0  0  0  0  0  0
  143.9580   72.3460  220.9460 C   0  0  0  0  0  0  0  0  0  0  0  0
  145.0600   73.2210  220.9230 C   0  0  0  0  0  0  0  0  0  0  0  0
  144.9140   74.5420  220.4460 C   0  0  0  0  0  0  0  0  0  0  0  0
  143.6660   75.0010  219.9870 C   0  0  0  0  0  0  0  0  0  0  0  0
  142.5900   74.1110  220.0210 C   0  0  0  0  0  0  0  0  0  0  0  0
  138.5780   77.8387  222.2337 H   0  0  0  0  0  0  0  0  0  0  0  0
  139.3677   77.1451  223.7144 H   0  0  0  0  0  0  0  0  0  0  0  0
  141.9235   77.6248  223.9904 H   0  0  0  0  0  0  0  0  0  0  0  0
  143.5019   79.5546  224.0814 H   0  0  0  0  0  0  0  0  0  0  0  0
  142.9647   81.6699  222.8690 H   0  0  0  0  0  0  0  0  0  0  0  0
  140.8538   81.8508  221.5480 H   0  0  0  0  0  0  0  0  0  0  0  0
  139.2707   79.9267  221.4501 H   0  0  0  0  0  0  0  0  0  0  0  0
  141.0958   78.6016  219.8913 H   0  0  0  0  0  0  0  0  0  0  0  0
  142.2525   77.5030  220.6379 H   0  0  0  0  0  0  0  0  0  0  0  0
  143.3610   78.9410  218.1461 H   0  0  0  0  0  0  0  0  0  0  0  0
  144.0393   78.0690  215.8844 H   0  0  0  0  0  0  0  0  0  0  0  0
  143.0771   75.9178  215.0315 H   0  0  0  0  0  0  0  0  0  0  0  0
  141.4417   74.6258  216.4420 H   0  0  0  0  0  0  0  0  0  0  0  0
  139.6321   75.1396  218.6961 H   0  0  0  0  0  0  0  0  0  0  0  0
  139.6083   72.7919  219.7291 H   0  0  0  0  0  0  0  0  0  0  0  0
  141.3940   71.1700  220.7090 H   0  0  0  0  0  0  0  0  0  0  0  0
  144.0593   71.3150  221.3158 H   0  0  0  0  0  0  0  0  0  0  0  0
  146.0412   72.8737  221.2788 H   0  0  0  0  0  0  0  0  0  0  0  0
  145.7824   75.2170  220.4332 H   0  0  0  0  0  0  0  0  0  0  0  0
  143.5415   76.0280  219.6132 H   0  0  0  0  0  0  0  0  0  0  0  0
  1  2  2  0
  2  3  2  0
  2  4  1  0
  4  5  1  0
  5  6  2  0
  6  7  1  0
  7  8  2  0
  8  9  1  0
  9 10  2  0
  2 11  1  0
 11 12  1  0
 12 13  1  0
 13 14  2  0
 14 15  1  0
 15 16  2  0
 16 17  1  0
 17 18  2  0
 18 19  1  0
 19 20  1  0
 20 21  2  0
 21 22  1  0
 22 23  1  0
 23 24  2  0
 24 25  1  0
 25 26  2  0
 26 27  1  0
 27 28  2  0
 10  5  1  0
 19 11  1  0
 28 20  1  0
 18 13  1  0
 28 23  1  0
  4 29  1  0
  4 30  1  0
  6 31  1  0
  7 32  1  0
  8 33  1  0
  9 34  1  0
 10 35  1  0
 12 36  1  0
 12 37  1  0
 14 38  1  0
 15 39  1  0
 16 40  1  0
 17 41  1  0
 19 42  1  6
 21 43  1  0
 22 44  1  0
 24 45  1  0
 25 46  1  0
 26 47  1  0
 27 48  1  0
M  END
>  <UniqueID>  (73) 
8

>  <SMILES>  (73) 
O=S(=O)(Cc1ccccc1)N1Cc2ccccc2[C@H]1c1c[nH]c2ccccc12

>  <Energy>  (73) 
98.32218443584806

>  <Genealogy>  (73) 
O=S(=O)(Cc1ccccc1)N1Cc2ccccc2[C@H]1c1c[nH]c2ccccc12 (chirality)
O=S(=O)(Cc1ccccc1)N1Cc2ccccc2[C@H]1c1c[nH]c2ccccc12 (3D coordinates assigned)
O=S(=O)(Cc1ccccc1)N1Cc2ccccc2[C@H]1c1c[nH]c2ccccc12 (nonaromatic ring conformer: 98.32218443584806 kcal/mol)

>  <smiles>  (73) 
O=S(=O)(Cc1ccccc1)N1Cc2ccccc2C1c1c[nH]c2ccccc12

>  <score_type>  (73) 
oracle

>  <origin>  (73) 
autodockgpu

>  <m_score__min__energy>  (73) 
-7.29

>  <m_primary>  (73) 
energy

>  <meeko>  (73) 
{"free_energy": -6.74, "intermolecular_energy": -7.93, "internal_energy": -2.1, "cluster_size": 1, "cluster_id": 4, "rank_in_cluster": 1}

>  <energy>  (73) 
-7.18

>  <cluster_rmsd>  (73) 
0.16

>  <rmsd>  (73) 
271.41

>  <cluster>  (73) 
1

$$$$
WCZRIPJXOMUAPT-QHCPKHFHNA-N
     RDKit          3D

 48 52  0  0  0  0  0  0  0  0999 V2000
  141.1570   75.6090  222.3490 O   0  0  0  0  0  0  0  0  0  0  0  0
  140.2110   74.7340  221.5760 S   0  0  0  0  0  0  0  0  0  0  0  0
  139.9590   73.4760  222.3610 O   0  0  0  0  0  0  0  0  0  0  0  0
  141.0130   74.3250  220.0290 C   0  0  0  0  0  0  0  0  0  0  0  0
  142.4510   73.9260  220.2260 C   0  0  0  0  0  0  0  0  0  0  0  0
  142.7870   72.5890  220.5020 C   0  0  0  0  0  0  0  0  0  0  0  0
  144.1220   72.2250  220.6970 C   0  0  0  0  0  0  0  0  0  0  0  0
  145.1310   73.1870  220.6110 C   0  0  0  0  0  0  0  0  0  0  0  0
  144.8070   74.5160  220.3250 C   0  0  0  0  0  0  0  0  0  0  0  0
  143.4740   74.8860  220.1290 C   0  0  0  0  0  0  0  0  0  0  0  0
  138.7130   75.6010  221.2930 N   0  0  0  0  0  0  0  0  0  0  0  0
  137.9700   75.9170  222.5290 C   0  0  0  0  0  0  0  0  0  0  0  0
  137.2720   77.1860  222.2290 C   0  0  0  0  0  0  0  0  0  0  0  0
  136.2920   77.8330  222.9840 C   0  0  0  0  0  0  0  0  0  0  0  0
  135.7710   79.0450  222.5050 C   0  0  0  0  0  0  0  0  0  0  0  0
  136.2400   79.5880  221.2920 C   0  0  0  0  0  0  0  0  0  0  0  0
  137.2330   78.9190  220.5580 C   0  0  0  0  0  0  0  0  0  0  0  0
  137.7280   77.7110  221.0540 C   0  0  0  0  0  0  0  0  0  0  0  0
  138.8080   76.8570  220.4980 C   0  0  1  0  0  0  0  0  0  0  0  0
  140.1290   77.5890  220.6240 C   0  0  0  0  0  0  0  0  0  0  0  0
  141.1490   77.6580  219.6720 C   0  0  0  0  0  0  0  0  0  0  0  0
  142.1820   78.3960  220.1370 N   0  0  0  0  0  0  0  0  0  0  0  0
  141.8310   78.7920  221.3710 C   0  0  0  0  0  0  0  0  0  0  0  0
  142.5780   79.5790  222.2470 C   0  0  0  0  0  0  0  0  0  0  0  0
  142.0160   79.8800  223.5010 C   0  0  0  0  0  0  0  0  0  0  0  0
  140.7360   79.3940  223.8480 C   0  0  0  0  0  0  0  0  0  0  0  0
  140.0050   78.6010  222.9430 C   0  0  0  0  0  0  0  0  0  0  0  0
  140.5870   78.3180  221.7060 C   0  0  0  0  0  0  0  0  0  0  0  0
  140.4738   73.4888  219.5599 H   0  0  0  0  0  0  0  0  0  0  0  0
  140.9939   75.2202  219.3900 H   0  0  0  0  0  0  0  0  0  0  0  0
  141.9963   71.8268  220.5647 H   0  0  0  0  0  0  0  0  0  0  0  0
  144.3788   71.1786  220.9187 H   0  0  0  0  0  0  0  0  0  0  0  0
  146.1808   72.8985  220.7684 H   0  0  0  0  0  0  0  0  0  0  0  0
  145.6028   75.2721  220.2541 H   0  0  0  0  0  0  0  0  0  0  0  0
  143.2239   75.9320  219.8980 H   0  0  0  0  0  0  0  0  0  0  0  0
  137.2469   75.1214  222.7619 H   0  0  0  0  0  0  0  0  0  0  0  0
  138.6313   76.0008  223.4040 H   0  0  0  0  0  0  0  0  0  0  0  0
  135.9365   77.4030  223.9320 H   0  0  0  0  0  0  0  0  0  0  0  0
  134.9943   79.5726  223.0780 H   0  0  0  0  0  0  0  0  0  0  0  0
  135.8277   80.5373  220.9196 H   0  0  0  0  0  0  0  0  0  0  0  0
  137.6123   79.3370  219.6138 H   0  0  0  0  0  0  0  0  0  0  0  0
  138.7209   76.6247  219.4263 H   0  0  0  0  0  0  0  0  0  0  0  0
  141.1163   77.1789  218.6824 H   0  0  0  0  0  0  0  0  0  0  0  0
  143.0710   78.6120  219.6330 H   0  0  0  0  0  0  0  0  0  0  0  0
  143.5740   79.9522  221.9666 H   0  0  0  0  0  0  0  0  0  0  0  0
  142.5776   80.4984  224.2166 H   0  0  0  0  0  0  0  0  0  0  0  0
  140.3075   79.6366  224.8316 H   0  0  0  0  0  0  0  0  0  0  0  0
  139.0074   78.2168  223.2022 H   0  0  0  0  0  0  0  0  0  0  0  0
  1  2  2  0
  2  3  2  0
  2  4  1  0
  4  5  1  0
  5  6  2  0
  6  7  1  0
  7  8  2  0
  8  9  1  0
  9 10  2  0
  2 11  1  0
 11 12  1  0
 12 13  1  0
 13 14  2  0
 14 15  1  0
 15 16  2  0
 16 17  1  0
 17 18  2  0
 18 19  1  0
 19 20  1  0
 20 21  2  0
 21 22  1  0
 22 23  1  0
 23 24  2  0
 24 25  1  0
 25 26  2  0
 26 27  1  0
 27 28  2  0
 10  5  1  0
 19 11  1  0
 28 20  1  0
 18 13  1  0
 28 23  1  0
  4 29  1  0
  4 30  1  0
  6 31  1  0
  7 32  1  0
  8 33  1  0
  9 34  1  0
 10 35  1  0
 12 36  1  0
 12 37  1  0
 14 38  1  0
 15 39  1  0
 16 40  1  0
 17 41  1  0
 19 42  1  6
 21 43  1  0
 22 44  1  0
 24 45  1  0
 25 46  1  0
 26 47  1  0
 27 48  1  0
M  END
>  <UniqueID>  (74) 
8

>  <SMILES>  (74) 
O=S(=O)(Cc1ccccc1)N1Cc2ccccc2[C@H]1c1c[nH]c2ccccc12

>  <Energy>  (74) 
98.32218443584806

>  <Genealogy>  (74) 
O=S(=O)(Cc1ccccc1)N1Cc2ccccc2[C@H]1c1c[nH]c2ccccc12 (chirality)
O=S(=O)(Cc1ccccc1)N1Cc2ccccc2[C@H]1c1c[nH]c2ccccc12 (3D coordinates assigned)
O=S(=O)(Cc1ccccc1)N1Cc2ccccc2[C@H]1c1c[nH]c2ccccc12 (nonaromatic ring conformer: 98.32218443584806 kcal/mol)

>  <smiles>  (74) 
O=S(=O)(Cc1ccccc1)N1Cc2ccccc2C1c1c[nH]c2ccccc12

>  <score_type>  (74) 
oracle

>  <origin>  (74) 
autodockgpu

>  <m_score__min__energy>  (74) 
-7.29

>  <m_primary>  (74) 
energy

>  <meeko>  (74) 
{"free_energy": -7.27, "intermolecular_energy": -8.47, "internal_energy": -1.97, "cluster_size": 14, "cluster_id": 1, "rank_in_cluster": 5}

>  <energy>  (74) 
-7.15

>  <cluster_rmsd>  (74) 
0.14

>  <rmsd>  (74) 
271.4

>  <cluster>  (74) 
1

$$$$
WCZRIPJXOMUAPT-QHCPKHFHNA-N
     RDKit          3D

 48 52  0  0  0  0  0  0  0  0999 V2000
  139.7790   74.5850  222.3370 O   0  0  0  0  0  0  0  0  0  0  0  0
  139.3470   75.8420  221.6350 S   0  0  0  0  0  0  0  0  0  0  0  0
  137.8660   75.7720  221.3780 O   0  0  0  0  0  0  0  0  0  0  0  0
  140.2240   75.9050  220.0760 C   0  0  0  0  0  0  0  0  0  0  0  0
  141.6110   75.3330  220.1850 C   0  0  0  0  0  0  0  0  0  0  0  0
  141.7980   73.9720  220.4830 C   0  0  0  0  0  0  0  0  0  0  0  0
  143.0880   73.4460  220.5960 C   0  0  0  0  0  0  0  0  0  0  0  0
  144.2000   74.2700  220.4040 C   0  0  0  0  0  0  0  0  0  0  0  0
  144.0230   75.6210  220.0950 C   0  0  0  0  0  0  0  0  0  0  0  0
  142.7360   76.1510  219.9810 C   0  0  0  0  0  0  0  0  0  0  0  0
  139.7380   77.2310  222.6300 N   0  0  0  0  0  0  0  0  0  0  0  0
  141.1800   77.3630  222.9220 C   0  0  0  0  0  0  0  0  0  0  0  0
  141.4040   78.8200  223.0390 C   0  0  0  0  0  0  0  0  0  0  0  0
  142.5480   79.4850  223.4830 C   0  0  0  0  0  0  0  0  0  0  0  0
  142.5390   80.8900  223.5030 C   0  0  0  0  0  0  0  0  0  0  0  0
  141.3980   81.5970  223.0750 C   0  0  0  0  0  0  0  0  0  0  0  0
  140.2650   80.9010  222.6250 C   0  0  0  0  0  0  0  0  0  0  0  0
  140.2980   79.5040  222.6240 C   0  0  0  0  0  0  0  0  0  0  0  0
  139.2600   78.5560  222.1450 C   0  0  1  0  0  0  0  0  0  0  0  0
  139.1420   78.6740  220.6380 C   0  0  0  0  0  0  0  0  0  0  0  0
  137.9920   78.4920  219.8670 C   0  0  0  0  0  0  0  0  0  0  0  0
  138.2680   78.6740  218.5550 N   0  0  0  0  0  0  0  0  0  0  0  0
  139.5770   78.9650  218.4880 C   0  0  0  0  0  0  0  0  0  0  0  0
  140.3210   79.2360  217.3400 C   0  0  0  0  0  0  0  0  0  0  0  0
  141.6900   79.5220  217.4960 C   0  0  0  0  0  0  0  0  0  0  0  0
  142.2770   79.5310  218.7800 C   0  0  0  0  0  0  0  0  0  0  0  0
  141.5020   79.2540  219.9210 C   0  0  0  0  0  0  0  0  0  0  0  0
  140.1460   78.9730  219.7360 C   0  0  0  0  0  0  0  0  0  0  0  0
  139.6601   75.3284  219.3280 H   0  0  0  0  0  0  0  0  0  0  0  0
  140.3146   76.9606  219.7800 H   0  0  0  0  0  0  0  0  0  0  0  0
  140.9254   73.3182  220.6279 H   0  0  0  0  0  0  0  0  0  0  0  0
  143.2280   72.3818  220.8364 H   0  0  0  0  0  0  0  0  0  0  0  0
  145.2146   73.8551  220.4961 H   0  0  0  0  0  0  0  0  0  0  0  0
  144.8989   76.2684  219.9412 H   0  0  0  0  0  0  0  0  0  0  0  0
  142.6019   77.2136  219.7304 H   0  0  0  0  0  0  0  0  0  0  0  0
  141.4339   76.8540  223.8635 H   0  0  0  0  0  0  0  0  0  0  0  0
  141.8074   76.9053  222.1430 H   0  0  0  0  0  0  0  0  0  0  0  0
  143.4353   78.9227  223.8094 H   0  0  0  0  0  0  0  0  0  0  0  0
  143.4251   81.4393  223.8538 H   0  0  0  0  0  0  0  0  0  0  0  0
  141.3949   82.6968  223.0935 H   0  0  0  0  0  0  0  0  0  0  0  0
  139.3717   81.4429  222.2811 H   0  0  0  0  0  0  0  0  0  0  0  0
  138.2424   78.7432  222.5186 H   0  0  0  0  0  0  0  0  0  0  0  0
  137.0008   78.2365  220.2698 H   0  0  0  0  0  0  0  0  0  0  0  0
  137.5950   78.6010  217.7600 H   0  0  0  0  0  0  0  0  0  0  0  0
  139.8528   79.2265  216.3446 H   0  0  0  0  0  0  0  0  0  0  0  0
  142.3069   79.7400  216.6117 H   0  0  0  0  0  0  0  0  0  0  0  0
  143.3481   79.7562  218.8891 H   0  0  0  0  0  0  0  0  0  0  0  0
  141.9491   79.2585  220.9260 H   0  0  0  0  0  0  0  0  0  0  0  0
  1  2  2  0
  2  3  2  0
  2  4  1  0
  4  5  1  0
  5  6  2  0
  6  7  1  0
  7  8  2  0
  8  9  1  0
  9 10  2  0
  2 11  1  0
 11 12  1  0
 12 13  1  0
 13 14  2  0
 14 15  1  0
 15 16  2  0
 16 17  1  0
 17 18  2  0
 18 19  1  0
 19 20  1  0
 20 21  2  0
 21 22  1  0
 22 23  1  0
 23 24  2  0
 24 25  1  0
 25 26  2  0
 26 27  1  0
 27 28  2  0
 10  5  1  0
 19 11  1  0
 28 20  1  0
 18 13  1  0
 28 23  1  0
  4 29  1  0
  4 30  1  0
  6 31  1  0
  7 32  1  0
  8 33  1  0
  9 34  1  0
 10 35  1  0
 12 36  1  0
 12 37  1  0
 14 38  1  0
 15 39  1  0
 16 40  1  0
 17 41  1  0
 19 42  1  1
 21 43  1  0
 22 44  1  0
 24 45  1  0
 25 46  1  0
 26 47  1  0
 27 48  1  0
M  END
>  <UniqueID>  (75) 
8

>  <SMILES>  (75) 
O=S(=O)(Cc1ccccc1)N1Cc2ccccc2[C@H]1c1c[nH]c2ccccc12

>  <Energy>  (75) 
98.32218443584806

>  <Genealogy>  (75) 
O=S(=O)(Cc1ccccc1)N1Cc2ccccc2[C@H]1c1c[nH]c2ccccc12 (chirality)
O=S(=O)(Cc1ccccc1)N1Cc2ccccc2[C@H]1c1c[nH]c2ccccc12 (3D coordinates assigned)
O=S(=O)(Cc1ccccc1)N1Cc2ccccc2[C@H]1c1c[nH]c2ccccc12 (nonaromatic ring conformer: 98.32218443584806 kcal/mol)

>  <smiles>  (75) 
O=S(=O)(Cc1ccccc1)N1Cc2ccccc2C1c1c[nH]c2ccccc12

>  <score_type>  (75) 
oracle

>  <origin>  (75) 
autodockgpu

>  <m_score__min__energy>  (75) 
-7.29

>  <m_primary>  (75) 
energy

>  <meeko>  (75) 
{"free_energy": -6.74, "intermolecular_energy": -7.93, "internal_energy": -2.2, "cluster_size": 2, "cluster_id": 3, "rank_in_cluster": 2}

>  <energy>  (75) 
-6.92

>  <cluster_rmsd>  (75) 
0.0

>  <rmsd>  (75) 
271.54

>  <cluster>  (75) 
2

$$$$
WCZRIPJXOMUAPT-QHCPKHFHNA-N
     RDKit          3D

 48 52  0  0  0  0  0  0  0  0999 V2000
  141.1530   75.6030  222.3450 O   0  0  0  0  0  0  0  0  0  0  0  0
  140.2090   74.7280  221.5700 S   0  0  0  0  0  0  0  0  0  0  0  0
  139.9540   73.4700  222.3550 O   0  0  0  0  0  0  0  0  0  0  0  0
  141.0160   74.3170  220.0250 C   0  0  0  0  0  0  0  0  0  0  0  0
  142.4530   73.9200  220.2270 C   0  0  0  0  0  0  0  0  0  0  0  0
  142.7900   72.5830  220.5010 C   0  0  0  0  0  0  0  0  0  0  0  0
  144.1250   72.2200  220.6990 C   0  0  0  0  0  0  0  0  0  0  0  0
  145.1330   73.1840  220.6200 C   0  0  0  0  0  0  0  0  0  0  0  0
  144.8080   74.5130  220.3360 C   0  0  0  0  0  0  0  0  0  0  0  0
  143.4750   74.8810  220.1360 C   0  0  0  0  0  0  0  0  0  0  0  0
  138.7120   75.5940  221.2830 N   0  0  0  0  0  0  0  0  0  0  0  0
  137.9620   75.9060  222.5160 C   0  0  0  0  0  0  0  0  0  0  0  0
  137.2650   77.1750  222.2160 C   0  0  0  0  0  0  0  0  0  0  0  0
  136.2810   77.8190  222.9680 C   0  0  0  0  0  0  0  0  0  0  0  0
  135.7610   79.0330  222.4900 C   0  0  0  0  0  0  0  0  0  0  0  0
  136.2360   79.5790  221.2820 C   0  0  0  0  0  0  0  0  0  0  0  0
  137.2330   78.9140  220.5500 C   0  0  0  0  0  0  0  0  0  0  0  0
  137.7260   77.7040  221.0450 C   0  0  0  0  0  0  0  0  0  0  0  0
  138.8100   76.8530  220.4920 C   0  0  1  0  0  0  0  0  0  0  0  0
  140.1300   77.5850  220.6270 C   0  0  0  0  0  0  0  0  0  0  0  0
  141.1540   77.6600  219.6800 C   0  0  0  0  0  0  0  0  0  0  0  0
  142.1850   78.3970  220.1530 N   0  0  0  0  0  0  0  0  0  0  0  0
  141.8270   78.7860  221.3880 C   0  0  0  0  0  0  0  0  0  0  0  0
  142.5700   79.5690  222.2700 C   0  0  0  0  0  0  0  0  0  0  0  0
  142.0030   79.8630  223.5240 C   0  0  0  0  0  0  0  0  0  0  0  0
  140.7220   79.3740  223.8620 C   0  0  0  0  0  0  0  0  0  0  0  0
  139.9950   78.5860  222.9510 C   0  0  0  0  0  0  0  0  0  0  0  0
  140.5830   78.3100  221.7140 C   0  0  0  0  0  0  0  0  0  0  0  0
  140.4789   73.4795  219.5558 H   0  0  0  0  0  0  0  0  0  0  0  0
  140.9977   75.2109  219.3842 H   0  0  0  0  0  0  0  0  0  0  0  0
  142.0001   71.8198  220.5598 H   0  0  0  0  0  0  0  0  0  0  0  0
  144.3826   71.1731  220.9175 H   0  0  0  0  0  0  0  0  0  0  0  0
  146.1825   72.8968  220.7813 H   0  0  0  0  0  0  0  0  0  0  0  0
  145.6027   75.2706  220.2698 H   0  0  0  0  0  0  0  0  0  0  0  0
  143.2242   75.9271  219.9064 H   0  0  0  0  0  0  0  0  0  0  0  0
  137.2382   75.1093  222.7426 H   0  0  0  0  0  0  0  0  0  0  0  0
  138.6185   75.9877  223.3948 H   0  0  0  0  0  0  0  0  0  0  0  0
  135.9212   77.3858  223.9129 H   0  0  0  0  0  0  0  0  0  0  0  0
  134.9810   79.5584  223.0605 H   0  0  0  0  0  0  0  0  0  0  0  0
  135.8248   80.5293  220.9106 H   0  0  0  0  0  0  0  0  0  0  0  0
  137.6167   79.3357  219.6093 H   0  0  0  0  0  0  0  0  0  0  0  0
  138.7286   76.6246  219.4191 H   0  0  0  0  0  0  0  0  0  0  0  0
  141.1260   77.1858  218.6878 H   0  0  0  0  0  0  0  0  0  0  0  0
  143.0750   78.6150  219.6540 H   0  0  0  0  0  0  0  0  0  0  0  0
  143.5666   79.9447  221.9949 H   0  0  0  0  0  0  0  0  0  0  0  0
  142.5612   80.4776  224.2456 H   0  0  0  0  0  0  0  0  0  0  0  0
  140.2893   79.6110  224.8451 H   0  0  0  0  0  0  0  0  0  0  0  0
  138.9966   78.1999  223.2043 H   0  0  0  0  0  0  0  0  0  0  0  0
  1  2  2  0
  2  3  2  0
  2  4  1  0
  4  5  1  0
  5  6  2  0
  6  7  1  0
  7  8  2  0
  8  9  1  0
  9 10  2  0
  2 11  1  0
 11 12  1  0
 12 13  1  0
 13 14  2  0
 14 15  1  0
 15 16  2  0
 16 17  1  0
 17 18  2  0
 18 19  1  0
 19 20  1  0
 20 21  2  0
 21 22  1  0
 22 23  1  0
 23 24  2  0
 24 25  1  0
 25 26  2  0
 26 27  1  0
 27 28  2  0
 10  5  1  0
 19 11  1  0
 28 20  1  0
 18 13  1  0
 28 23  1  0
  4 29  1  0
  4 30  1  0
  6 31  1  0
  7 32  1  0
  8 33  1  0
  9 34  1  0
 10 35  1  0
 12 36  1  0
 12 37  1  0
 14 38  1  0
 15 39  1  0
 16 40  1  0
 17 41  1  0
 19 42  1  6
 21 43  1  0
 22 44  1  0
 24 45  1  0
 25 46  1  0
 26 47  1  0
 27 48  1  0
M  END
>  <UniqueID>  (76) 
8

>  <SMILES>  (76) 
O=S(=O)(Cc1ccccc1)N1Cc2ccccc2[C@H]1c1c[nH]c2ccccc12

>  <Energy>  (76) 
98.32218443584806

>  <Genealogy>  (76) 
O=S(=O)(Cc1ccccc1)N1Cc2ccccc2[C@H]1c1c[nH]c2ccccc12 (chirality)
O=S(=O)(Cc1ccccc1)N1Cc2ccccc2[C@H]1c1c[nH]c2ccccc12 (3D coordinates assigned)
O=S(=O)(Cc1ccccc1)N1Cc2ccccc2[C@H]1c1c[nH]c2ccccc12 (nonaromatic ring conformer: 98.32218443584806 kcal/mol)

>  <smiles>  (76) 
O=S(=O)(Cc1ccccc1)N1Cc2ccccc2C1c1c[nH]c2ccccc12

>  <score_type>  (76) 
oracle

>  <origin>  (76) 
autodockgpu

>  <m_score__min__energy>  (76) 
-7.29

>  <m_primary>  (76) 
energy

>  <meeko>  (76) 
{"free_energy": -7.28, "intermolecular_energy": -8.47, "internal_energy": -1.97, "cluster_size": 14, "cluster_id": 1, "rank_in_cluster": 2}

>  <energy>  (76) 
-6.91

>  <cluster_rmsd>  (76) 
0.04

>  <rmsd>  (76) 
271.54

>  <cluster>  (76) 
2

$$$$
WCZRIPJXOMUAPT-QHCPKHFHNA-N
     RDKit          3D

 48 52  0  0  0  0  0  0  0  0999 V2000
  141.1530   75.6160  222.3410 O   0  0  0  0  0  0  0  0  0  0  0  0
  140.2120   74.7360  221.5680 S   0  0  0  0  0  0  0  0  0  0  0  0
  139.9580   73.4810  222.3580 O   0  0  0  0  0  0  0  0  0  0  0  0
  141.0220   74.3190  220.0270 C   0  0  0  0  0  0  0  0  0  0  0  0
  142.4600   73.9280  220.2330 C   0  0  0  0  0  0  0  0  0  0  0  0
  143.4800   74.8920  220.1450 C   0  0  0  0  0  0  0  0  0  0  0  0
  144.8160   74.5230  220.3250 C   0  0  0  0  0  0  0  0  0  0  0  0
  145.1450   73.1930  220.6000 C   0  0  0  0  0  0  0  0  0  0  0  0
  144.1370   72.2310  220.7000 C   0  0  0  0  0  0  0  0  0  0  0  0
  142.8000   72.5950  220.5220 C   0  0  0  0  0  0  0  0  0  0  0  0
  138.7140   75.5980  221.2740 N   0  0  0  0  0  0  0  0  0  0  0  0
  137.9620   75.9150  222.5040 C   0  0  0  0  0  0  0  0  0  0  0  0
  137.2630   77.1810  222.1970 C   0  0  0  0  0  0  0  0  0  0  0  0
  136.2770   77.8270  222.9440 C   0  0  0  0  0  0  0  0  0  0  0  0
  135.7550   79.0380  222.4590 C   0  0  0  0  0  0  0  0  0  0  0  0
  136.2320   79.5790  221.2480 C   0  0  0  0  0  0  0  0  0  0  0  0
  137.2310   78.9120  220.5220 C   0  0  0  0  0  0  0  0  0  0  0  0
  137.7260   77.7050  221.0240 C   0  0  0  0  0  0  0  0  0  0  0  0
  138.8110   76.8530  220.4770 C   0  0  1  0  0  0  0  0  0  0  0  0
  140.1300   77.5880  220.6110 C   0  0  0  0  0  0  0  0  0  0  0  0
  141.1540   77.6620  219.6640 C   0  0  0  0  0  0  0  0  0  0  0  0
  142.1840   78.4020  220.1350 N   0  0  0  0  0  0  0  0  0  0  0  0
  141.8250   78.7940  221.3690 C   0  0  0  0  0  0  0  0  0  0  0  0
  142.5650   79.5810  222.2490 C   0  0  0  0  0  0  0  0  0  0  0  0
  141.9970   79.8790  223.5010 C   0  0  0  0  0  0  0  0  0  0  0  0
  140.7160   79.3890  223.8410 C   0  0  0  0  0  0  0  0  0  0  0  0
  139.9920   78.5960  222.9310 C   0  0  0  0  0  0  0  0  0  0  0  0
  140.5810   78.3170  221.6960 C   0  0  0  0  0  0  0  0  0  0  0  0
  140.4883   73.4770  219.5619 H   0  0  0  0  0  0  0  0  0  0  0  0
  141.0015   75.2092  219.3811 H   0  0  0  0  0  0  0  0  0  0  0  0
  143.2253   75.9410  219.9336 H   0  0  0  0  0  0  0  0  0  0  0  0
  145.6098   75.2808  220.2501 H   0  0  0  0  0  0  0  0  0  0  0  0
  146.1973   72.9037  220.7377 H   0  0  0  0  0  0  0  0  0  0  0  0
  144.3965   71.1848  220.9193 H   0  0  0  0  0  0  0  0  0  0  0  0
  142.0096   71.8349  220.6084 H   0  0  0  0  0  0  0  0  0  0  0  0
  137.2394   75.1181  222.7338 H   0  0  0  0  0  0  0  0  0  0  0  0
  138.6174   76.0025  223.3831 H   0  0  0  0  0  0  0  0  0  0  0  0
  135.9168   77.3980  223.8907 H   0  0  0  0  0  0  0  0  0  0  0  0
  134.9728   79.5647  223.0253 H   0  0  0  0  0  0  0  0  0  0  0  0
  135.8201   80.5267  220.8708 H   0  0  0  0  0  0  0  0  0  0  0  0
  137.6155   79.3295  219.5797 H   0  0  0  0  0  0  0  0  0  0  0  0
  138.7312   76.6189  219.4052 H   0  0  0  0  0  0  0  0  0  0  0  0
  141.1268   77.1850  218.6732 H   0  0  0  0  0  0  0  0  0  0  0  0
  143.0740   78.6210  219.6360 H   0  0  0  0  0  0  0  0  0  0  0  0
  143.5613   79.9572  221.9736 H   0  0  0  0  0  0  0  0  0  0  0  0
  142.5538   80.4976  224.2202 H   0  0  0  0  0  0  0  0  0  0  0  0
  140.2819   79.6288  224.8229 H   0  0  0  0  0  0  0  0  0  0  0  0
  138.9942   78.2085  223.1845 H   0  0  0  0  0  0  0  0  0  0  0  0
  1  2  2  0
  2  3  2  0
  2  4  1  0
  4  5  1  0
  5  6  2  0
  6  7  1  0
  7  8  2  0
  8  9  1  0
  9 10  2  0
  2 11  1  0
 11 12  1  0
 12 13  1  0
 13 14  2  0
 14 15  1  0
 15 16  2  0
 16 17  1  0
 17 18  2  0
 18 19  1  0
 19 20  1  0
 20 21  2  0
 21 22  1  0
 22 23  1  0
 23 24  2  0
 24 25  1  0
 25 26  2  0
 26 27  1  0
 27 28  2  0
 10  5  1  0
 19 11  1  0
 28 20  1  0
 18 13  1  0
 28 23  1  0
  4 29  1  0
  4 30  1  0
  6 31  1  0
  7 32  1  0
  8 33  1  0
  9 34  1  0
 10 35  1  0
 12 36  1  0
 12 37  1  0
 14 38  1  0
 15 39  1  0
 16 40  1  0
 17 41  1  0
 19 42  1  6
 21 43  1  0
 22 44  1  0
 24 45  1  0
 25 46  1  0
 26 47  1  0
 27 48  1  0
M  END
>  <UniqueID>  (77) 
8

>  <SMILES>  (77) 
O=S(=O)(Cc1ccccc1)N1Cc2ccccc2[C@H]1c1c[nH]c2ccccc12

>  <Energy>  (77) 
98.32218443584806

>  <Genealogy>  (77) 
O=S(=O)(Cc1ccccc1)N1Cc2ccccc2[C@H]1c1c[nH]c2ccccc12 (chirality)
O=S(=O)(Cc1ccccc1)N1Cc2ccccc2[C@H]1c1c[nH]c2ccccc12 (3D coordinates assigned)
O=S(=O)(Cc1ccccc1)N1Cc2ccccc2[C@H]1c1c[nH]c2ccccc12 (nonaromatic ring conformer: 98.32218443584806 kcal/mol)

>  <smiles>  (77) 
O=S(=O)(Cc1ccccc1)N1Cc2ccccc2C1c1c[nH]c2ccccc12

>  <score_type>  (77) 
oracle

>  <origin>  (77) 
autodockgpu

>  <m_score__min__energy>  (77) 
-7.29

>  <m_primary>  (77) 
energy

>  <meeko>  (77) 
{"free_energy": -7.27, "intermolecular_energy": -8.46, "internal_energy": -1.97, "cluster_size": 14, "cluster_id": 1, "rank_in_cluster": 9}

>  <energy>  (77) 
-6.91

>  <cluster_rmsd>  (77) 
0.03

>  <rmsd>  (77) 
271.54

>  <cluster>  (77) 
2

$$$$
WCZRIPJXOMUAPT-QHCPKHFHNA-N
     RDKit          3D

 48 52  0  0  0  0  0  0  0  0999 V2000
  141.2660   75.7490  222.4070 O   0  0  0  0  0  0  0  0  0  0  0  0
  140.3860   74.8500  221.5850 S   0  0  0  0  0  0  0  0  0  0  0  0
  140.1800   73.5580  222.3260 O   0  0  0  0  0  0  0  0  0  0  0  0
  141.2470   74.5280  220.0480 C   0  0  0  0  0  0  0  0  0  0  0  0
  142.6470   74.0280  220.2800 C   0  0  0  0  0  0  0  0  0  0  0  0
  142.8820   72.6690  220.5530 C   0  0  0  0  0  0  0  0  0  0  0  0
  144.1820   72.2100  220.7800 C   0  0  0  0  0  0  0  0  0  0  0  0
  145.2580   73.1000  220.7280 C   0  0  0  0  0  0  0  0  0  0  0  0
  145.0360   74.4500  220.4450 C   0  0  0  0  0  0  0  0  0  0  0  0
  143.7380   74.9140  220.2170 C   0  0  0  0  0  0  0  0  0  0  0  0
  138.8530   75.6460  221.2870 N   0  0  0  0  0  0  0  0  0  0  0  0
  138.0890   75.9380  222.5170 C   0  0  0  0  0  0  0  0  0  0  0  0
  137.3370   77.1720  222.2030 C   0  0  0  0  0  0  0  0  0  0  0  0
  136.3250   77.7800  222.9470 C   0  0  0  0  0  0  0  0  0  0  0  0
  135.7520   78.9640  222.4560 C   0  0  0  0  0  0  0  0  0  0  0  0
  136.2040   79.5180  221.2410 C   0  0  0  0  0  0  0  0  0  0  0  0
  137.2300   78.8900  220.5180 C   0  0  0  0  0  0  0  0  0  0  0  0
  137.7750   77.7080  221.0260 C   0  0  0  0  0  0  0  0  0  0  0  0
  138.8960   76.8990  220.4830 C   0  0  1  0  0  0  0  0  0  0  0  0
  140.1820   77.6910  220.6100 C   0  0  0  0  0  0  0  0  0  0  0  0
  141.1800   77.8390  219.6450 C   0  0  0  0  0  0  0  0  0  0  0  0
  142.1850   78.6120  220.1160 N   0  0  0  0  0  0  0  0  0  0  0  0
  141.8370   78.9510  221.3680 C   0  0  0  0  0  0  0  0  0  0  0  0
  142.5610   79.7450  222.2560 C   0  0  0  0  0  0  0  0  0  0  0  0
  142.0080   79.9790  223.5290 C   0  0  0  0  0  0  0  0  0  0  0  0
  140.7600   79.4200  223.8810 C   0  0  0  0  0  0  0  0  0  0  0  0
  140.0510   78.6220  222.9630 C   0  0  0  0  0  0  0  0  0  0  0  0
  140.6240   78.4070  221.7070 C   0  0  0  0  0  0  0  0  0  0  0  0
  140.6884   73.7692  219.4803 H   0  0  0  0  0  0  0  0  0  0  0  0
  141.3122   75.4740  219.4905 H   0  0  0  0  0  0  0  0  0  0  0  0
  142.0385   71.9638  220.5880 H   0  0  0  0  0  0  0  0  0  0  0  0
  144.3586   71.1468  220.9999 H   0  0  0  0  0  0  0  0  0  0  0  0
  146.2805   72.7375  220.9100 H   0  0  0  0  0  0  0  0  0  0  0  0
  145.8845   75.1487  220.4016 H   0  0  0  0  0  0  0  0  0  0  0  0
  143.5684   75.9763  219.9873 H   0  0  0  0  0  0  0  0  0  0  0  0
  137.4008   75.1127  222.7521 H   0  0  0  0  0  0  0  0  0  0  0  0
  138.7407   76.0579  223.3951 H   0  0  0  0  0  0  0  0  0  0  0  0
  135.9840   77.3416  223.8965 H   0  0  0  0  0  0  0  0  0  0  0  0
  134.9488   79.4603  223.0204 H   0  0  0  0  0  0  0  0  0  0  0  0
  135.7514   80.4448  220.8587 H   0  0  0  0  0  0  0  0  0  0  0  0
  137.5965   79.3184  219.5735 H   0  0  0  0  0  0  0  0  0  0  0  0
  138.8258   76.6546  219.4128 H   0  0  0  0  0  0  0  0  0  0  0  0
  141.1528   77.3895  218.6414 H   0  0  0  0  0  0  0  0  0  0  0  0
  143.0530   78.8870  219.6050 H   0  0  0  0  0  0  0  0  0  0  0  0
  143.5327   80.1746  221.9712 H   0  0  0  0  0  0  0  0  0  0  0  0
  142.5518   80.6016  224.2547 H   0  0  0  0  0  0  0  0  0  0  0  0
  140.3388   79.6093  224.8794 H   0  0  0  0  0  0  0  0  0  0  0  0
  139.0777   78.1821  223.2260 H   0  0  0  0  0  0  0  0  0  0  0  0
  1  2  2  0
  2  3  2  0
  2  4  1  0
  4  5  1  0
  5  6  2  0
  6  7  1  0
  7  8  2  0
  8  9  1  0
  9 10  2  0
  2 11  1  0
 11 12  1  0
 12 13  1  0
 13 14  2  0
 14 15  1  0
 15 16  2  0
 16 17  1  0
 17 18  2  0
 18 19  1  0
 19 20  1  0
 20 21  2  0
 21 22  1  0
 22 23  1  0
 23 24  2  0
 24 25  1  0
 25 26  2  0
 26 27  1  0
 27 28  2  0
 10  5  1  0
 19 11  1  0
 28 20  1  0
 18 13  1  0
 28 23  1  0
  4 29  1  0
  4 30  1  0
  6 31  1  0
  7 32  1  0
  8 33  1  0
  9 34  1  0
 10 35  1  0
 12 36  1  0
 12 37  1  0
 14 38  1  0
 15 39  1  0
 16 40  1  0
 17 41  1  0
 19 42  1  6
 21 43  1  0
 22 44  1  0
 24 45  1  0
 25 46  1  0
 26 47  1  0
 27 48  1  0
M  END
>  <UniqueID>  (78) 
8

>  <SMILES>  (78) 
O=S(=O)(Cc1ccccc1)N1Cc2ccccc2[C@H]1c1c[nH]c2ccccc12

>  <Energy>  (78) 
98.32218443584806

>  <Genealogy>  (78) 
O=S(=O)(Cc1ccccc1)N1Cc2ccccc2[C@H]1c1c[nH]c2ccccc12 (chirality)
O=S(=O)(Cc1ccccc1)N1Cc2ccccc2[C@H]1c1c[nH]c2ccccc12 (3D coordinates assigned)
O=S(=O)(Cc1ccccc1)N1Cc2ccccc2[C@H]1c1c[nH]c2ccccc12 (nonaromatic ring conformer: 98.32218443584806 kcal/mol)

>  <smiles>  (78) 
O=S(=O)(Cc1ccccc1)N1Cc2ccccc2C1c1c[nH]c2ccccc12

>  <score_type>  (78) 
oracle

>  <origin>  (78) 
autodockgpu

>  <m_score__min__energy>  (78) 
-7.29

>  <m_primary>  (78) 
energy

>  <meeko>  (78) 
{"free_energy": -7.18, "intermolecular_energy": -8.37, "internal_energy": -1.94, "cluster_size": 14, "cluster_id": 1, "rank_in_cluster": 13}

>  <energy>  (78) 
-6.75

>  <cluster_rmsd>  (78) 
0.0

>  <rmsd>  (78) 
271.31

>  <cluster>  (78) 
3

$$$$
WCZRIPJXOMUAPT-QHCPKHFHNA-N
     RDKit          3D

 48 52  0  0  0  0  0  0  0  0999 V2000
  138.7890   77.7090  219.4180 O   0  0  0  0  0  0  0  0  0  0  0  0
  140.1880   77.3130  219.0380 S   0  0  0  0  0  0  0  0  0  0  0  0
  140.4440   77.7310  217.6160 O   0  0  0  0  0  0  0  0  0  0  0  0
  140.2860   75.5300  219.1650 C   0  0  0  0  0  0  0  0  0  0  0  0
  141.6440   75.0700  219.6210 C   0  0  0  0  0  0  0  0  0  0  0  0
  142.7970   75.7880  219.2580 C   0  0  0  0  0  0  0  0  0  0  0  0
  144.0590   75.3510  219.6730 C   0  0  0  0  0  0  0  0  0  0  0  0
  144.1790   74.2010  220.4570 C   0  0  0  0  0  0  0  0  0  0  0  0
  143.0370   73.4880  220.8320 C   0  0  0  0  0  0  0  0  0  0  0  0
  141.7740   73.9210  220.4200 C   0  0  0  0  0  0  0  0  0  0  0  0
  141.3280   78.0810  220.1260 N   0  0  0  0  0  0  0  0  0  0  0  0
  141.2140   79.5530  220.1600 C   0  0  0  0  0  0  0  0  0  0  0  0
  141.6060   79.9240  221.5370 C   0  0  0  0  0  0  0  0  0  0  0  0
  141.8460   81.1980  222.0530 C   0  0  0  0  0  0  0  0  0  0  0  0
  142.2010   81.3160  223.4070 C   0  0  0  0  0  0  0  0  0  0  0  0
  142.3020   80.1650  224.2150 C   0  0  0  0  0  0  0  0  0  0  0  0
  142.0450   78.8970  223.6710 C   0  0  0  0  0  0  0  0  0  0  0  0
  141.7030   78.8090  222.3190 C   0  0  0  0  0  0  0  0  0  0  0  0
  141.3320   77.6030  221.5370 C   0  0  1  0  0  0  0  0  0  0  0  0
  139.9970   77.0830  222.0330 C   0  0  0  0  0  0  0  0  0  0  0  0
  139.6520   75.7550  222.2920 C   0  0  0  0  0  0  0  0  0  0  0  0
  138.3710   75.6720  222.7170 N   0  0  0  0  0  0  0  0  0  0  0  0
  137.9010   76.9300  222.7270 C   0  0  0  0  0  0  0  0  0  0  0  0
  136.6230   77.3460  223.0970 C   0  0  0  0  0  0  0  0  0  0  0  0
  136.3370   78.7230  223.0370 C   0  0  0  0  0  0  0  0  0  0  0  0
  137.3240   79.6400  222.6130 C   0  0  0  0  0  0  0  0  0  0  0  0
  138.6050   79.1910  222.2450 C   0  0  0  0  0  0  0  0  0  0  0  0
  138.8610   77.8190  222.3150 C   0  0  0  0  0  0  0  0  0  0  0  0
  139.5327   75.1838  219.8880 H   0  0  0  0  0  0  0  0  0  0  0  0
  140.1028   75.1082  218.1658 H   0  0  0  0  0  0  0  0  0  0  0  0
  142.7061   76.6970  218.6452 H   0  0  0  0  0  0  0  0  0  0  0  0
  144.9583   75.9135  219.3817 H   0  0  0  0  0  0  0  0  0  0  0  0
  145.1727   73.8565  220.7793 H   0  0  0  0  0  0  0  0  0  0  0  0
  143.1326   72.5847  221.4524 H   0  0  0  0  0  0  0  0  0  0  0  0
  140.8774   73.3601  220.7223 H   0  0  0  0  0  0  0  0  0  0  0  0
  141.8921   80.0124  219.4258 H   0  0  0  0  0  0  0  0  0  0  0  0
  140.2015   79.8997  219.9060 H   0  0  0  0  0  0  0  0  0  0  0  0
  141.7592   82.0893  221.4143 H   0  0  0  0  0  0  0  0  0  0  0  0
  142.4006   82.3083  223.8377 H   0  0  0  0  0  0  0  0  0  0  0  0
  142.5829   80.2610  225.2742 H   0  0  0  0  0  0  0  0  0  0  0  0
  142.1113   77.9933  224.2946 H   0  0  0  0  0  0  0  0  0  0  0  0
  142.0170   76.7482  221.6378 H   0  0  0  0  0  0  0  0  0  0  0  0
  140.3280   74.8962  222.1677 H   0  0  0  0  0  0  0  0  0  0  0  0
  137.8570   74.8020  222.9820 H   0  0  0  0  0  0  0  0  0  0  0  0
  135.8628   76.6218  223.4251 H   0  0  0  0  0  0  0  0  0  0  0  0
  135.3389   79.0870  223.3220 H   0  0  0  0  0  0  0  0  0  0  0  0
  137.0890   80.7137  222.5703 H   0  0  0  0  0  0  0  0  0  0  0  0
  139.3804   79.8970  221.9128 H   0  0  0  0  0  0  0  0  0  0  0  0
  1  2  2  0
  2  3  2  0
  2  4  1  0
  4  5  1  0
  5  6  2  0
  6  7  1  0
  7  8  2  0
  8  9  1  0
  9 10  2  0
  2 11  1  0
 11 12  1  0
 12 13  1  0
 13 14  2  0
 14 15  1  0
 15 16  2  0
 16 17  1  0
 17 18  2  0
 18 19  1  0
 19 20  1  0
 20 21  2  0
 21 22  1  0
 22 23  1  0
 23 24  2  0
 24 25  1  0
 25 26  2  0
 26 27  1  0
 27 28  2  0
 10  5  1  0
 19 11  1  0
 28 20  1  0
 18 13  1  0
 28 23  1  0
  4 29  1  0
  4 30  1  0
  6 31  1  0
  7 32  1  0
  8 33  1  0
  9 34  1  0
 10 35  1  0
 12 36  1  0
 12 37  1  0
 14 38  1  0
 15 39  1  0
 16 40  1  0
 17 41  1  0
 19 42  1  6
 21 43  1  0
 22 44  1  0
 24 45  1  0
 25 46  1  0
 26 47  1  0
 27 48  1  0
M  END
>  <UniqueID>  (79) 
8

>  <SMILES>  (79) 
O=S(=O)(Cc1ccccc1)N1Cc2ccccc2[C@H]1c1c[nH]c2ccccc12

>  <Energy>  (79) 
98.32218443584806

>  <Genealogy>  (79) 
O=S(=O)(Cc1ccccc1)N1Cc2ccccc2[C@H]1c1c[nH]c2ccccc12 (chirality)
O=S(=O)(Cc1ccccc1)N1Cc2ccccc2[C@H]1c1c[nH]c2ccccc12 (3D coordinates assigned)
O=S(=O)(Cc1ccccc1)N1Cc2ccccc2[C@H]1c1c[nH]c2ccccc12 (nonaromatic ring conformer: 98.32218443584806 kcal/mol)

>  <smiles>  (79) 
O=S(=O)(Cc1ccccc1)N1Cc2ccccc2C1c1c[nH]c2ccccc12

>  <score_type>  (79) 
oracle

>  <origin>  (79) 
autodockgpu

>  <m_score__min__energy>  (79) 
-7.29

>  <m_primary>  (79) 
energy

>  <meeko>  (79) 
{"free_energy": -6.91, "intermolecular_energy": -8.11, "internal_energy": -2.14, "cluster_size": 3, "cluster_id": 2, "rank_in_cluster": 2}

>  <energy>  (79) 
-6.74

>  <cluster_rmsd>  (79) 
0.11

>  <rmsd>  (79) 
271.27

>  <cluster>  (79) 
3

$$$$
WCZRIPJXOMUAPT-QHCPKHFHNA-N
     RDKit          3D

 48 52  0  0  0  0  0  0  0  0999 V2000
  141.1680   75.6300  222.3460 O   0  0  0  0  0  0  0  0  0  0  0  0
  140.2260   74.7510  221.5720 S   0  0  0  0  0  0  0  0  0  0  0  0
  139.9740   73.4950  222.3600 O   0  0  0  0  0  0  0  0  0  0  0  0
  141.0340   74.3380  220.0290 C   0  0  0  0  0  0  0  0  0  0  0  0
  142.4720   73.9460  220.2320 C   0  0  0  0  0  0  0  0  0  0  0  0
  143.4890   74.9150  220.1690 C   0  0  0  0  0  0  0  0  0  0  0  0
  144.8260   74.5460  220.3450 C   0  0  0  0  0  0  0  0  0  0  0  0
  145.1580   73.2120  220.5930 C   0  0  0  0  0  0  0  0  0  0  0  0
  144.1520   72.2440  220.6700 C   0  0  0  0  0  0  0  0  0  0  0  0
  142.8150   72.6080  220.4940 C   0  0  0  0  0  0  0  0  0  0  0  0
  138.7270   75.6130  221.2820 N   0  0  0  0  0  0  0  0  0  0  0  0
  137.9780   75.9280  222.5150 C   0  0  0  0  0  0  0  0  0  0  0  0
  137.2780   77.1950  222.2100 C   0  0  0  0  0  0  0  0  0  0  0  0
  136.2930   77.8400  222.9600 C   0  0  0  0  0  0  0  0  0  0  0  0
  135.7700   79.0510  222.4770 C   0  0  0  0  0  0  0  0  0  0  0  0
  136.2430   79.5930  221.2660 C   0  0  0  0  0  0  0  0  0  0  0  0
  137.2410   78.9270  220.5370 C   0  0  0  0  0  0  0  0  0  0  0  0
  137.7370   77.7200  221.0360 C   0  0  0  0  0  0  0  0  0  0  0  0
  138.8220   76.8680  220.4860 C   0  0  1  0  0  0  0  0  0  0  0  0
  140.1410   77.6040  220.6170 C   0  0  0  0  0  0  0  0  0  0  0  0
  141.1630   77.6780  219.6680 C   0  0  0  0  0  0  0  0  0  0  0  0
  142.1920   78.4180  220.1370 N   0  0  0  0  0  0  0  0  0  0  0  0
  141.8360   78.8100  221.3710 C   0  0  0  0  0  0  0  0  0  0  0  0
  142.5780   79.5980  222.2500 C   0  0  0  0  0  0  0  0  0  0  0  0
  142.0120   79.8950  223.5040 C   0  0  0  0  0  0  0  0  0  0  0  0
  140.7330   79.4050  223.8460 C   0  0  0  0  0  0  0  0  0  0  0  0
  140.0070   78.6120  222.9380 C   0  0  0  0  0  0  0  0  0  0  0  0
  140.5930   78.3330  221.7010 C   0  0  0  0  0  0  0  0  0  0  0  0
  140.4995   73.4975  219.5623 H   0  0  0  0  0  0  0  0  0  0  0  0
  141.0130   75.2300  219.3857 H   0  0  0  0  0  0  0  0  0  0  0  0
  143.2316   75.9677  219.9805 H   0  0  0  0  0  0  0  0  0  0  0  0
  145.6178   75.3074  220.2881 H   0  0  0  0  0  0  0  0  0  0  0  0
  146.2108   72.9231  220.7277 H   0  0  0  0  0  0  0  0  0  0  0  0
  144.4138   71.1944  220.8694 H   0  0  0  0  0  0  0  0  0  0  0  0
  142.0265   71.8439  220.5607 H   0  0  0  0  0  0  0  0  0  0  0  0
  137.2561   75.1308  222.7457 H   0  0  0  0  0  0  0  0  0  0  0  0
  138.6351   76.0141  223.3930 H   0  0  0  0  0  0  0  0  0  0  0  0
  135.9348   77.4100  223.9070 H   0  0  0  0  0  0  0  0  0  0  0  0
  134.9893   79.5772  223.0458 H   0  0  0  0  0  0  0  0  0  0  0  0
  135.8293   80.5406  220.8905 H   0  0  0  0  0  0  0  0  0  0  0  0
  137.6236   79.3459  219.5946 H   0  0  0  0  0  0  0  0  0  0  0  0
  138.7403   76.6340  219.4143 H   0  0  0  0  0  0  0  0  0  0  0  0
  141.1344   77.2007  218.6774 H   0  0  0  0  0  0  0  0  0  0  0  0
  143.0820   78.6370  219.6360 H   0  0  0  0  0  0  0  0  0  0  0  0
  143.5733   79.9753  221.9725 H   0  0  0  0  0  0  0  0  0  0  0  0
  142.5701   80.5132  224.2225 H   0  0  0  0  0  0  0  0  0  0  0  0
  140.3010   79.6447  224.8288 H   0  0  0  0  0  0  0  0  0  0  0  0
  139.0100   78.2242  223.1941 H   0  0  0  0  0  0  0  0  0  0  0  0
  1  2  2  0
  2  3  2  0
  2  4  1  0
  4  5  1  0
  5  6  2  0
  6  7  1  0
  7  8  2  0
  8  9  1  0
  9 10  2  0
  2 11  1  0
 11 12  1  0
 12 13  1  0
 13 14  2  0
 14 15  1  0
 15 16  2  0
 16 17  1  0
 17 18  2  0
 18 19  1  0
 19 20  1  0
 20 21  2  0
 21 22  1  0
 22 23  1  0
 23 24  2  0
 24 25  1  0
 25 26  2  0
 26 27  1  0
 27 28  2  0
 10  5  1  0
 19 11  1  0
 28 20  1  0
 18 13  1  0
 28 23  1  0
  4 29  1  0
  4 30  1  0
  6 31  1  0
  7 32  1  0
  8 33  1  0
  9 34  1  0
 10 35  1  0
 12 36  1  0
 12 37  1  0
 14 38  1  0
 15 39  1  0
 16 40  1  0
 17 41  1  0
 19 42  1  6
 21 43  1  0
 22 44  1  0
 24 45  1  0
 25 46  1  0
 26 47  1  0
 27 48  1  0
M  END
>  <UniqueID>  (80) 
8

>  <SMILES>  (80) 
O=S(=O)(Cc1ccccc1)N1Cc2ccccc2[C@H]1c1c[nH]c2ccccc12

>  <Energy>  (80) 
98.32218443584806

>  <Genealogy>  (80) 
O=S(=O)(Cc1ccccc1)N1Cc2ccccc2[C@H]1c1c[nH]c2ccccc12 (chirality)
O=S(=O)(Cc1ccccc1)N1Cc2ccccc2[C@H]1c1c[nH]c2ccccc12 (3D coordinates assigned)
O=S(=O)(Cc1ccccc1)N1Cc2ccccc2[C@H]1c1c[nH]c2ccccc12 (nonaromatic ring conformer: 98.32218443584806 kcal/mol)

>  <smiles>  (80) 
O=S(=O)(Cc1ccccc1)N1Cc2ccccc2C1c1c[nH]c2ccccc12

>  <score_type>  (80) 
oracle

>  <origin>  (80) 
autodockgpu

>  <m_score__min__energy>  (80) 
-7.29

>  <m_primary>  (80) 
energy

>  <meeko>  (80) 
{"free_energy": -7.27, "intermolecular_energy": -8.46, "internal_energy": -1.97, "cluster_size": 14, "cluster_id": 1, "rank_in_cluster": 11}

>  <energy>  (80) 
-6.74

>  <cluster_rmsd>  (80) 
0.0

>  <rmsd>  (80) 
271.05

>  <cluster>  (80) 
4

$$$$
