XUFANRSCLZKORJ-OUKQBFOZNA-N
     RDKit          3D

 49 52  0  0  0  0  0  0  0  0999 V2000
  141.5164   70.7553  220.9111 H   0  0  0  0  0  0  0  0  0  0  0  0
  140.7370   71.3440  221.4170 C   0  0  0  0  0  0  0  0  0  0  0  0
  139.7170   70.6860  221.9890 C   0  0  0  0  0  0  0  0  0  0  0  0
  138.8652   70.3721  221.3677 H   0  0  0  0  0  0  0  0  0  0  0  0
  139.7100   70.3710  223.4410 C   0  0  0  0  0  0  0  0  0  0  0  0
  140.3970   71.2110  224.2610 N   0  0  0  0  0  0  0  0  0  0  0  0
  140.5170   70.9870  225.5880 C   0  0  0  0  0  0  0  0  0  0  0  0
  141.2230   71.8900  226.3900 C   0  0  0  0  0  0  0  0  0  0  0  0
  141.6603   72.7956  225.9443 H   0  0  0  0  0  0  0  0  0  0  0  0
  141.3730   71.6420  227.7570 C   0  0  0  0  0  0  0  0  0  0  0  0
  141.9240   72.3550  228.3879 H   0  0  0  0  0  0  0  0  0  0  0  0
  140.8230   70.4880  228.3230 C   0  0  0  0  0  0  0  0  0  0  0  0
  140.9433   70.2936  229.3990 H   0  0  0  0  0  0  0  0  0  0  0  0
  140.1200   69.5800  227.5240 C   0  0  0  0  0  0  0  0  0  0  0  0
  139.6922   68.6710  227.9720 H   0  0  0  0  0  0  0  0  0  0  0  0
  139.9590   69.8280  226.1460 C   0  0  0  0  0  0  0  0  0  0  0  0
  139.2550   68.9550  225.3010 C   0  0  0  0  0  0  0  0  0  0  0  0
  138.8100   67.8740  225.7770 O   0  0  0  0  0  0  0  0  0  0  0  0
  139.0670   69.2640  223.9690 N   0  0  0  0  0  0  0  0  0  0  0  0
  138.1970   68.3880  223.1380 C   0  0  0  0  0  0  0  0  0  0  0  0
  138.6036   68.3741  222.1160 H   0  0  0  0  0  0  0  0  0  0  0  0
  138.2015   67.4010  223.6237 H   0  0  0  0  0  0  0  0  0  0  0  0
  136.7030   68.8270  223.0580 C   0  0  0  0  0  0  0  0  0  0  0  0
  136.1975   67.9004  222.7482 H   0  0  0  0  0  0  0  0  0  0  0  0
  136.0690   69.2070  224.4290 C   0  0  0  0  0  0  0  0  0  0  0  0
  135.2543   68.4987  224.6400 H   0  0  0  0  0  0  0  0  0  0  0  0
  136.8777   69.1623  225.1733 H   0  0  0  0  0  0  0  0  0  0  0  0
  135.4960   70.6300  224.4870 C   0  0  0  0  0  0  0  0  0  0  0  0
  134.5212   70.6467  223.9777 H   0  0  0  0  0  0  0  0  0  0  0  0
  135.3836   70.9207  225.5419 H   0  0  0  0  0  0  0  0  0  0  0  0
  136.4330   71.6230  223.8050 C   0  0  0  0  0  0  0  0  0  0  0  0
  136.0289   72.6385  223.9293 H   0  0  0  0  0  0  0  0  0  0  0  0
  137.4256   71.5358  224.2711 H   0  0  0  0  0  0  0  0  0  0  0  0
  136.5780   71.3240  222.3050 C   0  0  0  0  0  0  0  0  0  0  0  0
  135.8341   71.9237  221.7599 H   0  0  0  0  0  0  0  0  0  0  0  0
  137.6126   71.5772  222.0301 H   0  0  0  0  0  0  0  0  0  0  0  0
  136.3700   69.8400  221.9340 C   0  0  0  0  0  0  0  0  0  0  0  0
  135.3149   69.7036  221.6544 H   0  0  0  0  0  0  0  0  0  0  0  0
  137.0722   69.6286  221.1141 H   0  0  0  0  0  0  0  0  0  0  0  0
  140.8720   72.8210  221.4290 C   0  0  0  0  0  0  0  0  0  0  0  0
  139.8650   73.5910  222.0320 C   0  0  0  0  0  0  0  0  0  0  0  0
  139.0008   73.0930  222.4958 H   0  0  0  0  0  0  0  0  0  0  0  0
  139.9500   74.9470  222.0470 N   0  0  0  0  0  0  0  0  0  0  0  0
  140.9950   75.6050  221.4790 C   0  0  0  0  0  0  0  0  0  0  0  0
  141.0382   76.7036  221.5151 H   0  0  0  0  0  0  0  0  0  0  0  0
  142.0130   74.8870  220.8500 C   0  0  0  0  0  0  0  0  0  0  0  0
  142.8572   75.4148  220.3822 H   0  0  0  0  0  0  0  0  0  0  0  0
  141.9500   73.4920  220.8200 C   0  0  0  0  0  0  0  0  0  0  0  0
  142.7433   72.9168  220.3201 H   0  0  0  0  0  0  0  0  0  0  0  0
  1  2  1  0
  2  3  2  0
  3  4  1  0
  3  5  1  0
  5  6  2  0
  6  7  1  0
  7  8  2  0
  8  9  1  0
  8 10  1  0
 10 11  1  0
 10 12  2  0
 12 13  1  0
 12 14  1  0
 14 15  1  0
 14 16  2  0
 16 17  1  0
 17 18  2  0
 17 19  1  0
 19 20  1  0
 20 21  1  0
 20 22  1  0
 20 23  1  0
 23 24  1  0
 23 25  1  0
 25 26  1  0
 25 27  1  0
 25 28  1  0
 28 29  1  0
 28 30  1  0
 28 31  1  0
 31 32  1  0
 31 33  1  0
 31 34  1  0
 34 35  1  0
 34 36  1  0
 34 37  1  0
 37 38  1  0
 37 39  1  0
  2 40  1  0
 40 41  2  0
 41 42  1  0
 41 43  1  0
 43 44  2  0
 44 45  1  0
 44 46  1  0
 46 47  1  0
 46 48  2  0
 48 49  1  0
 19  5  1  0
 37 23  1  0
 48 40  1  0
 16  7  1  0
M  END
>  <UniqueID>  (1) 
23

>  <SMILES>  (1) 
O=c1c2ccccc2nc(/C=C/c2cccnc2)n1CC1CCCCC1

>  <Energy>  (1) 
70.13365946757277

>  <Genealogy>  (1) 
O=c1c2ccccc2nc(/C=C/c2cccnc2)n1CC1CCCCC1 (cis-trans isomerization)
O=c1c2ccccc2nc(/C=C/c2cccnc2)n1CC1CCCCC1 (3D coordinates assigned)
O=c1c2ccccc2nc(/C=C/c2cccnc2)n1CC1CCCCC1 (nonaromatic ring conformer: 70.13365946757277 kcal/mol)

>  <smiles>  (1) 
O=c1c2ccccc2nc(/C=C/c2cccnc2)n1CC1CCCCC1

>  <score_type>  (1) 
oracle

>  <origin>  (1) 
autodockgpu

>  <m_score__min__energy>  (1) 
-7.3499999999999996

>  <m_primary>  (1) 
energy

>  <meeko>  (1) 
{"free_energy": -7.3, "intermolecular_energy": -8.79, "internal_energy": -1.82, "cluster_size": 19, "cluster_id": 1, "rank_in_cluster": 3}

>  <energy>  (1) 
-7.35

>  <cluster_rmsd>  (1) 
0.0

>  <rmsd>  (1) 
272.11

>  <cluster>  (1) 
1

$$$$
XUFANRSCLZKORJ-OUKQBFOZNA-N
     RDKit          3D

 49 52  0  0  0  0  0  0  0  0999 V2000
  139.1340   72.0502  220.7068 H   0  0  0  0  0  0  0  0  0  0  0  0
  139.8510   72.4350  221.4470 C   0  0  0  0  0  0  0  0  0  0  0  0
  140.6410   71.5550  222.0800 C   0  0  0  0  0  0  0  0  0  0  0  0
  141.5869   71.2479  221.6100 H   0  0  0  0  0  0  0  0  0  0  0  0
  140.2690   70.9850  223.4010 C   0  0  0  0  0  0  0  0  0  0  0  0
  140.7090   71.6440  224.5070 N   0  0  0  0  0  0  0  0  0  0  0  0
  140.4900   71.1810  225.7570 C   0  0  0  0  0  0  0  0  0  0  0  0
  140.9520   71.9040  226.8630 C   0  0  0  0  0  0  0  0  0  0  0  0
  141.4731   72.8613  226.7148 H   0  0  0  0  0  0  0  0  0  0  0  0
  140.7520   71.4110  228.1550 C   0  0  0  0  0  0  0  0  0  0  0  0
  141.1112   71.9822  229.0237 H   0  0  0  0  0  0  0  0  0  0  0  0
  140.0950   70.1910  228.3430 C   0  0  0  0  0  0  0  0  0  0  0  0
  139.9396   69.8028  229.3604 H   0  0  0  0  0  0  0  0  0  0  0  0
  139.6350   69.4630  227.2410 C   0  0  0  0  0  0  0  0  0  0  0  0
  139.1218   68.5020  227.3930 H   0  0  0  0  0  0  0  0  0  0  0  0
  139.8280   69.9590  225.9360 C   0  0  0  0  0  0  0  0  0  0  0  0
  139.3780   69.2730  224.7960 C   0  0  0  0  0  0  0  0  0  0  0  0
  138.8440   68.1380  224.9390 O   0  0  0  0  0  0  0  0  0  0  0  0
  139.5310   69.8210  223.5390 N   0  0  0  0  0  0  0  0  0  0  0  0
  138.9180   69.1350  222.3700 C   0  0  0  0  0  0  0  0  0  0  0  0
  139.4998   69.4005  221.4750 H   0  0  0  0  0  0  0  0  0  0  0  0
  138.9368   68.0596  222.6003 H   0  0  0  0  0  0  0  0  0  0  0  0
  137.4240   69.4970  222.1010 C   0  0  0  0  0  0  0  0  0  0  0  0
  137.3413   69.3822  221.0101 H   0  0  0  0  0  0  0  0  0  0  0  0
  136.4000   68.4900  222.7030 C   0  0  0  0  0  0  0  0  0  0  0  0
  135.8420   68.0292  221.8746 H   0  0  0  0  0  0  0  0  0  0  0  0
  136.9810   67.7595  223.2851 H   0  0  0  0  0  0  0  0  0  0  0  0
  135.3890   69.1210  223.6720 C   0  0  0  0  0  0  0  0  0  0  0  0
  134.6114   69.6408  223.0930 H   0  0  0  0  0  0  0  0  0  0  0  0
  134.9435   68.3228  224.2839 H   0  0  0  0  0  0  0  0  0  0  0  0
  136.0740   70.1210  224.5990 C   0  0  0  0  0  0  0  0  0  0  0  0
  135.3381   70.4973  225.3248 H   0  0  0  0  0  0  0  0  0  0  0  0
  136.9012   69.6064  225.1099 H   0  0  0  0  0  0  0  0  0  0  0  0
  136.6560   71.3090  223.8170 C   0  0  0  0  0  0  0  0  0  0  0  0
  135.9044   72.1119  223.7988 H   0  0  0  0  0  0  0  0  0  0  0  0
  137.5817   71.6047  224.3324 H   0  0  0  0  0  0  0  0  0  0  0  0
  137.0450   70.9760  222.3600 C   0  0  0  0  0  0  0  0  0  0  0  0
  136.1908   71.2267  221.7138 H   0  0  0  0  0  0  0  0  0  0  0  0
  137.9480   71.5654  222.1425 H   0  0  0  0  0  0  0  0  0  0  0  0
  139.8900   73.8970  221.6890 C   0  0  0  0  0  0  0  0  0  0  0  0
  138.6960   74.5680  221.9970 C   0  0  0  0  0  0  0  0  0  0  0  0
  137.7546   74.0033  222.0673 H   0  0  0  0  0  0  0  0  0  0  0  0
  138.6950   75.9110  222.2090 N   0  0  0  0  0  0  0  0  0  0  0  0
  139.8320   76.6490  222.1250 C   0  0  0  0  0  0  0  0  0  0  0  0
  139.7986   77.7329  222.3093 H   0  0  0  0  0  0  0  0  0  0  0  0
  141.0430   76.0330  221.8050 C   0  0  0  0  0  0  0  0  0  0  0  0
  141.9654   76.6277  221.7299 H   0  0  0  0  0  0  0  0  0  0  0  0
  141.0730   74.6550  221.5810 C   0  0  0  0  0  0  0  0  0  0  0  0
  142.0206   74.1610  221.3201 H   0  0  0  0  0  0  0  0  0  0  0  0
  1  2  1  0
  2  3  2  0
  3  4  1  0
  3  5  1  0
  5  6  2  0
  6  7  1  0
  7  8  2  0
  8  9  1  0
  8 10  1  0
 10 11  1  0
 10 12  2  0
 12 13  1  0
 12 14  1  0
 14 15  1  0
 14 16  2  0
 16 17  1  0
 17 18  2  0
 17 19  1  0
 19 20  1  0
 20 21  1  0
 20 22  1  0
 20 23  1  0
 23 24  1  0
 23 25  1  0
 25 26  1  0
 25 27  1  0
 25 28  1  0
 28 29  1  0
 28 30  1  0
 28 31  1  0
 31 32  1  0
 31 33  1  0
 31 34  1  0
 34 35  1  0
 34 36  1  0
 34 37  1  0
 37 38  1  0
 37 39  1  0
  2 40  1  0
 40 41  2  0
 41 42  1  0
 41 43  1  0
 43 44  2  0
 44 45  1  0
 44 46  1  0
 46 47  1  0
 46 48  2  0
 48 49  1  0
 19  5  1  0
 37 23  1  0
 48 40  1  0
 16  7  1  0
M  END
>  <UniqueID>  (2) 
23

>  <SMILES>  (2) 
O=c1c2ccccc2nc(/C=C/c2cccnc2)n1CC1CCCCC1

>  <Energy>  (2) 
70.13365946757277

>  <Genealogy>  (2) 
O=c1c2ccccc2nc(/C=C/c2cccnc2)n1CC1CCCCC1 (cis-trans isomerization)
O=c1c2ccccc2nc(/C=C/c2cccnc2)n1CC1CCCCC1 (3D coordinates assigned)
O=c1c2ccccc2nc(/C=C/c2cccnc2)n1CC1CCCCC1 (nonaromatic ring conformer: 70.13365946757277 kcal/mol)

>  <smiles>  (2) 
O=c1c2ccccc2nc(/C=C/c2cccnc2)n1CC1CCCCC1

>  <score_type>  (2) 
oracle

>  <origin>  (2) 
autodockgpu

>  <m_score__min__energy>  (2) 
-7.3499999999999996

>  <m_primary>  (2) 
energy

>  <meeko>  (2) 
{"free_energy": -6.94, "intermolecular_energy": -8.43, "internal_energy": -1.88, "cluster_size": 19, "cluster_id": 1, "rank_in_cluster": 17}

>  <energy>  (2) 
-7.32

>  <cluster_rmsd>  (2) 
0.08

>  <rmsd>  (2) 
272.11

>  <cluster>  (2) 
1

$$$$
XUFANRSCLZKORJ-OUKQBFOZNA-N
     RDKit          3D

 49 52  0  0  0  0  0  0  0  0999 V2000
  138.6125   72.2681  221.0604 H   0  0  0  0  0  0  0  0  0  0  0  0
  139.5000   72.6210  221.6060 C   0  0  0  0  0  0  0  0  0  0  0  0
  140.3430   71.7040  222.1050 C   0  0  0  0  0  0  0  0  0  0  0  0
  141.2280   71.4138  221.5197 H   0  0  0  0  0  0  0  0  0  0  0  0
  140.1100   71.0710  223.4290 C   0  0  0  0  0  0  0  0  0  0  0  0
  140.6090   71.7110  224.5200 N   0  0  0  0  0  0  0  0  0  0  0  0
  140.5170   71.1960  225.7650 C   0  0  0  0  0  0  0  0  0  0  0  0
  141.0360   71.9020  226.8560 C   0  0  0  0  0  0  0  0  0  0  0  0
  141.4983   72.8884  226.7031 H   0  0  0  0  0  0  0  0  0  0  0  0
  140.9670   71.3540  228.1400 C   0  0  0  0  0  0  0  0  0  0  0  0
  141.3702   71.9117  228.9981 H   0  0  0  0  0  0  0  0  0  0  0  0
  140.3860   70.0980  228.3340 C   0  0  0  0  0  0  0  0  0  0  0  0
  140.3351   69.6673  229.3449 H   0  0  0  0  0  0  0  0  0  0  0  0
  139.8690   69.3870  227.2460 C   0  0  0  0  0  0  0  0  0  0  0  0
  139.4150   68.3973  227.4023 H   0  0  0  0  0  0  0  0  0  0  0  0
  139.9290   69.9370  225.9500 C   0  0  0  0  0  0  0  0  0  0  0  0
  139.4170   69.2700  224.8250 C   0  0  0  0  0  0  0  0  0  0  0  0
  138.9500   68.1060  224.9670 O   0  0  0  0  0  0  0  0  0  0  0  0
  139.4390   69.8690  223.5810 N   0  0  0  0  0  0  0  0  0  0  0  0
  138.7630   69.1940  222.4410 C   0  0  0  0  0  0  0  0  0  0  0  0
  139.2995   69.4622  221.5189 H   0  0  0  0  0  0  0  0  0  0  0  0
  138.7876   68.1169  222.6630 H   0  0  0  0  0  0  0  0  0  0  0  0
  137.2600   69.5660  222.2520 C   0  0  0  0  0  0  0  0  0  0  0  0
  137.1463   69.5572  221.1579 H   0  0  0  0  0  0  0  0  0  0  0  0
  136.2600   68.4950  222.7810 C   0  0  0  0  0  0  0  0  0  0  0  0
  135.6807   68.1128  221.9276 H   0  0  0  0  0  0  0  0  0  0  0  0
  136.8620   67.7158  223.2713 H   0  0  0  0  0  0  0  0  0  0  0  0
  135.2750   69.0190  223.8350 C   0  0  0  0  0  0  0  0  0  0  0  0
  134.4779   69.5863  223.3322 H   0  0  0  0  0  0  0  0  0  0  0  0
  134.8527   68.1606  224.3780 H   0  0  0  0  0  0  0  0  0  0  0  0
  135.9800   69.9290  224.8360 C   0  0  0  0  0  0  0  0  0  0  0  0
  135.2634   70.2247  225.6164 H   0  0  0  0  0  0  0  0  0  0  0  0
  136.8254   69.3749  225.2698 H   0  0  0  0  0  0  0  0  0  0  0  0
  136.5300   71.1940  224.1580 C   0  0  0  0  0  0  0  0  0  0  0  0
  135.7720   71.9870  224.2398 H   0  0  0  0  0  0  0  0  0  0  0  0
  137.4680   71.4476  224.6736 H   0  0  0  0  0  0  0  0  0  0  0  0
  136.8790   71.0090  222.6650 C   0  0  0  0  0  0  0  0  0  0  0  0
  136.0050   71.3137  222.0707 H   0  0  0  0  0  0  0  0  0  0  0  0
  137.7713   71.6254  222.4809 H   0  0  0  0  0  0  0  0  0  0  0  0
  139.6980   74.0830  221.7490 C   0  0  0  0  0  0  0  0  0  0  0  0
  138.5870   74.8970  222.0180 C   0  0  0  0  0  0  0  0  0  0  0  0
  137.5918   74.4425  222.1317 H   0  0  0  0  0  0  0  0  0  0  0  0
  138.7320   76.2430  222.1390 N   0  0  0  0  0  0  0  0  0  0  0  0
  139.9400   76.8490  221.9980 C   0  0  0  0  0  0  0  0  0  0  0  0
  140.0245   77.9401  222.1093 H   0  0  0  0  0  0  0  0  0  0  0  0
  141.0730   76.0870  221.7120 C   0  0  0  0  0  0  0  0  0  0  0  0
  142.0522   76.5730  221.5900 H   0  0  0  0  0  0  0  0  0  0  0  0
  140.9530   74.7020  221.5820 C   0  0  0  0  0  0  0  0  0  0  0  0
  141.8391   74.0933  221.3490 H   0  0  0  0  0  0  0  0  0  0  0  0
  1  2  1  0
  2  3  2  0
  3  4  1  0
  3  5  1  0
  5  6  2  0
  6  7  1  0
  7  8  2  0
  8  9  1  0
  8 10  1  0
 10 11  1  0
 10 12  2  0
 12 13  1  0
 12 14  1  0
 14 15  1  0
 14 16  2  0
 16 17  1  0
 17 18  2  0
 17 19  1  0
 19 20  1  0
 20 21  1  0
 20 22  1  0
 20 23  1  0
 23 24  1  0
 23 25  1  0
 25 26  1  0
 25 27  1  0
 25 28  1  0
 28 29  1  0
 28 30  1  0
 28 31  1  0
 31 32  1  0
 31 33  1  0
 31 34  1  0
 34 35  1  0
 34 36  1  0
 34 37  1  0
 37 38  1  0
 37 39  1  0
  2 40  1  0
 40 41  2  0
 41 42  1  0
 41 43  1  0
 43 44  2  0
 44 45  1  0
 44 46  1  0
 46 47  1  0
 46 48  2  0
 48 49  1  0
 19  5  1  0
 37 23  1  0
 48 40  1  0
 16  7  1  0
M  END
>  <UniqueID>  (3) 
23

>  <SMILES>  (3) 
O=c1c2ccccc2nc(/C=C/c2cccnc2)n1CC1CCCCC1

>  <Energy>  (3) 
70.13365946757277

>  <Genealogy>  (3) 
O=c1c2ccccc2nc(/C=C/c2cccnc2)n1CC1CCCCC1 (cis-trans isomerization)
O=c1c2ccccc2nc(/C=C/c2cccnc2)n1CC1CCCCC1 (3D coordinates assigned)
O=c1c2ccccc2nc(/C=C/c2cccnc2)n1CC1CCCCC1 (nonaromatic ring conformer: 70.13365946757277 kcal/mol)

>  <smiles>  (3) 
O=c1c2ccccc2nc(/C=C/c2cccnc2)n1CC1CCCCC1

>  <score_type>  (3) 
oracle

>  <origin>  (3) 
autodockgpu

>  <m_score__min__energy>  (3) 
-7.3499999999999996

>  <m_primary>  (3) 
energy

>  <meeko>  (3) 
{"free_energy": -6.99, "intermolecular_energy": -8.48, "internal_energy": -1.78, "cluster_size": 19, "cluster_id": 1, "rank_in_cluster": 12}

>  <energy>  (3) 
-7.3

>  <cluster_rmsd>  (3) 
0.09

>  <rmsd>  (3) 
272.11

>  <cluster>  (3) 
1

$$$$
XUFANRSCLZKORJ-OUKQBFOZNA-N
     RDKit          3D

 49 52  0  0  0  0  0  0  0  0999 V2000
  141.4745   70.7365  220.9014 H   0  0  0  0  0  0  0  0  0  0  0  0
  140.7080   71.3380  221.4120 C   0  0  0  0  0  0  0  0  0  0  0  0
  139.6860   70.6960  222.0010 C   0  0  0  0  0  0  0  0  0  0  0  0
  138.8221   70.3902  221.3926 H   0  0  0  0  0  0  0  0  0  0  0  0
  139.6940   70.3890  223.4540 C   0  0  0  0  0  0  0  0  0  0  0  0
  140.3820   71.2380  224.2640 N   0  0  0  0  0  0  0  0  0  0  0  0
  140.5140   71.0220  225.5910 C   0  0  0  0  0  0  0  0  0  0  0  0
  141.2220   71.9340  226.3830 C   0  0  0  0  0  0  0  0  0  0  0  0
  141.6508   72.8396  225.9290 H   0  0  0  0  0  0  0  0  0  0  0  0
  141.3840   71.6940  227.7500 C   0  0  0  0  0  0  0  0  0  0  0  0
  141.9358   72.4133  228.3730 H   0  0  0  0  0  0  0  0  0  0  0  0
  140.8450   70.5400  228.3260 C   0  0  0  0  0  0  0  0  0  0  0  0
  140.9756   70.3516  229.4019 H   0  0  0  0  0  0  0  0  0  0  0  0
  140.1400   69.6240  227.5380 C   0  0  0  0  0  0  0  0  0  0  0  0
  139.7202   68.7154  227.9944 H   0  0  0  0  0  0  0  0  0  0  0  0
  139.9670   69.8640  226.1600 C   0  0  0  0  0  0  0  0  0  0  0  0
  139.2610   68.9820  225.3260 C   0  0  0  0  0  0  0  0  0  0  0  0
  138.8260   67.9010  225.8110 O   0  0  0  0  0  0  0  0  0  0  0  0
  139.0600   69.2820  223.9940 N   0  0  0  0  0  0  0  0  0  0  0  0
  138.1890   68.3970  223.1750 C   0  0  0  0  0  0  0  0  0  0  0  0
  138.5879   68.3795  222.1500 H   0  0  0  0  0  0  0  0  0  0  0  0
  138.2026   67.4128  223.6660 H   0  0  0  0  0  0  0  0  0  0  0  0
  136.6910   68.8280  223.1040 C   0  0  0  0  0  0  0  0  0  0  0  0
  136.1852   67.8956  222.8127 H   0  0  0  0  0  0  0  0  0  0  0  0
  136.0700   69.2240  224.4760 C   0  0  0  0  0  0  0  0  0  0  0  0
  135.2615   68.5145  224.7061 H   0  0  0  0  0  0  0  0  0  0  0  0
  136.8866   69.1940  225.2124 H   0  0  0  0  0  0  0  0  0  0  0  0
  135.4900   70.6450  224.5190 C   0  0  0  0  0  0  0  0  0  0  0  0
  134.5107   70.6497  224.0180 H   0  0  0  0  0  0  0  0  0  0  0  0
  135.3849   70.9502  225.5706 H   0  0  0  0  0  0  0  0  0  0  0  0
  136.4160   71.6320  223.8150 C   0  0  0  0  0  0  0  0  0  0  0  0
  136.0089   72.6475  223.9292 H   0  0  0  0  0  0  0  0  0  0  0  0
  137.4133   71.5553  224.2728 H   0  0  0  0  0  0  0  0  0  0  0  0
  136.5480   71.3130  222.3180 C   0  0  0  0  0  0  0  0  0  0  0  0
  135.7964   71.9020  221.7720 H   0  0  0  0  0  0  0  0  0  0  0  0
  137.5789   71.5667  222.0300 H   0  0  0  0  0  0  0  0  0  0  0  0
  136.3430   69.8230  221.9690 C   0  0  0  0  0  0  0  0  0  0  0  0
  135.2860   69.6781  221.7011 H   0  0  0  0  0  0  0  0  0  0  0  0
  137.0380   69.6031  221.1452 H   0  0  0  0  0  0  0  0  0  0  0  0
  140.8600   72.8130  221.4120 C   0  0  0  0  0  0  0  0  0  0  0  0
  139.8450   73.6020  221.9750 C   0  0  0  0  0  0  0  0  0  0  0  0
  138.9614   73.1199  222.4187 H   0  0  0  0  0  0  0  0  0  0  0  0
  139.9460   74.9580  221.9760 N   0  0  0  0  0  0  0  0  0  0  0  0
  141.0160   75.5960  221.4340 C   0  0  0  0  0  0  0  0  0  0  0  0
  141.0720   76.6943  221.4587 H   0  0  0  0  0  0  0  0  0  0  0  0
  142.0440   74.8580  220.8460 C   0  0  0  0  0  0  0  0  0  0  0  0
  142.9090   75.3699  220.3990 H   0  0  0  0  0  0  0  0  0  0  0  0
  141.9650   73.4640  220.8300 C   0  0  0  0  0  0  0  0  0  0  0  0
  142.7667   72.8736  220.3623 H   0  0  0  0  0  0  0  0  0  0  0  0
  1  2  1  0
  2  3  2  0
  3  4  1  0
  3  5  1  0
  5  6  2  0
  6  7  1  0
  7  8  2  0
  8  9  1  0
  8 10  1  0
 10 11  1  0
 10 12  2  0
 12 13  1  0
 12 14  1  0
 14 15  1  0
 14 16  2  0
 16 17  1  0
 17 18  2  0
 17 19  1  0
 19 20  1  0
 20 21  1  0
 20 22  1  0
 20 23  1  0
 23 24  1  0
 23 25  1  0
 25 26  1  0
 25 27  1  0
 25 28  1  0
 28 29  1  0
 28 30  1  0
 28 31  1  0
 31 32  1  0
 31 33  1  0
 31 34  1  0
 34 35  1  0
 34 36  1  0
 34 37  1  0
 37 38  1  0
 37 39  1  0
  2 40  1  0
 40 41  2  0
 41 42  1  0
 41 43  1  0
 43 44  2  0
 44 45  1  0
 44 46  1  0
 46 47  1  0
 46 48  2  0
 48 49  1  0
 19  5  1  0
 37 23  1  0
 48 40  1  0
 16  7  1  0
M  END
>  <UniqueID>  (4) 
23

>  <SMILES>  (4) 
O=c1c2ccccc2nc(/C=C/c2cccnc2)n1CC1CCCCC1

>  <Energy>  (4) 
70.13365946757277

>  <Genealogy>  (4) 
O=c1c2ccccc2nc(/C=C/c2cccnc2)n1CC1CCCCC1 (cis-trans isomerization)
O=c1c2ccccc2nc(/C=C/c2cccnc2)n1CC1CCCCC1 (3D coordinates assigned)
O=c1c2ccccc2nc(/C=C/c2cccnc2)n1CC1CCCCC1 (nonaromatic ring conformer: 70.13365946757277 kcal/mol)

>  <smiles>  (4) 
O=c1c2ccccc2nc(/C=C/c2cccnc2)n1CC1CCCCC1

>  <score_type>  (4) 
oracle

>  <origin>  (4) 
autodockgpu

>  <m_score__min__energy>  (4) 
-7.3499999999999996

>  <m_primary>  (4) 
energy

>  <meeko>  (4) 
{"free_energy": -7.32, "intermolecular_energy": -8.81, "internal_energy": -1.81, "cluster_size": 19, "cluster_id": 1, "rank_in_cluster": 2}

>  <energy>  (4) 
-7.27

>  <cluster_rmsd>  (4) 
0.32

>  <rmsd>  (4) 
272.08

>  <cluster>  (4) 
1

$$$$
XUFANRSCLZKORJ-OUKQBFOZNA-N
     RDKit          3D

 49 52  0  0  0  0  0  0  0  0999 V2000
  139.1280   72.0580  220.7135 H   0  0  0  0  0  0  0  0  0  0  0  0
  139.8440   72.4440  221.4540 C   0  0  0  0  0  0  0  0  0  0  0  0
  140.6330   71.5650  222.0910 C   0  0  0  0  0  0  0  0  0  0  0  0
  141.5824   71.2612  221.6258 H   0  0  0  0  0  0  0  0  0  0  0  0
  140.2560   70.9920  223.4090 C   0  0  0  0  0  0  0  0  0  0  0  0
  140.6910   71.6490  224.5180 N   0  0  0  0  0  0  0  0  0  0  0  0
  140.4670   71.1850  225.7660 C   0  0  0  0  0  0  0  0  0  0  0  0
  140.9250   71.9060  226.8750 C   0  0  0  0  0  0  0  0  0  0  0  0
  141.4473   72.8633  226.7309 H   0  0  0  0  0  0  0  0  0  0  0  0
  140.7190   71.4100  228.1650 C   0  0  0  0  0  0  0  0  0  0  0  0
  141.0741   71.9800  229.0362 H   0  0  0  0  0  0  0  0  0  0  0  0
  140.0620   70.1900  228.3490 C   0  0  0  0  0  0  0  0  0  0  0  0
  139.9033   69.8000  229.3652 H   0  0  0  0  0  0  0  0  0  0  0  0
  139.6060   69.4640  227.2440 C   0  0  0  0  0  0  0  0  0  0  0  0
  139.0920   68.5029  227.3926 H   0  0  0  0  0  0  0  0  0  0  0  0
  139.8040   69.9620  225.9400 C   0  0  0  0  0  0  0  0  0  0  0  0
  139.3590   69.2780  224.7970 C   0  0  0  0  0  0  0  0  0  0  0  0
  138.8250   68.1420  224.9360 O   0  0  0  0  0  0  0  0  0  0  0  0
  139.5170   69.8290  223.5410 N   0  0  0  0  0  0  0  0  0  0  0  0
  138.9090   69.1440  222.3690 C   0  0  0  0  0  0  0  0  0  0  0  0
  139.4871   69.4202  221.4748 H   0  0  0  0  0  0  0  0  0  0  0  0
  138.9383   68.0675  222.5933 H   0  0  0  0  0  0  0  0  0  0  0  0
  137.4120   69.4930  222.1040 C   0  0  0  0  0  0  0  0  0  0  0  0
  137.3254   69.3721  221.0141 H   0  0  0  0  0  0  0  0  0  0  0  0
  136.3980   68.4810  222.7160 C   0  0  0  0  0  0  0  0  0  0  0  0
  135.8397   68.0117  221.8926 H   0  0  0  0  0  0  0  0  0  0  0  0
  136.9869   67.7576  223.2991 H   0  0  0  0  0  0  0  0  0  0  0  0
  135.3870   69.1100  223.6860 C   0  0  0  0  0  0  0  0  0  0  0  0
  134.6035   69.6215  223.1076 H   0  0  0  0  0  0  0  0  0  0  0  0
  134.9500   68.3117  224.3038 H   0  0  0  0  0  0  0  0  0  0  0  0
  136.0680   70.1190  224.6050 C   0  0  0  0  0  0  0  0  0  0  0  0
  135.3325   70.4930  225.3325 H   0  0  0  0  0  0  0  0  0  0  0  0
  136.9014   69.6135  225.1148 H   0  0  0  0  0  0  0  0  0  0  0  0
  136.6370   71.3080  223.8140 C   0  0  0  0  0  0  0  0  0  0  0  0
  135.8784   72.1044  223.7945 H   0  0  0  0  0  0  0  0  0  0  0  0
  137.5622   71.6140  224.3242 H   0  0  0  0  0  0  0  0  0  0  0  0
  137.0230   70.9710  222.3580 C   0  0  0  0  0  0  0  0  0  0  0  0
  136.1647   71.2125  221.7138 H   0  0  0  0  0  0  0  0  0  0  0  0
  137.9210   71.5657  222.1348 H   0  0  0  0  0  0  0  0  0  0  0  0
  139.8840   73.9060  221.6930 C   0  0  0  0  0  0  0  0  0  0  0  0
  138.6920   74.5780  222.0050 C   0  0  0  0  0  0  0  0  0  0  0  0
  137.7511   74.0133  222.0810 H   0  0  0  0  0  0  0  0  0  0  0  0
  138.6910   75.9210  222.2140 N   0  0  0  0  0  0  0  0  0  0  0  0
  139.8280   76.6600  222.1240 C   0  0  0  0  0  0  0  0  0  0  0  0
  139.7954   77.7441  222.3072 H   0  0  0  0  0  0  0  0  0  0  0  0
  141.0370   76.0430  221.7990 C   0  0  0  0  0  0  0  0  0  0  0  0
  141.9590   76.6374  221.7177 H   0  0  0  0  0  0  0  0  0  0  0  0
  141.0660   74.6650  221.5780 C   0  0  0  0  0  0  0  0  0  0  0  0
  142.0126   74.1709  221.3138 H   0  0  0  0  0  0  0  0  0  0  0  0
  1  2  1  0
  2  3  2  0
  3  4  1  0
  3  5  1  0
  5  6  2  0
  6  7  1  0
  7  8  2  0
  8  9  1  0
  8 10  1  0
 10 11  1  0
 10 12  2  0
 12 13  1  0
 12 14  1  0
 14 15  1  0
 14 16  2  0
 16 17  1  0
 17 18  2  0
 17 19  1  0
 19 20  1  0
 20 21  1  0
 20 22  1  0
 20 23  1  0
 23 24  1  0
 23 25  1  0
 25 26  1  0
 25 27  1  0
 25 28  1  0
 28 29  1  0
 28 30  1  0
 28 31  1  0
 31 32  1  0
 31 33  1  0
 31 34  1  0
 34 35  1  0
 34 36  1  0
 34 37  1  0
 37 38  1  0
 37 39  1  0
  2 40  1  0
 40 41  2  0
 41 42  1  0
 41 43  1  0
 43 44  2  0
 44 45  1  0
 44 46  1  0
 46 47  1  0
 46 48  2  0
 48 49  1  0
 19  5  1  0
 37 23  1  0
 48 40  1  0
 16  7  1  0
M  END
>  <UniqueID>  (5) 
23

>  <SMILES>  (5) 
O=c1c2ccccc2nc(/C=C/c2cccnc2)n1CC1CCCCC1

>  <Energy>  (5) 
70.13365946757277

>  <Genealogy>  (5) 
O=c1c2ccccc2nc(/C=C/c2cccnc2)n1CC1CCCCC1 (cis-trans isomerization)
O=c1c2ccccc2nc(/C=C/c2cccnc2)n1CC1CCCCC1 (3D coordinates assigned)
O=c1c2ccccc2nc(/C=C/c2cccnc2)n1CC1CCCCC1 (nonaromatic ring conformer: 70.13365946757277 kcal/mol)

>  <smiles>  (5) 
O=c1c2ccccc2nc(/C=C/c2cccnc2)n1CC1CCCCC1

>  <score_type>  (5) 
oracle

>  <origin>  (5) 
autodockgpu

>  <m_score__min__energy>  (5) 
-7.3499999999999996

>  <m_primary>  (5) 
energy

>  <meeko>  (5) 
{"free_energy": -6.93, "intermolecular_energy": -8.42, "internal_energy": -1.88, "cluster_size": 19, "cluster_id": 1, "rank_in_cluster": 18}

>  <energy>  (5) 
-7.27

>  <cluster_rmsd>  (5) 
0.28

>  <rmsd>  (5) 
272.14

>  <cluster>  (5) 
1

$$$$
XUFANRSCLZKORJ-OUKQBFOZNA-N
     RDKit          3D

 49 52  0  0  0  0  0  0  0  0999 V2000
  141.8427   72.1157  221.4244 H   0  0  0  0  0  0  0  0  0  0  0  0
  140.7940   72.2850  221.7100 C   0  0  0  0  0  0  0  0  0  0  0  0
  140.0390   71.2170  222.0130 C   0  0  0  0  0  0  0  0  0  0  0  0
  139.4895   70.7029  221.2106 H   0  0  0  0  0  0  0  0  0  0  0  0
  139.9280   70.7130  223.4060 C   0  0  0  0  0  0  0  0  0  0  0  0
  140.4600   71.4860  224.3900 N   0  0  0  0  0  0  0  0  0  0  0  0
  140.4780   71.0970  225.6840 C   0  0  0  0  0  0  0  0  0  0  0  0
  141.0270   71.9360  226.6600 C   0  0  0  0  0  0  0  0  0  0  0  0
  141.4231   72.9226  226.3778 H   0  0  0  0  0  0  0  0  0  0  0  0
  141.0720   71.5200  227.9940 C   0  0  0  0  0  0  0  0  0  0  0  0
  141.4988   72.1817  228.7621 H   0  0  0  0  0  0  0  0  0  0  0  0
  140.5750   70.2640  228.3520 C   0  0  0  0  0  0  0  0  0  0  0  0
  140.6133   69.9376  229.4018 H   0  0  0  0  0  0  0  0  0  0  0  0
  140.0290   69.4210  227.3790 C   0  0  0  0  0  0  0  0  0  0  0  0
  139.6419   68.4316  227.6641 H   0  0  0  0  0  0  0  0  0  0  0  0
  139.9740   69.8370  226.0340 C   0  0  0  0  0  0  0  0  0  0  0  0
  139.4280   69.0330  225.0190 C   0  0  0  0  0  0  0  0  0  0  0  0
  139.0370   67.8680  225.3080 O   0  0  0  0  0  0  0  0  0  0  0  0
  139.3360   69.5010  223.7240 N   0  0  0  0  0  0  0  0  0  0  0  0
  138.6260   68.6810  222.7060 C   0  0  0  0  0  0  0  0  0  0  0  0
  139.0995   68.8636  221.7301 H   0  0  0  0  0  0  0  0  0  0  0  0
  138.7064   67.6366  223.0419 H   0  0  0  0  0  0  0  0  0  0  0  0
  137.1010   68.9780  222.5670 C   0  0  0  0  0  0  0  0  0  0  0  0
  136.7335   68.0958  222.0224 H   0  0  0  0  0  0  0  0  0  0  0  0
  136.3220   68.9880  223.9160 C   0  0  0  0  0  0  0  0  0  0  0  0
  135.5829   68.1736  223.8931 H   0  0  0  0  0  0  0  0  0  0  0  0
  137.0701   68.8639  224.7129 H   0  0  0  0  0  0  0  0  0  0  0  0
  135.5820   70.3010  224.2080 C   0  0  0  0  0  0  0  0  0  0  0  0
  134.6551   70.3313  223.6164 H   0  0  0  0  0  0  0  0  0  0  0  0
  135.3531   70.3439  225.2830 H   0  0  0  0  0  0  0  0  0  0  0  0
  136.4460   71.5050  223.8450 C   0  0  0  0  0  0  0  0  0  0  0  0
  135.9166   72.4247  224.1347 H   0  0  0  0  0  0  0  0  0  0  0  0
  137.4022   71.4168  224.3816 H   0  0  0  0  0  0  0  0  0  0  0  0
  136.7430   71.5540  222.3380 C   0  0  0  0  0  0  0  0  0  0  0  0
  135.9794   72.1820  221.8558 H   0  0  0  0  0  0  0  0  0  0  0  0
  137.7591   71.9607  222.2283 H   0  0  0  0  0  0  0  0  0  0  0  0
  136.7400   70.1720  221.6490 C   0  0  0  0  0  0  0  0  0  0  0  0
  135.7332   69.9965  221.2422 H   0  0  0  0  0  0  0  0  0  0  0  0
  137.5237   70.2129  220.8782 H   0  0  0  0  0  0  0  0  0  0  0  0
  140.2930   73.6790  221.7390 C   0  0  0  0  0  0  0  0  0  0  0  0
  141.2060   74.7340  221.5840 C   0  0  0  0  0  0  0  0  0  0  0  0
  142.2729   74.5147  221.4307 H   0  0  0  0  0  0  0  0  0  0  0  0
  140.7810   76.0250  221.6220 N   0  0  0  0  0  0  0  0  0  0  0  0
  139.4740   76.3430  221.8170 C   0  0  0  0  0  0  0  0  0  0  0  0
  139.1613   77.3975  221.8353 H   0  0  0  0  0  0  0  0  0  0  0  0
  138.5290   75.3320  221.9940 C   0  0  0  0  0  0  0  0  0  0  0  0
  137.4711   75.5841  222.1589 H   0  0  0  0  0  0  0  0  0  0  0  0
  138.9380   73.9970  221.9600 C   0  0  0  0  0  0  0  0  0  0  0  0
  138.2017   73.1929  222.1059 H   0  0  0  0  0  0  0  0  0  0  0  0
  1  2  1  0
  2  3  2  0
  3  4  1  0
  3  5  1  0
  5  6  2  0
  6  7  1  0
  7  8  2  0
  8  9  1  0
  8 10  1  0
 10 11  1  0
 10 12  2  0
 12 13  1  0
 12 14  1  0
 14 15  1  0
 14 16  2  0
 16 17  1  0
 17 18  2  0
 17 19  1  0
 19 20  1  0
 20 21  1  0
 20 22  1  0
 20 23  1  0
 23 24  1  0
 23 25  1  0
 25 26  1  0
 25 27  1  0
 25 28  1  0
 28 29  1  0
 28 30  1  0
 28 31  1  0
 31 32  1  0
 31 33  1  0
 31 34  1  0
 34 35  1  0
 34 36  1  0
 34 37  1  0
 37 38  1  0
 37 39  1  0
  2 40  1  0
 40 41  2  0
 41 42  1  0
 41 43  1  0
 43 44  2  0
 44 45  1  0
 44 46  1  0
 46 47  1  0
 46 48  2  0
 48 49  1  0
 19  5  1  0
 37 23  1  0
 48 40  1  0
 16  7  1  0
M  END
>  <UniqueID>  (6) 
23

>  <SMILES>  (6) 
O=c1c2ccccc2nc(/C=C/c2cccnc2)n1CC1CCCCC1

>  <Energy>  (6) 
70.13365946757277

>  <Genealogy>  (6) 
O=c1c2ccccc2nc(/C=C/c2cccnc2)n1CC1CCCCC1 (cis-trans isomerization)
O=c1c2ccccc2nc(/C=C/c2cccnc2)n1CC1CCCCC1 (3D coordinates assigned)
O=c1c2ccccc2nc(/C=C/c2cccnc2)n1CC1CCCCC1 (nonaromatic ring conformer: 70.13365946757277 kcal/mol)

>  <smiles>  (6) 
O=c1c2ccccc2nc(/C=C/c2cccnc2)n1CC1CCCCC1

>  <score_type>  (6) 
oracle

>  <origin>  (6) 
autodockgpu

>  <m_score__min__energy>  (6) 
-7.3499999999999996

>  <m_primary>  (6) 
energy

>  <meeko>  (6) 
{"free_energy": -6.94, "intermolecular_energy": -8.43, "internal_energy": -1.91, "cluster_size": 19, "cluster_id": 1, "rank_in_cluster": 16}

>  <energy>  (6) 
-7.22

>  <cluster_rmsd>  (6) 
0.32

>  <rmsd>  (6) 
272.17

>  <cluster>  (6) 
1

$$$$
XUFANRSCLZKORJ-OUKQBFOZNA-N
     RDKit          3D

 49 52  0  0  0  0  0  0  0  0999 V2000
  141.5311   71.0624  220.9149 H   0  0  0  0  0  0  0  0  0  0  0  0
  140.7060   71.5350  221.4680 C   0  0  0  0  0  0  0  0  0  0  0  0
  139.7610   70.7420  221.9970 C   0  0  0  0  0  0  0  0  0  0  0  0
  138.9819   70.3249  221.3420 H   0  0  0  0  0  0  0  0  0  0  0  0
  139.7420   70.4140  223.4460 C   0  0  0  0  0  0  0  0  0  0  0  0
  140.4220   71.2470  224.2790 N   0  0  0  0  0  0  0  0  0  0  0  0
  140.5300   71.0120  225.6050 C   0  0  0  0  0  0  0  0  0  0  0  0
  141.2300   71.9080  226.4210 C   0  0  0  0  0  0  0  0  0  0  0  0
  141.6717   72.8171  225.9869 H   0  0  0  0  0  0  0  0  0  0  0  0
  141.3680   71.6480  227.7870 C   0  0  0  0  0  0  0  0  0  0  0  0
  141.9134   72.3554  228.4290 H   0  0  0  0  0  0  0  0  0  0  0  0
  140.8130   70.4890  228.3380 C   0  0  0  0  0  0  0  0  0  0  0  0
  140.9250   70.2847  229.4130 H   0  0  0  0  0  0  0  0  0  0  0  0
  140.1160   69.5890  227.5260 C   0  0  0  0  0  0  0  0  0  0  0  0
  139.6833   68.6768  227.9627 H   0  0  0  0  0  0  0  0  0  0  0  0
  139.9670   69.8490  226.1480 C   0  0  0  0  0  0  0  0  0  0  0  0
  139.2700   68.9830  225.2900 C   0  0  0  0  0  0  0  0  0  0  0  0
  138.8200   67.8980  225.7530 O   0  0  0  0  0  0  0  0  0  0  0  0
  139.0940   69.3040  223.9590 N   0  0  0  0  0  0  0  0  0  0  0  0
  138.2310   68.4350  223.1130 C   0  0  0  0  0  0  0  0  0  0  0  0
  138.6426   68.4350  222.0929 H   0  0  0  0  0  0  0  0  0  0  0  0
  138.2367   67.4422  223.5866 H   0  0  0  0  0  0  0  0  0  0  0  0
  136.7350   68.8700  223.0310 C   0  0  0  0  0  0  0  0  0  0  0  0
  136.2321   67.9434  222.7171 H   0  0  0  0  0  0  0  0  0  0  0  0
  136.0980   69.2440  224.4020 C   0  0  0  0  0  0  0  0  0  0  0  0
  135.2849   68.5329  224.6097 H   0  0  0  0  0  0  0  0  0  0  0  0
  136.9055   69.1991  225.1476 H   0  0  0  0  0  0  0  0  0  0  0  0
  135.5210   70.6660  224.4630 C   0  0  0  0  0  0  0  0  0  0  0  0
  134.5470   70.6816  223.9519 H   0  0  0  0  0  0  0  0  0  0  0  0
  135.4060   70.9533  225.5186 H   0  0  0  0  0  0  0  0  0  0  0  0
  136.4560   71.6630  223.7860 C   0  0  0  0  0  0  0  0  0  0  0  0
  136.0487   72.6770  223.9124 H   0  0  0  0  0  0  0  0  0  0  0  0
  137.4479   71.5771  224.2538 H   0  0  0  0  0  0  0  0  0  0  0  0
  136.6050   71.3690  222.2860 C   0  0  0  0  0  0  0  0  0  0  0  0
  135.8606   71.9681  221.7411 H   0  0  0  0  0  0  0  0  0  0  0  0
  137.6394   71.6260  222.0141 H   0  0  0  0  0  0  0  0  0  0  0  0
  136.4020   69.8850  221.9100 C   0  0  0  0  0  0  0  0  0  0  0  0
  135.3479   69.7465  221.6275 H   0  0  0  0  0  0  0  0  0  0  0  0
  137.1068   69.6781  221.0912 H   0  0  0  0  0  0  0  0  0  0  0  0
  140.6990   73.0120  221.5880 C   0  0  0  0  0  0  0  0  0  0  0  0
  139.6150   73.6380  222.2230 C   0  0  0  0  0  0  0  0  0  0  0  0
  138.7955   73.0288  222.6321 H   0  0  0  0  0  0  0  0  0  0  0  0
  139.5710   74.9930  222.3360 N   0  0  0  0  0  0  0  0  0  0  0  0
  140.5560   75.7850  221.8390 C   0  0  0  0  0  0  0  0  0  0  0  0
  140.4939   76.8773  221.9535 H   0  0  0  0  0  0  0  0  0  0  0  0
  141.6470   75.2130  221.1830 C   0  0  0  0  0  0  0  0  0  0  0  0
  142.4441   75.8504  220.7727 H   0  0  0  0  0  0  0  0  0  0  0  0
  141.7180   73.8250  221.0520 C   0  0  0  0  0  0  0  0  0  0  0  0
  142.5701   73.3653  220.5299 H   0  0  0  0  0  0  0  0  0  0  0  0
  1  2  1  0
  2  3  2  0
  3  4  1  0
  3  5  1  0
  5  6  2  0
  6  7  1  0
  7  8  2  0
  8  9  1  0
  8 10  1  0
 10 11  1  0
 10 12  2  0
 12 13  1  0
 12 14  1  0
 14 15  1  0
 14 16  2  0
 16 17  1  0
 17 18  2  0
 17 19  1  0
 19 20  1  0
 20 21  1  0
 20 22  1  0
 20 23  1  0
 23 24  1  0
 23 25  1  0
 25 26  1  0
 25 27  1  0
 25 28  1  0
 28 29  1  0
 28 30  1  0
 28 31  1  0
 31 32  1  0
 31 33  1  0
 31 34  1  0
 34 35  1  0
 34 36  1  0
 34 37  1  0
 37 38  1  0
 37 39  1  0
  2 40  1  0
 40 41  2  0
 41 42  1  0
 41 43  1  0
 43 44  2  0
 44 45  1  0
 44 46  1  0
 46 47  1  0
 46 48  2  0
 48 49  1  0
 19  5  1  0
 37 23  1  0
 48 40  1  0
 16  7  1  0
M  END
>  <UniqueID>  (7) 
23

>  <SMILES>  (7) 
O=c1c2ccccc2nc(/C=C/c2cccnc2)n1CC1CCCCC1

>  <Energy>  (7) 
70.13365946757277

>  <Genealogy>  (7) 
O=c1c2ccccc2nc(/C=C/c2cccnc2)n1CC1CCCCC1 (cis-trans isomerization)
O=c1c2ccccc2nc(/C=C/c2cccnc2)n1CC1CCCCC1 (3D coordinates assigned)
O=c1c2ccccc2nc(/C=C/c2cccnc2)n1CC1CCCCC1 (nonaromatic ring conformer: 70.13365946757277 kcal/mol)

>  <smiles>  (7) 
O=c1c2ccccc2nc(/C=C/c2cccnc2)n1CC1CCCCC1

>  <score_type>  (7) 
oracle

>  <origin>  (7) 
autodockgpu

>  <m_score__min__energy>  (7) 
-7.3499999999999996

>  <m_primary>  (7) 
energy

>  <meeko>  (7) 
{"free_energy": -7.27, "intermolecular_energy": -8.76, "internal_energy": -1.87, "cluster_size": 19, "cluster_id": 1, "rank_in_cluster": 5}

>  <energy>  (7) 
-7.14

>  <cluster_rmsd>  (7) 
0.71

>  <rmsd>  (7) 
272.18

>  <cluster>  (7) 
1

$$$$
XUFANRSCLZKORJ-OUKQBFOZNA-N
     RDKit          3D

 49 52  0  0  0  0  0  0  0  0999 V2000
  138.4847   71.7395  220.7554 H   0  0  0  0  0  0  0  0  0  0  0  0
  139.3040   72.0530  221.4190 C   0  0  0  0  0  0  0  0  0  0  0  0
  140.0920   71.1030  221.9460 C   0  0  0  0  0  0  0  0  0  0  0  0
  140.8756   70.6488  221.3218 H   0  0  0  0  0  0  0  0  0  0  0  0
  139.9320   70.6500  223.3510 C   0  0  0  0  0  0  0  0  0  0  0  0
  140.5030   71.4160  224.3190 N   0  0  0  0  0  0  0  0  0  0  0  0
  140.4800   71.0670  225.6240 C   0  0  0  0  0  0  0  0  0  0  0  0
  141.0720   71.8970  226.5820 C   0  0  0  0  0  0  0  0  0  0  0  0
  141.5353   72.8466  226.2759 H   0  0  0  0  0  0  0  0  0  0  0  0
  141.0750   71.5200  227.9280 C   0  0  0  0  0  0  0  0  0  0  0  0
  141.5365   72.1753  228.6814 H   0  0  0  0  0  0  0  0  0  0  0  0
  140.4920   70.3110  228.3170 C   0  0  0  0  0  0  0  0  0  0  0  0
  140.4970   70.0152  229.3765 H   0  0  0  0  0  0  0  0  0  0  0  0
  139.9020   69.4760  227.3620 C   0  0  0  0  0  0  0  0  0  0  0  0
  139.4469   68.5234  227.6712 H   0  0  0  0  0  0  0  0  0  0  0  0
  139.8900   69.8540  226.0040 C   0  0  0  0  0  0  0  0  0  0  0  0
  139.3040   69.0570  225.0070 C   0  0  0  0  0  0  0  0  0  0  0  0
  138.8330   67.9300  225.3260 O   0  0  0  0  0  0  0  0  0  0  0  0
  139.2580   69.4900  223.6970 N   0  0  0  0  0  0  0  0  0  0  0  0
  138.5070   68.6880  222.6950 C   0  0  0  0  0  0  0  0  0  0  0  0
  139.0943   68.6676  221.7651 H   0  0  0  0  0  0  0  0  0  0  0  0
  138.3630   67.6939  223.1433 H   0  0  0  0  0  0  0  0  0  0  0  0
  137.0810   69.2230  222.3550 C   0  0  0  0  0  0  0  0  0  0  0  0
  137.0951   69.2662  221.2559 H   0  0  0  0  0  0  0  0  0  0  0  0
  135.9240   68.2450  222.7150 C   0  0  0  0  0  0  0  0  0  0  0  0
  135.4134   67.9574  221.7841 H   0  0  0  0  0  0  0  0  0  0  0  0
  136.3832   67.3893  223.2317 H   0  0  0  0  0  0  0  0  0  0  0  0
  134.8790   68.8310  223.6760 C   0  0  0  0  0  0  0  0  0  0  0  0
  134.2070   69.4967  223.1145 H   0  0  0  0  0  0  0  0  0  0  0  0
  134.3125   68.0023  224.1258 H   0  0  0  0  0  0  0  0  0  0  0  0
  135.5490   69.6250  224.7930 C   0  0  0  0  0  0  0  0  0  0  0  0
  134.7787   69.9666  225.5000 H   0  0  0  0  0  0  0  0  0  0  0  0
  136.2771   68.9693  225.2929 H   0  0  0  0  0  0  0  0  0  0  0  0
  136.3000   70.8480  224.2440 C   0  0  0  0  0  0  0  0  0  0  0  0
  135.6218   71.7134  224.2778 H   0  0  0  0  0  0  0  0  0  0  0  0
  137.1916   70.9813  224.8743 H   0  0  0  0  0  0  0  0  0  0  0  0
  136.8020   70.6820  222.7930 C   0  0  0  0  0  0  0  0  0  0  0  0
  136.0395   71.0998  222.1192 H   0  0  0  0  0  0  0  0  0  0  0  0
  137.7678   71.2061  222.7421 H   0  0  0  0  0  0  0  0  0  0  0  0
  139.4770   73.5020  221.6820 C   0  0  0  0  0  0  0  0  0  0  0  0
  140.7730   74.0400  221.7050 C   0  0  0  0  0  0  0  0  0  0  0  0
  141.6385   73.3881  221.5154 H   0  0  0  0  0  0  0  0  0  0  0  0
  140.9660   75.3610  221.9600 N   0  0  0  0  0  0  0  0  0  0  0  0
  139.9280   76.2020  222.2070 C   0  0  0  0  0  0  0  0  0  0  0  0
  140.1177   77.2678  222.4021 H   0  0  0  0  0  0  0  0  0  0  0  0
  138.6210   75.7130  222.2130 C   0  0  0  0  0  0  0  0  0  0  0  0
  137.7773   76.3882  222.4186 H   0  0  0  0  0  0  0  0  0  0  0  0
  138.3930   74.3600  221.9560 C   0  0  0  0  0  0  0  0  0  0  0  0
  137.3670   73.9634  221.9673 H   0  0  0  0  0  0  0  0  0  0  0  0
  1  2  1  0
  2  3  2  0
  3  4  1  0
  3  5  1  0
  5  6  2  0
  6  7  1  0
  7  8  2  0
  8  9  1  0
  8 10  1  0
 10 11  1  0
 10 12  2  0
 12 13  1  0
 12 14  1  0
 14 15  1  0
 14 16  2  0
 16 17  1  0
 17 18  2  0
 17 19  1  0
 19 20  1  0
 20 21  1  0
 20 22  1  0
 20 23  1  0
 23 24  1  0
 23 25  1  0
 25 26  1  0
 25 27  1  0
 25 28  1  0
 28 29  1  0
 28 30  1  0
 28 31  1  0
 31 32  1  0
 31 33  1  0
 31 34  1  0
 34 35  1  0
 34 36  1  0
 34 37  1  0
 37 38  1  0
 37 39  1  0
  2 40  1  0
 40 41  2  0
 41 42  1  0
 41 43  1  0
 43 44  2  0
 44 45  1  0
 44 46  1  0
 46 47  1  0
 46 48  2  0
 48 49  1  0
 19  5  1  0
 37 23  1  0
 48 40  1  0
 16  7  1  0
M  END
>  <UniqueID>  (8) 
23

>  <SMILES>  (8) 
O=c1c2ccccc2nc(/C=C/c2cccnc2)n1CC1CCCCC1

>  <Energy>  (8) 
70.13365946757277

>  <Genealogy>  (8) 
O=c1c2ccccc2nc(/C=C/c2cccnc2)n1CC1CCCCC1 (cis-trans isomerization)
O=c1c2ccccc2nc(/C=C/c2cccnc2)n1CC1CCCCC1 (3D coordinates assigned)
O=c1c2ccccc2nc(/C=C/c2cccnc2)n1CC1CCCCC1 (nonaromatic ring conformer: 70.13365946757277 kcal/mol)

>  <smiles>  (8) 
O=c1c2ccccc2nc(/C=C/c2cccnc2)n1CC1CCCCC1

>  <score_type>  (8) 
oracle

>  <origin>  (8) 
autodockgpu

>  <m_score__min__energy>  (8) 
-7.3499999999999996

>  <m_primary>  (8) 
energy

>  <meeko>  (8) 
{"free_energy": -7.08, "intermolecular_energy": -8.57, "internal_energy": -1.76, "cluster_size": 19, "cluster_id": 1, "rank_in_cluster": 9}

>  <energy>  (8) 
-7.12

>  <cluster_rmsd>  (8) 
1.34

>  <rmsd>  (8) 
272.26

>  <cluster>  (8) 
1

$$$$
XUFANRSCLZKORJ-OUKQBFOZNA-N
     RDKit          3D

 49 52  0  0  0  0  0  0  0  0999 V2000
  138.8667   72.0896  220.7879 H   0  0  0  0  0  0  0  0  0  0  0  0
  139.6630   72.4400  221.4610 C   0  0  0  0  0  0  0  0  0  0  0  0
  140.4600   71.5230  222.0310 C   0  0  0  0  0  0  0  0  0  0  0  0
  141.3472   71.1694  221.4853 H   0  0  0  0  0  0  0  0  0  0  0  0
  140.1730   70.9740  223.3810 C   0  0  0  0  0  0  0  0  0  0  0  0
  140.6690   71.6560  224.4480 N   0  0  0  0  0  0  0  0  0  0  0  0
  140.5290   71.2150  225.7170 C   0  0  0  0  0  0  0  0  0  0  0  0
  141.0480   71.9620  226.7800 C   0  0  0  0  0  0  0  0  0  0  0  0
  141.5499   72.9211  226.5846 H   0  0  0  0  0  0  0  0  0  0  0  0
  140.9290   71.4900  228.0900 C   0  0  0  0  0  0  0  0  0  0  0  0
  141.3311   72.0809  228.9261 H   0  0  0  0  0  0  0  0  0  0  0  0
  140.2990   70.2670  228.3380 C   0  0  0  0  0  0  0  0  0  0  0  0
  140.2100   69.8949  229.3693 H   0  0  0  0  0  0  0  0  0  0  0  0
  139.7820   69.5160  227.2790 C   0  0  0  0  0  0  0  0  0  0  0  0
  139.2884   68.5534  227.4781 H   0  0  0  0  0  0  0  0  0  0  0  0
  139.8920   69.9900  225.9560 C   0  0  0  0  0  0  0  0  0  0  0  0
  139.3830   69.2790  224.8570 C   0  0  0  0  0  0  0  0  0  0  0  0
  138.8710   68.1410  225.0500 O   0  0  0  0  0  0  0  0  0  0  0  0
  139.4560   69.8060  223.5830 N   0  0  0  0  0  0  0  0  0  0  0  0
  138.7820   69.0930  222.4640 C   0  0  0  0  0  0  0  0  0  0  0  0
  139.2488   69.4177  221.5224 H   0  0  0  0  0  0  0  0  0  0  0  0
  138.9057   68.0188  222.6658 H   0  0  0  0  0  0  0  0  0  0  0  0
  137.2460   69.3410  222.3530 C   0  0  0  0  0  0  0  0  0  0  0  0
  136.9382   68.6068  221.5939 H   0  0  0  0  0  0  0  0  0  0  0  0
  136.4410   68.9750  223.6350 C   0  0  0  0  0  0  0  0  0  0  0  0
  135.7478   68.1582  223.3852 H   0  0  0  0  0  0  0  0  0  0  0  0
  137.1786   68.6905  224.3999 H   0  0  0  0  0  0  0  0  0  0  0  0
  135.6250   70.1360  224.2210 C   0  0  0  0  0  0  0  0  0  0  0  0
  134.7102   70.2701  223.6250 H   0  0  0  0  0  0  0  0  0  0  0  0
  135.3723   69.8963  225.2644 H   0  0  0  0  0  0  0  0  0  0  0  0
  136.4290   71.4320  224.2000 C   0  0  0  0  0  0  0  0  0  0  0  0
  135.8448   72.2229  224.6931 H   0  0  0  0  0  0  0  0  0  0  0  0
  137.3777   71.2579  224.7289 H   0  0  0  0  0  0  0  0  0  0  0  0
  136.7520   71.8720  222.7630 C   0  0  0  0  0  0  0  0  0  0  0  0
  135.9642   72.5628  222.4281 H   0  0  0  0  0  0  0  0  0  0  0  0
  137.7461   72.3421  222.7915 H   0  0  0  0  0  0  0  0  0  0  0  0
  136.8390   70.7090  221.7510 C   0  0  0  0  0  0  0  0  0  0  0  0
  135.8519   70.5934  221.2796 H   0  0  0  0  0  0  0  0  0  0  0  0
  137.6351   70.9799  221.0419 H   0  0  0  0  0  0  0  0  0  0  0  0
  139.7960   73.8990  221.6880 C   0  0  0  0  0  0  0  0  0  0  0  0
  138.6490   74.6480  221.9940 C   0  0  0  0  0  0  0  0  0  0  0  0
  137.6739   74.1454  222.0749 H   0  0  0  0  0  0  0  0  0  0  0  0
  138.7350   75.9900  222.1910 N   0  0  0  0  0  0  0  0  0  0  0  0
  139.9160   76.6540  222.0950 C   0  0  0  0  0  0  0  0  0  0  0  0
  139.9524   77.7396  222.2687 H   0  0  0  0  0  0  0  0  0  0  0  0
  141.0830   75.9590  221.7760 C   0  0  0  0  0  0  0  0  0  0  0  0
  142.0409   76.4929  221.6900 H   0  0  0  0  0  0  0  0  0  0  0  0
  141.0240   74.5800  221.5670 C   0  0  0  0  0  0  0  0  0  0  0  0
  141.9371   74.0242  221.3075 H   0  0  0  0  0  0  0  0  0  0  0  0
  1  2  1  0
  2  3  2  0
  3  4  1  0
  3  5  1  0
  5  6  2  0
  6  7  1  0
  7  8  2  0
  8  9  1  0
  8 10  1  0
 10 11  1  0
 10 12  2  0
 12 13  1  0
 12 14  1  0
 14 15  1  0
 14 16  2  0
 16 17  1  0
 17 18  2  0
 17 19  1  0
 19 20  1  0
 20 21  1  0
 20 22  1  0
 20 23  1  0
 23 24  1  0
 23 25  1  0
 25 26  1  0
 25 27  1  0
 25 28  1  0
 28 29  1  0
 28 30  1  0
 28 31  1  0
 31 32  1  0
 31 33  1  0
 31 34  1  0
 34 35  1  0
 34 36  1  0
 34 37  1  0
 37 38  1  0
 37 39  1  0
  2 40  1  0
 40 41  2  0
 41 42  1  0
 41 43  1  0
 43 44  2  0
 44 45  1  0
 44 46  1  0
 46 47  1  0
 46 48  2  0
 48 49  1  0
 19  5  1  0
 37 23  1  0
 48 40  1  0
 16  7  1  0
M  END
>  <UniqueID>  (9) 
23

>  <SMILES>  (9) 
O=c1c2ccccc2nc(/C=C/c2cccnc2)n1CC1CCCCC1

>  <Energy>  (9) 
70.13365946757277

>  <Genealogy>  (9) 
O=c1c2ccccc2nc(/C=C/c2cccnc2)n1CC1CCCCC1 (cis-trans isomerization)
O=c1c2ccccc2nc(/C=C/c2cccnc2)n1CC1CCCCC1 (3D coordinates assigned)
O=c1c2ccccc2nc(/C=C/c2cccnc2)n1CC1CCCCC1 (nonaromatic ring conformer: 70.13365946757277 kcal/mol)

>  <smiles>  (9) 
O=c1c2ccccc2nc(/C=C/c2cccnc2)n1CC1CCCCC1

>  <score_type>  (9) 
oracle

>  <origin>  (9) 
autodockgpu

>  <m_score__min__energy>  (9) 
-7.3499999999999996

>  <m_primary>  (9) 
energy

>  <meeko>  (9) 
{"free_energy": -6.87, "intermolecular_energy": -8.36, "internal_energy": -1.89, "cluster_size": 19, "cluster_id": 1, "rank_in_cluster": 19}

>  <energy>  (9) 
-7.08

>  <cluster_rmsd>  (9) 
0.96

>  <rmsd>  (9) 
272.0

>  <cluster>  (9) 
1

$$$$
XUFANRSCLZKORJ-OUKQBFOZNA-N
     RDKit          3D

 49 52  0  0  0  0  0  0  0  0999 V2000
  141.2470   71.5597  221.0062 H   0  0  0  0  0  0  0  0  0  0  0  0
  140.3300   71.8160  221.5570 C   0  0  0  0  0  0  0  0  0  0  0  0
  139.5830   70.8140  222.0450 C   0  0  0  0  0  0  0  0  0  0  0  0
  138.9289   70.2508  221.3631 H   0  0  0  0  0  0  0  0  0  0  0  0
  139.6180   70.4470  223.4840 C   0  0  0  0  0  0  0  0  0  0  0  0
  140.3040   71.2740  224.3190 N   0  0  0  0  0  0  0  0  0  0  0  0
  140.4600   71.0060  225.6340 C   0  0  0  0  0  0  0  0  0  0  0  0
  141.1650   71.8960  226.4520 C   0  0  0  0  0  0  0  0  0  0  0  0
  141.5720   72.8265  226.0295 H   0  0  0  0  0  0  0  0  0  0  0  0
  141.3520   71.6030  227.8050 C   0  0  0  0  0  0  0  0  0  0  0  0
  141.9012   72.3058  228.4488 H   0  0  0  0  0  0  0  0  0  0  0  0
  140.8420   70.4180  228.3410 C   0  0  0  0  0  0  0  0  0  0  0  0
  140.9929   70.1882  229.4061 H   0  0  0  0  0  0  0  0  0  0  0  0
  140.1400   69.5230  227.5270 C   0  0  0  0  0  0  0  0  0  0  0  0
  139.7420   68.5898  227.9521 H   0  0  0  0  0  0  0  0  0  0  0  0
  139.9420   69.8160  226.1620 C   0  0  0  0  0  0  0  0  0  0  0  0
  139.2380   68.9570  225.3030 C   0  0  0  0  0  0  0  0  0  0  0  0
  138.8290   67.8490  225.7490 O   0  0  0  0  0  0  0  0  0  0  0  0
  139.0120   69.3080  223.9870 N   0  0  0  0  0  0  0  0  0  0  0  0
  138.1430   68.4420  223.1450 C   0  0  0  0  0  0  0  0  0  0  0  0
  138.5041   68.5022  222.1077 H   0  0  0  0  0  0  0  0  0  0  0  0
  138.2099   67.4310  223.5732 H   0  0  0  0  0  0  0  0  0  0  0  0
  136.6300   68.8190  223.1530 C   0  0  0  0  0  0  0  0  0  0  0  0
  136.1437   67.8631  222.9088 H   0  0  0  0  0  0  0  0  0  0  0  0
  136.0740   69.2220  224.5510 C   0  0  0  0  0  0  0  0  0  0  0  0
  135.3058   68.4898  224.8403 H   0  0  0  0  0  0  0  0  0  0  0  0
  136.9321   69.2360  225.2391 H   0  0  0  0  0  0  0  0  0  0  0  0
  135.4470   70.6220  224.6020 C   0  0  0  0  0  0  0  0  0  0  0  0
  134.4409   70.5824  224.1591 H   0  0  0  0  0  0  0  0  0  0  0  0
  135.3920   70.9445  225.6522 H   0  0  0  0  0  0  0  0  0  0  0  0
  136.2950   71.6270  223.8270 C   0  0  0  0  0  0  0  0  0  0  0  0
  135.8584   72.6296  223.9456 H   0  0  0  0  0  0  0  0  0  0  0  0
  137.3190   71.5957  224.2275 H   0  0  0  0  0  0  0  0  0  0  0  0
  136.3520   71.2810  222.3300 C   0  0  0  0  0  0  0  0  0  0  0  0
  135.5495   71.8318  221.8176 H   0  0  0  0  0  0  0  0  0  0  0  0
  137.3548   71.5642  221.9776 H   0  0  0  0  0  0  0  0  0  0  0  0
  136.1810   69.7780  222.0220 C   0  0  0  0  0  0  0  0  0  0  0  0
  135.1161   69.5909  221.8196 H   0  0  0  0  0  0  0  0  0  0  0  0
  136.8347   69.5655  221.1633 H   0  0  0  0  0  0  0  0  0  0  0  0
  139.9880   73.2500  221.7190 C   0  0  0  0  0  0  0  0  0  0  0  0
  141.0230   74.1960  221.7600 C   0  0  0  0  0  0  0  0  0  0  0  0
  142.0678   73.8671  221.6587 H   0  0  0  0  0  0  0  0  0  0  0  0
  140.7440   75.5160  221.9240 N   0  0  0  0  0  0  0  0  0  0  0  0
  139.4700   75.9670  222.0600 C   0  0  0  0  0  0  0  0  0  0  0  0
  139.2776   77.0431  222.1827 H   0  0  0  0  0  0  0  0  0  0  0  0
  138.4050   75.0650  222.0440 C   0  0  0  0  0  0  0  0  0  0  0  0
  137.3718   75.4240  222.1611 H   0  0  0  0  0  0  0  0  0  0  0  0
  138.6630   73.7030  221.8780 C   0  0  0  0  0  0  0  0  0  0  0  0
  137.8315   72.9829  221.8713 H   0  0  0  0  0  0  0  0  0  0  0  0
  1  2  1  0
  2  3  2  0
  3  4  1  0
  3  5  1  0
  5  6  2  0
  6  7  1  0
  7  8  2  0
  8  9  1  0
  8 10  1  0
 10 11  1  0
 10 12  2  0
 12 13  1  0
 12 14  1  0
 14 15  1  0
 14 16  2  0
 16 17  1  0
 17 18  2  0
 17 19  1  0
 19 20  1  0
 20 21  1  0
 20 22  1  0
 20 23  1  0
 23 24  1  0
 23 25  1  0
 25 26  1  0
 25 27  1  0
 25 28  1  0
 28 29  1  0
 28 30  1  0
 28 31  1  0
 31 32  1  0
 31 33  1  0
 31 34  1  0
 34 35  1  0
 34 36  1  0
 34 37  1  0
 37 38  1  0
 37 39  1  0
  2 40  1  0
 40 41  2  0
 41 42  1  0
 41 43  1  0
 43 44  2  0
 44 45  1  0
 44 46  1  0
 46 47  1  0
 46 48  2  0
 48 49  1  0
 19  5  1  0
 37 23  1  0
 48 40  1  0
 16  7  1  0
M  END
>  <UniqueID>  (10) 
23

>  <SMILES>  (10) 
O=c1c2ccccc2nc(/C=C/c2cccnc2)n1CC1CCCCC1

>  <Energy>  (10) 
70.13365946757277

>  <Genealogy>  (10) 
O=c1c2ccccc2nc(/C=C/c2cccnc2)n1CC1CCCCC1 (cis-trans isomerization)
O=c1c2ccccc2nc(/C=C/c2cccnc2)n1CC1CCCCC1 (3D coordinates assigned)
O=c1c2ccccc2nc(/C=C/c2cccnc2)n1CC1CCCCC1 (nonaromatic ring conformer: 70.13365946757277 kcal/mol)

>  <smiles>  (10) 
O=c1c2ccccc2nc(/C=C/c2cccnc2)n1CC1CCCCC1

>  <score_type>  (10) 
oracle

>  <origin>  (10) 
autodockgpu

>  <m_score__min__energy>  (10) 
-7.3499999999999996

>  <m_primary>  (10) 
energy

>  <meeko>  (10) 
{"free_energy": -6.94, "intermolecular_energy": -8.44, "internal_energy": -1.96, "cluster_size": 19, "cluster_id": 1, "rank_in_cluster": 15}

>  <energy>  (10) 
-7.06

>  <cluster_rmsd>  (10) 
0.33

>  <rmsd>  (10) 
272.12

>  <cluster>  (10) 
1

$$$$
XUFANRSCLZKORJ-OUKQBFOZNA-N
     RDKit          3D

 49 52  0  0  0  0  0  0  0  0999 V2000
  141.7306   71.0487  221.1496 H   0  0  0  0  0  0  0  0  0  0  0  0
  140.8800   71.6410  221.5180 C   0  0  0  0  0  0  0  0  0  0  0  0
  139.8160   70.9860  222.0080 C   0  0  0  0  0  0  0  0  0  0  0  0
  138.9618   70.7789  221.3465 H   0  0  0  0  0  0  0  0  0  0  0  0
  139.7640   70.5340  223.4220 C   0  0  0  0  0  0  0  0  0  0  0  0
  140.3410   71.3420  224.3530 N   0  0  0  0  0  0  0  0  0  0  0  0
  140.4130   71.0010  225.6580 C   0  0  0  0  0  0  0  0  0  0  0  0
  141.0060   71.8740  226.5780 C   0  0  0  0  0  0  0  0  0  0  0  0
  141.3916   72.8479  226.2423 H   0  0  0  0  0  0  0  0  0  0  0  0
  141.1080   71.5080  227.9230 C   0  0  0  0  0  0  0  0  0  0  0  0
  141.5688   72.1965  228.6466 H   0  0  0  0  0  0  0  0  0  0  0  0
  140.6250   70.2680  228.3490 C   0  0  0  0  0  0  0  0  0  0  0  0
  140.7090   69.9808  229.4075 H   0  0  0  0  0  0  0  0  0  0  0  0
  140.0350   69.3910  227.4330 C   0  0  0  0  0  0  0  0  0  0  0  0
  139.6580   68.4147  227.7716 H   0  0  0  0  0  0  0  0  0  0  0  0
  139.9230   69.7570  226.0760 C   0  0  0  0  0  0  0  0  0  0  0  0
  139.3320   68.9180  225.1170 C   0  0  0  0  0  0  0  0  0  0  0  0
  138.9510   67.7660  225.4670 O   0  0  0  0  0  0  0  0  0  0  0  0
  139.1850   69.3380  223.8100 N   0  0  0  0  0  0  0  0  0  0  0  0
  138.4290   68.4830  222.8560 C   0  0  0  0  0  0  0  0  0  0  0  0
  138.8944   68.5845  221.8645 H   0  0  0  0  0  0  0  0  0  0  0  0
  138.4747   67.4600  223.2578 H   0  0  0  0  0  0  0  0  0  0  0  0
  136.9140   68.8290  222.7170 C   0  0  0  0  0  0  0  0  0  0  0  0
  136.5025   67.9228  222.2485 H   0  0  0  0  0  0  0  0  0  0  0  0
  136.1600   68.9740  224.0720 C   0  0  0  0  0  0  0  0  0  0  0  0
  135.3888   68.1912  224.1228 H   0  0  0  0  0  0  0  0  0  0  0  0
  136.9162   68.8805  224.8653 H   0  0  0  0  0  0  0  0  0  0  0  0
  135.4780   70.3350  224.2720 C   0  0  0  0  0  0  0  0  0  0  0  0
  134.5428   70.3573  223.6933 H   0  0  0  0  0  0  0  0  0  0  0  0
  135.2708   70.4693  225.3439 H   0  0  0  0  0  0  0  0  0  0  0  0
  136.3810   71.4720  223.8050 C   0  0  0  0  0  0  0  0  0  0  0  0
  135.8926   72.4315  224.0303 H   0  0  0  0  0  0  0  0  0  0  0  0
  137.3423   71.3876  224.3330 H   0  0  0  0  0  0  0  0  0  0  0  0
  136.6530   71.3930  222.2940 C   0  0  0  0  0  0  0  0  0  0  0  0
  135.9060   72.0122  221.7758 H   0  0  0  0  0  0  0  0  0  0  0  0
  137.6821   71.7488  222.1382 H   0  0  0  0  0  0  0  0  0  0  0  0
  136.5840   69.9630  221.7140 C   0  0  0  0  0  0  0  0  0  0  0  0
  135.5642   69.7975  221.3364 H   0  0  0  0  0  0  0  0  0  0  0  0
  137.3552   69.9129  220.9312 H   0  0  0  0  0  0  0  0  0  0  0  0
  140.9720   73.1190  221.4460 C   0  0  0  0  0  0  0  0  0  0  0  0
  139.9360   73.8930  221.9900 C   0  0  0  0  0  0  0  0  0  0  0  0
  139.0798   73.3978  222.4713 H   0  0  0  0  0  0  0  0  0  0  0  0
  139.9820   75.2500  221.9270 N   0  0  0  0  0  0  0  0  0  0  0  0
  141.0160   75.9040  221.3350 C   0  0  0  0  0  0  0  0  0  0  0  0
  141.0273   77.0036  221.3069 H   0  0  0  0  0  0  0  0  0  0  0  0
  142.0630   75.1810  220.7630 C   0  0  0  0  0  0  0  0  0  0  0  0
  142.8987   75.7055  220.2768 H   0  0  0  0  0  0  0  0  0  0  0  0
  142.0410   73.7860  220.8130 C   0  0  0  0  0  0  0  0  0  0  0  0
  142.8581   73.2068  220.3583 H   0  0  0  0  0  0  0  0  0  0  0  0
  1  2  1  0
  2  3  2  0
  3  4  1  0
  3  5  1  0
  5  6  2  0
  6  7  1  0
  7  8  2  0
  8  9  1  0
  8 10  1  0
 10 11  1  0
 10 12  2  0
 12 13  1  0
 12 14  1  0
 14 15  1  0
 14 16  2  0
 16 17  1  0
 17 18  2  0
 17 19  1  0
 19 20  1  0
 20 21  1  0
 20 22  1  0
 20 23  1  0
 23 24  1  0
 23 25  1  0
 25 26  1  0
 25 27  1  0
 25 28  1  0
 28 29  1  0
 28 30  1  0
 28 31  1  0
 31 32  1  0
 31 33  1  0
 31 34  1  0
 34 35  1  0
 34 36  1  0
 34 37  1  0
 37 38  1  0
 37 39  1  0
  2 40  1  0
 40 41  2  0
 41 42  1  0
 41 43  1  0
 43 44  2  0
 44 45  1  0
 44 46  1  0
 46 47  1  0
 46 48  2  0
 48 49  1  0
 19  5  1  0
 37 23  1  0
 48 40  1  0
 16  7  1  0
M  END
>  <UniqueID>  (11) 
23

>  <SMILES>  (11) 
O=c1c2ccccc2nc(/C=C/c2cccnc2)n1CC1CCCCC1

>  <Energy>  (11) 
70.13365946757277

>  <Genealogy>  (11) 
O=c1c2ccccc2nc(/C=C/c2cccnc2)n1CC1CCCCC1 (cis-trans isomerization)
O=c1c2ccccc2nc(/C=C/c2cccnc2)n1CC1CCCCC1 (3D coordinates assigned)
O=c1c2ccccc2nc(/C=C/c2cccnc2)n1CC1CCCCC1 (nonaromatic ring conformer: 70.13365946757277 kcal/mol)

>  <smiles>  (11) 
O=c1c2ccccc2nc(/C=C/c2cccnc2)n1CC1CCCCC1

>  <score_type>  (11) 
oracle

>  <origin>  (11) 
autodockgpu

>  <m_score__min__energy>  (11) 
-7.3499999999999996

>  <m_primary>  (11) 
energy

>  <meeko>  (11) 
{"free_energy": -7.27, "intermolecular_energy": -8.76, "internal_energy": -1.73, "cluster_size": 19, "cluster_id": 1, "rank_in_cluster": 4}

>  <energy>  (11) 
-6.99

>  <cluster_rmsd>  (11) 
0.69

>  <rmsd>  (11) 
272.06

>  <cluster>  (11) 
1

$$$$
XUFANRSCLZKORJ-OUKQBFOZNA-N
     RDKit          3D

 49 52  0  0  0  0  0  0  0  0999 V2000
  141.1478   70.5591  220.7730 H   0  0  0  0  0  0  0  0  0  0  0  0
  141.2390   71.5230  221.2950 C   0  0  0  0  0  0  0  0  0  0  0  0
  140.2820   71.8610  222.1740 C   0  0  0  0  0  0  0  0  0  0  0  0
  139.5999   72.6895  221.9326 H   0  0  0  0  0  0  0  0  0  0  0  0
  140.1220   71.1430  223.4650 C   0  0  0  0  0  0  0  0  0  0  0  0
  140.6060   71.7550  224.5790 N   0  0  0  0  0  0  0  0  0  0  0  0
  140.5760   71.1680  225.7950 C   0  0  0  0  0  0  0  0  0  0  0  0
  141.0760   71.8460  226.9130 C   0  0  0  0  0  0  0  0  0  0  0  0
  141.4714   72.8669  226.8056 H   0  0  0  0  0  0  0  0  0  0  0  0
  141.0730   71.2260  228.1660 C   0  0  0  0  0  0  0  0  0  0  0  0
  141.4604   71.7615  229.0453 H   0  0  0  0  0  0  0  0  0  0  0  0
  140.5780   69.9260  228.3020 C   0  0  0  0  0  0  0  0  0  0  0  0
  140.5786   69.4390  229.2883 H   0  0  0  0  0  0  0  0  0  0  0  0
  140.0820   69.2430  227.1870 C   0  0  0  0  0  0  0  0  0  0  0  0
  139.6967   68.2186  227.2973 H   0  0  0  0  0  0  0  0  0  0  0  0
  140.0750   69.8650  225.9220 C   0  0  0  0  0  0  0  0  0  0  0  0
  139.5800   69.2280  224.7720 C   0  0  0  0  0  0  0  0  0  0  0  0
  139.1920   68.0290  224.8590 O   0  0  0  0  0  0  0  0  0  0  0  0
  139.5340   69.8930  223.5640 N   0  0  0  0  0  0  0  0  0  0  0  0
  138.8750   69.2390  222.4020 C   0  0  0  0  0  0  0  0  0  0  0  0
  139.4032   69.5525  221.4895 H   0  0  0  0  0  0  0  0  0  0  0  0
  138.9285   68.1562  222.5882 H   0  0  0  0  0  0  0  0  0  0  0  0
  137.3620   69.5760  222.2250 C   0  0  0  0  0  0  0  0  0  0  0  0
  137.2480   69.6012  221.1312 H   0  0  0  0  0  0  0  0  0  0  0  0
  136.3920   68.4610  222.7180 C   0  0  0  0  0  0  0  0  0  0  0  0
  135.8226   68.0921  221.8522 H   0  0  0  0  0  0  0  0  0  0  0  0
  137.0160   67.6830  223.1820 H   0  0  0  0  0  0  0  0  0  0  0  0
  135.3940   68.9210  223.7890 C   0  0  0  0  0  0  0  0  0  0  0  0
  134.5807   69.4823  223.3057 H   0  0  0  0  0  0  0  0  0  0  0  0
  134.9966   68.0332  224.3027 H   0  0  0  0  0  0  0  0  0  0  0  0
  136.0740   69.8160  224.8200 C   0  0  0  0  0  0  0  0  0  0  0  0
  135.3497   70.0657  225.6094 H   0  0  0  0  0  0  0  0  0  0  0  0
  136.9345   69.2709  225.2352 H   0  0  0  0  0  0  0  0  0  0  0  0
  136.5890   71.1170  224.1860 C   0  0  0  0  0  0  0  0  0  0  0  0
  135.8099   71.8859  224.2946 H   0  0  0  0  0  0  0  0  0  0  0  0
  137.5202   71.3778  224.7103 H   0  0  0  0  0  0  0  0  0  0  0  0
  136.9420   70.9930  222.6880 C   0  0  0  0  0  0  0  0  0  0  0  0
  136.0596   71.2942  222.1043 H   0  0  0  0  0  0  0  0  0  0  0  0
  137.8173   71.6392  222.5260 H   0  0  0  0  0  0  0  0  0  0  0  0
  142.4110   72.3760  220.9890 C   0  0  0  0  0  0  0  0  0  0  0  0
  142.2180   73.7520  220.7890 C   0  0  0  0  0  0  0  0  0  0  0  0
  141.2082   74.1796  220.8750 H   0  0  0  0  0  0  0  0  0  0  0  0
  143.2690   74.5600  220.4900 N   0  0  0  0  0  0  0  0  0  0  0  0
  144.5320   74.0750  220.3670 C   0  0  0  0  0  0  0  0  0  0  0  0
  145.3625   74.7571  220.1325 H   0  0  0  0  0  0  0  0  0  0  0  0
  144.7760   72.7120  220.5380 C   0  0  0  0  0  0  0  0  0  0  0  0
  145.7958   72.3134  220.4327 H   0  0  0  0  0  0  0  0  0  0  0  0
  143.7140   71.8580  220.8440 C   0  0  0  0  0  0  0  0  0  0  0  0
  143.8945   70.7805  220.9719 H   0  0  0  0  0  0  0  0  0  0  0  0
  1  2  1  0
  2  3  2  0
  3  4  1  0
  3  5  1  0
  5  6  2  0
  6  7  1  0
  7  8  2  0
  8  9  1  0
  8 10  1  0
 10 11  1  0
 10 12  2  0
 12 13  1  0
 12 14  1  0
 14 15  1  0
 14 16  2  0
 16 17  1  0
 17 18  2  0
 17 19  1  0
 19 20  1  0
 20 21  1  0
 20 22  1  0
 20 23  1  0
 23 24  1  0
 23 25  1  0
 25 26  1  0
 25 27  1  0
 25 28  1  0
 28 29  1  0
 28 30  1  0
 28 31  1  0
 31 32  1  0
 31 33  1  0
 31 34  1  0
 34 35  1  0
 34 36  1  0
 34 37  1  0
 37 38  1  0
 37 39  1  0
  2 40  1  0
 40 41  2  0
 41 42  1  0
 41 43  1  0
 43 44  2  0
 44 45  1  0
 44 46  1  0
 46 47  1  0
 46 48  2  0
 48 49  1  0
 19  5  1  0
 37 23  1  0
 48 40  1  0
 16  7  1  0
M  END
>  <UniqueID>  (12) 
23

>  <SMILES>  (12) 
O=c1c2ccccc2nc(/C=C/c2cccnc2)n1CC1CCCCC1

>  <Energy>  (12) 
70.13365946757277

>  <Genealogy>  (12) 
O=c1c2ccccc2nc(/C=C/c2cccnc2)n1CC1CCCCC1 (cis-trans isomerization)
O=c1c2ccccc2nc(/C=C/c2cccnc2)n1CC1CCCCC1 (3D coordinates assigned)
O=c1c2ccccc2nc(/C=C/c2cccnc2)n1CC1CCCCC1 (nonaromatic ring conformer: 70.13365946757277 kcal/mol)

>  <smiles>  (12) 
O=c1c2ccccc2nc(/C=C/c2cccnc2)n1CC1CCCCC1

>  <score_type>  (12) 
oracle

>  <origin>  (12) 
autodockgpu

>  <m_score__min__energy>  (12) 
-7.3499999999999996

>  <m_primary>  (12) 
energy

>  <meeko>  (12) 
{"free_energy": -7.12, "intermolecular_energy": -8.61, "internal_energy": -1.56, "cluster_size": 19, "cluster_id": 1, "rank_in_cluster": 8}

>  <energy>  (12) 
-6.99

>  <cluster_rmsd>  (12) 
0.97

>  <rmsd>  (12) 
272.14

>  <cluster>  (12) 
1

$$$$
XUFANRSCLZKORJ-OUKQBFOZNA-N
     RDKit          3D

 49 52  0  0  0  0  0  0  0  0999 V2000
  141.7084   71.0801  220.9333 H   0  0  0  0  0  0  0  0  0  0  0  0
  140.8510   71.5160  221.4670 C   0  0  0  0  0  0  0  0  0  0  0  0
  139.9290   70.6820  221.9720 C   0  0  0  0  0  0  0  0  0  0  0  0
  139.2076   70.2045  221.2926 H   0  0  0  0  0  0  0  0  0  0  0  0
  139.8590   70.3880  223.4270 C   0  0  0  0  0  0  0  0  0  0  0  0
  140.5360   71.2220  224.2620 N   0  0  0  0  0  0  0  0  0  0  0  0
  140.6000   71.0140  225.5950 C   0  0  0  0  0  0  0  0  0  0  0  0
  141.2980   71.9100  226.4120 C   0  0  0  0  0  0  0  0  0  0  0  0
  141.7746   72.7983  225.9719 H   0  0  0  0  0  0  0  0  0  0  0  0
  141.3900   71.6770  227.7870 C   0  0  0  0  0  0  0  0  0  0  0  0
  141.9350   72.3844  228.4293 H   0  0  0  0  0  0  0  0  0  0  0  0
  140.7900   70.5460  228.3460 C   0  0  0  0  0  0  0  0  0  0  0  0
  140.8656   70.3632  229.4281 H   0  0  0  0  0  0  0  0  0  0  0  0
  140.0930   69.6450  227.5330 C   0  0  0  0  0  0  0  0  0  0  0  0
  139.6237   68.7543  227.9763 H   0  0  0  0  0  0  0  0  0  0  0  0
  139.9920   69.8780  226.1470 C   0  0  0  0  0  0  0  0  0  0  0  0
  139.2970   69.0110  225.2870 C   0  0  0  0  0  0  0  0  0  0  0  0
  138.8060   67.9480  225.7600 O   0  0  0  0  0  0  0  0  0  0  0  0
  139.1680   69.3060  223.9450 N   0  0  0  0  0  0  0  0  0  0  0  0
  138.3080   68.4400  223.0930 C   0  0  0  0  0  0  0  0  0  0  0  0
  138.7437   68.4142  222.0833 H   0  0  0  0  0  0  0  0  0  0  0  0
  138.2821   67.4554  223.5827 H   0  0  0  0  0  0  0  0  0  0  0  0
  136.8240   68.9040  222.9680 C   0  0  0  0  0  0  0  0  0  0  0  0
  136.3205   67.9973  222.6014 H   0  0  0  0  0  0  0  0  0  0  0  0
  136.1370   69.2400  224.3250 C   0  0  0  0  0  0  0  0  0  0  0  0
  135.3047   68.5363  224.4733 H   0  0  0  0  0  0  0  0  0  0  0  0
  136.9125   69.1544  225.1004 H   0  0  0  0  0  0  0  0  0  0  0  0
  135.5810   70.6680  224.4150 C   0  0  0  0  0  0  0  0  0  0  0  0
  134.6291   70.7191  223.8662 H   0  0  0  0  0  0  0  0  0  0  0  0
  135.4274   70.9192  225.4749 H   0  0  0  0  0  0  0  0  0  0  0  0
  136.5590   71.6720  223.8130 C   0  0  0  0  0  0  0  0  0  0  0  0
  136.1637   72.6879  223.9604 H   0  0  0  0  0  0  0  0  0  0  0  0
  137.5295   71.5513  224.3165 H   0  0  0  0  0  0  0  0  0  0  0  0
  136.7640   71.4300  222.3100 C   0  0  0  0  0  0  0  0  0  0  0  0
  136.0522   72.0616  221.7583 H   0  0  0  0  0  0  0  0  0  0  0  0
  137.8126   71.6783  222.0891 H   0  0  0  0  0  0  0  0  0  0  0  0
  136.5520   69.9640  221.8720 C   0  0  0  0  0  0  0  0  0  0  0  0
  135.5079   69.8542  221.5436 H   0  0  0  0  0  0  0  0  0  0  0  0
  137.2850   69.7741  221.0741 H   0  0  0  0  0  0  0  0  0  0  0  0
  140.7790   72.9920  221.5880 C   0  0  0  0  0  0  0  0  0  0  0  0
  139.6690   73.5680  222.2260 C   0  0  0  0  0  0  0  0  0  0  0  0
  138.8789   72.9221  222.6365 H   0  0  0  0  0  0  0  0  0  0  0  0
  139.5640   74.9190  222.3400 N   0  0  0  0  0  0  0  0  0  0  0  0
  140.5120   75.7550  221.8410 C   0  0  0  0  0  0  0  0  0  0  0  0
  140.4013   76.8433  221.9565 H   0  0  0  0  0  0  0  0  0  0  0  0
  141.6260   75.2330  221.1820 C   0  0  0  0  0  0  0  0  0  0  0  0
  142.3926   75.9058  220.7701 H   0  0  0  0  0  0  0  0  0  0  0  0
  141.7590   73.8490  221.0500 C   0  0  0  0  0  0  0  0  0  0  0  0
  142.6295   73.4279  220.5256 H   0  0  0  0  0  0  0  0  0  0  0  0
  1  2  1  0
  2  3  2  0
  3  4  1  0
  3  5  1  0
  5  6  2  0
  6  7  1  0
  7  8  2  0
  8  9  1  0
  8 10  1  0
 10 11  1  0
 10 12  2  0
 12 13  1  0
 12 14  1  0
 14 15  1  0
 14 16  2  0
 16 17  1  0
 17 18  2  0
 17 19  1  0
 19 20  1  0
 20 21  1  0
 20 22  1  0
 20 23  1  0
 23 24  1  0
 23 25  1  0
 25 26  1  0
 25 27  1  0
 25 28  1  0
 28 29  1  0
 28 30  1  0
 28 31  1  0
 31 32  1  0
 31 33  1  0
 31 34  1  0
 34 35  1  0
 34 36  1  0
 34 37  1  0
 37 38  1  0
 37 39  1  0
  2 40  1  0
 40 41  2  0
 41 42  1  0
 41 43  1  0
 43 44  2  0
 44 45  1  0
 44 46  1  0
 46 47  1  0
 46 48  2  0
 48 49  1  0
 19  5  1  0
 37 23  1  0
 48 40  1  0
 16  7  1  0
M  END
>  <UniqueID>  (13) 
23

>  <SMILES>  (13) 
O=c1c2ccccc2nc(/C=C/c2cccnc2)n1CC1CCCCC1

>  <Energy>  (13) 
70.13365946757277

>  <Genealogy>  (13) 
O=c1c2ccccc2nc(/C=C/c2cccnc2)n1CC1CCCCC1 (cis-trans isomerization)
O=c1c2ccccc2nc(/C=C/c2cccnc2)n1CC1CCCCC1 (3D coordinates assigned)
O=c1c2ccccc2nc(/C=C/c2cccnc2)n1CC1CCCCC1 (nonaromatic ring conformer: 70.13365946757277 kcal/mol)

>  <smiles>  (13) 
O=c1c2ccccc2nc(/C=C/c2cccnc2)n1CC1CCCCC1

>  <score_type>  (13) 
oracle

>  <origin>  (13) 
autodockgpu

>  <m_score__min__energy>  (13) 
-7.3499999999999996

>  <m_primary>  (13) 
energy

>  <meeko>  (13) 
{"free_energy": -7.22, "intermolecular_energy": -8.72, "internal_energy": -1.92, "cluster_size": 19, "cluster_id": 1, "rank_in_cluster": 6}

>  <energy>  (13) 
-6.96

>  <cluster_rmsd>  (13) 
0.69

>  <rmsd>  (13) 
272.1

>  <cluster>  (13) 
1

$$$$
XUFANRSCLZKORJ-OUKQBFOZNA-N
     RDKit          3D

 49 52  0  0  0  0  0  0  0  0999 V2000
  141.2644   71.6339  221.0238 H   0  0  0  0  0  0  0  0  0  0  0  0
  140.3480   71.9060  221.5680 C   0  0  0  0  0  0  0  0  0  0  0  0
  139.5830   70.9170  222.0560 C   0  0  0  0  0  0  0  0  0  0  0  0
  138.9097   70.3745  221.3761 H   0  0  0  0  0  0  0  0  0  0  0  0
  139.6230   70.5370  223.4910 C   0  0  0  0  0  0  0  0  0  0  0  0
  140.3070   71.3600  224.3320 N   0  0  0  0  0  0  0  0  0  0  0  0
  140.4680   71.0790  225.6440 C   0  0  0  0  0  0  0  0  0  0  0  0
  141.1690   71.9660  226.4690 C   0  0  0  0  0  0  0  0  0  0  0  0
  141.5680   72.9038  226.0550 H   0  0  0  0  0  0  0  0  0  0  0  0
  141.3620   71.6600  227.8190 C   0  0  0  0  0  0  0  0  0  0  0  0
  141.9086   72.3595  228.4685 H   0  0  0  0  0  0  0  0  0  0  0  0
  140.8610   70.4660  228.3440 C   0  0  0  0  0  0  0  0  0  0  0  0
  141.0158   70.2261  229.4063 H   0  0  0  0  0  0  0  0  0  0  0  0
  140.1630   69.5750  227.5220 C   0  0  0  0  0  0  0  0  0  0  0  0
  139.7729   68.6343  227.9380 H   0  0  0  0  0  0  0  0  0  0  0  0
  139.9590   69.8810  226.1620 C   0  0  0  0  0  0  0  0  0  0  0  0
  139.2580   69.0260  225.2950 C   0  0  0  0  0  0  0  0  0  0  0  0
  138.8560   67.9110  225.7320 O   0  0  0  0  0  0  0  0  0  0  0  0
  139.0260   69.3890  223.9840 N   0  0  0  0  0  0  0  0  0  0  0  0
  138.1600   68.5260  223.1360 C   0  0  0  0  0  0  0  0  0  0  0  0
  138.5245   68.5903  222.1001 H   0  0  0  0  0  0  0  0  0  0  0  0
  138.2257   67.5136  223.5610 H   0  0  0  0  0  0  0  0  0  0  0  0
  136.6460   68.9020  223.1400 C   0  0  0  0  0  0  0  0  0  0  0  0
  136.1605   67.9486  222.8845 H   0  0  0  0  0  0  0  0  0  0  0  0
  136.0840   69.2920  224.5400 C   0  0  0  0  0  0  0  0  0  0  0  0
  135.3144   68.5574  224.8194 H   0  0  0  0  0  0  0  0  0  0  0  0
  136.9387   69.2991  225.2324 H   0  0  0  0  0  0  0  0  0  0  0  0
  135.4570   70.6920  224.6000 C   0  0  0  0  0  0  0  0  0  0  0  0
  134.4525   70.6561  224.1531 H   0  0  0  0  0  0  0  0  0  0  0  0
  135.3986   71.0058  225.6527 H   0  0  0  0  0  0  0  0  0  0  0  0
  136.3070   71.7030  223.8370 C   0  0  0  0  0  0  0  0  0  0  0  0
  135.8693   72.7043  223.9624 H   0  0  0  0  0  0  0  0  0  0  0  0
  137.3294   71.6679  224.2413 H   0  0  0  0  0  0  0  0  0  0  0  0
  136.3710   71.3710  222.3390 C   0  0  0  0  0  0  0  0  0  0  0  0
  135.5706   71.9262  221.8280 H   0  0  0  0  0  0  0  0  0  0  0  0
  137.3754   71.6577  221.9940 H   0  0  0  0  0  0  0  0  0  0  0  0
  136.2020   69.8700  222.0160 C   0  0  0  0  0  0  0  0  0  0  0  0
  135.1382   69.6842  221.8068 H   0  0  0  0  0  0  0  0  0  0  0  0
  136.8595   69.6654  221.1582 H   0  0  0  0  0  0  0  0  0  0  0  0
  140.0260   73.3450  221.7220 C   0  0  0  0  0  0  0  0  0  0  0  0
  141.0680   74.2840  221.6790 C   0  0  0  0  0  0  0  0  0  0  0  0
  142.1022   73.9448  221.5195 H   0  0  0  0  0  0  0  0  0  0  0  0
  140.8090   75.6100  221.8330 N   0  0  0  0  0  0  0  0  0  0  0  0
  139.5480   76.0730  222.0390 C   0  0  0  0  0  0  0  0  0  0  0  0
  139.3704   77.1527  222.1514 H   0  0  0  0  0  0  0  0  0  0  0  0
  138.4790   75.1800  222.1080 C   0  0  0  0  0  0  0  0  0  0  0  0
  137.4576   75.5494  222.2821 H   0  0  0  0  0  0  0  0  0  0  0  0
  138.7170   73.8120  221.9540 C   0  0  0  0  0  0  0  0  0  0  0  0
  137.8817   73.0988  222.0139 H   0  0  0  0  0  0  0  0  0  0  0  0
  1  2  1  0
  2  3  2  0
  3  4  1  0
  3  5  1  0
  5  6  2  0
  6  7  1  0
  7  8  2  0
  8  9  1  0
  8 10  1  0
 10 11  1  0
 10 12  2  0
 12 13  1  0
 12 14  1  0
 14 15  1  0
 14 16  2  0
 16 17  1  0
 17 18  2  0
 17 19  1  0
 19 20  1  0
 20 21  1  0
 20 22  1  0
 20 23  1  0
 23 24  1  0
 23 25  1  0
 25 26  1  0
 25 27  1  0
 25 28  1  0
 28 29  1  0
 28 30  1  0
 28 31  1  0
 31 32  1  0
 31 33  1  0
 31 34  1  0
 34 35  1  0
 34 36  1  0
 34 37  1  0
 37 38  1  0
 37 39  1  0
  2 40  1  0
 40 41  2  0
 41 42  1  0
 41 43  1  0
 43 44  2  0
 44 45  1  0
 44 46  1  0
 46 47  1  0
 46 48  2  0
 48 49  1  0
 19  5  1  0
 37 23  1  0
 48 40  1  0
 16  7  1  0
M  END
>  <UniqueID>  (14) 
23

>  <SMILES>  (14) 
O=c1c2ccccc2nc(/C=C/c2cccnc2)n1CC1CCCCC1

>  <Energy>  (14) 
70.13365946757277

>  <Genealogy>  (14) 
O=c1c2ccccc2nc(/C=C/c2cccnc2)n1CC1CCCCC1 (cis-trans isomerization)
O=c1c2ccccc2nc(/C=C/c2cccnc2)n1CC1CCCCC1 (3D coordinates assigned)
O=c1c2ccccc2nc(/C=C/c2cccnc2)n1CC1CCCCC1 (nonaromatic ring conformer: 70.13365946757277 kcal/mol)

>  <smiles>  (14) 
O=c1c2ccccc2nc(/C=C/c2cccnc2)n1CC1CCCCC1

>  <score_type>  (14) 
oracle

>  <origin>  (14) 
autodockgpu

>  <m_score__min__energy>  (14) 
-7.3499999999999996

>  <m_primary>  (14) 
energy

>  <meeko>  (14) 
{"free_energy": -6.96, "intermolecular_energy": -8.45, "internal_energy": -1.95, "cluster_size": 19, "cluster_id": 1, "rank_in_cluster": 13}

>  <energy>  (14) 
-6.95

>  <cluster_rmsd>  (14) 
0.97

>  <rmsd>  (14) 
272.02

>  <cluster>  (14) 
1

$$$$
XUFANRSCLZKORJ-OUKQBFOZNA-N
     RDKit          3D

 49 52  0  0  0  0  0  0  0  0999 V2000
  141.6424   70.9546  220.7621 H   0  0  0  0  0  0  0  0  0  0  0  0
  140.8210   71.3720  221.3630 C   0  0  0  0  0  0  0  0  0  0  0  0
  139.9280   70.5220  221.8940 C   0  0  0  0  0  0  0  0  0  0  0  0
  139.2469   69.9735  221.2267 H   0  0  0  0  0  0  0  0  0  0  0  0
  139.8370   70.3040  223.3600 C   0  0  0  0  0  0  0  0  0  0  0  0
  140.5470   71.1460  224.1580 N   0  0  0  0  0  0  0  0  0  0  0  0
  140.5940   71.0000  225.5010 C   0  0  0  0  0  0  0  0  0  0  0  0
  141.3300   71.9020  226.2780 C   0  0  0  0  0  0  0  0  0  0  0  0
  141.8511   72.7434  225.7980 H   0  0  0  0  0  0  0  0  0  0  0  0
  141.4030   71.7340  227.6630 C   0  0  0  0  0  0  0  0  0  0  0  0
  141.9770   72.4464  228.2737 H   0  0  0  0  0  0  0  0  0  0  0  0
  140.7470   70.6610  228.2730 C   0  0  0  0  0  0  0  0  0  0  0  0
  140.8080   70.5287  229.3633 H   0  0  0  0  0  0  0  0  0  0  0  0
  140.0130   69.7550  227.5000 C   0  0  0  0  0  0  0  0  0  0  0  0
  139.5000   68.9104  227.9831 H   0  0  0  0  0  0  0  0  0  0  0  0
  139.9300   69.9230  226.1030 C   0  0  0  0  0  0  0  0  0  0  0  0
  139.2000   69.0490  225.2810 C   0  0  0  0  0  0  0  0  0  0  0  0
  138.6560   68.0350  225.8020 O   0  0  0  0  0  0  0  0  0  0  0  0
  139.0920   69.2820  223.9250 N   0  0  0  0  0  0  0  0  0  0  0  0
  138.1960   68.4180  223.1110 C   0  0  0  0  0  0  0  0  0  0  0  0
  138.6182   68.3483  222.0976 H   0  0  0  0  0  0  0  0  0  0  0  0
  138.1465   67.4507  223.6324 H   0  0  0  0  0  0  0  0  0  0  0  0
  136.7250   68.9210  222.9880 C   0  0  0  0  0  0  0  0  0  0  0  0
  136.1976   68.0312  222.6137 H   0  0  0  0  0  0  0  0  0  0  0  0
  136.0460   69.2640  224.3470 C   0  0  0  0  0  0  0  0  0  0  0  0
  135.1953   68.5813  224.4891 H   0  0  0  0  0  0  0  0  0  0  0  0
  136.8182   69.1517  225.1223 H   0  0  0  0  0  0  0  0  0  0  0  0
  135.5280   70.7050  224.4480 C   0  0  0  0  0  0  0  0  0  0  0  0
  134.5785   70.7854  223.8984 H   0  0  0  0  0  0  0  0  0  0  0  0
  135.3803   70.9509  225.5099 H   0  0  0  0  0  0  0  0  0  0  0  0
  136.5320   71.6890  223.8560 C   0  0  0  0  0  0  0  0  0  0  0  0
  136.1621   72.7133  224.0107 H   0  0  0  0  0  0  0  0  0  0  0  0
  137.4983   71.5407  224.3602 H   0  0  0  0  0  0  0  0  0  0  0  0
  136.7330   71.4530  222.3510 C   0  0  0  0  0  0  0  0  0  0  0  0
  136.0392   72.1078  221.8034 H   0  0  0  0  0  0  0  0  0  0  0  0
  137.7885   71.6745  222.1343 H   0  0  0  0  0  0  0  0  0  0  0  0
  136.4830   69.9970  221.9000 C   0  0  0  0  0  0  0  0  0  0  0  0
  135.4370   69.9177  221.5690 H   0  0  0  0  0  0  0  0  0  0  0  0
  137.2119   69.7944  221.1014 H   0  0  0  0  0  0  0  0  0  0  0  0
  140.7610   72.8430  221.5420 C   0  0  0  0  0  0  0  0  0  0  0  0
  139.6470   73.4050  222.1850 C   0  0  0  0  0  0  0  0  0  0  0  0
  138.8441   72.7520  222.5578 H   0  0  0  0  0  0  0  0  0  0  0  0
  139.5540   74.7520  222.3500 N   0  0  0  0  0  0  0  0  0  0  0  0
  140.5180   75.5960  221.9010 C   0  0  0  0  0  0  0  0  0  0  0  0
  140.4164   76.6800  222.0582 H   0  0  0  0  0  0  0  0  0  0  0  0
  141.6380   75.0890  221.2400 C   0  0  0  0  0  0  0  0  0  0  0  0
  142.4182   75.7694  220.8682 H   0  0  0  0  0  0  0  0  0  0  0  0
  141.7590   73.7100  221.0550 C   0  0  0  0  0  0  0  0  0  0  0  0
  142.6339   73.3006  220.5288 H   0  0  0  0  0  0  0  0  0  0  0  0
  1  2  1  0
  2  3  2  0
  3  4  1  0
  3  5  1  0
  5  6  2  0
  6  7  1  0
  7  8  2  0
  8  9  1  0
  8 10  1  0
 10 11  1  0
 10 12  2  0
 12 13  1  0
 12 14  1  0
 14 15  1  0
 14 16  2  0
 16 17  1  0
 17 18  2  0
 17 19  1  0
 19 20  1  0
 20 21  1  0
 20 22  1  0
 20 23  1  0
 23 24  1  0
 23 25  1  0
 25 26  1  0
 25 27  1  0
 25 28  1  0
 28 29  1  0
 28 30  1  0
 28 31  1  0
 31 32  1  0
 31 33  1  0
 31 34  1  0
 34 35  1  0
 34 36  1  0
 34 37  1  0
 37 38  1  0
 37 39  1  0
  2 40  1  0
 40 41  2  0
 41 42  1  0
 41 43  1  0
 43 44  2  0
 44 45  1  0
 44 46  1  0
 46 47  1  0
 46 48  2  0
 48 49  1  0
 19  5  1  0
 37 23  1  0
 48 40  1  0
 16  7  1  0
M  END
>  <UniqueID>  (15) 
23

>  <SMILES>  (15) 
O=c1c2ccccc2nc(/C=C/c2cccnc2)n1CC1CCCCC1

>  <Energy>  (15) 
70.13365946757277

>  <Genealogy>  (15) 
O=c1c2ccccc2nc(/C=C/c2cccnc2)n1CC1CCCCC1 (cis-trans isomerization)
O=c1c2ccccc2nc(/C=C/c2cccnc2)n1CC1CCCCC1 (3D coordinates assigned)
O=c1c2ccccc2nc(/C=C/c2cccnc2)n1CC1CCCCC1 (nonaromatic ring conformer: 70.13365946757277 kcal/mol)

>  <smiles>  (15) 
O=c1c2ccccc2nc(/C=C/c2cccnc2)n1CC1CCCCC1

>  <score_type>  (15) 
oracle

>  <origin>  (15) 
autodockgpu

>  <m_score__min__energy>  (15) 
-7.3499999999999996

>  <m_primary>  (15) 
energy

>  <meeko>  (15) 
{"free_energy": -7.06, "intermolecular_energy": -8.55, "internal_energy": -1.96, "cluster_size": 19, "cluster_id": 1, "rank_in_cluster": 10}

>  <energy>  (15) 
-6.94

>  <cluster_rmsd>  (15) 
0.68

>  <rmsd>  (15) 
272.07

>  <cluster>  (15) 
1

$$$$
XUFANRSCLZKORJ-OUKQBFOZNA-N
     RDKit          3D

 49 52  0  0  0  0  0  0  0  0999 V2000
  142.8735   80.5660  219.1415 H   0  0  0  0  0  0  0  0  0  0  0  0
  142.1980   79.7250  218.9260 C   0  0  0  0  0  0  0  0  0  0  0  0
  141.4520   79.2390  219.9290 C   0  0  0  0  0  0  0  0  0  0  0  0
  140.7350   79.9022  220.4350 H   0  0  0  0  0  0  0  0  0  0  0  0
  141.5710   77.8260  220.3730 C   0  0  0  0  0  0  0  0  0  0  0  0
  142.5490   77.0750  219.7990 N   0  0  0  0  0  0  0  0  0  0  0  0
  142.7060   75.7620  220.0740 C   0  0  0  0  0  0  0  0  0  0  0  0
  143.7370   75.0370  219.4650 C   0  0  0  0  0  0  0  0  0  0  0  0
  144.4340   75.5419  218.7800 H   0  0  0  0  0  0  0  0  0  0  0  0
  143.8810   73.6720  219.7270 C   0  0  0  0  0  0  0  0  0  0  0  0
  144.6946   73.1040  219.2522 H   0  0  0  0  0  0  0  0  0  0  0  0
  142.9920   73.0280  220.5920 C   0  0  0  0  0  0  0  0  0  0  0  0
  143.1055   71.9529  220.7952 H   0  0  0  0  0  0  0  0  0  0  0  0
  141.9580   73.7480  221.2000 C   0  0  0  0  0  0  0  0  0  0  0  0
  141.2581   73.2377  221.8780 H   0  0  0  0  0  0  0  0  0  0  0  0
  141.8120   75.1260  220.9450 C   0  0  0  0  0  0  0  0  0  0  0  0
  140.7970   75.8970  221.5360 C   0  0  0  0  0  0  0  0  0  0  0  0
  139.9420   75.3230  222.2670 O   0  0  0  0  0  0  0  0  0  0  0  0
  140.7240   77.2570  221.3100 N   0  0  0  0  0  0  0  0  0  0  0  0
  139.7260   78.0630  222.0620 C   0  0  0  0  0  0  0  0  0  0  0  0
  139.3094   78.8158  221.3766 H   0  0  0  0  0  0  0  0  0  0  0  0
  138.9763   77.3510  222.4373 H   0  0  0  0  0  0  0  0  0  0  0  0
  140.2860   78.8060  223.3140 C   0  0  0  0  0  0  0  0  0  0  0  0
  139.8025   78.2729  224.1459 H   0  0  0  0  0  0  0  0  0  0  0  0
  141.8160   78.6240  223.5400 C   0  0  0  0  0  0  0  0  0  0  0  0
  141.9633   78.1000  224.4959 H   0  0  0  0  0  0  0  0  0  0  0  0
  142.1967   78.0558  222.6785 H   0  0  0  0  0  0  0  0  0  0  0  0
  142.6080   79.9390  223.5850 C   0  0  0  0  0  0  0  0  0  0  0  0
  142.4701   80.4087  224.5701 H   0  0  0  0  0  0  0  0  0  0  0  0
  143.6708   79.7147  223.4111 H   0  0  0  0  0  0  0  0  0  0  0  0
  142.1300   80.9010  222.5020 C   0  0  0  0  0  0  0  0  0  0  0  0
  142.7652   81.7990  222.5162 H   0  0  0  0  0  0  0  0  0  0  0  0
  142.1975   80.3880  221.5313 H   0  0  0  0  0  0  0  0  0  0  0  0
  140.6690   81.3200  222.7240 C   0  0  0  0  0  0  0  0  0  0  0  0
  140.6624   82.2532  223.3063 H   0  0  0  0  0  0  0  0  0  0  0  0
  140.2186   81.4365  221.7272 H   0  0  0  0  0  0  0  0  0  0  0  0
  139.8180   80.2740  223.4760 C   0  0  0  0  0  0  0  0  0  0  0  0
  139.8410   80.5226  224.5473 H   0  0  0  0  0  0  0  0  0  0  0  0
  138.8112   80.3247  223.0357 H   0  0  0  0  0  0  0  0  0  0  0  0
  142.1630   79.1920  217.5430 C   0  0  0  0  0  0  0  0  0  0  0  0
  141.2860   79.7710  216.6120 C   0  0  0  0  0  0  0  0  0  0  0  0
  140.6497   80.6163  216.9131 H   0  0  0  0  0  0  0  0  0  0  0  0
  141.2180   79.2940  215.3410 N   0  0  0  0  0  0  0  0  0  0  0  0
  141.9790   78.2480  214.9260 C   0  0  0  0  0  0  0  0  0  0  0  0
  141.9057   77.8916  213.8879 H   0  0  0  0  0  0  0  0  0  0  0  0
  142.8540   77.6260  215.8180 C   0  0  0  0  0  0  0  0  0  0  0  0
  143.4676   76.7741  215.4898 H   0  0  0  0  0  0  0  0  0  0  0  0
  142.9440   78.0940  217.1300 C   0  0  0  0  0  0  0  0  0  0  0  0
  143.6251   77.6053  217.8422 H   0  0  0  0  0  0  0  0  0  0  0  0
  1  2  1  0
  2  3  2  0
  3  4  1  0
  3  5  1  0
  5  6  2  0
  6  7  1  0
  7  8  2  0
  8  9  1  0
  8 10  1  0
 10 11  1  0
 10 12  2  0
 12 13  1  0
 12 14  1  0
 14 15  1  0
 14 16  2  0
 16 17  1  0
 17 18  2  0
 17 19  1  0
 19 20  1  0
 20 21  1  0
 20 22  1  0
 20 23  1  0
 23 24  1  0
 23 25  1  0
 25 26  1  0
 25 27  1  0
 25 28  1  0
 28 29  1  0
 28 30  1  0
 28 31  1  0
 31 32  1  0
 31 33  1  0
 31 34  1  0
 34 35  1  0
 34 36  1  0
 34 37  1  0
 37 38  1  0
 37 39  1  0
  2 40  1  0
 40 41  2  0
 41 42  1  0
 41 43  1  0
 43 44  2  0
 44 45  1  0
 44 46  1  0
 46 47  1  0
 46 48  2  0
 48 49  1  0
 19  5  1  0
 37 23  1  0
 48 40  1  0
 16  7  1  0
M  END
>  <UniqueID>  (16) 
23

>  <SMILES>  (16) 
O=c1c2ccccc2nc(/C=C/c2cccnc2)n1CC1CCCCC1

>  <Energy>  (16) 
70.13365946757277

>  <Genealogy>  (16) 
O=c1c2ccccc2nc(/C=C/c2cccnc2)n1CC1CCCCC1 (cis-trans isomerization)
O=c1c2ccccc2nc(/C=C/c2cccnc2)n1CC1CCCCC1 (3D coordinates assigned)
O=c1c2ccccc2nc(/C=C/c2cccnc2)n1CC1CCCCC1 (nonaromatic ring conformer: 70.13365946757277 kcal/mol)

>  <smiles>  (16) 
O=c1c2ccccc2nc(/C=C/c2cccnc2)n1CC1CCCCC1

>  <score_type>  (16) 
oracle

>  <origin>  (16) 
autodockgpu

>  <m_score__min__energy>  (16) 
-7.3499999999999996

>  <m_primary>  (16) 
energy

>  <meeko>  (16) 
{"free_energy": -6.5, "intermolecular_energy": -7.99, "internal_energy": -1.56, "cluster_size": 1, "cluster_id": 2, "rank_in_cluster": 1}

>  <energy>  (16) 
-6.94

>  <cluster_rmsd>  (16) 
0.81

>  <rmsd>  (16) 
272.09

>  <cluster>  (16) 
1

$$$$
XUFANRSCLZKORJ-OUKQBFOZNA-N
     RDKit          3D

 49 52  0  0  0  0  0  0  0  0999 V2000
  141.2213   71.5882  221.0436 H   0  0  0  0  0  0  0  0  0  0  0  0
  140.3040   71.8820  221.5750 C   0  0  0  0  0  0  0  0  0  0  0  0
  139.5150   70.9120  222.0600 C   0  0  0  0  0  0  0  0  0  0  0  0
  138.8113   70.4046  221.3838 H   0  0  0  0  0  0  0  0  0  0  0  0
  139.5680   70.5060  223.4880 C   0  0  0  0  0  0  0  0  0  0  0  0
  140.2530   71.3160  224.3380 N   0  0  0  0  0  0  0  0  0  0  0  0
  140.4260   71.0130  225.6430 C   0  0  0  0  0  0  0  0  0  0  0  0
  141.1280   71.8880  226.4790 C   0  0  0  0  0  0  0  0  0  0  0  0
  141.5197   72.8348  226.0789 H   0  0  0  0  0  0  0  0  0  0  0  0
  141.3320   71.5600  227.8220 C   0  0  0  0  0  0  0  0  0  0  0  0
  141.8791   72.2512  228.4800 H   0  0  0  0  0  0  0  0  0  0  0  0
  140.8410   70.3540  228.3290 C   0  0  0  0  0  0  0  0  0  0  0  0
  141.0055   70.0959  229.3856 H   0  0  0  0  0  0  0  0  0  0  0  0
  140.1410   69.4740  227.4970 C   0  0  0  0  0  0  0  0  0  0  0  0
  139.7580   68.5246  227.8994 H   0  0  0  0  0  0  0  0  0  0  0  0
  139.9260   69.8030  226.1430 C   0  0  0  0  0  0  0  0  0  0  0  0
  139.2230   68.9600  225.2670 C   0  0  0  0  0  0  0  0  0  0  0  0
  138.8300   67.8360  225.6860 O   0  0  0  0  0  0  0  0  0  0  0  0
  138.9800   69.3460  223.9640 N   0  0  0  0  0  0  0  0  0  0  0  0
  138.1120   68.4940  223.1070 C   0  0  0  0  0  0  0  0  0  0  0  0
  138.4707   68.5759  222.0704 H   0  0  0  0  0  0  0  0  0  0  0  0
  138.1831   67.4752  223.5155 H   0  0  0  0  0  0  0  0  0  0  0  0
  136.5970   68.8650  223.1250 C   0  0  0  0  0  0  0  0  0  0  0  0
  136.1120   67.9100  222.8744 H   0  0  0  0  0  0  0  0  0  0  0  0
  136.0470   69.2540  224.5300 C   0  0  0  0  0  0  0  0  0  0  0  0
  135.2823   68.5172  224.8170 H   0  0  0  0  0  0  0  0  0  0  0  0
  136.9081   69.2640  225.2144 H   0  0  0  0  0  0  0  0  0  0  0  0
  135.4160   70.6530  224.5950 C   0  0  0  0  0  0  0  0  0  0  0  0
  134.4077   70.6138  224.1572 H   0  0  0  0  0  0  0  0  0  0  0  0
  135.3661   70.9671  225.6480 H   0  0  0  0  0  0  0  0  0  0  0  0
  136.2560   71.6660  223.8240 C   0  0  0  0  0  0  0  0  0  0  0  0
  135.8167   72.6662  223.9530 H   0  0  0  0  0  0  0  0  0  0  0  0
  137.2822   71.6341  224.2189 H   0  0  0  0  0  0  0  0  0  0  0  0
  136.3070   71.3330  222.3240 C   0  0  0  0  0  0  0  0  0  0  0  0
  135.5000   71.8850  221.8201 H   0  0  0  0  0  0  0  0  0  0  0  0
  137.3068   71.6232  221.9688 H   0  0  0  0  0  0  0  0  0  0  0  0
  136.1400   69.8320  222.0050 C   0  0  0  0  0  0  0  0  0  0  0  0
  135.0748   69.6429  221.8058 H   0  0  0  0  0  0  0  0  0  0  0  0
  136.7912   69.6291  221.1420 H   0  0  0  0  0  0  0  0  0  0  0  0
  140.0090   73.3280  221.7150 C   0  0  0  0  0  0  0  0  0  0  0  0
  141.0670   74.2480  221.6550 C   0  0  0  0  0  0  0  0  0  0  0  0
  142.0940   73.8890  221.4927 H   0  0  0  0  0  0  0  0  0  0  0  0
  140.8320   75.5800  221.7960 N   0  0  0  0  0  0  0  0  0  0  0  0
  139.5810   76.0670  222.0060 C   0  0  0  0  0  0  0  0  0  0  0  0
  139.4232   77.1507  222.1090 H   0  0  0  0  0  0  0  0  0  0  0  0
  138.4970   75.1940  222.0910 C   0  0  0  0  0  0  0  0  0  0  0  0
  137.4833   75.5833  222.2667 H   0  0  0  0  0  0  0  0  0  0  0  0
  138.7100   73.8210  221.9510 C   0  0  0  0  0  0  0  0  0  0  0  0
  137.8628   73.1234  222.0250 H   0  0  0  0  0  0  0  0  0  0  0  0
  1  2  1  0
  2  3  2  0
  3  4  1  0
  3  5  1  0
  5  6  2  0
  6  7  1  0
  7  8  2  0
  8  9  1  0
  8 10  1  0
 10 11  1  0
 10 12  2  0
 12 13  1  0
 12 14  1  0
 14 15  1  0
 14 16  2  0
 16 17  1  0
 17 18  2  0
 17 19  1  0
 19 20  1  0
 20 21  1  0
 20 22  1  0
 20 23  1  0
 23 24  1  0
 23 25  1  0
 25 26  1  0
 25 27  1  0
 25 28  1  0
 28 29  1  0
 28 30  1  0
 28 31  1  0
 31 32  1  0
 31 33  1  0
 31 34  1  0
 34 35  1  0
 34 36  1  0
 34 37  1  0
 37 38  1  0
 37 39  1  0
  2 40  1  0
 40 41  2  0
 41 42  1  0
 41 43  1  0
 43 44  2  0
 44 45  1  0
 44 46  1  0
 46 47  1  0
 46 48  2  0
 48 49  1  0
 19  5  1  0
 37 23  1  0
 48 40  1  0
 16  7  1  0
M  END
>  <UniqueID>  (17) 
23

>  <SMILES>  (17) 
O=c1c2ccccc2nc(/C=C/c2cccnc2)n1CC1CCCCC1

>  <Energy>  (17) 
70.13365946757277

>  <Genealogy>  (17) 
O=c1c2ccccc2nc(/C=C/c2cccnc2)n1CC1CCCCC1 (cis-trans isomerization)
O=c1c2ccccc2nc(/C=C/c2cccnc2)n1CC1CCCCC1 (3D coordinates assigned)
O=c1c2ccccc2nc(/C=C/c2cccnc2)n1CC1CCCCC1 (nonaromatic ring conformer: 70.13365946757277 kcal/mol)

>  <smiles>  (17) 
O=c1c2ccccc2nc(/C=C/c2cccnc2)n1CC1CCCCC1

>  <score_type>  (17) 
oracle

>  <origin>  (17) 
autodockgpu

>  <m_score__min__energy>  (17) 
-7.3499999999999996

>  <m_primary>  (17) 
energy

>  <meeko>  (17) 
{"free_energy": -6.99, "intermolecular_energy": -8.48, "internal_energy": -1.93, "cluster_size": 19, "cluster_id": 1, "rank_in_cluster": 11}

>  <energy>  (17) 
-6.94

>  <cluster_rmsd>  (17) 
0.94

>  <rmsd>  (17) 
272.1

>  <cluster>  (17) 
1

$$$$
XUFANRSCLZKORJ-OUKQBFOZNA-N
     RDKit          3D

 49 52  0  0  0  0  0  0  0  0999 V2000
  141.3686   70.7095  220.9189 H   0  0  0  0  0  0  0  0  0  0  0  0
  140.6350   71.3430  221.4390 C   0  0  0  0  0  0  0  0  0  0  0  0
  139.5950   70.7450  222.0410 C   0  0  0  0  0  0  0  0  0  0  0  0
  138.6974   70.5076  221.4512 H   0  0  0  0  0  0  0  0  0  0  0  0
  139.6270   70.3960  223.4850 C   0  0  0  0  0  0  0  0  0  0  0  0
  140.3140   71.2320  224.3100 N   0  0  0  0  0  0  0  0  0  0  0  0
  140.4680   70.9790  225.6290 C   0  0  0  0  0  0  0  0  0  0  0  0
  141.1740   71.8770  226.4370 C   0  0  0  0  0  0  0  0  0  0  0  0
  141.5844   72.8009  226.0034 H   0  0  0  0  0  0  0  0  0  0  0  0
  141.3580   71.6010  227.7940 C   0  0  0  0  0  0  0  0  0  0  0  0
  141.9075   72.3107  228.4299 H   0  0  0  0  0  0  0  0  0  0  0  0
  140.8440   70.4230  228.3440 C   0  0  0  0  0  0  0  0  0  0  0  0
  140.9928   70.2052  229.4119 H   0  0  0  0  0  0  0  0  0  0  0  0
  140.1410   69.5210  227.5390 C   0  0  0  0  0  0  0  0  0  0  0  0
  139.7395   68.5942  227.9746 H   0  0  0  0  0  0  0  0  0  0  0  0
  139.9460   69.7970  226.1710 C   0  0  0  0  0  0  0  0  0  0  0  0
  139.2400   68.9300  225.3210 C   0  0  0  0  0  0  0  0  0  0  0  0
  138.8270   67.8290  225.7810 O   0  0  0  0  0  0  0  0  0  0  0  0
  139.0170   69.2650  224.0010 N   0  0  0  0  0  0  0  0  0  0  0  0
  138.1470   68.3910  223.1690 C   0  0  0  0  0  0  0  0  0  0  0  0
  138.5326   68.4071  222.1389 H   0  0  0  0  0  0  0  0  0  0  0  0
  138.1801   67.3940  223.6326 H   0  0  0  0  0  0  0  0  0  0  0  0
  136.6430   68.8030  223.1290 C   0  0  0  0  0  0  0  0  0  0  0  0
  136.1419   67.8574  222.8746 H   0  0  0  0  0  0  0  0  0  0  0  0
  136.0550   69.2270  224.5080 C   0  0  0  0  0  0  0  0  0  0  0  0
  135.2614   68.5148  224.7780 H   0  0  0  0  0  0  0  0  0  0  0  0
  136.8919   69.2246  225.2219 H   0  0  0  0  0  0  0  0  0  0  0  0
  135.4600   70.6420  224.5320 C   0  0  0  0  0  0  0  0  0  0  0  0
  134.4670   70.6230  224.0593 H   0  0  0  0  0  0  0  0  0  0  0  0
  135.3818   70.9721  225.5784 H   0  0  0  0  0  0  0  0  0  0  0  0
  136.3530   71.6220  223.7780 C   0  0  0  0  0  0  0  0  0  0  0  0
  135.9361   72.6350  223.8781 H   0  0  0  0  0  0  0  0  0  0  0  0
  137.3636   71.5697  224.2093 H   0  0  0  0  0  0  0  0  0  0  0  0
  136.4470   71.2660  222.2860 C   0  0  0  0  0  0  0  0  0  0  0  0
  135.6730   71.8318  221.7467 H   0  0  0  0  0  0  0  0  0  0  0  0
  137.4661   71.5244  221.9625 H   0  0  0  0  0  0  0  0  0  0  0  0
  136.2510   69.7650  221.9810 C   0  0  0  0  0  0  0  0  0  0  0  0
  135.1887   69.6010  221.7472 H   0  0  0  0  0  0  0  0  0  0  0  0
  136.9258   69.5327  221.1439 H   0  0  0  0  0  0  0  0  0  0  0  0
  140.8500   72.8100  221.4360 C   0  0  0  0  0  0  0  0  0  0  0  0
  139.8640   73.6430  221.9880 C   0  0  0  0  0  0  0  0  0  0  0  0
  138.9568   73.2003  222.4250 H   0  0  0  0  0  0  0  0  0  0  0  0
  140.0230   74.9930  221.9860 N   0  0  0  0  0  0  0  0  0  0  0  0
  141.1230   75.5840  221.4490 C   0  0  0  0  0  0  0  0  0  0  0  0
  141.2246   76.6791  221.4694 H   0  0  0  0  0  0  0  0  0  0  0  0
  142.1230   74.8010  220.8720 C   0  0  0  0  0  0  0  0  0  0  0  0
  143.0125   75.2745  220.4307 H   0  0  0  0  0  0  0  0  0  0  0  0
  141.9860   73.4120  220.8590 C   0  0  0  0  0  0  0  0  0  0  0  0
  142.7651   72.7870  220.3981 H   0  0  0  0  0  0  0  0  0  0  0  0
  1  2  1  0
  2  3  2  0
  3  4  1  0
  3  5  1  0
  5  6  2  0
  6  7  1  0
  7  8  2  0
  8  9  1  0
  8 10  1  0
 10 11  1  0
 10 12  2  0
 12 13  1  0
 12 14  1  0
 14 15  1  0
 14 16  2  0
 16 17  1  0
 17 18  2  0
 17 19  1  0
 19 20  1  0
 20 21  1  0
 20 22  1  0
 20 23  1  0
 23 24  1  0
 23 25  1  0
 25 26  1  0
 25 27  1  0
 25 28  1  0
 28 29  1  0
 28 30  1  0
 28 31  1  0
 31 32  1  0
 31 33  1  0
 31 34  1  0
 34 35  1  0
 34 36  1  0
 34 37  1  0
 37 38  1  0
 37 39  1  0
  2 40  1  0
 40 41  2  0
 41 42  1  0
 41 43  1  0
 43 44  2  0
 44 45  1  0
 44 46  1  0
 46 47  1  0
 46 48  2  0
 48 49  1  0
 19  5  1  0
 37 23  1  0
 48 40  1  0
 16  7  1  0
M  END
>  <UniqueID>  (18) 
23

>  <SMILES>  (18) 
O=c1c2ccccc2nc(/C=C/c2cccnc2)n1CC1CCCCC1

>  <Energy>  (18) 
70.13365946757277

>  <Genealogy>  (18) 
O=c1c2ccccc2nc(/C=C/c2cccnc2)n1CC1CCCCC1 (cis-trans isomerization)
O=c1c2ccccc2nc(/C=C/c2cccnc2)n1CC1CCCCC1 (3D coordinates assigned)
O=c1c2ccccc2nc(/C=C/c2cccnc2)n1CC1CCCCC1 (nonaromatic ring conformer: 70.13365946757277 kcal/mol)

>  <smiles>  (18) 
O=c1c2ccccc2nc(/C=C/c2cccnc2)n1CC1CCCCC1

>  <score_type>  (18) 
oracle

>  <origin>  (18) 
autodockgpu

>  <m_score__min__energy>  (18) 
-7.3499999999999996

>  <m_primary>  (18) 
energy

>  <meeko>  (18) 
{"free_energy": -7.35, "intermolecular_energy": -8.84, "internal_energy": -1.78, "cluster_size": 19, "cluster_id": 1, "rank_in_cluster": 1}

>  <energy>  (18) 
-6.93

>  <cluster_rmsd>  (18) 
0.94

>  <rmsd>  (18) 
272.1

>  <cluster>  (18) 
1

$$$$
XUFANRSCLZKORJ-OUKQBFOZNA-N
     RDKit          3D

 49 52  0  0  0  0  0  0  0  0999 V2000
  138.8095   71.7004  220.5665 H   0  0  0  0  0  0  0  0  0  0  0  0
  139.5060   72.0730  221.3320 C   0  0  0  0  0  0  0  0  0  0  0  0
  140.3180   71.1900  221.9330 C   0  0  0  0  0  0  0  0  0  0  0  0
  141.1792   70.7893  221.3781 H   0  0  0  0  0  0  0  0  0  0  0  0
  140.0830   70.7400  223.3290 C   0  0  0  0  0  0  0  0  0  0  0  0
  140.6370   71.4860  224.3230 N   0  0  0  0  0  0  0  0  0  0  0  0
  140.5460   71.1360  225.6240 C   0  0  0  0  0  0  0  0  0  0  0  0
  141.1230   71.9450  226.6100 C   0  0  0  0  0  0  0  0  0  0  0  0
  141.6303   72.8791  226.3270 H   0  0  0  0  0  0  0  0  0  0  0  0
  141.0550   71.5670  227.9530 C   0  0  0  0  0  0  0  0  0  0  0  0
  141.5035   72.2065  228.7276 H   0  0  0  0  0  0  0  0  0  0  0  0
  140.4170   70.3760  228.3130 C   0  0  0  0  0  0  0  0  0  0  0  0
  140.3664   70.0785  229.3708 H   0  0  0  0  0  0  0  0  0  0  0  0
  139.8430   69.5620  227.3310 C   0  0  0  0  0  0  0  0  0  0  0  0
  139.3449   68.6240  227.6174 H   0  0  0  0  0  0  0  0  0  0  0  0
  139.9020   69.9420  225.9750 C   0  0  0  0  0  0  0  0  0  0  0  0
  139.3340   69.1660  224.9510 C   0  0  0  0  0  0  0  0  0  0  0  0
  138.8140   68.0540  225.2460 O   0  0  0  0  0  0  0  0  0  0  0  0
  139.3580   69.6020  223.6420 N   0  0  0  0  0  0  0  0  0  0  0  0
  138.6250   68.8260  222.6060 C   0  0  0  0  0  0  0  0  0  0  0  0
  139.1959   68.8858  221.6676 H   0  0  0  0  0  0  0  0  0  0  0  0
  138.5329   67.8021  222.9973 H   0  0  0  0  0  0  0  0  0  0  0  0
  137.1720   69.3150  222.3200 C   0  0  0  0  0  0  0  0  0  0  0  0
  137.1365   69.3334  221.2207 H   0  0  0  0  0  0  0  0  0  0  0  0
  136.0590   68.3150  222.7540 C   0  0  0  0  0  0  0  0  0  0  0  0
  135.5152   67.9926  221.8538 H   0  0  0  0  0  0  0  0  0  0  0  0
  136.5643   67.4840  223.2680 H   0  0  0  0  0  0  0  0  0  0  0  0
  135.0430   68.8950  223.7480 C   0  0  0  0  0  0  0  0  0  0  0  0
  134.3283   69.5294  223.2033 H   0  0  0  0  0  0  0  0  0  0  0  0
  134.5200   68.0625  224.2414 H   0  0  0  0  0  0  0  0  0  0  0  0
  135.7410   69.7320  224.8150 C   0  0  0  0  0  0  0  0  0  0  0  0
  134.9946   70.0689  225.5494 H   0  0  0  0  0  0  0  0  0  0  0  0
  136.5093   69.1076  225.2943 H   0  0  0  0  0  0  0  0  0  0  0  0
  136.4320   70.9620  224.2060 C   0  0  0  0  0  0  0  0  0  0  0  0
  135.7322   71.8094  224.2520 H   0  0  0  0  0  0  0  0  0  0  0  0
  137.3470   71.1340  224.7918 H   0  0  0  0  0  0  0  0  0  0  0  0
  136.8720   70.7760  222.7380 C   0  0  0  0  0  0  0  0  0  0  0  0
  136.0682   71.1570  222.0909 H   0  0  0  0  0  0  0  0  0  0  0  0
  137.8192   71.3249  222.6311 H   0  0  0  0  0  0  0  0  0  0  0  0
  139.4950   73.5230  221.6420 C   0  0  0  0  0  0  0  0  0  0  0  0
  140.7120   74.2220  221.6650 C   0  0  0  0  0  0  0  0  0  0  0  0
  141.6502   73.6928  221.4421 H   0  0  0  0  0  0  0  0  0  0  0  0
  140.7390   75.5490  221.9610 N   0  0  0  0  0  0  0  0  0  0  0  0
  139.6050   76.2400  222.2510 C   0  0  0  0  0  0  0  0  0  0  0  0
  139.6597   77.3146  222.4796 H   0  0  0  0  0  0  0  0  0  0  0  0
  138.3720   75.5880  222.2590 C   0  0  0  0  0  0  0  0  0  0  0  0
  137.4525   76.1419  222.4993 H   0  0  0  0  0  0  0  0  0  0  0  0
  138.3160   74.2250  221.9590 C   0  0  0  0  0  0  0  0  0  0  0  0
  137.3498   73.6993  221.9704 H   0  0  0  0  0  0  0  0  0  0  0  0
  1  2  1  0
  2  3  2  0
  3  4  1  0
  3  5  1  0
  5  6  2  0
  6  7  1  0
  7  8  2  0
  8  9  1  0
  8 10  1  0
 10 11  1  0
 10 12  2  0
 12 13  1  0
 12 14  1  0
 14 15  1  0
 14 16  2  0
 16 17  1  0
 17 18  2  0
 17 19  1  0
 19 20  1  0
 20 21  1  0
 20 22  1  0
 20 23  1  0
 23 24  1  0
 23 25  1  0
 25 26  1  0
 25 27  1  0
 25 28  1  0
 28 29  1  0
 28 30  1  0
 28 31  1  0
 31 32  1  0
 31 33  1  0
 31 34  1  0
 34 35  1  0
 34 36  1  0
 34 37  1  0
 37 38  1  0
 37 39  1  0
  2 40  1  0
 40 41  2  0
 41 42  1  0
 41 43  1  0
 43 44  2  0
 44 45  1  0
 44 46  1  0
 46 47  1  0
 46 48  2  0
 48 49  1  0
 19  5  1  0
 37 23  1  0
 48 40  1  0
 16  7  1  0
M  END
>  <UniqueID>  (19) 
23

>  <SMILES>  (19) 
O=c1c2ccccc2nc(/C=C/c2cccnc2)n1CC1CCCCC1

>  <Energy>  (19) 
70.13365946757277

>  <Genealogy>  (19) 
O=c1c2ccccc2nc(/C=C/c2cccnc2)n1CC1CCCCC1 (cis-trans isomerization)
O=c1c2ccccc2nc(/C=C/c2cccnc2)n1CC1CCCCC1 (3D coordinates assigned)
O=c1c2ccccc2nc(/C=C/c2cccnc2)n1CC1CCCCC1 (nonaromatic ring conformer: 70.13365946757277 kcal/mol)

>  <smiles>  (19) 
O=c1c2ccccc2nc(/C=C/c2cccnc2)n1CC1CCCCC1

>  <score_type>  (19) 
oracle

>  <origin>  (19) 
autodockgpu

>  <m_score__min__energy>  (19) 
-7.3499999999999996

>  <m_primary>  (19) 
energy

>  <meeko>  (19) 
{"free_energy": -6.95, "intermolecular_energy": -8.44, "internal_energy": -1.89, "cluster_size": 19, "cluster_id": 1, "rank_in_cluster": 14}

>  <energy>  (19) 
-6.87

>  <cluster_rmsd>  (19) 
0.9

>  <rmsd>  (19) 
272.13

>  <cluster>  (19) 
1

$$$$
XUFANRSCLZKORJ-OUKQBFOZNA-N
     RDKit          3D

 49 52  0  0  0  0  0  0  0  0999 V2000
  137.9237   72.6218  221.9096 H   0  0  0  0  0  0  0  0  0  0  0  0
  139.0200   72.5920  221.9950 C   0  0  0  0  0  0  0  0  0  0  0  0
  139.6080   71.4030  222.2040 C   0  0  0  0  0  0  0  0  0  0  0  0
  140.0334   70.8570  221.3490 H   0  0  0  0  0  0  0  0  0  0  0  0
  139.6980   70.8070  223.5620 C   0  0  0  0  0  0  0  0  0  0  0  0
  140.3120   71.5470  224.5240 N   0  0  0  0  0  0  0  0  0  0  0  0
  140.5110   71.0790  225.7760 C   0  0  0  0  0  0  0  0  0  0  0  0
  141.1380   71.8860  226.7330 C   0  0  0  0  0  0  0  0  0  0  0  0
  141.4471   72.9091  226.4728 H   0  0  0  0  0  0  0  0  0  0  0  0
  141.3710   71.3910  228.0190 C   0  0  0  0  0  0  0  0  0  0  0  0
  141.8583   72.0268  228.7728 H   0  0  0  0  0  0  0  0  0  0  0  0
  140.9850   70.0880  228.3480 C   0  0  0  0  0  0  0  0  0  0  0  0
  141.1713   69.6996  229.3601 H   0  0  0  0  0  0  0  0  0  0  0  0
  140.3630   69.2780  227.3940 C   0  0  0  0  0  0  0  0  0  0  0  0
  140.0641   68.2522  227.6556 H   0  0  0  0  0  0  0  0  0  0  0  0
  140.1180   69.7730  226.0970 C   0  0  0  0  0  0  0  0  0  0  0  0
  139.4890   69.0050  225.1040 C   0  0  0  0  0  0  0  0  0  0  0  0
  139.1940   67.8030  225.3580 O   0  0  0  0  0  0  0  0  0  0  0  0
  139.2120   69.5470  223.8650 N   0  0  0  0  0  0  0  0  0  0  0  0
  138.4190   68.7520  222.8880 C   0  0  0  0  0  0  0  0  0  0  0  0
  138.6953   69.0820  221.8757 H   0  0  0  0  0  0  0  0  0  0  0  0
  138.6587   67.6966  223.0847 H   0  0  0  0  0  0  0  0  0  0  0  0
  136.8720   68.8810  223.0330 C   0  0  0  0  0  0  0  0  0  0  0  0
  136.5287   67.8488  222.8698 H   0  0  0  0  0  0  0  0  0  0  0  0
  136.3890   69.2580  224.4660 C   0  0  0  0  0  0  0  0  0  0  0  0
  135.7814   68.4275  224.8546 H   0  0  0  0  0  0  0  0  0  0  0  0
  137.2928   69.4425  225.0652 H   0  0  0  0  0  0  0  0  0  0  0  0
  135.5480   70.5410  224.5310 C   0  0  0  0  0  0  0  0  0  0  0  0
  134.5255   70.3187  224.1917 H   0  0  0  0  0  0  0  0  0  0  0  0
  135.5387   70.9022  225.5700 H   0  0  0  0  0  0  0  0  0  0  0  0
  136.1430   71.6290  223.6430 C   0  0  0  0  0  0  0  0  0  0  0  0
  135.5599   72.5529  223.7707 H   0  0  0  0  0  0  0  0  0  0  0  0
  137.1908   71.7822  223.9408 H   0  0  0  0  0  0  0  0  0  0  0  0
  136.1180   71.2240  222.1610 C   0  0  0  0  0  0  0  0  0  0  0  0
  135.1920   71.6131  221.7125 H   0  0  0  0  0  0  0  0  0  0  0  0
  137.0239   71.6469  221.7022 H   0  0  0  0  0  0  0  0  0  0  0  0
  136.1690   69.6990  221.9210 C   0  0  0  0  0  0  0  0  0  0  0  0
  135.1354   69.3336  221.8312 H   0  0  0  0  0  0  0  0  0  0  0  0
  136.7667   69.5526  221.0093 H   0  0  0  0  0  0  0  0  0  0  0  0
  139.7670   73.8670  221.8730 C   0  0  0  0  0  0  0  0  0  0  0  0
  139.1690   75.0510  222.3300 C   0  0  0  0  0  0  0  0  0  0  0  0
  138.1667   75.0175  222.7820 H   0  0  0  0  0  0  0  0  0  0  0  0
  139.8200   76.2400  222.2180 N   0  0  0  0  0  0  0  0  0  0  0  0
  141.0550   76.3290  221.6590 C   0  0  0  0  0  0  0  0  0  0  0  0
  141.5579   77.3048  221.5894 H   0  0  0  0  0  0  0  0  0  0  0  0
  141.6860   75.1830  221.1730 C   0  0  0  0  0  0  0  0  0  0  0  0
  142.6836   75.2509  220.7145 H   0  0  0  0  0  0  0  0  0  0  0  0
  141.0400   73.9500  221.2740 C   0  0  0  0  0  0  0  0  0  0  0  0
  141.5248   73.0422  220.8857 H   0  0  0  0  0  0  0  0  0  0  0  0
  1  2  1  0
  2  3  2  0
  3  4  1  0
  3  5  1  0
  5  6  2  0
  6  7  1  0
  7  8  2  0
  8  9  1  0
  8 10  1  0
 10 11  1  0
 10 12  2  0
 12 13  1  0
 12 14  1  0
 14 15  1  0
 14 16  2  0
 16 17  1  0
 17 18  2  0
 17 19  1  0
 19 20  1  0
 20 21  1  0
 20 22  1  0
 20 23  1  0
 23 24  1  0
 23 25  1  0
 25 26  1  0
 25 27  1  0
 25 28  1  0
 28 29  1  0
 28 30  1  0
 28 31  1  0
 31 32  1  0
 31 33  1  0
 31 34  1  0
 34 35  1  0
 34 36  1  0
 34 37  1  0
 37 38  1  0
 37 39  1  0
  2 40  1  0
 40 41  2  0
 41 42  1  0
 41 43  1  0
 43 44  2  0
 44 45  1  0
 44 46  1  0
 46 47  1  0
 46 48  2  0
 48 49  1  0
 19  5  1  0
 37 23  1  0
 48 40  1  0
 16  7  1  0
M  END
>  <UniqueID>  (20) 
23

>  <SMILES>  (20) 
O=c1c2ccccc2nc(/C=C/c2cccnc2)n1CC1CCCCC1

>  <Energy>  (20) 
70.13365946757277

>  <Genealogy>  (20) 
O=c1c2ccccc2nc(/C=C/c2cccnc2)n1CC1CCCCC1 (cis-trans isomerization)
O=c1c2ccccc2nc(/C=C/c2cccnc2)n1CC1CCCCC1 (3D coordinates assigned)
O=c1c2ccccc2nc(/C=C/c2cccnc2)n1CC1CCCCC1 (nonaromatic ring conformer: 70.13365946757277 kcal/mol)

>  <smiles>  (20) 
O=c1c2ccccc2nc(/C=C/c2cccnc2)n1CC1CCCCC1

>  <score_type>  (20) 
oracle

>  <origin>  (20) 
autodockgpu

>  <m_score__min__energy>  (20) 
-7.3499999999999996

>  <m_primary>  (20) 
energy

>  <meeko>  (20) 
{"free_energy": -7.14, "intermolecular_energy": -8.63, "internal_energy": -1.68, "cluster_size": 19, "cluster_id": 1, "rank_in_cluster": 7}

>  <energy>  (20) 
-6.5

>  <cluster_rmsd>  (20) 
0.0

>  <rmsd>  (20) 
272.19

>  <cluster>  (20) 
2

$$$$
XUFANRSCLZKORJ-OUKQBFOZNA-N
     RDKit          3D

 49 52  0  0  0  0  0  0  0  0999 V2000
  141.5164   70.7553  220.9111 H   0  0  0  0  0  0  0  0  0  0  0  0
  140.7370   71.3440  221.4170 C   0  0  0  0  0  0  0  0  0  0  0  0
  139.7170   70.6860  221.9890 C   0  0  0  0  0  0  0  0  0  0  0  0
  138.8652   70.3721  221.3677 H   0  0  0  0  0  0  0  0  0  0  0  0
  139.7100   70.3710  223.4410 C   0  0  0  0  0  0  0  0  0  0  0  0
  140.3970   71.2110  224.2610 N   0  0  0  0  0  0  0  0  0  0  0  0
  140.5170   70.9870  225.5880 C   0  0  0  0  0  0  0  0  0  0  0  0
  141.2230   71.8900  226.3900 C   0  0  0  0  0  0  0  0  0  0  0  0
  141.6603   72.7956  225.9443 H   0  0  0  0  0  0  0  0  0  0  0  0
  141.3730   71.6420  227.7570 C   0  0  0  0  0  0  0  0  0  0  0  0
  141.9240   72.3550  228.3879 H   0  0  0  0  0  0  0  0  0  0  0  0
  140.8230   70.4880  228.3230 C   0  0  0  0  0  0  0  0  0  0  0  0
  140.9433   70.2936  229.3990 H   0  0  0  0  0  0  0  0  0  0  0  0
  140.1200   69.5800  227.5240 C   0  0  0  0  0  0  0  0  0  0  0  0
  139.6922   68.6710  227.9720 H   0  0  0  0  0  0  0  0  0  0  0  0
  139.9590   69.8280  226.1460 C   0  0  0  0  0  0  0  0  0  0  0  0
  139.2550   68.9550  225.3010 C   0  0  0  0  0  0  0  0  0  0  0  0
  138.8100   67.8740  225.7770 O   0  0  0  0  0  0  0  0  0  0  0  0
  139.0670   69.2640  223.9690 N   0  0  0  0  0  0  0  0  0  0  0  0
  138.1970   68.3880  223.1380 C   0  0  0  0  0  0  0  0  0  0  0  0
  138.6036   68.3741  222.1160 H   0  0  0  0  0  0  0  0  0  0  0  0
  138.2015   67.4010  223.6237 H   0  0  0  0  0  0  0  0  0  0  0  0
  136.7030   68.8270  223.0580 C   0  0  0  0  0  0  0  0  0  0  0  0
  136.1975   67.9004  222.7482 H   0  0  0  0  0  0  0  0  0  0  0  0
  136.0690   69.2070  224.4290 C   0  0  0  0  0  0  0  0  0  0  0  0
  135.2543   68.4987  224.6400 H   0  0  0  0  0  0  0  0  0  0  0  0
  136.8777   69.1623  225.1733 H   0  0  0  0  0  0  0  0  0  0  0  0
  135.4960   70.6300  224.4870 C   0  0  0  0  0  0  0  0  0  0  0  0
  134.5212   70.6467  223.9777 H   0  0  0  0  0  0  0  0  0  0  0  0
  135.3836   70.9207  225.5419 H   0  0  0  0  0  0  0  0  0  0  0  0
  136.4330   71.6230  223.8050 C   0  0  0  0  0  0  0  0  0  0  0  0
  136.0289   72.6385  223.9293 H   0  0  0  0  0  0  0  0  0  0  0  0
  137.4256   71.5358  224.2711 H   0  0  0  0  0  0  0  0  0  0  0  0
  136.5780   71.3240  222.3050 C   0  0  0  0  0  0  0  0  0  0  0  0
  135.8341   71.9237  221.7599 H   0  0  0  0  0  0  0  0  0  0  0  0
  137.6126   71.5772  222.0301 H   0  0  0  0  0  0  0  0  0  0  0  0
  136.3700   69.8400  221.9340 C   0  0  0  0  0  0  0  0  0  0  0  0
  135.3149   69.7036  221.6544 H   0  0  0  0  0  0  0  0  0  0  0  0
  137.0722   69.6286  221.1141 H   0  0  0  0  0  0  0  0  0  0  0  0
  140.8720   72.8210  221.4290 C   0  0  0  0  0  0  0  0  0  0  0  0
  139.8650   73.5910  222.0320 C   0  0  0  0  0  0  0  0  0  0  0  0
  139.0008   73.0930  222.4958 H   0  0  0  0  0  0  0  0  0  0  0  0
  139.9500   74.9470  222.0470 N   0  0  0  0  0  0  0  0  0  0  0  0
  140.9950   75.6050  221.4790 C   0  0  0  0  0  0  0  0  0  0  0  0
  141.0382   76.7036  221.5151 H   0  0  0  0  0  0  0  0  0  0  0  0
  142.0130   74.8870  220.8500 C   0  0  0  0  0  0  0  0  0  0  0  0
  142.8572   75.4148  220.3822 H   0  0  0  0  0  0  0  0  0  0  0  0
  141.9500   73.4920  220.8200 C   0  0  0  0  0  0  0  0  0  0  0  0
  142.7433   72.9168  220.3201 H   0  0  0  0  0  0  0  0  0  0  0  0
  1  2  1  0
  2  3  2  0
  3  4  1  0
  3  5  1  0
  5  6  2  0
  6  7  1  0
  7  8  2  0
  8  9  1  0
  8 10  1  0
 10 11  1  0
 10 12  2  0
 12 13  1  0
 12 14  1  0
 14 15  1  0
 14 16  2  0
 16 17  1  0
 17 18  2  0
 17 19  1  0
 19 20  1  0
 20 21  1  0
 20 22  1  0
 20 23  1  0
 23 24  1  0
 23 25  1  0
 25 26  1  0
 25 27  1  0
 25 28  1  0
 28 29  1  0
 28 30  1  0
 28 31  1  0
 31 32  1  0
 31 33  1  0
 31 34  1  0
 34 35  1  0
 34 36  1  0
 34 37  1  0
 37 38  1  0
 37 39  1  0
  2 40  1  0
 40 41  2  0
 41 42  1  0
 41 43  1  0
 43 44  2  0
 44 45  1  0
 44 46  1  0
 46 47  1  0
 46 48  2  0
 48 49  1  0
 19  5  1  0
 37 23  1  0
 48 40  1  0
 16  7  1  0
M  END
>  <UniqueID>  (21) 
24

>  <SMILES>  (21) 
O=c1c2ccccc2nc(/C=C/c2cccnc2)n1CC1CCCCC1

>  <Energy>  (21) 
70.21899285290385

>  <Genealogy>  (21) 
O=c1c2ccccc2nc(/C=C/c2cccnc2)n1CC1CCCCC1 (cis-trans isomerization)
O=c1c2ccccc2nc(/C=C/c2cccnc2)n1CC1CCCCC1 (3D coordinates assigned)
O=c1c2ccccc2nc(/C=C/c2cccnc2)n1CC1CCCCC1 (nonaromatic ring conformer: 70.21899285290385 kcal/mol)

>  <smiles>  (21) 
O=c1c2ccccc2nc(/C=C/c2cccnc2)n1CC1CCCCC1

>  <score_type>  (21) 
oracle

>  <origin>  (21) 
autodockgpu

>  <m_score__min__energy>  (21) 
-7.3499999999999996

>  <m_primary>  (21) 
energy

>  <meeko>  (21) 
{"free_energy": -7.3, "intermolecular_energy": -8.79, "internal_energy": -1.82, "cluster_size": 19, "cluster_id": 1, "rank_in_cluster": 3}

>  <energy>  (21) 
-7.35

>  <cluster_rmsd>  (21) 
0.0

>  <rmsd>  (21) 
272.11

>  <cluster>  (21) 
1

$$$$
XUFANRSCLZKORJ-OUKQBFOZNA-N
     RDKit          3D

 49 52  0  0  0  0  0  0  0  0999 V2000
  139.1340   72.0502  220.7068 H   0  0  0  0  0  0  0  0  0  0  0  0
  139.8510   72.4350  221.4470 C   0  0  0  0  0  0  0  0  0  0  0  0
  140.6410   71.5550  222.0800 C   0  0  0  0  0  0  0  0  0  0  0  0
  141.5869   71.2479  221.6100 H   0  0  0  0  0  0  0  0  0  0  0  0
  140.2690   70.9850  223.4010 C   0  0  0  0  0  0  0  0  0  0  0  0
  140.7090   71.6440  224.5070 N   0  0  0  0  0  0  0  0  0  0  0  0
  140.4900   71.1810  225.7570 C   0  0  0  0  0  0  0  0  0  0  0  0
  140.9520   71.9040  226.8630 C   0  0  0  0  0  0  0  0  0  0  0  0
  141.4731   72.8613  226.7148 H   0  0  0  0  0  0  0  0  0  0  0  0
  140.7520   71.4110  228.1550 C   0  0  0  0  0  0  0  0  0  0  0  0
  141.1112   71.9822  229.0237 H   0  0  0  0  0  0  0  0  0  0  0  0
  140.0950   70.1910  228.3430 C   0  0  0  0  0  0  0  0  0  0  0  0
  139.9396   69.8028  229.3604 H   0  0  0  0  0  0  0  0  0  0  0  0
  139.6350   69.4630  227.2410 C   0  0  0  0  0  0  0  0  0  0  0  0
  139.1218   68.5020  227.3930 H   0  0  0  0  0  0  0  0  0  0  0  0
  139.8280   69.9590  225.9360 C   0  0  0  0  0  0  0  0  0  0  0  0
  139.3780   69.2730  224.7960 C   0  0  0  0  0  0  0  0  0  0  0  0
  138.8440   68.1380  224.9390 O   0  0  0  0  0  0  0  0  0  0  0  0
  139.5310   69.8210  223.5390 N   0  0  0  0  0  0  0  0  0  0  0  0
  138.9180   69.1350  222.3700 C   0  0  0  0  0  0  0  0  0  0  0  0
  139.4998   69.4005  221.4750 H   0  0  0  0  0  0  0  0  0  0  0  0
  138.9368   68.0596  222.6003 H   0  0  0  0  0  0  0  0  0  0  0  0
  137.4240   69.4970  222.1010 C   0  0  0  0  0  0  0  0  0  0  0  0
  137.3413   69.3822  221.0101 H   0  0  0  0  0  0  0  0  0  0  0  0
  136.4000   68.4900  222.7030 C   0  0  0  0  0  0  0  0  0  0  0  0
  135.8420   68.0292  221.8746 H   0  0  0  0  0  0  0  0  0  0  0  0
  136.9810   67.7595  223.2851 H   0  0  0  0  0  0  0  0  0  0  0  0
  135.3890   69.1210  223.6720 C   0  0  0  0  0  0  0  0  0  0  0  0
  134.6114   69.6408  223.0930 H   0  0  0  0  0  0  0  0  0  0  0  0
  134.9435   68.3228  224.2839 H   0  0  0  0  0  0  0  0  0  0  0  0
  136.0740   70.1210  224.5990 C   0  0  0  0  0  0  0  0  0  0  0  0
  135.3381   70.4973  225.3248 H   0  0  0  0  0  0  0  0  0  0  0  0
  136.9012   69.6064  225.1099 H   0  0  0  0  0  0  0  0  0  0  0  0
  136.6560   71.3090  223.8170 C   0  0  0  0  0  0  0  0  0  0  0  0
  135.9044   72.1119  223.7988 H   0  0  0  0  0  0  0  0  0  0  0  0
  137.5817   71.6047  224.3324 H   0  0  0  0  0  0  0  0  0  0  0  0
  137.0450   70.9760  222.3600 C   0  0  0  0  0  0  0  0  0  0  0  0
  136.1908   71.2267  221.7138 H   0  0  0  0  0  0  0  0  0  0  0  0
  137.9480   71.5654  222.1425 H   0  0  0  0  0  0  0  0  0  0  0  0
  139.8900   73.8970  221.6890 C   0  0  0  0  0  0  0  0  0  0  0  0
  138.6960   74.5680  221.9970 C   0  0  0  0  0  0  0  0  0  0  0  0
  137.7546   74.0033  222.0673 H   0  0  0  0  0  0  0  0  0  0  0  0
  138.6950   75.9110  222.2090 N   0  0  0  0  0  0  0  0  0  0  0  0
  139.8320   76.6490  222.1250 C   0  0  0  0  0  0  0  0  0  0  0  0
  139.7986   77.7329  222.3093 H   0  0  0  0  0  0  0  0  0  0  0  0
  141.0430   76.0330  221.8050 C   0  0  0  0  0  0  0  0  0  0  0  0
  141.9654   76.6277  221.7299 H   0  0  0  0  0  0  0  0  0  0  0  0
  141.0730   74.6550  221.5810 C   0  0  0  0  0  0  0  0  0  0  0  0
  142.0206   74.1610  221.3201 H   0  0  0  0  0  0  0  0  0  0  0  0
  1  2  1  0
  2  3  2  0
  3  4  1  0
  3  5  1  0
  5  6  2  0
  6  7  1  0
  7  8  2  0
  8  9  1  0
  8 10  1  0
 10 11  1  0
 10 12  2  0
 12 13  1  0
 12 14  1  0
 14 15  1  0
 14 16  2  0
 16 17  1  0
 17 18  2  0
 17 19  1  0
 19 20  1  0
 20 21  1  0
 20 22  1  0
 20 23  1  0
 23 24  1  0
 23 25  1  0
 25 26  1  0
 25 27  1  0
 25 28  1  0
 28 29  1  0
 28 30  1  0
 28 31  1  0
 31 32  1  0
 31 33  1  0
 31 34  1  0
 34 35  1  0
 34 36  1  0
 34 37  1  0
 37 38  1  0
 37 39  1  0
  2 40  1  0
 40 41  2  0
 41 42  1  0
 41 43  1  0
 43 44  2  0
 44 45  1  0
 44 46  1  0
 46 47  1  0
 46 48  2  0
 48 49  1  0
 19  5  1  0
 37 23  1  0
 48 40  1  0
 16  7  1  0
M  END
>  <UniqueID>  (22) 
24

>  <SMILES>  (22) 
O=c1c2ccccc2nc(/C=C/c2cccnc2)n1CC1CCCCC1

>  <Energy>  (22) 
70.21899285290385

>  <Genealogy>  (22) 
O=c1c2ccccc2nc(/C=C/c2cccnc2)n1CC1CCCCC1 (cis-trans isomerization)
O=c1c2ccccc2nc(/C=C/c2cccnc2)n1CC1CCCCC1 (3D coordinates assigned)
O=c1c2ccccc2nc(/C=C/c2cccnc2)n1CC1CCCCC1 (nonaromatic ring conformer: 70.21899285290385 kcal/mol)

>  <smiles>  (22) 
O=c1c2ccccc2nc(/C=C/c2cccnc2)n1CC1CCCCC1

>  <score_type>  (22) 
oracle

>  <origin>  (22) 
autodockgpu

>  <m_score__min__energy>  (22) 
-7.3499999999999996

>  <m_primary>  (22) 
energy

>  <meeko>  (22) 
{"free_energy": -6.94, "intermolecular_energy": -8.43, "internal_energy": -1.88, "cluster_size": 19, "cluster_id": 1, "rank_in_cluster": 17}

>  <energy>  (22) 
-7.32

>  <cluster_rmsd>  (22) 
0.08

>  <rmsd>  (22) 
272.11

>  <cluster>  (22) 
1

$$$$
XUFANRSCLZKORJ-OUKQBFOZNA-N
     RDKit          3D

 49 52  0  0  0  0  0  0  0  0999 V2000
  138.6125   72.2681  221.0604 H   0  0  0  0  0  0  0  0  0  0  0  0
  139.5000   72.6210  221.6060 C   0  0  0  0  0  0  0  0  0  0  0  0
  140.3430   71.7040  222.1050 C   0  0  0  0  0  0  0  0  0  0  0  0
  141.2280   71.4138  221.5197 H   0  0  0  0  0  0  0  0  0  0  0  0
  140.1100   71.0710  223.4290 C   0  0  0  0  0  0  0  0  0  0  0  0
  140.6090   71.7110  224.5200 N   0  0  0  0  0  0  0  0  0  0  0  0
  140.5170   71.1960  225.7650 C   0  0  0  0  0  0  0  0  0  0  0  0
  141.0360   71.9020  226.8560 C   0  0  0  0  0  0  0  0  0  0  0  0
  141.4983   72.8884  226.7031 H   0  0  0  0  0  0  0  0  0  0  0  0
  140.9670   71.3540  228.1400 C   0  0  0  0  0  0  0  0  0  0  0  0
  141.3702   71.9117  228.9981 H   0  0  0  0  0  0  0  0  0  0  0  0
  140.3860   70.0980  228.3340 C   0  0  0  0  0  0  0  0  0  0  0  0
  140.3351   69.6673  229.3449 H   0  0  0  0  0  0  0  0  0  0  0  0
  139.8690   69.3870  227.2460 C   0  0  0  0  0  0  0  0  0  0  0  0
  139.4150   68.3973  227.4023 H   0  0  0  0  0  0  0  0  0  0  0  0
  139.9290   69.9370  225.9500 C   0  0  0  0  0  0  0  0  0  0  0  0
  139.4170   69.2700  224.8250 C   0  0  0  0  0  0  0  0  0  0  0  0
  138.9500   68.1060  224.9670 O   0  0  0  0  0  0  0  0  0  0  0  0
  139.4390   69.8690  223.5810 N   0  0  0  0  0  0  0  0  0  0  0  0
  138.7630   69.1940  222.4410 C   0  0  0  0  0  0  0  0  0  0  0  0
  139.2995   69.4622  221.5189 H   0  0  0  0  0  0  0  0  0  0  0  0
  138.7876   68.1169  222.6630 H   0  0  0  0  0  0  0  0  0  0  0  0
  137.2600   69.5660  222.2520 C   0  0  0  0  0  0  0  0  0  0  0  0
  137.1463   69.5572  221.1579 H   0  0  0  0  0  0  0  0  0  0  0  0
  136.2600   68.4950  222.7810 C   0  0  0  0  0  0  0  0  0  0  0  0
  135.6807   68.1128  221.9276 H   0  0  0  0  0  0  0  0  0  0  0  0
  136.8620   67.7158  223.2713 H   0  0  0  0  0  0  0  0  0  0  0  0
  135.2750   69.0190  223.8350 C   0  0  0  0  0  0  0  0  0  0  0  0
  134.4779   69.5863  223.3322 H   0  0  0  0  0  0  0  0  0  0  0  0
  134.8527   68.1606  224.3780 H   0  0  0  0  0  0  0  0  0  0  0  0
  135.9800   69.9290  224.8360 C   0  0  0  0  0  0  0  0  0  0  0  0
  135.2634   70.2247  225.6164 H   0  0  0  0  0  0  0  0  0  0  0  0
  136.8254   69.3749  225.2698 H   0  0  0  0  0  0  0  0  0  0  0  0
  136.5300   71.1940  224.1580 C   0  0  0  0  0  0  0  0  0  0  0  0
  135.7720   71.9870  224.2398 H   0  0  0  0  0  0  0  0  0  0  0  0
  137.4680   71.4476  224.6736 H   0  0  0  0  0  0  0  0  0  0  0  0
  136.8790   71.0090  222.6650 C   0  0  0  0  0  0  0  0  0  0  0  0
  136.0050   71.3137  222.0707 H   0  0  0  0  0  0  0  0  0  0  0  0
  137.7713   71.6254  222.4809 H   0  0  0  0  0  0  0  0  0  0  0  0
  139.6980   74.0830  221.7490 C   0  0  0  0  0  0  0  0  0  0  0  0
  138.5870   74.8970  222.0180 C   0  0  0  0  0  0  0  0  0  0  0  0
  137.5918   74.4425  222.1317 H   0  0  0  0  0  0  0  0  0  0  0  0
  138.7320   76.2430  222.1390 N   0  0  0  0  0  0  0  0  0  0  0  0
  139.9400   76.8490  221.9980 C   0  0  0  0  0  0  0  0  0  0  0  0
  140.0245   77.9401  222.1093 H   0  0  0  0  0  0  0  0  0  0  0  0
  141.0730   76.0870  221.7120 C   0  0  0  0  0  0  0  0  0  0  0  0
  142.0522   76.5730  221.5900 H   0  0  0  0  0  0  0  0  0  0  0  0
  140.9530   74.7020  221.5820 C   0  0  0  0  0  0  0  0  0  0  0  0
  141.8391   74.0933  221.3490 H   0  0  0  0  0  0  0  0  0  0  0  0
  1  2  1  0
  2  3  2  0
  3  4  1  0
  3  5  1  0
  5  6  2  0
  6  7  1  0
  7  8  2  0
  8  9  1  0
  8 10  1  0
 10 11  1  0
 10 12  2  0
 12 13  1  0
 12 14  1  0
 14 15  1  0
 14 16  2  0
 16 17  1  0
 17 18  2  0
 17 19  1  0
 19 20  1  0
 20 21  1  0
 20 22  1  0
 20 23  1  0
 23 24  1  0
 23 25  1  0
 25 26  1  0
 25 27  1  0
 25 28  1  0
 28 29  1  0
 28 30  1  0
 28 31  1  0
 31 32  1  0
 31 33  1  0
 31 34  1  0
 34 35  1  0
 34 36  1  0
 34 37  1  0
 37 38  1  0
 37 39  1  0
  2 40  1  0
 40 41  2  0
 41 42  1  0
 41 43  1  0
 43 44  2  0
 44 45  1  0
 44 46  1  0
 46 47  1  0
 46 48  2  0
 48 49  1  0
 19  5  1  0
 37 23  1  0
 48 40  1  0
 16  7  1  0
M  END
>  <UniqueID>  (23) 
24

>  <SMILES>  (23) 
O=c1c2ccccc2nc(/C=C/c2cccnc2)n1CC1CCCCC1

>  <Energy>  (23) 
70.21899285290385

>  <Genealogy>  (23) 
O=c1c2ccccc2nc(/C=C/c2cccnc2)n1CC1CCCCC1 (cis-trans isomerization)
O=c1c2ccccc2nc(/C=C/c2cccnc2)n1CC1CCCCC1 (3D coordinates assigned)
O=c1c2ccccc2nc(/C=C/c2cccnc2)n1CC1CCCCC1 (nonaromatic ring conformer: 70.21899285290385 kcal/mol)

>  <smiles>  (23) 
O=c1c2ccccc2nc(/C=C/c2cccnc2)n1CC1CCCCC1

>  <score_type>  (23) 
oracle

>  <origin>  (23) 
autodockgpu

>  <m_score__min__energy>  (23) 
-7.3499999999999996

>  <m_primary>  (23) 
energy

>  <meeko>  (23) 
{"free_energy": -6.99, "intermolecular_energy": -8.48, "internal_energy": -1.78, "cluster_size": 19, "cluster_id": 1, "rank_in_cluster": 12}

>  <energy>  (23) 
-7.3

>  <cluster_rmsd>  (23) 
0.09

>  <rmsd>  (23) 
272.11

>  <cluster>  (23) 
1

$$$$
XUFANRSCLZKORJ-OUKQBFOZNA-N
     RDKit          3D

 49 52  0  0  0  0  0  0  0  0999 V2000
  141.4745   70.7365  220.9014 H   0  0  0  0  0  0  0  0  0  0  0  0
  140.7080   71.3380  221.4120 C   0  0  0  0  0  0  0  0  0  0  0  0
  139.6860   70.6960  222.0010 C   0  0  0  0  0  0  0  0  0  0  0  0
  138.8221   70.3902  221.3926 H   0  0  0  0  0  0  0  0  0  0  0  0
  139.6940   70.3890  223.4540 C   0  0  0  0  0  0  0  0  0  0  0  0
  140.3820   71.2380  224.2640 N   0  0  0  0  0  0  0  0  0  0  0  0
  140.5140   71.0220  225.5910 C   0  0  0  0  0  0  0  0  0  0  0  0
  141.2220   71.9340  226.3830 C   0  0  0  0  0  0  0  0  0  0  0  0
  141.6508   72.8396  225.9290 H   0  0  0  0  0  0  0  0  0  0  0  0
  141.3840   71.6940  227.7500 C   0  0  0  0  0  0  0  0  0  0  0  0
  141.9358   72.4133  228.3730 H   0  0  0  0  0  0  0  0  0  0  0  0
  140.8450   70.5400  228.3260 C   0  0  0  0  0  0  0  0  0  0  0  0
  140.9756   70.3516  229.4019 H   0  0  0  0  0  0  0  0  0  0  0  0
  140.1400   69.6240  227.5380 C   0  0  0  0  0  0  0  0  0  0  0  0
  139.7202   68.7154  227.9944 H   0  0  0  0  0  0  0  0  0  0  0  0
  139.9670   69.8640  226.1600 C   0  0  0  0  0  0  0  0  0  0  0  0
  139.2610   68.9820  225.3260 C   0  0  0  0  0  0  0  0  0  0  0  0
  138.8260   67.9010  225.8110 O   0  0  0  0  0  0  0  0  0  0  0  0
  139.0600   69.2820  223.9940 N   0  0  0  0  0  0  0  0  0  0  0  0
  138.1890   68.3970  223.1750 C   0  0  0  0  0  0  0  0  0  0  0  0
  138.5879   68.3795  222.1500 H   0  0  0  0  0  0  0  0  0  0  0  0
  138.2026   67.4128  223.6660 H   0  0  0  0  0  0  0  0  0  0  0  0
  136.6910   68.8280  223.1040 C   0  0  0  0  0  0  0  0  0  0  0  0
  136.1852   67.8956  222.8127 H   0  0  0  0  0  0  0  0  0  0  0  0
  136.0700   69.2240  224.4760 C   0  0  0  0  0  0  0  0  0  0  0  0
  135.2615   68.5145  224.7061 H   0  0  0  0  0  0  0  0  0  0  0  0
  136.8866   69.1940  225.2124 H   0  0  0  0  0  0  0  0  0  0  0  0
  135.4900   70.6450  224.5190 C   0  0  0  0  0  0  0  0  0  0  0  0
  134.5107   70.6497  224.0180 H   0  0  0  0  0  0  0  0  0  0  0  0
  135.3849   70.9502  225.5706 H   0  0  0  0  0  0  0  0  0  0  0  0
  136.4160   71.6320  223.8150 C   0  0  0  0  0  0  0  0  0  0  0  0
  136.0089   72.6475  223.9292 H   0  0  0  0  0  0  0  0  0  0  0  0
  137.4133   71.5553  224.2728 H   0  0  0  0  0  0  0  0  0  0  0  0
  136.5480   71.3130  222.3180 C   0  0  0  0  0  0  0  0  0  0  0  0
  135.7964   71.9020  221.7720 H   0  0  0  0  0  0  0  0  0  0  0  0
  137.5789   71.5667  222.0300 H   0  0  0  0  0  0  0  0  0  0  0  0
  136.3430   69.8230  221.9690 C   0  0  0  0  0  0  0  0  0  0  0  0
  135.2860   69.6781  221.7011 H   0  0  0  0  0  0  0  0  0  0  0  0
  137.0380   69.6031  221.1452 H   0  0  0  0  0  0  0  0  0  0  0  0
  140.8600   72.8130  221.4120 C   0  0  0  0  0  0  0  0  0  0  0  0
  139.8450   73.6020  221.9750 C   0  0  0  0  0  0  0  0  0  0  0  0
  138.9614   73.1199  222.4187 H   0  0  0  0  0  0  0  0  0  0  0  0
  139.9460   74.9580  221.9760 N   0  0  0  0  0  0  0  0  0  0  0  0
  141.0160   75.5960  221.4340 C   0  0  0  0  0  0  0  0  0  0  0  0
  141.0720   76.6943  221.4587 H   0  0  0  0  0  0  0  0  0  0  0  0
  142.0440   74.8580  220.8460 C   0  0  0  0  0  0  0  0  0  0  0  0
  142.9090   75.3699  220.3990 H   0  0  0  0  0  0  0  0  0  0  0  0
  141.9650   73.4640  220.8300 C   0  0  0  0  0  0  0  0  0  0  0  0
  142.7667   72.8736  220.3623 H   0  0  0  0  0  0  0  0  0  0  0  0
  1  2  1  0
  2  3  2  0
  3  4  1  0
  3  5  1  0
  5  6  2  0
  6  7  1  0
  7  8  2  0
  8  9  1  0
  8 10  1  0
 10 11  1  0
 10 12  2  0
 12 13  1  0
 12 14  1  0
 14 15  1  0
 14 16  2  0
 16 17  1  0
 17 18  2  0
 17 19  1  0
 19 20  1  0
 20 21  1  0
 20 22  1  0
 20 23  1  0
 23 24  1  0
 23 25  1  0
 25 26  1  0
 25 27  1  0
 25 28  1  0
 28 29  1  0
 28 30  1  0
 28 31  1  0
 31 32  1  0
 31 33  1  0
 31 34  1  0
 34 35  1  0
 34 36  1  0
 34 37  1  0
 37 38  1  0
 37 39  1  0
  2 40  1  0
 40 41  2  0
 41 42  1  0
 41 43  1  0
 43 44  2  0
 44 45  1  0
 44 46  1  0
 46 47  1  0
 46 48  2  0
 48 49  1  0
 19  5  1  0
 37 23  1  0
 48 40  1  0
 16  7  1  0
M  END
>  <UniqueID>  (24) 
24

>  <SMILES>  (24) 
O=c1c2ccccc2nc(/C=C/c2cccnc2)n1CC1CCCCC1

>  <Energy>  (24) 
70.21899285290385

>  <Genealogy>  (24) 
O=c1c2ccccc2nc(/C=C/c2cccnc2)n1CC1CCCCC1 (cis-trans isomerization)
O=c1c2ccccc2nc(/C=C/c2cccnc2)n1CC1CCCCC1 (3D coordinates assigned)
O=c1c2ccccc2nc(/C=C/c2cccnc2)n1CC1CCCCC1 (nonaromatic ring conformer: 70.21899285290385 kcal/mol)

>  <smiles>  (24) 
O=c1c2ccccc2nc(/C=C/c2cccnc2)n1CC1CCCCC1

>  <score_type>  (24) 
oracle

>  <origin>  (24) 
autodockgpu

>  <m_score__min__energy>  (24) 
-7.3499999999999996

>  <m_primary>  (24) 
energy

>  <meeko>  (24) 
{"free_energy": -7.32, "intermolecular_energy": -8.81, "internal_energy": -1.81, "cluster_size": 19, "cluster_id": 1, "rank_in_cluster": 2}

>  <energy>  (24) 
-7.27

>  <cluster_rmsd>  (24) 
0.32

>  <rmsd>  (24) 
272.08

>  <cluster>  (24) 
1

$$$$
XUFANRSCLZKORJ-OUKQBFOZNA-N
     RDKit          3D

 49 52  0  0  0  0  0  0  0  0999 V2000
  139.1280   72.0580  220.7135 H   0  0  0  0  0  0  0  0  0  0  0  0
  139.8440   72.4440  221.4540 C   0  0  0  0  0  0  0  0  0  0  0  0
  140.6330   71.5650  222.0910 C   0  0  0  0  0  0  0  0  0  0  0  0
  141.5824   71.2612  221.6258 H   0  0  0  0  0  0  0  0  0  0  0  0
  140.2560   70.9920  223.4090 C   0  0  0  0  0  0  0  0  0  0  0  0
  140.6910   71.6490  224.5180 N   0  0  0  0  0  0  0  0  0  0  0  0
  140.4670   71.1850  225.7660 C   0  0  0  0  0  0  0  0  0  0  0  0
  140.9250   71.9060  226.8750 C   0  0  0  0  0  0  0  0  0  0  0  0
  141.4473   72.8633  226.7309 H   0  0  0  0  0  0  0  0  0  0  0  0
  140.7190   71.4100  228.1650 C   0  0  0  0  0  0  0  0  0  0  0  0
  141.0741   71.9800  229.0362 H   0  0  0  0  0  0  0  0  0  0  0  0
  140.0620   70.1900  228.3490 C   0  0  0  0  0  0  0  0  0  0  0  0
  139.9033   69.8000  229.3652 H   0  0  0  0  0  0  0  0  0  0  0  0
  139.6060   69.4640  227.2440 C   0  0  0  0  0  0  0  0  0  0  0  0
  139.0920   68.5029  227.3926 H   0  0  0  0  0  0  0  0  0  0  0  0
  139.8040   69.9620  225.9400 C   0  0  0  0  0  0  0  0  0  0  0  0
  139.3590   69.2780  224.7970 C   0  0  0  0  0  0  0  0  0  0  0  0
  138.8250   68.1420  224.9360 O   0  0  0  0  0  0  0  0  0  0  0  0
  139.5170   69.8290  223.5410 N   0  0  0  0  0  0  0  0  0  0  0  0
  138.9090   69.1440  222.3690 C   0  0  0  0  0  0  0  0  0  0  0  0
  139.4871   69.4202  221.4748 H   0  0  0  0  0  0  0  0  0  0  0  0
  138.9383   68.0675  222.5933 H   0  0  0  0  0  0  0  0  0  0  0  0
  137.4120   69.4930  222.1040 C   0  0  0  0  0  0  0  0  0  0  0  0
  137.3254   69.3721  221.0141 H   0  0  0  0  0  0  0  0  0  0  0  0
  136.3980   68.4810  222.7160 C   0  0  0  0  0  0  0  0  0  0  0  0
  135.8397   68.0117  221.8926 H   0  0  0  0  0  0  0  0  0  0  0  0
  136.9869   67.7576  223.2991 H   0  0  0  0  0  0  0  0  0  0  0  0
  135.3870   69.1100  223.6860 C   0  0  0  0  0  0  0  0  0  0  0  0
  134.6035   69.6215  223.1076 H   0  0  0  0  0  0  0  0  0  0  0  0
  134.9500   68.3117  224.3038 H   0  0  0  0  0  0  0  0  0  0  0  0
  136.0680   70.1190  224.6050 C   0  0  0  0  0  0  0  0  0  0  0  0
  135.3325   70.4930  225.3325 H   0  0  0  0  0  0  0  0  0  0  0  0
  136.9014   69.6135  225.1148 H   0  0  0  0  0  0  0  0  0  0  0  0
  136.6370   71.3080  223.8140 C   0  0  0  0  0  0  0  0  0  0  0  0
  135.8784   72.1044  223.7945 H   0  0  0  0  0  0  0  0  0  0  0  0
  137.5622   71.6140  224.3242 H   0  0  0  0  0  0  0  0  0  0  0  0
  137.0230   70.9710  222.3580 C   0  0  0  0  0  0  0  0  0  0  0  0
  136.1647   71.2125  221.7138 H   0  0  0  0  0  0  0  0  0  0  0  0
  137.9210   71.5657  222.1348 H   0  0  0  0  0  0  0  0  0  0  0  0
  139.8840   73.9060  221.6930 C   0  0  0  0  0  0  0  0  0  0  0  0
  138.6920   74.5780  222.0050 C   0  0  0  0  0  0  0  0  0  0  0  0
  137.7511   74.0133  222.0810 H   0  0  0  0  0  0  0  0  0  0  0  0
  138.6910   75.9210  222.2140 N   0  0  0  0  0  0  0  0  0  0  0  0
  139.8280   76.6600  222.1240 C   0  0  0  0  0  0  0  0  0  0  0  0
  139.7954   77.7441  222.3072 H   0  0  0  0  0  0  0  0  0  0  0  0
  141.0370   76.0430  221.7990 C   0  0  0  0  0  0  0  0  0  0  0  0
  141.9590   76.6374  221.7177 H   0  0  0  0  0  0  0  0  0  0  0  0
  141.0660   74.6650  221.5780 C   0  0  0  0  0  0  0  0  0  0  0  0
  142.0126   74.1709  221.3138 H   0  0  0  0  0  0  0  0  0  0  0  0
  1  2  1  0
  2  3  2  0
  3  4  1  0
  3  5  1  0
  5  6  2  0
  6  7  1  0
  7  8  2  0
  8  9  1  0
  8 10  1  0
 10 11  1  0
 10 12  2  0
 12 13  1  0
 12 14  1  0
 14 15  1  0
 14 16  2  0
 16 17  1  0
 17 18  2  0
 17 19  1  0
 19 20  1  0
 20 21  1  0
 20 22  1  0
 20 23  1  0
 23 24  1  0
 23 25  1  0
 25 26  1  0
 25 27  1  0
 25 28  1  0
 28 29  1  0
 28 30  1  0
 28 31  1  0
 31 32  1  0
 31 33  1  0
 31 34  1  0
 34 35  1  0
 34 36  1  0
 34 37  1  0
 37 38  1  0
 37 39  1  0
  2 40  1  0
 40 41  2  0
 41 42  1  0
 41 43  1  0
 43 44  2  0
 44 45  1  0
 44 46  1  0
 46 47  1  0
 46 48  2  0
 48 49  1  0
 19  5  1  0
 37 23  1  0
 48 40  1  0
 16  7  1  0
M  END
>  <UniqueID>  (25) 
24

>  <SMILES>  (25) 
O=c1c2ccccc2nc(/C=C/c2cccnc2)n1CC1CCCCC1

>  <Energy>  (25) 
70.21899285290385

>  <Genealogy>  (25) 
O=c1c2ccccc2nc(/C=C/c2cccnc2)n1CC1CCCCC1 (cis-trans isomerization)
O=c1c2ccccc2nc(/C=C/c2cccnc2)n1CC1CCCCC1 (3D coordinates assigned)
O=c1c2ccccc2nc(/C=C/c2cccnc2)n1CC1CCCCC1 (nonaromatic ring conformer: 70.21899285290385 kcal/mol)

>  <smiles>  (25) 
O=c1c2ccccc2nc(/C=C/c2cccnc2)n1CC1CCCCC1

>  <score_type>  (25) 
oracle

>  <origin>  (25) 
autodockgpu

>  <m_score__min__energy>  (25) 
-7.3499999999999996

>  <m_primary>  (25) 
energy

>  <meeko>  (25) 
{"free_energy": -6.93, "intermolecular_energy": -8.42, "internal_energy": -1.88, "cluster_size": 19, "cluster_id": 1, "rank_in_cluster": 18}

>  <energy>  (25) 
-7.27

>  <cluster_rmsd>  (25) 
0.28

>  <rmsd>  (25) 
272.14

>  <cluster>  (25) 
1

$$$$
XUFANRSCLZKORJ-OUKQBFOZNA-N
     RDKit          3D

 49 52  0  0  0  0  0  0  0  0999 V2000
  141.8427   72.1157  221.4244 H   0  0  0  0  0  0  0  0  0  0  0  0
  140.7940   72.2850  221.7100 C   0  0  0  0  0  0  0  0  0  0  0  0
  140.0390   71.2170  222.0130 C   0  0  0  0  0  0  0  0  0  0  0  0
  139.4895   70.7029  221.2106 H   0  0  0  0  0  0  0  0  0  0  0  0
  139.9280   70.7130  223.4060 C   0  0  0  0  0  0  0  0  0  0  0  0
  140.4600   71.4860  224.3900 N   0  0  0  0  0  0  0  0  0  0  0  0
  140.4780   71.0970  225.6840 C   0  0  0  0  0  0  0  0  0  0  0  0
  141.0270   71.9360  226.6600 C   0  0  0  0  0  0  0  0  0  0  0  0
  141.4231   72.9226  226.3778 H   0  0  0  0  0  0  0  0  0  0  0  0
  141.0720   71.5200  227.9940 C   0  0  0  0  0  0  0  0  0  0  0  0
  141.4988   72.1817  228.7621 H   0  0  0  0  0  0  0  0  0  0  0  0
  140.5750   70.2640  228.3520 C   0  0  0  0  0  0  0  0  0  0  0  0
  140.6133   69.9376  229.4018 H   0  0  0  0  0  0  0  0  0  0  0  0
  140.0290   69.4210  227.3790 C   0  0  0  0  0  0  0  0  0  0  0  0
  139.6419   68.4316  227.6641 H   0  0  0  0  0  0  0  0  0  0  0  0
  139.9740   69.8370  226.0340 C   0  0  0  0  0  0  0  0  0  0  0  0
  139.4280   69.0330  225.0190 C   0  0  0  0  0  0  0  0  0  0  0  0
  139.0370   67.8680  225.3080 O   0  0  0  0  0  0  0  0  0  0  0  0
  139.3360   69.5010  223.7240 N   0  0  0  0  0  0  0  0  0  0  0  0
  138.6260   68.6810  222.7060 C   0  0  0  0  0  0  0  0  0  0  0  0
  139.0995   68.8636  221.7301 H   0  0  0  0  0  0  0  0  0  0  0  0
  138.7064   67.6366  223.0419 H   0  0  0  0  0  0  0  0  0  0  0  0
  137.1010   68.9780  222.5670 C   0  0  0  0  0  0  0  0  0  0  0  0
  136.7335   68.0958  222.0224 H   0  0  0  0  0  0  0  0  0  0  0  0
  136.3220   68.9880  223.9160 C   0  0  0  0  0  0  0  0  0  0  0  0
  135.5829   68.1736  223.8931 H   0  0  0  0  0  0  0  0  0  0  0  0
  137.0701   68.8639  224.7129 H   0  0  0  0  0  0  0  0  0  0  0  0
  135.5820   70.3010  224.2080 C   0  0  0  0  0  0  0  0  0  0  0  0
  134.6551   70.3313  223.6164 H   0  0  0  0  0  0  0  0  0  0  0  0
  135.3531   70.3439  225.2830 H   0  0  0  0  0  0  0  0  0  0  0  0
  136.4460   71.5050  223.8450 C   0  0  0  0  0  0  0  0  0  0  0  0
  135.9166   72.4247  224.1347 H   0  0  0  0  0  0  0  0  0  0  0  0
  137.4022   71.4168  224.3816 H   0  0  0  0  0  0  0  0  0  0  0  0
  136.7430   71.5540  222.3380 C   0  0  0  0  0  0  0  0  0  0  0  0
  135.9794   72.1820  221.8558 H   0  0  0  0  0  0  0  0  0  0  0  0
  137.7591   71.9607  222.2283 H   0  0  0  0  0  0  0  0  0  0  0  0
  136.7400   70.1720  221.6490 C   0  0  0  0  0  0  0  0  0  0  0  0
  135.7332   69.9965  221.2422 H   0  0  0  0  0  0  0  0  0  0  0  0
  137.5237   70.2129  220.8782 H   0  0  0  0  0  0  0  0  0  0  0  0
  140.2930   73.6790  221.7390 C   0  0  0  0  0  0  0  0  0  0  0  0
  141.2060   74.7340  221.5840 C   0  0  0  0  0  0  0  0  0  0  0  0
  142.2729   74.5147  221.4307 H   0  0  0  0  0  0  0  0  0  0  0  0
  140.7810   76.0250  221.6220 N   0  0  0  0  0  0  0  0  0  0  0  0
  139.4740   76.3430  221.8170 C   0  0  0  0  0  0  0  0  0  0  0  0
  139.1613   77.3975  221.8353 H   0  0  0  0  0  0  0  0  0  0  0  0
  138.5290   75.3320  221.9940 C   0  0  0  0  0  0  0  0  0  0  0  0
  137.4711   75.5841  222.1589 H   0  0  0  0  0  0  0  0  0  0  0  0
  138.9380   73.9970  221.9600 C   0  0  0  0  0  0  0  0  0  0  0  0
  138.2017   73.1929  222.1059 H   0  0  0  0  0  0  0  0  0  0  0  0
  1  2  1  0
  2  3  2  0
  3  4  1  0
  3  5  1  0
  5  6  2  0
  6  7  1  0
  7  8  2  0
  8  9  1  0
  8 10  1  0
 10 11  1  0
 10 12  2  0
 12 13  1  0
 12 14  1  0
 14 15  1  0
 14 16  2  0
 16 17  1  0
 17 18  2  0
 17 19  1  0
 19 20  1  0
 20 21  1  0
 20 22  1  0
 20 23  1  0
 23 24  1  0
 23 25  1  0
 25 26  1  0
 25 27  1  0
 25 28  1  0
 28 29  1  0
 28 30  1  0
 28 31  1  0
 31 32  1  0
 31 33  1  0
 31 34  1  0
 34 35  1  0
 34 36  1  0
 34 37  1  0
 37 38  1  0
 37 39  1  0
  2 40  1  0
 40 41  2  0
 41 42  1  0
 41 43  1  0
 43 44  2  0
 44 45  1  0
 44 46  1  0
 46 47  1  0
 46 48  2  0
 48 49  1  0
 19  5  1  0
 37 23  1  0
 48 40  1  0
 16  7  1  0
M  END
>  <UniqueID>  (26) 
24

>  <SMILES>  (26) 
O=c1c2ccccc2nc(/C=C/c2cccnc2)n1CC1CCCCC1

>  <Energy>  (26) 
70.21899285290385

>  <Genealogy>  (26) 
O=c1c2ccccc2nc(/C=C/c2cccnc2)n1CC1CCCCC1 (cis-trans isomerization)
O=c1c2ccccc2nc(/C=C/c2cccnc2)n1CC1CCCCC1 (3D coordinates assigned)
O=c1c2ccccc2nc(/C=C/c2cccnc2)n1CC1CCCCC1 (nonaromatic ring conformer: 70.21899285290385 kcal/mol)

>  <smiles>  (26) 
O=c1c2ccccc2nc(/C=C/c2cccnc2)n1CC1CCCCC1

>  <score_type>  (26) 
oracle

>  <origin>  (26) 
autodockgpu

>  <m_score__min__energy>  (26) 
-7.3499999999999996

>  <m_primary>  (26) 
energy

>  <meeko>  (26) 
{"free_energy": -6.94, "intermolecular_energy": -8.43, "internal_energy": -1.91, "cluster_size": 19, "cluster_id": 1, "rank_in_cluster": 16}

>  <energy>  (26) 
-7.22

>  <cluster_rmsd>  (26) 
0.32

>  <rmsd>  (26) 
272.17

>  <cluster>  (26) 
1

$$$$
XUFANRSCLZKORJ-OUKQBFOZNA-N
     RDKit          3D

 49 52  0  0  0  0  0  0  0  0999 V2000
  141.5311   71.0624  220.9149 H   0  0  0  0  0  0  0  0  0  0  0  0
  140.7060   71.5350  221.4680 C   0  0  0  0  0  0  0  0  0  0  0  0
  139.7610   70.7420  221.9970 C   0  0  0  0  0  0  0  0  0  0  0  0
  138.9819   70.3249  221.3420 H   0  0  0  0  0  0  0  0  0  0  0  0
  139.7420   70.4140  223.4460 C   0  0  0  0  0  0  0  0  0  0  0  0
  140.4220   71.2470  224.2790 N   0  0  0  0  0  0  0  0  0  0  0  0
  140.5300   71.0120  225.6050 C   0  0  0  0  0  0  0  0  0  0  0  0
  141.2300   71.9080  226.4210 C   0  0  0  0  0  0  0  0  0  0  0  0
  141.6717   72.8171  225.9869 H   0  0  0  0  0  0  0  0  0  0  0  0
  141.3680   71.6480  227.7870 C   0  0  0  0  0  0  0  0  0  0  0  0
  141.9134   72.3554  228.4290 H   0  0  0  0  0  0  0  0  0  0  0  0
  140.8130   70.4890  228.3380 C   0  0  0  0  0  0  0  0  0  0  0  0
  140.9250   70.2847  229.4130 H   0  0  0  0  0  0  0  0  0  0  0  0
  140.1160   69.5890  227.5260 C   0  0  0  0  0  0  0  0  0  0  0  0
  139.6833   68.6768  227.9627 H   0  0  0  0  0  0  0  0  0  0  0  0
  139.9670   69.8490  226.1480 C   0  0  0  0  0  0  0  0  0  0  0  0
  139.2700   68.9830  225.2900 C   0  0  0  0  0  0  0  0  0  0  0  0
  138.8200   67.8980  225.7530 O   0  0  0  0  0  0  0  0  0  0  0  0
  139.0940   69.3040  223.9590 N   0  0  0  0  0  0  0  0  0  0  0  0
  138.2310   68.4350  223.1130 C   0  0  0  0  0  0  0  0  0  0  0  0
  138.6426   68.4350  222.0929 H   0  0  0  0  0  0  0  0  0  0  0  0
  138.2367   67.4422  223.5866 H   0  0  0  0  0  0  0  0  0  0  0  0
  136.7350   68.8700  223.0310 C   0  0  0  0  0  0  0  0  0  0  0  0
  136.2321   67.9434  222.7171 H   0  0  0  0  0  0  0  0  0  0  0  0
  136.0980   69.2440  224.4020 C   0  0  0  0  0  0  0  0  0  0  0  0
  135.2849   68.5329  224.6097 H   0  0  0  0  0  0  0  0  0  0  0  0
  136.9055   69.1991  225.1476 H   0  0  0  0  0  0  0  0  0  0  0  0
  135.5210   70.6660  224.4630 C   0  0  0  0  0  0  0  0  0  0  0  0
  134.5470   70.6816  223.9519 H   0  0  0  0  0  0  0  0  0  0  0  0
  135.4060   70.9533  225.5186 H   0  0  0  0  0  0  0  0  0  0  0  0
  136.4560   71.6630  223.7860 C   0  0  0  0  0  0  0  0  0  0  0  0
  136.0487   72.6770  223.9124 H   0  0  0  0  0  0  0  0  0  0  0  0
  137.4479   71.5771  224.2538 H   0  0  0  0  0  0  0  0  0  0  0  0
  136.6050   71.3690  222.2860 C   0  0  0  0  0  0  0  0  0  0  0  0
  135.8606   71.9681  221.7411 H   0  0  0  0  0  0  0  0  0  0  0  0
  137.6394   71.6260  222.0141 H   0  0  0  0  0  0  0  0  0  0  0  0
  136.4020   69.8850  221.9100 C   0  0  0  0  0  0  0  0  0  0  0  0
  135.3479   69.7465  221.6275 H   0  0  0  0  0  0  0  0  0  0  0  0
  137.1068   69.6781  221.0912 H   0  0  0  0  0  0  0  0  0  0  0  0
  140.6990   73.0120  221.5880 C   0  0  0  0  0  0  0  0  0  0  0  0
  139.6150   73.6380  222.2230 C   0  0  0  0  0  0  0  0  0  0  0  0
  138.7955   73.0288  222.6321 H   0  0  0  0  0  0  0  0  0  0  0  0
  139.5710   74.9930  222.3360 N   0  0  0  0  0  0  0  0  0  0  0  0
  140.5560   75.7850  221.8390 C   0  0  0  0  0  0  0  0  0  0  0  0
  140.4939   76.8773  221.9535 H   0  0  0  0  0  0  0  0  0  0  0  0
  141.6470   75.2130  221.1830 C   0  0  0  0  0  0  0  0  0  0  0  0
  142.4441   75.8504  220.7727 H   0  0  0  0  0  0  0  0  0  0  0  0
  141.7180   73.8250  221.0520 C   0  0  0  0  0  0  0  0  0  0  0  0
  142.5701   73.3653  220.5299 H   0  0  0  0  0  0  0  0  0  0  0  0
  1  2  1  0
  2  3  2  0
  3  4  1  0
  3  5  1  0
  5  6  2  0
  6  7  1  0
  7  8  2  0
  8  9  1  0
  8 10  1  0
 10 11  1  0
 10 12  2  0
 12 13  1  0
 12 14  1  0
 14 15  1  0
 14 16  2  0
 16 17  1  0
 17 18  2  0
 17 19  1  0
 19 20  1  0
 20 21  1  0
 20 22  1  0
 20 23  1  0
 23 24  1  0
 23 25  1  0
 25 26  1  0
 25 27  1  0
 25 28  1  0
 28 29  1  0
 28 30  1  0
 28 31  1  0
 31 32  1  0
 31 33  1  0
 31 34  1  0
 34 35  1  0
 34 36  1  0
 34 37  1  0
 37 38  1  0
 37 39  1  0
  2 40  1  0
 40 41  2  0
 41 42  1  0
 41 43  1  0
 43 44  2  0
 44 45  1  0
 44 46  1  0
 46 47  1  0
 46 48  2  0
 48 49  1  0
 19  5  1  0
 37 23  1  0
 48 40  1  0
 16  7  1  0
M  END
>  <UniqueID>  (27) 
24

>  <SMILES>  (27) 
O=c1c2ccccc2nc(/C=C/c2cccnc2)n1CC1CCCCC1

>  <Energy>  (27) 
70.21899285290385

>  <Genealogy>  (27) 
O=c1c2ccccc2nc(/C=C/c2cccnc2)n1CC1CCCCC1 (cis-trans isomerization)
O=c1c2ccccc2nc(/C=C/c2cccnc2)n1CC1CCCCC1 (3D coordinates assigned)
O=c1c2ccccc2nc(/C=C/c2cccnc2)n1CC1CCCCC1 (nonaromatic ring conformer: 70.21899285290385 kcal/mol)

>  <smiles>  (27) 
O=c1c2ccccc2nc(/C=C/c2cccnc2)n1CC1CCCCC1

>  <score_type>  (27) 
oracle

>  <origin>  (27) 
autodockgpu

>  <m_score__min__energy>  (27) 
-7.3499999999999996

>  <m_primary>  (27) 
energy

>  <meeko>  (27) 
{"free_energy": -7.27, "intermolecular_energy": -8.76, "internal_energy": -1.87, "cluster_size": 19, "cluster_id": 1, "rank_in_cluster": 5}

>  <energy>  (27) 
-7.14

>  <cluster_rmsd>  (27) 
0.71

>  <rmsd>  (27) 
272.18

>  <cluster>  (27) 
1

$$$$
XUFANRSCLZKORJ-OUKQBFOZNA-N
     RDKit          3D

 49 52  0  0  0  0  0  0  0  0999 V2000
  138.4847   71.7395  220.7554 H   0  0  0  0  0  0  0  0  0  0  0  0
  139.3040   72.0530  221.4190 C   0  0  0  0  0  0  0  0  0  0  0  0
  140.0920   71.1030  221.9460 C   0  0  0  0  0  0  0  0  0  0  0  0
  140.8756   70.6488  221.3218 H   0  0  0  0  0  0  0  0  0  0  0  0
  139.9320   70.6500  223.3510 C   0  0  0  0  0  0  0  0  0  0  0  0
  140.5030   71.4160  224.3190 N   0  0  0  0  0  0  0  0  0  0  0  0
  140.4800   71.0670  225.6240 C   0  0  0  0  0  0  0  0  0  0  0  0
  141.0720   71.8970  226.5820 C   0  0  0  0  0  0  0  0  0  0  0  0
  141.5353   72.8466  226.2759 H   0  0  0  0  0  0  0  0  0  0  0  0
  141.0750   71.5200  227.9280 C   0  0  0  0  0  0  0  0  0  0  0  0
  141.5365   72.1753  228.6814 H   0  0  0  0  0  0  0  0  0  0  0  0
  140.4920   70.3110  228.3170 C   0  0  0  0  0  0  0  0  0  0  0  0
  140.4970   70.0152  229.3765 H   0  0  0  0  0  0  0  0  0  0  0  0
  139.9020   69.4760  227.3620 C   0  0  0  0  0  0  0  0  0  0  0  0
  139.4469   68.5234  227.6712 H   0  0  0  0  0  0  0  0  0  0  0  0
  139.8900   69.8540  226.0040 C   0  0  0  0  0  0  0  0  0  0  0  0
  139.3040   69.0570  225.0070 C   0  0  0  0  0  0  0  0  0  0  0  0
  138.8330   67.9300  225.3260 O   0  0  0  0  0  0  0  0  0  0  0  0
  139.2580   69.4900  223.6970 N   0  0  0  0  0  0  0  0  0  0  0  0
  138.5070   68.6880  222.6950 C   0  0  0  0  0  0  0  0  0  0  0  0
  139.0943   68.6676  221.7651 H   0  0  0  0  0  0  0  0  0  0  0  0
  138.3630   67.6939  223.1433 H   0  0  0  0  0  0  0  0  0  0  0  0
  137.0810   69.2230  222.3550 C   0  0  0  0  0  0  0  0  0  0  0  0
  137.0951   69.2662  221.2559 H   0  0  0  0  0  0  0  0  0  0  0  0
  135.9240   68.2450  222.7150 C   0  0  0  0  0  0  0  0  0  0  0  0
  135.4134   67.9574  221.7841 H   0  0  0  0  0  0  0  0  0  0  0  0
  136.3832   67.3893  223.2317 H   0  0  0  0  0  0  0  0  0  0  0  0
  134.8790   68.8310  223.6760 C   0  0  0  0  0  0  0  0  0  0  0  0
  134.2070   69.4967  223.1145 H   0  0  0  0  0  0  0  0  0  0  0  0
  134.3125   68.0023  224.1258 H   0  0  0  0  0  0  0  0  0  0  0  0
  135.5490   69.6250  224.7930 C   0  0  0  0  0  0  0  0  0  0  0  0
  134.7787   69.9666  225.5000 H   0  0  0  0  0  0  0  0  0  0  0  0
  136.2771   68.9693  225.2929 H   0  0  0  0  0  0  0  0  0  0  0  0
  136.3000   70.8480  224.2440 C   0  0  0  0  0  0  0  0  0  0  0  0
  135.6218   71.7134  224.2778 H   0  0  0  0  0  0  0  0  0  0  0  0
  137.1916   70.9813  224.8743 H   0  0  0  0  0  0  0  0  0  0  0  0
  136.8020   70.6820  222.7930 C   0  0  0  0  0  0  0  0  0  0  0  0
  136.0395   71.0998  222.1192 H   0  0  0  0  0  0  0  0  0  0  0  0
  137.7678   71.2061  222.7421 H   0  0  0  0  0  0  0  0  0  0  0  0
  139.4770   73.5020  221.6820 C   0  0  0  0  0  0  0  0  0  0  0  0
  140.7730   74.0400  221.7050 C   0  0  0  0  0  0  0  0  0  0  0  0
  141.6385   73.3881  221.5154 H   0  0  0  0  0  0  0  0  0  0  0  0
  140.9660   75.3610  221.9600 N   0  0  0  0  0  0  0  0  0  0  0  0
  139.9280   76.2020  222.2070 C   0  0  0  0  0  0  0  0  0  0  0  0
  140.1177   77.2678  222.4021 H   0  0  0  0  0  0  0  0  0  0  0  0
  138.6210   75.7130  222.2130 C   0  0  0  0  0  0  0  0  0  0  0  0
  137.7773   76.3882  222.4186 H   0  0  0  0  0  0  0  0  0  0  0  0
  138.3930   74.3600  221.9560 C   0  0  0  0  0  0  0  0  0  0  0  0
  137.3670   73.9634  221.9673 H   0  0  0  0  0  0  0  0  0  0  0  0
  1  2  1  0
  2  3  2  0
  3  4  1  0
  3  5  1  0
  5  6  2  0
  6  7  1  0
  7  8  2  0
  8  9  1  0
  8 10  1  0
 10 11  1  0
 10 12  2  0
 12 13  1  0
 12 14  1  0
 14 15  1  0
 14 16  2  0
 16 17  1  0
 17 18  2  0
 17 19  1  0
 19 20  1  0
 20 21  1  0
 20 22  1  0
 20 23  1  0
 23 24  1  0
 23 25  1  0
 25 26  1  0
 25 27  1  0
 25 28  1  0
 28 29  1  0
 28 30  1  0
 28 31  1  0
 31 32  1  0
 31 33  1  0
 31 34  1  0
 34 35  1  0
 34 36  1  0
 34 37  1  0
 37 38  1  0
 37 39  1  0
  2 40  1  0
 40 41  2  0
 41 42  1  0
 41 43  1  0
 43 44  2  0
 44 45  1  0
 44 46  1  0
 46 47  1  0
 46 48  2  0
 48 49  1  0
 19  5  1  0
 37 23  1  0
 48 40  1  0
 16  7  1  0
M  END
>  <UniqueID>  (28) 
24

>  <SMILES>  (28) 
O=c1c2ccccc2nc(/C=C/c2cccnc2)n1CC1CCCCC1

>  <Energy>  (28) 
70.21899285290385

>  <Genealogy>  (28) 
O=c1c2ccccc2nc(/C=C/c2cccnc2)n1CC1CCCCC1 (cis-trans isomerization)
O=c1c2ccccc2nc(/C=C/c2cccnc2)n1CC1CCCCC1 (3D coordinates assigned)
O=c1c2ccccc2nc(/C=C/c2cccnc2)n1CC1CCCCC1 (nonaromatic ring conformer: 70.21899285290385 kcal/mol)

>  <smiles>  (28) 
O=c1c2ccccc2nc(/C=C/c2cccnc2)n1CC1CCCCC1

>  <score_type>  (28) 
oracle

>  <origin>  (28) 
autodockgpu

>  <m_score__min__energy>  (28) 
-7.3499999999999996

>  <m_primary>  (28) 
energy

>  <meeko>  (28) 
{"free_energy": -7.08, "intermolecular_energy": -8.57, "internal_energy": -1.76, "cluster_size": 19, "cluster_id": 1, "rank_in_cluster": 9}

>  <energy>  (28) 
-7.12

>  <cluster_rmsd>  (28) 
1.34

>  <rmsd>  (28) 
272.26

>  <cluster>  (28) 
1

$$$$
XUFANRSCLZKORJ-OUKQBFOZNA-N
     RDKit          3D

 49 52  0  0  0  0  0  0  0  0999 V2000
  138.8667   72.0896  220.7879 H   0  0  0  0  0  0  0  0  0  0  0  0
  139.6630   72.4400  221.4610 C   0  0  0  0  0  0  0  0  0  0  0  0
  140.4600   71.5230  222.0310 C   0  0  0  0  0  0  0  0  0  0  0  0
  141.3472   71.1694  221.4853 H   0  0  0  0  0  0  0  0  0  0  0  0
  140.1730   70.9740  223.3810 C   0  0  0  0  0  0  0  0  0  0  0  0
  140.6690   71.6560  224.4480 N   0  0  0  0  0  0  0  0  0  0  0  0
  140.5290   71.2150  225.7170 C   0  0  0  0  0  0  0  0  0  0  0  0
  141.0480   71.9620  226.7800 C   0  0  0  0  0  0  0  0  0  0  0  0
  141.5499   72.9211  226.5846 H   0  0  0  0  0  0  0  0  0  0  0  0
  140.9290   71.4900  228.0900 C   0  0  0  0  0  0  0  0  0  0  0  0
  141.3311   72.0809  228.9261 H   0  0  0  0  0  0  0  0  0  0  0  0
  140.2990   70.2670  228.3380 C   0  0  0  0  0  0  0  0  0  0  0  0
  140.2100   69.8949  229.3693 H   0  0  0  0  0  0  0  0  0  0  0  0
  139.7820   69.5160  227.2790 C   0  0  0  0  0  0  0  0  0  0  0  0
  139.2884   68.5534  227.4781 H   0  0  0  0  0  0  0  0  0  0  0  0
  139.8920   69.9900  225.9560 C   0  0  0  0  0  0  0  0  0  0  0  0
  139.3830   69.2790  224.8570 C   0  0  0  0  0  0  0  0  0  0  0  0
  138.8710   68.1410  225.0500 O   0  0  0  0  0  0  0  0  0  0  0  0
  139.4560   69.8060  223.5830 N   0  0  0  0  0  0  0  0  0  0  0  0
  138.7820   69.0930  222.4640 C   0  0  0  0  0  0  0  0  0  0  0  0
  139.2488   69.4177  221.5224 H   0  0  0  0  0  0  0  0  0  0  0  0
  138.9057   68.0188  222.6658 H   0  0  0  0  0  0  0  0  0  0  0  0
  137.2460   69.3410  222.3530 C   0  0  0  0  0  0  0  0  0  0  0  0
  136.9382   68.6068  221.5939 H   0  0  0  0  0  0  0  0  0  0  0  0
  136.4410   68.9750  223.6350 C   0  0  0  0  0  0  0  0  0  0  0  0
  135.7478   68.1582  223.3852 H   0  0  0  0  0  0  0  0  0  0  0  0
  137.1786   68.6905  224.3999 H   0  0  0  0  0  0  0  0  0  0  0  0
  135.6250   70.1360  224.2210 C   0  0  0  0  0  0  0  0  0  0  0  0
  134.7102   70.2701  223.6250 H   0  0  0  0  0  0  0  0  0  0  0  0
  135.3723   69.8963  225.2644 H   0  0  0  0  0  0  0  0  0  0  0  0
  136.4290   71.4320  224.2000 C   0  0  0  0  0  0  0  0  0  0  0  0
  135.8448   72.2229  224.6931 H   0  0  0  0  0  0  0  0  0  0  0  0
  137.3777   71.2579  224.7289 H   0  0  0  0  0  0  0  0  0  0  0  0
  136.7520   71.8720  222.7630 C   0  0  0  0  0  0  0  0  0  0  0  0
  135.9642   72.5628  222.4281 H   0  0  0  0  0  0  0  0  0  0  0  0
  137.7461   72.3421  222.7915 H   0  0  0  0  0  0  0  0  0  0  0  0
  136.8390   70.7090  221.7510 C   0  0  0  0  0  0  0  0  0  0  0  0
  135.8519   70.5934  221.2796 H   0  0  0  0  0  0  0  0  0  0  0  0
  137.6351   70.9799  221.0419 H   0  0  0  0  0  0  0  0  0  0  0  0
  139.7960   73.8990  221.6880 C   0  0  0  0  0  0  0  0  0  0  0  0
  138.6490   74.6480  221.9940 C   0  0  0  0  0  0  0  0  0  0  0  0
  137.6739   74.1454  222.0749 H   0  0  0  0  0  0  0  0  0  0  0  0
  138.7350   75.9900  222.1910 N   0  0  0  0  0  0  0  0  0  0  0  0
  139.9160   76.6540  222.0950 C   0  0  0  0  0  0  0  0  0  0  0  0
  139.9524   77.7396  222.2687 H   0  0  0  0  0  0  0  0  0  0  0  0
  141.0830   75.9590  221.7760 C   0  0  0  0  0  0  0  0  0  0  0  0
  142.0409   76.4929  221.6900 H   0  0  0  0  0  0  0  0  0  0  0  0
  141.0240   74.5800  221.5670 C   0  0  0  0  0  0  0  0  0  0  0  0
  141.9371   74.0242  221.3075 H   0  0  0  0  0  0  0  0  0  0  0  0
  1  2  1  0
  2  3  2  0
  3  4  1  0
  3  5  1  0
  5  6  2  0
  6  7  1  0
  7  8  2  0
  8  9  1  0
  8 10  1  0
 10 11  1  0
 10 12  2  0
 12 13  1  0
 12 14  1  0
 14 15  1  0
 14 16  2  0
 16 17  1  0
 17 18  2  0
 17 19  1  0
 19 20  1  0
 20 21  1  0
 20 22  1  0
 20 23  1  0
 23 24  1  0
 23 25  1  0
 25 26  1  0
 25 27  1  0
 25 28  1  0
 28 29  1  0
 28 30  1  0
 28 31  1  0
 31 32  1  0
 31 33  1  0
 31 34  1  0
 34 35  1  0
 34 36  1  0
 34 37  1  0
 37 38  1  0
 37 39  1  0
  2 40  1  0
 40 41  2  0
 41 42  1  0
 41 43  1  0
 43 44  2  0
 44 45  1  0
 44 46  1  0
 46 47  1  0
 46 48  2  0
 48 49  1  0
 19  5  1  0
 37 23  1  0
 48 40  1  0
 16  7  1  0
M  END
>  <UniqueID>  (29) 
24

>  <SMILES>  (29) 
O=c1c2ccccc2nc(/C=C/c2cccnc2)n1CC1CCCCC1

>  <Energy>  (29) 
70.21899285290385

>  <Genealogy>  (29) 
O=c1c2ccccc2nc(/C=C/c2cccnc2)n1CC1CCCCC1 (cis-trans isomerization)
O=c1c2ccccc2nc(/C=C/c2cccnc2)n1CC1CCCCC1 (3D coordinates assigned)
O=c1c2ccccc2nc(/C=C/c2cccnc2)n1CC1CCCCC1 (nonaromatic ring conformer: 70.21899285290385 kcal/mol)

>  <smiles>  (29) 
O=c1c2ccccc2nc(/C=C/c2cccnc2)n1CC1CCCCC1

>  <score_type>  (29) 
oracle

>  <origin>  (29) 
autodockgpu

>  <m_score__min__energy>  (29) 
-7.3499999999999996

>  <m_primary>  (29) 
energy

>  <meeko>  (29) 
{"free_energy": -6.87, "intermolecular_energy": -8.36, "internal_energy": -1.89, "cluster_size": 19, "cluster_id": 1, "rank_in_cluster": 19}

>  <energy>  (29) 
-7.08

>  <cluster_rmsd>  (29) 
0.96

>  <rmsd>  (29) 
272.0

>  <cluster>  (29) 
1

$$$$
XUFANRSCLZKORJ-OUKQBFOZNA-N
     RDKit          3D

 49 52  0  0  0  0  0  0  0  0999 V2000
  141.2470   71.5597  221.0062 H   0  0  0  0  0  0  0  0  0  0  0  0
  140.3300   71.8160  221.5570 C   0  0  0  0  0  0  0  0  0  0  0  0
  139.5830   70.8140  222.0450 C   0  0  0  0  0  0  0  0  0  0  0  0
  138.9289   70.2508  221.3631 H   0  0  0  0  0  0  0  0  0  0  0  0
  139.6180   70.4470  223.4840 C   0  0  0  0  0  0  0  0  0  0  0  0
  140.3040   71.2740  224.3190 N   0  0  0  0  0  0  0  0  0  0  0  0
  140.4600   71.0060  225.6340 C   0  0  0  0  0  0  0  0  0  0  0  0
  141.1650   71.8960  226.4520 C   0  0  0  0  0  0  0  0  0  0  0  0
  141.5720   72.8265  226.0295 H   0  0  0  0  0  0  0  0  0  0  0  0
  141.3520   71.6030  227.8050 C   0  0  0  0  0  0  0  0  0  0  0  0
  141.9012   72.3058  228.4488 H   0  0  0  0  0  0  0  0  0  0  0  0
  140.8420   70.4180  228.3410 C   0  0  0  0  0  0  0  0  0  0  0  0
  140.9929   70.1882  229.4061 H   0  0  0  0  0  0  0  0  0  0  0  0
  140.1400   69.5230  227.5270 C   0  0  0  0  0  0  0  0  0  0  0  0
  139.7420   68.5898  227.9521 H   0  0  0  0  0  0  0  0  0  0  0  0
  139.9420   69.8160  226.1620 C   0  0  0  0  0  0  0  0  0  0  0  0
  139.2380   68.9570  225.3030 C   0  0  0  0  0  0  0  0  0  0  0  0
  138.8290   67.8490  225.7490 O   0  0  0  0  0  0  0  0  0  0  0  0
  139.0120   69.3080  223.9870 N   0  0  0  0  0  0  0  0  0  0  0  0
  138.1430   68.4420  223.1450 C   0  0  0  0  0  0  0  0  0  0  0  0
  138.5041   68.5022  222.1077 H   0  0  0  0  0  0  0  0  0  0  0  0
  138.2099   67.4310  223.5732 H   0  0  0  0  0  0  0  0  0  0  0  0
  136.6300   68.8190  223.1530 C   0  0  0  0  0  0  0  0  0  0  0  0
  136.1437   67.8631  222.9088 H   0  0  0  0  0  0  0  0  0  0  0  0
  136.0740   69.2220  224.5510 C   0  0  0  0  0  0  0  0  0  0  0  0
  135.3058   68.4898  224.8403 H   0  0  0  0  0  0  0  0  0  0  0  0
  136.9321   69.2360  225.2391 H   0  0  0  0  0  0  0  0  0  0  0  0
  135.4470   70.6220  224.6020 C   0  0  0  0  0  0  0  0  0  0  0  0
  134.4409   70.5824  224.1591 H   0  0  0  0  0  0  0  0  0  0  0  0
  135.3920   70.9445  225.6522 H   0  0  0  0  0  0  0  0  0  0  0  0
  136.2950   71.6270  223.8270 C   0  0  0  0  0  0  0  0  0  0  0  0
  135.8584   72.6296  223.9456 H   0  0  0  0  0  0  0  0  0  0  0  0
  137.3190   71.5957  224.2275 H   0  0  0  0  0  0  0  0  0  0  0  0
  136.3520   71.2810  222.3300 C   0  0  0  0  0  0  0  0  0  0  0  0
  135.5495   71.8318  221.8176 H   0  0  0  0  0  0  0  0  0  0  0  0
  137.3548   71.5642  221.9776 H   0  0  0  0  0  0  0  0  0  0  0  0
  136.1810   69.7780  222.0220 C   0  0  0  0  0  0  0  0  0  0  0  0
  135.1161   69.5909  221.8196 H   0  0  0  0  0  0  0  0  0  0  0  0
  136.8347   69.5655  221.1633 H   0  0  0  0  0  0  0  0  0  0  0  0
  139.9880   73.2500  221.7190 C   0  0  0  0  0  0  0  0  0  0  0  0
  141.0230   74.1960  221.7600 C   0  0  0  0  0  0  0  0  0  0  0  0
  142.0678   73.8671  221.6587 H   0  0  0  0  0  0  0  0  0  0  0  0
  140.7440   75.5160  221.9240 N   0  0  0  0  0  0  0  0  0  0  0  0
  139.4700   75.9670  222.0600 C   0  0  0  0  0  0  0  0  0  0  0  0
  139.2776   77.0431  222.1827 H   0  0  0  0  0  0  0  0  0  0  0  0
  138.4050   75.0650  222.0440 C   0  0  0  0  0  0  0  0  0  0  0  0
  137.3718   75.4240  222.1611 H   0  0  0  0  0  0  0  0  0  0  0  0
  138.6630   73.7030  221.8780 C   0  0  0  0  0  0  0  0  0  0  0  0
  137.8315   72.9829  221.8713 H   0  0  0  0  0  0  0  0  0  0  0  0
  1  2  1  0
  2  3  2  0
  3  4  1  0
  3  5  1  0
  5  6  2  0
  6  7  1  0
  7  8  2  0
  8  9  1  0
  8 10  1  0
 10 11  1  0
 10 12  2  0
 12 13  1  0
 12 14  1  0
 14 15  1  0
 14 16  2  0
 16 17  1  0
 17 18  2  0
 17 19  1  0
 19 20  1  0
 20 21  1  0
 20 22  1  0
 20 23  1  0
 23 24  1  0
 23 25  1  0
 25 26  1  0
 25 27  1  0
 25 28  1  0
 28 29  1  0
 28 30  1  0
 28 31  1  0
 31 32  1  0
 31 33  1  0
 31 34  1  0
 34 35  1  0
 34 36  1  0
 34 37  1  0
 37 38  1  0
 37 39  1  0
  2 40  1  0
 40 41  2  0
 41 42  1  0
 41 43  1  0
 43 44  2  0
 44 45  1  0
 44 46  1  0
 46 47  1  0
 46 48  2  0
 48 49  1  0
 19  5  1  0
 37 23  1  0
 48 40  1  0
 16  7  1  0
M  END
>  <UniqueID>  (30) 
24

>  <SMILES>  (30) 
O=c1c2ccccc2nc(/C=C/c2cccnc2)n1CC1CCCCC1

>  <Energy>  (30) 
70.21899285290385

>  <Genealogy>  (30) 
O=c1c2ccccc2nc(/C=C/c2cccnc2)n1CC1CCCCC1 (cis-trans isomerization)
O=c1c2ccccc2nc(/C=C/c2cccnc2)n1CC1CCCCC1 (3D coordinates assigned)
O=c1c2ccccc2nc(/C=C/c2cccnc2)n1CC1CCCCC1 (nonaromatic ring conformer: 70.21899285290385 kcal/mol)

>  <smiles>  (30) 
O=c1c2ccccc2nc(/C=C/c2cccnc2)n1CC1CCCCC1

>  <score_type>  (30) 
oracle

>  <origin>  (30) 
autodockgpu

>  <m_score__min__energy>  (30) 
-7.3499999999999996

>  <m_primary>  (30) 
energy

>  <meeko>  (30) 
{"free_energy": -6.94, "intermolecular_energy": -8.44, "internal_energy": -1.96, "cluster_size": 19, "cluster_id": 1, "rank_in_cluster": 15}

>  <energy>  (30) 
-7.06

>  <cluster_rmsd>  (30) 
0.33

>  <rmsd>  (30) 
272.12

>  <cluster>  (30) 
1

$$$$
XUFANRSCLZKORJ-OUKQBFOZNA-N
     RDKit          3D

 49 52  0  0  0  0  0  0  0  0999 V2000
  141.7306   71.0487  221.1496 H   0  0  0  0  0  0  0  0  0  0  0  0
  140.8800   71.6410  221.5180 C   0  0  0  0  0  0  0  0  0  0  0  0
  139.8160   70.9860  222.0080 C   0  0  0  0  0  0  0  0  0  0  0  0
  138.9618   70.7789  221.3465 H   0  0  0  0  0  0  0  0  0  0  0  0
  139.7640   70.5340  223.4220 C   0  0  0  0  0  0  0  0  0  0  0  0
  140.3410   71.3420  224.3530 N   0  0  0  0  0  0  0  0  0  0  0  0
  140.4130   71.0010  225.6580 C   0  0  0  0  0  0  0  0  0  0  0  0
  141.0060   71.8740  226.5780 C   0  0  0  0  0  0  0  0  0  0  0  0
  141.3916   72.8479  226.2423 H   0  0  0  0  0  0  0  0  0  0  0  0
  141.1080   71.5080  227.9230 C   0  0  0  0  0  0  0  0  0  0  0  0
  141.5688   72.1965  228.6466 H   0  0  0  0  0  0  0  0  0  0  0  0
  140.6250   70.2680  228.3490 C   0  0  0  0  0  0  0  0  0  0  0  0
  140.7090   69.9808  229.4075 H   0  0  0  0  0  0  0  0  0  0  0  0
  140.0350   69.3910  227.4330 C   0  0  0  0  0  0  0  0  0  0  0  0
  139.6580   68.4147  227.7716 H   0  0  0  0  0  0  0  0  0  0  0  0
  139.9230   69.7570  226.0760 C   0  0  0  0  0  0  0  0  0  0  0  0
  139.3320   68.9180  225.1170 C   0  0  0  0  0  0  0  0  0  0  0  0
  138.9510   67.7660  225.4670 O   0  0  0  0  0  0  0  0  0  0  0  0
  139.1850   69.3380  223.8100 N   0  0  0  0  0  0  0  0  0  0  0  0
  138.4290   68.4830  222.8560 C   0  0  0  0  0  0  0  0  0  0  0  0
  138.8944   68.5845  221.8645 H   0  0  0  0  0  0  0  0  0  0  0  0
  138.4747   67.4600  223.2578 H   0  0  0  0  0  0  0  0  0  0  0  0
  136.9140   68.8290  222.7170 C   0  0  0  0  0  0  0  0  0  0  0  0
  136.5025   67.9228  222.2485 H   0  0  0  0  0  0  0  0  0  0  0  0
  136.1600   68.9740  224.0720 C   0  0  0  0  0  0  0  0  0  0  0  0
  135.3888   68.1912  224.1228 H   0  0  0  0  0  0  0  0  0  0  0  0
  136.9162   68.8805  224.8653 H   0  0  0  0  0  0  0  0  0  0  0  0
  135.4780   70.3350  224.2720 C   0  0  0  0  0  0  0  0  0  0  0  0
  134.5428   70.3573  223.6933 H   0  0  0  0  0  0  0  0  0  0  0  0
  135.2708   70.4693  225.3439 H   0  0  0  0  0  0  0  0  0  0  0  0
  136.3810   71.4720  223.8050 C   0  0  0  0  0  0  0  0  0  0  0  0
  135.8926   72.4315  224.0303 H   0  0  0  0  0  0  0  0  0  0  0  0
  137.3423   71.3876  224.3330 H   0  0  0  0  0  0  0  0  0  0  0  0
  136.6530   71.3930  222.2940 C   0  0  0  0  0  0  0  0  0  0  0  0
  135.9060   72.0122  221.7758 H   0  0  0  0  0  0  0  0  0  0  0  0
  137.6821   71.7488  222.1382 H   0  0  0  0  0  0  0  0  0  0  0  0
  136.5840   69.9630  221.7140 C   0  0  0  0  0  0  0  0  0  0  0  0
  135.5642   69.7975  221.3364 H   0  0  0  0  0  0  0  0  0  0  0  0
  137.3552   69.9129  220.9312 H   0  0  0  0  0  0  0  0  0  0  0  0
  140.9720   73.1190  221.4460 C   0  0  0  0  0  0  0  0  0  0  0  0
  139.9360   73.8930  221.9900 C   0  0  0  0  0  0  0  0  0  0  0  0
  139.0798   73.3978  222.4713 H   0  0  0  0  0  0  0  0  0  0  0  0
  139.9820   75.2500  221.9270 N   0  0  0  0  0  0  0  0  0  0  0  0
  141.0160   75.9040  221.3350 C   0  0  0  0  0  0  0  0  0  0  0  0
  141.0273   77.0036  221.3069 H   0  0  0  0  0  0  0  0  0  0  0  0
  142.0630   75.1810  220.7630 C   0  0  0  0  0  0  0  0  0  0  0  0
  142.8987   75.7055  220.2768 H   0  0  0  0  0  0  0  0  0  0  0  0
  142.0410   73.7860  220.8130 C   0  0  0  0  0  0  0  0  0  0  0  0
  142.8581   73.2068  220.3583 H   0  0  0  0  0  0  0  0  0  0  0  0
  1  2  1  0
  2  3  2  0
  3  4  1  0
  3  5  1  0
  5  6  2  0
  6  7  1  0
  7  8  2  0
  8  9  1  0
  8 10  1  0
 10 11  1  0
 10 12  2  0
 12 13  1  0
 12 14  1  0
 14 15  1  0
 14 16  2  0
 16 17  1  0
 17 18  2  0
 17 19  1  0
 19 20  1  0
 20 21  1  0
 20 22  1  0
 20 23  1  0
 23 24  1  0
 23 25  1  0
 25 26  1  0
 25 27  1  0
 25 28  1  0
 28 29  1  0
 28 30  1  0
 28 31  1  0
 31 32  1  0
 31 33  1  0
 31 34  1  0
 34 35  1  0
 34 36  1  0
 34 37  1  0
 37 38  1  0
 37 39  1  0
  2 40  1  0
 40 41  2  0
 41 42  1  0
 41 43  1  0
 43 44  2  0
 44 45  1  0
 44 46  1  0
 46 47  1  0
 46 48  2  0
 48 49  1  0
 19  5  1  0
 37 23  1  0
 48 40  1  0
 16  7  1  0
M  END
>  <UniqueID>  (31) 
24

>  <SMILES>  (31) 
O=c1c2ccccc2nc(/C=C/c2cccnc2)n1CC1CCCCC1

>  <Energy>  (31) 
70.21899285290385

>  <Genealogy>  (31) 
O=c1c2ccccc2nc(/C=C/c2cccnc2)n1CC1CCCCC1 (cis-trans isomerization)
O=c1c2ccccc2nc(/C=C/c2cccnc2)n1CC1CCCCC1 (3D coordinates assigned)
O=c1c2ccccc2nc(/C=C/c2cccnc2)n1CC1CCCCC1 (nonaromatic ring conformer: 70.21899285290385 kcal/mol)

>  <smiles>  (31) 
O=c1c2ccccc2nc(/C=C/c2cccnc2)n1CC1CCCCC1

>  <score_type>  (31) 
oracle

>  <origin>  (31) 
autodockgpu

>  <m_score__min__energy>  (31) 
-7.3499999999999996

>  <m_primary>  (31) 
energy

>  <meeko>  (31) 
{"free_energy": -7.27, "intermolecular_energy": -8.76, "internal_energy": -1.73, "cluster_size": 19, "cluster_id": 1, "rank_in_cluster": 4}

>  <energy>  (31) 
-6.99

>  <cluster_rmsd>  (31) 
0.69

>  <rmsd>  (31) 
272.06

>  <cluster>  (31) 
1

$$$$
XUFANRSCLZKORJ-OUKQBFOZNA-N
     RDKit          3D

 49 52  0  0  0  0  0  0  0  0999 V2000
  141.1478   70.5591  220.7730 H   0  0  0  0  0  0  0  0  0  0  0  0
  141.2390   71.5230  221.2950 C   0  0  0  0  0  0  0  0  0  0  0  0
  140.2820   71.8610  222.1740 C   0  0  0  0  0  0  0  0  0  0  0  0
  139.5999   72.6895  221.9326 H   0  0  0  0  0  0  0  0  0  0  0  0
  140.1220   71.1430  223.4650 C   0  0  0  0  0  0  0  0  0  0  0  0
  140.6060   71.7550  224.5790 N   0  0  0  0  0  0  0  0  0  0  0  0
  140.5760   71.1680  225.7950 C   0  0  0  0  0  0  0  0  0  0  0  0
  141.0760   71.8460  226.9130 C   0  0  0  0  0  0  0  0  0  0  0  0
  141.4714   72.8669  226.8056 H   0  0  0  0  0  0  0  0  0  0  0  0
  141.0730   71.2260  228.1660 C   0  0  0  0  0  0  0  0  0  0  0  0
  141.4604   71.7615  229.0453 H   0  0  0  0  0  0  0  0  0  0  0  0
  140.5780   69.9260  228.3020 C   0  0  0  0  0  0  0  0  0  0  0  0
  140.5786   69.4390  229.2883 H   0  0  0  0  0  0  0  0  0  0  0  0
  140.0820   69.2430  227.1870 C   0  0  0  0  0  0  0  0  0  0  0  0
  139.6967   68.2186  227.2973 H   0  0  0  0  0  0  0  0  0  0  0  0
  140.0750   69.8650  225.9220 C   0  0  0  0  0  0  0  0  0  0  0  0
  139.5800   69.2280  224.7720 C   0  0  0  0  0  0  0  0  0  0  0  0
  139.1920   68.0290  224.8590 O   0  0  0  0  0  0  0  0  0  0  0  0
  139.5340   69.8930  223.5640 N   0  0  0  0  0  0  0  0  0  0  0  0
  138.8750   69.2390  222.4020 C   0  0  0  0  0  0  0  0  0  0  0  0
  139.4032   69.5525  221.4895 H   0  0  0  0  0  0  0  0  0  0  0  0
  138.9285   68.1562  222.5882 H   0  0  0  0  0  0  0  0  0  0  0  0
  137.3620   69.5760  222.2250 C   0  0  0  0  0  0  0  0  0  0  0  0
  137.2480   69.6012  221.1312 H   0  0  0  0  0  0  0  0  0  0  0  0
  136.3920   68.4610  222.7180 C   0  0  0  0  0  0  0  0  0  0  0  0
  135.8226   68.0921  221.8522 H   0  0  0  0  0  0  0  0  0  0  0  0
  137.0160   67.6830  223.1820 H   0  0  0  0  0  0  0  0  0  0  0  0
  135.3940   68.9210  223.7890 C   0  0  0  0  0  0  0  0  0  0  0  0
  134.5807   69.4823  223.3057 H   0  0  0  0  0  0  0  0  0  0  0  0
  134.9966   68.0332  224.3027 H   0  0  0  0  0  0  0  0  0  0  0  0
  136.0740   69.8160  224.8200 C   0  0  0  0  0  0  0  0  0  0  0  0
  135.3497   70.0657  225.6094 H   0  0  0  0  0  0  0  0  0  0  0  0
  136.9345   69.2709  225.2352 H   0  0  0  0  0  0  0  0  0  0  0  0
  136.5890   71.1170  224.1860 C   0  0  0  0  0  0  0  0  0  0  0  0
  135.8099   71.8859  224.2946 H   0  0  0  0  0  0  0  0  0  0  0  0
  137.5202   71.3778  224.7103 H   0  0  0  0  0  0  0  0  0  0  0  0
  136.9420   70.9930  222.6880 C   0  0  0  0  0  0  0  0  0  0  0  0
  136.0596   71.2942  222.1043 H   0  0  0  0  0  0  0  0  0  0  0  0
  137.8173   71.6392  222.5260 H   0  0  0  0  0  0  0  0  0  0  0  0
  142.4110   72.3760  220.9890 C   0  0  0  0  0  0  0  0  0  0  0  0
  142.2180   73.7520  220.7890 C   0  0  0  0  0  0  0  0  0  0  0  0
  141.2082   74.1796  220.8750 H   0  0  0  0  0  0  0  0  0  0  0  0
  143.2690   74.5600  220.4900 N   0  0  0  0  0  0  0  0  0  0  0  0
  144.5320   74.0750  220.3670 C   0  0  0  0  0  0  0  0  0  0  0  0
  145.3625   74.7571  220.1325 H   0  0  0  0  0  0  0  0  0  0  0  0
  144.7760   72.7120  220.5380 C   0  0  0  0  0  0  0  0  0  0  0  0
  145.7958   72.3134  220.4327 H   0  0  0  0  0  0  0  0  0  0  0  0
  143.7140   71.8580  220.8440 C   0  0  0  0  0  0  0  0  0  0  0  0
  143.8945   70.7805  220.9719 H   0  0  0  0  0  0  0  0  0  0  0  0
  1  2  1  0
  2  3  2  0
  3  4  1  0
  3  5  1  0
  5  6  2  0
  6  7  1  0
  7  8  2  0
  8  9  1  0
  8 10  1  0
 10 11  1  0
 10 12  2  0
 12 13  1  0
 12 14  1  0
 14 15  1  0
 14 16  2  0
 16 17  1  0
 17 18  2  0
 17 19  1  0
 19 20  1  0
 20 21  1  0
 20 22  1  0
 20 23  1  0
 23 24  1  0
 23 25  1  0
 25 26  1  0
 25 27  1  0
 25 28  1  0
 28 29  1  0
 28 30  1  0
 28 31  1  0
 31 32  1  0
 31 33  1  0
 31 34  1  0
 34 35  1  0
 34 36  1  0
 34 37  1  0
 37 38  1  0
 37 39  1  0
  2 40  1  0
 40 41  2  0
 41 42  1  0
 41 43  1  0
 43 44  2  0
 44 45  1  0
 44 46  1  0
 46 47  1  0
 46 48  2  0
 48 49  1  0
 19  5  1  0
 37 23  1  0
 48 40  1  0
 16  7  1  0
M  END
>  <UniqueID>  (32) 
24

>  <SMILES>  (32) 
O=c1c2ccccc2nc(/C=C/c2cccnc2)n1CC1CCCCC1

>  <Energy>  (32) 
70.21899285290385

>  <Genealogy>  (32) 
O=c1c2ccccc2nc(/C=C/c2cccnc2)n1CC1CCCCC1 (cis-trans isomerization)
O=c1c2ccccc2nc(/C=C/c2cccnc2)n1CC1CCCCC1 (3D coordinates assigned)
O=c1c2ccccc2nc(/C=C/c2cccnc2)n1CC1CCCCC1 (nonaromatic ring conformer: 70.21899285290385 kcal/mol)

>  <smiles>  (32) 
O=c1c2ccccc2nc(/C=C/c2cccnc2)n1CC1CCCCC1

>  <score_type>  (32) 
oracle

>  <origin>  (32) 
autodockgpu

>  <m_score__min__energy>  (32) 
-7.3499999999999996

>  <m_primary>  (32) 
energy

>  <meeko>  (32) 
{"free_energy": -7.12, "intermolecular_energy": -8.61, "internal_energy": -1.56, "cluster_size": 19, "cluster_id": 1, "rank_in_cluster": 8}

>  <energy>  (32) 
-6.99

>  <cluster_rmsd>  (32) 
0.97

>  <rmsd>  (32) 
272.14

>  <cluster>  (32) 
1

$$$$
XUFANRSCLZKORJ-OUKQBFOZNA-N
     RDKit          3D

 49 52  0  0  0  0  0  0  0  0999 V2000
  141.7084   71.0801  220.9333 H   0  0  0  0  0  0  0  0  0  0  0  0
  140.8510   71.5160  221.4670 C   0  0  0  0  0  0  0  0  0  0  0  0
  139.9290   70.6820  221.9720 C   0  0  0  0  0  0  0  0  0  0  0  0
  139.2076   70.2045  221.2926 H   0  0  0  0  0  0  0  0  0  0  0  0
  139.8590   70.3880  223.4270 C   0  0  0  0  0  0  0  0  0  0  0  0
  140.5360   71.2220  224.2620 N   0  0  0  0  0  0  0  0  0  0  0  0
  140.6000   71.0140  225.5950 C   0  0  0  0  0  0  0  0  0  0  0  0
  141.2980   71.9100  226.4120 C   0  0  0  0  0  0  0  0  0  0  0  0
  141.7746   72.7983  225.9719 H   0  0  0  0  0  0  0  0  0  0  0  0
  141.3900   71.6770  227.7870 C   0  0  0  0  0  0  0  0  0  0  0  0
  141.9350   72.3844  228.4293 H   0  0  0  0  0  0  0  0  0  0  0  0
  140.7900   70.5460  228.3460 C   0  0  0  0  0  0  0  0  0  0  0  0
  140.8656   70.3632  229.4281 H   0  0  0  0  0  0  0  0  0  0  0  0
  140.0930   69.6450  227.5330 C   0  0  0  0  0  0  0  0  0  0  0  0
  139.6237   68.7543  227.9763 H   0  0  0  0  0  0  0  0  0  0  0  0
  139.9920   69.8780  226.1470 C   0  0  0  0  0  0  0  0  0  0  0  0
  139.2970   69.0110  225.2870 C   0  0  0  0  0  0  0  0  0  0  0  0
  138.8060   67.9480  225.7600 O   0  0  0  0  0  0  0  0  0  0  0  0
  139.1680   69.3060  223.9450 N   0  0  0  0  0  0  0  0  0  0  0  0
  138.3080   68.4400  223.0930 C   0  0  0  0  0  0  0  0  0  0  0  0
  138.7437   68.4142  222.0833 H   0  0  0  0  0  0  0  0  0  0  0  0
  138.2821   67.4554  223.5827 H   0  0  0  0  0  0  0  0  0  0  0  0
  136.8240   68.9040  222.9680 C   0  0  0  0  0  0  0  0  0  0  0  0
  136.3205   67.9973  222.6014 H   0  0  0  0  0  0  0  0  0  0  0  0
  136.1370   69.2400  224.3250 C   0  0  0  0  0  0  0  0  0  0  0  0
  135.3047   68.5363  224.4733 H   0  0  0  0  0  0  0  0  0  0  0  0
  136.9125   69.1544  225.1004 H   0  0  0  0  0  0  0  0  0  0  0  0
  135.5810   70.6680  224.4150 C   0  0  0  0  0  0  0  0  0  0  0  0
  134.6291   70.7191  223.8662 H   0  0  0  0  0  0  0  0  0  0  0  0
  135.4274   70.9192  225.4749 H   0  0  0  0  0  0  0  0  0  0  0  0
  136.5590   71.6720  223.8130 C   0  0  0  0  0  0  0  0  0  0  0  0
  136.1637   72.6879  223.9604 H   0  0  0  0  0  0  0  0  0  0  0  0
  137.5295   71.5513  224.3165 H   0  0  0  0  0  0  0  0  0  0  0  0
  136.7640   71.4300  222.3100 C   0  0  0  0  0  0  0  0  0  0  0  0
  136.0522   72.0616  221.7583 H   0  0  0  0  0  0  0  0  0  0  0  0
  137.8126   71.6783  222.0891 H   0  0  0  0  0  0  0  0  0  0  0  0
  136.5520   69.9640  221.8720 C   0  0  0  0  0  0  0  0  0  0  0  0
  135.5079   69.8542  221.5436 H   0  0  0  0  0  0  0  0  0  0  0  0
  137.2850   69.7741  221.0741 H   0  0  0  0  0  0  0  0  0  0  0  0
  140.7790   72.9920  221.5880 C   0  0  0  0  0  0  0  0  0  0  0  0
  139.6690   73.5680  222.2260 C   0  0  0  0  0  0  0  0  0  0  0  0
  138.8789   72.9221  222.6365 H   0  0  0  0  0  0  0  0  0  0  0  0
  139.5640   74.9190  222.3400 N   0  0  0  0  0  0  0  0  0  0  0  0
  140.5120   75.7550  221.8410 C   0  0  0  0  0  0  0  0  0  0  0  0
  140.4013   76.8433  221.9565 H   0  0  0  0  0  0  0  0  0  0  0  0
  141.6260   75.2330  221.1820 C   0  0  0  0  0  0  0  0  0  0  0  0
  142.3926   75.9058  220.7701 H   0  0  0  0  0  0  0  0  0  0  0  0
  141.7590   73.8490  221.0500 C   0  0  0  0  0  0  0  0  0  0  0  0
  142.6295   73.4279  220.5256 H   0  0  0  0  0  0  0  0  0  0  0  0
  1  2  1  0
  2  3  2  0
  3  4  1  0
  3  5  1  0
  5  6  2  0
  6  7  1  0
  7  8  2  0
  8  9  1  0
  8 10  1  0
 10 11  1  0
 10 12  2  0
 12 13  1  0
 12 14  1  0
 14 15  1  0
 14 16  2  0
 16 17  1  0
 17 18  2  0
 17 19  1  0
 19 20  1  0
 20 21  1  0
 20 22  1  0
 20 23  1  0
 23 24  1  0
 23 25  1  0
 25 26  1  0
 25 27  1  0
 25 28  1  0
 28 29  1  0
 28 30  1  0
 28 31  1  0
 31 32  1  0
 31 33  1  0
 31 34  1  0
 34 35  1  0
 34 36  1  0
 34 37  1  0
 37 38  1  0
 37 39  1  0
  2 40  1  0
 40 41  2  0
 41 42  1  0
 41 43  1  0
 43 44  2  0
 44 45  1  0
 44 46  1  0
 46 47  1  0
 46 48  2  0
 48 49  1  0
 19  5  1  0
 37 23  1  0
 48 40  1  0
 16  7  1  0
M  END
>  <UniqueID>  (33) 
24

>  <SMILES>  (33) 
O=c1c2ccccc2nc(/C=C/c2cccnc2)n1CC1CCCCC1

>  <Energy>  (33) 
70.21899285290385

>  <Genealogy>  (33) 
O=c1c2ccccc2nc(/C=C/c2cccnc2)n1CC1CCCCC1 (cis-trans isomerization)
O=c1c2ccccc2nc(/C=C/c2cccnc2)n1CC1CCCCC1 (3D coordinates assigned)
O=c1c2ccccc2nc(/C=C/c2cccnc2)n1CC1CCCCC1 (nonaromatic ring conformer: 70.21899285290385 kcal/mol)

>  <smiles>  (33) 
O=c1c2ccccc2nc(/C=C/c2cccnc2)n1CC1CCCCC1

>  <score_type>  (33) 
oracle

>  <origin>  (33) 
autodockgpu

>  <m_score__min__energy>  (33) 
-7.3499999999999996

>  <m_primary>  (33) 
energy

>  <meeko>  (33) 
{"free_energy": -7.22, "intermolecular_energy": -8.72, "internal_energy": -1.92, "cluster_size": 19, "cluster_id": 1, "rank_in_cluster": 6}

>  <energy>  (33) 
-6.96

>  <cluster_rmsd>  (33) 
0.69

>  <rmsd>  (33) 
272.1

>  <cluster>  (33) 
1

$$$$
XUFANRSCLZKORJ-OUKQBFOZNA-N
     RDKit          3D

 49 52  0  0  0  0  0  0  0  0999 V2000
  141.2644   71.6339  221.0238 H   0  0  0  0  0  0  0  0  0  0  0  0
  140.3480   71.9060  221.5680 C   0  0  0  0  0  0  0  0  0  0  0  0
  139.5830   70.9170  222.0560 C   0  0  0  0  0  0  0  0  0  0  0  0
  138.9097   70.3745  221.3761 H   0  0  0  0  0  0  0  0  0  0  0  0
  139.6230   70.5370  223.4910 C   0  0  0  0  0  0  0  0  0  0  0  0
  140.3070   71.3600  224.3320 N   0  0  0  0  0  0  0  0  0  0  0  0
  140.4680   71.0790  225.6440 C   0  0  0  0  0  0  0  0  0  0  0  0
  141.1690   71.9660  226.4690 C   0  0  0  0  0  0  0  0  0  0  0  0
  141.5680   72.9038  226.0550 H   0  0  0  0  0  0  0  0  0  0  0  0
  141.3620   71.6600  227.8190 C   0  0  0  0  0  0  0  0  0  0  0  0
  141.9086   72.3595  228.4685 H   0  0  0  0  0  0  0  0  0  0  0  0
  140.8610   70.4660  228.3440 C   0  0  0  0  0  0  0  0  0  0  0  0
  141.0158   70.2261  229.4063 H   0  0  0  0  0  0  0  0  0  0  0  0
  140.1630   69.5750  227.5220 C   0  0  0  0  0  0  0  0  0  0  0  0
  139.7729   68.6343  227.9380 H   0  0  0  0  0  0  0  0  0  0  0  0
  139.9590   69.8810  226.1620 C   0  0  0  0  0  0  0  0  0  0  0  0
  139.2580   69.0260  225.2950 C   0  0  0  0  0  0  0  0  0  0  0  0
  138.8560   67.9110  225.7320 O   0  0  0  0  0  0  0  0  0  0  0  0
  139.0260   69.3890  223.9840 N   0  0  0  0  0  0  0  0  0  0  0  0
  138.1600   68.5260  223.1360 C   0  0  0  0  0  0  0  0  0  0  0  0
  138.5245   68.5903  222.1001 H   0  0  0  0  0  0  0  0  0  0  0  0
  138.2257   67.5136  223.5610 H   0  0  0  0  0  0  0  0  0  0  0  0
  136.6460   68.9020  223.1400 C   0  0  0  0  0  0  0  0  0  0  0  0
  136.1605   67.9486  222.8845 H   0  0  0  0  0  0  0  0  0  0  0  0
  136.0840   69.2920  224.5400 C   0  0  0  0  0  0  0  0  0  0  0  0
  135.3144   68.5574  224.8194 H   0  0  0  0  0  0  0  0  0  0  0  0
  136.9387   69.2991  225.2324 H   0  0  0  0  0  0  0  0  0  0  0  0
  135.4570   70.6920  224.6000 C   0  0  0  0  0  0  0  0  0  0  0  0
  134.4525   70.6561  224.1531 H   0  0  0  0  0  0  0  0  0  0  0  0
  135.3986   71.0058  225.6527 H   0  0  0  0  0  0  0  0  0  0  0  0
  136.3070   71.7030  223.8370 C   0  0  0  0  0  0  0  0  0  0  0  0
  135.8693   72.7043  223.9624 H   0  0  0  0  0  0  0  0  0  0  0  0
  137.3294   71.6679  224.2413 H   0  0  0  0  0  0  0  0  0  0  0  0
  136.3710   71.3710  222.3390 C   0  0  0  0  0  0  0  0  0  0  0  0
  135.5706   71.9262  221.8280 H   0  0  0  0  0  0  0  0  0  0  0  0
  137.3754   71.6577  221.9940 H   0  0  0  0  0  0  0  0  0  0  0  0
  136.2020   69.8700  222.0160 C   0  0  0  0  0  0  0  0  0  0  0  0
  135.1382   69.6842  221.8068 H   0  0  0  0  0  0  0  0  0  0  0  0
  136.8595   69.6654  221.1582 H   0  0  0  0  0  0  0  0  0  0  0  0
  140.0260   73.3450  221.7220 C   0  0  0  0  0  0  0  0  0  0  0  0
  141.0680   74.2840  221.6790 C   0  0  0  0  0  0  0  0  0  0  0  0
  142.1022   73.9448  221.5195 H   0  0  0  0  0  0  0  0  0  0  0  0
  140.8090   75.6100  221.8330 N   0  0  0  0  0  0  0  0  0  0  0  0
  139.5480   76.0730  222.0390 C   0  0  0  0  0  0  0  0  0  0  0  0
  139.3704   77.1527  222.1514 H   0  0  0  0  0  0  0  0  0  0  0  0
  138.4790   75.1800  222.1080 C   0  0  0  0  0  0  0  0  0  0  0  0
  137.4576   75.5494  222.2821 H   0  0  0  0  0  0  0  0  0  0  0  0
  138.7170   73.8120  221.9540 C   0  0  0  0  0  0  0  0  0  0  0  0
  137.8817   73.0988  222.0139 H   0  0  0  0  0  0  0  0  0  0  0  0
  1  2  1  0
  2  3  2  0
  3  4  1  0
  3  5  1  0
  5  6  2  0
  6  7  1  0
  7  8  2  0
  8  9  1  0
  8 10  1  0
 10 11  1  0
 10 12  2  0
 12 13  1  0
 12 14  1  0
 14 15  1  0
 14 16  2  0
 16 17  1  0
 17 18  2  0
 17 19  1  0
 19 20  1  0
 20 21  1  0
 20 22  1  0
 20 23  1  0
 23 24  1  0
 23 25  1  0
 25 26  1  0
 25 27  1  0
 25 28  1  0
 28 29  1  0
 28 30  1  0
 28 31  1  0
 31 32  1  0
 31 33  1  0
 31 34  1  0
 34 35  1  0
 34 36  1  0
 34 37  1  0
 37 38  1  0
 37 39  1  0
  2 40  1  0
 40 41  2  0
 41 42  1  0
 41 43  1  0
 43 44  2  0
 44 45  1  0
 44 46  1  0
 46 47  1  0
 46 48  2  0
 48 49  1  0
 19  5  1  0
 37 23  1  0
 48 40  1  0
 16  7  1  0
M  END
>  <UniqueID>  (34) 
24

>  <SMILES>  (34) 
O=c1c2ccccc2nc(/C=C/c2cccnc2)n1CC1CCCCC1

>  <Energy>  (34) 
70.21899285290385

>  <Genealogy>  (34) 
O=c1c2ccccc2nc(/C=C/c2cccnc2)n1CC1CCCCC1 (cis-trans isomerization)
O=c1c2ccccc2nc(/C=C/c2cccnc2)n1CC1CCCCC1 (3D coordinates assigned)
O=c1c2ccccc2nc(/C=C/c2cccnc2)n1CC1CCCCC1 (nonaromatic ring conformer: 70.21899285290385 kcal/mol)

>  <smiles>  (34) 
O=c1c2ccccc2nc(/C=C/c2cccnc2)n1CC1CCCCC1

>  <score_type>  (34) 
oracle

>  <origin>  (34) 
autodockgpu

>  <m_score__min__energy>  (34) 
-7.3499999999999996

>  <m_primary>  (34) 
energy

>  <meeko>  (34) 
{"free_energy": -6.96, "intermolecular_energy": -8.45, "internal_energy": -1.95, "cluster_size": 19, "cluster_id": 1, "rank_in_cluster": 13}

>  <energy>  (34) 
-6.95

>  <cluster_rmsd>  (34) 
0.97

>  <rmsd>  (34) 
272.02

>  <cluster>  (34) 
1

$$$$
XUFANRSCLZKORJ-OUKQBFOZNA-N
     RDKit          3D

 49 52  0  0  0  0  0  0  0  0999 V2000
  141.6424   70.9546  220.7621 H   0  0  0  0  0  0  0  0  0  0  0  0
  140.8210   71.3720  221.3630 C   0  0  0  0  0  0  0  0  0  0  0  0
  139.9280   70.5220  221.8940 C   0  0  0  0  0  0  0  0  0  0  0  0
  139.2469   69.9735  221.2267 H   0  0  0  0  0  0  0  0  0  0  0  0
  139.8370   70.3040  223.3600 C   0  0  0  0  0  0  0  0  0  0  0  0
  140.5470   71.1460  224.1580 N   0  0  0  0  0  0  0  0  0  0  0  0
  140.5940   71.0000  225.5010 C   0  0  0  0  0  0  0  0  0  0  0  0
  141.3300   71.9020  226.2780 C   0  0  0  0  0  0  0  0  0  0  0  0
  141.8511   72.7434  225.7980 H   0  0  0  0  0  0  0  0  0  0  0  0
  141.4030   71.7340  227.6630 C   0  0  0  0  0  0  0  0  0  0  0  0
  141.9770   72.4464  228.2737 H   0  0  0  0  0  0  0  0  0  0  0  0
  140.7470   70.6610  228.2730 C   0  0  0  0  0  0  0  0  0  0  0  0
  140.8080   70.5287  229.3633 H   0  0  0  0  0  0  0  0  0  0  0  0
  140.0130   69.7550  227.5000 C   0  0  0  0  0  0  0  0  0  0  0  0
  139.5000   68.9104  227.9831 H   0  0  0  0  0  0  0  0  0  0  0  0
  139.9300   69.9230  226.1030 C   0  0  0  0  0  0  0  0  0  0  0  0
  139.2000   69.0490  225.2810 C   0  0  0  0  0  0  0  0  0  0  0  0
  138.6560   68.0350  225.8020 O   0  0  0  0  0  0  0  0  0  0  0  0
  139.0920   69.2820  223.9250 N   0  0  0  0  0  0  0  0  0  0  0  0
  138.1960   68.4180  223.1110 C   0  0  0  0  0  0  0  0  0  0  0  0
  138.6182   68.3483  222.0976 H   0  0  0  0  0  0  0  0  0  0  0  0
  138.1465   67.4507  223.6324 H   0  0  0  0  0  0  0  0  0  0  0  0
  136.7250   68.9210  222.9880 C   0  0  0  0  0  0  0  0  0  0  0  0
  136.1976   68.0312  222.6137 H   0  0  0  0  0  0  0  0  0  0  0  0
  136.0460   69.2640  224.3470 C   0  0  0  0  0  0  0  0  0  0  0  0
  135.1953   68.5813  224.4891 H   0  0  0  0  0  0  0  0  0  0  0  0
  136.8182   69.1517  225.1223 H   0  0  0  0  0  0  0  0  0  0  0  0
  135.5280   70.7050  224.4480 C   0  0  0  0  0  0  0  0  0  0  0  0
  134.5785   70.7854  223.8984 H   0  0  0  0  0  0  0  0  0  0  0  0
  135.3803   70.9509  225.5099 H   0  0  0  0  0  0  0  0  0  0  0  0
  136.5320   71.6890  223.8560 C   0  0  0  0  0  0  0  0  0  0  0  0
  136.1621   72.7133  224.0107 H   0  0  0  0  0  0  0  0  0  0  0  0
  137.4983   71.5407  224.3602 H   0  0  0  0  0  0  0  0  0  0  0  0
  136.7330   71.4530  222.3510 C   0  0  0  0  0  0  0  0  0  0  0  0
  136.0392   72.1078  221.8034 H   0  0  0  0  0  0  0  0  0  0  0  0
  137.7885   71.6745  222.1343 H   0  0  0  0  0  0  0  0  0  0  0  0
  136.4830   69.9970  221.9000 C   0  0  0  0  0  0  0  0  0  0  0  0
  135.4370   69.9177  221.5690 H   0  0  0  0  0  0  0  0  0  0  0  0
  137.2119   69.7944  221.1014 H   0  0  0  0  0  0  0  0  0  0  0  0
  140.7610   72.8430  221.5420 C   0  0  0  0  0  0  0  0  0  0  0  0
  139.6470   73.4050  222.1850 C   0  0  0  0  0  0  0  0  0  0  0  0
  138.8441   72.7520  222.5578 H   0  0  0  0  0  0  0  0  0  0  0  0
  139.5540   74.7520  222.3500 N   0  0  0  0  0  0  0  0  0  0  0  0
  140.5180   75.5960  221.9010 C   0  0  0  0  0  0  0  0  0  0  0  0
  140.4164   76.6800  222.0582 H   0  0  0  0  0  0  0  0  0  0  0  0
  141.6380   75.0890  221.2400 C   0  0  0  0  0  0  0  0  0  0  0  0
  142.4182   75.7694  220.8682 H   0  0  0  0  0  0  0  0  0  0  0  0
  141.7590   73.7100  221.0550 C   0  0  0  0  0  0  0  0  0  0  0  0
  142.6339   73.3006  220.5288 H   0  0  0  0  0  0  0  0  0  0  0  0
  1  2  1  0
  2  3  2  0
  3  4  1  0
  3  5  1  0
  5  6  2  0
  6  7  1  0
  7  8  2  0
  8  9  1  0
  8 10  1  0
 10 11  1  0
 10 12  2  0
 12 13  1  0
 12 14  1  0
 14 15  1  0
 14 16  2  0
 16 17  1  0
 17 18  2  0
 17 19  1  0
 19 20  1  0
 20 21  1  0
 20 22  1  0
 20 23  1  0
 23 24  1  0
 23 25  1  0
 25 26  1  0
 25 27  1  0
 25 28  1  0
 28 29  1  0
 28 30  1  0
 28 31  1  0
 31 32  1  0
 31 33  1  0
 31 34  1  0
 34 35  1  0
 34 36  1  0
 34 37  1  0
 37 38  1  0
 37 39  1  0
  2 40  1  0
 40 41  2  0
 41 42  1  0
 41 43  1  0
 43 44  2  0
 44 45  1  0
 44 46  1  0
 46 47  1  0
 46 48  2  0
 48 49  1  0
 19  5  1  0
 37 23  1  0
 48 40  1  0
 16  7  1  0
M  END
>  <UniqueID>  (35) 
24

>  <SMILES>  (35) 
O=c1c2ccccc2nc(/C=C/c2cccnc2)n1CC1CCCCC1

>  <Energy>  (35) 
70.21899285290385

>  <Genealogy>  (35) 
O=c1c2ccccc2nc(/C=C/c2cccnc2)n1CC1CCCCC1 (cis-trans isomerization)
O=c1c2ccccc2nc(/C=C/c2cccnc2)n1CC1CCCCC1 (3D coordinates assigned)
O=c1c2ccccc2nc(/C=C/c2cccnc2)n1CC1CCCCC1 (nonaromatic ring conformer: 70.21899285290385 kcal/mol)

>  <smiles>  (35) 
O=c1c2ccccc2nc(/C=C/c2cccnc2)n1CC1CCCCC1

>  <score_type>  (35) 
oracle

>  <origin>  (35) 
autodockgpu

>  <m_score__min__energy>  (35) 
-7.3499999999999996

>  <m_primary>  (35) 
energy

>  <meeko>  (35) 
{"free_energy": -7.06, "intermolecular_energy": -8.55, "internal_energy": -1.96, "cluster_size": 19, "cluster_id": 1, "rank_in_cluster": 10}

>  <energy>  (35) 
-6.94

>  <cluster_rmsd>  (35) 
0.68

>  <rmsd>  (35) 
272.07

>  <cluster>  (35) 
1

$$$$
XUFANRSCLZKORJ-OUKQBFOZNA-N
     RDKit          3D

 49 52  0  0  0  0  0  0  0  0999 V2000
  142.8735   80.5660  219.1415 H   0  0  0  0  0  0  0  0  0  0  0  0
  142.1980   79.7250  218.9260 C   0  0  0  0  0  0  0  0  0  0  0  0
  141.4520   79.2390  219.9290 C   0  0  0  0  0  0  0  0  0  0  0  0
  140.7350   79.9022  220.4350 H   0  0  0  0  0  0  0  0  0  0  0  0
  141.5710   77.8260  220.3730 C   0  0  0  0  0  0  0  0  0  0  0  0
  142.5490   77.0750  219.7990 N   0  0  0  0  0  0  0  0  0  0  0  0
  142.7060   75.7620  220.0740 C   0  0  0  0  0  0  0  0  0  0  0  0
  143.7370   75.0370  219.4650 C   0  0  0  0  0  0  0  0  0  0  0  0
  144.4340   75.5419  218.7800 H   0  0  0  0  0  0  0  0  0  0  0  0
  143.8810   73.6720  219.7270 C   0  0  0  0  0  0  0  0  0  0  0  0
  144.6946   73.1040  219.2522 H   0  0  0  0  0  0  0  0  0  0  0  0
  142.9920   73.0280  220.5920 C   0  0  0  0  0  0  0  0  0  0  0  0
  143.1055   71.9529  220.7952 H   0  0  0  0  0  0  0  0  0  0  0  0
  141.9580   73.7480  221.2000 C   0  0  0  0  0  0  0  0  0  0  0  0
  141.2581   73.2377  221.8780 H   0  0  0  0  0  0  0  0  0  0  0  0
  141.8120   75.1260  220.9450 C   0  0  0  0  0  0  0  0  0  0  0  0
  140.7970   75.8970  221.5360 C   0  0  0  0  0  0  0  0  0  0  0  0
  139.9420   75.3230  222.2670 O   0  0  0  0  0  0  0  0  0  0  0  0
  140.7240   77.2570  221.3100 N   0  0  0  0  0  0  0  0  0  0  0  0
  139.7260   78.0630  222.0620 C   0  0  0  0  0  0  0  0  0  0  0  0
  139.3094   78.8158  221.3766 H   0  0  0  0  0  0  0  0  0  0  0  0
  138.9763   77.3510  222.4373 H   0  0  0  0  0  0  0  0  0  0  0  0
  140.2860   78.8060  223.3140 C   0  0  0  0  0  0  0  0  0  0  0  0
  139.8025   78.2729  224.1459 H   0  0  0  0  0  0  0  0  0  0  0  0
  141.8160   78.6240  223.5400 C   0  0  0  0  0  0  0  0  0  0  0  0
  141.9633   78.1000  224.4959 H   0  0  0  0  0  0  0  0  0  0  0  0
  142.1967   78.0558  222.6785 H   0  0  0  0  0  0  0  0  0  0  0  0
  142.6080   79.9390  223.5850 C   0  0  0  0  0  0  0  0  0  0  0  0
  142.4701   80.4087  224.5701 H   0  0  0  0  0  0  0  0  0  0  0  0
  143.6708   79.7147  223.4111 H   0  0  0  0  0  0  0  0  0  0  0  0
  142.1300   80.9010  222.5020 C   0  0  0  0  0  0  0  0  0  0  0  0
  142.7652   81.7990  222.5162 H   0  0  0  0  0  0  0  0  0  0  0  0
  142.1975   80.3880  221.5313 H   0  0  0  0  0  0  0  0  0  0  0  0
  140.6690   81.3200  222.7240 C   0  0  0  0  0  0  0  0  0  0  0  0
  140.6624   82.2532  223.3063 H   0  0  0  0  0  0  0  0  0  0  0  0
  140.2186   81.4365  221.7272 H   0  0  0  0  0  0  0  0  0  0  0  0
  139.8180   80.2740  223.4760 C   0  0  0  0  0  0  0  0  0  0  0  0
  139.8410   80.5226  224.5473 H   0  0  0  0  0  0  0  0  0  0  0  0
  138.8112   80.3247  223.0357 H   0  0  0  0  0  0  0  0  0  0  0  0
  142.1630   79.1920  217.5430 C   0  0  0  0  0  0  0  0  0  0  0  0
  141.2860   79.7710  216.6120 C   0  0  0  0  0  0  0  0  0  0  0  0
  140.6497   80.6163  216.9131 H   0  0  0  0  0  0  0  0  0  0  0  0
  141.2180   79.2940  215.3410 N   0  0  0  0  0  0  0  0  0  0  0  0
  141.9790   78.2480  214.9260 C   0  0  0  0  0  0  0  0  0  0  0  0
  141.9057   77.8916  213.8879 H   0  0  0  0  0  0  0  0  0  0  0  0
  142.8540   77.6260  215.8180 C   0  0  0  0  0  0  0  0  0  0  0  0
  143.4676   76.7741  215.4898 H   0  0  0  0  0  0  0  0  0  0  0  0
  142.9440   78.0940  217.1300 C   0  0  0  0  0  0  0  0  0  0  0  0
  143.6251   77.6053  217.8422 H   0  0  0  0  0  0  0  0  0  0  0  0
  1  2  1  0
  2  3  2  0
  3  4  1  0
  3  5  1  0
  5  6  2  0
  6  7  1  0
  7  8  2  0
  8  9  1  0
  8 10  1  0
 10 11  1  0
 10 12  2  0
 12 13  1  0
 12 14  1  0
 14 15  1  0
 14 16  2  0
 16 17  1  0
 17 18  2  0
 17 19  1  0
 19 20  1  0
 20 21  1  0
 20 22  1  0
 20 23  1  0
 23 24  1  0
 23 25  1  0
 25 26  1  0
 25 27  1  0
 25 28  1  0
 28 29  1  0
 28 30  1  0
 28 31  1  0
 31 32  1  0
 31 33  1  0
 31 34  1  0
 34 35  1  0
 34 36  1  0
 34 37  1  0
 37 38  1  0
 37 39  1  0
  2 40  1  0
 40 41  2  0
 41 42  1  0
 41 43  1  0
 43 44  2  0
 44 45  1  0
 44 46  1  0
 46 47  1  0
 46 48  2  0
 48 49  1  0
 19  5  1  0
 37 23  1  0
 48 40  1  0
 16  7  1  0
M  END
>  <UniqueID>  (36) 
24

>  <SMILES>  (36) 
O=c1c2ccccc2nc(/C=C/c2cccnc2)n1CC1CCCCC1

>  <Energy>  (36) 
70.21899285290385

>  <Genealogy>  (36) 
O=c1c2ccccc2nc(/C=C/c2cccnc2)n1CC1CCCCC1 (cis-trans isomerization)
O=c1c2ccccc2nc(/C=C/c2cccnc2)n1CC1CCCCC1 (3D coordinates assigned)
O=c1c2ccccc2nc(/C=C/c2cccnc2)n1CC1CCCCC1 (nonaromatic ring conformer: 70.21899285290385 kcal/mol)

>  <smiles>  (36) 
O=c1c2ccccc2nc(/C=C/c2cccnc2)n1CC1CCCCC1

>  <score_type>  (36) 
oracle

>  <origin>  (36) 
autodockgpu

>  <m_score__min__energy>  (36) 
-7.3499999999999996

>  <m_primary>  (36) 
energy

>  <meeko>  (36) 
{"free_energy": -6.5, "intermolecular_energy": -7.99, "internal_energy": -1.56, "cluster_size": 1, "cluster_id": 2, "rank_in_cluster": 1}

>  <energy>  (36) 
-6.94

>  <cluster_rmsd>  (36) 
0.81

>  <rmsd>  (36) 
272.09

>  <cluster>  (36) 
1

$$$$
XUFANRSCLZKORJ-OUKQBFOZNA-N
     RDKit          3D

 49 52  0  0  0  0  0  0  0  0999 V2000
  141.2213   71.5882  221.0436 H   0  0  0  0  0  0  0  0  0  0  0  0
  140.3040   71.8820  221.5750 C   0  0  0  0  0  0  0  0  0  0  0  0
  139.5150   70.9120  222.0600 C   0  0  0  0  0  0  0  0  0  0  0  0
  138.8113   70.4046  221.3838 H   0  0  0  0  0  0  0  0  0  0  0  0
  139.5680   70.5060  223.4880 C   0  0  0  0  0  0  0  0  0  0  0  0
  140.2530   71.3160  224.3380 N   0  0  0  0  0  0  0  0  0  0  0  0
  140.4260   71.0130  225.6430 C   0  0  0  0  0  0  0  0  0  0  0  0
  141.1280   71.8880  226.4790 C   0  0  0  0  0  0  0  0  0  0  0  0
  141.5197   72.8348  226.0789 H   0  0  0  0  0  0  0  0  0  0  0  0
  141.3320   71.5600  227.8220 C   0  0  0  0  0  0  0  0  0  0  0  0
  141.8791   72.2512  228.4800 H   0  0  0  0  0  0  0  0  0  0  0  0
  140.8410   70.3540  228.3290 C   0  0  0  0  0  0  0  0  0  0  0  0
  141.0055   70.0959  229.3856 H   0  0  0  0  0  0  0  0  0  0  0  0
  140.1410   69.4740  227.4970 C   0  0  0  0  0  0  0  0  0  0  0  0
  139.7580   68.5246  227.8994 H   0  0  0  0  0  0  0  0  0  0  0  0
  139.9260   69.8030  226.1430 C   0  0  0  0  0  0  0  0  0  0  0  0
  139.2230   68.9600  225.2670 C   0  0  0  0  0  0  0  0  0  0  0  0
  138.8300   67.8360  225.6860 O   0  0  0  0  0  0  0  0  0  0  0  0
  138.9800   69.3460  223.9640 N   0  0  0  0  0  0  0  0  0  0  0  0
  138.1120   68.4940  223.1070 C   0  0  0  0  0  0  0  0  0  0  0  0
  138.4707   68.5759  222.0704 H   0  0  0  0  0  0  0  0  0  0  0  0
  138.1831   67.4752  223.5155 H   0  0  0  0  0  0  0  0  0  0  0  0
  136.5970   68.8650  223.1250 C   0  0  0  0  0  0  0  0  0  0  0  0
  136.1120   67.9100  222.8744 H   0  0  0  0  0  0  0  0  0  0  0  0
  136.0470   69.2540  224.5300 C   0  0  0  0  0  0  0  0  0  0  0  0
  135.2823   68.5172  224.8170 H   0  0  0  0  0  0  0  0  0  0  0  0
  136.9081   69.2640  225.2144 H   0  0  0  0  0  0  0  0  0  0  0  0
  135.4160   70.6530  224.5950 C   0  0  0  0  0  0  0  0  0  0  0  0
  134.4077   70.6138  224.1572 H   0  0  0  0  0  0  0  0  0  0  0  0
  135.3661   70.9671  225.6480 H   0  0  0  0  0  0  0  0  0  0  0  0
  136.2560   71.6660  223.8240 C   0  0  0  0  0  0  0  0  0  0  0  0
  135.8167   72.6662  223.9530 H   0  0  0  0  0  0  0  0  0  0  0  0
  137.2822   71.6341  224.2189 H   0  0  0  0  0  0  0  0  0  0  0  0
  136.3070   71.3330  222.3240 C   0  0  0  0  0  0  0  0  0  0  0  0
  135.5000   71.8850  221.8201 H   0  0  0  0  0  0  0  0  0  0  0  0
  137.3068   71.6232  221.9688 H   0  0  0  0  0  0  0  0  0  0  0  0
  136.1400   69.8320  222.0050 C   0  0  0  0  0  0  0  0  0  0  0  0
  135.0748   69.6429  221.8058 H   0  0  0  0  0  0  0  0  0  0  0  0
  136.7912   69.6291  221.1420 H   0  0  0  0  0  0  0  0  0  0  0  0
  140.0090   73.3280  221.7150 C   0  0  0  0  0  0  0  0  0  0  0  0
  141.0670   74.2480  221.6550 C   0  0  0  0  0  0  0  0  0  0  0  0
  142.0940   73.8890  221.4927 H   0  0  0  0  0  0  0  0  0  0  0  0
  140.8320   75.5800  221.7960 N   0  0  0  0  0  0  0  0  0  0  0  0
  139.5810   76.0670  222.0060 C   0  0  0  0  0  0  0  0  0  0  0  0
  139.4232   77.1507  222.1090 H   0  0  0  0  0  0  0  0  0  0  0  0
  138.4970   75.1940  222.0910 C   0  0  0  0  0  0  0  0  0  0  0  0
  137.4833   75.5833  222.2667 H   0  0  0  0  0  0  0  0  0  0  0  0
  138.7100   73.8210  221.9510 C   0  0  0  0  0  0  0  0  0  0  0  0
  137.8628   73.1234  222.0250 H   0  0  0  0  0  0  0  0  0  0  0  0
  1  2  1  0
  2  3  2  0
  3  4  1  0
  3  5  1  0
  5  6  2  0
  6  7  1  0
  7  8  2  0
  8  9  1  0
  8 10  1  0
 10 11  1  0
 10 12  2  0
 12 13  1  0
 12 14  1  0
 14 15  1  0
 14 16  2  0
 16 17  1  0
 17 18  2  0
 17 19  1  0
 19 20  1  0
 20 21  1  0
 20 22  1  0
 20 23  1  0
 23 24  1  0
 23 25  1  0
 25 26  1  0
 25 27  1  0
 25 28  1  0
 28 29  1  0
 28 30  1  0
 28 31  1  0
 31 32  1  0
 31 33  1  0
 31 34  1  0
 34 35  1  0
 34 36  1  0
 34 37  1  0
 37 38  1  0
 37 39  1  0
  2 40  1  0
 40 41  2  0
 41 42  1  0
 41 43  1  0
 43 44  2  0
 44 45  1  0
 44 46  1  0
 46 47  1  0
 46 48  2  0
 48 49  1  0
 19  5  1  0
 37 23  1  0
 48 40  1  0
 16  7  1  0
M  END
>  <UniqueID>  (37) 
24

>  <SMILES>  (37) 
O=c1c2ccccc2nc(/C=C/c2cccnc2)n1CC1CCCCC1

>  <Energy>  (37) 
70.21899285290385

>  <Genealogy>  (37) 
O=c1c2ccccc2nc(/C=C/c2cccnc2)n1CC1CCCCC1 (cis-trans isomerization)
O=c1c2ccccc2nc(/C=C/c2cccnc2)n1CC1CCCCC1 (3D coordinates assigned)
O=c1c2ccccc2nc(/C=C/c2cccnc2)n1CC1CCCCC1 (nonaromatic ring conformer: 70.21899285290385 kcal/mol)

>  <smiles>  (37) 
O=c1c2ccccc2nc(/C=C/c2cccnc2)n1CC1CCCCC1

>  <score_type>  (37) 
oracle

>  <origin>  (37) 
autodockgpu

>  <m_score__min__energy>  (37) 
-7.3499999999999996

>  <m_primary>  (37) 
energy

>  <meeko>  (37) 
{"free_energy": -6.99, "intermolecular_energy": -8.48, "internal_energy": -1.93, "cluster_size": 19, "cluster_id": 1, "rank_in_cluster": 11}

>  <energy>  (37) 
-6.94

>  <cluster_rmsd>  (37) 
0.94

>  <rmsd>  (37) 
272.1

>  <cluster>  (37) 
1

$$$$
XUFANRSCLZKORJ-OUKQBFOZNA-N
     RDKit          3D

 49 52  0  0  0  0  0  0  0  0999 V2000
  141.3686   70.7095  220.9189 H   0  0  0  0  0  0  0  0  0  0  0  0
  140.6350   71.3430  221.4390 C   0  0  0  0  0  0  0  0  0  0  0  0
  139.5950   70.7450  222.0410 C   0  0  0  0  0  0  0  0  0  0  0  0
  138.6974   70.5076  221.4512 H   0  0  0  0  0  0  0  0  0  0  0  0
  139.6270   70.3960  223.4850 C   0  0  0  0  0  0  0  0  0  0  0  0
  140.3140   71.2320  224.3100 N   0  0  0  0  0  0  0  0  0  0  0  0
  140.4680   70.9790  225.6290 C   0  0  0  0  0  0  0  0  0  0  0  0
  141.1740   71.8770  226.4370 C   0  0  0  0  0  0  0  0  0  0  0  0
  141.5844   72.8009  226.0034 H   0  0  0  0  0  0  0  0  0  0  0  0
  141.3580   71.6010  227.7940 C   0  0  0  0  0  0  0  0  0  0  0  0
  141.9075   72.3107  228.4299 H   0  0  0  0  0  0  0  0  0  0  0  0
  140.8440   70.4230  228.3440 C   0  0  0  0  0  0  0  0  0  0  0  0
  140.9928   70.2052  229.4119 H   0  0  0  0  0  0  0  0  0  0  0  0
  140.1410   69.5210  227.5390 C   0  0  0  0  0  0  0  0  0  0  0  0
  139.7395   68.5942  227.9746 H   0  0  0  0  0  0  0  0  0  0  0  0
  139.9460   69.7970  226.1710 C   0  0  0  0  0  0  0  0  0  0  0  0
  139.2400   68.9300  225.3210 C   0  0  0  0  0  0  0  0  0  0  0  0
  138.8270   67.8290  225.7810 O   0  0  0  0  0  0  0  0  0  0  0  0
  139.0170   69.2650  224.0010 N   0  0  0  0  0  0  0  0  0  0  0  0
  138.1470   68.3910  223.1690 C   0  0  0  0  0  0  0  0  0  0  0  0
  138.5326   68.4071  222.1389 H   0  0  0  0  0  0  0  0  0  0  0  0
  138.1801   67.3940  223.6326 H   0  0  0  0  0  0  0  0  0  0  0  0
  136.6430   68.8030  223.1290 C   0  0  0  0  0  0  0  0  0  0  0  0
  136.1419   67.8574  222.8746 H   0  0  0  0  0  0  0  0  0  0  0  0
  136.0550   69.2270  224.5080 C   0  0  0  0  0  0  0  0  0  0  0  0
  135.2614   68.5148  224.7780 H   0  0  0  0  0  0  0  0  0  0  0  0
  136.8919   69.2246  225.2219 H   0  0  0  0  0  0  0  0  0  0  0  0
  135.4600   70.6420  224.5320 C   0  0  0  0  0  0  0  0  0  0  0  0
  134.4670   70.6230  224.0593 H   0  0  0  0  0  0  0  0  0  0  0  0
  135.3818   70.9721  225.5784 H   0  0  0  0  0  0  0  0  0  0  0  0
  136.3530   71.6220  223.7780 C   0  0  0  0  0  0  0  0  0  0  0  0
  135.9361   72.6350  223.8781 H   0  0  0  0  0  0  0  0  0  0  0  0
  137.3636   71.5697  224.2093 H   0  0  0  0  0  0  0  0  0  0  0  0
  136.4470   71.2660  222.2860 C   0  0  0  0  0  0  0  0  0  0  0  0
  135.6730   71.8318  221.7467 H   0  0  0  0  0  0  0  0  0  0  0  0
  137.4661   71.5244  221.9625 H   0  0  0  0  0  0  0  0  0  0  0  0
  136.2510   69.7650  221.9810 C   0  0  0  0  0  0  0  0  0  0  0  0
  135.1887   69.6010  221.7472 H   0  0  0  0  0  0  0  0  0  0  0  0
  136.9258   69.5327  221.1439 H   0  0  0  0  0  0  0  0  0  0  0  0
  140.8500   72.8100  221.4360 C   0  0  0  0  0  0  0  0  0  0  0  0
  139.8640   73.6430  221.9880 C   0  0  0  0  0  0  0  0  0  0  0  0
  138.9568   73.2003  222.4250 H   0  0  0  0  0  0  0  0  0  0  0  0
  140.0230   74.9930  221.9860 N   0  0  0  0  0  0  0  0  0  0  0  0
  141.1230   75.5840  221.4490 C   0  0  0  0  0  0  0  0  0  0  0  0
  141.2246   76.6791  221.4694 H   0  0  0  0  0  0  0  0  0  0  0  0
  142.1230   74.8010  220.8720 C   0  0  0  0  0  0  0  0  0  0  0  0
  143.0125   75.2745  220.4307 H   0  0  0  0  0  0  0  0  0  0  0  0
  141.9860   73.4120  220.8590 C   0  0  0  0  0  0  0  0  0  0  0  0
  142.7651   72.7870  220.3981 H   0  0  0  0  0  0  0  0  0  0  0  0
  1  2  1  0
  2  3  2  0
  3  4  1  0
  3  5  1  0
  5  6  2  0
  6  7  1  0
  7  8  2  0
  8  9  1  0
  8 10  1  0
 10 11  1  0
 10 12  2  0
 12 13  1  0
 12 14  1  0
 14 15  1  0
 14 16  2  0
 16 17  1  0
 17 18  2  0
 17 19  1  0
 19 20  1  0
 20 21  1  0
 20 22  1  0
 20 23  1  0
 23 24  1  0
 23 25  1  0
 25 26  1  0
 25 27  1  0
 25 28  1  0
 28 29  1  0
 28 30  1  0
 28 31  1  0
 31 32  1  0
 31 33  1  0
 31 34  1  0
 34 35  1  0
 34 36  1  0
 34 37  1  0
 37 38  1  0
 37 39  1  0
  2 40  1  0
 40 41  2  0
 41 42  1  0
 41 43  1  0
 43 44  2  0
 44 45  1  0
 44 46  1  0
 46 47  1  0
 46 48  2  0
 48 49  1  0
 19  5  1  0
 37 23  1  0
 48 40  1  0
 16  7  1  0
M  END
>  <UniqueID>  (38) 
24

>  <SMILES>  (38) 
O=c1c2ccccc2nc(/C=C/c2cccnc2)n1CC1CCCCC1

>  <Energy>  (38) 
70.21899285290385

>  <Genealogy>  (38) 
O=c1c2ccccc2nc(/C=C/c2cccnc2)n1CC1CCCCC1 (cis-trans isomerization)
O=c1c2ccccc2nc(/C=C/c2cccnc2)n1CC1CCCCC1 (3D coordinates assigned)
O=c1c2ccccc2nc(/C=C/c2cccnc2)n1CC1CCCCC1 (nonaromatic ring conformer: 70.21899285290385 kcal/mol)

>  <smiles>  (38) 
O=c1c2ccccc2nc(/C=C/c2cccnc2)n1CC1CCCCC1

>  <score_type>  (38) 
oracle

>  <origin>  (38) 
autodockgpu

>  <m_score__min__energy>  (38) 
-7.3499999999999996

>  <m_primary>  (38) 
energy

>  <meeko>  (38) 
{"free_energy": -7.35, "intermolecular_energy": -8.84, "internal_energy": -1.78, "cluster_size": 19, "cluster_id": 1, "rank_in_cluster": 1}

>  <energy>  (38) 
-6.93

>  <cluster_rmsd>  (38) 
0.94

>  <rmsd>  (38) 
272.1

>  <cluster>  (38) 
1

$$$$
XUFANRSCLZKORJ-OUKQBFOZNA-N
     RDKit          3D

 49 52  0  0  0  0  0  0  0  0999 V2000
  138.8095   71.7004  220.5665 H   0  0  0  0  0  0  0  0  0  0  0  0
  139.5060   72.0730  221.3320 C   0  0  0  0  0  0  0  0  0  0  0  0
  140.3180   71.1900  221.9330 C   0  0  0  0  0  0  0  0  0  0  0  0
  141.1792   70.7893  221.3781 H   0  0  0  0  0  0  0  0  0  0  0  0
  140.0830   70.7400  223.3290 C   0  0  0  0  0  0  0  0  0  0  0  0
  140.6370   71.4860  224.3230 N   0  0  0  0  0  0  0  0  0  0  0  0
  140.5460   71.1360  225.6240 C   0  0  0  0  0  0  0  0  0  0  0  0
  141.1230   71.9450  226.6100 C   0  0  0  0  0  0  0  0  0  0  0  0
  141.6303   72.8791  226.3270 H   0  0  0  0  0  0  0  0  0  0  0  0
  141.0550   71.5670  227.9530 C   0  0  0  0  0  0  0  0  0  0  0  0
  141.5035   72.2065  228.7276 H   0  0  0  0  0  0  0  0  0  0  0  0
  140.4170   70.3760  228.3130 C   0  0  0  0  0  0  0  0  0  0  0  0
  140.3664   70.0785  229.3708 H   0  0  0  0  0  0  0  0  0  0  0  0
  139.8430   69.5620  227.3310 C   0  0  0  0  0  0  0  0  0  0  0  0
  139.3449   68.6240  227.6174 H   0  0  0  0  0  0  0  0  0  0  0  0
  139.9020   69.9420  225.9750 C   0  0  0  0  0  0  0  0  0  0  0  0
  139.3340   69.1660  224.9510 C   0  0  0  0  0  0  0  0  0  0  0  0
  138.8140   68.0540  225.2460 O   0  0  0  0  0  0  0  0  0  0  0  0
  139.3580   69.6020  223.6420 N   0  0  0  0  0  0  0  0  0  0  0  0
  138.6250   68.8260  222.6060 C   0  0  0  0  0  0  0  0  0  0  0  0
  139.1959   68.8858  221.6676 H   0  0  0  0  0  0  0  0  0  0  0  0
  138.5329   67.8021  222.9973 H   0  0  0  0  0  0  0  0  0  0  0  0
  137.1720   69.3150  222.3200 C   0  0  0  0  0  0  0  0  0  0  0  0
  137.1365   69.3334  221.2207 H   0  0  0  0  0  0  0  0  0  0  0  0
  136.0590   68.3150  222.7540 C   0  0  0  0  0  0  0  0  0  0  0  0
  135.5152   67.9926  221.8538 H   0  0  0  0  0  0  0  0  0  0  0  0
  136.5643   67.4840  223.2680 H   0  0  0  0  0  0  0  0  0  0  0  0
  135.0430   68.8950  223.7480 C   0  0  0  0  0  0  0  0  0  0  0  0
  134.3283   69.5294  223.2033 H   0  0  0  0  0  0  0  0  0  0  0  0
  134.5200   68.0625  224.2414 H   0  0  0  0  0  0  0  0  0  0  0  0
  135.7410   69.7320  224.8150 C   0  0  0  0  0  0  0  0  0  0  0  0
  134.9946   70.0689  225.5494 H   0  0  0  0  0  0  0  0  0  0  0  0
  136.5093   69.1076  225.2943 H   0  0  0  0  0  0  0  0  0  0  0  0
  136.4320   70.9620  224.2060 C   0  0  0  0  0  0  0  0  0  0  0  0
  135.7322   71.8094  224.2520 H   0  0  0  0  0  0  0  0  0  0  0  0
  137.3470   71.1340  224.7918 H   0  0  0  0  0  0  0  0  0  0  0  0
  136.8720   70.7760  222.7380 C   0  0  0  0  0  0  0  0  0  0  0  0
  136.0682   71.1570  222.0909 H   0  0  0  0  0  0  0  0  0  0  0  0
  137.8192   71.3249  222.6311 H   0  0  0  0  0  0  0  0  0  0  0  0
  139.4950   73.5230  221.6420 C   0  0  0  0  0  0  0  0  0  0  0  0
  140.7120   74.2220  221.6650 C   0  0  0  0  0  0  0  0  0  0  0  0
  141.6502   73.6928  221.4421 H   0  0  0  0  0  0  0  0  0  0  0  0
  140.7390   75.5490  221.9610 N   0  0  0  0  0  0  0  0  0  0  0  0
  139.6050   76.2400  222.2510 C   0  0  0  0  0  0  0  0  0  0  0  0
  139.6597   77.3146  222.4796 H   0  0  0  0  0  0  0  0  0  0  0  0
  138.3720   75.5880  222.2590 C   0  0  0  0  0  0  0  0  0  0  0  0
  137.4525   76.1419  222.4993 H   0  0  0  0  0  0  0  0  0  0  0  0
  138.3160   74.2250  221.9590 C   0  0  0  0  0  0  0  0  0  0  0  0
  137.3498   73.6993  221.9704 H   0  0  0  0  0  0  0  0  0  0  0  0
  1  2  1  0
  2  3  2  0
  3  4  1  0
  3  5  1  0
  5  6  2  0
  6  7  1  0
  7  8  2  0
  8  9  1  0
  8 10  1  0
 10 11  1  0
 10 12  2  0
 12 13  1  0
 12 14  1  0
 14 15  1  0
 14 16  2  0
 16 17  1  0
 17 18  2  0
 17 19  1  0
 19 20  1  0
 20 21  1  0
 20 22  1  0
 20 23  1  0
 23 24  1  0
 23 25  1  0
 25 26  1  0
 25 27  1  0
 25 28  1  0
 28 29  1  0
 28 30  1  0
 28 31  1  0
 31 32  1  0
 31 33  1  0
 31 34  1  0
 34 35  1  0
 34 36  1  0
 34 37  1  0
 37 38  1  0
 37 39  1  0
  2 40  1  0
 40 41  2  0
 41 42  1  0
 41 43  1  0
 43 44  2  0
 44 45  1  0
 44 46  1  0
 46 47  1  0
 46 48  2  0
 48 49  1  0
 19  5  1  0
 37 23  1  0
 48 40  1  0
 16  7  1  0
M  END
>  <UniqueID>  (39) 
24

>  <SMILES>  (39) 
O=c1c2ccccc2nc(/C=C/c2cccnc2)n1CC1CCCCC1

>  <Energy>  (39) 
70.21899285290385

>  <Genealogy>  (39) 
O=c1c2ccccc2nc(/C=C/c2cccnc2)n1CC1CCCCC1 (cis-trans isomerization)
O=c1c2ccccc2nc(/C=C/c2cccnc2)n1CC1CCCCC1 (3D coordinates assigned)
O=c1c2ccccc2nc(/C=C/c2cccnc2)n1CC1CCCCC1 (nonaromatic ring conformer: 70.21899285290385 kcal/mol)

>  <smiles>  (39) 
O=c1c2ccccc2nc(/C=C/c2cccnc2)n1CC1CCCCC1

>  <score_type>  (39) 
oracle

>  <origin>  (39) 
autodockgpu

>  <m_score__min__energy>  (39) 
-7.3499999999999996

>  <m_primary>  (39) 
energy

>  <meeko>  (39) 
{"free_energy": -6.95, "intermolecular_energy": -8.44, "internal_energy": -1.89, "cluster_size": 19, "cluster_id": 1, "rank_in_cluster": 14}

>  <energy>  (39) 
-6.87

>  <cluster_rmsd>  (39) 
0.9

>  <rmsd>  (39) 
272.13

>  <cluster>  (39) 
1

$$$$
XUFANRSCLZKORJ-OUKQBFOZNA-N
     RDKit          3D

 49 52  0  0  0  0  0  0  0  0999 V2000
  137.9237   72.6218  221.9096 H   0  0  0  0  0  0  0  0  0  0  0  0
  139.0200   72.5920  221.9950 C   0  0  0  0  0  0  0  0  0  0  0  0
  139.6080   71.4030  222.2040 C   0  0  0  0  0  0  0  0  0  0  0  0
  140.0334   70.8570  221.3490 H   0  0  0  0  0  0  0  0  0  0  0  0
  139.6980   70.8070  223.5620 C   0  0  0  0  0  0  0  0  0  0  0  0
  140.3120   71.5470  224.5240 N   0  0  0  0  0  0  0  0  0  0  0  0
  140.5110   71.0790  225.7760 C   0  0  0  0  0  0  0  0  0  0  0  0
  141.1380   71.8860  226.7330 C   0  0  0  0  0  0  0  0  0  0  0  0
  141.4471   72.9091  226.4728 H   0  0  0  0  0  0  0  0  0  0  0  0
  141.3710   71.3910  228.0190 C   0  0  0  0  0  0  0  0  0  0  0  0
  141.8583   72.0268  228.7728 H   0  0  0  0  0  0  0  0  0  0  0  0
  140.9850   70.0880  228.3480 C   0  0  0  0  0  0  0  0  0  0  0  0
  141.1713   69.6996  229.3601 H   0  0  0  0  0  0  0  0  0  0  0  0
  140.3630   69.2780  227.3940 C   0  0  0  0  0  0  0  0  0  0  0  0
  140.0641   68.2522  227.6556 H   0  0  0  0  0  0  0  0  0  0  0  0
  140.1180   69.7730  226.0970 C   0  0  0  0  0  0  0  0  0  0  0  0
  139.4890   69.0050  225.1040 C   0  0  0  0  0  0  0  0  0  0  0  0
  139.1940   67.8030  225.3580 O   0  0  0  0  0  0  0  0  0  0  0  0
  139.2120   69.5470  223.8650 N   0  0  0  0  0  0  0  0  0  0  0  0
  138.4190   68.7520  222.8880 C   0  0  0  0  0  0  0  0  0  0  0  0
  138.6953   69.0820  221.8757 H   0  0  0  0  0  0  0  0  0  0  0  0
  138.6587   67.6966  223.0847 H   0  0  0  0  0  0  0  0  0  0  0  0
  136.8720   68.8810  223.0330 C   0  0  0  0  0  0  0  0  0  0  0  0
  136.5287   67.8488  222.8698 H   0  0  0  0  0  0  0  0  0  0  0  0
  136.3890   69.2580  224.4660 C   0  0  0  0  0  0  0  0  0  0  0  0
  135.7814   68.4275  224.8546 H   0  0  0  0  0  0  0  0  0  0  0  0
  137.2928   69.4425  225.0652 H   0  0  0  0  0  0  0  0  0  0  0  0
  135.5480   70.5410  224.5310 C   0  0  0  0  0  0  0  0  0  0  0  0
  134.5255   70.3187  224.1917 H   0  0  0  0  0  0  0  0  0  0  0  0
  135.5387   70.9022  225.5700 H   0  0  0  0  0  0  0  0  0  0  0  0
  136.1430   71.6290  223.6430 C   0  0  0  0  0  0  0  0  0  0  0  0
  135.5599   72.5529  223.7707 H   0  0  0  0  0  0  0  0  0  0  0  0
  137.1908   71.7822  223.9408 H   0  0  0  0  0  0  0  0  0  0  0  0
  136.1180   71.2240  222.1610 C   0  0  0  0  0  0  0  0  0  0  0  0
  135.1920   71.6131  221.7125 H   0  0  0  0  0  0  0  0  0  0  0  0
  137.0239   71.6469  221.7022 H   0  0  0  0  0  0  0  0  0  0  0  0
  136.1690   69.6990  221.9210 C   0  0  0  0  0  0  0  0  0  0  0  0
  135.1354   69.3336  221.8312 H   0  0  0  0  0  0  0  0  0  0  0  0
  136.7667   69.5526  221.0093 H   0  0  0  0  0  0  0  0  0  0  0  0
  139.7670   73.8670  221.8730 C   0  0  0  0  0  0  0  0  0  0  0  0
  139.1690   75.0510  222.3300 C   0  0  0  0  0  0  0  0  0  0  0  0
  138.1667   75.0175  222.7820 H   0  0  0  0  0  0  0  0  0  0  0  0
  139.8200   76.2400  222.2180 N   0  0  0  0  0  0  0  0  0  0  0  0
  141.0550   76.3290  221.6590 C   0  0  0  0  0  0  0  0  0  0  0  0
  141.5579   77.3048  221.5894 H   0  0  0  0  0  0  0  0  0  0  0  0
  141.6860   75.1830  221.1730 C   0  0  0  0  0  0  0  0  0  0  0  0
  142.6836   75.2509  220.7145 H   0  0  0  0  0  0  0  0  0  0  0  0
  141.0400   73.9500  221.2740 C   0  0  0  0  0  0  0  0  0  0  0  0
  141.5248   73.0422  220.8857 H   0  0  0  0  0  0  0  0  0  0  0  0
  1  2  1  0
  2  3  2  0
  3  4  1  0
  3  5  1  0
  5  6  2  0
  6  7  1  0
  7  8  2  0
  8  9  1  0
  8 10  1  0
 10 11  1  0
 10 12  2  0
 12 13  1  0
 12 14  1  0
 14 15  1  0
 14 16  2  0
 16 17  1  0
 17 18  2  0
 17 19  1  0
 19 20  1  0
 20 21  1  0
 20 22  1  0
 20 23  1  0
 23 24  1  0
 23 25  1  0
 25 26  1  0
 25 27  1  0
 25 28  1  0
 28 29  1  0
 28 30  1  0
 28 31  1  0
 31 32  1  0
 31 33  1  0
 31 34  1  0
 34 35  1  0
 34 36  1  0
 34 37  1  0
 37 38  1  0
 37 39  1  0
  2 40  1  0
 40 41  2  0
 41 42  1  0
 41 43  1  0
 43 44  2  0
 44 45  1  0
 44 46  1  0
 46 47  1  0
 46 48  2  0
 48 49  1  0
 19  5  1  0
 37 23  1  0
 48 40  1  0
 16  7  1  0
M  END
>  <UniqueID>  (40) 
24

>  <SMILES>  (40) 
O=c1c2ccccc2nc(/C=C/c2cccnc2)n1CC1CCCCC1

>  <Energy>  (40) 
70.21899285290385

>  <Genealogy>  (40) 
O=c1c2ccccc2nc(/C=C/c2cccnc2)n1CC1CCCCC1 (cis-trans isomerization)
O=c1c2ccccc2nc(/C=C/c2cccnc2)n1CC1CCCCC1 (3D coordinates assigned)
O=c1c2ccccc2nc(/C=C/c2cccnc2)n1CC1CCCCC1 (nonaromatic ring conformer: 70.21899285290385 kcal/mol)

>  <smiles>  (40) 
O=c1c2ccccc2nc(/C=C/c2cccnc2)n1CC1CCCCC1

>  <score_type>  (40) 
oracle

>  <origin>  (40) 
autodockgpu

>  <m_score__min__energy>  (40) 
-7.3499999999999996

>  <m_primary>  (40) 
energy

>  <meeko>  (40) 
{"free_energy": -7.14, "intermolecular_energy": -8.63, "internal_energy": -1.68, "cluster_size": 19, "cluster_id": 1, "rank_in_cluster": 7}

>  <energy>  (40) 
-6.5

>  <cluster_rmsd>  (40) 
0.0

>  <rmsd>  (40) 
272.19

>  <cluster>  (40) 
2

$$$$
XUFANRSCLZKORJ-OUKQBFOZNA-N
     RDKit          3D

 49 52  0  0  0  0  0  0  0  0999 V2000
  141.5164   70.7553  220.9111 H   0  0  0  0  0  0  0  0  0  0  0  0
  140.7370   71.3440  221.4170 C   0  0  0  0  0  0  0  0  0  0  0  0
  139.7170   70.6860  221.9890 C   0  0  0  0  0  0  0  0  0  0  0  0
  138.8652   70.3721  221.3677 H   0  0  0  0  0  0  0  0  0  0  0  0
  139.7100   70.3710  223.4410 C   0  0  0  0  0  0  0  0  0  0  0  0
  140.3970   71.2110  224.2610 N   0  0  0  0  0  0  0  0  0  0  0  0
  140.5170   70.9870  225.5880 C   0  0  0  0  0  0  0  0  0  0  0  0
  141.2230   71.8900  226.3900 C   0  0  0  0  0  0  0  0  0  0  0  0
  141.6603   72.7956  225.9443 H   0  0  0  0  0  0  0  0  0  0  0  0
  141.3730   71.6420  227.7570 C   0  0  0  0  0  0  0  0  0  0  0  0
  141.9240   72.3550  228.3879 H   0  0  0  0  0  0  0  0  0  0  0  0
  140.8230   70.4880  228.3230 C   0  0  0  0  0  0  0  0  0  0  0  0
  140.9433   70.2936  229.3990 H   0  0  0  0  0  0  0  0  0  0  0  0
  140.1200   69.5800  227.5240 C   0  0  0  0  0  0  0  0  0  0  0  0
  139.6922   68.6710  227.9720 H   0  0  0  0  0  0  0  0  0  0  0  0
  139.9590   69.8280  226.1460 C   0  0  0  0  0  0  0  0  0  0  0  0
  139.2550   68.9550  225.3010 C   0  0  0  0  0  0  0  0  0  0  0  0
  138.8100   67.8740  225.7770 O   0  0  0  0  0  0  0  0  0  0  0  0
  139.0670   69.2640  223.9690 N   0  0  0  0  0  0  0  0  0  0  0  0
  138.1970   68.3880  223.1380 C   0  0  0  0  0  0  0  0  0  0  0  0
  138.6036   68.3741  222.1160 H   0  0  0  0  0  0  0  0  0  0  0  0
  138.2015   67.4010  223.6237 H   0  0  0  0  0  0  0  0  0  0  0  0
  136.7030   68.8270  223.0580 C   0  0  0  0  0  0  0  0  0  0  0  0
  136.1975   67.9004  222.7482 H   0  0  0  0  0  0  0  0  0  0  0  0
  136.0690   69.2070  224.4290 C   0  0  0  0  0  0  0  0  0  0  0  0
  135.2543   68.4987  224.6400 H   0  0  0  0  0  0  0  0  0  0  0  0
  136.8777   69.1623  225.1733 H   0  0  0  0  0  0  0  0  0  0  0  0
  135.4960   70.6300  224.4870 C   0  0  0  0  0  0  0  0  0  0  0  0
  134.5212   70.6467  223.9777 H   0  0  0  0  0  0  0  0  0  0  0  0
  135.3836   70.9207  225.5419 H   0  0  0  0  0  0  0  0  0  0  0  0
  136.4330   71.6230  223.8050 C   0  0  0  0  0  0  0  0  0  0  0  0
  136.0289   72.6385  223.9293 H   0  0  0  0  0  0  0  0  0  0  0  0
  137.4256   71.5358  224.2711 H   0  0  0  0  0  0  0  0  0  0  0  0
  136.5780   71.3240  222.3050 C   0  0  0  0  0  0  0  0  0  0  0  0
  135.8341   71.9237  221.7599 H   0  0  0  0  0  0  0  0  0  0  0  0
  137.6126   71.5772  222.0301 H   0  0  0  0  0  0  0  0  0  0  0  0
  136.3700   69.8400  221.9340 C   0  0  0  0  0  0  0  0  0  0  0  0
  135.3149   69.7036  221.6544 H   0  0  0  0  0  0  0  0  0  0  0  0
  137.0722   69.6286  221.1141 H   0  0  0  0  0  0  0  0  0  0  0  0
  140.8720   72.8210  221.4290 C   0  0  0  0  0  0  0  0  0  0  0  0
  139.8650   73.5910  222.0320 C   0  0  0  0  0  0  0  0  0  0  0  0
  139.0008   73.0930  222.4958 H   0  0  0  0  0  0  0  0  0  0  0  0
  139.9500   74.9470  222.0470 N   0  0  0  0  0  0  0  0  0  0  0  0
  140.9950   75.6050  221.4790 C   0  0  0  0  0  0  0  0  0  0  0  0
  141.0382   76.7036  221.5151 H   0  0  0  0  0  0  0  0  0  0  0  0
  142.0130   74.8870  220.8500 C   0  0  0  0  0  0  0  0  0  0  0  0
  142.8572   75.4148  220.3822 H   0  0  0  0  0  0  0  0  0  0  0  0
  141.9500   73.4920  220.8200 C   0  0  0  0  0  0  0  0  0  0  0  0
  142.7433   72.9168  220.3201 H   0  0  0  0  0  0  0  0  0  0  0  0
  1  2  1  0
  2  3  2  0
  3  4  1  0
  3  5  1  0
  5  6  2  0
  6  7  1  0
  7  8  2  0
  8  9  1  0
  8 10  1  0
 10 11  1  0
 10 12  2  0
 12 13  1  0
 12 14  1  0
 14 15  1  0
 14 16  2  0
 16 17  1  0
 17 18  2  0
 17 19  1  0
 19 20  1  0
 20 21  1  0
 20 22  1  0
 20 23  1  0
 23 24  1  0
 23 25  1  0
 25 26  1  0
 25 27  1  0
 25 28  1  0
 28 29  1  0
 28 30  1  0
 28 31  1  0
 31 32  1  0
 31 33  1  0
 31 34  1  0
 34 35  1  0
 34 36  1  0
 34 37  1  0
 37 38  1  0
 37 39  1  0
  2 40  1  0
 40 41  2  0
 41 42  1  0
 41 43  1  0
 43 44  2  0
 44 45  1  0
 44 46  1  0
 46 47  1  0
 46 48  2  0
 48 49  1  0
 19  5  1  0
 37 23  1  0
 48 40  1  0
 16  7  1  0
M  END
>  <UniqueID>  (41) 
25

>  <SMILES>  (41) 
O=c1c2ccccc2nc(/C=C/c2cccnc2)n1CC1CCCCC1

>  <Energy>  (41) 
74.34075685695049

>  <Genealogy>  (41) 
O=c1c2ccccc2nc(/C=C/c2cccnc2)n1CC1CCCCC1 (cis-trans isomerization)
O=c1c2ccccc2nc(/C=C/c2cccnc2)n1CC1CCCCC1 (3D coordinates assigned)
O=c1c2ccccc2nc(/C=C/c2cccnc2)n1CC1CCCCC1 (nonaromatic ring conformer: 74.34075685695049 kcal/mol)

>  <smiles>  (41) 
O=c1c2ccccc2nc(/C=C/c2cccnc2)n1CC1CCCCC1

>  <score_type>  (41) 
oracle

>  <origin>  (41) 
autodockgpu

>  <m_score__min__energy>  (41) 
-7.3499999999999996

>  <m_primary>  (41) 
energy

>  <meeko>  (41) 
{"free_energy": -7.3, "intermolecular_energy": -8.79, "internal_energy": -1.82, "cluster_size": 19, "cluster_id": 1, "rank_in_cluster": 3}

>  <energy>  (41) 
-7.35

>  <cluster_rmsd>  (41) 
0.0

>  <rmsd>  (41) 
272.11

>  <cluster>  (41) 
1

$$$$
XUFANRSCLZKORJ-OUKQBFOZNA-N
     RDKit          3D

 49 52  0  0  0  0  0  0  0  0999 V2000
  139.1340   72.0502  220.7068 H   0  0  0  0  0  0  0  0  0  0  0  0
  139.8510   72.4350  221.4470 C   0  0  0  0  0  0  0  0  0  0  0  0
  140.6410   71.5550  222.0800 C   0  0  0  0  0  0  0  0  0  0  0  0
  141.5869   71.2479  221.6100 H   0  0  0  0  0  0  0  0  0  0  0  0
  140.2690   70.9850  223.4010 C   0  0  0  0  0  0  0  0  0  0  0  0
  140.7090   71.6440  224.5070 N   0  0  0  0  0  0  0  0  0  0  0  0
  140.4900   71.1810  225.7570 C   0  0  0  0  0  0  0  0  0  0  0  0
  140.9520   71.9040  226.8630 C   0  0  0  0  0  0  0  0  0  0  0  0
  141.4731   72.8613  226.7148 H   0  0  0  0  0  0  0  0  0  0  0  0
  140.7520   71.4110  228.1550 C   0  0  0  0  0  0  0  0  0  0  0  0
  141.1112   71.9822  229.0237 H   0  0  0  0  0  0  0  0  0  0  0  0
  140.0950   70.1910  228.3430 C   0  0  0  0  0  0  0  0  0  0  0  0
  139.9396   69.8028  229.3604 H   0  0  0  0  0  0  0  0  0  0  0  0
  139.6350   69.4630  227.2410 C   0  0  0  0  0  0  0  0  0  0  0  0
  139.1218   68.5020  227.3930 H   0  0  0  0  0  0  0  0  0  0  0  0
  139.8280   69.9590  225.9360 C   0  0  0  0  0  0  0  0  0  0  0  0
  139.3780   69.2730  224.7960 C   0  0  0  0  0  0  0  0  0  0  0  0
  138.8440   68.1380  224.9390 O   0  0  0  0  0  0  0  0  0  0  0  0
  139.5310   69.8210  223.5390 N   0  0  0  0  0  0  0  0  0  0  0  0
  138.9180   69.1350  222.3700 C   0  0  0  0  0  0  0  0  0  0  0  0
  139.4998   69.4005  221.4750 H   0  0  0  0  0  0  0  0  0  0  0  0
  138.9368   68.0596  222.6003 H   0  0  0  0  0  0  0  0  0  0  0  0
  137.4240   69.4970  222.1010 C   0  0  0  0  0  0  0  0  0  0  0  0
  137.3413   69.3822  221.0101 H   0  0  0  0  0  0  0  0  0  0  0  0
  136.4000   68.4900  222.7030 C   0  0  0  0  0  0  0  0  0  0  0  0
  135.8420   68.0292  221.8746 H   0  0  0  0  0  0  0  0  0  0  0  0
  136.9810   67.7595  223.2851 H   0  0  0  0  0  0  0  0  0  0  0  0
  135.3890   69.1210  223.6720 C   0  0  0  0  0  0  0  0  0  0  0  0
  134.6114   69.6408  223.0930 H   0  0  0  0  0  0  0  0  0  0  0  0
  134.9435   68.3228  224.2839 H   0  0  0  0  0  0  0  0  0  0  0  0
  136.0740   70.1210  224.5990 C   0  0  0  0  0  0  0  0  0  0  0  0
  135.3381   70.4973  225.3248 H   0  0  0  0  0  0  0  0  0  0  0  0
  136.9012   69.6064  225.1099 H   0  0  0  0  0  0  0  0  0  0  0  0
  136.6560   71.3090  223.8170 C   0  0  0  0  0  0  0  0  0  0  0  0
  135.9044   72.1119  223.7988 H   0  0  0  0  0  0  0  0  0  0  0  0
  137.5817   71.6047  224.3324 H   0  0  0  0  0  0  0  0  0  0  0  0
  137.0450   70.9760  222.3600 C   0  0  0  0  0  0  0  0  0  0  0  0
  136.1908   71.2267  221.7138 H   0  0  0  0  0  0  0  0  0  0  0  0
  137.9480   71.5654  222.1425 H   0  0  0  0  0  0  0  0  0  0  0  0
  139.8900   73.8970  221.6890 C   0  0  0  0  0  0  0  0  0  0  0  0
  138.6960   74.5680  221.9970 C   0  0  0  0  0  0  0  0  0  0  0  0
  137.7546   74.0033  222.0673 H   0  0  0  0  0  0  0  0  0  0  0  0
  138.6950   75.9110  222.2090 N   0  0  0  0  0  0  0  0  0  0  0  0
  139.8320   76.6490  222.1250 C   0  0  0  0  0  0  0  0  0  0  0  0
  139.7986   77.7329  222.3093 H   0  0  0  0  0  0  0  0  0  0  0  0
  141.0430   76.0330  221.8050 C   0  0  0  0  0  0  0  0  0  0  0  0
  141.9654   76.6277  221.7299 H   0  0  0  0  0  0  0  0  0  0  0  0
  141.0730   74.6550  221.5810 C   0  0  0  0  0  0  0  0  0  0  0  0
  142.0206   74.1610  221.3201 H   0  0  0  0  0  0  0  0  0  0  0  0
  1  2  1  0
  2  3  2  0
  3  4  1  0
  3  5  1  0
  5  6  2  0
  6  7  1  0
  7  8  2  0
  8  9  1  0
  8 10  1  0
 10 11  1  0
 10 12  2  0
 12 13  1  0
 12 14  1  0
 14 15  1  0
 14 16  2  0
 16 17  1  0
 17 18  2  0
 17 19  1  0
 19 20  1  0
 20 21  1  0
 20 22  1  0
 20 23  1  0
 23 24  1  0
 23 25  1  0
 25 26  1  0
 25 27  1  0
 25 28  1  0
 28 29  1  0
 28 30  1  0
 28 31  1  0
 31 32  1  0
 31 33  1  0
 31 34  1  0
 34 35  1  0
 34 36  1  0
 34 37  1  0
 37 38  1  0
 37 39  1  0
  2 40  1  0
 40 41  2  0
 41 42  1  0
 41 43  1  0
 43 44  2  0
 44 45  1  0
 44 46  1  0
 46 47  1  0
 46 48  2  0
 48 49  1  0
 19  5  1  0
 37 23  1  0
 48 40  1  0
 16  7  1  0
M  END
>  <UniqueID>  (42) 
25

>  <SMILES>  (42) 
O=c1c2ccccc2nc(/C=C/c2cccnc2)n1CC1CCCCC1

>  <Energy>  (42) 
74.34075685695049

>  <Genealogy>  (42) 
O=c1c2ccccc2nc(/C=C/c2cccnc2)n1CC1CCCCC1 (cis-trans isomerization)
O=c1c2ccccc2nc(/C=C/c2cccnc2)n1CC1CCCCC1 (3D coordinates assigned)
O=c1c2ccccc2nc(/C=C/c2cccnc2)n1CC1CCCCC1 (nonaromatic ring conformer: 74.34075685695049 kcal/mol)

>  <smiles>  (42) 
O=c1c2ccccc2nc(/C=C/c2cccnc2)n1CC1CCCCC1

>  <score_type>  (42) 
oracle

>  <origin>  (42) 
autodockgpu

>  <m_score__min__energy>  (42) 
-7.3499999999999996

>  <m_primary>  (42) 
energy

>  <meeko>  (42) 
{"free_energy": -6.94, "intermolecular_energy": -8.43, "internal_energy": -1.88, "cluster_size": 19, "cluster_id": 1, "rank_in_cluster": 17}

>  <energy>  (42) 
-7.32

>  <cluster_rmsd>  (42) 
0.08

>  <rmsd>  (42) 
272.11

>  <cluster>  (42) 
1

$$$$
XUFANRSCLZKORJ-OUKQBFOZNA-N
     RDKit          3D

 49 52  0  0  0  0  0  0  0  0999 V2000
  138.6125   72.2681  221.0604 H   0  0  0  0  0  0  0  0  0  0  0  0
  139.5000   72.6210  221.6060 C   0  0  0  0  0  0  0  0  0  0  0  0
  140.3430   71.7040  222.1050 C   0  0  0  0  0  0  0  0  0  0  0  0
  141.2280   71.4138  221.5197 H   0  0  0  0  0  0  0  0  0  0  0  0
  140.1100   71.0710  223.4290 C   0  0  0  0  0  0  0  0  0  0  0  0
  140.6090   71.7110  224.5200 N   0  0  0  0  0  0  0  0  0  0  0  0
  140.5170   71.1960  225.7650 C   0  0  0  0  0  0  0  0  0  0  0  0
  141.0360   71.9020  226.8560 C   0  0  0  0  0  0  0  0  0  0  0  0
  141.4983   72.8884  226.7031 H   0  0  0  0  0  0  0  0  0  0  0  0
  140.9670   71.3540  228.1400 C   0  0  0  0  0  0  0  0  0  0  0  0
  141.3702   71.9117  228.9981 H   0  0  0  0  0  0  0  0  0  0  0  0
  140.3860   70.0980  228.3340 C   0  0  0  0  0  0  0  0  0  0  0  0
  140.3351   69.6673  229.3449 H   0  0  0  0  0  0  0  0  0  0  0  0
  139.8690   69.3870  227.2460 C   0  0  0  0  0  0  0  0  0  0  0  0
  139.4150   68.3973  227.4023 H   0  0  0  0  0  0  0  0  0  0  0  0
  139.9290   69.9370  225.9500 C   0  0  0  0  0  0  0  0  0  0  0  0
  139.4170   69.2700  224.8250 C   0  0  0  0  0  0  0  0  0  0  0  0
  138.9500   68.1060  224.9670 O   0  0  0  0  0  0  0  0  0  0  0  0
  139.4390   69.8690  223.5810 N   0  0  0  0  0  0  0  0  0  0  0  0
  138.7630   69.1940  222.4410 C   0  0  0  0  0  0  0  0  0  0  0  0
  139.2995   69.4622  221.5189 H   0  0  0  0  0  0  0  0  0  0  0  0
  138.7876   68.1169  222.6630 H   0  0  0  0  0  0  0  0  0  0  0  0
  137.2600   69.5660  222.2520 C   0  0  0  0  0  0  0  0  0  0  0  0
  137.1463   69.5572  221.1579 H   0  0  0  0  0  0  0  0  0  0  0  0
  136.2600   68.4950  222.7810 C   0  0  0  0  0  0  0  0  0  0  0  0
  135.6807   68.1128  221.9276 H   0  0  0  0  0  0  0  0  0  0  0  0
  136.8620   67.7158  223.2713 H   0  0  0  0  0  0  0  0  0  0  0  0
  135.2750   69.0190  223.8350 C   0  0  0  0  0  0  0  0  0  0  0  0
  134.4779   69.5863  223.3322 H   0  0  0  0  0  0  0  0  0  0  0  0
  134.8527   68.1606  224.3780 H   0  0  0  0  0  0  0  0  0  0  0  0
  135.9800   69.9290  224.8360 C   0  0  0  0  0  0  0  0  0  0  0  0
  135.2634   70.2247  225.6164 H   0  0  0  0  0  0  0  0  0  0  0  0
  136.8254   69.3749  225.2698 H   0  0  0  0  0  0  0  0  0  0  0  0
  136.5300   71.1940  224.1580 C   0  0  0  0  0  0  0  0  0  0  0  0
  135.7720   71.9870  224.2398 H   0  0  0  0  0  0  0  0  0  0  0  0
  137.4680   71.4476  224.6736 H   0  0  0  0  0  0  0  0  0  0  0  0
  136.8790   71.0090  222.6650 C   0  0  0  0  0  0  0  0  0  0  0  0
  136.0050   71.3137  222.0707 H   0  0  0  0  0  0  0  0  0  0  0  0
  137.7713   71.6254  222.4809 H   0  0  0  0  0  0  0  0  0  0  0  0
  139.6980   74.0830  221.7490 C   0  0  0  0  0  0  0  0  0  0  0  0
  138.5870   74.8970  222.0180 C   0  0  0  0  0  0  0  0  0  0  0  0
  137.5918   74.4425  222.1317 H   0  0  0  0  0  0  0  0  0  0  0  0
  138.7320   76.2430  222.1390 N   0  0  0  0  0  0  0  0  0  0  0  0
  139.9400   76.8490  221.9980 C   0  0  0  0  0  0  0  0  0  0  0  0
  140.0245   77.9401  222.1093 H   0  0  0  0  0  0  0  0  0  0  0  0
  141.0730   76.0870  221.7120 C   0  0  0  0  0  0  0  0  0  0  0  0
  142.0522   76.5730  221.5900 H   0  0  0  0  0  0  0  0  0  0  0  0
  140.9530   74.7020  221.5820 C   0  0  0  0  0  0  0  0  0  0  0  0
  141.8391   74.0933  221.3490 H   0  0  0  0  0  0  0  0  0  0  0  0
  1  2  1  0
  2  3  2  0
  3  4  1  0
  3  5  1  0
  5  6  2  0
  6  7  1  0
  7  8  2  0
  8  9  1  0
  8 10  1  0
 10 11  1  0
 10 12  2  0
 12 13  1  0
 12 14  1  0
 14 15  1  0
 14 16  2  0
 16 17  1  0
 17 18  2  0
 17 19  1  0
 19 20  1  0
 20 21  1  0
 20 22  1  0
 20 23  1  0
 23 24  1  0
 23 25  1  0
 25 26  1  0
 25 27  1  0
 25 28  1  0
 28 29  1  0
 28 30  1  0
 28 31  1  0
 31 32  1  0
 31 33  1  0
 31 34  1  0
 34 35  1  0
 34 36  1  0
 34 37  1  0
 37 38  1  0
 37 39  1  0
  2 40  1  0
 40 41  2  0
 41 42  1  0
 41 43  1  0
 43 44  2  0
 44 45  1  0
 44 46  1  0
 46 47  1  0
 46 48  2  0
 48 49  1  0
 19  5  1  0
 37 23  1  0
 48 40  1  0
 16  7  1  0
M  END
>  <UniqueID>  (43) 
25

>  <SMILES>  (43) 
O=c1c2ccccc2nc(/C=C/c2cccnc2)n1CC1CCCCC1

>  <Energy>  (43) 
74.34075685695049

>  <Genealogy>  (43) 
O=c1c2ccccc2nc(/C=C/c2cccnc2)n1CC1CCCCC1 (cis-trans isomerization)
O=c1c2ccccc2nc(/C=C/c2cccnc2)n1CC1CCCCC1 (3D coordinates assigned)
O=c1c2ccccc2nc(/C=C/c2cccnc2)n1CC1CCCCC1 (nonaromatic ring conformer: 74.34075685695049 kcal/mol)

>  <smiles>  (43) 
O=c1c2ccccc2nc(/C=C/c2cccnc2)n1CC1CCCCC1

>  <score_type>  (43) 
oracle

>  <origin>  (43) 
autodockgpu

>  <m_score__min__energy>  (43) 
-7.3499999999999996

>  <m_primary>  (43) 
energy

>  <meeko>  (43) 
{"free_energy": -6.99, "intermolecular_energy": -8.48, "internal_energy": -1.78, "cluster_size": 19, "cluster_id": 1, "rank_in_cluster": 12}

>  <energy>  (43) 
-7.3

>  <cluster_rmsd>  (43) 
0.09

>  <rmsd>  (43) 
272.11

>  <cluster>  (43) 
1

$$$$
XUFANRSCLZKORJ-OUKQBFOZNA-N
     RDKit          3D

 49 52  0  0  0  0  0  0  0  0999 V2000
  141.4745   70.7365  220.9014 H   0  0  0  0  0  0  0  0  0  0  0  0
  140.7080   71.3380  221.4120 C   0  0  0  0  0  0  0  0  0  0  0  0
  139.6860   70.6960  222.0010 C   0  0  0  0  0  0  0  0  0  0  0  0
  138.8221   70.3902  221.3926 H   0  0  0  0  0  0  0  0  0  0  0  0
  139.6940   70.3890  223.4540 C   0  0  0  0  0  0  0  0  0  0  0  0
  140.3820   71.2380  224.2640 N   0  0  0  0  0  0  0  0  0  0  0  0
  140.5140   71.0220  225.5910 C   0  0  0  0  0  0  0  0  0  0  0  0
  141.2220   71.9340  226.3830 C   0  0  0  0  0  0  0  0  0  0  0  0
  141.6508   72.8396  225.9290 H   0  0  0  0  0  0  0  0  0  0  0  0
  141.3840   71.6940  227.7500 C   0  0  0  0  0  0  0  0  0  0  0  0
  141.9358   72.4133  228.3730 H   0  0  0  0  0  0  0  0  0  0  0  0
  140.8450   70.5400  228.3260 C   0  0  0  0  0  0  0  0  0  0  0  0
  140.9756   70.3516  229.4019 H   0  0  0  0  0  0  0  0  0  0  0  0
  140.1400   69.6240  227.5380 C   0  0  0  0  0  0  0  0  0  0  0  0
  139.7202   68.7154  227.9944 H   0  0  0  0  0  0  0  0  0  0  0  0
  139.9670   69.8640  226.1600 C   0  0  0  0  0  0  0  0  0  0  0  0
  139.2610   68.9820  225.3260 C   0  0  0  0  0  0  0  0  0  0  0  0
  138.8260   67.9010  225.8110 O   0  0  0  0  0  0  0  0  0  0  0  0
  139.0600   69.2820  223.9940 N   0  0  0  0  0  0  0  0  0  0  0  0
  138.1890   68.3970  223.1750 C   0  0  0  0  0  0  0  0  0  0  0  0
  138.5879   68.3795  222.1500 H   0  0  0  0  0  0  0  0  0  0  0  0
  138.2026   67.4128  223.6660 H   0  0  0  0  0  0  0  0  0  0  0  0
  136.6910   68.8280  223.1040 C   0  0  0  0  0  0  0  0  0  0  0  0
  136.1852   67.8956  222.8127 H   0  0  0  0  0  0  0  0  0  0  0  0
  136.0700   69.2240  224.4760 C   0  0  0  0  0  0  0  0  0  0  0  0
  135.2615   68.5145  224.7061 H   0  0  0  0  0  0  0  0  0  0  0  0
  136.8866   69.1940  225.2124 H   0  0  0  0  0  0  0  0  0  0  0  0
  135.4900   70.6450  224.5190 C   0  0  0  0  0  0  0  0  0  0  0  0
  134.5107   70.6497  224.0180 H   0  0  0  0  0  0  0  0  0  0  0  0
  135.3849   70.9502  225.5706 H   0  0  0  0  0  0  0  0  0  0  0  0
  136.4160   71.6320  223.8150 C   0  0  0  0  0  0  0  0  0  0  0  0
  136.0089   72.6475  223.9292 H   0  0  0  0  0  0  0  0  0  0  0  0
  137.4133   71.5553  224.2728 H   0  0  0  0  0  0  0  0  0  0  0  0
  136.5480   71.3130  222.3180 C   0  0  0  0  0  0  0  0  0  0  0  0
  135.7964   71.9020  221.7720 H   0  0  0  0  0  0  0  0  0  0  0  0
  137.5789   71.5667  222.0300 H   0  0  0  0  0  0  0  0  0  0  0  0
  136.3430   69.8230  221.9690 C   0  0  0  0  0  0  0  0  0  0  0  0
  135.2860   69.6781  221.7011 H   0  0  0  0  0  0  0  0  0  0  0  0
  137.0380   69.6031  221.1452 H   0  0  0  0  0  0  0  0  0  0  0  0
  140.8600   72.8130  221.4120 C   0  0  0  0  0  0  0  0  0  0  0  0
  139.8450   73.6020  221.9750 C   0  0  0  0  0  0  0  0  0  0  0  0
  138.9614   73.1199  222.4187 H   0  0  0  0  0  0  0  0  0  0  0  0
  139.9460   74.9580  221.9760 N   0  0  0  0  0  0  0  0  0  0  0  0
  141.0160   75.5960  221.4340 C   0  0  0  0  0  0  0  0  0  0  0  0
  141.0720   76.6943  221.4587 H   0  0  0  0  0  0  0  0  0  0  0  0
  142.0440   74.8580  220.8460 C   0  0  0  0  0  0  0  0  0  0  0  0
  142.9090   75.3699  220.3990 H   0  0  0  0  0  0  0  0  0  0  0  0
  141.9650   73.4640  220.8300 C   0  0  0  0  0  0  0  0  0  0  0  0
  142.7667   72.8736  220.3623 H   0  0  0  0  0  0  0  0  0  0  0  0
  1  2  1  0
  2  3  2  0
  3  4  1  0
  3  5  1  0
  5  6  2  0
  6  7  1  0
  7  8  2  0
  8  9  1  0
  8 10  1  0
 10 11  1  0
 10 12  2  0
 12 13  1  0
 12 14  1  0
 14 15  1  0
 14 16  2  0
 16 17  1  0
 17 18  2  0
 17 19  1  0
 19 20  1  0
 20 21  1  0
 20 22  1  0
 20 23  1  0
 23 24  1  0
 23 25  1  0
 25 26  1  0
 25 27  1  0
 25 28  1  0
 28 29  1  0
 28 30  1  0
 28 31  1  0
 31 32  1  0
 31 33  1  0
 31 34  1  0
 34 35  1  0
 34 36  1  0
 34 37  1  0
 37 38  1  0
 37 39  1  0
  2 40  1  0
 40 41  2  0
 41 42  1  0
 41 43  1  0
 43 44  2  0
 44 45  1  0
 44 46  1  0
 46 47  1  0
 46 48  2  0
 48 49  1  0
 19  5  1  0
 37 23  1  0
 48 40  1  0
 16  7  1  0
M  END
>  <UniqueID>  (44) 
25

>  <SMILES>  (44) 
O=c1c2ccccc2nc(/C=C/c2cccnc2)n1CC1CCCCC1

>  <Energy>  (44) 
74.34075685695049

>  <Genealogy>  (44) 
O=c1c2ccccc2nc(/C=C/c2cccnc2)n1CC1CCCCC1 (cis-trans isomerization)
O=c1c2ccccc2nc(/C=C/c2cccnc2)n1CC1CCCCC1 (3D coordinates assigned)
O=c1c2ccccc2nc(/C=C/c2cccnc2)n1CC1CCCCC1 (nonaromatic ring conformer: 74.34075685695049 kcal/mol)

>  <smiles>  (44) 
O=c1c2ccccc2nc(/C=C/c2cccnc2)n1CC1CCCCC1

>  <score_type>  (44) 
oracle

>  <origin>  (44) 
autodockgpu

>  <m_score__min__energy>  (44) 
-7.3499999999999996

>  <m_primary>  (44) 
energy

>  <meeko>  (44) 
{"free_energy": -7.32, "intermolecular_energy": -8.81, "internal_energy": -1.81, "cluster_size": 19, "cluster_id": 1, "rank_in_cluster": 2}

>  <energy>  (44) 
-7.27

>  <cluster_rmsd>  (44) 
0.32

>  <rmsd>  (44) 
272.08

>  <cluster>  (44) 
1

$$$$
XUFANRSCLZKORJ-OUKQBFOZNA-N
     RDKit          3D

 49 52  0  0  0  0  0  0  0  0999 V2000
  139.1280   72.0580  220.7135 H   0  0  0  0  0  0  0  0  0  0  0  0
  139.8440   72.4440  221.4540 C   0  0  0  0  0  0  0  0  0  0  0  0
  140.6330   71.5650  222.0910 C   0  0  0  0  0  0  0  0  0  0  0  0
  141.5824   71.2612  221.6258 H   0  0  0  0  0  0  0  0  0  0  0  0
  140.2560   70.9920  223.4090 C   0  0  0  0  0  0  0  0  0  0  0  0
  140.6910   71.6490  224.5180 N   0  0  0  0  0  0  0  0  0  0  0  0
  140.4670   71.1850  225.7660 C   0  0  0  0  0  0  0  0  0  0  0  0
  140.9250   71.9060  226.8750 C   0  0  0  0  0  0  0  0  0  0  0  0
  141.4473   72.8633  226.7309 H   0  0  0  0  0  0  0  0  0  0  0  0
  140.7190   71.4100  228.1650 C   0  0  0  0  0  0  0  0  0  0  0  0
  141.0741   71.9800  229.0362 H   0  0  0  0  0  0  0  0  0  0  0  0
  140.0620   70.1900  228.3490 C   0  0  0  0  0  0  0  0  0  0  0  0
  139.9033   69.8000  229.3652 H   0  0  0  0  0  0  0  0  0  0  0  0
  139.6060   69.4640  227.2440 C   0  0  0  0  0  0  0  0  0  0  0  0
  139.0920   68.5029  227.3926 H   0  0  0  0  0  0  0  0  0  0  0  0
  139.8040   69.9620  225.9400 C   0  0  0  0  0  0  0  0  0  0  0  0
  139.3590   69.2780  224.7970 C   0  0  0  0  0  0  0  0  0  0  0  0
  138.8250   68.1420  224.9360 O   0  0  0  0  0  0  0  0  0  0  0  0
  139.5170   69.8290  223.5410 N   0  0  0  0  0  0  0  0  0  0  0  0
  138.9090   69.1440  222.3690 C   0  0  0  0  0  0  0  0  0  0  0  0
  139.4871   69.4202  221.4748 H   0  0  0  0  0  0  0  0  0  0  0  0
  138.9383   68.0675  222.5933 H   0  0  0  0  0  0  0  0  0  0  0  0
  137.4120   69.4930  222.1040 C   0  0  0  0  0  0  0  0  0  0  0  0
  137.3254   69.3721  221.0141 H   0  0  0  0  0  0  0  0  0  0  0  0
  136.3980   68.4810  222.7160 C   0  0  0  0  0  0  0  0  0  0  0  0
  135.8397   68.0117  221.8926 H   0  0  0  0  0  0  0  0  0  0  0  0
  136.9869   67.7576  223.2991 H   0  0  0  0  0  0  0  0  0  0  0  0
  135.3870   69.1100  223.6860 C   0  0  0  0  0  0  0  0  0  0  0  0
  134.6035   69.6215  223.1076 H   0  0  0  0  0  0  0  0  0  0  0  0
  134.9500   68.3117  224.3038 H   0  0  0  0  0  0  0  0  0  0  0  0
  136.0680   70.1190  224.6050 C   0  0  0  0  0  0  0  0  0  0  0  0
  135.3325   70.4930  225.3325 H   0  0  0  0  0  0  0  0  0  0  0  0
  136.9014   69.6135  225.1148 H   0  0  0  0  0  0  0  0  0  0  0  0
  136.6370   71.3080  223.8140 C   0  0  0  0  0  0  0  0  0  0  0  0
  135.8784   72.1044  223.7945 H   0  0  0  0  0  0  0  0  0  0  0  0
  137.5622   71.6140  224.3242 H   0  0  0  0  0  0  0  0  0  0  0  0
  137.0230   70.9710  222.3580 C   0  0  0  0  0  0  0  0  0  0  0  0
  136.1647   71.2125  221.7138 H   0  0  0  0  0  0  0  0  0  0  0  0
  137.9210   71.5657  222.1348 H   0  0  0  0  0  0  0  0  0  0  0  0
  139.8840   73.9060  221.6930 C   0  0  0  0  0  0  0  0  0  0  0  0
  138.6920   74.5780  222.0050 C   0  0  0  0  0  0  0  0  0  0  0  0
  137.7511   74.0133  222.0810 H   0  0  0  0  0  0  0  0  0  0  0  0
  138.6910   75.9210  222.2140 N   0  0  0  0  0  0  0  0  0  0  0  0
  139.8280   76.6600  222.1240 C   0  0  0  0  0  0  0  0  0  0  0  0
  139.7954   77.7441  222.3072 H   0  0  0  0  0  0  0  0  0  0  0  0
  141.0370   76.0430  221.7990 C   0  0  0  0  0  0  0  0  0  0  0  0
  141.9590   76.6374  221.7177 H   0  0  0  0  0  0  0  0  0  0  0  0
  141.0660   74.6650  221.5780 C   0  0  0  0  0  0  0  0  0  0  0  0
  142.0126   74.1709  221.3138 H   0  0  0  0  0  0  0  0  0  0  0  0
  1  2  1  0
  2  3  2  0
  3  4  1  0
  3  5  1  0
  5  6  2  0
  6  7  1  0
  7  8  2  0
  8  9  1  0
  8 10  1  0
 10 11  1  0
 10 12  2  0
 12 13  1  0
 12 14  1  0
 14 15  1  0
 14 16  2  0
 16 17  1  0
 17 18  2  0
 17 19  1  0
 19 20  1  0
 20 21  1  0
 20 22  1  0
 20 23  1  0
 23 24  1  0
 23 25  1  0
 25 26  1  0
 25 27  1  0
 25 28  1  0
 28 29  1  0
 28 30  1  0
 28 31  1  0
 31 32  1  0
 31 33  1  0
 31 34  1  0
 34 35  1  0
 34 36  1  0
 34 37  1  0
 37 38  1  0
 37 39  1  0
  2 40  1  0
 40 41  2  0
 41 42  1  0
 41 43  1  0
 43 44  2  0
 44 45  1  0
 44 46  1  0
 46 47  1  0
 46 48  2  0
 48 49  1  0
 19  5  1  0
 37 23  1  0
 48 40  1  0
 16  7  1  0
M  END
>  <UniqueID>  (45) 
25

>  <SMILES>  (45) 
O=c1c2ccccc2nc(/C=C/c2cccnc2)n1CC1CCCCC1

>  <Energy>  (45) 
74.34075685695049

>  <Genealogy>  (45) 
O=c1c2ccccc2nc(/C=C/c2cccnc2)n1CC1CCCCC1 (cis-trans isomerization)
O=c1c2ccccc2nc(/C=C/c2cccnc2)n1CC1CCCCC1 (3D coordinates assigned)
O=c1c2ccccc2nc(/C=C/c2cccnc2)n1CC1CCCCC1 (nonaromatic ring conformer: 74.34075685695049 kcal/mol)

>  <smiles>  (45) 
O=c1c2ccccc2nc(/C=C/c2cccnc2)n1CC1CCCCC1

>  <score_type>  (45) 
oracle

>  <origin>  (45) 
autodockgpu

>  <m_score__min__energy>  (45) 
-7.3499999999999996

>  <m_primary>  (45) 
energy

>  <meeko>  (45) 
{"free_energy": -6.93, "intermolecular_energy": -8.42, "internal_energy": -1.88, "cluster_size": 19, "cluster_id": 1, "rank_in_cluster": 18}

>  <energy>  (45) 
-7.27

>  <cluster_rmsd>  (45) 
0.28

>  <rmsd>  (45) 
272.14

>  <cluster>  (45) 
1

$$$$
XUFANRSCLZKORJ-OUKQBFOZNA-N
     RDKit          3D

 49 52  0  0  0  0  0  0  0  0999 V2000
  141.8427   72.1157  221.4244 H   0  0  0  0  0  0  0  0  0  0  0  0
  140.7940   72.2850  221.7100 C   0  0  0  0  0  0  0  0  0  0  0  0
  140.0390   71.2170  222.0130 C   0  0  0  0  0  0  0  0  0  0  0  0
  139.4895   70.7029  221.2106 H   0  0  0  0  0  0  0  0  0  0  0  0
  139.9280   70.7130  223.4060 C   0  0  0  0  0  0  0  0  0  0  0  0
  140.4600   71.4860  224.3900 N   0  0  0  0  0  0  0  0  0  0  0  0
  140.4780   71.0970  225.6840 C   0  0  0  0  0  0  0  0  0  0  0  0
  141.0270   71.9360  226.6600 C   0  0  0  0  0  0  0  0  0  0  0  0
  141.4231   72.9226  226.3778 H   0  0  0  0  0  0  0  0  0  0  0  0
  141.0720   71.5200  227.9940 C   0  0  0  0  0  0  0  0  0  0  0  0
  141.4988   72.1817  228.7621 H   0  0  0  0  0  0  0  0  0  0  0  0
  140.5750   70.2640  228.3520 C   0  0  0  0  0  0  0  0  0  0  0  0
  140.6133   69.9376  229.4018 H   0  0  0  0  0  0  0  0  0  0  0  0
  140.0290   69.4210  227.3790 C   0  0  0  0  0  0  0  0  0  0  0  0
  139.6419   68.4316  227.6641 H   0  0  0  0  0  0  0  0  0  0  0  0
  139.9740   69.8370  226.0340 C   0  0  0  0  0  0  0  0  0  0  0  0
  139.4280   69.0330  225.0190 C   0  0  0  0  0  0  0  0  0  0  0  0
  139.0370   67.8680  225.3080 O   0  0  0  0  0  0  0  0  0  0  0  0
  139.3360   69.5010  223.7240 N   0  0  0  0  0  0  0  0  0  0  0  0
  138.6260   68.6810  222.7060 C   0  0  0  0  0  0  0  0  0  0  0  0
  139.0995   68.8636  221.7301 H   0  0  0  0  0  0  0  0  0  0  0  0
  138.7064   67.6366  223.0419 H   0  0  0  0  0  0  0  0  0  0  0  0
  137.1010   68.9780  222.5670 C   0  0  0  0  0  0  0  0  0  0  0  0
  136.7335   68.0958  222.0224 H   0  0  0  0  0  0  0  0  0  0  0  0
  136.3220   68.9880  223.9160 C   0  0  0  0  0  0  0  0  0  0  0  0
  135.5829   68.1736  223.8931 H   0  0  0  0  0  0  0  0  0  0  0  0
  137.0701   68.8639  224.7129 H   0  0  0  0  0  0  0  0  0  0  0  0
  135.5820   70.3010  224.2080 C   0  0  0  0  0  0  0  0  0  0  0  0
  134.6551   70.3313  223.6164 H   0  0  0  0  0  0  0  0  0  0  0  0
  135.3531   70.3439  225.2830 H   0  0  0  0  0  0  0  0  0  0  0  0
  136.4460   71.5050  223.8450 C   0  0  0  0  0  0  0  0  0  0  0  0
  135.9166   72.4247  224.1347 H   0  0  0  0  0  0  0  0  0  0  0  0
  137.4022   71.4168  224.3816 H   0  0  0  0  0  0  0  0  0  0  0  0
  136.7430   71.5540  222.3380 C   0  0  0  0  0  0  0  0  0  0  0  0
  135.9794   72.1820  221.8558 H   0  0  0  0  0  0  0  0  0  0  0  0
  137.7591   71.9607  222.2283 H   0  0  0  0  0  0  0  0  0  0  0  0
  136.7400   70.1720  221.6490 C   0  0  0  0  0  0  0  0  0  0  0  0
  135.7332   69.9965  221.2422 H   0  0  0  0  0  0  0  0  0  0  0  0
  137.5237   70.2129  220.8782 H   0  0  0  0  0  0  0  0  0  0  0  0
  140.2930   73.6790  221.7390 C   0  0  0  0  0  0  0  0  0  0  0  0
  141.2060   74.7340  221.5840 C   0  0  0  0  0  0  0  0  0  0  0  0
  142.2729   74.5147  221.4307 H   0  0  0  0  0  0  0  0  0  0  0  0
  140.7810   76.0250  221.6220 N   0  0  0  0  0  0  0  0  0  0  0  0
  139.4740   76.3430  221.8170 C   0  0  0  0  0  0  0  0  0  0  0  0
  139.1613   77.3975  221.8353 H   0  0  0  0  0  0  0  0  0  0  0  0
  138.5290   75.3320  221.9940 C   0  0  0  0  0  0  0  0  0  0  0  0
  137.4711   75.5841  222.1589 H   0  0  0  0  0  0  0  0  0  0  0  0
  138.9380   73.9970  221.9600 C   0  0  0  0  0  0  0  0  0  0  0  0
  138.2017   73.1929  222.1059 H   0  0  0  0  0  0  0  0  0  0  0  0
  1  2  1  0
  2  3  2  0
  3  4  1  0
  3  5  1  0
  5  6  2  0
  6  7  1  0
  7  8  2  0
  8  9  1  0
  8 10  1  0
 10 11  1  0
 10 12  2  0
 12 13  1  0
 12 14  1  0
 14 15  1  0
 14 16  2  0
 16 17  1  0
 17 18  2  0
 17 19  1  0
 19 20  1  0
 20 21  1  0
 20 22  1  0
 20 23  1  0
 23 24  1  0
 23 25  1  0
 25 26  1  0
 25 27  1  0
 25 28  1  0
 28 29  1  0
 28 30  1  0
 28 31  1  0
 31 32  1  0
 31 33  1  0
 31 34  1  0
 34 35  1  0
 34 36  1  0
 34 37  1  0
 37 38  1  0
 37 39  1  0
  2 40  1  0
 40 41  2  0
 41 42  1  0
 41 43  1  0
 43 44  2  0
 44 45  1  0
 44 46  1  0
 46 47  1  0
 46 48  2  0
 48 49  1  0
 19  5  1  0
 37 23  1  0
 48 40  1  0
 16  7  1  0
M  END
>  <UniqueID>  (46) 
25

>  <SMILES>  (46) 
O=c1c2ccccc2nc(/C=C/c2cccnc2)n1CC1CCCCC1

>  <Energy>  (46) 
74.34075685695049

>  <Genealogy>  (46) 
O=c1c2ccccc2nc(/C=C/c2cccnc2)n1CC1CCCCC1 (cis-trans isomerization)
O=c1c2ccccc2nc(/C=C/c2cccnc2)n1CC1CCCCC1 (3D coordinates assigned)
O=c1c2ccccc2nc(/C=C/c2cccnc2)n1CC1CCCCC1 (nonaromatic ring conformer: 74.34075685695049 kcal/mol)

>  <smiles>  (46) 
O=c1c2ccccc2nc(/C=C/c2cccnc2)n1CC1CCCCC1

>  <score_type>  (46) 
oracle

>  <origin>  (46) 
autodockgpu

>  <m_score__min__energy>  (46) 
-7.3499999999999996

>  <m_primary>  (46) 
energy

>  <meeko>  (46) 
{"free_energy": -6.94, "intermolecular_energy": -8.43, "internal_energy": -1.91, "cluster_size": 19, "cluster_id": 1, "rank_in_cluster": 16}

>  <energy>  (46) 
-7.22

>  <cluster_rmsd>  (46) 
0.32

>  <rmsd>  (46) 
272.17

>  <cluster>  (46) 
1

$$$$
XUFANRSCLZKORJ-OUKQBFOZNA-N
     RDKit          3D

 49 52  0  0  0  0  0  0  0  0999 V2000
  141.5311   71.0624  220.9149 H   0  0  0  0  0  0  0  0  0  0  0  0
  140.7060   71.5350  221.4680 C   0  0  0  0  0  0  0  0  0  0  0  0
  139.7610   70.7420  221.9970 C   0  0  0  0  0  0  0  0  0  0  0  0
  138.9819   70.3249  221.3420 H   0  0  0  0  0  0  0  0  0  0  0  0
  139.7420   70.4140  223.4460 C   0  0  0  0  0  0  0  0  0  0  0  0
  140.4220   71.2470  224.2790 N   0  0  0  0  0  0  0  0  0  0  0  0
  140.5300   71.0120  225.6050 C   0  0  0  0  0  0  0  0  0  0  0  0
  141.2300   71.9080  226.4210 C   0  0  0  0  0  0  0  0  0  0  0  0
  141.6717   72.8171  225.9869 H   0  0  0  0  0  0  0  0  0  0  0  0
  141.3680   71.6480  227.7870 C   0  0  0  0  0  0  0  0  0  0  0  0
  141.9134   72.3554  228.4290 H   0  0  0  0  0  0  0  0  0  0  0  0
  140.8130   70.4890  228.3380 C   0  0  0  0  0  0  0  0  0  0  0  0
  140.9250   70.2847  229.4130 H   0  0  0  0  0  0  0  0  0  0  0  0
  140.1160   69.5890  227.5260 C   0  0  0  0  0  0  0  0  0  0  0  0
  139.6833   68.6768  227.9627 H   0  0  0  0  0  0  0  0  0  0  0  0
  139.9670   69.8490  226.1480 C   0  0  0  0  0  0  0  0  0  0  0  0
  139.2700   68.9830  225.2900 C   0  0  0  0  0  0  0  0  0  0  0  0
  138.8200   67.8980  225.7530 O   0  0  0  0  0  0  0  0  0  0  0  0
  139.0940   69.3040  223.9590 N   0  0  0  0  0  0  0  0  0  0  0  0
  138.2310   68.4350  223.1130 C   0  0  0  0  0  0  0  0  0  0  0  0
  138.6426   68.4350  222.0929 H   0  0  0  0  0  0  0  0  0  0  0  0
  138.2367   67.4422  223.5866 H   0  0  0  0  0  0  0  0  0  0  0  0
  136.7350   68.8700  223.0310 C   0  0  0  0  0  0  0  0  0  0  0  0
  136.2321   67.9434  222.7171 H   0  0  0  0  0  0  0  0  0  0  0  0
  136.0980   69.2440  224.4020 C   0  0  0  0  0  0  0  0  0  0  0  0
  135.2849   68.5329  224.6097 H   0  0  0  0  0  0  0  0  0  0  0  0
  136.9055   69.1991  225.1476 H   0  0  0  0  0  0  0  0  0  0  0  0
  135.5210   70.6660  224.4630 C   0  0  0  0  0  0  0  0  0  0  0  0
  134.5470   70.6816  223.9519 H   0  0  0  0  0  0  0  0  0  0  0  0
  135.4060   70.9533  225.5186 H   0  0  0  0  0  0  0  0  0  0  0  0
  136.4560   71.6630  223.7860 C   0  0  0  0  0  0  0  0  0  0  0  0
  136.0487   72.6770  223.9124 H   0  0  0  0  0  0  0  0  0  0  0  0
  137.4479   71.5771  224.2538 H   0  0  0  0  0  0  0  0  0  0  0  0
  136.6050   71.3690  222.2860 C   0  0  0  0  0  0  0  0  0  0  0  0
  135.8606   71.9681  221.7411 H   0  0  0  0  0  0  0  0  0  0  0  0
  137.6394   71.6260  222.0141 H   0  0  0  0  0  0  0  0  0  0  0  0
  136.4020   69.8850  221.9100 C   0  0  0  0  0  0  0  0  0  0  0  0
  135.3479   69.7465  221.6275 H   0  0  0  0  0  0  0  0  0  0  0  0
  137.1068   69.6781  221.0912 H   0  0  0  0  0  0  0  0  0  0  0  0
  140.6990   73.0120  221.5880 C   0  0  0  0  0  0  0  0  0  0  0  0
  139.6150   73.6380  222.2230 C   0  0  0  0  0  0  0  0  0  0  0  0
  138.7955   73.0288  222.6321 H   0  0  0  0  0  0  0  0  0  0  0  0
  139.5710   74.9930  222.3360 N   0  0  0  0  0  0  0  0  0  0  0  0
  140.5560   75.7850  221.8390 C   0  0  0  0  0  0  0  0  0  0  0  0
  140.4939   76.8773  221.9535 H   0  0  0  0  0  0  0  0  0  0  0  0
  141.6470   75.2130  221.1830 C   0  0  0  0  0  0  0  0  0  0  0  0
  142.4441   75.8504  220.7727 H   0  0  0  0  0  0  0  0  0  0  0  0
  141.7180   73.8250  221.0520 C   0  0  0  0  0  0  0  0  0  0  0  0
  142.5701   73.3653  220.5299 H   0  0  0  0  0  0  0  0  0  0  0  0
  1  2  1  0
  2  3  2  0
  3  4  1  0
  3  5  1  0
  5  6  2  0
  6  7  1  0
  7  8  2  0
  8  9  1  0
  8 10  1  0
 10 11  1  0
 10 12  2  0
 12 13  1  0
 12 14  1  0
 14 15  1  0
 14 16  2  0
 16 17  1  0
 17 18  2  0
 17 19  1  0
 19 20  1  0
 20 21  1  0
 20 22  1  0
 20 23  1  0
 23 24  1  0
 23 25  1  0
 25 26  1  0
 25 27  1  0
 25 28  1  0
 28 29  1  0
 28 30  1  0
 28 31  1  0
 31 32  1  0
 31 33  1  0
 31 34  1  0
 34 35  1  0
 34 36  1  0
 34 37  1  0
 37 38  1  0
 37 39  1  0
  2 40  1  0
 40 41  2  0
 41 42  1  0
 41 43  1  0
 43 44  2  0
 44 45  1  0
 44 46  1  0
 46 47  1  0
 46 48  2  0
 48 49  1  0
 19  5  1  0
 37 23  1  0
 48 40  1  0
 16  7  1  0
M  END
>  <UniqueID>  (47) 
25

>  <SMILES>  (47) 
O=c1c2ccccc2nc(/C=C/c2cccnc2)n1CC1CCCCC1

>  <Energy>  (47) 
74.34075685695049

>  <Genealogy>  (47) 
O=c1c2ccccc2nc(/C=C/c2cccnc2)n1CC1CCCCC1 (cis-trans isomerization)
O=c1c2ccccc2nc(/C=C/c2cccnc2)n1CC1CCCCC1 (3D coordinates assigned)
O=c1c2ccccc2nc(/C=C/c2cccnc2)n1CC1CCCCC1 (nonaromatic ring conformer: 74.34075685695049 kcal/mol)

>  <smiles>  (47) 
O=c1c2ccccc2nc(/C=C/c2cccnc2)n1CC1CCCCC1

>  <score_type>  (47) 
oracle

>  <origin>  (47) 
autodockgpu

>  <m_score__min__energy>  (47) 
-7.3499999999999996

>  <m_primary>  (47) 
energy

>  <meeko>  (47) 
{"free_energy": -7.27, "intermolecular_energy": -8.76, "internal_energy": -1.87, "cluster_size": 19, "cluster_id": 1, "rank_in_cluster": 5}

>  <energy>  (47) 
-7.14

>  <cluster_rmsd>  (47) 
0.71

>  <rmsd>  (47) 
272.18

>  <cluster>  (47) 
1

$$$$
XUFANRSCLZKORJ-OUKQBFOZNA-N
     RDKit          3D

 49 52  0  0  0  0  0  0  0  0999 V2000
  138.4847   71.7395  220.7554 H   0  0  0  0  0  0  0  0  0  0  0  0
  139.3040   72.0530  221.4190 C   0  0  0  0  0  0  0  0  0  0  0  0
  140.0920   71.1030  221.9460 C   0  0  0  0  0  0  0  0  0  0  0  0
  140.8756   70.6488  221.3218 H   0  0  0  0  0  0  0  0  0  0  0  0
  139.9320   70.6500  223.3510 C   0  0  0  0  0  0  0  0  0  0  0  0
  140.5030   71.4160  224.3190 N   0  0  0  0  0  0  0  0  0  0  0  0
  140.4800   71.0670  225.6240 C   0  0  0  0  0  0  0  0  0  0  0  0
  141.0720   71.8970  226.5820 C   0  0  0  0  0  0  0  0  0  0  0  0
  141.5353   72.8466  226.2759 H   0  0  0  0  0  0  0  0  0  0  0  0
  141.0750   71.5200  227.9280 C   0  0  0  0  0  0  0  0  0  0  0  0
  141.5365   72.1753  228.6814 H   0  0  0  0  0  0  0  0  0  0  0  0
  140.4920   70.3110  228.3170 C   0  0  0  0  0  0  0  0  0  0  0  0
  140.4970   70.0152  229.3765 H   0  0  0  0  0  0  0  0  0  0  0  0
  139.9020   69.4760  227.3620 C   0  0  0  0  0  0  0  0  0  0  0  0
  139.4469   68.5234  227.6712 H   0  0  0  0  0  0  0  0  0  0  0  0
  139.8900   69.8540  226.0040 C   0  0  0  0  0  0  0  0  0  0  0  0
  139.3040   69.0570  225.0070 C   0  0  0  0  0  0  0  0  0  0  0  0
  138.8330   67.9300  225.3260 O   0  0  0  0  0  0  0  0  0  0  0  0
  139.2580   69.4900  223.6970 N   0  0  0  0  0  0  0  0  0  0  0  0
  138.5070   68.6880  222.6950 C   0  0  0  0  0  0  0  0  0  0  0  0
  139.0943   68.6676  221.7651 H   0  0  0  0  0  0  0  0  0  0  0  0
  138.3630   67.6939  223.1433 H   0  0  0  0  0  0  0  0  0  0  0  0
  137.0810   69.2230  222.3550 C   0  0  0  0  0  0  0  0  0  0  0  0
  137.0951   69.2662  221.2559 H   0  0  0  0  0  0  0  0  0  0  0  0
  135.9240   68.2450  222.7150 C   0  0  0  0  0  0  0  0  0  0  0  0
  135.4134   67.9574  221.7841 H   0  0  0  0  0  0  0  0  0  0  0  0
  136.3832   67.3893  223.2317 H   0  0  0  0  0  0  0  0  0  0  0  0
  134.8790   68.8310  223.6760 C   0  0  0  0  0  0  0  0  0  0  0  0
  134.2070   69.4967  223.1145 H   0  0  0  0  0  0  0  0  0  0  0  0
  134.3125   68.0023  224.1258 H   0  0  0  0  0  0  0  0  0  0  0  0
  135.5490   69.6250  224.7930 C   0  0  0  0  0  0  0  0  0  0  0  0
  134.7787   69.9666  225.5000 H   0  0  0  0  0  0  0  0  0  0  0  0
  136.2771   68.9693  225.2929 H   0  0  0  0  0  0  0  0  0  0  0  0
  136.3000   70.8480  224.2440 C   0  0  0  0  0  0  0  0  0  0  0  0
  135.6218   71.7134  224.2778 H   0  0  0  0  0  0  0  0  0  0  0  0
  137.1916   70.9813  224.8743 H   0  0  0  0  0  0  0  0  0  0  0  0
  136.8020   70.6820  222.7930 C   0  0  0  0  0  0  0  0  0  0  0  0
  136.0395   71.0998  222.1192 H   0  0  0  0  0  0  0  0  0  0  0  0
  137.7678   71.2061  222.7421 H   0  0  0  0  0  0  0  0  0  0  0  0
  139.4770   73.5020  221.6820 C   0  0  0  0  0  0  0  0  0  0  0  0
  140.7730   74.0400  221.7050 C   0  0  0  0  0  0  0  0  0  0  0  0
  141.6385   73.3881  221.5154 H   0  0  0  0  0  0  0  0  0  0  0  0
  140.9660   75.3610  221.9600 N   0  0  0  0  0  0  0  0  0  0  0  0
  139.9280   76.2020  222.2070 C   0  0  0  0  0  0  0  0  0  0  0  0
  140.1177   77.2678  222.4021 H   0  0  0  0  0  0  0  0  0  0  0  0
  138.6210   75.7130  222.2130 C   0  0  0  0  0  0  0  0  0  0  0  0
  137.7773   76.3882  222.4186 H   0  0  0  0  0  0  0  0  0  0  0  0
  138.3930   74.3600  221.9560 C   0  0  0  0  0  0  0  0  0  0  0  0
  137.3670   73.9634  221.9673 H   0  0  0  0  0  0  0  0  0  0  0  0
  1  2  1  0
  2  3  2  0
  3  4  1  0
  3  5  1  0
  5  6  2  0
  6  7  1  0
  7  8  2  0
  8  9  1  0
  8 10  1  0
 10 11  1  0
 10 12  2  0
 12 13  1  0
 12 14  1  0
 14 15  1  0
 14 16  2  0
 16 17  1  0
 17 18  2  0
 17 19  1  0
 19 20  1  0
 20 21  1  0
 20 22  1  0
 20 23  1  0
 23 24  1  0
 23 25  1  0
 25 26  1  0
 25 27  1  0
 25 28  1  0
 28 29  1  0
 28 30  1  0
 28 31  1  0
 31 32  1  0
 31 33  1  0
 31 34  1  0
 34 35  1  0
 34 36  1  0
 34 37  1  0
 37 38  1  0
 37 39  1  0
  2 40  1  0
 40 41  2  0
 41 42  1  0
 41 43  1  0
 43 44  2  0
 44 45  1  0
 44 46  1  0
 46 47  1  0
 46 48  2  0
 48 49  1  0
 19  5  1  0
 37 23  1  0
 48 40  1  0
 16  7  1  0
M  END
>  <UniqueID>  (48) 
25

>  <SMILES>  (48) 
O=c1c2ccccc2nc(/C=C/c2cccnc2)n1CC1CCCCC1

>  <Energy>  (48) 
74.34075685695049

>  <Genealogy>  (48) 
O=c1c2ccccc2nc(/C=C/c2cccnc2)n1CC1CCCCC1 (cis-trans isomerization)
O=c1c2ccccc2nc(/C=C/c2cccnc2)n1CC1CCCCC1 (3D coordinates assigned)
O=c1c2ccccc2nc(/C=C/c2cccnc2)n1CC1CCCCC1 (nonaromatic ring conformer: 74.34075685695049 kcal/mol)

>  <smiles>  (48) 
O=c1c2ccccc2nc(/C=C/c2cccnc2)n1CC1CCCCC1

>  <score_type>  (48) 
oracle

>  <origin>  (48) 
autodockgpu

>  <m_score__min__energy>  (48) 
-7.3499999999999996

>  <m_primary>  (48) 
energy

>  <meeko>  (48) 
{"free_energy": -7.08, "intermolecular_energy": -8.57, "internal_energy": -1.76, "cluster_size": 19, "cluster_id": 1, "rank_in_cluster": 9}

>  <energy>  (48) 
-7.12

>  <cluster_rmsd>  (48) 
1.34

>  <rmsd>  (48) 
272.26

>  <cluster>  (48) 
1

$$$$
XUFANRSCLZKORJ-OUKQBFOZNA-N
     RDKit          3D

 49 52  0  0  0  0  0  0  0  0999 V2000
  138.8667   72.0896  220.7879 H   0  0  0  0  0  0  0  0  0  0  0  0
  139.6630   72.4400  221.4610 C   0  0  0  0  0  0  0  0  0  0  0  0
  140.4600   71.5230  222.0310 C   0  0  0  0  0  0  0  0  0  0  0  0
  141.3472   71.1694  221.4853 H   0  0  0  0  0  0  0  0  0  0  0  0
  140.1730   70.9740  223.3810 C   0  0  0  0  0  0  0  0  0  0  0  0
  140.6690   71.6560  224.4480 N   0  0  0  0  0  0  0  0  0  0  0  0
  140.5290   71.2150  225.7170 C   0  0  0  0  0  0  0  0  0  0  0  0
  141.0480   71.9620  226.7800 C   0  0  0  0  0  0  0  0  0  0  0  0
  141.5499   72.9211  226.5846 H   0  0  0  0  0  0  0  0  0  0  0  0
  140.9290   71.4900  228.0900 C   0  0  0  0  0  0  0  0  0  0  0  0
  141.3311   72.0809  228.9261 H   0  0  0  0  0  0  0  0  0  0  0  0
  140.2990   70.2670  228.3380 C   0  0  0  0  0  0  0  0  0  0  0  0
  140.2100   69.8949  229.3693 H   0  0  0  0  0  0  0  0  0  0  0  0
  139.7820   69.5160  227.2790 C   0  0  0  0  0  0  0  0  0  0  0  0
  139.2884   68.5534  227.4781 H   0  0  0  0  0  0  0  0  0  0  0  0
  139.8920   69.9900  225.9560 C   0  0  0  0  0  0  0  0  0  0  0  0
  139.3830   69.2790  224.8570 C   0  0  0  0  0  0  0  0  0  0  0  0
  138.8710   68.1410  225.0500 O   0  0  0  0  0  0  0  0  0  0  0  0
  139.4560   69.8060  223.5830 N   0  0  0  0  0  0  0  0  0  0  0  0
  138.7820   69.0930  222.4640 C   0  0  0  0  0  0  0  0  0  0  0  0
  139.2488   69.4177  221.5224 H   0  0  0  0  0  0  0  0  0  0  0  0
  138.9057   68.0188  222.6658 H   0  0  0  0  0  0  0  0  0  0  0  0
  137.2460   69.3410  222.3530 C   0  0  0  0  0  0  0  0  0  0  0  0
  136.9382   68.6068  221.5939 H   0  0  0  0  0  0  0  0  0  0  0  0
  136.4410   68.9750  223.6350 C   0  0  0  0  0  0  0  0  0  0  0  0
  135.7478   68.1582  223.3852 H   0  0  0  0  0  0  0  0  0  0  0  0
  137.1786   68.6905  224.3999 H   0  0  0  0  0  0  0  0  0  0  0  0
  135.6250   70.1360  224.2210 C   0  0  0  0  0  0  0  0  0  0  0  0
  134.7102   70.2701  223.6250 H   0  0  0  0  0  0  0  0  0  0  0  0
  135.3723   69.8963  225.2644 H   0  0  0  0  0  0  0  0  0  0  0  0
  136.4290   71.4320  224.2000 C   0  0  0  0  0  0  0  0  0  0  0  0
  135.8448   72.2229  224.6931 H   0  0  0  0  0  0  0  0  0  0  0  0
  137.3777   71.2579  224.7289 H   0  0  0  0  0  0  0  0  0  0  0  0
  136.7520   71.8720  222.7630 C   0  0  0  0  0  0  0  0  0  0  0  0
  135.9642   72.5628  222.4281 H   0  0  0  0  0  0  0  0  0  0  0  0
  137.7461   72.3421  222.7915 H   0  0  0  0  0  0  0  0  0  0  0  0
  136.8390   70.7090  221.7510 C   0  0  0  0  0  0  0  0  0  0  0  0
  135.8519   70.5934  221.2796 H   0  0  0  0  0  0  0  0  0  0  0  0
  137.6351   70.9799  221.0419 H   0  0  0  0  0  0  0  0  0  0  0  0
  139.7960   73.8990  221.6880 C   0  0  0  0  0  0  0  0  0  0  0  0
  138.6490   74.6480  221.9940 C   0  0  0  0  0  0  0  0  0  0  0  0
  137.6739   74.1454  222.0749 H   0  0  0  0  0  0  0  0  0  0  0  0
  138.7350   75.9900  222.1910 N   0  0  0  0  0  0  0  0  0  0  0  0
  139.9160   76.6540  222.0950 C   0  0  0  0  0  0  0  0  0  0  0  0
  139.9524   77.7396  222.2687 H   0  0  0  0  0  0  0  0  0  0  0  0
  141.0830   75.9590  221.7760 C   0  0  0  0  0  0  0  0  0  0  0  0
  142.0409   76.4929  221.6900 H   0  0  0  0  0  0  0  0  0  0  0  0
  141.0240   74.5800  221.5670 C   0  0  0  0  0  0  0  0  0  0  0  0
  141.9371   74.0242  221.3075 H   0  0  0  0  0  0  0  0  0  0  0  0
  1  2  1  0
  2  3  2  0
  3  4  1  0
  3  5  1  0
  5  6  2  0
  6  7  1  0
  7  8  2  0
  8  9  1  0
  8 10  1  0
 10 11  1  0
 10 12  2  0
 12 13  1  0
 12 14  1  0
 14 15  1  0
 14 16  2  0
 16 17  1  0
 17 18  2  0
 17 19  1  0
 19 20  1  0
 20 21  1  0
 20 22  1  0
 20 23  1  0
 23 24  1  0
 23 25  1  0
 25 26  1  0
 25 27  1  0
 25 28  1  0
 28 29  1  0
 28 30  1  0
 28 31  1  0
 31 32  1  0
 31 33  1  0
 31 34  1  0
 34 35  1  0
 34 36  1  0
 34 37  1  0
 37 38  1  0
 37 39  1  0
  2 40  1  0
 40 41  2  0
 41 42  1  0
 41 43  1  0
 43 44  2  0
 44 45  1  0
 44 46  1  0
 46 47  1  0
 46 48  2  0
 48 49  1  0
 19  5  1  0
 37 23  1  0
 48 40  1  0
 16  7  1  0
M  END
>  <UniqueID>  (49) 
25

>  <SMILES>  (49) 
O=c1c2ccccc2nc(/C=C/c2cccnc2)n1CC1CCCCC1

>  <Energy>  (49) 
74.34075685695049

>  <Genealogy>  (49) 
O=c1c2ccccc2nc(/C=C/c2cccnc2)n1CC1CCCCC1 (cis-trans isomerization)
O=c1c2ccccc2nc(/C=C/c2cccnc2)n1CC1CCCCC1 (3D coordinates assigned)
O=c1c2ccccc2nc(/C=C/c2cccnc2)n1CC1CCCCC1 (nonaromatic ring conformer: 74.34075685695049 kcal/mol)

>  <smiles>  (49) 
O=c1c2ccccc2nc(/C=C/c2cccnc2)n1CC1CCCCC1

>  <score_type>  (49) 
oracle

>  <origin>  (49) 
autodockgpu

>  <m_score__min__energy>  (49) 
-7.3499999999999996

>  <m_primary>  (49) 
energy

>  <meeko>  (49) 
{"free_energy": -6.87, "intermolecular_energy": -8.36, "internal_energy": -1.89, "cluster_size": 19, "cluster_id": 1, "rank_in_cluster": 19}

>  <energy>  (49) 
-7.08

>  <cluster_rmsd>  (49) 
0.96

>  <rmsd>  (49) 
272.0

>  <cluster>  (49) 
1

$$$$
XUFANRSCLZKORJ-OUKQBFOZNA-N
     RDKit          3D

 49 52  0  0  0  0  0  0  0  0999 V2000
  141.2470   71.5597  221.0062 H   0  0  0  0  0  0  0  0  0  0  0  0
  140.3300   71.8160  221.5570 C   0  0  0  0  0  0  0  0  0  0  0  0
  139.5830   70.8140  222.0450 C   0  0  0  0  0  0  0  0  0  0  0  0
  138.9289   70.2508  221.3631 H   0  0  0  0  0  0  0  0  0  0  0  0
  139.6180   70.4470  223.4840 C   0  0  0  0  0  0  0  0  0  0  0  0
  140.3040   71.2740  224.3190 N   0  0  0  0  0  0  0  0  0  0  0  0
  140.4600   71.0060  225.6340 C   0  0  0  0  0  0  0  0  0  0  0  0
  141.1650   71.8960  226.4520 C   0  0  0  0  0  0  0  0  0  0  0  0
  141.5720   72.8265  226.0295 H   0  0  0  0  0  0  0  0  0  0  0  0
  141.3520   71.6030  227.8050 C   0  0  0  0  0  0  0  0  0  0  0  0
  141.9012   72.3058  228.4488 H   0  0  0  0  0  0  0  0  0  0  0  0
  140.8420   70.4180  228.3410 C   0  0  0  0  0  0  0  0  0  0  0  0
  140.9929   70.1882  229.4061 H   0  0  0  0  0  0  0  0  0  0  0  0
  140.1400   69.5230  227.5270 C   0  0  0  0  0  0  0  0  0  0  0  0
  139.7420   68.5898  227.9521 H   0  0  0  0  0  0  0  0  0  0  0  0
  139.9420   69.8160  226.1620 C   0  0  0  0  0  0  0  0  0  0  0  0
  139.2380   68.9570  225.3030 C   0  0  0  0  0  0  0  0  0  0  0  0
  138.8290   67.8490  225.7490 O   0  0  0  0  0  0  0  0  0  0  0  0
  139.0120   69.3080  223.9870 N   0  0  0  0  0  0  0  0  0  0  0  0
  138.1430   68.4420  223.1450 C   0  0  0  0  0  0  0  0  0  0  0  0
  138.5041   68.5022  222.1077 H   0  0  0  0  0  0  0  0  0  0  0  0
  138.2099   67.4310  223.5732 H   0  0  0  0  0  0  0  0  0  0  0  0
  136.6300   68.8190  223.1530 C   0  0  0  0  0  0  0  0  0  0  0  0
  136.1437   67.8631  222.9088 H   0  0  0  0  0  0  0  0  0  0  0  0
  136.0740   69.2220  224.5510 C   0  0  0  0  0  0  0  0  0  0  0  0
  135.3058   68.4898  224.8403 H   0  0  0  0  0  0  0  0  0  0  0  0
  136.9321   69.2360  225.2391 H   0  0  0  0  0  0  0  0  0  0  0  0
  135.4470   70.6220  224.6020 C   0  0  0  0  0  0  0  0  0  0  0  0
  134.4409   70.5824  224.1591 H   0  0  0  0  0  0  0  0  0  0  0  0
  135.3920   70.9445  225.6522 H   0  0  0  0  0  0  0  0  0  0  0  0
  136.2950   71.6270  223.8270 C   0  0  0  0  0  0  0  0  0  0  0  0
  135.8584   72.6296  223.9456 H   0  0  0  0  0  0  0  0  0  0  0  0
  137.3190   71.5957  224.2275 H   0  0  0  0  0  0  0  0  0  0  0  0
  136.3520   71.2810  222.3300 C   0  0  0  0  0  0  0  0  0  0  0  0
  135.5495   71.8318  221.8176 H   0  0  0  0  0  0  0  0  0  0  0  0
  137.3548   71.5642  221.9776 H   0  0  0  0  0  0  0  0  0  0  0  0
  136.1810   69.7780  222.0220 C   0  0  0  0  0  0  0  0  0  0  0  0
  135.1161   69.5909  221.8196 H   0  0  0  0  0  0  0  0  0  0  0  0
  136.8347   69.5655  221.1633 H   0  0  0  0  0  0  0  0  0  0  0  0
  139.9880   73.2500  221.7190 C   0  0  0  0  0  0  0  0  0  0  0  0
  141.0230   74.1960  221.7600 C   0  0  0  0  0  0  0  0  0  0  0  0
  142.0678   73.8671  221.6587 H   0  0  0  0  0  0  0  0  0  0  0  0
  140.7440   75.5160  221.9240 N   0  0  0  0  0  0  0  0  0  0  0  0
  139.4700   75.9670  222.0600 C   0  0  0  0  0  0  0  0  0  0  0  0
  139.2776   77.0431  222.1827 H   0  0  0  0  0  0  0  0  0  0  0  0
  138.4050   75.0650  222.0440 C   0  0  0  0  0  0  0  0  0  0  0  0
  137.3718   75.4240  222.1611 H   0  0  0  0  0  0  0  0  0  0  0  0
  138.6630   73.7030  221.8780 C   0  0  0  0  0  0  0  0  0  0  0  0
  137.8315   72.9829  221.8713 H   0  0  0  0  0  0  0  0  0  0  0  0
  1  2  1  0
  2  3  2  0
  3  4  1  0
  3  5  1  0
  5  6  2  0
  6  7  1  0
  7  8  2  0
  8  9  1  0
  8 10  1  0
 10 11  1  0
 10 12  2  0
 12 13  1  0
 12 14  1  0
 14 15  1  0
 14 16  2  0
 16 17  1  0
 17 18  2  0
 17 19  1  0
 19 20  1  0
 20 21  1  0
 20 22  1  0
 20 23  1  0
 23 24  1  0
 23 25  1  0
 25 26  1  0
 25 27  1  0
 25 28  1  0
 28 29  1  0
 28 30  1  0
 28 31  1  0
 31 32  1  0
 31 33  1  0
 31 34  1  0
 34 35  1  0
 34 36  1  0
 34 37  1  0
 37 38  1  0
 37 39  1  0
  2 40  1  0
 40 41  2  0
 41 42  1  0
 41 43  1  0
 43 44  2  0
 44 45  1  0
 44 46  1  0
 46 47  1  0
 46 48  2  0
 48 49  1  0
 19  5  1  0
 37 23  1  0
 48 40  1  0
 16  7  1  0
M  END
>  <UniqueID>  (50) 
25

>  <SMILES>  (50) 
O=c1c2ccccc2nc(/C=C/c2cccnc2)n1CC1CCCCC1

>  <Energy>  (50) 
74.34075685695049

>  <Genealogy>  (50) 
O=c1c2ccccc2nc(/C=C/c2cccnc2)n1CC1CCCCC1 (cis-trans isomerization)
O=c1c2ccccc2nc(/C=C/c2cccnc2)n1CC1CCCCC1 (3D coordinates assigned)
O=c1c2ccccc2nc(/C=C/c2cccnc2)n1CC1CCCCC1 (nonaromatic ring conformer: 74.34075685695049 kcal/mol)

>  <smiles>  (50) 
O=c1c2ccccc2nc(/C=C/c2cccnc2)n1CC1CCCCC1

>  <score_type>  (50) 
oracle

>  <origin>  (50) 
autodockgpu

>  <m_score__min__energy>  (50) 
-7.3499999999999996

>  <m_primary>  (50) 
energy

>  <meeko>  (50) 
{"free_energy": -6.94, "intermolecular_energy": -8.44, "internal_energy": -1.96, "cluster_size": 19, "cluster_id": 1, "rank_in_cluster": 15}

>  <energy>  (50) 
-7.06

>  <cluster_rmsd>  (50) 
0.33

>  <rmsd>  (50) 
272.12

>  <cluster>  (50) 
1

$$$$
XUFANRSCLZKORJ-OUKQBFOZNA-N
     RDKit          3D

 49 52  0  0  0  0  0  0  0  0999 V2000
  141.7306   71.0487  221.1496 H   0  0  0  0  0  0  0  0  0  0  0  0
  140.8800   71.6410  221.5180 C   0  0  0  0  0  0  0  0  0  0  0  0
  139.8160   70.9860  222.0080 C   0  0  0  0  0  0  0  0  0  0  0  0
  138.9618   70.7789  221.3465 H   0  0  0  0  0  0  0  0  0  0  0  0
  139.7640   70.5340  223.4220 C   0  0  0  0  0  0  0  0  0  0  0  0
  140.3410   71.3420  224.3530 N   0  0  0  0  0  0  0  0  0  0  0  0
  140.4130   71.0010  225.6580 C   0  0  0  0  0  0  0  0  0  0  0  0
  141.0060   71.8740  226.5780 C   0  0  0  0  0  0  0  0  0  0  0  0
  141.3916   72.8479  226.2423 H   0  0  0  0  0  0  0  0  0  0  0  0
  141.1080   71.5080  227.9230 C   0  0  0  0  0  0  0  0  0  0  0  0
  141.5688   72.1965  228.6466 H   0  0  0  0  0  0  0  0  0  0  0  0
  140.6250   70.2680  228.3490 C   0  0  0  0  0  0  0  0  0  0  0  0
  140.7090   69.9808  229.4075 H   0  0  0  0  0  0  0  0  0  0  0  0
  140.0350   69.3910  227.4330 C   0  0  0  0  0  0  0  0  0  0  0  0
  139.6580   68.4147  227.7716 H   0  0  0  0  0  0  0  0  0  0  0  0
  139.9230   69.7570  226.0760 C   0  0  0  0  0  0  0  0  0  0  0  0
  139.3320   68.9180  225.1170 C   0  0  0  0  0  0  0  0  0  0  0  0
  138.9510   67.7660  225.4670 O   0  0  0  0  0  0  0  0  0  0  0  0
  139.1850   69.3380  223.8100 N   0  0  0  0  0  0  0  0  0  0  0  0
  138.4290   68.4830  222.8560 C   0  0  0  0  0  0  0  0  0  0  0  0
  138.8944   68.5845  221.8645 H   0  0  0  0  0  0  0  0  0  0  0  0
  138.4747   67.4600  223.2578 H   0  0  0  0  0  0  0  0  0  0  0  0
  136.9140   68.8290  222.7170 C   0  0  0  0  0  0  0  0  0  0  0  0
  136.5025   67.9228  222.2485 H   0  0  0  0  0  0  0  0  0  0  0  0
  136.1600   68.9740  224.0720 C   0  0  0  0  0  0  0  0  0  0  0  0
  135.3888   68.1912  224.1228 H   0  0  0  0  0  0  0  0  0  0  0  0
  136.9162   68.8805  224.8653 H   0  0  0  0  0  0  0  0  0  0  0  0
  135.4780   70.3350  224.2720 C   0  0  0  0  0  0  0  0  0  0  0  0
  134.5428   70.3573  223.6933 H   0  0  0  0  0  0  0  0  0  0  0  0
  135.2708   70.4693  225.3439 H   0  0  0  0  0  0  0  0  0  0  0  0
  136.3810   71.4720  223.8050 C   0  0  0  0  0  0  0  0  0  0  0  0
  135.8926   72.4315  224.0303 H   0  0  0  0  0  0  0  0  0  0  0  0
  137.3423   71.3876  224.3330 H   0  0  0  0  0  0  0  0  0  0  0  0
  136.6530   71.3930  222.2940 C   0  0  0  0  0  0  0  0  0  0  0  0
  135.9060   72.0122  221.7758 H   0  0  0  0  0  0  0  0  0  0  0  0
  137.6821   71.7488  222.1382 H   0  0  0  0  0  0  0  0  0  0  0  0
  136.5840   69.9630  221.7140 C   0  0  0  0  0  0  0  0  0  0  0  0
  135.5642   69.7975  221.3364 H   0  0  0  0  0  0  0  0  0  0  0  0
  137.3552   69.9129  220.9312 H   0  0  0  0  0  0  0  0  0  0  0  0
  140.9720   73.1190  221.4460 C   0  0  0  0  0  0  0  0  0  0  0  0
  139.9360   73.8930  221.9900 C   0  0  0  0  0  0  0  0  0  0  0  0
  139.0798   73.3978  222.4713 H   0  0  0  0  0  0  0  0  0  0  0  0
  139.9820   75.2500  221.9270 N   0  0  0  0  0  0  0  0  0  0  0  0
  141.0160   75.9040  221.3350 C   0  0  0  0  0  0  0  0  0  0  0  0
  141.0273   77.0036  221.3069 H   0  0  0  0  0  0  0  0  0  0  0  0
  142.0630   75.1810  220.7630 C   0  0  0  0  0  0  0  0  0  0  0  0
  142.8987   75.7055  220.2768 H   0  0  0  0  0  0  0  0  0  0  0  0
  142.0410   73.7860  220.8130 C   0  0  0  0  0  0  0  0  0  0  0  0
  142.8581   73.2068  220.3583 H   0  0  0  0  0  0  0  0  0  0  0  0
  1  2  1  0
  2  3  2  0
  3  4  1  0
  3  5  1  0
  5  6  2  0
  6  7  1  0
  7  8  2  0
  8  9  1  0
  8 10  1  0
 10 11  1  0
 10 12  2  0
 12 13  1  0
 12 14  1  0
 14 15  1  0
 14 16  2  0
 16 17  1  0
 17 18  2  0
 17 19  1  0
 19 20  1  0
 20 21  1  0
 20 22  1  0
 20 23  1  0
 23 24  1  0
 23 25  1  0
 25 26  1  0
 25 27  1  0
 25 28  1  0
 28 29  1  0
 28 30  1  0
 28 31  1  0
 31 32  1  0
 31 33  1  0
 31 34  1  0
 34 35  1  0
 34 36  1  0
 34 37  1  0
 37 38  1  0
 37 39  1  0
  2 40  1  0
 40 41  2  0
 41 42  1  0
 41 43  1  0
 43 44  2  0
 44 45  1  0
 44 46  1  0
 46 47  1  0
 46 48  2  0
 48 49  1  0
 19  5  1  0
 37 23  1  0
 48 40  1  0
 16  7  1  0
M  END
>  <UniqueID>  (51) 
25

>  <SMILES>  (51) 
O=c1c2ccccc2nc(/C=C/c2cccnc2)n1CC1CCCCC1

>  <Energy>  (51) 
74.34075685695049

>  <Genealogy>  (51) 
O=c1c2ccccc2nc(/C=C/c2cccnc2)n1CC1CCCCC1 (cis-trans isomerization)
O=c1c2ccccc2nc(/C=C/c2cccnc2)n1CC1CCCCC1 (3D coordinates assigned)
O=c1c2ccccc2nc(/C=C/c2cccnc2)n1CC1CCCCC1 (nonaromatic ring conformer: 74.34075685695049 kcal/mol)

>  <smiles>  (51) 
O=c1c2ccccc2nc(/C=C/c2cccnc2)n1CC1CCCCC1

>  <score_type>  (51) 
oracle

>  <origin>  (51) 
autodockgpu

>  <m_score__min__energy>  (51) 
-7.3499999999999996

>  <m_primary>  (51) 
energy

>  <meeko>  (51) 
{"free_energy": -7.27, "intermolecular_energy": -8.76, "internal_energy": -1.73, "cluster_size": 19, "cluster_id": 1, "rank_in_cluster": 4}

>  <energy>  (51) 
-6.99

>  <cluster_rmsd>  (51) 
0.69

>  <rmsd>  (51) 
272.06

>  <cluster>  (51) 
1

$$$$
XUFANRSCLZKORJ-OUKQBFOZNA-N
     RDKit          3D

 49 52  0  0  0  0  0  0  0  0999 V2000
  141.1478   70.5591  220.7730 H   0  0  0  0  0  0  0  0  0  0  0  0
  141.2390   71.5230  221.2950 C   0  0  0  0  0  0  0  0  0  0  0  0
  140.2820   71.8610  222.1740 C   0  0  0  0  0  0  0  0  0  0  0  0
  139.5999   72.6895  221.9326 H   0  0  0  0  0  0  0  0  0  0  0  0
  140.1220   71.1430  223.4650 C   0  0  0  0  0  0  0  0  0  0  0  0
  140.6060   71.7550  224.5790 N   0  0  0  0  0  0  0  0  0  0  0  0
  140.5760   71.1680  225.7950 C   0  0  0  0  0  0  0  0  0  0  0  0
  141.0760   71.8460  226.9130 C   0  0  0  0  0  0  0  0  0  0  0  0
  141.4714   72.8669  226.8056 H   0  0  0  0  0  0  0  0  0  0  0  0
  141.0730   71.2260  228.1660 C   0  0  0  0  0  0  0  0  0  0  0  0
  141.4604   71.7615  229.0453 H   0  0  0  0  0  0  0  0  0  0  0  0
  140.5780   69.9260  228.3020 C   0  0  0  0  0  0  0  0  0  0  0  0
  140.5786   69.4390  229.2883 H   0  0  0  0  0  0  0  0  0  0  0  0
  140.0820   69.2430  227.1870 C   0  0  0  0  0  0  0  0  0  0  0  0
  139.6967   68.2186  227.2973 H   0  0  0  0  0  0  0  0  0  0  0  0
  140.0750   69.8650  225.9220 C   0  0  0  0  0  0  0  0  0  0  0  0
  139.5800   69.2280  224.7720 C   0  0  0  0  0  0  0  0  0  0  0  0
  139.1920   68.0290  224.8590 O   0  0  0  0  0  0  0  0  0  0  0  0
  139.5340   69.8930  223.5640 N   0  0  0  0  0  0  0  0  0  0  0  0
  138.8750   69.2390  222.4020 C   0  0  0  0  0  0  0  0  0  0  0  0
  139.4032   69.5525  221.4895 H   0  0  0  0  0  0  0  0  0  0  0  0
  138.9285   68.1562  222.5882 H   0  0  0  0  0  0  0  0  0  0  0  0
  137.3620   69.5760  222.2250 C   0  0  0  0  0  0  0  0  0  0  0  0
  137.2480   69.6012  221.1312 H   0  0  0  0  0  0  0  0  0  0  0  0
  136.3920   68.4610  222.7180 C   0  0  0  0  0  0  0  0  0  0  0  0
  135.8226   68.0921  221.8522 H   0  0  0  0  0  0  0  0  0  0  0  0
  137.0160   67.6830  223.1820 H   0  0  0  0  0  0  0  0  0  0  0  0
  135.3940   68.9210  223.7890 C   0  0  0  0  0  0  0  0  0  0  0  0
  134.5807   69.4823  223.3057 H   0  0  0  0  0  0  0  0  0  0  0  0
  134.9966   68.0332  224.3027 H   0  0  0  0  0  0  0  0  0  0  0  0
  136.0740   69.8160  224.8200 C   0  0  0  0  0  0  0  0  0  0  0  0
  135.3497   70.0657  225.6094 H   0  0  0  0  0  0  0  0  0  0  0  0
  136.9345   69.2709  225.2352 H   0  0  0  0  0  0  0  0  0  0  0  0
  136.5890   71.1170  224.1860 C   0  0  0  0  0  0  0  0  0  0  0  0
  135.8099   71.8859  224.2946 H   0  0  0  0  0  0  0  0  0  0  0  0
  137.5202   71.3778  224.7103 H   0  0  0  0  0  0  0  0  0  0  0  0
  136.9420   70.9930  222.6880 C   0  0  0  0  0  0  0  0  0  0  0  0
  136.0596   71.2942  222.1043 H   0  0  0  0  0  0  0  0  0  0  0  0
  137.8173   71.6392  222.5260 H   0  0  0  0  0  0  0  0  0  0  0  0
  142.4110   72.3760  220.9890 C   0  0  0  0  0  0  0  0  0  0  0  0
  142.2180   73.7520  220.7890 C   0  0  0  0  0  0  0  0  0  0  0  0
  141.2082   74.1796  220.8750 H   0  0  0  0  0  0  0  0  0  0  0  0
  143.2690   74.5600  220.4900 N   0  0  0  0  0  0  0  0  0  0  0  0
  144.5320   74.0750  220.3670 C   0  0  0  0  0  0  0  0  0  0  0  0
  145.3625   74.7571  220.1325 H   0  0  0  0  0  0  0  0  0  0  0  0
  144.7760   72.7120  220.5380 C   0  0  0  0  0  0  0  0  0  0  0  0
  145.7958   72.3134  220.4327 H   0  0  0  0  0  0  0  0  0  0  0  0
  143.7140   71.8580  220.8440 C   0  0  0  0  0  0  0  0  0  0  0  0
  143.8945   70.7805  220.9719 H   0  0  0  0  0  0  0  0  0  0  0  0
  1  2  1  0
  2  3  2  0
  3  4  1  0
  3  5  1  0
  5  6  2  0
  6  7  1  0
  7  8  2  0
  8  9  1  0
  8 10  1  0
 10 11  1  0
 10 12  2  0
 12 13  1  0
 12 14  1  0
 14 15  1  0
 14 16  2  0
 16 17  1  0
 17 18  2  0
 17 19  1  0
 19 20  1  0
 20 21  1  0
 20 22  1  0
 20 23  1  0
 23 24  1  0
 23 25  1  0
 25 26  1  0
 25 27  1  0
 25 28  1  0
 28 29  1  0
 28 30  1  0
 28 31  1  0
 31 32  1  0
 31 33  1  0
 31 34  1  0
 34 35  1  0
 34 36  1  0
 34 37  1  0
 37 38  1  0
 37 39  1  0
  2 40  1  0
 40 41  2  0
 41 42  1  0
 41 43  1  0
 43 44  2  0
 44 45  1  0
 44 46  1  0
 46 47  1  0
 46 48  2  0
 48 49  1  0
 19  5  1  0
 37 23  1  0
 48 40  1  0
 16  7  1  0
M  END
>  <UniqueID>  (52) 
25

>  <SMILES>  (52) 
O=c1c2ccccc2nc(/C=C/c2cccnc2)n1CC1CCCCC1

>  <Energy>  (52) 
74.34075685695049

>  <Genealogy>  (52) 
O=c1c2ccccc2nc(/C=C/c2cccnc2)n1CC1CCCCC1 (cis-trans isomerization)
O=c1c2ccccc2nc(/C=C/c2cccnc2)n1CC1CCCCC1 (3D coordinates assigned)
O=c1c2ccccc2nc(/C=C/c2cccnc2)n1CC1CCCCC1 (nonaromatic ring conformer: 74.34075685695049 kcal/mol)

>  <smiles>  (52) 
O=c1c2ccccc2nc(/C=C/c2cccnc2)n1CC1CCCCC1

>  <score_type>  (52) 
oracle

>  <origin>  (52) 
autodockgpu

>  <m_score__min__energy>  (52) 
-7.3499999999999996

>  <m_primary>  (52) 
energy

>  <meeko>  (52) 
{"free_energy": -7.12, "intermolecular_energy": -8.61, "internal_energy": -1.56, "cluster_size": 19, "cluster_id": 1, "rank_in_cluster": 8}

>  <energy>  (52) 
-6.99

>  <cluster_rmsd>  (52) 
0.97

>  <rmsd>  (52) 
272.14

>  <cluster>  (52) 
1

$$$$
XUFANRSCLZKORJ-OUKQBFOZNA-N
     RDKit          3D

 49 52  0  0  0  0  0  0  0  0999 V2000
  141.7084   71.0801  220.9333 H   0  0  0  0  0  0  0  0  0  0  0  0
  140.8510   71.5160  221.4670 C   0  0  0  0  0  0  0  0  0  0  0  0
  139.9290   70.6820  221.9720 C   0  0  0  0  0  0  0  0  0  0  0  0
  139.2076   70.2045  221.2926 H   0  0  0  0  0  0  0  0  0  0  0  0
  139.8590   70.3880  223.4270 C   0  0  0  0  0  0  0  0  0  0  0  0
  140.5360   71.2220  224.2620 N   0  0  0  0  0  0  0  0  0  0  0  0
  140.6000   71.0140  225.5950 C   0  0  0  0  0  0  0  0  0  0  0  0
  141.2980   71.9100  226.4120 C   0  0  0  0  0  0  0  0  0  0  0  0
  141.7746   72.7983  225.9719 H   0  0  0  0  0  0  0  0  0  0  0  0
  141.3900   71.6770  227.7870 C   0  0  0  0  0  0  0  0  0  0  0  0
  141.9350   72.3844  228.4293 H   0  0  0  0  0  0  0  0  0  0  0  0
  140.7900   70.5460  228.3460 C   0  0  0  0  0  0  0  0  0  0  0  0
  140.8656   70.3632  229.4281 H   0  0  0  0  0  0  0  0  0  0  0  0
  140.0930   69.6450  227.5330 C   0  0  0  0  0  0  0  0  0  0  0  0
  139.6237   68.7543  227.9763 H   0  0  0  0  0  0  0  0  0  0  0  0
  139.9920   69.8780  226.1470 C   0  0  0  0  0  0  0  0  0  0  0  0
  139.2970   69.0110  225.2870 C   0  0  0  0  0  0  0  0  0  0  0  0
  138.8060   67.9480  225.7600 O   0  0  0  0  0  0  0  0  0  0  0  0
  139.1680   69.3060  223.9450 N   0  0  0  0  0  0  0  0  0  0  0  0
  138.3080   68.4400  223.0930 C   0  0  0  0  0  0  0  0  0  0  0  0
  138.7437   68.4142  222.0833 H   0  0  0  0  0  0  0  0  0  0  0  0
  138.2821   67.4554  223.5827 H   0  0  0  0  0  0  0  0  0  0  0  0
  136.8240   68.9040  222.9680 C   0  0  0  0  0  0  0  0  0  0  0  0
  136.3205   67.9973  222.6014 H   0  0  0  0  0  0  0  0  0  0  0  0
  136.1370   69.2400  224.3250 C   0  0  0  0  0  0  0  0  0  0  0  0
  135.3047   68.5363  224.4733 H   0  0  0  0  0  0  0  0  0  0  0  0
  136.9125   69.1544  225.1004 H   0  0  0  0  0  0  0  0  0  0  0  0
  135.5810   70.6680  224.4150 C   0  0  0  0  0  0  0  0  0  0  0  0
  134.6291   70.7191  223.8662 H   0  0  0  0  0  0  0  0  0  0  0  0
  135.4274   70.9192  225.4749 H   0  0  0  0  0  0  0  0  0  0  0  0
  136.5590   71.6720  223.8130 C   0  0  0  0  0  0  0  0  0  0  0  0
  136.1637   72.6879  223.9604 H   0  0  0  0  0  0  0  0  0  0  0  0
  137.5295   71.5513  224.3165 H   0  0  0  0  0  0  0  0  0  0  0  0
  136.7640   71.4300  222.3100 C   0  0  0  0  0  0  0  0  0  0  0  0
  136.0522   72.0616  221.7583 H   0  0  0  0  0  0  0  0  0  0  0  0
  137.8126   71.6783  222.0891 H   0  0  0  0  0  0  0  0  0  0  0  0
  136.5520   69.9640  221.8720 C   0  0  0  0  0  0  0  0  0  0  0  0
  135.5079   69.8542  221.5436 H   0  0  0  0  0  0  0  0  0  0  0  0
  137.2850   69.7741  221.0741 H   0  0  0  0  0  0  0  0  0  0  0  0
  140.7790   72.9920  221.5880 C   0  0  0  0  0  0  0  0  0  0  0  0
  139.6690   73.5680  222.2260 C   0  0  0  0  0  0  0  0  0  0  0  0
  138.8789   72.9221  222.6365 H   0  0  0  0  0  0  0  0  0  0  0  0
  139.5640   74.9190  222.3400 N   0  0  0  0  0  0  0  0  0  0  0  0
  140.5120   75.7550  221.8410 C   0  0  0  0  0  0  0  0  0  0  0  0
  140.4013   76.8433  221.9565 H   0  0  0  0  0  0  0  0  0  0  0  0
  141.6260   75.2330  221.1820 C   0  0  0  0  0  0  0  0  0  0  0  0
  142.3926   75.9058  220.7701 H   0  0  0  0  0  0  0  0  0  0  0  0
  141.7590   73.8490  221.0500 C   0  0  0  0  0  0  0  0  0  0  0  0
  142.6295   73.4279  220.5256 H   0  0  0  0  0  0  0  0  0  0  0  0
  1  2  1  0
  2  3  2  0
  3  4  1  0
  3  5  1  0
  5  6  2  0
  6  7  1  0
  7  8  2  0
  8  9  1  0
  8 10  1  0
 10 11  1  0
 10 12  2  0
 12 13  1  0
 12 14  1  0
 14 15  1  0
 14 16  2  0
 16 17  1  0
 17 18  2  0
 17 19  1  0
 19 20  1  0
 20 21  1  0
 20 22  1  0
 20 23  1  0
 23 24  1  0
 23 25  1  0
 25 26  1  0
 25 27  1  0
 25 28  1  0
 28 29  1  0
 28 30  1  0
 28 31  1  0
 31 32  1  0
 31 33  1  0
 31 34  1  0
 34 35  1  0
 34 36  1  0
 34 37  1  0
 37 38  1  0
 37 39  1  0
  2 40  1  0
 40 41  2  0
 41 42  1  0
 41 43  1  0
 43 44  2  0
 44 45  1  0
 44 46  1  0
 46 47  1  0
 46 48  2  0
 48 49  1  0
 19  5  1  0
 37 23  1  0
 48 40  1  0
 16  7  1  0
M  END
>  <UniqueID>  (53) 
25

>  <SMILES>  (53) 
O=c1c2ccccc2nc(/C=C/c2cccnc2)n1CC1CCCCC1

>  <Energy>  (53) 
74.34075685695049

>  <Genealogy>  (53) 
O=c1c2ccccc2nc(/C=C/c2cccnc2)n1CC1CCCCC1 (cis-trans isomerization)
O=c1c2ccccc2nc(/C=C/c2cccnc2)n1CC1CCCCC1 (3D coordinates assigned)
O=c1c2ccccc2nc(/C=C/c2cccnc2)n1CC1CCCCC1 (nonaromatic ring conformer: 74.34075685695049 kcal/mol)

>  <smiles>  (53) 
O=c1c2ccccc2nc(/C=C/c2cccnc2)n1CC1CCCCC1

>  <score_type>  (53) 
oracle

>  <origin>  (53) 
autodockgpu

>  <m_score__min__energy>  (53) 
-7.3499999999999996

>  <m_primary>  (53) 
energy

>  <meeko>  (53) 
{"free_energy": -7.22, "intermolecular_energy": -8.72, "internal_energy": -1.92, "cluster_size": 19, "cluster_id": 1, "rank_in_cluster": 6}

>  <energy>  (53) 
-6.96

>  <cluster_rmsd>  (53) 
0.69

>  <rmsd>  (53) 
272.1

>  <cluster>  (53) 
1

$$$$
XUFANRSCLZKORJ-OUKQBFOZNA-N
     RDKit          3D

 49 52  0  0  0  0  0  0  0  0999 V2000
  141.2644   71.6339  221.0238 H   0  0  0  0  0  0  0  0  0  0  0  0
  140.3480   71.9060  221.5680 C   0  0  0  0  0  0  0  0  0  0  0  0
  139.5830   70.9170  222.0560 C   0  0  0  0  0  0  0  0  0  0  0  0
  138.9097   70.3745  221.3761 H   0  0  0  0  0  0  0  0  0  0  0  0
  139.6230   70.5370  223.4910 C   0  0  0  0  0  0  0  0  0  0  0  0
  140.3070   71.3600  224.3320 N   0  0  0  0  0  0  0  0  0  0  0  0
  140.4680   71.0790  225.6440 C   0  0  0  0  0  0  0  0  0  0  0  0
  141.1690   71.9660  226.4690 C   0  0  0  0  0  0  0  0  0  0  0  0
  141.5680   72.9038  226.0550 H   0  0  0  0  0  0  0  0  0  0  0  0
  141.3620   71.6600  227.8190 C   0  0  0  0  0  0  0  0  0  0  0  0
  141.9086   72.3595  228.4685 H   0  0  0  0  0  0  0  0  0  0  0  0
  140.8610   70.4660  228.3440 C   0  0  0  0  0  0  0  0  0  0  0  0
  141.0158   70.2261  229.4063 H   0  0  0  0  0  0  0  0  0  0  0  0
  140.1630   69.5750  227.5220 C   0  0  0  0  0  0  0  0  0  0  0  0
  139.7729   68.6343  227.9380 H   0  0  0  0  0  0  0  0  0  0  0  0
  139.9590   69.8810  226.1620 C   0  0  0  0  0  0  0  0  0  0  0  0
  139.2580   69.0260  225.2950 C   0  0  0  0  0  0  0  0  0  0  0  0
  138.8560   67.9110  225.7320 O   0  0  0  0  0  0  0  0  0  0  0  0
  139.0260   69.3890  223.9840 N   0  0  0  0  0  0  0  0  0  0  0  0
  138.1600   68.5260  223.1360 C   0  0  0  0  0  0  0  0  0  0  0  0
  138.5245   68.5903  222.1001 H   0  0  0  0  0  0  0  0  0  0  0  0
  138.2257   67.5136  223.5610 H   0  0  0  0  0  0  0  0  0  0  0  0
  136.6460   68.9020  223.1400 C   0  0  0  0  0  0  0  0  0  0  0  0
  136.1605   67.9486  222.8845 H   0  0  0  0  0  0  0  0  0  0  0  0
  136.0840   69.2920  224.5400 C   0  0  0  0  0  0  0  0  0  0  0  0
  135.3144   68.5574  224.8194 H   0  0  0  0  0  0  0  0  0  0  0  0
  136.9387   69.2991  225.2324 H   0  0  0  0  0  0  0  0  0  0  0  0
  135.4570   70.6920  224.6000 C   0  0  0  0  0  0  0  0  0  0  0  0
  134.4525   70.6561  224.1531 H   0  0  0  0  0  0  0  0  0  0  0  0
  135.3986   71.0058  225.6527 H   0  0  0  0  0  0  0  0  0  0  0  0
  136.3070   71.7030  223.8370 C   0  0  0  0  0  0  0  0  0  0  0  0
  135.8693   72.7043  223.9624 H   0  0  0  0  0  0  0  0  0  0  0  0
  137.3294   71.6679  224.2413 H   0  0  0  0  0  0  0  0  0  0  0  0
  136.3710   71.3710  222.3390 C   0  0  0  0  0  0  0  0  0  0  0  0
  135.5706   71.9262  221.8280 H   0  0  0  0  0  0  0  0  0  0  0  0
  137.3754   71.6577  221.9940 H   0  0  0  0  0  0  0  0  0  0  0  0
  136.2020   69.8700  222.0160 C   0  0  0  0  0  0  0  0  0  0  0  0
  135.1382   69.6842  221.8068 H   0  0  0  0  0  0  0  0  0  0  0  0
  136.8595   69.6654  221.1582 H   0  0  0  0  0  0  0  0  0  0  0  0
  140.0260   73.3450  221.7220 C   0  0  0  0  0  0  0  0  0  0  0  0
  141.0680   74.2840  221.6790 C   0  0  0  0  0  0  0  0  0  0  0  0
  142.1022   73.9448  221.5195 H   0  0  0  0  0  0  0  0  0  0  0  0
  140.8090   75.6100  221.8330 N   0  0  0  0  0  0  0  0  0  0  0  0
  139.5480   76.0730  222.0390 C   0  0  0  0  0  0  0  0  0  0  0  0
  139.3704   77.1527  222.1514 H   0  0  0  0  0  0  0  0  0  0  0  0
  138.4790   75.1800  222.1080 C   0  0  0  0  0  0  0  0  0  0  0  0
  137.4576   75.5494  222.2821 H   0  0  0  0  0  0  0  0  0  0  0  0
  138.7170   73.8120  221.9540 C   0  0  0  0  0  0  0  0  0  0  0  0
  137.8817   73.0988  222.0139 H   0  0  0  0  0  0  0  0  0  0  0  0
  1  2  1  0
  2  3  2  0
  3  4  1  0
  3  5  1  0
  5  6  2  0
  6  7  1  0
  7  8  2  0
  8  9  1  0
  8 10  1  0
 10 11  1  0
 10 12  2  0
 12 13  1  0
 12 14  1  0
 14 15  1  0
 14 16  2  0
 16 17  1  0
 17 18  2  0
 17 19  1  0
 19 20  1  0
 20 21  1  0
 20 22  1  0
 20 23  1  0
 23 24  1  0
 23 25  1  0
 25 26  1  0
 25 27  1  0
 25 28  1  0
 28 29  1  0
 28 30  1  0
 28 31  1  0
 31 32  1  0
 31 33  1  0
 31 34  1  0
 34 35  1  0
 34 36  1  0
 34 37  1  0
 37 38  1  0
 37 39  1  0
  2 40  1  0
 40 41  2  0
 41 42  1  0
 41 43  1  0
 43 44  2  0
 44 45  1  0
 44 46  1  0
 46 47  1  0
 46 48  2  0
 48 49  1  0
 19  5  1  0
 37 23  1  0
 48 40  1  0
 16  7  1  0
M  END
>  <UniqueID>  (54) 
25

>  <SMILES>  (54) 
O=c1c2ccccc2nc(/C=C/c2cccnc2)n1CC1CCCCC1

>  <Energy>  (54) 
74.34075685695049

>  <Genealogy>  (54) 
O=c1c2ccccc2nc(/C=C/c2cccnc2)n1CC1CCCCC1 (cis-trans isomerization)
O=c1c2ccccc2nc(/C=C/c2cccnc2)n1CC1CCCCC1 (3D coordinates assigned)
O=c1c2ccccc2nc(/C=C/c2cccnc2)n1CC1CCCCC1 (nonaromatic ring conformer: 74.34075685695049 kcal/mol)

>  <smiles>  (54) 
O=c1c2ccccc2nc(/C=C/c2cccnc2)n1CC1CCCCC1

>  <score_type>  (54) 
oracle

>  <origin>  (54) 
autodockgpu

>  <m_score__min__energy>  (54) 
-7.3499999999999996

>  <m_primary>  (54) 
energy

>  <meeko>  (54) 
{"free_energy": -6.96, "intermolecular_energy": -8.45, "internal_energy": -1.95, "cluster_size": 19, "cluster_id": 1, "rank_in_cluster": 13}

>  <energy>  (54) 
-6.95

>  <cluster_rmsd>  (54) 
0.97

>  <rmsd>  (54) 
272.02

>  <cluster>  (54) 
1

$$$$
XUFANRSCLZKORJ-OUKQBFOZNA-N
     RDKit          3D

 49 52  0  0  0  0  0  0  0  0999 V2000
  141.6424   70.9546  220.7621 H   0  0  0  0  0  0  0  0  0  0  0  0
  140.8210   71.3720  221.3630 C   0  0  0  0  0  0  0  0  0  0  0  0
  139.9280   70.5220  221.8940 C   0  0  0  0  0  0  0  0  0  0  0  0
  139.2469   69.9735  221.2267 H   0  0  0  0  0  0  0  0  0  0  0  0
  139.8370   70.3040  223.3600 C   0  0  0  0  0  0  0  0  0  0  0  0
  140.5470   71.1460  224.1580 N   0  0  0  0  0  0  0  0  0  0  0  0
  140.5940   71.0000  225.5010 C   0  0  0  0  0  0  0  0  0  0  0  0
  141.3300   71.9020  226.2780 C   0  0  0  0  0  0  0  0  0  0  0  0
  141.8511   72.7434  225.7980 H   0  0  0  0  0  0  0  0  0  0  0  0
  141.4030   71.7340  227.6630 C   0  0  0  0  0  0  0  0  0  0  0  0
  141.9770   72.4464  228.2737 H   0  0  0  0  0  0  0  0  0  0  0  0
  140.7470   70.6610  228.2730 C   0  0  0  0  0  0  0  0  0  0  0  0
  140.8080   70.5287  229.3633 H   0  0  0  0  0  0  0  0  0  0  0  0
  140.0130   69.7550  227.5000 C   0  0  0  0  0  0  0  0  0  0  0  0
  139.5000   68.9104  227.9831 H   0  0  0  0  0  0  0  0  0  0  0  0
  139.9300   69.9230  226.1030 C   0  0  0  0  0  0  0  0  0  0  0  0
  139.2000   69.0490  225.2810 C   0  0  0  0  0  0  0  0  0  0  0  0
  138.6560   68.0350  225.8020 O   0  0  0  0  0  0  0  0  0  0  0  0
  139.0920   69.2820  223.9250 N   0  0  0  0  0  0  0  0  0  0  0  0
  138.1960   68.4180  223.1110 C   0  0  0  0  0  0  0  0  0  0  0  0
  138.6182   68.3483  222.0976 H   0  0  0  0  0  0  0  0  0  0  0  0
  138.1465   67.4507  223.6324 H   0  0  0  0  0  0  0  0  0  0  0  0
  136.7250   68.9210  222.9880 C   0  0  0  0  0  0  0  0  0  0  0  0
  136.1976   68.0312  222.6137 H   0  0  0  0  0  0  0  0  0  0  0  0
  136.0460   69.2640  224.3470 C   0  0  0  0  0  0  0  0  0  0  0  0
  135.1953   68.5813  224.4891 H   0  0  0  0  0  0  0  0  0  0  0  0
  136.8182   69.1517  225.1223 H   0  0  0  0  0  0  0  0  0  0  0  0
  135.5280   70.7050  224.4480 C   0  0  0  0  0  0  0  0  0  0  0  0
  134.5785   70.7854  223.8984 H   0  0  0  0  0  0  0  0  0  0  0  0
  135.3803   70.9509  225.5099 H   0  0  0  0  0  0  0  0  0  0  0  0
  136.5320   71.6890  223.8560 C   0  0  0  0  0  0  0  0  0  0  0  0
  136.1621   72.7133  224.0107 H   0  0  0  0  0  0  0  0  0  0  0  0
  137.4983   71.5407  224.3602 H   0  0  0  0  0  0  0  0  0  0  0  0
  136.7330   71.4530  222.3510 C   0  0  0  0  0  0  0  0  0  0  0  0
  136.0392   72.1078  221.8034 H   0  0  0  0  0  0  0  0  0  0  0  0
  137.7885   71.6745  222.1343 H   0  0  0  0  0  0  0  0  0  0  0  0
  136.4830   69.9970  221.9000 C   0  0  0  0  0  0  0  0  0  0  0  0
  135.4370   69.9177  221.5690 H   0  0  0  0  0  0  0  0  0  0  0  0
  137.2119   69.7944  221.1014 H   0  0  0  0  0  0  0  0  0  0  0  0
  140.7610   72.8430  221.5420 C   0  0  0  0  0  0  0  0  0  0  0  0
  139.6470   73.4050  222.1850 C   0  0  0  0  0  0  0  0  0  0  0  0
  138.8441   72.7520  222.5578 H   0  0  0  0  0  0  0  0  0  0  0  0
  139.5540   74.7520  222.3500 N   0  0  0  0  0  0  0  0  0  0  0  0
  140.5180   75.5960  221.9010 C   0  0  0  0  0  0  0  0  0  0  0  0
  140.4164   76.6800  222.0582 H   0  0  0  0  0  0  0  0  0  0  0  0
  141.6380   75.0890  221.2400 C   0  0  0  0  0  0  0  0  0  0  0  0
  142.4182   75.7694  220.8682 H   0  0  0  0  0  0  0  0  0  0  0  0
  141.7590   73.7100  221.0550 C   0  0  0  0  0  0  0  0  0  0  0  0
  142.6339   73.3006  220.5288 H   0  0  0  0  0  0  0  0  0  0  0  0
  1  2  1  0
  2  3  2  0
  3  4  1  0
  3  5  1  0
  5  6  2  0
  6  7  1  0
  7  8  2  0
  8  9  1  0
  8 10  1  0
 10 11  1  0
 10 12  2  0
 12 13  1  0
 12 14  1  0
 14 15  1  0
 14 16  2  0
 16 17  1  0
 17 18  2  0
 17 19  1  0
 19 20  1  0
 20 21  1  0
 20 22  1  0
 20 23  1  0
 23 24  1  0
 23 25  1  0
 25 26  1  0
 25 27  1  0
 25 28  1  0
 28 29  1  0
 28 30  1  0
 28 31  1  0
 31 32  1  0
 31 33  1  0
 31 34  1  0
 34 35  1  0
 34 36  1  0
 34 37  1  0
 37 38  1  0
 37 39  1  0
  2 40  1  0
 40 41  2  0
 41 42  1  0
 41 43  1  0
 43 44  2  0
 44 45  1  0
 44 46  1  0
 46 47  1  0
 46 48  2  0
 48 49  1  0
 19  5  1  0
 37 23  1  0
 48 40  1  0
 16  7  1  0
M  END
>  <UniqueID>  (55) 
25

>  <SMILES>  (55) 
O=c1c2ccccc2nc(/C=C/c2cccnc2)n1CC1CCCCC1

>  <Energy>  (55) 
74.34075685695049

>  <Genealogy>  (55) 
O=c1c2ccccc2nc(/C=C/c2cccnc2)n1CC1CCCCC1 (cis-trans isomerization)
O=c1c2ccccc2nc(/C=C/c2cccnc2)n1CC1CCCCC1 (3D coordinates assigned)
O=c1c2ccccc2nc(/C=C/c2cccnc2)n1CC1CCCCC1 (nonaromatic ring conformer: 74.34075685695049 kcal/mol)

>  <smiles>  (55) 
O=c1c2ccccc2nc(/C=C/c2cccnc2)n1CC1CCCCC1

>  <score_type>  (55) 
oracle

>  <origin>  (55) 
autodockgpu

>  <m_score__min__energy>  (55) 
-7.3499999999999996

>  <m_primary>  (55) 
energy

>  <meeko>  (55) 
{"free_energy": -7.06, "intermolecular_energy": -8.55, "internal_energy": -1.96, "cluster_size": 19, "cluster_id": 1, "rank_in_cluster": 10}

>  <energy>  (55) 
-6.94

>  <cluster_rmsd>  (55) 
0.68

>  <rmsd>  (55) 
272.07

>  <cluster>  (55) 
1

$$$$
XUFANRSCLZKORJ-OUKQBFOZNA-N
     RDKit          3D

 49 52  0  0  0  0  0  0  0  0999 V2000
  142.8735   80.5660  219.1415 H   0  0  0  0  0  0  0  0  0  0  0  0
  142.1980   79.7250  218.9260 C   0  0  0  0  0  0  0  0  0  0  0  0
  141.4520   79.2390  219.9290 C   0  0  0  0  0  0  0  0  0  0  0  0
  140.7350   79.9022  220.4350 H   0  0  0  0  0  0  0  0  0  0  0  0
  141.5710   77.8260  220.3730 C   0  0  0  0  0  0  0  0  0  0  0  0
  142.5490   77.0750  219.7990 N   0  0  0  0  0  0  0  0  0  0  0  0
  142.7060   75.7620  220.0740 C   0  0  0  0  0  0  0  0  0  0  0  0
  143.7370   75.0370  219.4650 C   0  0  0  0  0  0  0  0  0  0  0  0
  144.4340   75.5419  218.7800 H   0  0  0  0  0  0  0  0  0  0  0  0
  143.8810   73.6720  219.7270 C   0  0  0  0  0  0  0  0  0  0  0  0
  144.6946   73.1040  219.2522 H   0  0  0  0  0  0  0  0  0  0  0  0
  142.9920   73.0280  220.5920 C   0  0  0  0  0  0  0  0  0  0  0  0
  143.1055   71.9529  220.7952 H   0  0  0  0  0  0  0  0  0  0  0  0
  141.9580   73.7480  221.2000 C   0  0  0  0  0  0  0  0  0  0  0  0
  141.2581   73.2377  221.8780 H   0  0  0  0  0  0  0  0  0  0  0  0
  141.8120   75.1260  220.9450 C   0  0  0  0  0  0  0  0  0  0  0  0
  140.7970   75.8970  221.5360 C   0  0  0  0  0  0  0  0  0  0  0  0
  139.9420   75.3230  222.2670 O   0  0  0  0  0  0  0  0  0  0  0  0
  140.7240   77.2570  221.3100 N   0  0  0  0  0  0  0  0  0  0  0  0
  139.7260   78.0630  222.0620 C   0  0  0  0  0  0  0  0  0  0  0  0
  139.3094   78.8158  221.3766 H   0  0  0  0  0  0  0  0  0  0  0  0
  138.9763   77.3510  222.4373 H   0  0  0  0  0  0  0  0  0  0  0  0
  140.2860   78.8060  223.3140 C   0  0  0  0  0  0  0  0  0  0  0  0
  139.8025   78.2729  224.1459 H   0  0  0  0  0  0  0  0  0  0  0  0
  141.8160   78.6240  223.5400 C   0  0  0  0  0  0  0  0  0  0  0  0
  141.9633   78.1000  224.4959 H   0  0  0  0  0  0  0  0  0  0  0  0
  142.1967   78.0558  222.6785 H   0  0  0  0  0  0  0  0  0  0  0  0
  142.6080   79.9390  223.5850 C   0  0  0  0  0  0  0  0  0  0  0  0
  142.4701   80.4087  224.5701 H   0  0  0  0  0  0  0  0  0  0  0  0
  143.6708   79.7147  223.4111 H   0  0  0  0  0  0  0  0  0  0  0  0
  142.1300   80.9010  222.5020 C   0  0  0  0  0  0  0  0  0  0  0  0
  142.7652   81.7990  222.5162 H   0  0  0  0  0  0  0  0  0  0  0  0
  142.1975   80.3880  221.5313 H   0  0  0  0  0  0  0  0  0  0  0  0
  140.6690   81.3200  222.7240 C   0  0  0  0  0  0  0  0  0  0  0  0
  140.6624   82.2532  223.3063 H   0  0  0  0  0  0  0  0  0  0  0  0
  140.2186   81.4365  221.7272 H   0  0  0  0  0  0  0  0  0  0  0  0
  139.8180   80.2740  223.4760 C   0  0  0  0  0  0  0  0  0  0  0  0
  139.8410   80.5226  224.5473 H   0  0  0  0  0  0  0  0  0  0  0  0
  138.8112   80.3247  223.0357 H   0  0  0  0  0  0  0  0  0  0  0  0
  142.1630   79.1920  217.5430 C   0  0  0  0  0  0  0  0  0  0  0  0
  141.2860   79.7710  216.6120 C   0  0  0  0  0  0  0  0  0  0  0  0
  140.6497   80.6163  216.9131 H   0  0  0  0  0  0  0  0  0  0  0  0
  141.2180   79.2940  215.3410 N   0  0  0  0  0  0  0  0  0  0  0  0
  141.9790   78.2480  214.9260 C   0  0  0  0  0  0  0  0  0  0  0  0
  141.9057   77.8916  213.8879 H   0  0  0  0  0  0  0  0  0  0  0  0
  142.8540   77.6260  215.8180 C   0  0  0  0  0  0  0  0  0  0  0  0
  143.4676   76.7741  215.4898 H   0  0  0  0  0  0  0  0  0  0  0  0
  142.9440   78.0940  217.1300 C   0  0  0  0  0  0  0  0  0  0  0  0
  143.6251   77.6053  217.8422 H   0  0  0  0  0  0  0  0  0  0  0  0
  1  2  1  0
  2  3  2  0
  3  4  1  0
  3  5  1  0
  5  6  2  0
  6  7  1  0
  7  8  2  0
  8  9  1  0
  8 10  1  0
 10 11  1  0
 10 12  2  0
 12 13  1  0
 12 14  1  0
 14 15  1  0
 14 16  2  0
 16 17  1  0
 17 18  2  0
 17 19  1  0
 19 20  1  0
 20 21  1  0
 20 22  1  0
 20 23  1  0
 23 24  1  0
 23 25  1  0
 25 26  1  0
 25 27  1  0
 25 28  1  0
 28 29  1  0
 28 30  1  0
 28 31  1  0
 31 32  1  0
 31 33  1  0
 31 34  1  0
 34 35  1  0
 34 36  1  0
 34 37  1  0
 37 38  1  0
 37 39  1  0
  2 40  1  0
 40 41  2  0
 41 42  1  0
 41 43  1  0
 43 44  2  0
 44 45  1  0
 44 46  1  0
 46 47  1  0
 46 48  2  0
 48 49  1  0
 19  5  1  0
 37 23  1  0
 48 40  1  0
 16  7  1  0
M  END
>  <UniqueID>  (56) 
25

>  <SMILES>  (56) 
O=c1c2ccccc2nc(/C=C/c2cccnc2)n1CC1CCCCC1

>  <Energy>  (56) 
74.34075685695049

>  <Genealogy>  (56) 
O=c1c2ccccc2nc(/C=C/c2cccnc2)n1CC1CCCCC1 (cis-trans isomerization)
O=c1c2ccccc2nc(/C=C/c2cccnc2)n1CC1CCCCC1 (3D coordinates assigned)
O=c1c2ccccc2nc(/C=C/c2cccnc2)n1CC1CCCCC1 (nonaromatic ring conformer: 74.34075685695049 kcal/mol)

>  <smiles>  (56) 
O=c1c2ccccc2nc(/C=C/c2cccnc2)n1CC1CCCCC1

>  <score_type>  (56) 
oracle

>  <origin>  (56) 
autodockgpu

>  <m_score__min__energy>  (56) 
-7.3499999999999996

>  <m_primary>  (56) 
energy

>  <meeko>  (56) 
{"free_energy": -6.5, "intermolecular_energy": -7.99, "internal_energy": -1.56, "cluster_size": 1, "cluster_id": 2, "rank_in_cluster": 1}

>  <energy>  (56) 
-6.94

>  <cluster_rmsd>  (56) 
0.81

>  <rmsd>  (56) 
272.09

>  <cluster>  (56) 
1

$$$$
XUFANRSCLZKORJ-OUKQBFOZNA-N
     RDKit          3D

 49 52  0  0  0  0  0  0  0  0999 V2000
  141.2213   71.5882  221.0436 H   0  0  0  0  0  0  0  0  0  0  0  0
  140.3040   71.8820  221.5750 C   0  0  0  0  0  0  0  0  0  0  0  0
  139.5150   70.9120  222.0600 C   0  0  0  0  0  0  0  0  0  0  0  0
  138.8113   70.4046  221.3838 H   0  0  0  0  0  0  0  0  0  0  0  0
  139.5680   70.5060  223.4880 C   0  0  0  0  0  0  0  0  0  0  0  0
  140.2530   71.3160  224.3380 N   0  0  0  0  0  0  0  0  0  0  0  0
  140.4260   71.0130  225.6430 C   0  0  0  0  0  0  0  0  0  0  0  0
  141.1280   71.8880  226.4790 C   0  0  0  0  0  0  0  0  0  0  0  0
  141.5197   72.8348  226.0789 H   0  0  0  0  0  0  0  0  0  0  0  0
  141.3320   71.5600  227.8220 C   0  0  0  0  0  0  0  0  0  0  0  0
  141.8791   72.2512  228.4800 H   0  0  0  0  0  0  0  0  0  0  0  0
  140.8410   70.3540  228.3290 C   0  0  0  0  0  0  0  0  0  0  0  0
  141.0055   70.0959  229.3856 H   0  0  0  0  0  0  0  0  0  0  0  0
  140.1410   69.4740  227.4970 C   0  0  0  0  0  0  0  0  0  0  0  0
  139.7580   68.5246  227.8994 H   0  0  0  0  0  0  0  0  0  0  0  0
  139.9260   69.8030  226.1430 C   0  0  0  0  0  0  0  0  0  0  0  0
  139.2230   68.9600  225.2670 C   0  0  0  0  0  0  0  0  0  0  0  0
  138.8300   67.8360  225.6860 O   0  0  0  0  0  0  0  0  0  0  0  0
  138.9800   69.3460  223.9640 N   0  0  0  0  0  0  0  0  0  0  0  0
  138.1120   68.4940  223.1070 C   0  0  0  0  0  0  0  0  0  0  0  0
  138.4707   68.5759  222.0704 H   0  0  0  0  0  0  0  0  0  0  0  0
  138.1831   67.4752  223.5155 H   0  0  0  0  0  0  0  0  0  0  0  0
  136.5970   68.8650  223.1250 C   0  0  0  0  0  0  0  0  0  0  0  0
  136.1120   67.9100  222.8744 H   0  0  0  0  0  0  0  0  0  0  0  0
  136.0470   69.2540  224.5300 C   0  0  0  0  0  0  0  0  0  0  0  0
  135.2823   68.5172  224.8170 H   0  0  0  0  0  0  0  0  0  0  0  0
  136.9081   69.2640  225.2144 H   0  0  0  0  0  0  0  0  0  0  0  0
  135.4160   70.6530  224.5950 C   0  0  0  0  0  0  0  0  0  0  0  0
  134.4077   70.6138  224.1572 H   0  0  0  0  0  0  0  0  0  0  0  0
  135.3661   70.9671  225.6480 H   0  0  0  0  0  0  0  0  0  0  0  0
  136.2560   71.6660  223.8240 C   0  0  0  0  0  0  0  0  0  0  0  0
  135.8167   72.6662  223.9530 H   0  0  0  0  0  0  0  0  0  0  0  0
  137.2822   71.6341  224.2189 H   0  0  0  0  0  0  0  0  0  0  0  0
  136.3070   71.3330  222.3240 C   0  0  0  0  0  0  0  0  0  0  0  0
  135.5000   71.8850  221.8201 H   0  0  0  0  0  0  0  0  0  0  0  0
  137.3068   71.6232  221.9688 H   0  0  0  0  0  0  0  0  0  0  0  0
  136.1400   69.8320  222.0050 C   0  0  0  0  0  0  0  0  0  0  0  0
  135.0748   69.6429  221.8058 H   0  0  0  0  0  0  0  0  0  0  0  0
  136.7912   69.6291  221.1420 H   0  0  0  0  0  0  0  0  0  0  0  0
  140.0090   73.3280  221.7150 C   0  0  0  0  0  0  0  0  0  0  0  0
  141.0670   74.2480  221.6550 C   0  0  0  0  0  0  0  0  0  0  0  0
  142.0940   73.8890  221.4927 H   0  0  0  0  0  0  0  0  0  0  0  0
  140.8320   75.5800  221.7960 N   0  0  0  0  0  0  0  0  0  0  0  0
  139.5810   76.0670  222.0060 C   0  0  0  0  0  0  0  0  0  0  0  0
  139.4232   77.1507  222.1090 H   0  0  0  0  0  0  0  0  0  0  0  0
  138.4970   75.1940  222.0910 C   0  0  0  0  0  0  0  0  0  0  0  0
  137.4833   75.5833  222.2667 H   0  0  0  0  0  0  0  0  0  0  0  0
  138.7100   73.8210  221.9510 C   0  0  0  0  0  0  0  0  0  0  0  0
  137.8628   73.1234  222.0250 H   0  0  0  0  0  0  0  0  0  0  0  0
  1  2  1  0
  2  3  2  0
  3  4  1  0
  3  5  1  0
  5  6  2  0
  6  7  1  0
  7  8  2  0
  8  9  1  0
  8 10  1  0
 10 11  1  0
 10 12  2  0
 12 13  1  0
 12 14  1  0
 14 15  1  0
 14 16  2  0
 16 17  1  0
 17 18  2  0
 17 19  1  0
 19 20  1  0
 20 21  1  0
 20 22  1  0
 20 23  1  0
 23 24  1  0
 23 25  1  0
 25 26  1  0
 25 27  1  0
 25 28  1  0
 28 29  1  0
 28 30  1  0
 28 31  1  0
 31 32  1  0
 31 33  1  0
 31 34  1  0
 34 35  1  0
 34 36  1  0
 34 37  1  0
 37 38  1  0
 37 39  1  0
  2 40  1  0
 40 41  2  0
 41 42  1  0
 41 43  1  0
 43 44  2  0
 44 45  1  0
 44 46  1  0
 46 47  1  0
 46 48  2  0
 48 49  1  0
 19  5  1  0
 37 23  1  0
 48 40  1  0
 16  7  1  0
M  END
>  <UniqueID>  (57) 
25

>  <SMILES>  (57) 
O=c1c2ccccc2nc(/C=C/c2cccnc2)n1CC1CCCCC1

>  <Energy>  (57) 
74.34075685695049

>  <Genealogy>  (57) 
O=c1c2ccccc2nc(/C=C/c2cccnc2)n1CC1CCCCC1 (cis-trans isomerization)
O=c1c2ccccc2nc(/C=C/c2cccnc2)n1CC1CCCCC1 (3D coordinates assigned)
O=c1c2ccccc2nc(/C=C/c2cccnc2)n1CC1CCCCC1 (nonaromatic ring conformer: 74.34075685695049 kcal/mol)

>  <smiles>  (57) 
O=c1c2ccccc2nc(/C=C/c2cccnc2)n1CC1CCCCC1

>  <score_type>  (57) 
oracle

>  <origin>  (57) 
autodockgpu

>  <m_score__min__energy>  (57) 
-7.3499999999999996

>  <m_primary>  (57) 
energy

>  <meeko>  (57) 
{"free_energy": -6.99, "intermolecular_energy": -8.48, "internal_energy": -1.93, "cluster_size": 19, "cluster_id": 1, "rank_in_cluster": 11}

>  <energy>  (57) 
-6.94

>  <cluster_rmsd>  (57) 
0.94

>  <rmsd>  (57) 
272.1

>  <cluster>  (57) 
1

$$$$
XUFANRSCLZKORJ-OUKQBFOZNA-N
     RDKit          3D

 49 52  0  0  0  0  0  0  0  0999 V2000
  141.3686   70.7095  220.9189 H   0  0  0  0  0  0  0  0  0  0  0  0
  140.6350   71.3430  221.4390 C   0  0  0  0  0  0  0  0  0  0  0  0
  139.5950   70.7450  222.0410 C   0  0  0  0  0  0  0  0  0  0  0  0
  138.6974   70.5076  221.4512 H   0  0  0  0  0  0  0  0  0  0  0  0
  139.6270   70.3960  223.4850 C   0  0  0  0  0  0  0  0  0  0  0  0
  140.3140   71.2320  224.3100 N   0  0  0  0  0  0  0  0  0  0  0  0
  140.4680   70.9790  225.6290 C   0  0  0  0  0  0  0  0  0  0  0  0
  141.1740   71.8770  226.4370 C   0  0  0  0  0  0  0  0  0  0  0  0
  141.5844   72.8009  226.0034 H   0  0  0  0  0  0  0  0  0  0  0  0
  141.3580   71.6010  227.7940 C   0  0  0  0  0  0  0  0  0  0  0  0
  141.9075   72.3107  228.4299 H   0  0  0  0  0  0  0  0  0  0  0  0
  140.8440   70.4230  228.3440 C   0  0  0  0  0  0  0  0  0  0  0  0
  140.9928   70.2052  229.4119 H   0  0  0  0  0  0  0  0  0  0  0  0
  140.1410   69.5210  227.5390 C   0  0  0  0  0  0  0  0  0  0  0  0
  139.7395   68.5942  227.9746 H   0  0  0  0  0  0  0  0  0  0  0  0
  139.9460   69.7970  226.1710 C   0  0  0  0  0  0  0  0  0  0  0  0
  139.2400   68.9300  225.3210 C   0  0  0  0  0  0  0  0  0  0  0  0
  138.8270   67.8290  225.7810 O   0  0  0  0  0  0  0  0  0  0  0  0
  139.0170   69.2650  224.0010 N   0  0  0  0  0  0  0  0  0  0  0  0
  138.1470   68.3910  223.1690 C   0  0  0  0  0  0  0  0  0  0  0  0
  138.5326   68.4071  222.1389 H   0  0  0  0  0  0  0  0  0  0  0  0
  138.1801   67.3940  223.6326 H   0  0  0  0  0  0  0  0  0  0  0  0
  136.6430   68.8030  223.1290 C   0  0  0  0  0  0  0  0  0  0  0  0
  136.1419   67.8574  222.8746 H   0  0  0  0  0  0  0  0  0  0  0  0
  136.0550   69.2270  224.5080 C   0  0  0  0  0  0  0  0  0  0  0  0
  135.2614   68.5148  224.7780 H   0  0  0  0  0  0  0  0  0  0  0  0
  136.8919   69.2246  225.2219 H   0  0  0  0  0  0  0  0  0  0  0  0
  135.4600   70.6420  224.5320 C   0  0  0  0  0  0  0  0  0  0  0  0
  134.4670   70.6230  224.0593 H   0  0  0  0  0  0  0  0  0  0  0  0
  135.3818   70.9721  225.5784 H   0  0  0  0  0  0  0  0  0  0  0  0
  136.3530   71.6220  223.7780 C   0  0  0  0  0  0  0  0  0  0  0  0
  135.9361   72.6350  223.8781 H   0  0  0  0  0  0  0  0  0  0  0  0
  137.3636   71.5697  224.2093 H   0  0  0  0  0  0  0  0  0  0  0  0
  136.4470   71.2660  222.2860 C   0  0  0  0  0  0  0  0  0  0  0  0
  135.6730   71.8318  221.7467 H   0  0  0  0  0  0  0  0  0  0  0  0
  137.4661   71.5244  221.9625 H   0  0  0  0  0  0  0  0  0  0  0  0
  136.2510   69.7650  221.9810 C   0  0  0  0  0  0  0  0  0  0  0  0
  135.1887   69.6010  221.7472 H   0  0  0  0  0  0  0  0  0  0  0  0
  136.9258   69.5327  221.1439 H   0  0  0  0  0  0  0  0  0  0  0  0
  140.8500   72.8100  221.4360 C   0  0  0  0  0  0  0  0  0  0  0  0
  139.8640   73.6430  221.9880 C   0  0  0  0  0  0  0  0  0  0  0  0
  138.9568   73.2003  222.4250 H   0  0  0  0  0  0  0  0  0  0  0  0
  140.0230   74.9930  221.9860 N   0  0  0  0  0  0  0  0  0  0  0  0
  141.1230   75.5840  221.4490 C   0  0  0  0  0  0  0  0  0  0  0  0
  141.2246   76.6791  221.4694 H   0  0  0  0  0  0  0  0  0  0  0  0
  142.1230   74.8010  220.8720 C   0  0  0  0  0  0  0  0  0  0  0  0
  143.0125   75.2745  220.4307 H   0  0  0  0  0  0  0  0  0  0  0  0
  141.9860   73.4120  220.8590 C   0  0  0  0  0  0  0  0  0  0  0  0
  142.7651   72.7870  220.3981 H   0  0  0  0  0  0  0  0  0  0  0  0
  1  2  1  0
  2  3  2  0
  3  4  1  0
  3  5  1  0
  5  6  2  0
  6  7  1  0
  7  8  2  0
  8  9  1  0
  8 10  1  0
 10 11  1  0
 10 12  2  0
 12 13  1  0
 12 14  1  0
 14 15  1  0
 14 16  2  0
 16 17  1  0
 17 18  2  0
 17 19  1  0
 19 20  1  0
 20 21  1  0
 20 22  1  0
 20 23  1  0
 23 24  1  0
 23 25  1  0
 25 26  1  0
 25 27  1  0
 25 28  1  0
 28 29  1  0
 28 30  1  0
 28 31  1  0
 31 32  1  0
 31 33  1  0
 31 34  1  0
 34 35  1  0
 34 36  1  0
 34 37  1  0
 37 38  1  0
 37 39  1  0
  2 40  1  0
 40 41  2  0
 41 42  1  0
 41 43  1  0
 43 44  2  0
 44 45  1  0
 44 46  1  0
 46 47  1  0
 46 48  2  0
 48 49  1  0
 19  5  1  0
 37 23  1  0
 48 40  1  0
 16  7  1  0
M  END
>  <UniqueID>  (58) 
25

>  <SMILES>  (58) 
O=c1c2ccccc2nc(/C=C/c2cccnc2)n1CC1CCCCC1

>  <Energy>  (58) 
74.34075685695049

>  <Genealogy>  (58) 
O=c1c2ccccc2nc(/C=C/c2cccnc2)n1CC1CCCCC1 (cis-trans isomerization)
O=c1c2ccccc2nc(/C=C/c2cccnc2)n1CC1CCCCC1 (3D coordinates assigned)
O=c1c2ccccc2nc(/C=C/c2cccnc2)n1CC1CCCCC1 (nonaromatic ring conformer: 74.34075685695049 kcal/mol)

>  <smiles>  (58) 
O=c1c2ccccc2nc(/C=C/c2cccnc2)n1CC1CCCCC1

>  <score_type>  (58) 
oracle

>  <origin>  (58) 
autodockgpu

>  <m_score__min__energy>  (58) 
-7.3499999999999996

>  <m_primary>  (58) 
energy

>  <meeko>  (58) 
{"free_energy": -7.35, "intermolecular_energy": -8.84, "internal_energy": -1.78, "cluster_size": 19, "cluster_id": 1, "rank_in_cluster": 1}

>  <energy>  (58) 
-6.93

>  <cluster_rmsd>  (58) 
0.94

>  <rmsd>  (58) 
272.1

>  <cluster>  (58) 
1

$$$$
XUFANRSCLZKORJ-OUKQBFOZNA-N
     RDKit          3D

 49 52  0  0  0  0  0  0  0  0999 V2000
  138.8095   71.7004  220.5665 H   0  0  0  0  0  0  0  0  0  0  0  0
  139.5060   72.0730  221.3320 C   0  0  0  0  0  0  0  0  0  0  0  0
  140.3180   71.1900  221.9330 C   0  0  0  0  0  0  0  0  0  0  0  0
  141.1792   70.7893  221.3781 H   0  0  0  0  0  0  0  0  0  0  0  0
  140.0830   70.7400  223.3290 C   0  0  0  0  0  0  0  0  0  0  0  0
  140.6370   71.4860  224.3230 N   0  0  0  0  0  0  0  0  0  0  0  0
  140.5460   71.1360  225.6240 C   0  0  0  0  0  0  0  0  0  0  0  0
  141.1230   71.9450  226.6100 C   0  0  0  0  0  0  0  0  0  0  0  0
  141.6303   72.8791  226.3270 H   0  0  0  0  0  0  0  0  0  0  0  0
  141.0550   71.5670  227.9530 C   0  0  0  0  0  0  0  0  0  0  0  0
  141.5035   72.2065  228.7276 H   0  0  0  0  0  0  0  0  0  0  0  0
  140.4170   70.3760  228.3130 C   0  0  0  0  0  0  0  0  0  0  0  0
  140.3664   70.0785  229.3708 H   0  0  0  0  0  0  0  0  0  0  0  0
  139.8430   69.5620  227.3310 C   0  0  0  0  0  0  0  0  0  0  0  0
  139.3449   68.6240  227.6174 H   0  0  0  0  0  0  0  0  0  0  0  0
  139.9020   69.9420  225.9750 C   0  0  0  0  0  0  0  0  0  0  0  0
  139.3340   69.1660  224.9510 C   0  0  0  0  0  0  0  0  0  0  0  0
  138.8140   68.0540  225.2460 O   0  0  0  0  0  0  0  0  0  0  0  0
  139.3580   69.6020  223.6420 N   0  0  0  0  0  0  0  0  0  0  0  0
  138.6250   68.8260  222.6060 C   0  0  0  0  0  0  0  0  0  0  0  0
  139.1959   68.8858  221.6676 H   0  0  0  0  0  0  0  0  0  0  0  0
  138.5329   67.8021  222.9973 H   0  0  0  0  0  0  0  0  0  0  0  0
  137.1720   69.3150  222.3200 C   0  0  0  0  0  0  0  0  0  0  0  0
  137.1365   69.3334  221.2207 H   0  0  0  0  0  0  0  0  0  0  0  0
  136.0590   68.3150  222.7540 C   0  0  0  0  0  0  0  0  0  0  0  0
  135.5152   67.9926  221.8538 H   0  0  0  0  0  0  0  0  0  0  0  0
  136.5643   67.4840  223.2680 H   0  0  0  0  0  0  0  0  0  0  0  0
  135.0430   68.8950  223.7480 C   0  0  0  0  0  0  0  0  0  0  0  0
  134.3283   69.5294  223.2033 H   0  0  0  0  0  0  0  0  0  0  0  0
  134.5200   68.0625  224.2414 H   0  0  0  0  0  0  0  0  0  0  0  0
  135.7410   69.7320  224.8150 C   0  0  0  0  0  0  0  0  0  0  0  0
  134.9946   70.0689  225.5494 H   0  0  0  0  0  0  0  0  0  0  0  0
  136.5093   69.1076  225.2943 H   0  0  0  0  0  0  0  0  0  0  0  0
  136.4320   70.9620  224.2060 C   0  0  0  0  0  0  0  0  0  0  0  0
  135.7322   71.8094  224.2520 H   0  0  0  0  0  0  0  0  0  0  0  0
  137.3470   71.1340  224.7918 H   0  0  0  0  0  0  0  0  0  0  0  0
  136.8720   70.7760  222.7380 C   0  0  0  0  0  0  0  0  0  0  0  0
  136.0682   71.1570  222.0909 H   0  0  0  0  0  0  0  0  0  0  0  0
  137.8192   71.3249  222.6311 H   0  0  0  0  0  0  0  0  0  0  0  0
  139.4950   73.5230  221.6420 C   0  0  0  0  0  0  0  0  0  0  0  0
  140.7120   74.2220  221.6650 C   0  0  0  0  0  0  0  0  0  0  0  0
  141.6502   73.6928  221.4421 H   0  0  0  0  0  0  0  0  0  0  0  0
  140.7390   75.5490  221.9610 N   0  0  0  0  0  0  0  0  0  0  0  0
  139.6050   76.2400  222.2510 C   0  0  0  0  0  0  0  0  0  0  0  0
  139.6597   77.3146  222.4796 H   0  0  0  0  0  0  0  0  0  0  0  0
  138.3720   75.5880  222.2590 C   0  0  0  0  0  0  0  0  0  0  0  0
  137.4525   76.1419  222.4993 H   0  0  0  0  0  0  0  0  0  0  0  0
  138.3160   74.2250  221.9590 C   0  0  0  0  0  0  0  0  0  0  0  0
  137.3498   73.6993  221.9704 H   0  0  0  0  0  0  0  0  0  0  0  0
  1  2  1  0
  2  3  2  0
  3  4  1  0
  3  5  1  0
  5  6  2  0
  6  7  1  0
  7  8  2  0
  8  9  1  0
  8 10  1  0
 10 11  1  0
 10 12  2  0
 12 13  1  0
 12 14  1  0
 14 15  1  0
 14 16  2  0
 16 17  1  0
 17 18  2  0
 17 19  1  0
 19 20  1  0
 20 21  1  0
 20 22  1  0
 20 23  1  0
 23 24  1  0
 23 25  1  0
 25 26  1  0
 25 27  1  0
 25 28  1  0
 28 29  1  0
 28 30  1  0
 28 31  1  0
 31 32  1  0
 31 33  1  0
 31 34  1  0
 34 35  1  0
 34 36  1  0
 34 37  1  0
 37 38  1  0
 37 39  1  0
  2 40  1  0
 40 41  2  0
 41 42  1  0
 41 43  1  0
 43 44  2  0
 44 45  1  0
 44 46  1  0
 46 47  1  0
 46 48  2  0
 48 49  1  0
 19  5  1  0
 37 23  1  0
 48 40  1  0
 16  7  1  0
M  END
>  <UniqueID>  (59) 
25

>  <SMILES>  (59) 
O=c1c2ccccc2nc(/C=C/c2cccnc2)n1CC1CCCCC1

>  <Energy>  (59) 
74.34075685695049

>  <Genealogy>  (59) 
O=c1c2ccccc2nc(/C=C/c2cccnc2)n1CC1CCCCC1 (cis-trans isomerization)
O=c1c2ccccc2nc(/C=C/c2cccnc2)n1CC1CCCCC1 (3D coordinates assigned)
O=c1c2ccccc2nc(/C=C/c2cccnc2)n1CC1CCCCC1 (nonaromatic ring conformer: 74.34075685695049 kcal/mol)

>  <smiles>  (59) 
O=c1c2ccccc2nc(/C=C/c2cccnc2)n1CC1CCCCC1

>  <score_type>  (59) 
oracle

>  <origin>  (59) 
autodockgpu

>  <m_score__min__energy>  (59) 
-7.3499999999999996

>  <m_primary>  (59) 
energy

>  <meeko>  (59) 
{"free_energy": -6.95, "intermolecular_energy": -8.44, "internal_energy": -1.89, "cluster_size": 19, "cluster_id": 1, "rank_in_cluster": 14}

>  <energy>  (59) 
-6.87

>  <cluster_rmsd>  (59) 
0.9

>  <rmsd>  (59) 
272.13

>  <cluster>  (59) 
1

$$$$
XUFANRSCLZKORJ-OUKQBFOZNA-N
     RDKit          3D

 49 52  0  0  0  0  0  0  0  0999 V2000
  137.9237   72.6218  221.9096 H   0  0  0  0  0  0  0  0  0  0  0  0
  139.0200   72.5920  221.9950 C   0  0  0  0  0  0  0  0  0  0  0  0
  139.6080   71.4030  222.2040 C   0  0  0  0  0  0  0  0  0  0  0  0
  140.0334   70.8570  221.3490 H   0  0  0  0  0  0  0  0  0  0  0  0
  139.6980   70.8070  223.5620 C   0  0  0  0  0  0  0  0  0  0  0  0
  140.3120   71.5470  224.5240 N   0  0  0  0  0  0  0  0  0  0  0  0
  140.5110   71.0790  225.7760 C   0  0  0  0  0  0  0  0  0  0  0  0
  141.1380   71.8860  226.7330 C   0  0  0  0  0  0  0  0  0  0  0  0
  141.4471   72.9091  226.4728 H   0  0  0  0  0  0  0  0  0  0  0  0
  141.3710   71.3910  228.0190 C   0  0  0  0  0  0  0  0  0  0  0  0
  141.8583   72.0268  228.7728 H   0  0  0  0  0  0  0  0  0  0  0  0
  140.9850   70.0880  228.3480 C   0  0  0  0  0  0  0  0  0  0  0  0
  141.1713   69.6996  229.3601 H   0  0  0  0  0  0  0  0  0  0  0  0
  140.3630   69.2780  227.3940 C   0  0  0  0  0  0  0  0  0  0  0  0
  140.0641   68.2522  227.6556 H   0  0  0  0  0  0  0  0  0  0  0  0
  140.1180   69.7730  226.0970 C   0  0  0  0  0  0  0  0  0  0  0  0
  139.4890   69.0050  225.1040 C   0  0  0  0  0  0  0  0  0  0  0  0
  139.1940   67.8030  225.3580 O   0  0  0  0  0  0  0  0  0  0  0  0
  139.2120   69.5470  223.8650 N   0  0  0  0  0  0  0  0  0  0  0  0
  138.4190   68.7520  222.8880 C   0  0  0  0  0  0  0  0  0  0  0  0
  138.6953   69.0820  221.8757 H   0  0  0  0  0  0  0  0  0  0  0  0
  138.6587   67.6966  223.0847 H   0  0  0  0  0  0  0  0  0  0  0  0
  136.8720   68.8810  223.0330 C   0  0  0  0  0  0  0  0  0  0  0  0
  136.5287   67.8488  222.8698 H   0  0  0  0  0  0  0  0  0  0  0  0
  136.3890   69.2580  224.4660 C   0  0  0  0  0  0  0  0  0  0  0  0
  135.7814   68.4275  224.8546 H   0  0  0  0  0  0  0  0  0  0  0  0
  137.2928   69.4425  225.0652 H   0  0  0  0  0  0  0  0  0  0  0  0
  135.5480   70.5410  224.5310 C   0  0  0  0  0  0  0  0  0  0  0  0
  134.5255   70.3187  224.1917 H   0  0  0  0  0  0  0  0  0  0  0  0
  135.5387   70.9022  225.5700 H   0  0  0  0  0  0  0  0  0  0  0  0
  136.1430   71.6290  223.6430 C   0  0  0  0  0  0  0  0  0  0  0  0
  135.5599   72.5529  223.7707 H   0  0  0  0  0  0  0  0  0  0  0  0
  137.1908   71.7822  223.9408 H   0  0  0  0  0  0  0  0  0  0  0  0
  136.1180   71.2240  222.1610 C   0  0  0  0  0  0  0  0  0  0  0  0
  135.1920   71.6131  221.7125 H   0  0  0  0  0  0  0  0  0  0  0  0
  137.0239   71.6469  221.7022 H   0  0  0  0  0  0  0  0  0  0  0  0
  136.1690   69.6990  221.9210 C   0  0  0  0  0  0  0  0  0  0  0  0
  135.1354   69.3336  221.8312 H   0  0  0  0  0  0  0  0  0  0  0  0
  136.7667   69.5526  221.0093 H   0  0  0  0  0  0  0  0  0  0  0  0
  139.7670   73.8670  221.8730 C   0  0  0  0  0  0  0  0  0  0  0  0
  139.1690   75.0510  222.3300 C   0  0  0  0  0  0  0  0  0  0  0  0
  138.1667   75.0175  222.7820 H   0  0  0  0  0  0  0  0  0  0  0  0
  139.8200   76.2400  222.2180 N   0  0  0  0  0  0  0  0  0  0  0  0
  141.0550   76.3290  221.6590 C   0  0  0  0  0  0  0  0  0  0  0  0
  141.5579   77.3048  221.5894 H   0  0  0  0  0  0  0  0  0  0  0  0
  141.6860   75.1830  221.1730 C   0  0  0  0  0  0  0  0  0  0  0  0
  142.6836   75.2509  220.7145 H   0  0  0  0  0  0  0  0  0  0  0  0
  141.0400   73.9500  221.2740 C   0  0  0  0  0  0  0  0  0  0  0  0
  141.5248   73.0422  220.8857 H   0  0  0  0  0  0  0  0  0  0  0  0
  1  2  1  0
  2  3  2  0
  3  4  1  0
  3  5  1  0
  5  6  2  0
  6  7  1  0
  7  8  2  0
  8  9  1  0
  8 10  1  0
 10 11  1  0
 10 12  2  0
 12 13  1  0
 12 14  1  0
 14 15  1  0
 14 16  2  0
 16 17  1  0
 17 18  2  0
 17 19  1  0
 19 20  1  0
 20 21  1  0
 20 22  1  0
 20 23  1  0
 23 24  1  0
 23 25  1  0
 25 26  1  0
 25 27  1  0
 25 28  1  0
 28 29  1  0
 28 30  1  0
 28 31  1  0
 31 32  1  0
 31 33  1  0
 31 34  1  0
 34 35  1  0
 34 36  1  0
 34 37  1  0
 37 38  1  0
 37 39  1  0
  2 40  1  0
 40 41  2  0
 41 42  1  0
 41 43  1  0
 43 44  2  0
 44 45  1  0
 44 46  1  0
 46 47  1  0
 46 48  2  0
 48 49  1  0
 19  5  1  0
 37 23  1  0
 48 40  1  0
 16  7  1  0
M  END
>  <UniqueID>  (60) 
25

>  <SMILES>  (60) 
O=c1c2ccccc2nc(/C=C/c2cccnc2)n1CC1CCCCC1

>  <Energy>  (60) 
74.34075685695049

>  <Genealogy>  (60) 
O=c1c2ccccc2nc(/C=C/c2cccnc2)n1CC1CCCCC1 (cis-trans isomerization)
O=c1c2ccccc2nc(/C=C/c2cccnc2)n1CC1CCCCC1 (3D coordinates assigned)
O=c1c2ccccc2nc(/C=C/c2cccnc2)n1CC1CCCCC1 (nonaromatic ring conformer: 74.34075685695049 kcal/mol)

>  <smiles>  (60) 
O=c1c2ccccc2nc(/C=C/c2cccnc2)n1CC1CCCCC1

>  <score_type>  (60) 
oracle

>  <origin>  (60) 
autodockgpu

>  <m_score__min__energy>  (60) 
-7.3499999999999996

>  <m_primary>  (60) 
energy

>  <meeko>  (60) 
{"free_energy": -7.14, "intermolecular_energy": -8.63, "internal_energy": -1.68, "cluster_size": 19, "cluster_id": 1, "rank_in_cluster": 7}

>  <energy>  (60) 
-6.5

>  <cluster_rmsd>  (60) 
0.0

>  <rmsd>  (60) 
272.19

>  <cluster>  (60) 
2

$$$$
XUFANRSCLZKORJ-OUKQBFOZNA-N
     RDKit          3D

 49 52  0  0  0  0  0  0  0  0999 V2000
  141.5164   70.7553  220.9111 H   0  0  0  0  0  0  0  0  0  0  0  0
  140.7370   71.3440  221.4170 C   0  0  0  0  0  0  0  0  0  0  0  0
  139.7170   70.6860  221.9890 C   0  0  0  0  0  0  0  0  0  0  0  0
  138.8652   70.3721  221.3677 H   0  0  0  0  0  0  0  0  0  0  0  0
  139.7100   70.3710  223.4410 C   0  0  0  0  0  0  0  0  0  0  0  0
  140.3970   71.2110  224.2610 N   0  0  0  0  0  0  0  0  0  0  0  0
  140.5170   70.9870  225.5880 C   0  0  0  0  0  0  0  0  0  0  0  0
  141.2230   71.8900  226.3900 C   0  0  0  0  0  0  0  0  0  0  0  0
  141.6603   72.7956  225.9443 H   0  0  0  0  0  0  0  0  0  0  0  0
  141.3730   71.6420  227.7570 C   0  0  0  0  0  0  0  0  0  0  0  0
  141.9240   72.3550  228.3879 H   0  0  0  0  0  0  0  0  0  0  0  0
  140.8230   70.4880  228.3230 C   0  0  0  0  0  0  0  0  0  0  0  0
  140.9433   70.2936  229.3990 H   0  0  0  0  0  0  0  0  0  0  0  0
  140.1200   69.5800  227.5240 C   0  0  0  0  0  0  0  0  0  0  0  0
  139.6922   68.6710  227.9720 H   0  0  0  0  0  0  0  0  0  0  0  0
  139.9590   69.8280  226.1460 C   0  0  0  0  0  0  0  0  0  0  0  0
  139.2550   68.9550  225.3010 C   0  0  0  0  0  0  0  0  0  0  0  0
  138.8100   67.8740  225.7770 O   0  0  0  0  0  0  0  0  0  0  0  0
  139.0670   69.2640  223.9690 N   0  0  0  0  0  0  0  0  0  0  0  0
  138.1970   68.3880  223.1380 C   0  0  0  0  0  0  0  0  0  0  0  0
  138.6036   68.3741  222.1160 H   0  0  0  0  0  0  0  0  0  0  0  0
  138.2015   67.4010  223.6237 H   0  0  0  0  0  0  0  0  0  0  0  0
  136.7030   68.8270  223.0580 C   0  0  0  0  0  0  0  0  0  0  0  0
  136.1975   67.9004  222.7482 H   0  0  0  0  0  0  0  0  0  0  0  0
  136.0690   69.2070  224.4290 C   0  0  0  0  0  0  0  0  0  0  0  0
  135.2543   68.4987  224.6400 H   0  0  0  0  0  0  0  0  0  0  0  0
  136.8777   69.1623  225.1733 H   0  0  0  0  0  0  0  0  0  0  0  0
  135.4960   70.6300  224.4870 C   0  0  0  0  0  0  0  0  0  0  0  0
  134.5212   70.6467  223.9777 H   0  0  0  0  0  0  0  0  0  0  0  0
  135.3836   70.9207  225.5419 H   0  0  0  0  0  0  0  0  0  0  0  0
  136.4330   71.6230  223.8050 C   0  0  0  0  0  0  0  0  0  0  0  0
  136.0289   72.6385  223.9293 H   0  0  0  0  0  0  0  0  0  0  0  0
  137.4256   71.5358  224.2711 H   0  0  0  0  0  0  0  0  0  0  0  0
  136.5780   71.3240  222.3050 C   0  0  0  0  0  0  0  0  0  0  0  0
  135.8341   71.9237  221.7599 H   0  0  0  0  0  0  0  0  0  0  0  0
  137.6126   71.5772  222.0301 H   0  0  0  0  0  0  0  0  0  0  0  0
  136.3700   69.8400  221.9340 C   0  0  0  0  0  0  0  0  0  0  0  0
  135.3149   69.7036  221.6544 H   0  0  0  0  0  0  0  0  0  0  0  0
  137.0722   69.6286  221.1141 H   0  0  0  0  0  0  0  0  0  0  0  0
  140.8720   72.8210  221.4290 C   0  0  0  0  0  0  0  0  0  0  0  0
  139.8650   73.5910  222.0320 C   0  0  0  0  0  0  0  0  0  0  0  0
  139.0008   73.0930  222.4958 H   0  0  0  0  0  0  0  0  0  0  0  0
  139.9500   74.9470  222.0470 N   0  0  0  0  0  0  0  0  0  0  0  0
  140.9950   75.6050  221.4790 C   0  0  0  0  0  0  0  0  0  0  0  0
  141.0382   76.7036  221.5151 H   0  0  0  0  0  0  0  0  0  0  0  0
  142.0130   74.8870  220.8500 C   0  0  0  0  0  0  0  0  0  0  0  0
  142.8572   75.4148  220.3822 H   0  0  0  0  0  0  0  0  0  0  0  0
  141.9500   73.4920  220.8200 C   0  0  0  0  0  0  0  0  0  0  0  0
  142.7433   72.9168  220.3201 H   0  0  0  0  0  0  0  0  0  0  0  0
  1  2  1  0
  2  3  2  0
  3  4  1  0
  3  5  1  0
  5  6  2  0
  6  7  1  0
  7  8  2  0
  8  9  1  0
  8 10  1  0
 10 11  1  0
 10 12  2  0
 12 13  1  0
 12 14  1  0
 14 15  1  0
 14 16  2  0
 16 17  1  0
 17 18  2  0
 17 19  1  0
 19 20  1  0
 20 21  1  0
 20 22  1  0
 20 23  1  0
 23 24  1  0
 23 25  1  0
 25 26  1  0
 25 27  1  0
 25 28  1  0
 28 29  1  0
 28 30  1  0
 28 31  1  0
 31 32  1  0
 31 33  1  0
 31 34  1  0
 34 35  1  0
 34 36  1  0
 34 37  1  0
 37 38  1  0
 37 39  1  0
  2 40  1  0
 40 41  2  0
 41 42  1  0
 41 43  1  0
 43 44  2  0
 44 45  1  0
 44 46  1  0
 46 47  1  0
 46 48  2  0
 48 49  1  0
 19  5  1  0
 37 23  1  0
 48 40  1  0
 16  7  1  0
M  END
>  <UniqueID>  (61) 
26

>  <SMILES>  (61) 
O=c1c2ccccc2nc(/C=C/c2cccnc2)n1CC1CCCCC1

>  <Energy>  (61) 
74.61964395363472

>  <Genealogy>  (61) 
O=c1c2ccccc2nc(/C=C/c2cccnc2)n1CC1CCCCC1 (cis-trans isomerization)
O=c1c2ccccc2nc(/C=C/c2cccnc2)n1CC1CCCCC1 (3D coordinates assigned)
O=c1c2ccccc2nc(/C=C/c2cccnc2)n1CC1CCCCC1 (nonaromatic ring conformer: 74.61964395363472 kcal/mol)

>  <smiles>  (61) 
O=c1c2ccccc2nc(/C=C/c2cccnc2)n1CC1CCCCC1

>  <score_type>  (61) 
oracle

>  <origin>  (61) 
autodockgpu

>  <m_score__min__energy>  (61) 
-7.3499999999999996

>  <m_primary>  (61) 
energy

>  <meeko>  (61) 
{"free_energy": -7.3, "intermolecular_energy": -8.79, "internal_energy": -1.82, "cluster_size": 19, "cluster_id": 1, "rank_in_cluster": 3}

>  <energy>  (61) 
-7.35

>  <cluster_rmsd>  (61) 
0.0

>  <rmsd>  (61) 
272.11

>  <cluster>  (61) 
1

$$$$
XUFANRSCLZKORJ-OUKQBFOZNA-N
     RDKit          3D

 49 52  0  0  0  0  0  0  0  0999 V2000
  139.1340   72.0502  220.7068 H   0  0  0  0  0  0  0  0  0  0  0  0
  139.8510   72.4350  221.4470 C   0  0  0  0  0  0  0  0  0  0  0  0
  140.6410   71.5550  222.0800 C   0  0  0  0  0  0  0  0  0  0  0  0
  141.5869   71.2479  221.6100 H   0  0  0  0  0  0  0  0  0  0  0  0
  140.2690   70.9850  223.4010 C   0  0  0  0  0  0  0  0  0  0  0  0
  140.7090   71.6440  224.5070 N   0  0  0  0  0  0  0  0  0  0  0  0
  140.4900   71.1810  225.7570 C   0  0  0  0  0  0  0  0  0  0  0  0
  140.9520   71.9040  226.8630 C   0  0  0  0  0  0  0  0  0  0  0  0
  141.4731   72.8613  226.7148 H   0  0  0  0  0  0  0  0  0  0  0  0
  140.7520   71.4110  228.1550 C   0  0  0  0  0  0  0  0  0  0  0  0
  141.1112   71.9822  229.0237 H   0  0  0  0  0  0  0  0  0  0  0  0
  140.0950   70.1910  228.3430 C   0  0  0  0  0  0  0  0  0  0  0  0
  139.9396   69.8028  229.3604 H   0  0  0  0  0  0  0  0  0  0  0  0
  139.6350   69.4630  227.2410 C   0  0  0  0  0  0  0  0  0  0  0  0
  139.1218   68.5020  227.3930 H   0  0  0  0  0  0  0  0  0  0  0  0
  139.8280   69.9590  225.9360 C   0  0  0  0  0  0  0  0  0  0  0  0
  139.3780   69.2730  224.7960 C   0  0  0  0  0  0  0  0  0  0  0  0
  138.8440   68.1380  224.9390 O   0  0  0  0  0  0  0  0  0  0  0  0
  139.5310   69.8210  223.5390 N   0  0  0  0  0  0  0  0  0  0  0  0
  138.9180   69.1350  222.3700 C   0  0  0  0  0  0  0  0  0  0  0  0
  139.4998   69.4005  221.4750 H   0  0  0  0  0  0  0  0  0  0  0  0
  138.9368   68.0596  222.6003 H   0  0  0  0  0  0  0  0  0  0  0  0
  137.4240   69.4970  222.1010 C   0  0  0  0  0  0  0  0  0  0  0  0
  137.3413   69.3822  221.0101 H   0  0  0  0  0  0  0  0  0  0  0  0
  136.4000   68.4900  222.7030 C   0  0  0  0  0  0  0  0  0  0  0  0
  135.8420   68.0292  221.8746 H   0  0  0  0  0  0  0  0  0  0  0  0
  136.9810   67.7595  223.2851 H   0  0  0  0  0  0  0  0  0  0  0  0
  135.3890   69.1210  223.6720 C   0  0  0  0  0  0  0  0  0  0  0  0
  134.6114   69.6408  223.0930 H   0  0  0  0  0  0  0  0  0  0  0  0
  134.9435   68.3228  224.2839 H   0  0  0  0  0  0  0  0  0  0  0  0
  136.0740   70.1210  224.5990 C   0  0  0  0  0  0  0  0  0  0  0  0
  135.3381   70.4973  225.3248 H   0  0  0  0  0  0  0  0  0  0  0  0
  136.9012   69.6064  225.1099 H   0  0  0  0  0  0  0  0  0  0  0  0
  136.6560   71.3090  223.8170 C   0  0  0  0  0  0  0  0  0  0  0  0
  135.9044   72.1119  223.7988 H   0  0  0  0  0  0  0  0  0  0  0  0
  137.5817   71.6047  224.3324 H   0  0  0  0  0  0  0  0  0  0  0  0
  137.0450   70.9760  222.3600 C   0  0  0  0  0  0  0  0  0  0  0  0
  136.1908   71.2267  221.7138 H   0  0  0  0  0  0  0  0  0  0  0  0
  137.9480   71.5654  222.1425 H   0  0  0  0  0  0  0  0  0  0  0  0
  139.8900   73.8970  221.6890 C   0  0  0  0  0  0  0  0  0  0  0  0
  138.6960   74.5680  221.9970 C   0  0  0  0  0  0  0  0  0  0  0  0
  137.7546   74.0033  222.0673 H   0  0  0  0  0  0  0  0  0  0  0  0
  138.6950   75.9110  222.2090 N   0  0  0  0  0  0  0  0  0  0  0  0
  139.8320   76.6490  222.1250 C   0  0  0  0  0  0  0  0  0  0  0  0
  139.7986   77.7329  222.3093 H   0  0  0  0  0  0  0  0  0  0  0  0
  141.0430   76.0330  221.8050 C   0  0  0  0  0  0  0  0  0  0  0  0
  141.9654   76.6277  221.7299 H   0  0  0  0  0  0  0  0  0  0  0  0
  141.0730   74.6550  221.5810 C   0  0  0  0  0  0  0  0  0  0  0  0
  142.0206   74.1610  221.3201 H   0  0  0  0  0  0  0  0  0  0  0  0
  1  2  1  0
  2  3  2  0
  3  4  1  0
  3  5  1  0
  5  6  2  0
  6  7  1  0
  7  8  2  0
  8  9  1  0
  8 10  1  0
 10 11  1  0
 10 12  2  0
 12 13  1  0
 12 14  1  0
 14 15  1  0
 14 16  2  0
 16 17  1  0
 17 18  2  0
 17 19  1  0
 19 20  1  0
 20 21  1  0
 20 22  1  0
 20 23  1  0
 23 24  1  0
 23 25  1  0
 25 26  1  0
 25 27  1  0
 25 28  1  0
 28 29  1  0
 28 30  1  0
 28 31  1  0
 31 32  1  0
 31 33  1  0
 31 34  1  0
 34 35  1  0
 34 36  1  0
 34 37  1  0
 37 38  1  0
 37 39  1  0
  2 40  1  0
 40 41  2  0
 41 42  1  0
 41 43  1  0
 43 44  2  0
 44 45  1  0
 44 46  1  0
 46 47  1  0
 46 48  2  0
 48 49  1  0
 19  5  1  0
 37 23  1  0
 48 40  1  0
 16  7  1  0
M  END
>  <UniqueID>  (62) 
26

>  <SMILES>  (62) 
O=c1c2ccccc2nc(/C=C/c2cccnc2)n1CC1CCCCC1

>  <Energy>  (62) 
74.61964395363472

>  <Genealogy>  (62) 
O=c1c2ccccc2nc(/C=C/c2cccnc2)n1CC1CCCCC1 (cis-trans isomerization)
O=c1c2ccccc2nc(/C=C/c2cccnc2)n1CC1CCCCC1 (3D coordinates assigned)
O=c1c2ccccc2nc(/C=C/c2cccnc2)n1CC1CCCCC1 (nonaromatic ring conformer: 74.61964395363472 kcal/mol)

>  <smiles>  (62) 
O=c1c2ccccc2nc(/C=C/c2cccnc2)n1CC1CCCCC1

>  <score_type>  (62) 
oracle

>  <origin>  (62) 
autodockgpu

>  <m_score__min__energy>  (62) 
-7.3499999999999996

>  <m_primary>  (62) 
energy

>  <meeko>  (62) 
{"free_energy": -6.94, "intermolecular_energy": -8.43, "internal_energy": -1.88, "cluster_size": 19, "cluster_id": 1, "rank_in_cluster": 17}

>  <energy>  (62) 
-7.32

>  <cluster_rmsd>  (62) 
0.08

>  <rmsd>  (62) 
272.11

>  <cluster>  (62) 
1

$$$$
XUFANRSCLZKORJ-OUKQBFOZNA-N
     RDKit          3D

 49 52  0  0  0  0  0  0  0  0999 V2000
  138.6125   72.2681  221.0604 H   0  0  0  0  0  0  0  0  0  0  0  0
  139.5000   72.6210  221.6060 C   0  0  0  0  0  0  0  0  0  0  0  0
  140.3430   71.7040  222.1050 C   0  0  0  0  0  0  0  0  0  0  0  0
  141.2280   71.4138  221.5197 H   0  0  0  0  0  0  0  0  0  0  0  0
  140.1100   71.0710  223.4290 C   0  0  0  0  0  0  0  0  0  0  0  0
  140.6090   71.7110  224.5200 N   0  0  0  0  0  0  0  0  0  0  0  0
  140.5170   71.1960  225.7650 C   0  0  0  0  0  0  0  0  0  0  0  0
  141.0360   71.9020  226.8560 C   0  0  0  0  0  0  0  0  0  0  0  0
  141.4983   72.8884  226.7031 H   0  0  0  0  0  0  0  0  0  0  0  0
  140.9670   71.3540  228.1400 C   0  0  0  0  0  0  0  0  0  0  0  0
  141.3702   71.9117  228.9981 H   0  0  0  0  0  0  0  0  0  0  0  0
  140.3860   70.0980  228.3340 C   0  0  0  0  0  0  0  0  0  0  0  0
  140.3351   69.6673  229.3449 H   0  0  0  0  0  0  0  0  0  0  0  0
  139.8690   69.3870  227.2460 C   0  0  0  0  0  0  0  0  0  0  0  0
  139.4150   68.3973  227.4023 H   0  0  0  0  0  0  0  0  0  0  0  0
  139.9290   69.9370  225.9500 C   0  0  0  0  0  0  0  0  0  0  0  0
  139.4170   69.2700  224.8250 C   0  0  0  0  0  0  0  0  0  0  0  0
  138.9500   68.1060  224.9670 O   0  0  0  0  0  0  0  0  0  0  0  0
  139.4390   69.8690  223.5810 N   0  0  0  0  0  0  0  0  0  0  0  0
  138.7630   69.1940  222.4410 C   0  0  0  0  0  0  0  0  0  0  0  0
  139.2995   69.4622  221.5189 H   0  0  0  0  0  0  0  0  0  0  0  0
  138.7876   68.1169  222.6630 H   0  0  0  0  0  0  0  0  0  0  0  0
  137.2600   69.5660  222.2520 C   0  0  0  0  0  0  0  0  0  0  0  0
  137.1463   69.5572  221.1579 H   0  0  0  0  0  0  0  0  0  0  0  0
  136.2600   68.4950  222.7810 C   0  0  0  0  0  0  0  0  0  0  0  0
  135.6807   68.1128  221.9276 H   0  0  0  0  0  0  0  0  0  0  0  0
  136.8620   67.7158  223.2713 H   0  0  0  0  0  0  0  0  0  0  0  0
  135.2750   69.0190  223.8350 C   0  0  0  0  0  0  0  0  0  0  0  0
  134.4779   69.5863  223.3322 H   0  0  0  0  0  0  0  0  0  0  0  0
  134.8527   68.1606  224.3780 H   0  0  0  0  0  0  0  0  0  0  0  0
  135.9800   69.9290  224.8360 C   0  0  0  0  0  0  0  0  0  0  0  0
  135.2634   70.2247  225.6164 H   0  0  0  0  0  0  0  0  0  0  0  0
  136.8254   69.3749  225.2698 H   0  0  0  0  0  0  0  0  0  0  0  0
  136.5300   71.1940  224.1580 C   0  0  0  0  0  0  0  0  0  0  0  0
  135.7720   71.9870  224.2398 H   0  0  0  0  0  0  0  0  0  0  0  0
  137.4680   71.4476  224.6736 H   0  0  0  0  0  0  0  0  0  0  0  0
  136.8790   71.0090  222.6650 C   0  0  0  0  0  0  0  0  0  0  0  0
  136.0050   71.3137  222.0707 H   0  0  0  0  0  0  0  0  0  0  0  0
  137.7713   71.6254  222.4809 H   0  0  0  0  0  0  0  0  0  0  0  0
  139.6980   74.0830  221.7490 C   0  0  0  0  0  0  0  0  0  0  0  0
  138.5870   74.8970  222.0180 C   0  0  0  0  0  0  0  0  0  0  0  0
  137.5918   74.4425  222.1317 H   0  0  0  0  0  0  0  0  0  0  0  0
  138.7320   76.2430  222.1390 N   0  0  0  0  0  0  0  0  0  0  0  0
  139.9400   76.8490  221.9980 C   0  0  0  0  0  0  0  0  0  0  0  0
  140.0245   77.9401  222.1093 H   0  0  0  0  0  0  0  0  0  0  0  0
  141.0730   76.0870  221.7120 C   0  0  0  0  0  0  0  0  0  0  0  0
  142.0522   76.5730  221.5900 H   0  0  0  0  0  0  0  0  0  0  0  0
  140.9530   74.7020  221.5820 C   0  0  0  0  0  0  0  0  0  0  0  0
  141.8391   74.0933  221.3490 H   0  0  0  0  0  0  0  0  0  0  0  0
  1  2  1  0
  2  3  2  0
  3  4  1  0
  3  5  1  0
  5  6  2  0
  6  7  1  0
  7  8  2  0
  8  9  1  0
  8 10  1  0
 10 11  1  0
 10 12  2  0
 12 13  1  0
 12 14  1  0
 14 15  1  0
 14 16  2  0
 16 17  1  0
 17 18  2  0
 17 19  1  0
 19 20  1  0
 20 21  1  0
 20 22  1  0
 20 23  1  0
 23 24  1  0
 23 25  1  0
 25 26  1  0
 25 27  1  0
 25 28  1  0
 28 29  1  0
 28 30  1  0
 28 31  1  0
 31 32  1  0
 31 33  1  0
 31 34  1  0
 34 35  1  0
 34 36  1  0
 34 37  1  0
 37 38  1  0
 37 39  1  0
  2 40  1  0
 40 41  2  0
 41 42  1  0
 41 43  1  0
 43 44  2  0
 44 45  1  0
 44 46  1  0
 46 47  1  0
 46 48  2  0
 48 49  1  0
 19  5  1  0
 37 23  1  0
 48 40  1  0
 16  7  1  0
M  END
>  <UniqueID>  (63) 
26

>  <SMILES>  (63) 
O=c1c2ccccc2nc(/C=C/c2cccnc2)n1CC1CCCCC1

>  <Energy>  (63) 
74.61964395363472

>  <Genealogy>  (63) 
O=c1c2ccccc2nc(/C=C/c2cccnc2)n1CC1CCCCC1 (cis-trans isomerization)
O=c1c2ccccc2nc(/C=C/c2cccnc2)n1CC1CCCCC1 (3D coordinates assigned)
O=c1c2ccccc2nc(/C=C/c2cccnc2)n1CC1CCCCC1 (nonaromatic ring conformer: 74.61964395363472 kcal/mol)

>  <smiles>  (63) 
O=c1c2ccccc2nc(/C=C/c2cccnc2)n1CC1CCCCC1

>  <score_type>  (63) 
oracle

>  <origin>  (63) 
autodockgpu

>  <m_score__min__energy>  (63) 
-7.3499999999999996

>  <m_primary>  (63) 
energy

>  <meeko>  (63) 
{"free_energy": -6.99, "intermolecular_energy": -8.48, "internal_energy": -1.78, "cluster_size": 19, "cluster_id": 1, "rank_in_cluster": 12}

>  <energy>  (63) 
-7.3

>  <cluster_rmsd>  (63) 
0.09

>  <rmsd>  (63) 
272.11

>  <cluster>  (63) 
1

$$$$
XUFANRSCLZKORJ-OUKQBFOZNA-N
     RDKit          3D

 49 52  0  0  0  0  0  0  0  0999 V2000
  141.4745   70.7365  220.9014 H   0  0  0  0  0  0  0  0  0  0  0  0
  140.7080   71.3380  221.4120 C   0  0  0  0  0  0  0  0  0  0  0  0
  139.6860   70.6960  222.0010 C   0  0  0  0  0  0  0  0  0  0  0  0
  138.8221   70.3902  221.3926 H   0  0  0  0  0  0  0  0  0  0  0  0
  139.6940   70.3890  223.4540 C   0  0  0  0  0  0  0  0  0  0  0  0
  140.3820   71.2380  224.2640 N   0  0  0  0  0  0  0  0  0  0  0  0
  140.5140   71.0220  225.5910 C   0  0  0  0  0  0  0  0  0  0  0  0
  141.2220   71.9340  226.3830 C   0  0  0  0  0  0  0  0  0  0  0  0
  141.6508   72.8396  225.9290 H   0  0  0  0  0  0  0  0  0  0  0  0
  141.3840   71.6940  227.7500 C   0  0  0  0  0  0  0  0  0  0  0  0
  141.9358   72.4133  228.3730 H   0  0  0  0  0  0  0  0  0  0  0  0
  140.8450   70.5400  228.3260 C   0  0  0  0  0  0  0  0  0  0  0  0
  140.9756   70.3516  229.4019 H   0  0  0  0  0  0  0  0  0  0  0  0
  140.1400   69.6240  227.5380 C   0  0  0  0  0  0  0  0  0  0  0  0
  139.7202   68.7154  227.9944 H   0  0  0  0  0  0  0  0  0  0  0  0
  139.9670   69.8640  226.1600 C   0  0  0  0  0  0  0  0  0  0  0  0
  139.2610   68.9820  225.3260 C   0  0  0  0  0  0  0  0  0  0  0  0
  138.8260   67.9010  225.8110 O   0  0  0  0  0  0  0  0  0  0  0  0
  139.0600   69.2820  223.9940 N   0  0  0  0  0  0  0  0  0  0  0  0
  138.1890   68.3970  223.1750 C   0  0  0  0  0  0  0  0  0  0  0  0
  138.5879   68.3795  222.1500 H   0  0  0  0  0  0  0  0  0  0  0  0
  138.2026   67.4128  223.6660 H   0  0  0  0  0  0  0  0  0  0  0  0
  136.6910   68.8280  223.1040 C   0  0  0  0  0  0  0  0  0  0  0  0
  136.1852   67.8956  222.8127 H   0  0  0  0  0  0  0  0  0  0  0  0
  136.0700   69.2240  224.4760 C   0  0  0  0  0  0  0  0  0  0  0  0
  135.2615   68.5145  224.7061 H   0  0  0  0  0  0  0  0  0  0  0  0
  136.8866   69.1940  225.2124 H   0  0  0  0  0  0  0  0  0  0  0  0
  135.4900   70.6450  224.5190 C   0  0  0  0  0  0  0  0  0  0  0  0
  134.5107   70.6497  224.0180 H   0  0  0  0  0  0  0  0  0  0  0  0
  135.3849   70.9502  225.5706 H   0  0  0  0  0  0  0  0  0  0  0  0
  136.4160   71.6320  223.8150 C   0  0  0  0  0  0  0  0  0  0  0  0
  136.0089   72.6475  223.9292 H   0  0  0  0  0  0  0  0  0  0  0  0
  137.4133   71.5553  224.2728 H   0  0  0  0  0  0  0  0  0  0  0  0
  136.5480   71.3130  222.3180 C   0  0  0  0  0  0  0  0  0  0  0  0
  135.7964   71.9020  221.7720 H   0  0  0  0  0  0  0  0  0  0  0  0
  137.5789   71.5667  222.0300 H   0  0  0  0  0  0  0  0  0  0  0  0
  136.3430   69.8230  221.9690 C   0  0  0  0  0  0  0  0  0  0  0  0
  135.2860   69.6781  221.7011 H   0  0  0  0  0  0  0  0  0  0  0  0
  137.0380   69.6031  221.1452 H   0  0  0  0  0  0  0  0  0  0  0  0
  140.8600   72.8130  221.4120 C   0  0  0  0  0  0  0  0  0  0  0  0
  139.8450   73.6020  221.9750 C   0  0  0  0  0  0  0  0  0  0  0  0
  138.9614   73.1199  222.4187 H   0  0  0  0  0  0  0  0  0  0  0  0
  139.9460   74.9580  221.9760 N   0  0  0  0  0  0  0  0  0  0  0  0
  141.0160   75.5960  221.4340 C   0  0  0  0  0  0  0  0  0  0  0  0
  141.0720   76.6943  221.4587 H   0  0  0  0  0  0  0  0  0  0  0  0
  142.0440   74.8580  220.8460 C   0  0  0  0  0  0  0  0  0  0  0  0
  142.9090   75.3699  220.3990 H   0  0  0  0  0  0  0  0  0  0  0  0
  141.9650   73.4640  220.8300 C   0  0  0  0  0  0  0  0  0  0  0  0
  142.7667   72.8736  220.3623 H   0  0  0  0  0  0  0  0  0  0  0  0
  1  2  1  0
  2  3  2  0
  3  4  1  0
  3  5  1  0
  5  6  2  0
  6  7  1  0
  7  8  2  0
  8  9  1  0
  8 10  1  0
 10 11  1  0
 10 12  2  0
 12 13  1  0
 12 14  1  0
 14 15  1  0
 14 16  2  0
 16 17  1  0
 17 18  2  0
 17 19  1  0
 19 20  1  0
 20 21  1  0
 20 22  1  0
 20 23  1  0
 23 24  1  0
 23 25  1  0
 25 26  1  0
 25 27  1  0
 25 28  1  0
 28 29  1  0
 28 30  1  0
 28 31  1  0
 31 32  1  0
 31 33  1  0
 31 34  1  0
 34 35  1  0
 34 36  1  0
 34 37  1  0
 37 38  1  0
 37 39  1  0
  2 40  1  0
 40 41  2  0
 41 42  1  0
 41 43  1  0
 43 44  2  0
 44 45  1  0
 44 46  1  0
 46 47  1  0
 46 48  2  0
 48 49  1  0
 19  5  1  0
 37 23  1  0
 48 40  1  0
 16  7  1  0
M  END
>  <UniqueID>  (64) 
26

>  <SMILES>  (64) 
O=c1c2ccccc2nc(/C=C/c2cccnc2)n1CC1CCCCC1

>  <Energy>  (64) 
74.61964395363472

>  <Genealogy>  (64) 
O=c1c2ccccc2nc(/C=C/c2cccnc2)n1CC1CCCCC1 (cis-trans isomerization)
O=c1c2ccccc2nc(/C=C/c2cccnc2)n1CC1CCCCC1 (3D coordinates assigned)
O=c1c2ccccc2nc(/C=C/c2cccnc2)n1CC1CCCCC1 (nonaromatic ring conformer: 74.61964395363472 kcal/mol)

>  <smiles>  (64) 
O=c1c2ccccc2nc(/C=C/c2cccnc2)n1CC1CCCCC1

>  <score_type>  (64) 
oracle

>  <origin>  (64) 
autodockgpu

>  <m_score__min__energy>  (64) 
-7.3499999999999996

>  <m_primary>  (64) 
energy

>  <meeko>  (64) 
{"free_energy": -7.32, "intermolecular_energy": -8.81, "internal_energy": -1.81, "cluster_size": 19, "cluster_id": 1, "rank_in_cluster": 2}

>  <energy>  (64) 
-7.27

>  <cluster_rmsd>  (64) 
0.32

>  <rmsd>  (64) 
272.08

>  <cluster>  (64) 
1

$$$$
XUFANRSCLZKORJ-OUKQBFOZNA-N
     RDKit          3D

 49 52  0  0  0  0  0  0  0  0999 V2000
  139.1280   72.0580  220.7135 H   0  0  0  0  0  0  0  0  0  0  0  0
  139.8440   72.4440  221.4540 C   0  0  0  0  0  0  0  0  0  0  0  0
  140.6330   71.5650  222.0910 C   0  0  0  0  0  0  0  0  0  0  0  0
  141.5824   71.2612  221.6258 H   0  0  0  0  0  0  0  0  0  0  0  0
  140.2560   70.9920  223.4090 C   0  0  0  0  0  0  0  0  0  0  0  0
  140.6910   71.6490  224.5180 N   0  0  0  0  0  0  0  0  0  0  0  0
  140.4670   71.1850  225.7660 C   0  0  0  0  0  0  0  0  0  0  0  0
  140.9250   71.9060  226.8750 C   0  0  0  0  0  0  0  0  0  0  0  0
  141.4473   72.8633  226.7309 H   0  0  0  0  0  0  0  0  0  0  0  0
  140.7190   71.4100  228.1650 C   0  0  0  0  0  0  0  0  0  0  0  0
  141.0741   71.9800  229.0362 H   0  0  0  0  0  0  0  0  0  0  0  0
  140.0620   70.1900  228.3490 C   0  0  0  0  0  0  0  0  0  0  0  0
  139.9033   69.8000  229.3652 H   0  0  0  0  0  0  0  0  0  0  0  0
  139.6060   69.4640  227.2440 C   0  0  0  0  0  0  0  0  0  0  0  0
  139.0920   68.5029  227.3926 H   0  0  0  0  0  0  0  0  0  0  0  0
  139.8040   69.9620  225.9400 C   0  0  0  0  0  0  0  0  0  0  0  0
  139.3590   69.2780  224.7970 C   0  0  0  0  0  0  0  0  0  0  0  0
  138.8250   68.1420  224.9360 O   0  0  0  0  0  0  0  0  0  0  0  0
  139.5170   69.8290  223.5410 N   0  0  0  0  0  0  0  0  0  0  0  0
  138.9090   69.1440  222.3690 C   0  0  0  0  0  0  0  0  0  0  0  0
  139.4871   69.4202  221.4748 H   0  0  0  0  0  0  0  0  0  0  0  0
  138.9383   68.0675  222.5933 H   0  0  0  0  0  0  0  0  0  0  0  0
  137.4120   69.4930  222.1040 C   0  0  0  0  0  0  0  0  0  0  0  0
  137.3254   69.3721  221.0141 H   0  0  0  0  0  0  0  0  0  0  0  0
  136.3980   68.4810  222.7160 C   0  0  0  0  0  0  0  0  0  0  0  0
  135.8397   68.0117  221.8926 H   0  0  0  0  0  0  0  0  0  0  0  0
  136.9869   67.7576  223.2991 H   0  0  0  0  0  0  0  0  0  0  0  0
  135.3870   69.1100  223.6860 C   0  0  0  0  0  0  0  0  0  0  0  0
  134.6035   69.6215  223.1076 H   0  0  0  0  0  0  0  0  0  0  0  0
  134.9500   68.3117  224.3038 H   0  0  0  0  0  0  0  0  0  0  0  0
  136.0680   70.1190  224.6050 C   0  0  0  0  0  0  0  0  0  0  0  0
  135.3325   70.4930  225.3325 H   0  0  0  0  0  0  0  0  0  0  0  0
  136.9014   69.6135  225.1148 H   0  0  0  0  0  0  0  0  0  0  0  0
  136.6370   71.3080  223.8140 C   0  0  0  0  0  0  0  0  0  0  0  0
  135.8784   72.1044  223.7945 H   0  0  0  0  0  0  0  0  0  0  0  0
  137.5622   71.6140  224.3242 H   0  0  0  0  0  0  0  0  0  0  0  0
  137.0230   70.9710  222.3580 C   0  0  0  0  0  0  0  0  0  0  0  0
  136.1647   71.2125  221.7138 H   0  0  0  0  0  0  0  0  0  0  0  0
  137.9210   71.5657  222.1348 H   0  0  0  0  0  0  0  0  0  0  0  0
  139.8840   73.9060  221.6930 C   0  0  0  0  0  0  0  0  0  0  0  0
  138.6920   74.5780  222.0050 C   0  0  0  0  0  0  0  0  0  0  0  0
  137.7511   74.0133  222.0810 H   0  0  0  0  0  0  0  0  0  0  0  0
  138.6910   75.9210  222.2140 N   0  0  0  0  0  0  0  0  0  0  0  0
  139.8280   76.6600  222.1240 C   0  0  0  0  0  0  0  0  0  0  0  0
  139.7954   77.7441  222.3072 H   0  0  0  0  0  0  0  0  0  0  0  0
  141.0370   76.0430  221.7990 C   0  0  0  0  0  0  0  0  0  0  0  0
  141.9590   76.6374  221.7177 H   0  0  0  0  0  0  0  0  0  0  0  0
  141.0660   74.6650  221.5780 C   0  0  0  0  0  0  0  0  0  0  0  0
  142.0126   74.1709  221.3138 H   0  0  0  0  0  0  0  0  0  0  0  0
  1  2  1  0
  2  3  2  0
  3  4  1  0
  3  5  1  0
  5  6  2  0
  6  7  1  0
  7  8  2  0
  8  9  1  0
  8 10  1  0
 10 11  1  0
 10 12  2  0
 12 13  1  0
 12 14  1  0
 14 15  1  0
 14 16  2  0
 16 17  1  0
 17 18  2  0
 17 19  1  0
 19 20  1  0
 20 21  1  0
 20 22  1  0
 20 23  1  0
 23 24  1  0
 23 25  1  0
 25 26  1  0
 25 27  1  0
 25 28  1  0
 28 29  1  0
 28 30  1  0
 28 31  1  0
 31 32  1  0
 31 33  1  0
 31 34  1  0
 34 35  1  0
 34 36  1  0
 34 37  1  0
 37 38  1  0
 37 39  1  0
  2 40  1  0
 40 41  2  0
 41 42  1  0
 41 43  1  0
 43 44  2  0
 44 45  1  0
 44 46  1  0
 46 47  1  0
 46 48  2  0
 48 49  1  0
 19  5  1  0
 37 23  1  0
 48 40  1  0
 16  7  1  0
M  END
>  <UniqueID>  (65) 
26

>  <SMILES>  (65) 
O=c1c2ccccc2nc(/C=C/c2cccnc2)n1CC1CCCCC1

>  <Energy>  (65) 
74.61964395363472

>  <Genealogy>  (65) 
O=c1c2ccccc2nc(/C=C/c2cccnc2)n1CC1CCCCC1 (cis-trans isomerization)
O=c1c2ccccc2nc(/C=C/c2cccnc2)n1CC1CCCCC1 (3D coordinates assigned)
O=c1c2ccccc2nc(/C=C/c2cccnc2)n1CC1CCCCC1 (nonaromatic ring conformer: 74.61964395363472 kcal/mol)

>  <smiles>  (65) 
O=c1c2ccccc2nc(/C=C/c2cccnc2)n1CC1CCCCC1

>  <score_type>  (65) 
oracle

>  <origin>  (65) 
autodockgpu

>  <m_score__min__energy>  (65) 
-7.3499999999999996

>  <m_primary>  (65) 
energy

>  <meeko>  (65) 
{"free_energy": -6.93, "intermolecular_energy": -8.42, "internal_energy": -1.88, "cluster_size": 19, "cluster_id": 1, "rank_in_cluster": 18}

>  <energy>  (65) 
-7.27

>  <cluster_rmsd>  (65) 
0.28

>  <rmsd>  (65) 
272.14

>  <cluster>  (65) 
1

$$$$
XUFANRSCLZKORJ-OUKQBFOZNA-N
     RDKit          3D

 49 52  0  0  0  0  0  0  0  0999 V2000
  141.8427   72.1157  221.4244 H   0  0  0  0  0  0  0  0  0  0  0  0
  140.7940   72.2850  221.7100 C   0  0  0  0  0  0  0  0  0  0  0  0
  140.0390   71.2170  222.0130 C   0  0  0  0  0  0  0  0  0  0  0  0
  139.4895   70.7029  221.2106 H   0  0  0  0  0  0  0  0  0  0  0  0
  139.9280   70.7130  223.4060 C   0  0  0  0  0  0  0  0  0  0  0  0
  140.4600   71.4860  224.3900 N   0  0  0  0  0  0  0  0  0  0  0  0
  140.4780   71.0970  225.6840 C   0  0  0  0  0  0  0  0  0  0  0  0
  141.0270   71.9360  226.6600 C   0  0  0  0  0  0  0  0  0  0  0  0
  141.4231   72.9226  226.3778 H   0  0  0  0  0  0  0  0  0  0  0  0
  141.0720   71.5200  227.9940 C   0  0  0  0  0  0  0  0  0  0  0  0
  141.4988   72.1817  228.7621 H   0  0  0  0  0  0  0  0  0  0  0  0
  140.5750   70.2640  228.3520 C   0  0  0  0  0  0  0  0  0  0  0  0
  140.6133   69.9376  229.4018 H   0  0  0  0  0  0  0  0  0  0  0  0
  140.0290   69.4210  227.3790 C   0  0  0  0  0  0  0  0  0  0  0  0
  139.6419   68.4316  227.6641 H   0  0  0  0  0  0  0  0  0  0  0  0
  139.9740   69.8370  226.0340 C   0  0  0  0  0  0  0  0  0  0  0  0
  139.4280   69.0330  225.0190 C   0  0  0  0  0  0  0  0  0  0  0  0
  139.0370   67.8680  225.3080 O   0  0  0  0  0  0  0  0  0  0  0  0
  139.3360   69.5010  223.7240 N   0  0  0  0  0  0  0  0  0  0  0  0
  138.6260   68.6810  222.7060 C   0  0  0  0  0  0  0  0  0  0  0  0
  139.0995   68.8636  221.7301 H   0  0  0  0  0  0  0  0  0  0  0  0
  138.7064   67.6366  223.0419 H   0  0  0  0  0  0  0  0  0  0  0  0
  137.1010   68.9780  222.5670 C   0  0  0  0  0  0  0  0  0  0  0  0
  136.7335   68.0958  222.0224 H   0  0  0  0  0  0  0  0  0  0  0  0
  136.3220   68.9880  223.9160 C   0  0  0  0  0  0  0  0  0  0  0  0
  135.5829   68.1736  223.8931 H   0  0  0  0  0  0  0  0  0  0  0  0
  137.0701   68.8639  224.7129 H   0  0  0  0  0  0  0  0  0  0  0  0
  135.5820   70.3010  224.2080 C   0  0  0  0  0  0  0  0  0  0  0  0
  134.6551   70.3313  223.6164 H   0  0  0  0  0  0  0  0  0  0  0  0
  135.3531   70.3439  225.2830 H   0  0  0  0  0  0  0  0  0  0  0  0
  136.4460   71.5050  223.8450 C   0  0  0  0  0  0  0  0  0  0  0  0
  135.9166   72.4247  224.1347 H   0  0  0  0  0  0  0  0  0  0  0  0
  137.4022   71.4168  224.3816 H   0  0  0  0  0  0  0  0  0  0  0  0
  136.7430   71.5540  222.3380 C   0  0  0  0  0  0  0  0  0  0  0  0
  135.9794   72.1820  221.8558 H   0  0  0  0  0  0  0  0  0  0  0  0
  137.7591   71.9607  222.2283 H   0  0  0  0  0  0  0  0  0  0  0  0
  136.7400   70.1720  221.6490 C   0  0  0  0  0  0  0  0  0  0  0  0
  135.7332   69.9965  221.2422 H   0  0  0  0  0  0  0  0  0  0  0  0
  137.5237   70.2129  220.8782 H   0  0  0  0  0  0  0  0  0  0  0  0
  140.2930   73.6790  221.7390 C   0  0  0  0  0  0  0  0  0  0  0  0
  141.2060   74.7340  221.5840 C   0  0  0  0  0  0  0  0  0  0  0  0
  142.2729   74.5147  221.4307 H   0  0  0  0  0  0  0  0  0  0  0  0
  140.7810   76.0250  221.6220 N   0  0  0  0  0  0  0  0  0  0  0  0
  139.4740   76.3430  221.8170 C   0  0  0  0  0  0  0  0  0  0  0  0
  139.1613   77.3975  221.8353 H   0  0  0  0  0  0  0  0  0  0  0  0
  138.5290   75.3320  221.9940 C   0  0  0  0  0  0  0  0  0  0  0  0
  137.4711   75.5841  222.1589 H   0  0  0  0  0  0  0  0  0  0  0  0
  138.9380   73.9970  221.9600 C   0  0  0  0  0  0  0  0  0  0  0  0
  138.2017   73.1929  222.1059 H   0  0  0  0  0  0  0  0  0  0  0  0
  1  2  1  0
  2  3  2  0
  3  4  1  0
  3  5  1  0
  5  6  2  0
  6  7  1  0
  7  8  2  0
  8  9  1  0
  8 10  1  0
 10 11  1  0
 10 12  2  0
 12 13  1  0
 12 14  1  0
 14 15  1  0
 14 16  2  0
 16 17  1  0
 17 18  2  0
 17 19  1  0
 19 20  1  0
 20 21  1  0
 20 22  1  0
 20 23  1  0
 23 24  1  0
 23 25  1  0
 25 26  1  0
 25 27  1  0
 25 28  1  0
 28 29  1  0
 28 30  1  0
 28 31  1  0
 31 32  1  0
 31 33  1  0
 31 34  1  0
 34 35  1  0
 34 36  1  0
 34 37  1  0
 37 38  1  0
 37 39  1  0
  2 40  1  0
 40 41  2  0
 41 42  1  0
 41 43  1  0
 43 44  2  0
 44 45  1  0
 44 46  1  0
 46 47  1  0
 46 48  2  0
 48 49  1  0
 19  5  1  0
 37 23  1  0
 48 40  1  0
 16  7  1  0
M  END
>  <UniqueID>  (66) 
26

>  <SMILES>  (66) 
O=c1c2ccccc2nc(/C=C/c2cccnc2)n1CC1CCCCC1

>  <Energy>  (66) 
74.61964395363472

>  <Genealogy>  (66) 
O=c1c2ccccc2nc(/C=C/c2cccnc2)n1CC1CCCCC1 (cis-trans isomerization)
O=c1c2ccccc2nc(/C=C/c2cccnc2)n1CC1CCCCC1 (3D coordinates assigned)
O=c1c2ccccc2nc(/C=C/c2cccnc2)n1CC1CCCCC1 (nonaromatic ring conformer: 74.61964395363472 kcal/mol)

>  <smiles>  (66) 
O=c1c2ccccc2nc(/C=C/c2cccnc2)n1CC1CCCCC1

>  <score_type>  (66) 
oracle

>  <origin>  (66) 
autodockgpu

>  <m_score__min__energy>  (66) 
-7.3499999999999996

>  <m_primary>  (66) 
energy

>  <meeko>  (66) 
{"free_energy": -6.94, "intermolecular_energy": -8.43, "internal_energy": -1.91, "cluster_size": 19, "cluster_id": 1, "rank_in_cluster": 16}

>  <energy>  (66) 
-7.22

>  <cluster_rmsd>  (66) 
0.32

>  <rmsd>  (66) 
272.17

>  <cluster>  (66) 
1

$$$$
XUFANRSCLZKORJ-OUKQBFOZNA-N
     RDKit          3D

 49 52  0  0  0  0  0  0  0  0999 V2000
  141.5311   71.0624  220.9149 H   0  0  0  0  0  0  0  0  0  0  0  0
  140.7060   71.5350  221.4680 C   0  0  0  0  0  0  0  0  0  0  0  0
  139.7610   70.7420  221.9970 C   0  0  0  0  0  0  0  0  0  0  0  0
  138.9819   70.3249  221.3420 H   0  0  0  0  0  0  0  0  0  0  0  0
  139.7420   70.4140  223.4460 C   0  0  0  0  0  0  0  0  0  0  0  0
  140.4220   71.2470  224.2790 N   0  0  0  0  0  0  0  0  0  0  0  0
  140.5300   71.0120  225.6050 C   0  0  0  0  0  0  0  0  0  0  0  0
  141.2300   71.9080  226.4210 C   0  0  0  0  0  0  0  0  0  0  0  0
  141.6717   72.8171  225.9869 H   0  0  0  0  0  0  0  0  0  0  0  0
  141.3680   71.6480  227.7870 C   0  0  0  0  0  0  0  0  0  0  0  0
  141.9134   72.3554  228.4290 H   0  0  0  0  0  0  0  0  0  0  0  0
  140.8130   70.4890  228.3380 C   0  0  0  0  0  0  0  0  0  0  0  0
  140.9250   70.2847  229.4130 H   0  0  0  0  0  0  0  0  0  0  0  0
  140.1160   69.5890  227.5260 C   0  0  0  0  0  0  0  0  0  0  0  0
  139.6833   68.6768  227.9627 H   0  0  0  0  0  0  0  0  0  0  0  0
  139.9670   69.8490  226.1480 C   0  0  0  0  0  0  0  0  0  0  0  0
  139.2700   68.9830  225.2900 C   0  0  0  0  0  0  0  0  0  0  0  0
  138.8200   67.8980  225.7530 O   0  0  0  0  0  0  0  0  0  0  0  0
  139.0940   69.3040  223.9590 N   0  0  0  0  0  0  0  0  0  0  0  0
  138.2310   68.4350  223.1130 C   0  0  0  0  0  0  0  0  0  0  0  0
  138.6426   68.4350  222.0929 H   0  0  0  0  0  0  0  0  0  0  0  0
  138.2367   67.4422  223.5866 H   0  0  0  0  0  0  0  0  0  0  0  0
  136.7350   68.8700  223.0310 C   0  0  0  0  0  0  0  0  0  0  0  0
  136.2321   67.9434  222.7171 H   0  0  0  0  0  0  0  0  0  0  0  0
  136.0980   69.2440  224.4020 C   0  0  0  0  0  0  0  0  0  0  0  0
  135.2849   68.5329  224.6097 H   0  0  0  0  0  0  0  0  0  0  0  0
  136.9055   69.1991  225.1476 H   0  0  0  0  0  0  0  0  0  0  0  0
  135.5210   70.6660  224.4630 C   0  0  0  0  0  0  0  0  0  0  0  0
  134.5470   70.6816  223.9519 H   0  0  0  0  0  0  0  0  0  0  0  0
  135.4060   70.9533  225.5186 H   0  0  0  0  0  0  0  0  0  0  0  0
  136.4560   71.6630  223.7860 C   0  0  0  0  0  0  0  0  0  0  0  0
  136.0487   72.6770  223.9124 H   0  0  0  0  0  0  0  0  0  0  0  0
  137.4479   71.5771  224.2538 H   0  0  0  0  0  0  0  0  0  0  0  0
  136.6050   71.3690  222.2860 C   0  0  0  0  0  0  0  0  0  0  0  0
  135.8606   71.9681  221.7411 H   0  0  0  0  0  0  0  0  0  0  0  0
  137.6394   71.6260  222.0141 H   0  0  0  0  0  0  0  0  0  0  0  0
  136.4020   69.8850  221.9100 C   0  0  0  0  0  0  0  0  0  0  0  0
  135.3479   69.7465  221.6275 H   0  0  0  0  0  0  0  0  0  0  0  0
  137.1068   69.6781  221.0912 H   0  0  0  0  0  0  0  0  0  0  0  0
  140.6990   73.0120  221.5880 C   0  0  0  0  0  0  0  0  0  0  0  0
  139.6150   73.6380  222.2230 C   0  0  0  0  0  0  0  0  0  0  0  0
  138.7955   73.0288  222.6321 H   0  0  0  0  0  0  0  0  0  0  0  0
  139.5710   74.9930  222.3360 N   0  0  0  0  0  0  0  0  0  0  0  0
  140.5560   75.7850  221.8390 C   0  0  0  0  0  0  0  0  0  0  0  0
  140.4939   76.8773  221.9535 H   0  0  0  0  0  0  0  0  0  0  0  0
  141.6470   75.2130  221.1830 C   0  0  0  0  0  0  0  0  0  0  0  0
  142.4441   75.8504  220.7727 H   0  0  0  0  0  0  0  0  0  0  0  0
  141.7180   73.8250  221.0520 C   0  0  0  0  0  0  0  0  0  0  0  0
  142.5701   73.3653  220.5299 H   0  0  0  0  0  0  0  0  0  0  0  0
  1  2  1  0
  2  3  2  0
  3  4  1  0
  3  5  1  0
  5  6  2  0
  6  7  1  0
  7  8  2  0
  8  9  1  0
  8 10  1  0
 10 11  1  0
 10 12  2  0
 12 13  1  0
 12 14  1  0
 14 15  1  0
 14 16  2  0
 16 17  1  0
 17 18  2  0
 17 19  1  0
 19 20  1  0
 20 21  1  0
 20 22  1  0
 20 23  1  0
 23 24  1  0
 23 25  1  0
 25 26  1  0
 25 27  1  0
 25 28  1  0
 28 29  1  0
 28 30  1  0
 28 31  1  0
 31 32  1  0
 31 33  1  0
 31 34  1  0
 34 35  1  0
 34 36  1  0
 34 37  1  0
 37 38  1  0
 37 39  1  0
  2 40  1  0
 40 41  2  0
 41 42  1  0
 41 43  1  0
 43 44  2  0
 44 45  1  0
 44 46  1  0
 46 47  1  0
 46 48  2  0
 48 49  1  0
 19  5  1  0
 37 23  1  0
 48 40  1  0
 16  7  1  0
M  END
>  <UniqueID>  (67) 
26

>  <SMILES>  (67) 
O=c1c2ccccc2nc(/C=C/c2cccnc2)n1CC1CCCCC1

>  <Energy>  (67) 
74.61964395363472

>  <Genealogy>  (67) 
O=c1c2ccccc2nc(/C=C/c2cccnc2)n1CC1CCCCC1 (cis-trans isomerization)
O=c1c2ccccc2nc(/C=C/c2cccnc2)n1CC1CCCCC1 (3D coordinates assigned)
O=c1c2ccccc2nc(/C=C/c2cccnc2)n1CC1CCCCC1 (nonaromatic ring conformer: 74.61964395363472 kcal/mol)

>  <smiles>  (67) 
O=c1c2ccccc2nc(/C=C/c2cccnc2)n1CC1CCCCC1

>  <score_type>  (67) 
oracle

>  <origin>  (67) 
autodockgpu

>  <m_score__min__energy>  (67) 
-7.3499999999999996

>  <m_primary>  (67) 
energy

>  <meeko>  (67) 
{"free_energy": -7.27, "intermolecular_energy": -8.76, "internal_energy": -1.87, "cluster_size": 19, "cluster_id": 1, "rank_in_cluster": 5}

>  <energy>  (67) 
-7.14

>  <cluster_rmsd>  (67) 
0.71

>  <rmsd>  (67) 
272.18

>  <cluster>  (67) 
1

$$$$
XUFANRSCLZKORJ-OUKQBFOZNA-N
     RDKit          3D

 49 52  0  0  0  0  0  0  0  0999 V2000
  138.4847   71.7395  220.7554 H   0  0  0  0  0  0  0  0  0  0  0  0
  139.3040   72.0530  221.4190 C   0  0  0  0  0  0  0  0  0  0  0  0
  140.0920   71.1030  221.9460 C   0  0  0  0  0  0  0  0  0  0  0  0
  140.8756   70.6488  221.3218 H   0  0  0  0  0  0  0  0  0  0  0  0
  139.9320   70.6500  223.3510 C   0  0  0  0  0  0  0  0  0  0  0  0
  140.5030   71.4160  224.3190 N   0  0  0  0  0  0  0  0  0  0  0  0
  140.4800   71.0670  225.6240 C   0  0  0  0  0  0  0  0  0  0  0  0
  141.0720   71.8970  226.5820 C   0  0  0  0  0  0  0  0  0  0  0  0
  141.5353   72.8466  226.2759 H   0  0  0  0  0  0  0  0  0  0  0  0
  141.0750   71.5200  227.9280 C   0  0  0  0  0  0  0  0  0  0  0  0
  141.5365   72.1753  228.6814 H   0  0  0  0  0  0  0  0  0  0  0  0
  140.4920   70.3110  228.3170 C   0  0  0  0  0  0  0  0  0  0  0  0
  140.4970   70.0152  229.3765 H   0  0  0  0  0  0  0  0  0  0  0  0
  139.9020   69.4760  227.3620 C   0  0  0  0  0  0  0  0  0  0  0  0
  139.4469   68.5234  227.6712 H   0  0  0  0  0  0  0  0  0  0  0  0
  139.8900   69.8540  226.0040 C   0  0  0  0  0  0  0  0  0  0  0  0
  139.3040   69.0570  225.0070 C   0  0  0  0  0  0  0  0  0  0  0  0
  138.8330   67.9300  225.3260 O   0  0  0  0  0  0  0  0  0  0  0  0
  139.2580   69.4900  223.6970 N   0  0  0  0  0  0  0  0  0  0  0  0
  138.5070   68.6880  222.6950 C   0  0  0  0  0  0  0  0  0  0  0  0
  139.0943   68.6676  221.7651 H   0  0  0  0  0  0  0  0  0  0  0  0
  138.3630   67.6939  223.1433 H   0  0  0  0  0  0  0  0  0  0  0  0
  137.0810   69.2230  222.3550 C   0  0  0  0  0  0  0  0  0  0  0  0
  137.0951   69.2662  221.2559 H   0  0  0  0  0  0  0  0  0  0  0  0
  135.9240   68.2450  222.7150 C   0  0  0  0  0  0  0  0  0  0  0  0
  135.4134   67.9574  221.7841 H   0  0  0  0  0  0  0  0  0  0  0  0
  136.3832   67.3893  223.2317 H   0  0  0  0  0  0  0  0  0  0  0  0
  134.8790   68.8310  223.6760 C   0  0  0  0  0  0  0  0  0  0  0  0
  134.2070   69.4967  223.1145 H   0  0  0  0  0  0  0  0  0  0  0  0
  134.3125   68.0023  224.1258 H   0  0  0  0  0  0  0  0  0  0  0  0
  135.5490   69.6250  224.7930 C   0  0  0  0  0  0  0  0  0  0  0  0
  134.7787   69.9666  225.5000 H   0  0  0  0  0  0  0  0  0  0  0  0
  136.2771   68.9693  225.2929 H   0  0  0  0  0  0  0  0  0  0  0  0
  136.3000   70.8480  224.2440 C   0  0  0  0  0  0  0  0  0  0  0  0
  135.6218   71.7134  224.2778 H   0  0  0  0  0  0  0  0  0  0  0  0
  137.1916   70.9813  224.8743 H   0  0  0  0  0  0  0  0  0  0  0  0
  136.8020   70.6820  222.7930 C   0  0  0  0  0  0  0  0  0  0  0  0
  136.0395   71.0998  222.1192 H   0  0  0  0  0  0  0  0  0  0  0  0
  137.7678   71.2061  222.7421 H   0  0  0  0  0  0  0  0  0  0  0  0
  139.4770   73.5020  221.6820 C   0  0  0  0  0  0  0  0  0  0  0  0
  140.7730   74.0400  221.7050 C   0  0  0  0  0  0  0  0  0  0  0  0
  141.6385   73.3881  221.5154 H   0  0  0  0  0  0  0  0  0  0  0  0
  140.9660   75.3610  221.9600 N   0  0  0  0  0  0  0  0  0  0  0  0
  139.9280   76.2020  222.2070 C   0  0  0  0  0  0  0  0  0  0  0  0
  140.1177   77.2678  222.4021 H   0  0  0  0  0  0  0  0  0  0  0  0
  138.6210   75.7130  222.2130 C   0  0  0  0  0  0  0  0  0  0  0  0
  137.7773   76.3882  222.4186 H   0  0  0  0  0  0  0  0  0  0  0  0
  138.3930   74.3600  221.9560 C   0  0  0  0  0  0  0  0  0  0  0  0
  137.3670   73.9634  221.9673 H   0  0  0  0  0  0  0  0  0  0  0  0
  1  2  1  0
  2  3  2  0
  3  4  1  0
  3  5  1  0
  5  6  2  0
  6  7  1  0
  7  8  2  0
  8  9  1  0
  8 10  1  0
 10 11  1  0
 10 12  2  0
 12 13  1  0
 12 14  1  0
 14 15  1  0
 14 16  2  0
 16 17  1  0
 17 18  2  0
 17 19  1  0
 19 20  1  0
 20 21  1  0
 20 22  1  0
 20 23  1  0
 23 24  1  0
 23 25  1  0
 25 26  1  0
 25 27  1  0
 25 28  1  0
 28 29  1  0
 28 30  1  0
 28 31  1  0
 31 32  1  0
 31 33  1  0
 31 34  1  0
 34 35  1  0
 34 36  1  0
 34 37  1  0
 37 38  1  0
 37 39  1  0
  2 40  1  0
 40 41  2  0
 41 42  1  0
 41 43  1  0
 43 44  2  0
 44 45  1  0
 44 46  1  0
 46 47  1  0
 46 48  2  0
 48 49  1  0
 19  5  1  0
 37 23  1  0
 48 40  1  0
 16  7  1  0
M  END
>  <UniqueID>  (68) 
26

>  <SMILES>  (68) 
O=c1c2ccccc2nc(/C=C/c2cccnc2)n1CC1CCCCC1

>  <Energy>  (68) 
74.61964395363472

>  <Genealogy>  (68) 
O=c1c2ccccc2nc(/C=C/c2cccnc2)n1CC1CCCCC1 (cis-trans isomerization)
O=c1c2ccccc2nc(/C=C/c2cccnc2)n1CC1CCCCC1 (3D coordinates assigned)
O=c1c2ccccc2nc(/C=C/c2cccnc2)n1CC1CCCCC1 (nonaromatic ring conformer: 74.61964395363472 kcal/mol)

>  <smiles>  (68) 
O=c1c2ccccc2nc(/C=C/c2cccnc2)n1CC1CCCCC1

>  <score_type>  (68) 
oracle

>  <origin>  (68) 
autodockgpu

>  <m_score__min__energy>  (68) 
-7.3499999999999996

>  <m_primary>  (68) 
energy

>  <meeko>  (68) 
{"free_energy": -7.08, "intermolecular_energy": -8.57, "internal_energy": -1.76, "cluster_size": 19, "cluster_id": 1, "rank_in_cluster": 9}

>  <energy>  (68) 
-7.12

>  <cluster_rmsd>  (68) 
1.34

>  <rmsd>  (68) 
272.26

>  <cluster>  (68) 
1

$$$$
XUFANRSCLZKORJ-OUKQBFOZNA-N
     RDKit          3D

 49 52  0  0  0  0  0  0  0  0999 V2000
  138.8667   72.0896  220.7879 H   0  0  0  0  0  0  0  0  0  0  0  0
  139.6630   72.4400  221.4610 C   0  0  0  0  0  0  0  0  0  0  0  0
  140.4600   71.5230  222.0310 C   0  0  0  0  0  0  0  0  0  0  0  0
  141.3472   71.1694  221.4853 H   0  0  0  0  0  0  0  0  0  0  0  0
  140.1730   70.9740  223.3810 C   0  0  0  0  0  0  0  0  0  0  0  0
  140.6690   71.6560  224.4480 N   0  0  0  0  0  0  0  0  0  0  0  0
  140.5290   71.2150  225.7170 C   0  0  0  0  0  0  0  0  0  0  0  0
  141.0480   71.9620  226.7800 C   0  0  0  0  0  0  0  0  0  0  0  0
  141.5499   72.9211  226.5846 H   0  0  0  0  0  0  0  0  0  0  0  0
  140.9290   71.4900  228.0900 C   0  0  0  0  0  0  0  0  0  0  0  0
  141.3311   72.0809  228.9261 H   0  0  0  0  0  0  0  0  0  0  0  0
  140.2990   70.2670  228.3380 C   0  0  0  0  0  0  0  0  0  0  0  0
  140.2100   69.8949  229.3693 H   0  0  0  0  0  0  0  0  0  0  0  0
  139.7820   69.5160  227.2790 C   0  0  0  0  0  0  0  0  0  0  0  0
  139.2884   68.5534  227.4781 H   0  0  0  0  0  0  0  0  0  0  0  0
  139.8920   69.9900  225.9560 C   0  0  0  0  0  0  0  0  0  0  0  0
  139.3830   69.2790  224.8570 C   0  0  0  0  0  0  0  0  0  0  0  0
  138.8710   68.1410  225.0500 O   0  0  0  0  0  0  0  0  0  0  0  0
  139.4560   69.8060  223.5830 N   0  0  0  0  0  0  0  0  0  0  0  0
  138.7820   69.0930  222.4640 C   0  0  0  0  0  0  0  0  0  0  0  0
  139.2488   69.4177  221.5224 H   0  0  0  0  0  0  0  0  0  0  0  0
  138.9057   68.0188  222.6658 H   0  0  0  0  0  0  0  0  0  0  0  0
  137.2460   69.3410  222.3530 C   0  0  0  0  0  0  0  0  0  0  0  0
  136.9382   68.6068  221.5939 H   0  0  0  0  0  0  0  0  0  0  0  0
  136.4410   68.9750  223.6350 C   0  0  0  0  0  0  0  0  0  0  0  0
  135.7478   68.1582  223.3852 H   0  0  0  0  0  0  0  0  0  0  0  0
  137.1786   68.6905  224.3999 H   0  0  0  0  0  0  0  0  0  0  0  0
  135.6250   70.1360  224.2210 C   0  0  0  0  0  0  0  0  0  0  0  0
  134.7102   70.2701  223.6250 H   0  0  0  0  0  0  0  0  0  0  0  0
  135.3723   69.8963  225.2644 H   0  0  0  0  0  0  0  0  0  0  0  0
  136.4290   71.4320  224.2000 C   0  0  0  0  0  0  0  0  0  0  0  0
  135.8448   72.2229  224.6931 H   0  0  0  0  0  0  0  0  0  0  0  0
  137.3777   71.2579  224.7289 H   0  0  0  0  0  0  0  0  0  0  0  0
  136.7520   71.8720  222.7630 C   0  0  0  0  0  0  0  0  0  0  0  0
  135.9642   72.5628  222.4281 H   0  0  0  0  0  0  0  0  0  0  0  0
  137.7461   72.3421  222.7915 H   0  0  0  0  0  0  0  0  0  0  0  0
  136.8390   70.7090  221.7510 C   0  0  0  0  0  0  0  0  0  0  0  0
  135.8519   70.5934  221.2796 H   0  0  0  0  0  0  0  0  0  0  0  0
  137.6351   70.9799  221.0419 H   0  0  0  0  0  0  0  0  0  0  0  0
  139.7960   73.8990  221.6880 C   0  0  0  0  0  0  0  0  0  0  0  0
  138.6490   74.6480  221.9940 C   0  0  0  0  0  0  0  0  0  0  0  0
  137.6739   74.1454  222.0749 H   0  0  0  0  0  0  0  0  0  0  0  0
  138.7350   75.9900  222.1910 N   0  0  0  0  0  0  0  0  0  0  0  0
  139.9160   76.6540  222.0950 C   0  0  0  0  0  0  0  0  0  0  0  0
  139.9524   77.7396  222.2687 H   0  0  0  0  0  0  0  0  0  0  0  0
  141.0830   75.9590  221.7760 C   0  0  0  0  0  0  0  0  0  0  0  0
  142.0409   76.4929  221.6900 H   0  0  0  0  0  0  0  0  0  0  0  0
  141.0240   74.5800  221.5670 C   0  0  0  0  0  0  0  0  0  0  0  0
  141.9371   74.0242  221.3075 H   0  0  0  0  0  0  0  0  0  0  0  0
  1  2  1  0
  2  3  2  0
  3  4  1  0
  3  5  1  0
  5  6  2  0
  6  7  1  0
  7  8  2  0
  8  9  1  0
  8 10  1  0
 10 11  1  0
 10 12  2  0
 12 13  1  0
 12 14  1  0
 14 15  1  0
 14 16  2  0
 16 17  1  0
 17 18  2  0
 17 19  1  0
 19 20  1  0
 20 21  1  0
 20 22  1  0
 20 23  1  0
 23 24  1  0
 23 25  1  0
 25 26  1  0
 25 27  1  0
 25 28  1  0
 28 29  1  0
 28 30  1  0
 28 31  1  0
 31 32  1  0
 31 33  1  0
 31 34  1  0
 34 35  1  0
 34 36  1  0
 34 37  1  0
 37 38  1  0
 37 39  1  0
  2 40  1  0
 40 41  2  0
 41 42  1  0
 41 43  1  0
 43 44  2  0
 44 45  1  0
 44 46  1  0
 46 47  1  0
 46 48  2  0
 48 49  1  0
 19  5  1  0
 37 23  1  0
 48 40  1  0
 16  7  1  0
M  END
>  <UniqueID>  (69) 
26

>  <SMILES>  (69) 
O=c1c2ccccc2nc(/C=C/c2cccnc2)n1CC1CCCCC1

>  <Energy>  (69) 
74.61964395363472

>  <Genealogy>  (69) 
O=c1c2ccccc2nc(/C=C/c2cccnc2)n1CC1CCCCC1 (cis-trans isomerization)
O=c1c2ccccc2nc(/C=C/c2cccnc2)n1CC1CCCCC1 (3D coordinates assigned)
O=c1c2ccccc2nc(/C=C/c2cccnc2)n1CC1CCCCC1 (nonaromatic ring conformer: 74.61964395363472 kcal/mol)

>  <smiles>  (69) 
O=c1c2ccccc2nc(/C=C/c2cccnc2)n1CC1CCCCC1

>  <score_type>  (69) 
oracle

>  <origin>  (69) 
autodockgpu

>  <m_score__min__energy>  (69) 
-7.3499999999999996

>  <m_primary>  (69) 
energy

>  <meeko>  (69) 
{"free_energy": -6.87, "intermolecular_energy": -8.36, "internal_energy": -1.89, "cluster_size": 19, "cluster_id": 1, "rank_in_cluster": 19}

>  <energy>  (69) 
-7.08

>  <cluster_rmsd>  (69) 
0.96

>  <rmsd>  (69) 
272.0

>  <cluster>  (69) 
1

$$$$
XUFANRSCLZKORJ-OUKQBFOZNA-N
     RDKit          3D

 49 52  0  0  0  0  0  0  0  0999 V2000
  141.2470   71.5597  221.0062 H   0  0  0  0  0  0  0  0  0  0  0  0
  140.3300   71.8160  221.5570 C   0  0  0  0  0  0  0  0  0  0  0  0
  139.5830   70.8140  222.0450 C   0  0  0  0  0  0  0  0  0  0  0  0
  138.9289   70.2508  221.3631 H   0  0  0  0  0  0  0  0  0  0  0  0
  139.6180   70.4470  223.4840 C   0  0  0  0  0  0  0  0  0  0  0  0
  140.3040   71.2740  224.3190 N   0  0  0  0  0  0  0  0  0  0  0  0
  140.4600   71.0060  225.6340 C   0  0  0  0  0  0  0  0  0  0  0  0
  141.1650   71.8960  226.4520 C   0  0  0  0  0  0  0  0  0  0  0  0
  141.5720   72.8265  226.0295 H   0  0  0  0  0  0  0  0  0  0  0  0
  141.3520   71.6030  227.8050 C   0  0  0  0  0  0  0  0  0  0  0  0
  141.9012   72.3058  228.4488 H   0  0  0  0  0  0  0  0  0  0  0  0
  140.8420   70.4180  228.3410 C   0  0  0  0  0  0  0  0  0  0  0  0
  140.9929   70.1882  229.4061 H   0  0  0  0  0  0  0  0  0  0  0  0
  140.1400   69.5230  227.5270 C   0  0  0  0  0  0  0  0  0  0  0  0
  139.7420   68.5898  227.9521 H   0  0  0  0  0  0  0  0  0  0  0  0
  139.9420   69.8160  226.1620 C   0  0  0  0  0  0  0  0  0  0  0  0
  139.2380   68.9570  225.3030 C   0  0  0  0  0  0  0  0  0  0  0  0
  138.8290   67.8490  225.7490 O   0  0  0  0  0  0  0  0  0  0  0  0
  139.0120   69.3080  223.9870 N   0  0  0  0  0  0  0  0  0  0  0  0
  138.1430   68.4420  223.1450 C   0  0  0  0  0  0  0  0  0  0  0  0
  138.5041   68.5022  222.1077 H   0  0  0  0  0  0  0  0  0  0  0  0
  138.2099   67.4310  223.5732 H   0  0  0  0  0  0  0  0  0  0  0  0
  136.6300   68.8190  223.1530 C   0  0  0  0  0  0  0  0  0  0  0  0
  136.1437   67.8631  222.9088 H   0  0  0  0  0  0  0  0  0  0  0  0
  136.0740   69.2220  224.5510 C   0  0  0  0  0  0  0  0  0  0  0  0
  135.3058   68.4898  224.8403 H   0  0  0  0  0  0  0  0  0  0  0  0
  136.9321   69.2360  225.2391 H   0  0  0  0  0  0  0  0  0  0  0  0
  135.4470   70.6220  224.6020 C   0  0  0  0  0  0  0  0  0  0  0  0
  134.4409   70.5824  224.1591 H   0  0  0  0  0  0  0  0  0  0  0  0
  135.3920   70.9445  225.6522 H   0  0  0  0  0  0  0  0  0  0  0  0
  136.2950   71.6270  223.8270 C   0  0  0  0  0  0  0  0  0  0  0  0
  135.8584   72.6296  223.9456 H   0  0  0  0  0  0  0  0  0  0  0  0
  137.3190   71.5957  224.2275 H   0  0  0  0  0  0  0  0  0  0  0  0
  136.3520   71.2810  222.3300 C   0  0  0  0  0  0  0  0  0  0  0  0
  135.5495   71.8318  221.8176 H   0  0  0  0  0  0  0  0  0  0  0  0
  137.3548   71.5642  221.9776 H   0  0  0  0  0  0  0  0  0  0  0  0
  136.1810   69.7780  222.0220 C   0  0  0  0  0  0  0  0  0  0  0  0
  135.1161   69.5909  221.8196 H   0  0  0  0  0  0  0  0  0  0  0  0
  136.8347   69.5655  221.1633 H   0  0  0  0  0  0  0  0  0  0  0  0
  139.9880   73.2500  221.7190 C   0  0  0  0  0  0  0  0  0  0  0  0
  141.0230   74.1960  221.7600 C   0  0  0  0  0  0  0  0  0  0  0  0
  142.0678   73.8671  221.6587 H   0  0  0  0  0  0  0  0  0  0  0  0
  140.7440   75.5160  221.9240 N   0  0  0  0  0  0  0  0  0  0  0  0
  139.4700   75.9670  222.0600 C   0  0  0  0  0  0  0  0  0  0  0  0
  139.2776   77.0431  222.1827 H   0  0  0  0  0  0  0  0  0  0  0  0
  138.4050   75.0650  222.0440 C   0  0  0  0  0  0  0  0  0  0  0  0
  137.3718   75.4240  222.1611 H   0  0  0  0  0  0  0  0  0  0  0  0
  138.6630   73.7030  221.8780 C   0  0  0  0  0  0  0  0  0  0  0  0
  137.8315   72.9829  221.8713 H   0  0  0  0  0  0  0  0  0  0  0  0
  1  2  1  0
  2  3  2  0
  3  4  1  0
  3  5  1  0
  5  6  2  0
  6  7  1  0
  7  8  2  0
  8  9  1  0
  8 10  1  0
 10 11  1  0
 10 12  2  0
 12 13  1  0
 12 14  1  0
 14 15  1  0
 14 16  2  0
 16 17  1  0
 17 18  2  0
 17 19  1  0
 19 20  1  0
 20 21  1  0
 20 22  1  0
 20 23  1  0
 23 24  1  0
 23 25  1  0
 25 26  1  0
 25 27  1  0
 25 28  1  0
 28 29  1  0
 28 30  1  0
 28 31  1  0
 31 32  1  0
 31 33  1  0
 31 34  1  0
 34 35  1  0
 34 36  1  0
 34 37  1  0
 37 38  1  0
 37 39  1  0
  2 40  1  0
 40 41  2  0
 41 42  1  0
 41 43  1  0
 43 44  2  0
 44 45  1  0
 44 46  1  0
 46 47  1  0
 46 48  2  0
 48 49  1  0
 19  5  1  0
 37 23  1  0
 48 40  1  0
 16  7  1  0
M  END
>  <UniqueID>  (70) 
26

>  <SMILES>  (70) 
O=c1c2ccccc2nc(/C=C/c2cccnc2)n1CC1CCCCC1

>  <Energy>  (70) 
74.61964395363472

>  <Genealogy>  (70) 
O=c1c2ccccc2nc(/C=C/c2cccnc2)n1CC1CCCCC1 (cis-trans isomerization)
O=c1c2ccccc2nc(/C=C/c2cccnc2)n1CC1CCCCC1 (3D coordinates assigned)
O=c1c2ccccc2nc(/C=C/c2cccnc2)n1CC1CCCCC1 (nonaromatic ring conformer: 74.61964395363472 kcal/mol)

>  <smiles>  (70) 
O=c1c2ccccc2nc(/C=C/c2cccnc2)n1CC1CCCCC1

>  <score_type>  (70) 
oracle

>  <origin>  (70) 
autodockgpu

>  <m_score__min__energy>  (70) 
-7.3499999999999996

>  <m_primary>  (70) 
energy

>  <meeko>  (70) 
{"free_energy": -6.94, "intermolecular_energy": -8.44, "internal_energy": -1.96, "cluster_size": 19, "cluster_id": 1, "rank_in_cluster": 15}

>  <energy>  (70) 
-7.06

>  <cluster_rmsd>  (70) 
0.33

>  <rmsd>  (70) 
272.12

>  <cluster>  (70) 
1

$$$$
XUFANRSCLZKORJ-OUKQBFOZNA-N
     RDKit          3D

 49 52  0  0  0  0  0  0  0  0999 V2000
  141.7306   71.0487  221.1496 H   0  0  0  0  0  0  0  0  0  0  0  0
  140.8800   71.6410  221.5180 C   0  0  0  0  0  0  0  0  0  0  0  0
  139.8160   70.9860  222.0080 C   0  0  0  0  0  0  0  0  0  0  0  0
  138.9618   70.7789  221.3465 H   0  0  0  0  0  0  0  0  0  0  0  0
  139.7640   70.5340  223.4220 C   0  0  0  0  0  0  0  0  0  0  0  0
  140.3410   71.3420  224.3530 N   0  0  0  0  0  0  0  0  0  0  0  0
  140.4130   71.0010  225.6580 C   0  0  0  0  0  0  0  0  0  0  0  0
  141.0060   71.8740  226.5780 C   0  0  0  0  0  0  0  0  0  0  0  0
  141.3916   72.8479  226.2423 H   0  0  0  0  0  0  0  0  0  0  0  0
  141.1080   71.5080  227.9230 C   0  0  0  0  0  0  0  0  0  0  0  0
  141.5688   72.1965  228.6466 H   0  0  0  0  0  0  0  0  0  0  0  0
  140.6250   70.2680  228.3490 C   0  0  0  0  0  0  0  0  0  0  0  0
  140.7090   69.9808  229.4075 H   0  0  0  0  0  0  0  0  0  0  0  0
  140.0350   69.3910  227.4330 C   0  0  0  0  0  0  0  0  0  0  0  0
  139.6580   68.4147  227.7716 H   0  0  0  0  0  0  0  0  0  0  0  0
  139.9230   69.7570  226.0760 C   0  0  0  0  0  0  0  0  0  0  0  0
  139.3320   68.9180  225.1170 C   0  0  0  0  0  0  0  0  0  0  0  0
  138.9510   67.7660  225.4670 O   0  0  0  0  0  0  0  0  0  0  0  0
  139.1850   69.3380  223.8100 N   0  0  0  0  0  0  0  0  0  0  0  0
  138.4290   68.4830  222.8560 C   0  0  0  0  0  0  0  0  0  0  0  0
  138.8944   68.5845  221.8645 H   0  0  0  0  0  0  0  0  0  0  0  0
  138.4747   67.4600  223.2578 H   0  0  0  0  0  0  0  0  0  0  0  0
  136.9140   68.8290  222.7170 C   0  0  0  0  0  0  0  0  0  0  0  0
  136.5025   67.9228  222.2485 H   0  0  0  0  0  0  0  0  0  0  0  0
  136.1600   68.9740  224.0720 C   0  0  0  0  0  0  0  0  0  0  0  0
  135.3888   68.1912  224.1228 H   0  0  0  0  0  0  0  0  0  0  0  0
  136.9162   68.8805  224.8653 H   0  0  0  0  0  0  0  0  0  0  0  0
  135.4780   70.3350  224.2720 C   0  0  0  0  0  0  0  0  0  0  0  0
  134.5428   70.3573  223.6933 H   0  0  0  0  0  0  0  0  0  0  0  0
  135.2708   70.4693  225.3439 H   0  0  0  0  0  0  0  0  0  0  0  0
  136.3810   71.4720  223.8050 C   0  0  0  0  0  0  0  0  0  0  0  0
  135.8926   72.4315  224.0303 H   0  0  0  0  0  0  0  0  0  0  0  0
  137.3423   71.3876  224.3330 H   0  0  0  0  0  0  0  0  0  0  0  0
  136.6530   71.3930  222.2940 C   0  0  0  0  0  0  0  0  0  0  0  0
  135.9060   72.0122  221.7758 H   0  0  0  0  0  0  0  0  0  0  0  0
  137.6821   71.7488  222.1382 H   0  0  0  0  0  0  0  0  0  0  0  0
  136.5840   69.9630  221.7140 C   0  0  0  0  0  0  0  0  0  0  0  0
  135.5642   69.7975  221.3364 H   0  0  0  0  0  0  0  0  0  0  0  0
  137.3552   69.9129  220.9312 H   0  0  0  0  0  0  0  0  0  0  0  0
  140.9720   73.1190  221.4460 C   0  0  0  0  0  0  0  0  0  0  0  0
  139.9360   73.8930  221.9900 C   0  0  0  0  0  0  0  0  0  0  0  0
  139.0798   73.3978  222.4713 H   0  0  0  0  0  0  0  0  0  0  0  0
  139.9820   75.2500  221.9270 N   0  0  0  0  0  0  0  0  0  0  0  0
  141.0160   75.9040  221.3350 C   0  0  0  0  0  0  0  0  0  0  0  0
  141.0273   77.0036  221.3069 H   0  0  0  0  0  0  0  0  0  0  0  0
  142.0630   75.1810  220.7630 C   0  0  0  0  0  0  0  0  0  0  0  0
  142.8987   75.7055  220.2768 H   0  0  0  0  0  0  0  0  0  0  0  0
  142.0410   73.7860  220.8130 C   0  0  0  0  0  0  0  0  0  0  0  0
  142.8581   73.2068  220.3583 H   0  0  0  0  0  0  0  0  0  0  0  0
  1  2  1  0
  2  3  2  0
  3  4  1  0
  3  5  1  0
  5  6  2  0
  6  7  1  0
  7  8  2  0
  8  9  1  0
  8 10  1  0
 10 11  1  0
 10 12  2  0
 12 13  1  0
 12 14  1  0
 14 15  1  0
 14 16  2  0
 16 17  1  0
 17 18  2  0
 17 19  1  0
 19 20  1  0
 20 21  1  0
 20 22  1  0
 20 23  1  0
 23 24  1  0
 23 25  1  0
 25 26  1  0
 25 27  1  0
 25 28  1  0
 28 29  1  0
 28 30  1  0
 28 31  1  0
 31 32  1  0
 31 33  1  0
 31 34  1  0
 34 35  1  0
 34 36  1  0
 34 37  1  0
 37 38  1  0
 37 39  1  0
  2 40  1  0
 40 41  2  0
 41 42  1  0
 41 43  1  0
 43 44  2  0
 44 45  1  0
 44 46  1  0
 46 47  1  0
 46 48  2  0
 48 49  1  0
 19  5  1  0
 37 23  1  0
 48 40  1  0
 16  7  1  0
M  END
>  <UniqueID>  (71) 
26

>  <SMILES>  (71) 
O=c1c2ccccc2nc(/C=C/c2cccnc2)n1CC1CCCCC1

>  <Energy>  (71) 
74.61964395363472

>  <Genealogy>  (71) 
O=c1c2ccccc2nc(/C=C/c2cccnc2)n1CC1CCCCC1 (cis-trans isomerization)
O=c1c2ccccc2nc(/C=C/c2cccnc2)n1CC1CCCCC1 (3D coordinates assigned)
O=c1c2ccccc2nc(/C=C/c2cccnc2)n1CC1CCCCC1 (nonaromatic ring conformer: 74.61964395363472 kcal/mol)

>  <smiles>  (71) 
O=c1c2ccccc2nc(/C=C/c2cccnc2)n1CC1CCCCC1

>  <score_type>  (71) 
oracle

>  <origin>  (71) 
autodockgpu

>  <m_score__min__energy>  (71) 
-7.3499999999999996

>  <m_primary>  (71) 
energy

>  <meeko>  (71) 
{"free_energy": -7.27, "intermolecular_energy": -8.76, "internal_energy": -1.73, "cluster_size": 19, "cluster_id": 1, "rank_in_cluster": 4}

>  <energy>  (71) 
-6.99

>  <cluster_rmsd>  (71) 
0.69

>  <rmsd>  (71) 
272.06

>  <cluster>  (71) 
1

$$$$
XUFANRSCLZKORJ-OUKQBFOZNA-N
     RDKit          3D

 49 52  0  0  0  0  0  0  0  0999 V2000
  141.1478   70.5591  220.7730 H   0  0  0  0  0  0  0  0  0  0  0  0
  141.2390   71.5230  221.2950 C   0  0  0  0  0  0  0  0  0  0  0  0
  140.2820   71.8610  222.1740 C   0  0  0  0  0  0  0  0  0  0  0  0
  139.5999   72.6895  221.9326 H   0  0  0  0  0  0  0  0  0  0  0  0
  140.1220   71.1430  223.4650 C   0  0  0  0  0  0  0  0  0  0  0  0
  140.6060   71.7550  224.5790 N   0  0  0  0  0  0  0  0  0  0  0  0
  140.5760   71.1680  225.7950 C   0  0  0  0  0  0  0  0  0  0  0  0
  141.0760   71.8460  226.9130 C   0  0  0  0  0  0  0  0  0  0  0  0
  141.4714   72.8669  226.8056 H   0  0  0  0  0  0  0  0  0  0  0  0
  141.0730   71.2260  228.1660 C   0  0  0  0  0  0  0  0  0  0  0  0
  141.4604   71.7615  229.0453 H   0  0  0  0  0  0  0  0  0  0  0  0
  140.5780   69.9260  228.3020 C   0  0  0  0  0  0  0  0  0  0  0  0
  140.5786   69.4390  229.2883 H   0  0  0  0  0  0  0  0  0  0  0  0
  140.0820   69.2430  227.1870 C   0  0  0  0  0  0  0  0  0  0  0  0
  139.6967   68.2186  227.2973 H   0  0  0  0  0  0  0  0  0  0  0  0
  140.0750   69.8650  225.9220 C   0  0  0  0  0  0  0  0  0  0  0  0
  139.5800   69.2280  224.7720 C   0  0  0  0  0  0  0  0  0  0  0  0
  139.1920   68.0290  224.8590 O   0  0  0  0  0  0  0  0  0  0  0  0
  139.5340   69.8930  223.5640 N   0  0  0  0  0  0  0  0  0  0  0  0
  138.8750   69.2390  222.4020 C   0  0  0  0  0  0  0  0  0  0  0  0
  139.4032   69.5525  221.4895 H   0  0  0  0  0  0  0  0  0  0  0  0
  138.9285   68.1562  222.5882 H   0  0  0  0  0  0  0  0  0  0  0  0
  137.3620   69.5760  222.2250 C   0  0  0  0  0  0  0  0  0  0  0  0
  137.2480   69.6012  221.1312 H   0  0  0  0  0  0  0  0  0  0  0  0
  136.3920   68.4610  222.7180 C   0  0  0  0  0  0  0  0  0  0  0  0
  135.8226   68.0921  221.8522 H   0  0  0  0  0  0  0  0  0  0  0  0
  137.0160   67.6830  223.1820 H   0  0  0  0  0  0  0  0  0  0  0  0
  135.3940   68.9210  223.7890 C   0  0  0  0  0  0  0  0  0  0  0  0
  134.5807   69.4823  223.3057 H   0  0  0  0  0  0  0  0  0  0  0  0
  134.9966   68.0332  224.3027 H   0  0  0  0  0  0  0  0  0  0  0  0
  136.0740   69.8160  224.8200 C   0  0  0  0  0  0  0  0  0  0  0  0
  135.3497   70.0657  225.6094 H   0  0  0  0  0  0  0  0  0  0  0  0
  136.9345   69.2709  225.2352 H   0  0  0  0  0  0  0  0  0  0  0  0
  136.5890   71.1170  224.1860 C   0  0  0  0  0  0  0  0  0  0  0  0
  135.8099   71.8859  224.2946 H   0  0  0  0  0  0  0  0  0  0  0  0
  137.5202   71.3778  224.7103 H   0  0  0  0  0  0  0  0  0  0  0  0
  136.9420   70.9930  222.6880 C   0  0  0  0  0  0  0  0  0  0  0  0
  136.0596   71.2942  222.1043 H   0  0  0  0  0  0  0  0  0  0  0  0
  137.8173   71.6392  222.5260 H   0  0  0  0  0  0  0  0  0  0  0  0
  142.4110   72.3760  220.9890 C   0  0  0  0  0  0  0  0  0  0  0  0
  142.2180   73.7520  220.7890 C   0  0  0  0  0  0  0  0  0  0  0  0
  141.2082   74.1796  220.8750 H   0  0  0  0  0  0  0  0  0  0  0  0
  143.2690   74.5600  220.4900 N   0  0  0  0  0  0  0  0  0  0  0  0
  144.5320   74.0750  220.3670 C   0  0  0  0  0  0  0  0  0  0  0  0
  145.3625   74.7571  220.1325 H   0  0  0  0  0  0  0  0  0  0  0  0
  144.7760   72.7120  220.5380 C   0  0  0  0  0  0  0  0  0  0  0  0
  145.7958   72.3134  220.4327 H   0  0  0  0  0  0  0  0  0  0  0  0
  143.7140   71.8580  220.8440 C   0  0  0  0  0  0  0  0  0  0  0  0
  143.8945   70.7805  220.9719 H   0  0  0  0  0  0  0  0  0  0  0  0
  1  2  1  0
  2  3  2  0
  3  4  1  0
  3  5  1  0
  5  6  2  0
  6  7  1  0
  7  8  2  0
  8  9  1  0
  8 10  1  0
 10 11  1  0
 10 12  2  0
 12 13  1  0
 12 14  1  0
 14 15  1  0
 14 16  2  0
 16 17  1  0
 17 18  2  0
 17 19  1  0
 19 20  1  0
 20 21  1  0
 20 22  1  0
 20 23  1  0
 23 24  1  0
 23 25  1  0
 25 26  1  0
 25 27  1  0
 25 28  1  0
 28 29  1  0
 28 30  1  0
 28 31  1  0
 31 32  1  0
 31 33  1  0
 31 34  1  0
 34 35  1  0
 34 36  1  0
 34 37  1  0
 37 38  1  0
 37 39  1  0
  2 40  1  0
 40 41  2  0
 41 42  1  0
 41 43  1  0
 43 44  2  0
 44 45  1  0
 44 46  1  0
 46 47  1  0
 46 48  2  0
 48 49  1  0
 19  5  1  0
 37 23  1  0
 48 40  1  0
 16  7  1  0
M  END
>  <UniqueID>  (72) 
26

>  <SMILES>  (72) 
O=c1c2ccccc2nc(/C=C/c2cccnc2)n1CC1CCCCC1

>  <Energy>  (72) 
74.61964395363472

>  <Genealogy>  (72) 
O=c1c2ccccc2nc(/C=C/c2cccnc2)n1CC1CCCCC1 (cis-trans isomerization)
O=c1c2ccccc2nc(/C=C/c2cccnc2)n1CC1CCCCC1 (3D coordinates assigned)
O=c1c2ccccc2nc(/C=C/c2cccnc2)n1CC1CCCCC1 (nonaromatic ring conformer: 74.61964395363472 kcal/mol)

>  <smiles>  (72) 
O=c1c2ccccc2nc(/C=C/c2cccnc2)n1CC1CCCCC1

>  <score_type>  (72) 
oracle

>  <origin>  (72) 
autodockgpu

>  <m_score__min__energy>  (72) 
-7.3499999999999996

>  <m_primary>  (72) 
energy

>  <meeko>  (72) 
{"free_energy": -7.12, "intermolecular_energy": -8.61, "internal_energy": -1.56, "cluster_size": 19, "cluster_id": 1, "rank_in_cluster": 8}

>  <energy>  (72) 
-6.99

>  <cluster_rmsd>  (72) 
0.97

>  <rmsd>  (72) 
272.14

>  <cluster>  (72) 
1

$$$$
XUFANRSCLZKORJ-OUKQBFOZNA-N
     RDKit          3D

 49 52  0  0  0  0  0  0  0  0999 V2000
  141.7084   71.0801  220.9333 H   0  0  0  0  0  0  0  0  0  0  0  0
  140.8510   71.5160  221.4670 C   0  0  0  0  0  0  0  0  0  0  0  0
  139.9290   70.6820  221.9720 C   0  0  0  0  0  0  0  0  0  0  0  0
  139.2076   70.2045  221.2926 H   0  0  0  0  0  0  0  0  0  0  0  0
  139.8590   70.3880  223.4270 C   0  0  0  0  0  0  0  0  0  0  0  0
  140.5360   71.2220  224.2620 N   0  0  0  0  0  0  0  0  0  0  0  0
  140.6000   71.0140  225.5950 C   0  0  0  0  0  0  0  0  0  0  0  0
  141.2980   71.9100  226.4120 C   0  0  0  0  0  0  0  0  0  0  0  0
  141.7746   72.7983  225.9719 H   0  0  0  0  0  0  0  0  0  0  0  0
  141.3900   71.6770  227.7870 C   0  0  0  0  0  0  0  0  0  0  0  0
  141.9350   72.3844  228.4293 H   0  0  0  0  0  0  0  0  0  0  0  0
  140.7900   70.5460  228.3460 C   0  0  0  0  0  0  0  0  0  0  0  0
  140.8656   70.3632  229.4281 H   0  0  0  0  0  0  0  0  0  0  0  0
  140.0930   69.6450  227.5330 C   0  0  0  0  0  0  0  0  0  0  0  0
  139.6237   68.7543  227.9763 H   0  0  0  0  0  0  0  0  0  0  0  0
  139.9920   69.8780  226.1470 C   0  0  0  0  0  0  0  0  0  0  0  0
  139.2970   69.0110  225.2870 C   0  0  0  0  0  0  0  0  0  0  0  0
  138.8060   67.9480  225.7600 O   0  0  0  0  0  0  0  0  0  0  0  0
  139.1680   69.3060  223.9450 N   0  0  0  0  0  0  0  0  0  0  0  0
  138.3080   68.4400  223.0930 C   0  0  0  0  0  0  0  0  0  0  0  0
  138.7437   68.4142  222.0833 H   0  0  0  0  0  0  0  0  0  0  0  0
  138.2821   67.4554  223.5827 H   0  0  0  0  0  0  0  0  0  0  0  0
  136.8240   68.9040  222.9680 C   0  0  0  0  0  0  0  0  0  0  0  0
  136.3205   67.9973  222.6014 H   0  0  0  0  0  0  0  0  0  0  0  0
  136.1370   69.2400  224.3250 C   0  0  0  0  0  0  0  0  0  0  0  0
  135.3047   68.5363  224.4733 H   0  0  0  0  0  0  0  0  0  0  0  0
  136.9125   69.1544  225.1004 H   0  0  0  0  0  0  0  0  0  0  0  0
  135.5810   70.6680  224.4150 C   0  0  0  0  0  0  0  0  0  0  0  0
  134.6291   70.7191  223.8662 H   0  0  0  0  0  0  0  0  0  0  0  0
  135.4274   70.9192  225.4749 H   0  0  0  0  0  0  0  0  0  0  0  0
  136.5590   71.6720  223.8130 C   0  0  0  0  0  0  0  0  0  0  0  0
  136.1637   72.6879  223.9604 H   0  0  0  0  0  0  0  0  0  0  0  0
  137.5295   71.5513  224.3165 H   0  0  0  0  0  0  0  0  0  0  0  0
  136.7640   71.4300  222.3100 C   0  0  0  0  0  0  0  0  0  0  0  0
  136.0522   72.0616  221.7583 H   0  0  0  0  0  0  0  0  0  0  0  0
  137.8126   71.6783  222.0891 H   0  0  0  0  0  0  0  0  0  0  0  0
  136.5520   69.9640  221.8720 C   0  0  0  0  0  0  0  0  0  0  0  0
  135.5079   69.8542  221.5436 H   0  0  0  0  0  0  0  0  0  0  0  0
  137.2850   69.7741  221.0741 H   0  0  0  0  0  0  0  0  0  0  0  0
  140.7790   72.9920  221.5880 C   0  0  0  0  0  0  0  0  0  0  0  0
  139.6690   73.5680  222.2260 C   0  0  0  0  0  0  0  0  0  0  0  0
  138.8789   72.9221  222.6365 H   0  0  0  0  0  0  0  0  0  0  0  0
  139.5640   74.9190  222.3400 N   0  0  0  0  0  0  0  0  0  0  0  0
  140.5120   75.7550  221.8410 C   0  0  0  0  0  0  0  0  0  0  0  0
  140.4013   76.8433  221.9565 H   0  0  0  0  0  0  0  0  0  0  0  0
  141.6260   75.2330  221.1820 C   0  0  0  0  0  0  0  0  0  0  0  0
  142.3926   75.9058  220.7701 H   0  0  0  0  0  0  0  0  0  0  0  0
  141.7590   73.8490  221.0500 C   0  0  0  0  0  0  0  0  0  0  0  0
  142.6295   73.4279  220.5256 H   0  0  0  0  0  0  0  0  0  0  0  0
  1  2  1  0
  2  3  2  0
  3  4  1  0
  3  5  1  0
  5  6  2  0
  6  7  1  0
  7  8  2  0
  8  9  1  0
  8 10  1  0
 10 11  1  0
 10 12  2  0
 12 13  1  0
 12 14  1  0
 14 15  1  0
 14 16  2  0
 16 17  1  0
 17 18  2  0
 17 19  1  0
 19 20  1  0
 20 21  1  0
 20 22  1  0
 20 23  1  0
 23 24  1  0
 23 25  1  0
 25 26  1  0
 25 27  1  0
 25 28  1  0
 28 29  1  0
 28 30  1  0
 28 31  1  0
 31 32  1  0
 31 33  1  0
 31 34  1  0
 34 35  1  0
 34 36  1  0
 34 37  1  0
 37 38  1  0
 37 39  1  0
  2 40  1  0
 40 41  2  0
 41 42  1  0
 41 43  1  0
 43 44  2  0
 44 45  1  0
 44 46  1  0
 46 47  1  0
 46 48  2  0
 48 49  1  0
 19  5  1  0
 37 23  1  0
 48 40  1  0
 16  7  1  0
M  END
>  <UniqueID>  (73) 
26

>  <SMILES>  (73) 
O=c1c2ccccc2nc(/C=C/c2cccnc2)n1CC1CCCCC1

>  <Energy>  (73) 
74.61964395363472

>  <Genealogy>  (73) 
O=c1c2ccccc2nc(/C=C/c2cccnc2)n1CC1CCCCC1 (cis-trans isomerization)
O=c1c2ccccc2nc(/C=C/c2cccnc2)n1CC1CCCCC1 (3D coordinates assigned)
O=c1c2ccccc2nc(/C=C/c2cccnc2)n1CC1CCCCC1 (nonaromatic ring conformer: 74.61964395363472 kcal/mol)

>  <smiles>  (73) 
O=c1c2ccccc2nc(/C=C/c2cccnc2)n1CC1CCCCC1

>  <score_type>  (73) 
oracle

>  <origin>  (73) 
autodockgpu

>  <m_score__min__energy>  (73) 
-7.3499999999999996

>  <m_primary>  (73) 
energy

>  <meeko>  (73) 
{"free_energy": -7.22, "intermolecular_energy": -8.72, "internal_energy": -1.92, "cluster_size": 19, "cluster_id": 1, "rank_in_cluster": 6}

>  <energy>  (73) 
-6.96

>  <cluster_rmsd>  (73) 
0.69

>  <rmsd>  (73) 
272.1

>  <cluster>  (73) 
1

$$$$
XUFANRSCLZKORJ-OUKQBFOZNA-N
     RDKit          3D

 49 52  0  0  0  0  0  0  0  0999 V2000
  141.2644   71.6339  221.0238 H   0  0  0  0  0  0  0  0  0  0  0  0
  140.3480   71.9060  221.5680 C   0  0  0  0  0  0  0  0  0  0  0  0
  139.5830   70.9170  222.0560 C   0  0  0  0  0  0  0  0  0  0  0  0
  138.9097   70.3745  221.3761 H   0  0  0  0  0  0  0  0  0  0  0  0
  139.6230   70.5370  223.4910 C   0  0  0  0  0  0  0  0  0  0  0  0
  140.3070   71.3600  224.3320 N   0  0  0  0  0  0  0  0  0  0  0  0
  140.4680   71.0790  225.6440 C   0  0  0  0  0  0  0  0  0  0  0  0
  141.1690   71.9660  226.4690 C   0  0  0  0  0  0  0  0  0  0  0  0
  141.5680   72.9038  226.0550 H   0  0  0  0  0  0  0  0  0  0  0  0
  141.3620   71.6600  227.8190 C   0  0  0  0  0  0  0  0  0  0  0  0
  141.9086   72.3595  228.4685 H   0  0  0  0  0  0  0  0  0  0  0  0
  140.8610   70.4660  228.3440 C   0  0  0  0  0  0  0  0  0  0  0  0
  141.0158   70.2261  229.4063 H   0  0  0  0  0  0  0  0  0  0  0  0
  140.1630   69.5750  227.5220 C   0  0  0  0  0  0  0  0  0  0  0  0
  139.7729   68.6343  227.9380 H   0  0  0  0  0  0  0  0  0  0  0  0
  139.9590   69.8810  226.1620 C   0  0  0  0  0  0  0  0  0  0  0  0
  139.2580   69.0260  225.2950 C   0  0  0  0  0  0  0  0  0  0  0  0
  138.8560   67.9110  225.7320 O   0  0  0  0  0  0  0  0  0  0  0  0
  139.0260   69.3890  223.9840 N   0  0  0  0  0  0  0  0  0  0  0  0
  138.1600   68.5260  223.1360 C   0  0  0  0  0  0  0  0  0  0  0  0
  138.5245   68.5903  222.1001 H   0  0  0  0  0  0  0  0  0  0  0  0
  138.2257   67.5136  223.5610 H   0  0  0  0  0  0  0  0  0  0  0  0
  136.6460   68.9020  223.1400 C   0  0  0  0  0  0  0  0  0  0  0  0
  136.1605   67.9486  222.8845 H   0  0  0  0  0  0  0  0  0  0  0  0
  136.0840   69.2920  224.5400 C   0  0  0  0  0  0  0  0  0  0  0  0
  135.3144   68.5574  224.8194 H   0  0  0  0  0  0  0  0  0  0  0  0
  136.9387   69.2991  225.2324 H   0  0  0  0  0  0  0  0  0  0  0  0
  135.4570   70.6920  224.6000 C   0  0  0  0  0  0  0  0  0  0  0  0
  134.4525   70.6561  224.1531 H   0  0  0  0  0  0  0  0  0  0  0  0
  135.3986   71.0058  225.6527 H   0  0  0  0  0  0  0  0  0  0  0  0
  136.3070   71.7030  223.8370 C   0  0  0  0  0  0  0  0  0  0  0  0
  135.8693   72.7043  223.9624 H   0  0  0  0  0  0  0  0  0  0  0  0
  137.3294   71.6679  224.2413 H   0  0  0  0  0  0  0  0  0  0  0  0
  136.3710   71.3710  222.3390 C   0  0  0  0  0  0  0  0  0  0  0  0
  135.5706   71.9262  221.8280 H   0  0  0  0  0  0  0  0  0  0  0  0
  137.3754   71.6577  221.9940 H   0  0  0  0  0  0  0  0  0  0  0  0
  136.2020   69.8700  222.0160 C   0  0  0  0  0  0  0  0  0  0  0  0
  135.1382   69.6842  221.8068 H   0  0  0  0  0  0  0  0  0  0  0  0
  136.8595   69.6654  221.1582 H   0  0  0  0  0  0  0  0  0  0  0  0
  140.0260   73.3450  221.7220 C   0  0  0  0  0  0  0  0  0  0  0  0
  141.0680   74.2840  221.6790 C   0  0  0  0  0  0  0  0  0  0  0  0
  142.1022   73.9448  221.5195 H   0  0  0  0  0  0  0  0  0  0  0  0
  140.8090   75.6100  221.8330 N   0  0  0  0  0  0  0  0  0  0  0  0
  139.5480   76.0730  222.0390 C   0  0  0  0  0  0  0  0  0  0  0  0
  139.3704   77.1527  222.1514 H   0  0  0  0  0  0  0  0  0  0  0  0
  138.4790   75.1800  222.1080 C   0  0  0  0  0  0  0  0  0  0  0  0
  137.4576   75.5494  222.2821 H   0  0  0  0  0  0  0  0  0  0  0  0
  138.7170   73.8120  221.9540 C   0  0  0  0  0  0  0  0  0  0  0  0
  137.8817   73.0988  222.0139 H   0  0  0  0  0  0  0  0  0  0  0  0
  1  2  1  0
  2  3  2  0
  3  4  1  0
  3  5  1  0
  5  6  2  0
  6  7  1  0
  7  8  2  0
  8  9  1  0
  8 10  1  0
 10 11  1  0
 10 12  2  0
 12 13  1  0
 12 14  1  0
 14 15  1  0
 14 16  2  0
 16 17  1  0
 17 18  2  0
 17 19  1  0
 19 20  1  0
 20 21  1  0
 20 22  1  0
 20 23  1  0
 23 24  1  0
 23 25  1  0
 25 26  1  0
 25 27  1  0
 25 28  1  0
 28 29  1  0
 28 30  1  0
 28 31  1  0
 31 32  1  0
 31 33  1  0
 31 34  1  0
 34 35  1  0
 34 36  1  0
 34 37  1  0
 37 38  1  0
 37 39  1  0
  2 40  1  0
 40 41  2  0
 41 42  1  0
 41 43  1  0
 43 44  2  0
 44 45  1  0
 44 46  1  0
 46 47  1  0
 46 48  2  0
 48 49  1  0
 19  5  1  0
 37 23  1  0
 48 40  1  0
 16  7  1  0
M  END
>  <UniqueID>  (74) 
26

>  <SMILES>  (74) 
O=c1c2ccccc2nc(/C=C/c2cccnc2)n1CC1CCCCC1

>  <Energy>  (74) 
74.61964395363472

>  <Genealogy>  (74) 
O=c1c2ccccc2nc(/C=C/c2cccnc2)n1CC1CCCCC1 (cis-trans isomerization)
O=c1c2ccccc2nc(/C=C/c2cccnc2)n1CC1CCCCC1 (3D coordinates assigned)
O=c1c2ccccc2nc(/C=C/c2cccnc2)n1CC1CCCCC1 (nonaromatic ring conformer: 74.61964395363472 kcal/mol)

>  <smiles>  (74) 
O=c1c2ccccc2nc(/C=C/c2cccnc2)n1CC1CCCCC1

>  <score_type>  (74) 
oracle

>  <origin>  (74) 
autodockgpu

>  <m_score__min__energy>  (74) 
-7.3499999999999996

>  <m_primary>  (74) 
energy

>  <meeko>  (74) 
{"free_energy": -6.96, "intermolecular_energy": -8.45, "internal_energy": -1.95, "cluster_size": 19, "cluster_id": 1, "rank_in_cluster": 13}

>  <energy>  (74) 
-6.95

>  <cluster_rmsd>  (74) 
0.97

>  <rmsd>  (74) 
272.02

>  <cluster>  (74) 
1

$$$$
XUFANRSCLZKORJ-OUKQBFOZNA-N
     RDKit          3D

 49 52  0  0  0  0  0  0  0  0999 V2000
  141.6424   70.9546  220.7621 H   0  0  0  0  0  0  0  0  0  0  0  0
  140.8210   71.3720  221.3630 C   0  0  0  0  0  0  0  0  0  0  0  0
  139.9280   70.5220  221.8940 C   0  0  0  0  0  0  0  0  0  0  0  0
  139.2469   69.9735  221.2267 H   0  0  0  0  0  0  0  0  0  0  0  0
  139.8370   70.3040  223.3600 C   0  0  0  0  0  0  0  0  0  0  0  0
  140.5470   71.1460  224.1580 N   0  0  0  0  0  0  0  0  0  0  0  0
  140.5940   71.0000  225.5010 C   0  0  0  0  0  0  0  0  0  0  0  0
  141.3300   71.9020  226.2780 C   0  0  0  0  0  0  0  0  0  0  0  0
  141.8511   72.7434  225.7980 H   0  0  0  0  0  0  0  0  0  0  0  0
  141.4030   71.7340  227.6630 C   0  0  0  0  0  0  0  0  0  0  0  0
  141.9770   72.4464  228.2737 H   0  0  0  0  0  0  0  0  0  0  0  0
  140.7470   70.6610  228.2730 C   0  0  0  0  0  0  0  0  0  0  0  0
  140.8080   70.5287  229.3633 H   0  0  0  0  0  0  0  0  0  0  0  0
  140.0130   69.7550  227.5000 C   0  0  0  0  0  0  0  0  0  0  0  0
  139.5000   68.9104  227.9831 H   0  0  0  0  0  0  0  0  0  0  0  0
  139.9300   69.9230  226.1030 C   0  0  0  0  0  0  0  0  0  0  0  0
  139.2000   69.0490  225.2810 C   0  0  0  0  0  0  0  0  0  0  0  0
  138.6560   68.0350  225.8020 O   0  0  0  0  0  0  0  0  0  0  0  0
  139.0920   69.2820  223.9250 N   0  0  0  0  0  0  0  0  0  0  0  0
  138.1960   68.4180  223.1110 C   0  0  0  0  0  0  0  0  0  0  0  0
  138.6182   68.3483  222.0976 H   0  0  0  0  0  0  0  0  0  0  0  0
  138.1465   67.4507  223.6324 H   0  0  0  0  0  0  0  0  0  0  0  0
  136.7250   68.9210  222.9880 C   0  0  0  0  0  0  0  0  0  0  0  0
  136.1976   68.0312  222.6137 H   0  0  0  0  0  0  0  0  0  0  0  0
  136.0460   69.2640  224.3470 C   0  0  0  0  0  0  0  0  0  0  0  0
  135.1953   68.5813  224.4891 H   0  0  0  0  0  0  0  0  0  0  0  0
  136.8182   69.1517  225.1223 H   0  0  0  0  0  0  0  0  0  0  0  0
  135.5280   70.7050  224.4480 C   0  0  0  0  0  0  0  0  0  0  0  0
  134.5785   70.7854  223.8984 H   0  0  0  0  0  0  0  0  0  0  0  0
  135.3803   70.9509  225.5099 H   0  0  0  0  0  0  0  0  0  0  0  0
  136.5320   71.6890  223.8560 C   0  0  0  0  0  0  0  0  0  0  0  0
  136.1621   72.7133  224.0107 H   0  0  0  0  0  0  0  0  0  0  0  0
  137.4983   71.5407  224.3602 H   0  0  0  0  0  0  0  0  0  0  0  0
  136.7330   71.4530  222.3510 C   0  0  0  0  0  0  0  0  0  0  0  0
  136.0392   72.1078  221.8034 H   0  0  0  0  0  0  0  0  0  0  0  0
  137.7885   71.6745  222.1343 H   0  0  0  0  0  0  0  0  0  0  0  0
  136.4830   69.9970  221.9000 C   0  0  0  0  0  0  0  0  0  0  0  0
  135.4370   69.9177  221.5690 H   0  0  0  0  0  0  0  0  0  0  0  0
  137.2119   69.7944  221.1014 H   0  0  0  0  0  0  0  0  0  0  0  0
  140.7610   72.8430  221.5420 C   0  0  0  0  0  0  0  0  0  0  0  0
  139.6470   73.4050  222.1850 C   0  0  0  0  0  0  0  0  0  0  0  0
  138.8441   72.7520  222.5578 H   0  0  0  0  0  0  0  0  0  0  0  0
  139.5540   74.7520  222.3500 N   0  0  0  0  0  0  0  0  0  0  0  0
  140.5180   75.5960  221.9010 C   0  0  0  0  0  0  0  0  0  0  0  0
  140.4164   76.6800  222.0582 H   0  0  0  0  0  0  0  0  0  0  0  0
  141.6380   75.0890  221.2400 C   0  0  0  0  0  0  0  0  0  0  0  0
  142.4182   75.7694  220.8682 H   0  0  0  0  0  0  0  0  0  0  0  0
  141.7590   73.7100  221.0550 C   0  0  0  0  0  0  0  0  0  0  0  0
  142.6339   73.3006  220.5288 H   0  0  0  0  0  0  0  0  0  0  0  0
  1  2  1  0
  2  3  2  0
  3  4  1  0
  3  5  1  0
  5  6  2  0
  6  7  1  0
  7  8  2  0
  8  9  1  0
  8 10  1  0
 10 11  1  0
 10 12  2  0
 12 13  1  0
 12 14  1  0
 14 15  1  0
 14 16  2  0
 16 17  1  0
 17 18  2  0
 17 19  1  0
 19 20  1  0
 20 21  1  0
 20 22  1  0
 20 23  1  0
 23 24  1  0
 23 25  1  0
 25 26  1  0
 25 27  1  0
 25 28  1  0
 28 29  1  0
 28 30  1  0
 28 31  1  0
 31 32  1  0
 31 33  1  0
 31 34  1  0
 34 35  1  0
 34 36  1  0
 34 37  1  0
 37 38  1  0
 37 39  1  0
  2 40  1  0
 40 41  2  0
 41 42  1  0
 41 43  1  0
 43 44  2  0
 44 45  1  0
 44 46  1  0
 46 47  1  0
 46 48  2  0
 48 49  1  0
 19  5  1  0
 37 23  1  0
 48 40  1  0
 16  7  1  0
M  END
>  <UniqueID>  (75) 
26

>  <SMILES>  (75) 
O=c1c2ccccc2nc(/C=C/c2cccnc2)n1CC1CCCCC1

>  <Energy>  (75) 
74.61964395363472

>  <Genealogy>  (75) 
O=c1c2ccccc2nc(/C=C/c2cccnc2)n1CC1CCCCC1 (cis-trans isomerization)
O=c1c2ccccc2nc(/C=C/c2cccnc2)n1CC1CCCCC1 (3D coordinates assigned)
O=c1c2ccccc2nc(/C=C/c2cccnc2)n1CC1CCCCC1 (nonaromatic ring conformer: 74.61964395363472 kcal/mol)

>  <smiles>  (75) 
O=c1c2ccccc2nc(/C=C/c2cccnc2)n1CC1CCCCC1

>  <score_type>  (75) 
oracle

>  <origin>  (75) 
autodockgpu

>  <m_score__min__energy>  (75) 
-7.3499999999999996

>  <m_primary>  (75) 
energy

>  <meeko>  (75) 
{"free_energy": -7.06, "intermolecular_energy": -8.55, "internal_energy": -1.96, "cluster_size": 19, "cluster_id": 1, "rank_in_cluster": 10}

>  <energy>  (75) 
-6.94

>  <cluster_rmsd>  (75) 
0.68

>  <rmsd>  (75) 
272.07

>  <cluster>  (75) 
1

$$$$
XUFANRSCLZKORJ-OUKQBFOZNA-N
     RDKit          3D

 49 52  0  0  0  0  0  0  0  0999 V2000
  142.8735   80.5660  219.1415 H   0  0  0  0  0  0  0  0  0  0  0  0
  142.1980   79.7250  218.9260 C   0  0  0  0  0  0  0  0  0  0  0  0
  141.4520   79.2390  219.9290 C   0  0  0  0  0  0  0  0  0  0  0  0
  140.7350   79.9022  220.4350 H   0  0  0  0  0  0  0  0  0  0  0  0
  141.5710   77.8260  220.3730 C   0  0  0  0  0  0  0  0  0  0  0  0
  142.5490   77.0750  219.7990 N   0  0  0  0  0  0  0  0  0  0  0  0
  142.7060   75.7620  220.0740 C   0  0  0  0  0  0  0  0  0  0  0  0
  143.7370   75.0370  219.4650 C   0  0  0  0  0  0  0  0  0  0  0  0
  144.4340   75.5419  218.7800 H   0  0  0  0  0  0  0  0  0  0  0  0
  143.8810   73.6720  219.7270 C   0  0  0  0  0  0  0  0  0  0  0  0
  144.6946   73.1040  219.2522 H   0  0  0  0  0  0  0  0  0  0  0  0
  142.9920   73.0280  220.5920 C   0  0  0  0  0  0  0  0  0  0  0  0
  143.1055   71.9529  220.7952 H   0  0  0  0  0  0  0  0  0  0  0  0
  141.9580   73.7480  221.2000 C   0  0  0  0  0  0  0  0  0  0  0  0
  141.2581   73.2377  221.8780 H   0  0  0  0  0  0  0  0  0  0  0  0
  141.8120   75.1260  220.9450 C   0  0  0  0  0  0  0  0  0  0  0  0
  140.7970   75.8970  221.5360 C   0  0  0  0  0  0  0  0  0  0  0  0
  139.9420   75.3230  222.2670 O   0  0  0  0  0  0  0  0  0  0  0  0
  140.7240   77.2570  221.3100 N   0  0  0  0  0  0  0  0  0  0  0  0
  139.7260   78.0630  222.0620 C   0  0  0  0  0  0  0  0  0  0  0  0
  139.3094   78.8158  221.3766 H   0  0  0  0  0  0  0  0  0  0  0  0
  138.9763   77.3510  222.4373 H   0  0  0  0  0  0  0  0  0  0  0  0
  140.2860   78.8060  223.3140 C   0  0  0  0  0  0  0  0  0  0  0  0
  139.8025   78.2729  224.1459 H   0  0  0  0  0  0  0  0  0  0  0  0
  141.8160   78.6240  223.5400 C   0  0  0  0  0  0  0  0  0  0  0  0
  141.9633   78.1000  224.4959 H   0  0  0  0  0  0  0  0  0  0  0  0
  142.1967   78.0558  222.6785 H   0  0  0  0  0  0  0  0  0  0  0  0
  142.6080   79.9390  223.5850 C   0  0  0  0  0  0  0  0  0  0  0  0
  142.4701   80.4087  224.5701 H   0  0  0  0  0  0  0  0  0  0  0  0
  143.6708   79.7147  223.4111 H   0  0  0  0  0  0  0  0  0  0  0  0
  142.1300   80.9010  222.5020 C   0  0  0  0  0  0  0  0  0  0  0  0
  142.7652   81.7990  222.5162 H   0  0  0  0  0  0  0  0  0  0  0  0
  142.1975   80.3880  221.5313 H   0  0  0  0  0  0  0  0  0  0  0  0
  140.6690   81.3200  222.7240 C   0  0  0  0  0  0  0  0  0  0  0  0
  140.6624   82.2532  223.3063 H   0  0  0  0  0  0  0  0  0  0  0  0
  140.2186   81.4365  221.7272 H   0  0  0  0  0  0  0  0  0  0  0  0
  139.8180   80.2740  223.4760 C   0  0  0  0  0  0  0  0  0  0  0  0
  139.8410   80.5226  224.5473 H   0  0  0  0  0  0  0  0  0  0  0  0
  138.8112   80.3247  223.0357 H   0  0  0  0  0  0  0  0  0  0  0  0
  142.1630   79.1920  217.5430 C   0  0  0  0  0  0  0  0  0  0  0  0
  141.2860   79.7710  216.6120 C   0  0  0  0  0  0  0  0  0  0  0  0
  140.6497   80.6163  216.9131 H   0  0  0  0  0  0  0  0  0  0  0  0
  141.2180   79.2940  215.3410 N   0  0  0  0  0  0  0  0  0  0  0  0
  141.9790   78.2480  214.9260 C   0  0  0  0  0  0  0  0  0  0  0  0
  141.9057   77.8916  213.8879 H   0  0  0  0  0  0  0  0  0  0  0  0
  142.8540   77.6260  215.8180 C   0  0  0  0  0  0  0  0  0  0  0  0
  143.4676   76.7741  215.4898 H   0  0  0  0  0  0  0  0  0  0  0  0
  142.9440   78.0940  217.1300 C   0  0  0  0  0  0  0  0  0  0  0  0
  143.6251   77.6053  217.8422 H   0  0  0  0  0  0  0  0  0  0  0  0
  1  2  1  0
  2  3  2  0
  3  4  1  0
  3  5  1  0
  5  6  2  0
  6  7  1  0
  7  8  2  0
  8  9  1  0
  8 10  1  0
 10 11  1  0
 10 12  2  0
 12 13  1  0
 12 14  1  0
 14 15  1  0
 14 16  2  0
 16 17  1  0
 17 18  2  0
 17 19  1  0
 19 20  1  0
 20 21  1  0
 20 22  1  0
 20 23  1  0
 23 24  1  0
 23 25  1  0
 25 26  1  0
 25 27  1  0
 25 28  1  0
 28 29  1  0
 28 30  1  0
 28 31  1  0
 31 32  1  0
 31 33  1  0
 31 34  1  0
 34 35  1  0
 34 36  1  0
 34 37  1  0
 37 38  1  0
 37 39  1  0
  2 40  1  0
 40 41  2  0
 41 42  1  0
 41 43  1  0
 43 44  2  0
 44 45  1  0
 44 46  1  0
 46 47  1  0
 46 48  2  0
 48 49  1  0
 19  5  1  0
 37 23  1  0
 48 40  1  0
 16  7  1  0
M  END
>  <UniqueID>  (76) 
26

>  <SMILES>  (76) 
O=c1c2ccccc2nc(/C=C/c2cccnc2)n1CC1CCCCC1

>  <Energy>  (76) 
74.61964395363472

>  <Genealogy>  (76) 
O=c1c2ccccc2nc(/C=C/c2cccnc2)n1CC1CCCCC1 (cis-trans isomerization)
O=c1c2ccccc2nc(/C=C/c2cccnc2)n1CC1CCCCC1 (3D coordinates assigned)
O=c1c2ccccc2nc(/C=C/c2cccnc2)n1CC1CCCCC1 (nonaromatic ring conformer: 74.61964395363472 kcal/mol)

>  <smiles>  (76) 
O=c1c2ccccc2nc(/C=C/c2cccnc2)n1CC1CCCCC1

>  <score_type>  (76) 
oracle

>  <origin>  (76) 
autodockgpu

>  <m_score__min__energy>  (76) 
-7.3499999999999996

>  <m_primary>  (76) 
energy

>  <meeko>  (76) 
{"free_energy": -6.5, "intermolecular_energy": -7.99, "internal_energy": -1.56, "cluster_size": 1, "cluster_id": 2, "rank_in_cluster": 1}

>  <energy>  (76) 
-6.94

>  <cluster_rmsd>  (76) 
0.81

>  <rmsd>  (76) 
272.09

>  <cluster>  (76) 
1

$$$$
XUFANRSCLZKORJ-OUKQBFOZNA-N
     RDKit          3D

 49 52  0  0  0  0  0  0  0  0999 V2000
  141.2213   71.5882  221.0436 H   0  0  0  0  0  0  0  0  0  0  0  0
  140.3040   71.8820  221.5750 C   0  0  0  0  0  0  0  0  0  0  0  0
  139.5150   70.9120  222.0600 C   0  0  0  0  0  0  0  0  0  0  0  0
  138.8113   70.4046  221.3838 H   0  0  0  0  0  0  0  0  0  0  0  0
  139.5680   70.5060  223.4880 C   0  0  0  0  0  0  0  0  0  0  0  0
  140.2530   71.3160  224.3380 N   0  0  0  0  0  0  0  0  0  0  0  0
  140.4260   71.0130  225.6430 C   0  0  0  0  0  0  0  0  0  0  0  0
  141.1280   71.8880  226.4790 C   0  0  0  0  0  0  0  0  0  0  0  0
  141.5197   72.8348  226.0789 H   0  0  0  0  0  0  0  0  0  0  0  0
  141.3320   71.5600  227.8220 C   0  0  0  0  0  0  0  0  0  0  0  0
  141.8791   72.2512  228.4800 H   0  0  0  0  0  0  0  0  0  0  0  0
  140.8410   70.3540  228.3290 C   0  0  0  0  0  0  0  0  0  0  0  0
  141.0055   70.0959  229.3856 H   0  0  0  0  0  0  0  0  0  0  0  0
  140.1410   69.4740  227.4970 C   0  0  0  0  0  0  0  0  0  0  0  0
  139.7580   68.5246  227.8994 H   0  0  0  0  0  0  0  0  0  0  0  0
  139.9260   69.8030  226.1430 C   0  0  0  0  0  0  0  0  0  0  0  0
  139.2230   68.9600  225.2670 C   0  0  0  0  0  0  0  0  0  0  0  0
  138.8300   67.8360  225.6860 O   0  0  0  0  0  0  0  0  0  0  0  0
  138.9800   69.3460  223.9640 N   0  0  0  0  0  0  0  0  0  0  0  0
  138.1120   68.4940  223.1070 C   0  0  0  0  0  0  0  0  0  0  0  0
  138.4707   68.5759  222.0704 H   0  0  0  0  0  0  0  0  0  0  0  0
  138.1831   67.4752  223.5155 H   0  0  0  0  0  0  0  0  0  0  0  0
  136.5970   68.8650  223.1250 C   0  0  0  0  0  0  0  0  0  0  0  0
  136.1120   67.9100  222.8744 H   0  0  0  0  0  0  0  0  0  0  0  0
  136.0470   69.2540  224.5300 C   0  0  0  0  0  0  0  0  0  0  0  0
  135.2823   68.5172  224.8170 H   0  0  0  0  0  0  0  0  0  0  0  0
  136.9081   69.2640  225.2144 H   0  0  0  0  0  0  0  0  0  0  0  0
  135.4160   70.6530  224.5950 C   0  0  0  0  0  0  0  0  0  0  0  0
  134.4077   70.6138  224.1572 H   0  0  0  0  0  0  0  0  0  0  0  0
  135.3661   70.9671  225.6480 H   0  0  0  0  0  0  0  0  0  0  0  0
  136.2560   71.6660  223.8240 C   0  0  0  0  0  0  0  0  0  0  0  0
  135.8167   72.6662  223.9530 H   0  0  0  0  0  0  0  0  0  0  0  0
  137.2822   71.6341  224.2189 H   0  0  0  0  0  0  0  0  0  0  0  0
  136.3070   71.3330  222.3240 C   0  0  0  0  0  0  0  0  0  0  0  0
  135.5000   71.8850  221.8201 H   0  0  0  0  0  0  0  0  0  0  0  0
  137.3068   71.6232  221.9688 H   0  0  0  0  0  0  0  0  0  0  0  0
  136.1400   69.8320  222.0050 C   0  0  0  0  0  0  0  0  0  0  0  0
  135.0748   69.6429  221.8058 H   0  0  0  0  0  0  0  0  0  0  0  0
  136.7912   69.6291  221.1420 H   0  0  0  0  0  0  0  0  0  0  0  0
  140.0090   73.3280  221.7150 C   0  0  0  0  0  0  0  0  0  0  0  0
  141.0670   74.2480  221.6550 C   0  0  0  0  0  0  0  0  0  0  0  0
  142.0940   73.8890  221.4927 H   0  0  0  0  0  0  0  0  0  0  0  0
  140.8320   75.5800  221.7960 N   0  0  0  0  0  0  0  0  0  0  0  0
  139.5810   76.0670  222.0060 C   0  0  0  0  0  0  0  0  0  0  0  0
  139.4232   77.1507  222.1090 H   0  0  0  0  0  0  0  0  0  0  0  0
  138.4970   75.1940  222.0910 C   0  0  0  0  0  0  0  0  0  0  0  0
  137.4833   75.5833  222.2667 H   0  0  0  0  0  0  0  0  0  0  0  0
  138.7100   73.8210  221.9510 C   0  0  0  0  0  0  0  0  0  0  0  0
  137.8628   73.1234  222.0250 H   0  0  0  0  0  0  0  0  0  0  0  0
  1  2  1  0
  2  3  2  0
  3  4  1  0
  3  5  1  0
  5  6  2  0
  6  7  1  0
  7  8  2  0
  8  9  1  0
  8 10  1  0
 10 11  1  0
 10 12  2  0
 12 13  1  0
 12 14  1  0
 14 15  1  0
 14 16  2  0
 16 17  1  0
 17 18  2  0
 17 19  1  0
 19 20  1  0
 20 21  1  0
 20 22  1  0
 20 23  1  0
 23 24  1  0
 23 25  1  0
 25 26  1  0
 25 27  1  0
 25 28  1  0
 28 29  1  0
 28 30  1  0
 28 31  1  0
 31 32  1  0
 31 33  1  0
 31 34  1  0
 34 35  1  0
 34 36  1  0
 34 37  1  0
 37 38  1  0
 37 39  1  0
  2 40  1  0
 40 41  2  0
 41 42  1  0
 41 43  1  0
 43 44  2  0
 44 45  1  0
 44 46  1  0
 46 47  1  0
 46 48  2  0
 48 49  1  0
 19  5  1  0
 37 23  1  0
 48 40  1  0
 16  7  1  0
M  END
>  <UniqueID>  (77) 
26

>  <SMILES>  (77) 
O=c1c2ccccc2nc(/C=C/c2cccnc2)n1CC1CCCCC1

>  <Energy>  (77) 
74.61964395363472

>  <Genealogy>  (77) 
O=c1c2ccccc2nc(/C=C/c2cccnc2)n1CC1CCCCC1 (cis-trans isomerization)
O=c1c2ccccc2nc(/C=C/c2cccnc2)n1CC1CCCCC1 (3D coordinates assigned)
O=c1c2ccccc2nc(/C=C/c2cccnc2)n1CC1CCCCC1 (nonaromatic ring conformer: 74.61964395363472 kcal/mol)

>  <smiles>  (77) 
O=c1c2ccccc2nc(/C=C/c2cccnc2)n1CC1CCCCC1

>  <score_type>  (77) 
oracle

>  <origin>  (77) 
autodockgpu

>  <m_score__min__energy>  (77) 
-7.3499999999999996

>  <m_primary>  (77) 
energy

>  <meeko>  (77) 
{"free_energy": -6.99, "intermolecular_energy": -8.48, "internal_energy": -1.93, "cluster_size": 19, "cluster_id": 1, "rank_in_cluster": 11}

>  <energy>  (77) 
-6.94

>  <cluster_rmsd>  (77) 
0.94

>  <rmsd>  (77) 
272.1

>  <cluster>  (77) 
1

$$$$
XUFANRSCLZKORJ-OUKQBFOZNA-N
     RDKit          3D

 49 52  0  0  0  0  0  0  0  0999 V2000
  141.3686   70.7095  220.9189 H   0  0  0  0  0  0  0  0  0  0  0  0
  140.6350   71.3430  221.4390 C   0  0  0  0  0  0  0  0  0  0  0  0
  139.5950   70.7450  222.0410 C   0  0  0  0  0  0  0  0  0  0  0  0
  138.6974   70.5076  221.4512 H   0  0  0  0  0  0  0  0  0  0  0  0
  139.6270   70.3960  223.4850 C   0  0  0  0  0  0  0  0  0  0  0  0
  140.3140   71.2320  224.3100 N   0  0  0  0  0  0  0  0  0  0  0  0
  140.4680   70.9790  225.6290 C   0  0  0  0  0  0  0  0  0  0  0  0
  141.1740   71.8770  226.4370 C   0  0  0  0  0  0  0  0  0  0  0  0
  141.5844   72.8009  226.0034 H   0  0  0  0  0  0  0  0  0  0  0  0
  141.3580   71.6010  227.7940 C   0  0  0  0  0  0  0  0  0  0  0  0
  141.9075   72.3107  228.4299 H   0  0  0  0  0  0  0  0  0  0  0  0
  140.8440   70.4230  228.3440 C   0  0  0  0  0  0  0  0  0  0  0  0
  140.9928   70.2052  229.4119 H   0  0  0  0  0  0  0  0  0  0  0  0
  140.1410   69.5210  227.5390 C   0  0  0  0  0  0  0  0  0  0  0  0
  139.7395   68.5942  227.9746 H   0  0  0  0  0  0  0  0  0  0  0  0
  139.9460   69.7970  226.1710 C   0  0  0  0  0  0  0  0  0  0  0  0
  139.2400   68.9300  225.3210 C   0  0  0  0  0  0  0  0  0  0  0  0
  138.8270   67.8290  225.7810 O   0  0  0  0  0  0  0  0  0  0  0  0
  139.0170   69.2650  224.0010 N   0  0  0  0  0  0  0  0  0  0  0  0
  138.1470   68.3910  223.1690 C   0  0  0  0  0  0  0  0  0  0  0  0
  138.5326   68.4071  222.1389 H   0  0  0  0  0  0  0  0  0  0  0  0
  138.1801   67.3940  223.6326 H   0  0  0  0  0  0  0  0  0  0  0  0
  136.6430   68.8030  223.1290 C   0  0  0  0  0  0  0  0  0  0  0  0
  136.1419   67.8574  222.8746 H   0  0  0  0  0  0  0  0  0  0  0  0
  136.0550   69.2270  224.5080 C   0  0  0  0  0  0  0  0  0  0  0  0
  135.2614   68.5148  224.7780 H   0  0  0  0  0  0  0  0  0  0  0  0
  136.8919   69.2246  225.2219 H   0  0  0  0  0  0  0  0  0  0  0  0
  135.4600   70.6420  224.5320 C   0  0  0  0  0  0  0  0  0  0  0  0
  134.4670   70.6230  224.0593 H   0  0  0  0  0  0  0  0  0  0  0  0
  135.3818   70.9721  225.5784 H   0  0  0  0  0  0  0  0  0  0  0  0
  136.3530   71.6220  223.7780 C   0  0  0  0  0  0  0  0  0  0  0  0
  135.9361   72.6350  223.8781 H   0  0  0  0  0  0  0  0  0  0  0  0
  137.3636   71.5697  224.2093 H   0  0  0  0  0  0  0  0  0  0  0  0
  136.4470   71.2660  222.2860 C   0  0  0  0  0  0  0  0  0  0  0  0
  135.6730   71.8318  221.7467 H   0  0  0  0  0  0  0  0  0  0  0  0
  137.4661   71.5244  221.9625 H   0  0  0  0  0  0  0  0  0  0  0  0
  136.2510   69.7650  221.9810 C   0  0  0  0  0  0  0  0  0  0  0  0
  135.1887   69.6010  221.7472 H   0  0  0  0  0  0  0  0  0  0  0  0
  136.9258   69.5327  221.1439 H   0  0  0  0  0  0  0  0  0  0  0  0
  140.8500   72.8100  221.4360 C   0  0  0  0  0  0  0  0  0  0  0  0
  139.8640   73.6430  221.9880 C   0  0  0  0  0  0  0  0  0  0  0  0
  138.9568   73.2003  222.4250 H   0  0  0  0  0  0  0  0  0  0  0  0
  140.0230   74.9930  221.9860 N   0  0  0  0  0  0  0  0  0  0  0  0
  141.1230   75.5840  221.4490 C   0  0  0  0  0  0  0  0  0  0  0  0
  141.2246   76.6791  221.4694 H   0  0  0  0  0  0  0  0  0  0  0  0
  142.1230   74.8010  220.8720 C   0  0  0  0  0  0  0  0  0  0  0  0
  143.0125   75.2745  220.4307 H   0  0  0  0  0  0  0  0  0  0  0  0
  141.9860   73.4120  220.8590 C   0  0  0  0  0  0  0  0  0  0  0  0
  142.7651   72.7870  220.3981 H   0  0  0  0  0  0  0  0  0  0  0  0
  1  2  1  0
  2  3  2  0
  3  4  1  0
  3  5  1  0
  5  6  2  0
  6  7  1  0
  7  8  2  0
  8  9  1  0
  8 10  1  0
 10 11  1  0
 10 12  2  0
 12 13  1  0
 12 14  1  0
 14 15  1  0
 14 16  2  0
 16 17  1  0
 17 18  2  0
 17 19  1  0
 19 20  1  0
 20 21  1  0
 20 22  1  0
 20 23  1  0
 23 24  1  0
 23 25  1  0
 25 26  1  0
 25 27  1  0
 25 28  1  0
 28 29  1  0
 28 30  1  0
 28 31  1  0
 31 32  1  0
 31 33  1  0
 31 34  1  0
 34 35  1  0
 34 36  1  0
 34 37  1  0
 37 38  1  0
 37 39  1  0
  2 40  1  0
 40 41  2  0
 41 42  1  0
 41 43  1  0
 43 44  2  0
 44 45  1  0
 44 46  1  0
 46 47  1  0
 46 48  2  0
 48 49  1  0
 19  5  1  0
 37 23  1  0
 48 40  1  0
 16  7  1  0
M  END
>  <UniqueID>  (78) 
26

>  <SMILES>  (78) 
O=c1c2ccccc2nc(/C=C/c2cccnc2)n1CC1CCCCC1

>  <Energy>  (78) 
74.61964395363472

>  <Genealogy>  (78) 
O=c1c2ccccc2nc(/C=C/c2cccnc2)n1CC1CCCCC1 (cis-trans isomerization)
O=c1c2ccccc2nc(/C=C/c2cccnc2)n1CC1CCCCC1 (3D coordinates assigned)
O=c1c2ccccc2nc(/C=C/c2cccnc2)n1CC1CCCCC1 (nonaromatic ring conformer: 74.61964395363472 kcal/mol)

>  <smiles>  (78) 
O=c1c2ccccc2nc(/C=C/c2cccnc2)n1CC1CCCCC1

>  <score_type>  (78) 
oracle

>  <origin>  (78) 
autodockgpu

>  <m_score__min__energy>  (78) 
-7.3499999999999996

>  <m_primary>  (78) 
energy

>  <meeko>  (78) 
{"free_energy": -7.35, "intermolecular_energy": -8.84, "internal_energy": -1.78, "cluster_size": 19, "cluster_id": 1, "rank_in_cluster": 1}

>  <energy>  (78) 
-6.93

>  <cluster_rmsd>  (78) 
0.94

>  <rmsd>  (78) 
272.1

>  <cluster>  (78) 
1

$$$$
XUFANRSCLZKORJ-OUKQBFOZNA-N
     RDKit          3D

 49 52  0  0  0  0  0  0  0  0999 V2000
  138.8095   71.7004  220.5665 H   0  0  0  0  0  0  0  0  0  0  0  0
  139.5060   72.0730  221.3320 C   0  0  0  0  0  0  0  0  0  0  0  0
  140.3180   71.1900  221.9330 C   0  0  0  0  0  0  0  0  0  0  0  0
  141.1792   70.7893  221.3781 H   0  0  0  0  0  0  0  0  0  0  0  0
  140.0830   70.7400  223.3290 C   0  0  0  0  0  0  0  0  0  0  0  0
  140.6370   71.4860  224.3230 N   0  0  0  0  0  0  0  0  0  0  0  0
  140.5460   71.1360  225.6240 C   0  0  0  0  0  0  0  0  0  0  0  0
  141.1230   71.9450  226.6100 C   0  0  0  0  0  0  0  0  0  0  0  0
  141.6303   72.8791  226.3270 H   0  0  0  0  0  0  0  0  0  0  0  0
  141.0550   71.5670  227.9530 C   0  0  0  0  0  0  0  0  0  0  0  0
  141.5035   72.2065  228.7276 H   0  0  0  0  0  0  0  0  0  0  0  0
  140.4170   70.3760  228.3130 C   0  0  0  0  0  0  0  0  0  0  0  0
  140.3664   70.0785  229.3708 H   0  0  0  0  0  0  0  0  0  0  0  0
  139.8430   69.5620  227.3310 C   0  0  0  0  0  0  0  0  0  0  0  0
  139.3449   68.6240  227.6174 H   0  0  0  0  0  0  0  0  0  0  0  0
  139.9020   69.9420  225.9750 C   0  0  0  0  0  0  0  0  0  0  0  0
  139.3340   69.1660  224.9510 C   0  0  0  0  0  0  0  0  0  0  0  0
  138.8140   68.0540  225.2460 O   0  0  0  0  0  0  0  0  0  0  0  0
  139.3580   69.6020  223.6420 N   0  0  0  0  0  0  0  0  0  0  0  0
  138.6250   68.8260  222.6060 C   0  0  0  0  0  0  0  0  0  0  0  0
  139.1959   68.8858  221.6676 H   0  0  0  0  0  0  0  0  0  0  0  0
  138.5329   67.8021  222.9973 H   0  0  0  0  0  0  0  0  0  0  0  0
  137.1720   69.3150  222.3200 C   0  0  0  0  0  0  0  0  0  0  0  0
  137.1365   69.3334  221.2207 H   0  0  0  0  0  0  0  0  0  0  0  0
  136.0590   68.3150  222.7540 C   0  0  0  0  0  0  0  0  0  0  0  0
  135.5152   67.9926  221.8538 H   0  0  0  0  0  0  0  0  0  0  0  0
  136.5643   67.4840  223.2680 H   0  0  0  0  0  0  0  0  0  0  0  0
  135.0430   68.8950  223.7480 C   0  0  0  0  0  0  0  0  0  0  0  0
  134.3283   69.5294  223.2033 H   0  0  0  0  0  0  0  0  0  0  0  0
  134.5200   68.0625  224.2414 H   0  0  0  0  0  0  0  0  0  0  0  0
  135.7410   69.7320  224.8150 C   0  0  0  0  0  0  0  0  0  0  0  0
  134.9946   70.0689  225.5494 H   0  0  0  0  0  0  0  0  0  0  0  0
  136.5093   69.1076  225.2943 H   0  0  0  0  0  0  0  0  0  0  0  0
  136.4320   70.9620  224.2060 C   0  0  0  0  0  0  0  0  0  0  0  0
  135.7322   71.8094  224.2520 H   0  0  0  0  0  0  0  0  0  0  0  0
  137.3470   71.1340  224.7918 H   0  0  0  0  0  0  0  0  0  0  0  0
  136.8720   70.7760  222.7380 C   0  0  0  0  0  0  0  0  0  0  0  0
  136.0682   71.1570  222.0909 H   0  0  0  0  0  0  0  0  0  0  0  0
  137.8192   71.3249  222.6311 H   0  0  0  0  0  0  0  0  0  0  0  0
  139.4950   73.5230  221.6420 C   0  0  0  0  0  0  0  0  0  0  0  0
  140.7120   74.2220  221.6650 C   0  0  0  0  0  0  0  0  0  0  0  0
  141.6502   73.6928  221.4421 H   0  0  0  0  0  0  0  0  0  0  0  0
  140.7390   75.5490  221.9610 N   0  0  0  0  0  0  0  0  0  0  0  0
  139.6050   76.2400  222.2510 C   0  0  0  0  0  0  0  0  0  0  0  0
  139.6597   77.3146  222.4796 H   0  0  0  0  0  0  0  0  0  0  0  0
  138.3720   75.5880  222.2590 C   0  0  0  0  0  0  0  0  0  0  0  0
  137.4525   76.1419  222.4993 H   0  0  0  0  0  0  0  0  0  0  0  0
  138.3160   74.2250  221.9590 C   0  0  0  0  0  0  0  0  0  0  0  0
  137.3498   73.6993  221.9704 H   0  0  0  0  0  0  0  0  0  0  0  0
  1  2  1  0
  2  3  2  0
  3  4  1  0
  3  5  1  0
  5  6  2  0
  6  7  1  0
  7  8  2  0
  8  9  1  0
  8 10  1  0
 10 11  1  0
 10 12  2  0
 12 13  1  0
 12 14  1  0
 14 15  1  0
 14 16  2  0
 16 17  1  0
 17 18  2  0
 17 19  1  0
 19 20  1  0
 20 21  1  0
 20 22  1  0
 20 23  1  0
 23 24  1  0
 23 25  1  0
 25 26  1  0
 25 27  1  0
 25 28  1  0
 28 29  1  0
 28 30  1  0
 28 31  1  0
 31 32  1  0
 31 33  1  0
 31 34  1  0
 34 35  1  0
 34 36  1  0
 34 37  1  0
 37 38  1  0
 37 39  1  0
  2 40  1  0
 40 41  2  0
 41 42  1  0
 41 43  1  0
 43 44  2  0
 44 45  1  0
 44 46  1  0
 46 47  1  0
 46 48  2  0
 48 49  1  0
 19  5  1  0
 37 23  1  0
 48 40  1  0
 16  7  1  0
M  END
>  <UniqueID>  (79) 
26

>  <SMILES>  (79) 
O=c1c2ccccc2nc(/C=C/c2cccnc2)n1CC1CCCCC1

>  <Energy>  (79) 
74.61964395363472

>  <Genealogy>  (79) 
O=c1c2ccccc2nc(/C=C/c2cccnc2)n1CC1CCCCC1 (cis-trans isomerization)
O=c1c2ccccc2nc(/C=C/c2cccnc2)n1CC1CCCCC1 (3D coordinates assigned)
O=c1c2ccccc2nc(/C=C/c2cccnc2)n1CC1CCCCC1 (nonaromatic ring conformer: 74.61964395363472 kcal/mol)

>  <smiles>  (79) 
O=c1c2ccccc2nc(/C=C/c2cccnc2)n1CC1CCCCC1

>  <score_type>  (79) 
oracle

>  <origin>  (79) 
autodockgpu

>  <m_score__min__energy>  (79) 
-7.3499999999999996

>  <m_primary>  (79) 
energy

>  <meeko>  (79) 
{"free_energy": -6.95, "intermolecular_energy": -8.44, "internal_energy": -1.89, "cluster_size": 19, "cluster_id": 1, "rank_in_cluster": 14}

>  <energy>  (79) 
-6.87

>  <cluster_rmsd>  (79) 
0.9

>  <rmsd>  (79) 
272.13

>  <cluster>  (79) 
1

$$$$
XUFANRSCLZKORJ-OUKQBFOZNA-N
     RDKit          3D

 49 52  0  0  0  0  0  0  0  0999 V2000
  137.9237   72.6218  221.9096 H   0  0  0  0  0  0  0  0  0  0  0  0
  139.0200   72.5920  221.9950 C   0  0  0  0  0  0  0  0  0  0  0  0
  139.6080   71.4030  222.2040 C   0  0  0  0  0  0  0  0  0  0  0  0
  140.0334   70.8570  221.3490 H   0  0  0  0  0  0  0  0  0  0  0  0
  139.6980   70.8070  223.5620 C   0  0  0  0  0  0  0  0  0  0  0  0
  140.3120   71.5470  224.5240 N   0  0  0  0  0  0  0  0  0  0  0  0
  140.5110   71.0790  225.7760 C   0  0  0  0  0  0  0  0  0  0  0  0
  141.1380   71.8860  226.7330 C   0  0  0  0  0  0  0  0  0  0  0  0
  141.4471   72.9091  226.4728 H   0  0  0  0  0  0  0  0  0  0  0  0
  141.3710   71.3910  228.0190 C   0  0  0  0  0  0  0  0  0  0  0  0
  141.8583   72.0268  228.7728 H   0  0  0  0  0  0  0  0  0  0  0  0
  140.9850   70.0880  228.3480 C   0  0  0  0  0  0  0  0  0  0  0  0
  141.1713   69.6996  229.3601 H   0  0  0  0  0  0  0  0  0  0  0  0
  140.3630   69.2780  227.3940 C   0  0  0  0  0  0  0  0  0  0  0  0
  140.0641   68.2522  227.6556 H   0  0  0  0  0  0  0  0  0  0  0  0
  140.1180   69.7730  226.0970 C   0  0  0  0  0  0  0  0  0  0  0  0
  139.4890   69.0050  225.1040 C   0  0  0  0  0  0  0  0  0  0  0  0
  139.1940   67.8030  225.3580 O   0  0  0  0  0  0  0  0  0  0  0  0
  139.2120   69.5470  223.8650 N   0  0  0  0  0  0  0  0  0  0  0  0
  138.4190   68.7520  222.8880 C   0  0  0  0  0  0  0  0  0  0  0  0
  138.6953   69.0820  221.8757 H   0  0  0  0  0  0  0  0  0  0  0  0
  138.6587   67.6966  223.0847 H   0  0  0  0  0  0  0  0  0  0  0  0
  136.8720   68.8810  223.0330 C   0  0  0  0  0  0  0  0  0  0  0  0
  136.5287   67.8488  222.8698 H   0  0  0  0  0  0  0  0  0  0  0  0
  136.3890   69.2580  224.4660 C   0  0  0  0  0  0  0  0  0  0  0  0
  135.7814   68.4275  224.8546 H   0  0  0  0  0  0  0  0  0  0  0  0
  137.2928   69.4425  225.0652 H   0  0  0  0  0  0  0  0  0  0  0  0
  135.5480   70.5410  224.5310 C   0  0  0  0  0  0  0  0  0  0  0  0
  134.5255   70.3187  224.1917 H   0  0  0  0  0  0  0  0  0  0  0  0
  135.5387   70.9022  225.5700 H   0  0  0  0  0  0  0  0  0  0  0  0
  136.1430   71.6290  223.6430 C   0  0  0  0  0  0  0  0  0  0  0  0
  135.5599   72.5529  223.7707 H   0  0  0  0  0  0  0  0  0  0  0  0
  137.1908   71.7822  223.9408 H   0  0  0  0  0  0  0  0  0  0  0  0
  136.1180   71.2240  222.1610 C   0  0  0  0  0  0  0  0  0  0  0  0
  135.1920   71.6131  221.7125 H   0  0  0  0  0  0  0  0  0  0  0  0
  137.0239   71.6469  221.7022 H   0  0  0  0  0  0  0  0  0  0  0  0
  136.1690   69.6990  221.9210 C   0  0  0  0  0  0  0  0  0  0  0  0
  135.1354   69.3336  221.8312 H   0  0  0  0  0  0  0  0  0  0  0  0
  136.7667   69.5526  221.0093 H   0  0  0  0  0  0  0  0  0  0  0  0
  139.7670   73.8670  221.8730 C   0  0  0  0  0  0  0  0  0  0  0  0
  139.1690   75.0510  222.3300 C   0  0  0  0  0  0  0  0  0  0  0  0
  138.1667   75.0175  222.7820 H   0  0  0  0  0  0  0  0  0  0  0  0
  139.8200   76.2400  222.2180 N   0  0  0  0  0  0  0  0  0  0  0  0
  141.0550   76.3290  221.6590 C   0  0  0  0  0  0  0  0  0  0  0  0
  141.5579   77.3048  221.5894 H   0  0  0  0  0  0  0  0  0  0  0  0
  141.6860   75.1830  221.1730 C   0  0  0  0  0  0  0  0  0  0  0  0
  142.6836   75.2509  220.7145 H   0  0  0  0  0  0  0  0  0  0  0  0
  141.0400   73.9500  221.2740 C   0  0  0  0  0  0  0  0  0  0  0  0
  141.5248   73.0422  220.8857 H   0  0  0  0  0  0  0  0  0  0  0  0
  1  2  1  0
  2  3  2  0
  3  4  1  0
  3  5  1  0
  5  6  2  0
  6  7  1  0
  7  8  2  0
  8  9  1  0
  8 10  1  0
 10 11  1  0
 10 12  2  0
 12 13  1  0
 12 14  1  0
 14 15  1  0
 14 16  2  0
 16 17  1  0
 17 18  2  0
 17 19  1  0
 19 20  1  0
 20 21  1  0
 20 22  1  0
 20 23  1  0
 23 24  1  0
 23 25  1  0
 25 26  1  0
 25 27  1  0
 25 28  1  0
 28 29  1  0
 28 30  1  0
 28 31  1  0
 31 32  1  0
 31 33  1  0
 31 34  1  0
 34 35  1  0
 34 36  1  0
 34 37  1  0
 37 38  1  0
 37 39  1  0
  2 40  1  0
 40 41  2  0
 41 42  1  0
 41 43  1  0
 43 44  2  0
 44 45  1  0
 44 46  1  0
 46 47  1  0
 46 48  2  0
 48 49  1  0
 19  5  1  0
 37 23  1  0
 48 40  1  0
 16  7  1  0
M  END
>  <UniqueID>  (80) 
26

>  <SMILES>  (80) 
O=c1c2ccccc2nc(/C=C/c2cccnc2)n1CC1CCCCC1

>  <Energy>  (80) 
74.61964395363472

>  <Genealogy>  (80) 
O=c1c2ccccc2nc(/C=C/c2cccnc2)n1CC1CCCCC1 (cis-trans isomerization)
O=c1c2ccccc2nc(/C=C/c2cccnc2)n1CC1CCCCC1 (3D coordinates assigned)
O=c1c2ccccc2nc(/C=C/c2cccnc2)n1CC1CCCCC1 (nonaromatic ring conformer: 74.61964395363472 kcal/mol)

>  <smiles>  (80) 
O=c1c2ccccc2nc(/C=C/c2cccnc2)n1CC1CCCCC1

>  <score_type>  (80) 
oracle

>  <origin>  (80) 
autodockgpu

>  <m_score__min__energy>  (80) 
-7.3499999999999996

>  <m_primary>  (80) 
energy

>  <meeko>  (80) 
{"free_energy": -7.14, "intermolecular_energy": -8.63, "internal_energy": -1.68, "cluster_size": 19, "cluster_id": 1, "rank_in_cluster": 7}

>  <energy>  (80) 
-6.5

>  <cluster_rmsd>  (80) 
0.0

>  <rmsd>  (80) 
272.19

>  <cluster>  (80) 
2

$$$$
