QFPZKQQOUZJSQV-AZXADDSMNA-N
     RDKit          3D

 37 38  0  0  0  0  0  0  0  0999 V2000
  141.8690   76.1910  222.1490 H   0  0  0  0  0  0  0  0  0  0  0  0
  141.1090   75.5380  222.2970 O   0  0  0  0  0  0  0  0  0  0  0  0
  140.9060   74.4670  221.4310 C   0  0  0  0  0  0  0  0  0  0  0  0
  141.3800   74.5990  220.0810 N   0  0  0  0  0  0  0  0  0  0  0  0
  142.2730   75.5750  219.6190 N   0  0  0  0  0  0  0  0  0  0  0  0
  143.2880   75.2270  218.8920 C   0  0  0  0  0  0  0  0  0  0  0  0
  143.3910   75.6577  217.8851 H   0  0  0  0  0  0  0  0  0  0  0  0
  144.3140   74.2710  219.3670 C   0  0  0  0  0  0  0  0  0  0  0  0
  145.0020   73.3880  218.5080 C   0  0  0  0  0  0  0  0  0  0  0  0
  144.7440   73.3550  217.1800 F   0  0  0  0  0  0  0  0  0  0  0  0
  145.9500   72.5500  219.0090 N   0  0  0  0  0  0  0  0  0  0  0  0
  146.2770   72.5390  220.3270 C   0  0  0  0  0  0  0  0  0  0  0  0
  147.0592   71.8581  220.6937 H   0  0  0  0  0  0  0  0  0  0  0  0
  145.6220   73.3900  221.2150 C   0  0  0  0  0  0  0  0  0  0  0  0
  145.8737   73.3765  222.2857 H   0  0  0  0  0  0  0  0  0  0  0  0
  144.6440   74.2590  220.7320 C   0  0  0  0  0  0  0  0  0  0  0  0
  144.1276   74.9396  221.4249 H   0  0  0  0  0  0  0  0  0  0  0  0
  140.2850   73.3790  221.9220 C   0  0  0  0  0  0  0  0  0  0  0  0
  139.8065   73.4843  222.9069 H   0  0  0  0  0  0  0  0  0  0  0  0
  140.1800   72.0360  221.2600 C   0  0  0  0  0  0  0  0  0  0  0  0
  139.3527   72.0623  220.5355 H   0  0  0  0  0  0  0  0  0  0  0  0
  141.1403   71.8283  220.7653 H   0  0  0  0  0  0  0  0  0  0  0  0
  139.9160   70.9030  222.2740 C   0  0  0  0  0  0  0  0  0  0  0  0
  139.0497   70.3141  221.9383 H   0  0  0  0  0  0  0  0  0  0  0  0
  140.8128   70.2687  222.3331 H   0  0  0  0  0  0  0  0  0  0  0  0
  139.6460   71.4330  223.5730 O   0  0  0  0  0  0  0  0  0  0  0  0
  139.9180   70.7810  224.7870 C   0  0  0  0  0  0  0  0  0  0  0  0
  140.8410   71.2880  225.7270 C   0  0  0  0  0  0  0  0  0  0  0  0
  141.3738   72.2277  225.5191 H   0  0  0  0  0  0  0  0  0  0  0  0
  141.0810   70.6020  226.9200 C   0  0  0  0  0  0  0  0  0  0  0  0
  141.7910   71.0107  227.6541 H   0  0  0  0  0  0  0  0  0  0  0  0
  140.4220   69.3980  227.1840 C   0  0  0  0  0  0  0  0  0  0  0  0
  140.7460   68.5260  228.6720 Cl  0  0  0  0  0  0  0  0  0  0  0  0
  139.5070   68.8860  226.2600 C   0  0  0  0  0  0  0  0  0  0  0  0
  138.9851   67.9409  226.4707 H   0  0  0  0  0  0  0  0  0  0  0  0
  139.2530   69.5730  225.0670 C   0  0  0  0  0  0  0  0  0  0  0  0
  138.0870   68.9130  223.9310 Cl  0  0  0  0  0  0  0  0  0  0  0  0
  1  2  1  0
  2  3  1  0
  3  4  1  0
  4  5  1  0
  5  6  2  0
  6  7  1  0
  6  8  1  0
  8  9  2  0
  9 10  1  0
  9 11  1  0
 11 12  2  0
 12 13  1  0
 12 14  1  0
 14 15  1  0
 14 16  2  0
 16 17  1  0
  3 18  2  0
 18 19  1  0
 18 20  1  0
 20 21  1  0
 20 22  1  0
 20 23  1  0
 23 24  1  0
 23 25  1  0
 23 26  1  0
 26 27  1  0
 27 28  2  0
 28 29  1  0
 28 30  1  0
 30 31  1  0
 30 32  2  0
 32 33  1  0
 32 34  1  0
 34 35  1  0
 34 36  2  0
 36 37  1  0
 16  8  1  0
 36 27  1  0
M  CHG  1   4  -1
M  END
>  <UniqueID>  (1) 
13

>  <SMILES>  (1) 
O/C(=C/CCOc1ccc(Cl)cc1Cl)[N-]/N=C/c1cccnc1F

>  <Energy>  (1) 
41.101158770473404

>  <Genealogy>  (1) 
O=C(CCCOc1ccc(Cl)cc1Cl)[N-]N=Cc1cccnc1F (protonated)
OC(=CCCOc1ccc(Cl)cc1Cl)[N-]N=Cc1cccnc1F (tautomer)
O/C(=C/CCOc1ccc(Cl)cc1Cl)[N-]/N=C/c1cccnc1F (cis-trans isomerization)
O/C(=C/CCOc1ccc(Cl)cc1Cl)[N-]/N=C/c1cccnc1F (3D coordinates assigned)
O/C(=C/CCOc1ccc(Cl)cc1Cl)[N-]/N=C/c1cccnc1F (optimized conformer: 41.101158770473404 kcal/mol)

>  <smiles>  (1) 
O=C(CCCOc1ccc(Cl)cc1Cl)NN=Cc1cccnc1F

>  <score_type>  (1) 
oracle

>  <origin>  (1) 
autodockgpu

>  <m_score__min__energy>  (1) 
-6.6399999999999997

>  <m_primary>  (1) 
energy

>  <meeko>  (1) 
{"free_energy": -5.74, "intermolecular_energy": -8.72, "internal_energy": -0.7, "cluster_size": 2, "cluster_id": 4, "rank_in_cluster": 2}

>  <energy>  (1) 
-6.64

>  <cluster_rmsd>  (1) 
0.0

>  <rmsd>  (1) 
269.88

>  <cluster>  (1) 
1

$$$$
QFPZKQQOUZJSQV-AZXADDSMNA-N
     RDKit          3D

 37 38  0  0  0  0  0  0  0  0999 V2000
  145.6910   72.0800  221.8740 H   0  0  0  0  0  0  0  0  0  0  0  0
  145.5540   72.9890  221.4500 O   0  0  0  0  0  0  0  0  0  0  0  0
  145.1790   73.1090  220.1150 C   0  0  0  0  0  0  0  0  0  0  0  0
  146.0260   72.5010  219.1250 N   0  0  0  0  0  0  0  0  0  0  0  0
  145.6330   72.1220  217.8340 N   0  0  0  0  0  0  0  0  0  0  0  0
  144.9030   71.0640  217.6680 C   0  0  0  0  0  0  0  0  0  0  0  0
  143.9949   71.1380  217.0516 H   0  0  0  0  0  0  0  0  0  0  0  0
  145.2470   69.7590  218.2780 C   0  0  0  0  0  0  0  0  0  0  0  0
  144.8300   69.3790  219.5710 C   0  0  0  0  0  0  0  0  0  0  0  0
  144.0940   70.2090  220.3450 F   0  0  0  0  0  0  0  0  0  0  0  0
  145.1630   68.1540  220.0620 N   0  0  0  0  0  0  0  0  0  0  0  0
  145.8830   67.2600  219.3370 C   0  0  0  0  0  0  0  0  0  0  0  0
  146.1216   66.2735  219.7612 H   0  0  0  0  0  0  0  0  0  0  0  0
  146.3200   67.5910  218.0560 C   0  0  0  0  0  0  0  0  0  0  0  0
  146.9135   66.8748  217.4689 H   0  0  0  0  0  0  0  0  0  0  0  0
  145.9970   68.8400  217.5260 C   0  0  0  0  0  0  0  0  0  0  0  0
  146.3317   69.1070  216.5127 H   0  0  0  0  0  0  0  0  0  0  0  0
  144.0450   73.7810  219.8450 C   0  0  0  0  0  0  0  0  0  0  0  0
  143.2126   73.1993  219.4223 H   0  0  0  0  0  0  0  0  0  0  0  0
  143.8040   75.2470  220.0640 C   0  0  0  0  0  0  0  0  0  0  0  0
  143.3409   75.3860  221.0520 H   0  0  0  0  0  0  0  0  0  0  0  0
  144.7741   75.7616  220.0001 H   0  0  0  0  0  0  0  0  0  0  0  0
  142.8750   75.8530  218.9900 C   0  0  0  0  0  0  0  0  0  0  0  0
  143.3934   76.6871  218.4945 H   0  0  0  0  0  0  0  0  0  0  0  0
  142.6233   75.0693  218.2603 H   0  0  0  0  0  0  0  0  0  0  0  0
  141.6660   76.3360  219.5760 O   0  0  0  0  0  0  0  0  0  0  0  0
  141.5810   77.3700  220.5250 C   0  0  0  0  0  0  0  0  0  0  0  0
  141.2540   77.1280  221.8770 C   0  0  0  0  0  0  0  0  0  0  0  0
  141.0584   76.1007  222.2182 H   0  0  0  0  0  0  0  0  0  0  0  0
  141.1780   78.1890  222.7830 C   0  0  0  0  0  0  0  0  0  0  0  0
  140.9377   77.9921  223.8382 H   0  0  0  0  0  0  0  0  0  0  0  0
  141.4060   79.4990  222.3540 C   0  0  0  0  0  0  0  0  0  0  0  0
  141.2830   80.8300  223.4910 Cl  0  0  0  0  0  0  0  0  0  0  0  0
  141.7290   79.7490  221.0180 C   0  0  0  0  0  0  0  0  0  0  0  0
  141.9139   80.7800  220.6820 H   0  0  0  0  0  0  0  0  0  0  0  0
  141.8180   78.6910  220.1060 C   0  0  0  0  0  0  0  0  0  0  0  0
  142.2390   79.0350  218.4350 Cl  0  0  0  0  0  0  0  0  0  0  0  0
  1  2  1  0
  2  3  1  0
  3  4  1  0
  4  5  1  0
  5  6  2  0
  6  7  1  0
  6  8  1  0
  8  9  2  0
  9 10  1  0
  9 11  1  0
 11 12  2  0
 12 13  1  0
 12 14  1  0
 14 15  1  0
 14 16  2  0
 16 17  1  0
  3 18  2  0
 18 19  1  0
 18 20  1  0
 20 21  1  0
 20 22  1  0
 20 23  1  0
 23 24  1  0
 23 25  1  0
 23 26  1  0
 26 27  1  0
 27 28  2  0
 28 29  1  0
 28 30  1  0
 30 31  1  0
 30 32  2  0
 32 33  1  0
 32 34  1  0
 34 35  1  0
 34 36  2  0
 36 37  1  0
 16  8  1  0
 36 27  1  0
M  CHG  1   4  -1
M  END
>  <UniqueID>  (2) 
13

>  <SMILES>  (2) 
O/C(=C/CCOc1ccc(Cl)cc1Cl)[N-]/N=C/c1cccnc1F

>  <Energy>  (2) 
41.101158770473404

>  <Genealogy>  (2) 
O=C(CCCOc1ccc(Cl)cc1Cl)[N-]N=Cc1cccnc1F (protonated)
OC(=CCCOc1ccc(Cl)cc1Cl)[N-]N=Cc1cccnc1F (tautomer)
O/C(=C/CCOc1ccc(Cl)cc1Cl)[N-]/N=C/c1cccnc1F (cis-trans isomerization)
O/C(=C/CCOc1ccc(Cl)cc1Cl)[N-]/N=C/c1cccnc1F (3D coordinates assigned)
O/C(=C/CCOc1ccc(Cl)cc1Cl)[N-]/N=C/c1cccnc1F (optimized conformer: 41.101158770473404 kcal/mol)

>  <smiles>  (2) 
O=C(CCCOc1ccc(Cl)cc1Cl)NN=Cc1cccnc1F

>  <score_type>  (2) 
oracle

>  <origin>  (2) 
autodockgpu

>  <m_score__min__energy>  (2) 
-6.6399999999999997

>  <m_primary>  (2) 
energy

>  <meeko>  (2) 
{"free_energy": -6.36, "intermolecular_energy": -9.34, "internal_energy": -0.48, "cluster_size": 5, "cluster_id": 1, "rank_in_cluster": 2}

>  <energy>  (2) 
-6.36

>  <cluster_rmsd>  (2) 
1.12

>  <rmsd>  (2) 
269.71

>  <cluster>  (2) 
1

$$$$
QFPZKQQOUZJSQV-AZXADDSMNA-N
     RDKit          3D

 37 38  0  0  0  0  0  0  0  0999 V2000
  138.8900   73.6580  223.0600 H   0  0  0  0  0  0  0  0  0  0  0  0
  139.5760   73.8570  222.3430 O   0  0  0  0  0  0  0  0  0  0  0  0
  141.5850   73.3980  221.2320 C   0  0  0  0  0  0  0  0  0  0  0  0
  140.7990   71.8720  223.0010 N   0  0  0  0  0  0  0  0  0  0  0  0
  140.0810   71.6380  224.1820 N   0  0  0  0  0  0  0  0  0  0  0  0
  140.6900   73.0390  222.1710 C   0  0  0  0  0  0  0  0  0  0  0  0
  142.1710   72.5891  220.7712 H   0  0  0  0  0  0  0  0  0  0  0  0
  140.5910   70.3960  226.2140 C   0  0  0  0  0  0  0  0  0  0  0  0
  140.6350   70.4990  227.6200 C   0  0  0  0  0  0  0  0  0  0  0  0
  140.8070   71.6920  228.2340 F   0  0  0  0  0  0  0  0  0  0  0  0
  140.4990   69.3840  228.3890 N   0  0  0  0  0  0  0  0  0  0  0  0
  140.3040   68.1550  227.8460 C   0  0  0  0  0  0  0  0  0  0  0  0
  140.1830   67.2785  228.4995 H   0  0  0  0  0  0  0  0  0  0  0  0
  140.2570   68.0030  226.4620 C   0  0  0  0  0  0  0  0  0  0  0  0
  140.1119   67.0077  226.0166 H   0  0  0  0  0  0  0  0  0  0  0  0
  140.3960   69.1270  225.6470 C   0  0  0  0  0  0  0  0  0  0  0  0
  140.3525   69.0179  224.5533 H   0  0  0  0  0  0  0  0  0  0  0  0
  140.7080   71.5660  225.3140 C   0  0  0  0  0  0  0  0  0  0  0  0
  141.3510   72.4053  225.6175 H   0  0  0  0  0  0  0  0  0  0  0  0
  141.8630   74.7930  220.7510 C   0  0  0  0  0  0  0  0  0  0  0  0
  141.9803   75.4517  221.6242 H   0  0  0  0  0  0  0  0  0  0  0  0
  142.7802   74.7638  220.1444 H   0  0  0  0  0  0  0  0  0  0  0  0
  140.7260   75.3430  219.8630 C   0  0  0  0  0  0  0  0  0  0  0  0
  141.1366   75.6147  218.8794 H   0  0  0  0  0  0  0  0  0  0  0  0
  139.9558   74.5649  219.7563 H   0  0  0  0  0  0  0  0  0  0  0  0
  140.1290   76.4980  220.4560 O   0  0  0  0  0  0  0  0  0  0  0  0
  140.7920   77.4180  221.2850 C   0  0  0  0  0  0  0  0  0  0  0  0
  140.7910   77.3020  222.6920 C   0  0  0  0  0  0  0  0  0  0  0  0
  140.2605   76.4668  223.1726 H   0  0  0  0  0  0  0  0  0  0  0  0
  141.4620   78.2450  223.4770 C   0  0  0  0  0  0  0  0  0  0  0  0
  141.4695   78.1410  224.5720 H   0  0  0  0  0  0  0  0  0  0  0  0
  142.1230   79.3190  222.8750 C   0  0  0  0  0  0  0  0  0  0  0  0
  142.9410   80.5140  223.8650 Cl  0  0  0  0  0  0  0  0  0  0  0  0
  142.1290   79.4430  221.4830 C   0  0  0  0  0  0  0  0  0  0  0  0
  142.6541   80.2855  221.0093 H   0  0  0  0  0  0  0  0  0  0  0  0
  141.4680   78.4970  220.6900 C   0  0  0  0  0  0  0  0  0  0  0  0
  141.5050   78.6710  218.9410 Cl  0  0  0  0  0  0  0  0  0  0  0  0
  1  2  1  0
  2  3  1  0
  3  4  1  0
  4  5  1  0
  5  6  2  0
  6  7  1  0
  6  8  1  0
  8  9  2  0
  9 10  1  0
  9 11  1  0
 11 12  2  0
 12 13  1  0
 12 14  1  0
 14 15  1  0
 14 16  2  0
 16 17  1  0
  3 18  2  0
 18 19  1  0
 18 20  1  0
 20 21  1  0
 20 22  1  0
 20 23  1  0
 23 24  1  0
 23 25  1  0
 23 26  1  0
 26 27  1  0
 27 28  2  0
 28 29  1  0
 28 30  1  0
 30 31  1  0
 30 32  2  0
 32 33  1  0
 32 34  1  0
 34 35  1  0
 34 36  2  0
 36 37  1  0
 16  8  1  0
 36 27  1  0
M  CHG  1   4  -1
M  END
>  <UniqueID>  (3) 
13

>  <SMILES>  (3) 
O/C(=C/CCOc1ccc(Cl)cc1Cl)[N-]/N=C/c1cccnc1F

>  <Energy>  (3) 
41.101158770473404

>  <Genealogy>  (3) 
O=C(CCCOc1ccc(Cl)cc1Cl)[N-]N=Cc1cccnc1F (protonated)
OC(=CCCOc1ccc(Cl)cc1Cl)[N-]N=Cc1cccnc1F (tautomer)
O/C(=C/CCOc1ccc(Cl)cc1Cl)[N-]/N=C/c1cccnc1F (cis-trans isomerization)
O/C(=C/CCOc1ccc(Cl)cc1Cl)[N-]/N=C/c1cccnc1F (3D coordinates assigned)
O/C(=C/CCOc1ccc(Cl)cc1Cl)[N-]/N=C/c1cccnc1F (optimized conformer: 41.101158770473404 kcal/mol)

>  <smiles>  (3) 
O=C(CCCOc1ccc(Cl)cc1Cl)NN=Cc1cccnc1F

>  <score_type>  (3) 
oracle

>  <origin>  (3) 
autodockgpu

>  <m_score__min__energy>  (3) 
-6.6399999999999997

>  <m_primary>  (3) 
energy

>  <meeko>  (3) 
{"free_energy": -6.45, "intermolecular_energy": -9.43, "internal_energy": -0.77, "cluster_size": 5, "cluster_id": 2, "rank_in_cluster": 3}

>  <energy>  (3) 
-6.26

>  <cluster_rmsd>  (3) 
1.17

>  <rmsd>  (3) 
269.8

>  <cluster>  (3) 
1

$$$$
QFPZKQQOUZJSQV-AZXADDSMNA-N
     RDKit          3D

 37 38  0  0  0  0  0  0  0  0999 V2000
  141.8220   76.2460  221.9690 H   0  0  0  0  0  0  0  0  0  0  0  0
  141.6230   75.2580  221.8790 O   0  0  0  0  0  0  0  0  0  0  0  0
  139.6160   75.4620  220.6920 C   0  0  0  0  0  0  0  0  0  0  0  0
  139.8530   73.6820  222.3820 N   0  0  0  0  0  0  0  0  0  0  0  0
  140.6430   72.6360  222.8780 N   0  0  0  0  0  0  0  0  0  0  0  0
  140.3300   74.8070  221.6260 C   0  0  0  0  0  0  0  0  0  0  0  0
  138.8431   76.1552  221.0555 H   0  0  0  0  0  0  0  0  0  0  0  0
  140.1520   71.1430  224.7390 C   0  0  0  0  0  0  0  0  0  0  0  0
  139.4670   70.0220  225.2530 C   0  0  0  0  0  0  0  0  0  0  0  0
  138.6760   69.2590  224.4640 F   0  0  0  0  0  0  0  0  0  0  0  0
  139.5980   69.6860  226.5650 N   0  0  0  0  0  0  0  0  0  0  0  0
  140.3890   70.3920  227.4130 C   0  0  0  0  0  0  0  0  0  0  0  0
  140.4824   70.0815  228.4641 H   0  0  0  0  0  0  0  0  0  0  0  0
  141.0830   71.5100  226.9530 C   0  0  0  0  0  0  0  0  0  0  0  0
  141.7150   72.0932  227.6388 H   0  0  0  0  0  0  0  0  0  0  0  0
  140.9670   71.8810  225.6130 C   0  0  0  0  0  0  0  0  0  0  0  0
  141.5172   72.7569  225.2387 H   0  0  0  0  0  0  0  0  0  0  0  0
  140.0770   71.5560  223.3190 C   0  0  0  0  0  0  0  0  0  0  0  0
  139.5205   70.9231  222.6120 H   0  0  0  0  0  0  0  0  0  0  0  0
  139.7690   75.3410  219.2040 C   0  0  0  0  0  0  0  0  0  0  0  0
  138.7852   75.4876  218.7342 H   0  0  0  0  0  0  0  0  0  0  0  0
  140.4886   76.1058  218.8765 H   0  0  0  0  0  0  0  0  0  0  0  0
  140.3200   73.9630  218.7820 C   0  0  0  0  0  0  0  0  0  0  0  0
  140.2537   73.2720  219.6353 H   0  0  0  0  0  0  0  0  0  0  0  0
  139.7224   73.5894  217.9374 H   0  0  0  0  0  0  0  0  0  0  0  0
  141.6830   74.0640  218.3670 O   0  0  0  0  0  0  0  0  0  0  0  0
  142.8000   73.8730  219.1990 C   0  0  0  0  0  0  0  0  0  0  0  0
  143.1910   72.5960  219.6550 C   0  0  0  0  0  0  0  0  0  0  0  0
  142.6151   71.7076  219.3567 H   0  0  0  0  0  0  0  0  0  0  0  0
  144.3070   72.4560  220.4840 C   0  0  0  0  0  0  0  0  0  0  0  0
  144.6145   71.4563  220.8246 H   0  0  0  0  0  0  0  0  0  0  0  0
  145.0340   73.5810  220.8820 C   0  0  0  0  0  0  0  0  0  0  0  0
  146.4200   73.4020  221.9440 Cl  0  0  0  0  0  0  0  0  0  0  0  0
  144.6540   74.8500  220.4360 C   0  0  0  0  0  0  0  0  0  0  0  0
  145.2293   75.7350  220.7455 H   0  0  0  0  0  0  0  0  0  0  0  0
  143.5440   74.9980  219.5970 C   0  0  0  0  0  0  0  0  0  0  0  0
  143.0990   76.6040  219.0410 Cl  0  0  0  0  0  0  0  0  0  0  0  0
  1  2  1  0
  2  3  1  0
  3  4  1  0
  4  5  1  0
  5  6  2  0
  6  7  1  0
  6  8  1  0
  8  9  2  0
  9 10  1  0
  9 11  1  0
 11 12  2  0
 12 13  1  0
 12 14  1  0
 14 15  1  0
 14 16  2  0
 16 17  1  0
  3 18  2  0
 18 19  1  0
 18 20  1  0
 20 21  1  0
 20 22  1  0
 20 23  1  0
 23 24  1  0
 23 25  1  0
 23 26  1  0
 26 27  1  0
 27 28  2  0
 28 29  1  0
 28 30  1  0
 30 31  1  0
 30 32  2  0
 32 33  1  0
 32 34  1  0
 34 35  1  0
 34 36  2  0
 36 37  1  0
 16  8  1  0
 36 27  1  0
M  CHG  1   4  -1
M  END
>  <UniqueID>  (4) 
13

>  <SMILES>  (4) 
O/C(=C/CCOc1ccc(Cl)cc1Cl)[N-]/N=C/c1cccnc1F

>  <Energy>  (4) 
41.101158770473404

>  <Genealogy>  (4) 
O=C(CCCOc1ccc(Cl)cc1Cl)[N-]N=Cc1cccnc1F (protonated)
OC(=CCCOc1ccc(Cl)cc1Cl)[N-]N=Cc1cccnc1F (tautomer)
O/C(=C/CCOc1ccc(Cl)cc1Cl)[N-]/N=C/c1cccnc1F (cis-trans isomerization)
O/C(=C/CCOc1ccc(Cl)cc1Cl)[N-]/N=C/c1cccnc1F (3D coordinates assigned)
O/C(=C/CCOc1ccc(Cl)cc1Cl)[N-]/N=C/c1cccnc1F (optimized conformer: 41.101158770473404 kcal/mol)

>  <smiles>  (4) 
O=C(CCCOc1ccc(Cl)cc1Cl)NN=Cc1cccnc1F

>  <score_type>  (4) 
oracle

>  <origin>  (4) 
autodockgpu

>  <m_score__min__energy>  (4) 
-6.6399999999999997

>  <m_primary>  (4) 
energy

>  <meeko>  (4) 
{"free_energy": -5.45, "intermolecular_energy": -8.43, "internal_energy": -1.11, "cluster_size": 2, "cluster_id": 7, "rank_in_cluster": 1}

>  <energy>  (4) 
-5.92

>  <cluster_rmsd>  (4) 
0.86

>  <rmsd>  (4) 
269.64

>  <cluster>  (4) 
1

$$$$
QFPZKQQOUZJSQV-AZXADDSMNA-N
     RDKit          3D

 37 38  0  0  0  0  0  0  0  0999 V2000
  146.2480   71.9360  221.5620 H   0  0  0  0  0  0  0  0  0  0  0  0
  146.3120   72.7530  220.9670 O   0  0  0  0  0  0  0  0  0  0  0  0
  145.3390   73.0200  220.0080 C   0  0  0  0  0  0  0  0  0  0  0  0
  145.7380   73.0100  218.6280 N   0  0  0  0  0  0  0  0  0  0  0  0
  145.9400   71.8660  217.8430 N   0  0  0  0  0  0  0  0  0  0  0  0
  145.0060   70.9710  217.7580 C   0  0  0  0  0  0  0  0  0  0  0  0
  144.1047   71.1998  217.1703 H   0  0  0  0  0  0  0  0  0  0  0  0
  145.1080   69.6520  218.4230 C   0  0  0  0  0  0  0  0  0  0  0  0
  146.1260   69.3310  219.3450 C   0  0  0  0  0  0  0  0  0  0  0  0
  147.0920   70.2220  219.6660 F   0  0  0  0  0  0  0  0  0  0  0  0
  146.1480   68.1050  219.9370 N   0  0  0  0  0  0  0  0  0  0  0  0
  145.2010   67.1660  219.6800 C   0  0  0  0  0  0  0  0  0  0  0  0
  145.2417   66.1915  220.1887 H   0  0  0  0  0  0  0  0  0  0  0  0
  144.1780   67.4350  218.7730 C   0  0  0  0  0  0  0  0  0  0  0  0
  143.4162   66.6730  218.5515 H   0  0  0  0  0  0  0  0  0  0  0  0
  144.1310   68.6820  218.1490 C   0  0  0  0  0  0  0  0  0  0  0  0
  143.3228   68.9066  217.4374 H   0  0  0  0  0  0  0  0  0  0  0  0
  144.0890   73.2620  220.4430 C   0  0  0  0  0  0  0  0  0  0  0  0
  143.6759   72.5582  221.1806 H   0  0  0  0  0  0  0  0  0  0  0  0
  143.2020   74.3980  220.0210 C   0  0  0  0  0  0  0  0  0  0  0  0
  143.7923   75.3262  220.0193 H   0  0  0  0  0  0  0  0  0  0  0  0
  142.8137   74.1676  219.0179 H   0  0  0  0  0  0  0  0  0  0  0  0
  141.9950   74.5790  220.9650 C   0  0  0  0  0  0  0  0  0  0  0  0
  141.3217   73.7157  220.8583 H   0  0  0  0  0  0  0  0  0  0  0  0
  142.3648   74.6523  221.9984 H   0  0  0  0  0  0  0  0  0  0  0  0
  141.2770   75.7740  220.6510 O   0  0  0  0  0  0  0  0  0  0  0  0
  141.3890   76.9930  221.3410 C   0  0  0  0  0  0  0  0  0  0  0  0
  141.0820   77.1140  222.7130 C   0  0  0  0  0  0  0  0  0  0  0  0
  140.7436   76.2330  223.2781 H   0  0  0  0  0  0  0  0  0  0  0  0
  141.2060   78.3480  223.3570 C   0  0  0  0  0  0  0  0  0  0  0  0
  140.9793   78.4316  224.4301 H   0  0  0  0  0  0  0  0  0  0  0  0
  141.6170   79.4760  222.6420 C   0  0  0  0  0  0  0  0  0  0  0  0
  141.7450   81.0300  223.4480 Cl  0  0  0  0  0  0  0  0  0  0  0  0
  141.9220   79.3670  221.2830 C   0  0  0  0  0  0  0  0  0  0  0  0
  142.2497   80.2545  220.7218 H   0  0  0  0  0  0  0  0  0  0  0  0
  141.8120   78.1320  220.6330 C   0  0  0  0  0  0  0  0  0  0  0  0
  142.2160   78.0230  218.9270 Cl  0  0  0  0  0  0  0  0  0  0  0  0
  1  2  1  0
  2  3  1  0
  3  4  1  0
  4  5  1  0
  5  6  2  0
  6  7  1  0
  6  8  1  0
  8  9  2  0
  9 10  1  0
  9 11  1  0
 11 12  2  0
 12 13  1  0
 12 14  1  0
 14 15  1  0
 14 16  2  0
 16 17  1  0
  3 18  2  0
 18 19  1  0
 18 20  1  0
 20 21  1  0
 20 22  1  0
 20 23  1  0
 23 24  1  0
 23 25  1  0
 23 26  1  0
 26 27  1  0
 27 28  2  0
 28 29  1  0
 28 30  1  0
 30 31  1  0
 30 32  2  0
 32 33  1  0
 32 34  1  0
 34 35  1  0
 34 36  2  0
 36 37  1  0
 16  8  1  0
 36 27  1  0
M  CHG  1   4  -1
M  END
>  <UniqueID>  (5) 
13

>  <SMILES>  (5) 
O/C(=C/CCOc1ccc(Cl)cc1Cl)[N-]/N=C/c1cccnc1F

>  <Energy>  (5) 
41.101158770473404

>  <Genealogy>  (5) 
O=C(CCCOc1ccc(Cl)cc1Cl)[N-]N=Cc1cccnc1F (protonated)
OC(=CCCOc1ccc(Cl)cc1Cl)[N-]N=Cc1cccnc1F (tautomer)
O/C(=C/CCOc1ccc(Cl)cc1Cl)[N-]/N=C/c1cccnc1F (cis-trans isomerization)
O/C(=C/CCOc1ccc(Cl)cc1Cl)[N-]/N=C/c1cccnc1F (3D coordinates assigned)
O/C(=C/CCOc1ccc(Cl)cc1Cl)[N-]/N=C/c1cccnc1F (optimized conformer: 41.101158770473404 kcal/mol)

>  <smiles>  (5) 
O=C(CCCOc1ccc(Cl)cc1Cl)NN=Cc1cccnc1F

>  <score_type>  (5) 
oracle

>  <origin>  (5) 
autodockgpu

>  <m_score__min__energy>  (5) 
-6.6399999999999997

>  <m_primary>  (5) 
energy

>  <meeko>  (5) 
{"free_energy": -6.64, "intermolecular_energy": -9.63, "internal_energy": -0.42, "cluster_size": 5, "cluster_id": 1, "rank_in_cluster": 1}

>  <energy>  (5) 
-5.77

>  <cluster_rmsd>  (5) 
1.28

>  <rmsd>  (5) 
269.42

>  <cluster>  (5) 
1

$$$$
QFPZKQQOUZJSQV-AZXADDSMNA-N
     RDKit          3D

 37 38  0  0  0  0  0  0  0  0999 V2000
  141.8860   75.9750  221.9580 H   0  0  0  0  0  0  0  0  0  0  0  0
  141.0380   75.5810  222.3460 O   0  0  0  0  0  0  0  0  0  0  0  0
  139.6910   74.9390  220.5430 C   0  0  0  0  0  0  0  0  0  0  0  0
  138.8190   76.5410  222.2010 N   0  0  0  0  0  0  0  0  0  0  0  0
  138.7840   77.9360  222.0630 N   0  0  0  0  0  0  0  0  0  0  0  0
  139.8280   75.6710  221.6640 C   0  0  0  0  0  0  0  0  0  0  0  0
  138.8373   74.2464  220.5048 H   0  0  0  0  0  0  0  0  0  0  0  0
  140.2370   79.5430  223.1740 C   0  0  0  0  0  0  0  0  0  0  0  0
  140.2470   80.9050  222.8060 C   0  0  0  0  0  0  0  0  0  0  0  0
  139.1370   81.5130  222.3290 F   0  0  0  0  0  0  0  0  0  0  0  0
  141.3880   81.6370  222.9320 N   0  0  0  0  0  0  0  0  0  0  0  0
  142.5360   81.1010  223.4210 C   0  0  0  0  0  0  0  0  0  0  0  0
  143.4350   81.7267  223.5227 H   0  0  0  0  0  0  0  0  0  0  0  0
  142.5760   79.7590  223.7940 C   0  0  0  0  0  0  0  0  0  0  0  0
  143.5067   79.3167  224.1790 H   0  0  0  0  0  0  0  0  0  0  0  0
  141.4230   78.9820  223.6740 C   0  0  0  0  0  0  0  0  0  0  0  0
  141.4435   77.9236  223.9729 H   0  0  0  0  0  0  0  0  0  0  0  0
  139.0290   78.6900  223.0870 C   0  0  0  0  0  0  0  0  0  0  0  0
  138.3139   78.6973  223.9228 H   0  0  0  0  0  0  0  0  0  0  0  0
  140.5880   74.9740  219.3390 C   0  0  0  0  0  0  0  0  0  0  0  0
  140.1775   74.3004  218.5724 H   0  0  0  0  0  0  0  0  0  0  0  0
  140.6294   76.0130  218.9802 H   0  0  0  0  0  0  0  0  0  0  0  0
  142.0280   74.5310  219.6690 C   0  0  0  0  0  0  0  0  0  0  0  0
  142.0016   73.8104  220.4997 H   0  0  0  0  0  0  0  0  0  0  0  0
  142.4675   74.0686  218.7729 H   0  0  0  0  0  0  0  0  0  0  0  0
  142.8320   75.6500  220.0460 O   0  0  0  0  0  0  0  0  0  0  0  0
  142.5800   76.9860  219.6910 C   0  0  0  0  0  0  0  0  0  0  0  0
  142.0550   77.9240  220.6060 C   0  0  0  0  0  0  0  0  0  0  0  0
  141.8322   77.6164  221.6383 H   0  0  0  0  0  0  0  0  0  0  0  0
  141.8170   79.2420  220.2060 C   0  0  0  0  0  0  0  0  0  0  0  0
  141.4222   79.9714  220.9285 H   0  0  0  0  0  0  0  0  0  0  0  0
  142.0790   79.6360  218.8910 C   0  0  0  0  0  0  0  0  0  0  0  0
  141.7530   81.2850  218.3860 Cl  0  0  0  0  0  0  0  0  0  0  0  0
  142.5970   78.7150  217.9770 C   0  0  0  0  0  0  0  0  0  0  0  0
  142.8074   79.0271  216.9434 H   0  0  0  0  0  0  0  0  0  0  0  0
  142.8490   77.3960  218.3730 C   0  0  0  0  0  0  0  0  0  0  0  0
  143.5140   76.2640  217.2050 Cl  0  0  0  0  0  0  0  0  0  0  0  0
  1  2  1  0
  2  3  1  0
  3  4  1  0
  4  5  1  0
  5  6  2  0
  6  7  1  0
  6  8  1  0
  8  9  2  0
  9 10  1  0
  9 11  1  0
 11 12  2  0
 12 13  1  0
 12 14  1  0
 14 15  1  0
 14 16  2  0
 16 17  1  0
  3 18  2  0
 18 19  1  0
 18 20  1  0
 20 21  1  0
 20 22  1  0
 20 23  1  0
 23 24  1  0
 23 25  1  0
 23 26  1  0
 26 27  1  0
 27 28  2  0
 28 29  1  0
 28 30  1  0
 30 31  1  0
 30 32  2  0
 32 33  1  0
 32 34  1  0
 34 35  1  0
 34 36  2  0
 36 37  1  0
 16  8  1  0
 36 27  1  0
M  CHG  1   4  -1
M  END
>  <UniqueID>  (6) 
13

>  <SMILES>  (6) 
O/C(=C/CCOc1ccc(Cl)cc1Cl)[N-]/N=C/c1cccnc1F

>  <Energy>  (6) 
41.101158770473404

>  <Genealogy>  (6) 
O=C(CCCOc1ccc(Cl)cc1Cl)[N-]N=Cc1cccnc1F (protonated)
OC(=CCCOc1ccc(Cl)cc1Cl)[N-]N=Cc1cccnc1F (tautomer)
O/C(=C/CCOc1ccc(Cl)cc1Cl)[N-]/N=C/c1cccnc1F (cis-trans isomerization)
O/C(=C/CCOc1ccc(Cl)cc1Cl)[N-]/N=C/c1cccnc1F (3D coordinates assigned)
O/C(=C/CCOc1ccc(Cl)cc1Cl)[N-]/N=C/c1cccnc1F (optimized conformer: 41.101158770473404 kcal/mol)

>  <smiles>  (6) 
O=C(CCCOc1ccc(Cl)cc1Cl)NN=Cc1cccnc1F

>  <score_type>  (6) 
oracle

>  <origin>  (6) 
autodockgpu

>  <m_score__min__energy>  (6) 
-6.6399999999999997

>  <m_primary>  (6) 
energy

>  <meeko>  (6) 
{"free_energy": -3.89, "intermolecular_energy": -6.87, "internal_energy": -2.22, "cluster_size": 1, "cluster_id": 8, "rank_in_cluster": 1}

>  <energy>  (6) 
-6.61

>  <cluster_rmsd>  (6) 
0.0

>  <rmsd>  (6) 
271.06

>  <cluster>  (6) 
2

$$$$
QFPZKQQOUZJSQV-AZXADDSMNA-N
     RDKit          3D

 37 38  0  0  0  0  0  0  0  0999 V2000
  138.8200   74.4980  223.0860 H   0  0  0  0  0  0  0  0  0  0  0  0
  139.3910   74.8900  222.3470 O   0  0  0  0  0  0  0  0  0  0  0  0
  140.9220   74.6110  220.5990 C   0  0  0  0  0  0  0  0  0  0  0  0
  140.7970   72.9180  222.3870 N   0  0  0  0  0  0  0  0  0  0  0  0
  140.1180   72.2860  223.4380 N   0  0  0  0  0  0  0  0  0  0  0  0
  140.3980   74.1400  221.7450 C   0  0  0  0  0  0  0  0  0  0  0  0
  140.5233   74.1926  219.6630 H   0  0  0  0  0  0  0  0  0  0  0  0
  140.5220   71.0200  225.4790 C   0  0  0  0  0  0  0  0  0  0  0  0
  139.8080   69.9320  226.0210 C   0  0  0  0  0  0  0  0  0  0  0  0
  139.1740   69.0400  225.2250 F   0  0  0  0  0  0  0  0  0  0  0  0
  139.7490   69.7590  227.3700 N   0  0  0  0  0  0  0  0  0  0  0  0
  140.3750   70.6010  228.2310 C   0  0  0  0  0  0  0  0  0  0  0  0
  140.3173   70.4216  229.3147 H   0  0  0  0  0  0  0  0  0  0  0  0
  141.0910   71.6930  227.7430 C   0  0  0  0  0  0  0  0  0  0  0  0
  141.5905   72.3854  228.4366 H   0  0  0  0  0  0  0  0  0  0  0  0
  141.1670   71.8980  226.3650 C   0  0  0  0  0  0  0  0  0  0  0  0
  141.7358   72.7528  225.9702 H   0  0  0  0  0  0  0  0  0  0  0  0
  140.6500   71.2590  224.0230 C   0  0  0  0  0  0  0  0  0  0  0  0
  141.2174   70.5384  223.4157 H   0  0  0  0  0  0  0  0  0  0  0  0
  141.9970   75.6510  220.4710 C   0  0  0  0  0  0  0  0  0  0  0  0
  142.7641   75.4634  221.2367 H   0  0  0  0  0  0  0  0  0  0  0  0
  142.4169   75.5789  219.4569 H   0  0  0  0  0  0  0  0  0  0  0  0
  141.4500   77.0820  220.6560 C   0  0  0  0  0  0  0  0  0  0  0  0
  142.0830   77.7849  220.0945 H   0  0  0  0  0  0  0  0  0  0  0  0
  140.4158   77.1139  220.2827 H   0  0  0  0  0  0  0  0  0  0  0  0
  141.4490   77.4530  222.0360 O   0  0  0  0  0  0  0  0  0  0  0  0
  140.5290   78.3260  222.6400 C   0  0  0  0  0  0  0  0  0  0  0  0
  139.1470   78.0430  222.6990 C   0  0  0  0  0  0  0  0  0  0  0  0
  138.7600   77.1095  222.2646 H   0  0  0  0  0  0  0  0  0  0  0  0
  138.2690   78.9440  223.3070 C   0  0  0  0  0  0  0  0  0  0  0  0
  137.1954   78.7107  223.3618 H   0  0  0  0  0  0  0  0  0  0  0  0
  138.7500   80.1410  223.8460 C   0  0  0  0  0  0  0  0  0  0  0  0
  137.6390   81.2810  224.5850 Cl  0  0  0  0  0  0  0  0  0  0  0  0
  140.1150   80.4310  223.7910 C   0  0  0  0  0  0  0  0  0  0  0  0
  140.4935   81.3710  224.2189 H   0  0  0  0  0  0  0  0  0  0  0  0
  141.0030   79.5290  223.1930 C   0  0  0  0  0  0  0  0  0  0  0  0
  142.7170   79.9140  223.1530 Cl  0  0  0  0  0  0  0  0  0  0  0  0
  1  2  1  0
  2  3  1  0
  3  4  1  0
  4  5  1  0
  5  6  2  0
  6  7  1  0
  6  8  1  0
  8  9  2  0
  9 10  1  0
  9 11  1  0
 11 12  2  0
 12 13  1  0
 12 14  1  0
 14 15  1  0
 14 16  2  0
 16 17  1  0
  3 18  2  0
 18 19  1  0
 18 20  1  0
 20 21  1  0
 20 22  1  0
 20 23  1  0
 23 24  1  0
 23 25  1  0
 23 26  1  0
 26 27  1  0
 27 28  2  0
 28 29  1  0
 28 30  1  0
 30 31  1  0
 30 32  2  0
 32 33  1  0
 32 34  1  0
 34 35  1  0
 34 36  2  0
 36 37  1  0
 16  8  1  0
 36 27  1  0
M  CHG  1   4  -1
M  END
>  <UniqueID>  (7) 
13

>  <SMILES>  (7) 
O/C(=C/CCOc1ccc(Cl)cc1Cl)[N-]/N=C/c1cccnc1F

>  <Energy>  (7) 
41.101158770473404

>  <Genealogy>  (7) 
O=C(CCCOc1ccc(Cl)cc1Cl)[N-]N=Cc1cccnc1F (protonated)
OC(=CCCOc1ccc(Cl)cc1Cl)[N-]N=Cc1cccnc1F (tautomer)
O/C(=C/CCOc1ccc(Cl)cc1Cl)[N-]/N=C/c1cccnc1F (cis-trans isomerization)
O/C(=C/CCOc1ccc(Cl)cc1Cl)[N-]/N=C/c1cccnc1F (3D coordinates assigned)
O/C(=C/CCOc1ccc(Cl)cc1Cl)[N-]/N=C/c1cccnc1F (optimized conformer: 41.101158770473404 kcal/mol)

>  <smiles>  (7) 
O=C(CCCOc1ccc(Cl)cc1Cl)NN=Cc1cccnc1F

>  <score_type>  (7) 
oracle

>  <origin>  (7) 
autodockgpu

>  <m_score__min__energy>  (7) 
-6.6399999999999997

>  <m_primary>  (7) 
energy

>  <meeko>  (7) 
{"free_energy": -6.58, "intermolecular_energy": -9.56, "internal_energy": -0.68, "cluster_size": 5, "cluster_id": 2, "rank_in_cluster": 2}

>  <energy>  (7) 
-6.58

>  <cluster_rmsd>  (7) 
1.62

>  <rmsd>  (7) 
271.2

>  <cluster>  (7) 
2

$$$$
QFPZKQQOUZJSQV-AZXADDSMNA-N
     RDKit          3D

 37 38  0  0  0  0  0  0  0  0999 V2000
  139.1740   73.5320  223.0970 H   0  0  0  0  0  0  0  0  0  0  0  0
  139.2700   74.1930  222.3370 O   0  0  0  0  0  0  0  0  0  0  0  0
  141.0450   73.2550  221.1330 C   0  0  0  0  0  0  0  0  0  0  0  0
  141.0510   75.6720  221.6230 N   0  0  0  0  0  0  0  0  0  0  0  0
  141.0630   76.5980  222.6750 N   0  0  0  0  0  0  0  0  0  0  0  0
  140.4840   74.3520  221.6740 C   0  0  0  0  0  0  0  0  0  0  0  0
  141.3948   73.3390  220.0935 H   0  0  0  0  0  0  0  0  0  0  0  0
  141.0520   79.0150  222.9780 C   0  0  0  0  0  0  0  0  0  0  0  0
  140.2870   80.1060  223.4380 C   0  0  0  0  0  0  0  0  0  0  0  0
  138.9360   80.0470  223.4870 F   0  0  0  0  0  0  0  0  0  0  0  0
  140.9040   81.2480  223.8480 N   0  0  0  0  0  0  0  0  0  0  0  0
  142.2560   81.3750  223.8450 C   0  0  0  0  0  0  0  0  0  0  0  0
  142.7210   82.3075  224.1973 H   0  0  0  0  0  0  0  0  0  0  0  0
  143.0550   80.3250  223.3960 C   0  0  0  0  0  0  0  0  0  0  0  0
  144.1501   80.4272  223.3801 H   0  0  0  0  0  0  0  0  0  0  0  0
  142.4510   79.1430  222.9670 C   0  0  0  0  0  0  0  0  0  0  0  0
  143.0738   78.3062  222.6180 H   0  0  0  0  0  0  0  0  0  0  0  0
  140.4530   77.7340  222.5390 C   0  0  0  0  0  0  0  0  0  0  0  0
  139.4532   77.7466  222.0804 H   0  0  0  0  0  0  0  0  0  0  0  0
  141.2410   71.9280  221.8070 C   0  0  0  0  0  0  0  0  0  0  0  0
  141.7605   71.2516  221.1123 H   0  0  0  0  0  0  0  0  0  0  0  0
  141.8317   72.0978  222.7193 H   0  0  0  0  0  0  0  0  0  0  0  0
  139.9040   71.2800  222.2240 C   0  0  0  0  0  0  0  0  0  0  0  0
  139.1176   71.5929  221.5214 H   0  0  0  0  0  0  0  0  0  0  0  0
  140.0229   70.1866  222.2059 H   0  0  0  0  0  0  0  0  0  0  0  0
  139.5350   71.6770  223.5460 O   0  0  0  0  0  0  0  0  0  0  0  0
  139.8510   70.9740  224.7210 C   0  0  0  0  0  0  0  0  0  0  0  0
  140.7710   71.4670  225.6700 C   0  0  0  0  0  0  0  0  0  0  0  0
  141.2660   72.4348  225.5016 H   0  0  0  0  0  0  0  0  0  0  0  0
  141.0560   70.7310  226.8230 C   0  0  0  0  0  0  0  0  0  0  0  0
  141.7627   71.1285  227.5664 H   0  0  0  0  0  0  0  0  0  0  0  0
  140.4460   69.4910  227.0350 C   0  0  0  0  0  0  0  0  0  0  0  0
  140.8280   68.5580  228.4720 Cl  0  0  0  0  0  0  0  0  0  0  0  0
  139.5350   68.9930  226.1000 C   0  0  0  0  0  0  0  0  0  0  0  0
  139.0516   68.0195  226.2695 H   0  0  0  0  0  0  0  0  0  0  0  0
  139.2360   69.7300  224.9480 C   0  0  0  0  0  0  0  0  0  0  0  0
  138.0750   69.0850  223.7980 Cl  0  0  0  0  0  0  0  0  0  0  0  0
  1  2  1  0
  2  3  1  0
  3  4  1  0
  4  5  1  0
  5  6  2  0
  6  7  1  0
  6  8  1  0
  8  9  2  0
  9 10  1  0
  9 11  1  0
 11 12  2  0
 12 13  1  0
 12 14  1  0
 14 15  1  0
 14 16  2  0
 16 17  1  0
  3 18  2  0
 18 19  1  0
 18 20  1  0
 20 21  1  0
 20 22  1  0
 20 23  1  0
 23 24  1  0
 23 25  1  0
 23 26  1  0
 26 27  1  0
 27 28  2  0
 28 29  1  0
 28 30  1  0
 30 31  1  0
 30 32  2  0
 32 33  1  0
 32 34  1  0
 34 35  1  0
 34 36  2  0
 36 37  1  0
 16  8  1  0
 36 27  1  0
M  CHG  1   4  -1
M  END
>  <UniqueID>  (8) 
13

>  <SMILES>  (8) 
O/C(=C/CCOc1ccc(Cl)cc1Cl)[N-]/N=C/c1cccnc1F

>  <Energy>  (8) 
41.101158770473404

>  <Genealogy>  (8) 
O=C(CCCOc1ccc(Cl)cc1Cl)[N-]N=Cc1cccnc1F (protonated)
OC(=CCCOc1ccc(Cl)cc1Cl)[N-]N=Cc1cccnc1F (tautomer)
O/C(=C/CCOc1ccc(Cl)cc1Cl)[N-]/N=C/c1cccnc1F (cis-trans isomerization)
O/C(=C/CCOc1ccc(Cl)cc1Cl)[N-]/N=C/c1cccnc1F (3D coordinates assigned)
O/C(=C/CCOc1ccc(Cl)cc1Cl)[N-]/N=C/c1cccnc1F (optimized conformer: 41.101158770473404 kcal/mol)

>  <smiles>  (8) 
O=C(CCCOc1ccc(Cl)cc1Cl)NN=Cc1cccnc1F

>  <score_type>  (8) 
oracle

>  <origin>  (8) 
autodockgpu

>  <m_score__min__energy>  (8) 
-6.6399999999999997

>  <m_primary>  (8) 
energy

>  <meeko>  (8) 
{"free_energy": -6.39, "intermolecular_energy": -9.37, "internal_energy": -1.04, "cluster_size": 2, "cluster_id": 3, "rank_in_cluster": 1}

>  <energy>  (8) 
-6.45

>  <cluster_rmsd>  (8) 
1.41

>  <rmsd>  (8) 
271.08

>  <cluster>  (8) 
2

$$$$
QFPZKQQOUZJSQV-AZXADDSMNA-N
     RDKit          3D

 37 38  0  0  0  0  0  0  0  0999 V2000
  139.1790   74.0720  222.8360 H   0  0  0  0  0  0  0  0  0  0  0  0
  139.0450   73.1830  222.3700 O   0  0  0  0  0  0  0  0  0  0  0  0
  140.5510   72.7160  220.6400 C   0  0  0  0  0  0  0  0  0  0  0  0
  140.7160   71.4740  222.7640 N   0  0  0  0  0  0  0  0  0  0  0  0
  140.7730   71.5530  224.1620 N   0  0  0  0  0  0  0  0  0  0  0  0
  140.1300   72.4540  221.8910 C   0  0  0  0  0  0  0  0  0  0  0  0
  140.4124   71.9199  219.8937 H   0  0  0  0  0  0  0  0  0  0  0  0
  140.3490   70.1570  226.1120 C   0  0  0  0  0  0  0  0  0  0  0  0
  140.8920   70.8140  227.2360 C   0  0  0  0  0  0  0  0  0  0  0  0
  141.0880   72.1520  227.2420 F   0  0  0  0  0  0  0  0  0  0  0  0
  141.2280   70.1010  228.3460 N   0  0  0  0  0  0  0  0  0  0  0  0
  141.0440   68.7580  228.4210 C   0  0  0  0  0  0  0  0  0  0  0  0
  141.3143   68.2169  229.3398 H   0  0  0  0  0  0  0  0  0  0  0  0
  140.5130   68.0640  227.3350 C   0  0  0  0  0  0  0  0  0  0  0  0
  140.3724   66.9742  227.3862 H   0  0  0  0  0  0  0  0  0  0  0  0
  140.1620   68.7670  226.1830 C   0  0  0  0  0  0  0  0  0  0  0  0
  139.7355   68.2288  225.3236 H   0  0  0  0  0  0  0  0  0  0  0  0
  139.9390   70.8670  224.8790 C   0  0  0  0  0  0  0  0  0  0  0  0
  138.8879   70.8102  224.5597 H   0  0  0  0  0  0  0  0  0  0  0  0
  141.1910   73.9870  220.1620 C   0  0  0  0  0  0  0  0  0  0  0  0
  142.1188   73.7363  219.6269 H   0  0  0  0  0  0  0  0  0  0  0  0
  140.4732   74.4983  219.5038 H   0  0  0  0  0  0  0  0  0  0  0  0
  141.5310   74.9440  221.3230 C   0  0  0  0  0  0  0  0  0  0  0  0
  142.2035   74.4318  222.0268 H   0  0  0  0  0  0  0  0  0  0  0  0
  142.0178   75.8395  220.9093 H   0  0  0  0  0  0  0  0  0  0  0  0
  140.3480   75.3460  222.0150 O   0  0  0  0  0  0  0  0  0  0  0  0
  140.0570   76.6570  222.4290 C   0  0  0  0  0  0  0  0  0  0  0  0
  141.0670   77.6050  222.6980 C   0  0  0  0  0  0  0  0  0  0  0  0
  142.1248   77.3262  222.5822 H   0  0  0  0  0  0  0  0  0  0  0  0
  140.7290   78.8970  223.1110 C   0  0  0  0  0  0  0  0  0  0  0  0
  141.5211   79.6354  223.3044 H   0  0  0  0  0  0  0  0  0  0  0  0
  139.3880   79.2540  223.2790 C   0  0  0  0  0  0  0  0  0  0  0  0
  138.9710   80.8690  223.8240 Cl  0  0  0  0  0  0  0  0  0  0  0  0
  138.3810   78.3220  223.0180 C   0  0  0  0  0  0  0  0  0  0  0  0
  137.3257   78.6042  223.1468 H   0  0  0  0  0  0  0  0  0  0  0  0
  138.7110   77.0300  222.5930 C   0  0  0  0  0  0  0  0  0  0  0  0
  137.4210   75.8840  222.2580 Cl  0  0  0  0  0  0  0  0  0  0  0  0
  1  2  1  0
  2  3  1  0
  3  4  1  0
  4  5  1  0
  5  6  2  0
  6  7  1  0
  6  8  1  0
  8  9  2  0
  9 10  1  0
  9 11  1  0
 11 12  2  0
 12 13  1  0
 12 14  1  0
 14 15  1  0
 14 16  2  0
 16 17  1  0
  3 18  2  0
 18 19  1  0
 18 20  1  0
 20 21  1  0
 20 22  1  0
 20 23  1  0
 23 24  1  0
 23 25  1  0
 23 26  1  0
 26 27  1  0
 27 28  2  0
 28 29  1  0
 28 30  1  0
 30 31  1  0
 30 32  2  0
 32 33  1  0
 32 34  1  0
 34 35  1  0
 34 36  2  0
 36 37  1  0
 16  8  1  0
 36 27  1  0
M  CHG  1   4  -1
M  END
>  <UniqueID>  (9) 
13

>  <SMILES>  (9) 
O/C(=C/CCOc1ccc(Cl)cc1Cl)[N-]/N=C/c1cccnc1F

>  <Energy>  (9) 
41.101158770473404

>  <Genealogy>  (9) 
O=C(CCCOc1ccc(Cl)cc1Cl)[N-]N=Cc1cccnc1F (protonated)
OC(=CCCOc1ccc(Cl)cc1Cl)[N-]N=Cc1cccnc1F (tautomer)
O/C(=C/CCOc1ccc(Cl)cc1Cl)[N-]/N=C/c1cccnc1F (cis-trans isomerization)
O/C(=C/CCOc1ccc(Cl)cc1Cl)[N-]/N=C/c1cccnc1F (3D coordinates assigned)
O/C(=C/CCOc1ccc(Cl)cc1Cl)[N-]/N=C/c1cccnc1F (optimized conformer: 41.101158770473404 kcal/mol)

>  <smiles>  (9) 
O=C(CCCOc1ccc(Cl)cc1Cl)NN=Cc1cccnc1F

>  <score_type>  (9) 
oracle

>  <origin>  (9) 
autodockgpu

>  <m_score__min__energy>  (9) 
-6.6399999999999997

>  <m_primary>  (9) 
energy

>  <meeko>  (9) 
{"free_energy": -5.61, "intermolecular_energy": -8.6, "internal_energy": -1.06, "cluster_size": 1, "cluster_id": 6, "rank_in_cluster": 1}

>  <energy>  (9) 
-6.0

>  <cluster_rmsd>  (9) 
1.32

>  <rmsd>  (9) 
270.89

>  <cluster>  (9) 
2

$$$$
QFPZKQQOUZJSQV-AZXADDSMNA-N
     RDKit          3D

 37 38  0  0  0  0  0  0  0  0999 V2000
  146.4120   71.9590  221.8720 H   0  0  0  0  0  0  0  0  0  0  0  0
  146.5740   72.7480  221.2590 O   0  0  0  0  0  0  0  0  0  0  0  0
  145.6940   73.0400  220.2200 C   0  0  0  0  0  0  0  0  0  0  0  0
  146.2070   73.0040  218.8790 N   0  0  0  0  0  0  0  0  0  0  0  0
  145.5960   72.3750  217.7850 N   0  0  0  0  0  0  0  0  0  0  0  0
  145.9250   71.1600  217.4760 C   0  0  0  0  0  0  0  0  0  0  0  0
  146.5501   70.9905  216.5868 H   0  0  0  0  0  0  0  0  0  0  0  0
  145.4910   69.9920  218.2750 C   0  0  0  0  0  0  0  0  0  0  0  0
  146.2440   69.4690  219.3470 C   0  0  0  0  0  0  0  0  0  0  0  0
  147.4350   70.0060  219.6980 F   0  0  0  0  0  0  0  0  0  0  0  0
  145.7760   68.4050  220.0550 N   0  0  0  0  0  0  0  0  0  0  0  0
  144.5810   67.8240  219.7730 C   0  0  0  0  0  0  0  0  0  0  0  0
  144.2278   66.9740  220.3754 H   0  0  0  0  0  0  0  0  0  0  0  0
  143.8020   68.3030  218.7220 C   0  0  0  0  0  0  0  0  0  0  0  0
  142.8387   67.8287  218.4828 H   0  0  0  0  0  0  0  0  0  0  0  0
  144.2570   69.3910  217.9760 C   0  0  0  0  0  0  0  0  0  0  0  0
  143.6456   69.7805  217.1487 H   0  0  0  0  0  0  0  0  0  0  0  0
  144.4210   73.3300  220.5470 C   0  0  0  0  0  0  0  0  0  0  0  0
  144.2363   73.6531  221.5821 H   0  0  0  0  0  0  0  0  0  0  0  0
  143.2280   73.2560  219.6380 C   0  0  0  0  0  0  0  0  0  0  0  0
  143.4123   72.4863  218.8741 H   0  0  0  0  0  0  0  0  0  0  0  0
  142.3503   73.0085  220.2532 H   0  0  0  0  0  0  0  0  0  0  0  0
  142.9470   74.5990  218.9320 C   0  0  0  0  0  0  0  0  0  0  0  0
  143.7698   75.2971  219.1457 H   0  0  0  0  0  0  0  0  0  0  0  0
  142.8681   74.4171  217.8500 H   0  0  0  0  0  0  0  0  0  0  0  0
  141.7200   75.1690  219.3890 O   0  0  0  0  0  0  0  0  0  0  0  0
  141.6030   76.1370  220.4000 C   0  0  0  0  0  0  0  0  0  0  0  0
  141.1230   75.8260  221.6910 C   0  0  0  0  0  0  0  0  0  0  0  0
  140.8282   74.7940  221.9319 H   0  0  0  0  0  0  0  0  0  0  0  0
  141.0210   76.8240  222.6640 C   0  0  0  0  0  0  0  0  0  0  0  0
  140.6599   76.5718  223.6720 H   0  0  0  0  0  0  0  0  0  0  0  0
  141.3760   78.1410  222.3610 C   0  0  0  0  0  0  0  0  0  0  0  0
  141.2200   79.3960  223.5780 Cl  0  0  0  0  0  0  0  0  0  0  0  0
  141.8510   78.4600  221.0860 C   0  0  0  0  0  0  0  0  0  0  0  0
  142.1351   79.4960  220.8496 H   0  0  0  0  0  0  0  0  0  0  0  0
  141.9660   77.4640  220.1090 C   0  0  0  0  0  0  0  0  0  0  0  0
  142.5800   77.8920  218.5190 Cl  0  0  0  0  0  0  0  0  0  0  0  0
  1  2  1  0
  2  3  1  0
  3  4  1  0
  4  5  1  0
  5  6  2  0
  6  7  1  0
  6  8  1  0
  8  9  2  0
  9 10  1  0
  9 11  1  0
 11 12  2  0
 12 13  1  0
 12 14  1  0
 14 15  1  0
 14 16  2  0
 16 17  1  0
  3 18  2  0
 18 19  1  0
 18 20  1  0
 20 21  1  0
 20 22  1  0
 20 23  1  0
 23 24  1  0
 23 25  1  0
 23 26  1  0
 26 27  1  0
 27 28  2  0
 28 29  1  0
 28 30  1  0
 30 31  1  0
 30 32  2  0
 32 33  1  0
 32 34  1  0
 34 35  1  0
 34 36  2  0
 36 37  1  0
 16  8  1  0
 36 27  1  0
M  CHG  1   4  -1
M  END
>  <UniqueID>  (10) 
13

>  <SMILES>  (10) 
O/C(=C/CCOc1ccc(Cl)cc1Cl)[N-]/N=C/c1cccnc1F

>  <Energy>  (10) 
41.101158770473404

>  <Genealogy>  (10) 
O=C(CCCOc1ccc(Cl)cc1Cl)[N-]N=Cc1cccnc1F (protonated)
OC(=CCCOc1ccc(Cl)cc1Cl)[N-]N=Cc1cccnc1F (tautomer)
O/C(=C/CCOc1ccc(Cl)cc1Cl)[N-]/N=C/c1cccnc1F (cis-trans isomerization)
O/C(=C/CCOc1ccc(Cl)cc1Cl)[N-]/N=C/c1cccnc1F (3D coordinates assigned)
O/C(=C/CCOc1ccc(Cl)cc1Cl)[N-]/N=C/c1cccnc1F (optimized conformer: 41.101158770473404 kcal/mol)

>  <smiles>  (10) 
O=C(CCCOc1ccc(Cl)cc1Cl)NN=Cc1cccnc1F

>  <score_type>  (10) 
oracle

>  <origin>  (10) 
autodockgpu

>  <m_score__min__energy>  (10) 
-6.6399999999999997

>  <m_primary>  (10) 
energy

>  <meeko>  (10) 
{"free_energy": -5.92, "intermolecular_energy": -8.9, "internal_energy": -0.84, "cluster_size": 5, "cluster_id": 1, "rank_in_cluster": 4}

>  <energy>  (10) 
-5.81

>  <cluster_rmsd>  (10) 
1.45

>  <rmsd>  (10) 
270.78

>  <cluster>  (10) 
2

$$$$
QFPZKQQOUZJSQV-AZXADDSMNA-N
     RDKit          3D

 37 38  0  0  0  0  0  0  0  0999 V2000
  139.0300   73.8060  222.7460 H   0  0  0  0  0  0  0  0  0  0  0  0
  139.6010   74.5830  222.4390 O   0  0  0  0  0  0  0  0  0  0  0  0
  140.8840   73.5850  220.7550 C   0  0  0  0  0  0  0  0  0  0  0  0
  139.8230   75.7720  220.3400 N   0  0  0  0  0  0  0  0  0  0  0  0
  139.8430   77.1050  220.7720 N   0  0  0  0  0  0  0  0  0  0  0  0
  140.1250   74.6240  221.1500 C   0  0  0  0  0  0  0  0  0  0  0  0
  141.1839   73.5647  219.6969 H   0  0  0  0  0  0  0  0  0  0  0  0
  141.4470   78.6630  221.7370 C   0  0  0  0  0  0  0  0  0  0  0  0
  142.0290   79.9280  221.5110 C   0  0  0  0  0  0  0  0  0  0  0  0
  142.1600   80.4290  220.2610 F   0  0  0  0  0  0  0  0  0  0  0  0
  142.4680   80.6740  222.5620 N   0  0  0  0  0  0  0  0  0  0  0  0
  142.3530   80.2450  223.8450 C   0  0  0  0  0  0  0  0  0  0  0  0
  142.7058   80.8809  224.6703 H   0  0  0  0  0  0  0  0  0  0  0  0
  141.7890   79.0010  224.1180 C   0  0  0  0  0  0  0  0  0  0  0  0
  141.7050   78.6441  225.1551 H   0  0  0  0  0  0  0  0  0  0  0  0
  141.3320   78.2130  223.0620 C   0  0  0  0  0  0  0  0  0  0  0  0
  140.8784   77.2324  223.2685 H   0  0  0  0  0  0  0  0  0  0  0  0
  140.9260   77.8060  220.6470 C   0  0  0  0  0  0  0  0  0  0  0  0
  141.4784   77.7629  219.6967 H   0  0  0  0  0  0  0  0  0  0  0  0
  141.3620   72.4510  221.6150 C   0  0  0  0  0  0  0  0  0  0  0  0
  142.0140   71.8008  221.0131 H   0  0  0  0  0  0  0  0  0  0  0  0
  141.9037   72.8817  222.4700 H   0  0  0  0  0  0  0  0  0  0  0  0
  140.1960   71.6070  222.1710 C   0  0  0  0  0  0  0  0  0  0  0  0
  139.3157   71.7394  221.5248 H   0  0  0  0  0  0  0  0  0  0  0  0
  140.5045   70.5513  222.1894 H   0  0  0  0  0  0  0  0  0  0  0  0
  139.8640   72.0080  223.5010 O   0  0  0  0  0  0  0  0  0  0  0  0
  140.0370   71.2220  224.6520 C   0  0  0  0  0  0  0  0  0  0  0  0
  141.0000   71.5280  225.6380 C   0  0  0  0  0  0  0  0  0  0  0  0
  141.6446   72.4113  225.5183 H   0  0  0  0  0  0  0  0  0  0  0  0
  141.1380   70.7140  226.7650 C   0  0  0  0  0  0  0  0  0  0  0  0
  141.8800   70.9675  227.5364 H   0  0  0  0  0  0  0  0  0  0  0  0
  140.3370   69.5790  226.9160 C   0  0  0  0  0  0  0  0  0  0  0  0
  140.5330   68.5450  228.3200 Cl  0  0  0  0  0  0  0  0  0  0  0  0
  139.3820   69.2660  225.9450 C   0  0  0  0  0  0  0  0  0  0  0  0
  138.7484   68.3750  226.0665 H   0  0  0  0  0  0  0  0  0  0  0  0
  139.2290   70.0820  224.8190 C   0  0  0  0  0  0  0  0  0  0  0  0
  138.0100   69.6710  223.6220 Cl  0  0  0  0  0  0  0  0  0  0  0  0
  1  2  1  0
  2  3  1  0
  3  4  1  0
  4  5  1  0
  5  6  2  0
  6  7  1  0
  6  8  1  0
  8  9  2  0
  9 10  1  0
  9 11  1  0
 11 12  2  0
 12 13  1  0
 12 14  1  0
 14 15  1  0
 14 16  2  0
 16 17  1  0
  3 18  2  0
 18 19  1  0
 18 20  1  0
 20 21  1  0
 20 22  1  0
 20 23  1  0
 23 24  1  0
 23 25  1  0
 23 26  1  0
 26 27  1  0
 27 28  2  0
 28 29  1  0
 28 30  1  0
 30 31  1  0
 30 32  2  0
 32 33  1  0
 32 34  1  0
 34 35  1  0
 34 36  2  0
 36 37  1  0
 16  8  1  0
 36 27  1  0
M  CHG  1   4  -1
M  END
>  <UniqueID>  (11) 
13

>  <SMILES>  (11) 
O/C(=C/CCOc1ccc(Cl)cc1Cl)[N-]/N=C/c1cccnc1F

>  <Energy>  (11) 
41.101158770473404

>  <Genealogy>  (11) 
O=C(CCCOc1ccc(Cl)cc1Cl)[N-]N=Cc1cccnc1F (protonated)
OC(=CCCOc1ccc(Cl)cc1Cl)[N-]N=Cc1cccnc1F (tautomer)
O/C(=C/CCOc1ccc(Cl)cc1Cl)[N-]/N=C/c1cccnc1F (cis-trans isomerization)
O/C(=C/CCOc1ccc(Cl)cc1Cl)[N-]/N=C/c1cccnc1F (3D coordinates assigned)
O/C(=C/CCOc1ccc(Cl)cc1Cl)[N-]/N=C/c1cccnc1F (optimized conformer: 41.101158770473404 kcal/mol)

>  <smiles>  (11) 
O=C(CCCOc1ccc(Cl)cc1Cl)NN=Cc1cccnc1F

>  <score_type>  (11) 
oracle

>  <origin>  (11) 
autodockgpu

>  <m_score__min__energy>  (11) 
-6.6399999999999997

>  <m_primary>  (11) 
energy

>  <meeko>  (11) 
{"free_energy": -5.99, "intermolecular_energy": -8.98, "internal_energy": -1.04, "cluster_size": 2, "cluster_id": 3, "rank_in_cluster": 2}

>  <energy>  (11) 
-6.39

>  <cluster_rmsd>  (11) 
0.0

>  <rmsd>  (11) 
271.17

>  <cluster>  (11) 
3

$$$$
QFPZKQQOUZJSQV-AZXADDSMNA-N
     RDKit          3D

 37 38  0  0  0  0  0  0  0  0999 V2000
  137.9620   73.0490  223.0350 H   0  0  0  0  0  0  0  0  0  0  0  0
  138.4250   73.2800  222.1650 O   0  0  0  0  0  0  0  0  0  0  0  0
  140.1500   74.7400  221.5530 C   0  0  0  0  0  0  0  0  0  0  0  0
  140.6940   72.6360  222.7190 N   0  0  0  0  0  0  0  0  0  0  0  0
  140.3550   71.3610  223.1920 N   0  0  0  0  0  0  0  0  0  0  0  0
  139.7840   73.5820  222.1350 C   0  0  0  0  0  0  0  0  0  0  0  0
  140.7366   75.4393  222.1669 H   0  0  0  0  0  0  0  0  0  0  0  0
  140.0340   70.7280  225.5220 C   0  0  0  0  0  0  0  0  0  0  0  0
  139.9980   69.3620  225.8700 C   0  0  0  0  0  0  0  0  0  0  0  0
  139.5110   68.4310  225.0180 F   0  0  0  0  0  0  0  0  0  0  0  0
  140.4650   68.9550  227.0820 N   0  0  0  0  0  0  0  0  0  0  0  0
  140.9860   69.8280  227.9830 C   0  0  0  0  0  0  0  0  0  0  0  0
  141.3662   69.4608  228.9477 H   0  0  0  0  0  0  0  0  0  0  0  0
  141.0390   71.1880  227.6860 C   0  0  0  0  0  0  0  0  0  0  0  0
  141.4493   71.9010  228.4163 H   0  0  0  0  0  0  0  0  0  0  0  0
  140.5660   71.6360  226.4520 C   0  0  0  0  0  0  0  0  0  0  0  0
  140.6101   72.7073  226.2061 H   0  0  0  0  0  0  0  0  0  0  0  0
  139.5670   71.2420  224.2140 C   0  0  0  0  0  0  0  0  0  0  0  0
  138.5119   71.5337  224.1059 H   0  0  0  0  0  0  0  0  0  0  0  0
  139.8370   75.1710  220.1500 C   0  0  0  0  0  0  0  0  0  0  0  0
  138.7747   75.4509  220.0944 H   0  0  0  0  0  0  0  0  0  0  0  0
  140.4895   76.0222  219.9055 H   0  0  0  0  0  0  0  0  0  0  0  0
  140.1110   74.0540  219.1200 C   0  0  0  0  0  0  0  0  0  0  0  0
  139.9885   73.0760  219.6083 H   0  0  0  0  0  0  0  0  0  0  0  0
  139.3987   74.1604  218.2886 H   0  0  0  0  0  0  0  0  0  0  0  0
  141.4370   74.1540  218.6000 O   0  0  0  0  0  0  0  0  0  0  0  0
  142.6150   73.9420  219.3370 C   0  0  0  0  0  0  0  0  0  0  0  0
  143.0170   72.6580  219.7620 C   0  0  0  0  0  0  0  0  0  0  0  0
  142.4005   71.7811  219.5149 H   0  0  0  0  0  0  0  0  0  0  0  0
  144.1960   72.4960  220.4960 C   0  0  0  0  0  0  0  0  0  0  0  0
  144.5114   71.4906  220.8116 H   0  0  0  0  0  0  0  0  0  0  0  0
  144.9750   73.6070  220.8300 C   0  0  0  0  0  0  0  0  0  0  0  0
  146.4400   73.4020  221.7750 Cl  0  0  0  0  0  0  0  0  0  0  0  0
  144.5840   74.8830  220.4150 C   0  0  0  0  0  0  0  0  0  0  0  0
  145.1997   75.7569  220.6745 H   0  0  0  0  0  0  0  0  0  0  0  0
  143.4110   75.0520  219.6700 C   0  0  0  0  0  0  0  0  0  0  0  0
  142.9540   76.6670  219.1490 Cl  0  0  0  0  0  0  0  0  0  0  0  0
  1  2  1  0
  2  3  1  0
  3  4  1  0
  4  5  1  0
  5  6  2  0
  6  7  1  0
  6  8  1  0
  8  9  2  0
  9 10  1  0
  9 11  1  0
 11 12  2  0
 12 13  1  0
 12 14  1  0
 14 15  1  0
 14 16  2  0
 16 17  1  0
  3 18  2  0
 18 19  1  0
 18 20  1  0
 20 21  1  0
 20 22  1  0
 20 23  1  0
 23 24  1  0
 23 25  1  0
 23 26  1  0
 26 27  1  0
 27 28  2  0
 28 29  1  0
 28 30  1  0
 30 31  1  0
 30 32  2  0
 32 33  1  0
 32 34  1  0
 34 35  1  0
 34 36  2  0
 36 37  1  0
 16  8  1  0
 36 27  1  0
M  CHG  1   4  -1
M  END
>  <UniqueID>  (12) 
13

>  <SMILES>  (12) 
O/C(=C/CCOc1ccc(Cl)cc1Cl)[N-]/N=C/c1cccnc1F

>  <Energy>  (12) 
41.101158770473404

>  <Genealogy>  (12) 
O=C(CCCOc1ccc(Cl)cc1Cl)[N-]N=Cc1cccnc1F (protonated)
OC(=CCCOc1ccc(Cl)cc1Cl)[N-]N=Cc1cccnc1F (tautomer)
O/C(=C/CCOc1ccc(Cl)cc1Cl)[N-]/N=C/c1cccnc1F (cis-trans isomerization)
O/C(=C/CCOc1ccc(Cl)cc1Cl)[N-]/N=C/c1cccnc1F (3D coordinates assigned)
O/C(=C/CCOc1ccc(Cl)cc1Cl)[N-]/N=C/c1cccnc1F (optimized conformer: 41.101158770473404 kcal/mol)

>  <smiles>  (12) 
O=C(CCCOc1ccc(Cl)cc1Cl)NN=Cc1cccnc1F

>  <score_type>  (12) 
oracle

>  <origin>  (12) 
autodockgpu

>  <m_score__min__energy>  (12) 
-6.6399999999999997

>  <m_primary>  (12) 
energy

>  <meeko>  (12) 
{"free_energy": -5.21, "intermolecular_energy": -8.2, "internal_energy": -0.89, "cluster_size": 2, "cluster_id": 7, "rank_in_cluster": 2}

>  <energy>  (12) 
-5.99

>  <cluster_rmsd>  (12) 
1.38

>  <rmsd>  (12) 
270.77

>  <cluster>  (12) 
3

$$$$
QFPZKQQOUZJSQV-AZXADDSMNA-N
     RDKit          3D

 37 38  0  0  0  0  0  0  0  0999 V2000
  139.2260   74.6590  223.1250 H   0  0  0  0  0  0  0  0  0  0  0  0
  139.8350   74.8880  222.3490 O   0  0  0  0  0  0  0  0  0  0  0  0
  141.2260   74.2490  220.5780 C   0  0  0  0  0  0  0  0  0  0  0  0
  140.5850   72.5860  222.2820 N   0  0  0  0  0  0  0  0  0  0  0  0
  140.0470   72.2360  223.5280 N   0  0  0  0  0  0  0  0  0  0  0  0
  140.5750   73.9020  221.7040 C   0  0  0  0  0  0  0  0  0  0  0  0
  140.8817   73.7835  219.6427 H   0  0  0  0  0  0  0  0  0  0  0  0
  140.4170   70.8630  225.5050 C   0  0  0  0  0  0  0  0  0  0  0  0
  140.0490   69.6550  226.1330 C   0  0  0  0  0  0  0  0  0  0  0  0
  139.5600   68.6130  225.4220 F   0  0  0  0  0  0  0  0  0  0  0  0
  140.1870   69.5170  227.4810 N   0  0  0  0  0  0  0  0  0  0  0  0
  140.6880   70.5120  228.2580 C   0  0  0  0  0  0  0  0  0  0  0  0
  140.7986   70.3599  229.3418 H   0  0  0  0  0  0  0  0  0  0  0  0
  141.0620   71.7250  227.6840 C   0  0  0  0  0  0  0  0  0  0  0  0
  141.4570   72.5383  228.3105 H   0  0  0  0  0  0  0  0  0  0  0  0
  140.9300   71.8970  226.3050 C   0  0  0  0  0  0  0  0  0  0  0  0
  141.2297   72.8487  225.8419 H   0  0  0  0  0  0  0  0  0  0  0  0
  140.3180   71.0780  224.0440 C   0  0  0  0  0  0  0  0  0  0  0  0
  140.4804   70.2233  223.3709 H   0  0  0  0  0  0  0  0  0  0  0  0
  142.3760   75.2090  220.4730 C   0  0  0  0  0  0  0  0  0  0  0  0
  142.5708   75.6379  221.4670 H   0  0  0  0  0  0  0  0  0  0  0  0
  143.2472   74.6514  220.0988 H   0  0  0  0  0  0  0  0  0  0  0  0
  142.0900   76.3580  219.4840 C   0  0  0  0  0  0  0  0  0  0  0  0
  143.0277   76.8927  219.2724 H   0  0  0  0  0  0  0  0  0  0  0  0
  141.6742   75.9305  218.5597 H   0  0  0  0  0  0  0  0  0  0  0  0
  141.1410   77.2760  220.0290 O   0  0  0  0  0  0  0  0  0  0  0  0
  141.4160   78.2340  221.0200 C   0  0  0  0  0  0  0  0  0  0  0  0
  141.3090   77.9460  222.3980 C   0  0  0  0  0  0  0  0  0  0  0  0
  141.0032   76.9414  222.7257 H   0  0  0  0  0  0  0  0  0  0  0  0
  141.5900   78.9320  223.3470 C   0  0  0  0  0  0  0  0  0  0  0  0
  141.5191   78.6966  224.4192 H   0  0  0  0  0  0  0  0  0  0  0  0
  141.9610   80.2170  222.9390 C   0  0  0  0  0  0  0  0  0  0  0  0
  142.2860   81.4590  224.1350 Cl  0  0  0  0  0  0  0  0  0  0  0  0
  142.0680   80.5120  221.5780 C   0  0  0  0  0  0  0  0  0  0  0  0
  142.3646   81.5216  221.2574 H   0  0  0  0  0  0  0  0  0  0  0  0
  141.7990   79.5270  220.6210 C   0  0  0  0  0  0  0  0  0  0  0  0
  141.9560   79.9240  218.9160 Cl  0  0  0  0  0  0  0  0  0  0  0  0
  1  2  1  0
  2  3  1  0
  3  4  1  0
  4  5  1  0
  5  6  2  0
  6  7  1  0
  6  8  1  0
  8  9  2  0
  9 10  1  0
  9 11  1  0
 11 12  2  0
 12 13  1  0
 12 14  1  0
 14 15  1  0
 14 16  2  0
 16 17  1  0
  3 18  2  0
 18 19  1  0
 18 20  1  0
 20 21  1  0
 20 22  1  0
 20 23  1  0
 23 24  1  0
 23 25  1  0
 23 26  1  0
 26 27  1  0
 27 28  2  0
 28 29  1  0
 28 30  1  0
 30 31  1  0
 30 32  2  0
 32 33  1  0
 32 34  1  0
 34 35  1  0
 34 36  2  0
 36 37  1  0
 16  8  1  0
 36 27  1  0
M  CHG  1   4  -1
M  END
>  <UniqueID>  (13) 
13

>  <SMILES>  (13) 
O/C(=C/CCOc1ccc(Cl)cc1Cl)[N-]/N=C/c1cccnc1F

>  <Energy>  (13) 
41.101158770473404

>  <Genealogy>  (13) 
O=C(CCCOc1ccc(Cl)cc1Cl)[N-]N=Cc1cccnc1F (protonated)
OC(=CCCOc1ccc(Cl)cc1Cl)[N-]N=Cc1cccnc1F (tautomer)
O/C(=C/CCOc1ccc(Cl)cc1Cl)[N-]/N=C/c1cccnc1F (cis-trans isomerization)
O/C(=C/CCOc1ccc(Cl)cc1Cl)[N-]/N=C/c1cccnc1F (3D coordinates assigned)
O/C(=C/CCOc1ccc(Cl)cc1Cl)[N-]/N=C/c1cccnc1F (optimized conformer: 41.101158770473404 kcal/mol)

>  <smiles>  (13) 
O=C(CCCOc1ccc(Cl)cc1Cl)NN=Cc1cccnc1F

>  <score_type>  (13) 
oracle

>  <origin>  (13) 
autodockgpu

>  <m_score__min__energy>  (13) 
-6.6399999999999997

>  <m_primary>  (13) 
energy

>  <meeko>  (13) 
{"free_energy": -6.61, "intermolecular_energy": -9.59, "internal_energy": -0.72, "cluster_size": 5, "cluster_id": 2, "rank_in_cluster": 1}

>  <energy>  (13) 
-5.94

>  <cluster_rmsd>  (13) 
0.0

>  <rmsd>  (13) 
270.06

>  <cluster>  (13) 
4

$$$$
QFPZKQQOUZJSQV-AZXADDSMNA-N
     RDKit          3D

 37 38  0  0  0  0  0  0  0  0999 V2000
  146.7680   74.5250  219.9770 H   0  0  0  0  0  0  0  0  0  0  0  0
  146.6240   73.5550  220.2260 O   0  0  0  0  0  0  0  0  0  0  0  0
  145.7350   72.7560  219.5110 C   0  0  0  0  0  0  0  0  0  0  0  0
  145.9490   72.6150  218.0980 N   0  0  0  0  0  0  0  0  0  0  0  0
  145.3720   71.6370  217.2760 N   0  0  0  0  0  0  0  0  0  0  0  0
  145.9580   70.4900  217.1330 C   0  0  0  0  0  0  0  0  0  0  0  0
  146.6776   70.3613  216.3111 H   0  0  0  0  0  0  0  0  0  0  0  0
  145.6940   69.3460  218.0360 C   0  0  0  0  0  0  0  0  0  0  0  0
  146.3300   69.1860  219.2850 C   0  0  0  0  0  0  0  0  0  0  0  0
  147.2470   70.0780  219.7260 F   0  0  0  0  0  0  0  0  0  0  0  0
  146.0240   68.1210  220.0750 N   0  0  0  0  0  0  0  0  0  0  0  0
  145.1010   67.1950  219.7080 C   0  0  0  0  0  0  0  0  0  0  0  0
  144.8685   66.3549  220.3790 H   0  0  0  0  0  0  0  0  0  0  0  0
  144.4480   67.3080  218.4820 C   0  0  0  0  0  0  0  0  0  0  0  0
  143.7080   66.5544  218.1747 H   0  0  0  0  0  0  0  0  0  0  0  0
  144.7430   68.3870  217.6490 C   0  0  0  0  0  0  0  0  0  0  0  0
  144.2276   68.4879  216.6825 H   0  0  0  0  0  0  0  0  0  0  0  0
  144.7400   72.1670  220.1990 C   0  0  0  0  0  0  0  0  0  0  0  0
  145.0272   71.5907  221.0909 H   0  0  0  0  0  0  0  0  0  0  0  0
  143.2760   72.2190  219.8690 C   0  0  0  0  0  0  0  0  0  0  0  0
  143.1563   72.6248  218.8536 H   0  0  0  0  0  0  0  0  0  0  0  0
  142.8777   71.1962  219.9419 H   0  0  0  0  0  0  0  0  0  0  0  0
  142.4850   73.1060  220.8550 C   0  0  0  0  0  0  0  0  0  0  0  0
  141.6941   72.5040  221.3262 H   0  0  0  0  0  0  0  0  0  0  0  0
  143.1794   73.4912  221.6162 H   0  0  0  0  0  0  0  0  0  0  0  0
  141.8890   74.2140  220.1780 O   0  0  0  0  0  0  0  0  0  0  0  0
  141.7240   75.5000  220.7190 C   0  0  0  0  0  0  0  0  0  0  0  0
  140.9510   75.7380  221.8750 C   0  0  0  0  0  0  0  0  0  0  0  0
  140.4556   74.8986  222.3850 H   0  0  0  0  0  0  0  0  0  0  0  0
  140.8120   77.0360  222.3750 C   0  0  0  0  0  0  0  0  0  0  0  0
  140.2209   77.2123  223.2858 H   0  0  0  0  0  0  0  0  0  0  0  0
  141.4220   78.1110  221.7210 C   0  0  0  0  0  0  0  0  0  0  0  0
  141.2230   79.7420  222.3370 Cl  0  0  0  0  0  0  0  0  0  0  0  0
  142.1880   77.8850  220.5750 C   0  0  0  0  0  0  0  0  0  0  0  0
  142.6728   78.7302  220.0644 H   0  0  0  0  0  0  0  0  0  0  0  0
  142.3410   76.5870  220.0740 C   0  0  0  0  0  0  0  0  0  0  0  0
  143.3220   76.3330  218.6390 Cl  0  0  0  0  0  0  0  0  0  0  0  0
  1  2  1  0
  2  3  1  0
  3  4  1  0
  4  5  1  0
  5  6  2  0
  6  7  1  0
  6  8  1  0
  8  9  2  0
  9 10  1  0
  9 11  1  0
 11 12  2  0
 12 13  1  0
 12 14  1  0
 14 15  1  0
 14 16  2  0
 16 17  1  0
  3 18  2  0
 18 19  1  0
 18 20  1  0
 20 21  1  0
 20 22  1  0
 20 23  1  0
 23 24  1  0
 23 25  1  0
 23 26  1  0
 26 27  1  0
 27 28  2  0
 28 29  1  0
 28 30  1  0
 30 31  1  0
 30 32  2  0
 32 33  1  0
 32 34  1  0
 34 35  1  0
 34 36  2  0
 36 37  1  0
 16  8  1  0
 36 27  1  0
M  CHG  1   4  -1
M  END
>  <UniqueID>  (14) 
13

>  <SMILES>  (14) 
O/C(=C/CCOc1ccc(Cl)cc1Cl)[N-]/N=C/c1cccnc1F

>  <Energy>  (14) 
41.101158770473404

>  <Genealogy>  (14) 
O=C(CCCOc1ccc(Cl)cc1Cl)[N-]N=Cc1cccnc1F (protonated)
OC(=CCCOc1ccc(Cl)cc1Cl)[N-]N=Cc1cccnc1F (tautomer)
O/C(=C/CCOc1ccc(Cl)cc1Cl)[N-]/N=C/c1cccnc1F (cis-trans isomerization)
O/C(=C/CCOc1ccc(Cl)cc1Cl)[N-]/N=C/c1cccnc1F (3D coordinates assigned)
O/C(=C/CCOc1ccc(Cl)cc1Cl)[N-]/N=C/c1cccnc1F (optimized conformer: 41.101158770473404 kcal/mol)

>  <smiles>  (14) 
O=C(CCCOc1ccc(Cl)cc1Cl)NN=Cc1cccnc1F

>  <score_type>  (14) 
oracle

>  <origin>  (14) 
autodockgpu

>  <m_score__min__energy>  (14) 
-6.6399999999999997

>  <m_primary>  (14) 
energy

>  <meeko>  (14) 
{"free_energy": -5.77, "intermolecular_energy": -8.76, "internal_energy": -0.77, "cluster_size": 5, "cluster_id": 1, "rank_in_cluster": 5}

>  <energy>  (14) 
-5.74

>  <cluster_rmsd>  (14) 
0.92

>  <rmsd>  (14) 
270.2

>  <cluster>  (14) 
4

$$$$
QFPZKQQOUZJSQV-AZXADDSMNA-N
     RDKit          3D

 37 38  0  0  0  0  0  0  0  0999 V2000
  139.3490   73.6670  222.7410 H   0  0  0  0  0  0  0  0  0  0  0  0
  140.0130   74.3200  222.3420 O   0  0  0  0  0  0  0  0  0  0  0  0
  141.0670   72.7650  220.9450 C   0  0  0  0  0  0  0  0  0  0  0  0
  140.8790   75.1160  220.2250 N   0  0  0  0  0  0  0  0  0  0  0  0
  142.1250   75.6070  219.8100 N   0  0  0  0  0  0  0  0  0  0  0  0
  140.6690   74.0350  221.1480 C   0  0  0  0  0  0  0  0  0  0  0  0
  141.5070   72.5347  219.9635 H   0  0  0  0  0  0  0  0  0  0  0  0
  144.0340   74.1430  219.4330 C   0  0  0  0  0  0  0  0  0  0  0  0
  144.8570   73.4170  218.5470 C   0  0  0  0  0  0  0  0  0  0  0  0
  144.5940   73.3710  217.2210 F   0  0  0  0  0  0  0  0  0  0  0  0
  145.9440   72.7480  219.0200 N   0  0  0  0  0  0  0  0  0  0  0  0
  146.2830   72.7640  220.3350 C   0  0  0  0  0  0  0  0  0  0  0  0
  147.1777   72.2241  220.6787 H   0  0  0  0  0  0  0  0  0  0  0  0
  145.4980   73.4640  221.2490 C   0  0  0  0  0  0  0  0  0  0  0  0
  145.7604   73.4700  222.3172 H   0  0  0  0  0  0  0  0  0  0  0  0
  144.3760   74.1570  220.7950 C   0  0  0  0  0  0  0  0  0  0  0  0
  143.7548   74.7183  221.5085 H   0  0  0  0  0  0  0  0  0  0  0  0
  142.8500   74.9130  218.9900 C   0  0  0  0  0  0  0  0  0  0  0  0
  142.5752   74.8955  217.9250 H   0  0  0  0  0  0  0  0  0  0  0  0
  140.9700   71.6320  221.9250 C   0  0  0  0  0  0  0  0  0  0  0  0
  141.4069   70.7313  221.4691 H   0  0  0  0  0  0  0  0  0  0  0  0
  141.5144   71.9258  222.8346 H   0  0  0  0  0  0  0  0  0  0  0  0
  139.5110   71.3280  222.3250 C   0  0  0  0  0  0  0  0  0  0  0  0
  138.8324   71.8818  221.6596 H   0  0  0  0  0  0  0  0  0  0  0  0
  139.3400   70.2452  222.2336 H   0  0  0  0  0  0  0  0  0  0  0  0
  139.2610   71.7170  223.6770 O   0  0  0  0  0  0  0  0  0  0  0  0
  139.6670   71.0000  224.8150 C   0  0  0  0  0  0  0  0  0  0  0  0
  140.6980   71.4550  225.6650 C   0  0  0  0  0  0  0  0  0  0  0  0
  141.2110   72.4030  225.4457 H   0  0  0  0  0  0  0  0  0  0  0  0
  141.0690   70.7050  226.7840 C   0  0  0  0  0  0  0  0  0  0  0  0
  141.8629   71.0726  227.4507 H   0  0  0  0  0  0  0  0  0  0  0  0
  140.4360   69.4900  227.0600 C   0  0  0  0  0  0  0  0  0  0  0  0
  140.9250   68.5390  228.4510 Cl  0  0  0  0  0  0  0  0  0  0  0  0
  139.4160   69.0310  226.2230 C   0  0  0  0  0  0  0  0  0  0  0  0
  138.9150   68.0766  226.4425 H   0  0  0  0  0  0  0  0  0  0  0  0
  139.0290   69.7810  225.1060 C   0  0  0  0  0  0  0  0  0  0  0  0
  137.7330   69.1840  224.0810 Cl  0  0  0  0  0  0  0  0  0  0  0  0
  1  2  1  0
  2  3  1  0
  3  4  1  0
  4  5  1  0
  5  6  2  0
  6  7  1  0
  6  8  1  0
  8  9  2  0
  9 10  1  0
  9 11  1  0
 11 12  2  0
 12 13  1  0
 12 14  1  0
 14 15  1  0
 14 16  2  0
 16 17  1  0
  3 18  2  0
 18 19  1  0
 18 20  1  0
 20 21  1  0
 20 22  1  0
 20 23  1  0
 23 24  1  0
 23 25  1  0
 23 26  1  0
 26 27  1  0
 27 28  2  0
 28 29  1  0
 28 30  1  0
 30 31  1  0
 30 32  2  0
 32 33  1  0
 32 34  1  0
 34 35  1  0
 34 36  2  0
 36 37  1  0
 16  8  1  0
 36 27  1  0
M  CHG  1   4  -1
M  END
>  <UniqueID>  (15) 
13

>  <SMILES>  (15) 
O/C(=C/CCOc1ccc(Cl)cc1Cl)[N-]/N=C/c1cccnc1F

>  <Energy>  (15) 
41.101158770473404

>  <Genealogy>  (15) 
O=C(CCCOc1ccc(Cl)cc1Cl)[N-]N=Cc1cccnc1F (protonated)
OC(=CCCOc1ccc(Cl)cc1Cl)[N-]N=Cc1cccnc1F (tautomer)
O/C(=C/CCOc1ccc(Cl)cc1Cl)[N-]/N=C/c1cccnc1F (cis-trans isomerization)
O/C(=C/CCOc1ccc(Cl)cc1Cl)[N-]/N=C/c1cccnc1F (3D coordinates assigned)
O/C(=C/CCOc1ccc(Cl)cc1Cl)[N-]/N=C/c1cccnc1F (optimized conformer: 41.101158770473404 kcal/mol)

>  <smiles>  (15) 
O=C(CCCOc1ccc(Cl)cc1Cl)NN=Cc1cccnc1F

>  <score_type>  (15) 
oracle

>  <origin>  (15) 
autodockgpu

>  <m_score__min__energy>  (15) 
-6.6399999999999997

>  <m_primary>  (15) 
energy

>  <meeko>  (15) 
{"free_energy": -5.94, "intermolecular_energy": -8.92, "internal_energy": -1.29, "cluster_size": 2, "cluster_id": 4, "rank_in_cluster": 1}

>  <energy>  (15) 
-5.94

>  <cluster_rmsd>  (15) 
0.0

>  <rmsd>  (15) 
270.3

>  <cluster>  (15) 
5

$$$$
QFPZKQQOUZJSQV-AZXADDSMNA-N
     RDKit          3D

 37 38  0  0  0  0  0  0  0  0999 V2000
  139.6090   67.2740  222.8100 H   0  0  0  0  0  0  0  0  0  0  0  0
  139.2060   68.1750  222.5840 O   0  0  0  0  0  0  0  0  0  0  0  0
  138.7420   69.0240  223.5850 C   0  0  0  0  0  0  0  0  0  0  0  0
  138.4510   68.4490  224.8690 N   0  0  0  0  0  0  0  0  0  0  0  0
  139.2270   67.4860  225.5290 N   0  0  0  0  0  0  0  0  0  0  0  0
  139.9770   67.8370  226.5270 C   0  0  0  0  0  0  0  0  0  0  0  0
  140.3720   67.0561  227.1935 H   0  0  0  0  0  0  0  0  0  0  0  0
  140.3210   69.2510  226.8020 C   0  0  0  0  0  0  0  0  0  0  0  0
  139.9680   69.9120  227.9960 C   0  0  0  0  0  0  0  0  0  0  0  0
  139.2660   69.2830  228.9670 F   0  0  0  0  0  0  0  0  0  0  0  0
  140.3360   71.2080  228.1940 N   0  0  0  0  0  0  0  0  0  0  0  0
  141.0570   71.8980  227.2730 C   0  0  0  0  0  0  0  0  0  0  0  0
  141.3493   72.9395  227.4725 H   0  0  0  0  0  0  0  0  0  0  0  0
  141.4270   71.2890  226.0760 C   0  0  0  0  0  0  0  0  0  0  0  0
  142.0013   71.8475  225.3222 H   0  0  0  0  0  0  0  0  0  0  0  0
  141.0610   69.9630  225.8440 C   0  0  0  0  0  0  0  0  0  0  0  0
  141.3540   69.4718  224.9044 H   0  0  0  0  0  0  0  0  0  0  0  0
  138.6050   70.3270  223.2800 C   0  0  0  0  0  0  0  0  0  0  0  0
  137.8501   70.8917  223.8468 H   0  0  0  0  0  0  0  0  0  0  0  0
  139.3800   71.0870  222.2430 C   0  0  0  0  0  0  0  0  0  0  0  0
  140.4504   70.8677  222.3701 H   0  0  0  0  0  0  0  0  0  0  0  0
  139.0196   70.7692  221.2535 H   0  0  0  0  0  0  0  0  0  0  0  0
  139.1690   72.6120  222.3550 C   0  0  0  0  0  0  0  0  0  0  0  0
  138.7193   72.9827  221.4221 H   0  0  0  0  0  0  0  0  0  0  0  0
  138.5047   72.8129  223.2084 H   0  0  0  0  0  0  0  0  0  0  0  0
  140.4100   73.2840  222.5750 O   0  0  0  0  0  0  0  0  0  0  0  0
  141.0020   74.2020  221.6910 C   0  0  0  0  0  0  0  0  0  0  0  0
  140.6230   75.5610  221.6500 C   0  0  0  0  0  0  0  0  0  0  0  0
  139.8402   75.9323  222.3277 H   0  0  0  0  0  0  0  0  0  0  0  0
  141.2390   76.4370  220.7510 C   0  0  0  0  0  0  0  0  0  0  0  0
  140.9499   77.4982  220.7346 H   0  0  0  0  0  0  0  0  0  0  0  0
  142.2210   75.9690  219.8730 C   0  0  0  0  0  0  0  0  0  0  0  0
  142.9720   77.0670  218.7290 Cl  0  0  0  0  0  0  0  0  0  0  0  0
  142.6020   74.6250  219.9060 C   0  0  0  0  0  0  0  0  0  0  0  0
  143.3784   74.2582  219.2185 H   0  0  0  0  0  0  0  0  0  0  0  0
  141.9990   73.7440  220.8110 C   0  0  0  0  0  0  0  0  0  0  0  0
  142.5090   72.0630  220.8380 Cl  0  0  0  0  0  0  0  0  0  0  0  0
  1  2  1  0
  2  3  1  0
  3  4  1  0
  4  5  1  0
  5  6  2  0
  6  7  1  0
  6  8  1  0
  8  9  2  0
  9 10  1  0
  9 11  1  0
 11 12  2  0
 12 13  1  0
 12 14  1  0
 14 15  1  0
 14 16  2  0
 16 17  1  0
  3 18  2  0
 18 19  1  0
 18 20  1  0
 20 21  1  0
 20 22  1  0
 20 23  1  0
 23 24  1  0
 23 25  1  0
 23 26  1  0
 26 27  1  0
 27 28  2  0
 28 29  1  0
 28 30  1  0
 30 31  1  0
 30 32  2  0
 32 33  1  0
 32 34  1  0
 34 35  1  0
 34 36  2  0
 36 37  1  0
 16  8  1  0
 36 27  1  0
M  CHG  1   4  -1
M  END
>  <UniqueID>  (16) 
13

>  <SMILES>  (16) 
O/C(=C/CCOc1ccc(Cl)cc1Cl)[N-]/N=C/c1cccnc1F

>  <Energy>  (16) 
41.101158770473404

>  <Genealogy>  (16) 
O=C(CCCOc1ccc(Cl)cc1Cl)[N-]N=Cc1cccnc1F (protonated)
OC(=CCCOc1ccc(Cl)cc1Cl)[N-]N=Cc1cccnc1F (tautomer)
O/C(=C/CCOc1ccc(Cl)cc1Cl)[N-]/N=C/c1cccnc1F (cis-trans isomerization)
O/C(=C/CCOc1ccc(Cl)cc1Cl)[N-]/N=C/c1cccnc1F (3D coordinates assigned)
O/C(=C/CCOc1ccc(Cl)cc1Cl)[N-]/N=C/c1cccnc1F (optimized conformer: 41.101158770473404 kcal/mol)

>  <smiles>  (16) 
O=C(CCCOc1ccc(Cl)cc1Cl)NN=Cc1cccnc1F

>  <score_type>  (16) 
oracle

>  <origin>  (16) 
autodockgpu

>  <m_score__min__energy>  (16) 
-6.6399999999999997

>  <m_primary>  (16) 
energy

>  <meeko>  (16) 
{"free_energy": -5.94, "intermolecular_energy": -8.92, "internal_energy": -0.86, "cluster_size": 2, "cluster_id": 5, "rank_in_cluster": 1}

>  <energy>  (16) 
-5.83

>  <cluster_rmsd>  (16) 
1.76

>  <rmsd>  (16) 
270.53

>  <cluster>  (16) 
5

$$$$
QFPZKQQOUZJSQV-AZXADDSMNA-N
     RDKit          3D

 37 38  0  0  0  0  0  0  0  0999 V2000
  139.0550   74.9860  223.2480 H   0  0  0  0  0  0  0  0  0  0  0  0
  139.5730   75.4040  222.4850 O   0  0  0  0  0  0  0  0  0  0  0  0
  140.3620   74.6260  221.6420 C   0  0  0  0  0  0  0  0  0  0  0  0
  140.6710   73.2870  222.0630 N   0  0  0  0  0  0  0  0  0  0  0  0
  140.0840   72.6120  223.1420 N   0  0  0  0  0  0  0  0  0  0  0  0
  140.6790   71.5820  223.6570 C   0  0  0  0  0  0  0  0  0  0  0  0
  141.3512   70.9861  223.0221 H   0  0  0  0  0  0  0  0  0  0  0  0
  140.4870   71.1780  225.0690 C   0  0  0  0  0  0  0  0  0  0  0  0
  139.6730   70.0940  225.4560 C   0  0  0  0  0  0  0  0  0  0  0  0
  138.9970   69.3600  224.5430 F   0  0  0  0  0  0  0  0  0  0  0  0
  139.5580   69.7630  226.7720 N   0  0  0  0  0  0  0  0  0  0  0  0
  140.2210   70.4400  227.7440 C   0  0  0  0  0  0  0  0  0  0  0  0
  140.1165   70.1344  228.7955 H   0  0  0  0  0  0  0  0  0  0  0  0
  141.0340   71.5220  227.4110 C   0  0  0  0  0  0  0  0  0  0  0  0
  141.5626   72.0828  228.1960 H   0  0  0  0  0  0  0  0  0  0  0  0
  141.1700   71.8860  226.0710 C   0  0  0  0  0  0  0  0  0  0  0  0
  141.8164   72.7330  225.7977 H   0  0  0  0  0  0  0  0  0  0  0  0
  140.7740   75.1820  220.4880 C   0  0  0  0  0  0  0  0  0  0  0  0
  139.9916   75.4839  219.7762 H   0  0  0  0  0  0  0  0  0  0  0  0
  142.1960   75.4310  220.0760 C   0  0  0  0  0  0  0  0  0  0  0  0
  142.8650   74.9457  220.8019 H   0  0  0  0  0  0  0  0  0  0  0  0
  142.3318   75.0167  219.0661 H   0  0  0  0  0  0  0  0  0  0  0  0
  142.5330   76.9360  220.0190 C   0  0  0  0  0  0  0  0  0  0  0  0
  143.6187   77.0666  220.1386 H   0  0  0  0  0  0  0  0  0  0  0  0
  142.2025   77.3332  219.0479 H   0  0  0  0  0  0  0  0  0  0  0  0
  141.8590   77.6500  221.0570 O   0  0  0  0  0  0  0  0  0  0  0  0
  141.5790   79.0270  221.0440 C   0  0  0  0  0  0  0  0  0  0  0  0
  141.3700   79.7440  219.8470 C   0  0  0  0  0  0  0  0  0  0  0  0
  141.4214   79.2220  218.8801 H   0  0  0  0  0  0  0  0  0  0  0  0
  141.0980   81.1140  219.8840 C   0  0  0  0  0  0  0  0  0  0  0  0
  140.9203   81.6631  218.9476 H   0  0  0  0  0  0  0  0  0  0  0  0
  141.0510   81.7890  221.1070 C   0  0  0  0  0  0  0  0  0  0  0  0
  140.7360   83.5150  221.1470 Cl  0  0  0  0  0  0  0  0  0  0  0  0
  141.2580   81.0880  222.2980 C   0  0  0  0  0  0  0  0  0  0  0  0
  141.2149   81.6183  223.2608 H   0  0  0  0  0  0  0  0  0  0  0  0
  141.5200   79.7130  222.2700 C   0  0  0  0  0  0  0  0  0  0  0  0
  141.7620   78.8570  223.7850 Cl  0  0  0  0  0  0  0  0  0  0  0  0
  1  2  1  0
  2  3  1  0
  3  4  1  0
  4  5  1  0
  5  6  2  0
  6  7  1  0
  6  8  1  0
  8  9  2  0
  9 10  1  0
  9 11  1  0
 11 12  2  0
 12 13  1  0
 12 14  1  0
 14 15  1  0
 14 16  2  0
 16 17  1  0
  3 18  2  0
 18 19  1  0
 18 20  1  0
 20 21  1  0
 20 22  1  0
 20 23  1  0
 23 24  1  0
 23 25  1  0
 23 26  1  0
 26 27  1  0
 27 28  2  0
 28 29  1  0
 28 30  1  0
 30 31  1  0
 30 32  2  0
 32 33  1  0
 32 34  1  0
 34 35  1  0
 34 36  2  0
 36 37  1  0
 16  8  1  0
 36 27  1  0
M  CHG  1   4  -1
M  END
>  <UniqueID>  (17) 
13

>  <SMILES>  (17) 
O/C(=C/CCOc1ccc(Cl)cc1Cl)[N-]/N=C/c1cccnc1F

>  <Energy>  (17) 
41.101158770473404

>  <Genealogy>  (17) 
O=C(CCCOc1ccc(Cl)cc1Cl)[N-]N=Cc1cccnc1F (protonated)
OC(=CCCOc1ccc(Cl)cc1Cl)[N-]N=Cc1cccnc1F (tautomer)
O/C(=C/CCOc1ccc(Cl)cc1Cl)[N-]/N=C/c1cccnc1F (cis-trans isomerization)
O/C(=C/CCOc1ccc(Cl)cc1Cl)[N-]/N=C/c1cccnc1F (3D coordinates assigned)
O/C(=C/CCOc1ccc(Cl)cc1Cl)[N-]/N=C/c1cccnc1F (optimized conformer: 41.101158770473404 kcal/mol)

>  <smiles>  (17) 
O=C(CCCOc1ccc(Cl)cc1Cl)NN=Cc1cccnc1F

>  <score_type>  (17) 
oracle

>  <origin>  (17) 
autodockgpu

>  <m_score__min__energy>  (17) 
-6.6399999999999997

>  <m_primary>  (17) 
energy

>  <meeko>  (17) 
{"free_energy": -6.0, "intermolecular_energy": -8.99, "internal_energy": -0.62, "cluster_size": 5, "cluster_id": 2, "rank_in_cluster": 4}

>  <energy>  (17) 
-5.61

>  <cluster_rmsd>  (17) 
0.0

>  <rmsd>  (17) 
270.9

>  <cluster>  (17) 
6

$$$$
QFPZKQQOUZJSQV-AZXADDSMNA-N
     RDKit          3D

 37 38  0  0  0  0  0  0  0  0999 V2000
  146.6830   72.2210  221.8220 H   0  0  0  0  0  0  0  0  0  0  0  0
  146.6070   72.9910  221.1680 O   0  0  0  0  0  0  0  0  0  0  0  0
  145.5700   73.0420  220.2400 C   0  0  0  0  0  0  0  0  0  0  0  0
  145.8540   72.6230  218.8950 N   0  0  0  0  0  0  0  0  0  0  0  0
  145.7150   71.3200  218.3980 N   0  0  0  0  0  0  0  0  0  0  0  0
  146.2160   70.3230  219.0570 C   0  0  0  0  0  0  0  0  0  0  0  0
  147.1714   70.4630  219.5840 H   0  0  0  0  0  0  0  0  0  0  0  0
  145.5500   69.0020  219.1270 C   0  0  0  0  0  0  0  0  0  0  0  0
  144.1650   68.8480  219.3430 C   0  0  0  0  0  0  0  0  0  0  0  0
  143.3560   69.9190  219.5190 F   0  0  0  0  0  0  0  0  0  0  0  0
  143.6140   67.6040  219.3740 N   0  0  0  0  0  0  0  0  0  0  0  0
  144.3570   66.4830  219.1870 C   0  0  0  0  0  0  0  0  0  0  0  0
  143.8745   65.4946  219.2036 H   0  0  0  0  0  0  0  0  0  0  0  0
  145.7310   66.5840  218.9740 C   0  0  0  0  0  0  0  0  0  0  0  0
  146.3401   65.6788  218.8343 H   0  0  0  0  0  0  0  0  0  0  0  0
  146.3250   67.8460  218.9400 C   0  0  0  0  0  0  0  0  0  0  0  0
  147.4073   67.9360  218.7656 H   0  0  0  0  0  0  0  0  0  0  0  0
  144.3710   73.4760  220.6710 C   0  0  0  0  0  0  0  0  0  0  0  0
  143.9210   72.9317  221.5144 H   0  0  0  0  0  0  0  0  0  0  0  0
  143.5870   74.6290  220.1150 C   0  0  0  0  0  0  0  0  0  0  0  0
  144.0001   75.5652  220.5187 H   0  0  0  0  0  0  0  0  0  0  0  0
  143.6685   74.5940  219.0186 H   0  0  0  0  0  0  0  0  0  0  0  0
  142.0900   74.5490  220.4800 C   0  0  0  0  0  0  0  0  0  0  0  0
  141.6246   73.7293  219.9130 H   0  0  0  0  0  0  0  0  0  0  0  0
  142.0016   74.3675  221.5613 H   0  0  0  0  0  0  0  0  0  0  0  0
  141.4220   75.7720  220.1670 O   0  0  0  0  0  0  0  0  0  0  0  0
  141.4350   76.9300  220.9620 C   0  0  0  0  0  0  0  0  0  0  0  0
  141.0550   76.9160  222.3220 C   0  0  0  0  0  0  0  0  0  0  0  0
  140.7372   75.9737  222.7922 H   0  0  0  0  0  0  0  0  0  0  0  0
  141.0810   78.0940  223.0730 C   0  0  0  0  0  0  0  0  0  0  0  0
  140.7976   78.0732  224.1357 H   0  0  0  0  0  0  0  0  0  0  0  0
  141.4660   79.2990  222.4780 C   0  0  0  0  0  0  0  0  0  0  0  0
  141.4710   80.7810  223.4190 Cl  0  0  0  0  0  0  0  0  0  0  0  0
  141.8430   79.3240  221.1330 C   0  0  0  0  0  0  0  0  0  0  0  0
  142.1508   80.2717  220.6670 H   0  0  0  0  0  0  0  0  0  0  0  0
  141.8300   78.1460  220.3770 C   0  0  0  0  0  0  0  0  0  0  0  0
  142.3230   78.2060  218.6910 Cl  0  0  0  0  0  0  0  0  0  0  0  0
  1  2  1  0
  2  3  1  0
  3  4  1  0
  4  5  1  0
  5  6  2  0
  6  7  1  0
  6  8  1  0
  8  9  2  0
  9 10  1  0
  9 11  1  0
 11 12  2  0
 12 13  1  0
 12 14  1  0
 14 15  1  0
 14 16  2  0
 16 17  1  0
  3 18  2  0
 18 19  1  0
 18 20  1  0
 20 21  1  0
 20 22  1  0
 20 23  1  0
 23 24  1  0
 23 25  1  0
 23 26  1  0
 26 27  1  0
 27 28  2  0
 28 29  1  0
 28 30  1  0
 30 31  1  0
 30 32  2  0
 32 33  1  0
 32 34  1  0
 34 35  1  0
 34 36  2  0
 36 37  1  0
 16  8  1  0
 36 27  1  0
M  CHG  1   4  -1
M  END
>  <UniqueID>  (18) 
13

>  <SMILES>  (18) 
O/C(=C/CCOc1ccc(Cl)cc1Cl)[N-]/N=C/c1cccnc1F

>  <Energy>  (18) 
41.101158770473404

>  <Genealogy>  (18) 
O=C(CCCOc1ccc(Cl)cc1Cl)[N-]N=Cc1cccnc1F (protonated)
OC(=CCCOc1ccc(Cl)cc1Cl)[N-]N=Cc1cccnc1F (tautomer)
O/C(=C/CCOc1ccc(Cl)cc1Cl)[N-]/N=C/c1cccnc1F (cis-trans isomerization)
O/C(=C/CCOc1ccc(Cl)cc1Cl)[N-]/N=C/c1cccnc1F (3D coordinates assigned)
O/C(=C/CCOc1ccc(Cl)cc1Cl)[N-]/N=C/c1cccnc1F (optimized conformer: 41.101158770473404 kcal/mol)

>  <smiles>  (18) 
O=C(CCCOc1ccc(Cl)cc1Cl)NN=Cc1cccnc1F

>  <score_type>  (18) 
oracle

>  <origin>  (18) 
autodockgpu

>  <m_score__min__energy>  (18) 
-6.6399999999999997

>  <m_primary>  (18) 
energy

>  <meeko>  (18) 
{"free_energy": -6.26, "intermolecular_energy": -9.25, "internal_energy": -0.38, "cluster_size": 5, "cluster_id": 1, "rank_in_cluster": 3}

>  <energy>  (18) 
-5.45

>  <cluster_rmsd>  (18) 
0.0

>  <rmsd>  (18) 
270.06

>  <cluster>  (18) 
7

$$$$
QFPZKQQOUZJSQV-AZXADDSMNA-N
     RDKit          3D

 37 38  0  0  0  0  0  0  0  0999 V2000
  136.5940   68.3160  225.6940 H   0  0  0  0  0  0  0  0  0  0  0  0
  136.8350   69.2110  225.2860 O   0  0  0  0  0  0  0  0  0  0  0  0
  137.9470   69.3450  224.4590 C   0  0  0  0  0  0  0  0  0  0  0  0
  138.9470   68.3140  224.5090 N   0  0  0  0  0  0  0  0  0  0  0  0
  139.2120   67.4840  225.6070 N   0  0  0  0  0  0  0  0  0  0  0  0
  140.0960   67.8410  226.4850 C   0  0  0  0  0  0  0  0  0  0  0  0
  140.6473   67.0603  227.0295 H   0  0  0  0  0  0  0  0  0  0  0  0
  140.3910   69.2620  226.7820 C   0  0  0  0  0  0  0  0  0  0  0  0
  139.9620   69.9070  227.9610 C   0  0  0  0  0  0  0  0  0  0  0  0
  139.2300   69.2550  228.8930 F   0  0  0  0  0  0  0  0  0  0  0  0
  140.2870   71.2100  228.1820 N   0  0  0  0  0  0  0  0  0  0  0  0
  141.0350   71.9240  227.3010 C   0  0  0  0  0  0  0  0  0  0  0  0
  141.2904   72.9714  227.5195 H   0  0  0  0  0  0  0  0  0  0  0  0
  141.4790   71.3310  226.1210 C   0  0  0  0  0  0  0  0  0  0  0  0
  142.0751   71.9079  225.3986 H   0  0  0  0  0  0  0  0  0  0  0  0
  141.1590   69.9970  225.8660 C   0  0  0  0  0  0  0  0  0  0  0  0
  141.5112   69.5182  224.9404 H   0  0  0  0  0  0  0  0  0  0  0  0
  138.0030   70.4290  223.6640 C   0  0  0  0  0  0  0  0  0  0  0  0
  137.1216   71.0871  223.6612 H   0  0  0  0  0  0  0  0  0  0  0  0
  139.1490   70.8300  222.7800 C   0  0  0  0  0  0  0  0  0  0  0  0
  139.8338   69.9751  222.6789 H   0  0  0  0  0  0  0  0  0  0  0  0
  138.7342   71.1296  221.8063 H   0  0  0  0  0  0  0  0  0  0  0  0
  139.9340   72.0300  223.3480 C   0  0  0  0  0  0  0  0  0  0  0  0
  139.3310   72.5181  224.1279 H   0  0  0  0  0  0  0  0  0  0  0  0
  140.8817   71.6624  223.7685 H   0  0  0  0  0  0  0  0  0  0  0  0
  140.2280   72.9790  222.3220 O   0  0  0  0  0  0  0  0  0  0  0  0
  141.4290   73.0400  221.5940 C   0  0  0  0  0  0  0  0  0  0  0  0
  142.1870   71.8890  221.2910 C   0  0  0  0  0  0  0  0  0  0  0  0
  141.8395   70.9007  221.6263 H   0  0  0  0  0  0  0  0  0  0  0  0
  143.3770   71.9990  220.5670 C   0  0  0  0  0  0  0  0  0  0  0  0
  143.9552   71.0959  220.3221 H   0  0  0  0  0  0  0  0  0  0  0  0
  143.8350   73.2530  220.1530 C   0  0  0  0  0  0  0  0  0  0  0  0
  145.3440   73.3890  219.2670 Cl  0  0  0  0  0  0  0  0  0  0  0  0
  143.0920   74.3990  220.4490 C   0  0  0  0  0  0  0  0  0  0  0  0
  143.4503   75.3852  220.1187 H   0  0  0  0  0  0  0  0  0  0  0  0
  141.8940   74.2960  221.1640 C   0  0  0  0  0  0  0  0  0  0  0  0
  140.9740   75.7530  221.5090 Cl  0  0  0  0  0  0  0  0  0  0  0  0
  1  2  1  0
  2  3  1  0
  3  4  1  0
  4  5  1  0
  5  6  2  0
  6  7  1  0
  6  8  1  0
  8  9  2  0
  9 10  1  0
  9 11  1  0
 11 12  2  0
 12 13  1  0
 12 14  1  0
 14 15  1  0
 14 16  2  0
 16 17  1  0
  3 18  2  0
 18 19  1  0
 18 20  1  0
 20 21  1  0
 20 22  1  0
 20 23  1  0
 23 24  1  0
 23 25  1  0
 23 26  1  0
 26 27  1  0
 27 28  2  0
 28 29  1  0
 28 30  1  0
 30 31  1  0
 30 32  2  0
 32 33  1  0
 32 34  1  0
 34 35  1  0
 34 36  2  0
 36 37  1  0
 16  8  1  0
 36 27  1  0
M  CHG  1   4  -1
M  END
>  <UniqueID>  (19) 
13

>  <SMILES>  (19) 
O/C(=C/CCOc1ccc(Cl)cc1Cl)[N-]/N=C/c1cccnc1F

>  <Energy>  (19) 
41.101158770473404

>  <Genealogy>  (19) 
O=C(CCCOc1ccc(Cl)cc1Cl)[N-]N=Cc1cccnc1F (protonated)
OC(=CCCOc1ccc(Cl)cc1Cl)[N-]N=Cc1cccnc1F (tautomer)
O/C(=C/CCOc1ccc(Cl)cc1Cl)[N-]/N=C/c1cccnc1F (cis-trans isomerization)
O/C(=C/CCOc1ccc(Cl)cc1Cl)[N-]/N=C/c1cccnc1F (3D coordinates assigned)
O/C(=C/CCOc1ccc(Cl)cc1Cl)[N-]/N=C/c1cccnc1F (optimized conformer: 41.101158770473404 kcal/mol)

>  <smiles>  (19) 
O=C(CCCOc1ccc(Cl)cc1Cl)NN=Cc1cccnc1F

>  <score_type>  (19) 
oracle

>  <origin>  (19) 
autodockgpu

>  <m_score__min__energy>  (19) 
-6.6399999999999997

>  <m_primary>  (19) 
energy

>  <meeko>  (19) 
{"free_energy": -5.83, "intermolecular_energy": -8.81, "internal_energy": -1.01, "cluster_size": 2, "cluster_id": 5, "rank_in_cluster": 2}

>  <energy>  (19) 
-5.21

>  <cluster_rmsd>  (19) 
1.47

>  <rmsd>  (19) 
270.14

>  <cluster>  (19) 
7

$$$$
QFPZKQQOUZJSQV-AZXADDSMNA-N
     RDKit          3D

 37 38  0  0  0  0  0  0  0  0999 V2000
  139.0150   75.0320  223.3280 H   0  0  0  0  0  0  0  0  0  0  0  0
  139.6660   75.4850  222.6990 O   0  0  0  0  0  0  0  0  0  0  0  0
  140.9920   75.3850  220.7720 C   0  0  0  0  0  0  0  0  0  0  0  0
  140.6210   73.3410  222.1000 N   0  0  0  0  0  0  0  0  0  0  0  0
  139.9580   72.6190  223.1020 N   0  0  0  0  0  0  0  0  0  0  0  0
  140.4510   74.7410  221.8230 C   0  0  0  0  0  0  0  0  0  0  0  0
  142.0312   75.7283  220.8824 H   0  0  0  0  0  0  0  0  0  0  0  0
  140.3770   71.1260  224.9800 C   0  0  0  0  0  0  0  0  0  0  0  0
  139.6330   70.0100  225.4170 C   0  0  0  0  0  0  0  0  0  0  0  0
  138.9450   69.2380  224.5450 F   0  0  0  0  0  0  0  0  0  0  0  0
  139.5990   69.6880  226.7390 N   0  0  0  0  0  0  0  0  0  0  0  0
  140.2790   70.4050  227.6710 C   0  0  0  0  0  0  0  0  0  0  0  0
  140.2408   70.1068  228.7291 H   0  0  0  0  0  0  0  0  0  0  0  0
  141.0250   71.5180  227.2880 C   0  0  0  0  0  0  0  0  0  0  0  0
  141.5671   72.1096  228.0405 H   0  0  0  0  0  0  0  0  0  0  0  0
  141.0770   71.8740  225.9400 C   0  0  0  0  0  0  0  0  0  0  0  0
  141.6701   72.7461  225.6274 H   0  0  0  0  0  0  0  0  0  0  0  0
  140.4790   71.5230  223.5570 C   0  0  0  0  0  0  0  0  0  0  0  0
  141.0169   70.8632  222.8603 H   0  0  0  0  0  0  0  0  0  0  0  0
  140.3170   75.6810  219.4640 C   0  0  0  0  0  0  0  0  0  0  0  0
  140.7983   75.0849  218.6747 H   0  0  0  0  0  0  0  0  0  0  0  0
  139.2526   75.4241  219.5689 H   0  0  0  0  0  0  0  0  0  0  0  0
  140.4070   77.1740  219.0830 C   0  0  0  0  0  0  0  0  0  0  0  0
  141.4654   77.4592  218.9910 H   0  0  0  0  0  0  0  0  0  0  0  0
  139.8843   77.3253  218.1270 H   0  0  0  0  0  0  0  0  0  0  0  0
  139.7870   77.9910  220.0770 O   0  0  0  0  0  0  0  0  0  0  0  0
  140.4680   78.7750  221.0230 C   0  0  0  0  0  0  0  0  0  0  0  0
  141.7110   79.3830  220.7450 C   0  0  0  0  0  0  0  0  0  0  0  0
  142.1758   79.2519  219.7567 H   0  0  0  0  0  0  0  0  0  0  0  0
  142.3540   80.1510  221.7200 C   0  0  0  0  0  0  0  0  0  0  0  0
  143.3155   80.6340  221.4916 H   0  0  0  0  0  0  0  0  0  0  0  0
  141.7790   80.3070  222.9840 C   0  0  0  0  0  0  0  0  0  0  0  0
  142.6030   81.2510  224.2130 Cl  0  0  0  0  0  0  0  0  0  0  0  0
  140.5500   79.7080  223.2700 C   0  0  0  0  0  0  0  0  0  0  0  0
  140.0963   79.8345  224.2641 H   0  0  0  0  0  0  0  0  0  0  0  0
  139.8940   78.9470  222.2950 C   0  0  0  0  0  0  0  0  0  0  0  0
  138.3430   78.2180  222.6790 Cl  0  0  0  0  0  0  0  0  0  0  0  0
  1  2  1  0
  2  3  1  0
  3  4  1  0
  4  5  1  0
  5  6  2  0
  6  7  1  0
  6  8  1  0
  8  9  2  0
  9 10  1  0
  9 11  1  0
 11 12  2  0
 12 13  1  0
 12 14  1  0
 14 15  1  0
 14 16  2  0
 16 17  1  0
  3 18  2  0
 18 19  1  0
 18 20  1  0
 20 21  1  0
 20 22  1  0
 20 23  1  0
 23 24  1  0
 23 25  1  0
 23 26  1  0
 26 27  1  0
 27 28  2  0
 28 29  1  0
 28 30  1  0
 30 31  1  0
 30 32  2  0
 32 33  1  0
 32 34  1  0
 34 35  1  0
 34 36  2  0
 36 37  1  0
 16  8  1  0
 36 27  1  0
M  CHG  1   4  -1
M  END
>  <UniqueID>  (20) 
13

>  <SMILES>  (20) 
O/C(=C/CCOc1ccc(Cl)cc1Cl)[N-]/N=C/c1cccnc1F

>  <Energy>  (20) 
41.101158770473404

>  <Genealogy>  (20) 
O=C(CCCOc1ccc(Cl)cc1Cl)[N-]N=Cc1cccnc1F (protonated)
OC(=CCCOc1ccc(Cl)cc1Cl)[N-]N=Cc1cccnc1F (tautomer)
O/C(=C/CCOc1ccc(Cl)cc1Cl)[N-]/N=C/c1cccnc1F (cis-trans isomerization)
O/C(=C/CCOc1ccc(Cl)cc1Cl)[N-]/N=C/c1cccnc1F (3D coordinates assigned)
O/C(=C/CCOc1ccc(Cl)cc1Cl)[N-]/N=C/c1cccnc1F (optimized conformer: 41.101158770473404 kcal/mol)

>  <smiles>  (20) 
O=C(CCCOc1ccc(Cl)cc1Cl)NN=Cc1cccnc1F

>  <score_type>  (20) 
oracle

>  <origin>  (20) 
autodockgpu

>  <m_score__min__energy>  (20) 
-6.6399999999999997

>  <m_primary>  (20) 
energy

>  <meeko>  (20) 
{"free_energy": -5.81, "intermolecular_energy": -8.8, "internal_energy": -0.84, "cluster_size": 5, "cluster_id": 2, "rank_in_cluster": 5}

>  <energy>  (20) 
-3.89

>  <cluster_rmsd>  (20) 
0.0

>  <rmsd>  (20) 
270.36

>  <cluster>  (20) 
8

$$$$
AMYMGDKGSBDGMC-NYADSFOUNA-M
     RDKit          3D

 37 38  0  0  0  0  0  0  0  0999 V2000
  140.8976   67.0565  227.2102 H   0  0  0  0  0  0  0  0  0  0  0  0
  140.3920   67.8030  226.5800 C   0  0  0  0  0  0  0  0  0  0  0  0
  139.6170   67.4030  225.6180 N   0  0  0  0  0  0  0  0  0  0  0  0
  138.5190   68.1420  225.1370 N   0  0  0  0  0  0  0  0  0  0  0  0
  138.3900   68.6340  223.7970 C   0  0  0  0  0  0  0  0  0  0  0  0
  138.6430   67.8920  222.8100 O   0  0  0  0  0  0  0  0  0  0  0  0
  137.9660   70.0530  223.5670 C   0  0  0  0  0  0  0  0  0  0  0  0
  137.3098   70.0902  222.6850 H   0  0  0  0  0  0  0  0  0  0  0  0
  137.4384   70.4028  224.4666 H   0  0  0  0  0  0  0  0  0  0  0  0
  139.1710   70.9760  223.3300 C   0  0  0  0  0  0  0  0  0  0  0  0
  139.4565   71.4330  224.2890 H   0  0  0  0  0  0  0  0  0  0  0  0
  139.9804   70.3595  222.9118 H   0  0  0  0  0  0  0  0  0  0  0  0
  138.8800   72.0940  222.3240 C   0  0  0  0  0  0  0  0  0  0  0  0
  138.9056   71.6819  221.3044 H   0  0  0  0  0  0  0  0  0  0  0  0
  137.8857   72.5160  222.5319 H   0  0  0  0  0  0  0  0  0  0  0  0
  139.8580   73.1240  222.4410 O   0  0  0  0  0  0  0  0  0  0  0  0
  141.0860   73.1360  221.7630 C   0  0  0  0  0  0  0  0  0  0  0  0
  141.8300   71.9600  221.5370 C   0  0  0  0  0  0  0  0  0  0  0  0
  141.4484   70.9931  221.8968 H   0  0  0  0  0  0  0  0  0  0  0  0
  143.0500   72.0170  220.8580 C   0  0  0  0  0  0  0  0  0  0  0  0
  143.6255   71.0955  220.6858 H   0  0  0  0  0  0  0  0  0  0  0  0
  143.5410   73.2420  220.3970 C   0  0  0  0  0  0  0  0  0  0  0  0
  145.0730   73.3100  219.5460 Cl  0  0  0  0  0  0  0  0  0  0  0  0
  142.8100   74.4130  220.6160 C   0  0  0  0  0  0  0  0  0  0  0  0
  143.1966   75.3767  220.2531 H   0  0  0  0  0  0  0  0  0  0  0  0
  141.5870   74.3630  221.2960 C   0  0  0  0  0  0  0  0  0  0  0  0
  140.6890   75.8490  221.5610 Cl  0  0  0  0  0  0  0  0  0  0  0  0
  140.6090   69.2420  226.8460 C   0  0  0  0  0  0  0  0  0  0  0  0
  140.2160   69.8620  228.0510 C   0  0  0  0  0  0  0  0  0  0  0  0
  139.6090   69.1590  229.0390 F   0  0  0  0  0  0  0  0  0  0  0  0
  140.4430   71.1900  228.2380 N   0  0  0  0  0  0  0  0  0  0  0  0
  141.0430   71.9580  227.2920 C   0  0  0  0  0  0  0  0  0  0  0  0
  141.2095   73.0293  227.4780 H   0  0  0  0  0  0  0  0  0  0  0  0
  141.4480   71.3890  226.0850 C   0  0  0  0  0  0  0  0  0  0  0  0
  141.9352   72.0061  225.3157 H   0  0  0  0  0  0  0  0  0  0  0  0
  141.2290   70.0290  225.8630 C   0  0  0  0  0  0  0  0  0  0  0  0
  141.5437   69.5716  224.9134 H   0  0  0  0  0  0  0  0  0  0  0  0
  1  2  1  0
  2  3  2  0
  3  4  1  0
  4  5  1  0
  5  6  2  0
  5  7  1  0
  7  8  1  0
  7  9  1  0
  7 10  1  0
 10 11  1  0
 10 12  1  0
 10 13  1  0
 13 14  1  0
 13 15  1  0
 13 16  1  0
 16 17  1  0
 17 18  2  0
 18 19  1  0
 18 20  1  0
 20 21  1  0
 20 22  2  0
 22 23  1  0
 22 24  1  0
 24 25  1  0
 24 26  2  0
 26 27  1  0
  2 28  1  0
 28 29  2  0
 29 30  1  0
 29 31  1  0
 31 32  2  0
 32 33  1  0
 32 34  1  0
 34 35  1  0
 34 36  2  0
 36 37  1  0
 26 17  1  0
 36 28  1  0
M  CHG  1   4  -1
M  END
>  <UniqueID>  (21) 
14

>  <SMILES>  (21) 
O=C(CCCOc1ccc(Cl)cc1Cl)[N-]/N=C/c1cccnc1F

>  <Energy>  (21) 
37.990803095884296

>  <Genealogy>  (21) 
O=C(CCCOc1ccc(Cl)cc1Cl)[N-]N=Cc1cccnc1F (protonated)
O=C(CCCOc1ccc(Cl)cc1Cl)[N-]/N=C/c1cccnc1F (cis-trans isomerization)
O=C(CCCOc1ccc(Cl)cc1Cl)[N-]/N=C/c1cccnc1F (3D coordinates assigned)
O=C(CCCOc1ccc(Cl)cc1Cl)[N-]/N=C/c1cccnc1F (optimized conformer: 37.990803095884296 kcal/mol)

>  <smiles>  (21) 
O=C(CCCOc1ccc(Cl)cc1Cl)NN=Cc1cccnc1F

>  <score_type>  (21) 
oracle

>  <origin>  (21) 
autodockgpu

>  <m_score__min__energy>  (21) 
-6.79

>  <m_primary>  (21) 
energy

>  <meeko>  (21) 
{"free_energy": -6.48, "intermolecular_energy": -9.16, "internal_energy": -0.96, "cluster_size": 11, "cluster_id": 1, "rank_in_cluster": 5}

>  <energy>  (21) 
-6.79

>  <cluster_rmsd>  (21) 
0.0

>  <rmsd>  (21) 
271.7

>  <cluster>  (21) 
1

$$$$
AMYMGDKGSBDGMC-NYADSFOUNA-M
     RDKit          3D

 37 38  0  0  0  0  0  0  0  0999 V2000
  140.4618   67.2138  227.5213 H   0  0  0  0  0  0  0  0  0  0  0  0
  139.9410   67.9790  226.9270 C   0  0  0  0  0  0  0  0  0  0  0  0
  139.0480   67.6100  226.0590 N   0  0  0  0  0  0  0  0  0  0  0  0
  139.2000   67.7620  224.6680 N   0  0  0  0  0  0  0  0  0  0  0  0
  138.4510   68.6800  223.8600 C   0  0  0  0  0  0  0  0  0  0  0  0
  137.9920   68.3270  222.7400 O   0  0  0  0  0  0  0  0  0  0  0  0
  138.2270   70.0790  224.3440 C   0  0  0  0  0  0  0  0  0  0  0  0
  137.2516   70.4311  223.9770 H   0  0  0  0  0  0  0  0  0  0  0  0
  138.2551   70.0695  225.4436 H   0  0  0  0  0  0  0  0  0  0  0  0
  139.3210   71.0360  223.8460 C   0  0  0  0  0  0  0  0  0  0  0  0
  139.5745   71.7320  224.6592 H   0  0  0  0  0  0  0  0  0  0  0  0
  140.1834   70.4223  223.5467 H   0  0  0  0  0  0  0  0  0  0  0  0
  138.8920   71.8510  222.6220 C   0  0  0  0  0  0  0  0  0  0  0  0
  139.0109   71.2377  221.7166 H   0  0  0  0  0  0  0  0  0  0  0  0
  137.8390   72.1472  222.7378 H   0  0  0  0  0  0  0  0  0  0  0  0
  139.6960   73.0220  222.5070 O   0  0  0  0  0  0  0  0  0  0  0  0
  140.9200   73.0830  221.8250 C   0  0  0  0  0  0  0  0  0  0  0  0
  141.6730   71.9280  221.5310 C   0  0  0  0  0  0  0  0  0  0  0  0
  141.3017   70.9390  221.8377 H   0  0  0  0  0  0  0  0  0  0  0  0
  142.8900   72.0350  220.8510 C   0  0  0  0  0  0  0  0  0  0  0  0
  143.4732   71.1301  220.6253 H   0  0  0  0  0  0  0  0  0  0  0  0
  143.3680   73.2880  220.4570 C   0  0  0  0  0  0  0  0  0  0  0  0
  144.8950   73.4170  219.6040 Cl  0  0  0  0  0  0  0  0  0  0  0  0
  142.6280   74.4380  220.7450 C   0  0  0  0  0  0  0  0  0  0  0  0
  143.0046   75.4241  220.4356 H   0  0  0  0  0  0  0  0  0  0  0  0
  141.4090   74.3390  221.4260 C   0  0  0  0  0  0  0  0  0  0  0  0
  140.5000   75.8000  221.7790 Cl  0  0  0  0  0  0  0  0  0  0  0  0
  140.2730   69.4050  227.1340 C   0  0  0  0  0  0  0  0  0  0  0  0
  139.7650   70.1570  228.2140 C   0  0  0  0  0  0  0  0  0  0  0  0
  138.9340   69.6000  229.1300 F   0  0  0  0  0  0  0  0  0  0  0  0
  140.1060   71.4670  228.3510 N   0  0  0  0  0  0  0  0  0  0  0  0
  140.9320   72.0910  227.4710 C   0  0  0  0  0  0  0  0  0  0  0  0
  141.1871   73.1514  227.6139 H   0  0  0  0  0  0  0  0  0  0  0  0
  141.4560   71.3890  226.3880 C   0  0  0  0  0  0  0  0  0  0  0  0
  142.1242   71.8901  225.6722 H   0  0  0  0  0  0  0  0  0  0  0  0
  141.1250   70.0440  226.2200 C   0  0  0  0  0  0  0  0  0  0  0  0
  141.5337   69.4819  225.3673 H   0  0  0  0  0  0  0  0  0  0  0  0
  1  2  1  0
  2  3  2  0
  3  4  1  0
  4  5  1  0
  5  6  2  0
  5  7  1  0
  7  8  1  0
  7  9  1  0
  7 10  1  0
 10 11  1  0
 10 12  1  0
 10 13  1  0
 13 14  1  0
 13 15  1  0
 13 16  1  0
 16 17  1  0
 17 18  2  0
 18 19  1  0
 18 20  1  0
 20 21  1  0
 20 22  2  0
 22 23  1  0
 22 24  1  0
 24 25  1  0
 24 26  2  0
 26 27  1  0
  2 28  1  0
 28 29  2  0
 29 30  1  0
 29 31  1  0
 31 32  2  0
 32 33  1  0
 32 34  1  0
 34 35  1  0
 34 36  2  0
 36 37  1  0
 26 17  1  0
 36 28  1  0
M  CHG  1   4  -1
M  END
>  <UniqueID>  (22) 
14

>  <SMILES>  (22) 
O=C(CCCOc1ccc(Cl)cc1Cl)[N-]/N=C/c1cccnc1F

>  <Energy>  (22) 
37.990803095884296

>  <Genealogy>  (22) 
O=C(CCCOc1ccc(Cl)cc1Cl)[N-]N=Cc1cccnc1F (protonated)
O=C(CCCOc1ccc(Cl)cc1Cl)[N-]/N=C/c1cccnc1F (cis-trans isomerization)
O=C(CCCOc1ccc(Cl)cc1Cl)[N-]/N=C/c1cccnc1F (3D coordinates assigned)
O=C(CCCOc1ccc(Cl)cc1Cl)[N-]/N=C/c1cccnc1F (optimized conformer: 37.990803095884296 kcal/mol)

>  <smiles>  (22) 
O=C(CCCOc1ccc(Cl)cc1Cl)NN=Cc1cccnc1F

>  <score_type>  (22) 
oracle

>  <origin>  (22) 
autodockgpu

>  <m_score__min__energy>  (22) 
-6.79

>  <m_primary>  (22) 
energy

>  <meeko>  (22) 
{"free_energy": -6.6, "intermolecular_energy": -9.29, "internal_energy": -0.99, "cluster_size": 11, "cluster_id": 1, "rank_in_cluster": 3}

>  <energy>  (22) 
-6.67

>  <cluster_rmsd>  (22) 
0.47

>  <rmsd>  (22) 
271.66

>  <cluster>  (22) 
1

$$$$
AMYMGDKGSBDGMC-NYADSFOUNA-M
     RDKit          3D

 37 38  0  0  0  0  0  0  0  0999 V2000
  139.0436   67.5511  227.7400 H   0  0  0  0  0  0  0  0  0  0  0  0
  139.4380   68.0650  226.8510 C   0  0  0  0  0  0  0  0  0  0  0  0
  139.3830   67.4710  225.6980 N   0  0  0  0  0  0  0  0  0  0  0  0
  138.8760   68.0730  224.5300 N   0  0  0  0  0  0  0  0  0  0  0  0
  137.9210   69.1420  224.5110 C   0  0  0  0  0  0  0  0  0  0  0  0
  136.6970   68.9160  224.7140 O   0  0  0  0  0  0  0  0  0  0  0  0
  138.3790   70.5400  224.2290 C   0  0  0  0  0  0  0  0  0  0  0  0
  137.6336   71.2457  224.6244 H   0  0  0  0  0  0  0  0  0  0  0  0
  139.3557   70.6846  224.7138 H   0  0  0  0  0  0  0  0  0  0  0  0
  138.5510   70.7900  222.7230 C   0  0  0  0  0  0  0  0  0  0  0  0
  139.5082   70.3533  222.4021 H   0  0  0  0  0  0  0  0  0  0  0  0
  137.6957   70.3239  222.2119 H   0  0  0  0  0  0  0  0  0  0  0  0
  138.5470   72.2780  222.3600 C   0  0  0  0  0  0  0  0  0  0  0  0
  138.1810   72.4004  221.3299 H   0  0  0  0  0  0  0  0  0  0  0  0
  137.8889   72.8173  223.0572 H   0  0  0  0  0  0  0  0  0  0  0  0
  139.8670   72.8090  222.4580 O   0  0  0  0  0  0  0  0  0  0  0  0
  140.2590   74.0610  221.9610 C   0  0  0  0  0  0  0  0  0  0  0  0
  139.5200   75.2340  222.2140 C   0  0  0  0  0  0  0  0  0  0  0  0
  138.6036   75.1836  222.8204 H   0  0  0  0  0  0  0  0  0  0  0  0
  139.9460   76.4610  221.6980 C   0  0  0  0  0  0  0  0  0  0  0  0
  139.3636   77.3724  221.8985 H   0  0  0  0  0  0  0  0  0  0  0  0
  141.1100   76.5330  220.9280 C   0  0  0  0  0  0  0  0  0  0  0  0
  141.6420   78.0740  220.2820 Cl  0  0  0  0  0  0  0  0  0  0  0  0
  141.8500   75.3750  220.6720 C   0  0  0  0  0  0  0  0  0  0  0  0
  142.7659   75.4319  220.0654 H   0  0  0  0  0  0  0  0  0  0  0  0
  141.4280   74.1430  221.1860 C   0  0  0  0  0  0  0  0  0  0  0  0
  142.3730   72.7010  220.8470 Cl  0  0  0  0  0  0  0  0  0  0  0  0
  140.0190   69.4170  226.9960 C   0  0  0  0  0  0  0  0  0  0  0  0
  139.7200   70.2630  228.0850 C   0  0  0  0  0  0  0  0  0  0  0  0
  138.8710   69.8720  229.0670 F   0  0  0  0  0  0  0  0  0  0  0  0
  140.2860   71.4980  228.1630 N   0  0  0  0  0  0  0  0  0  0  0  0
  141.1440   71.9570  227.2140 C   0  0  0  0  0  0  0  0  0  0  0  0
  141.5837   72.9608  227.3098 H   0  0  0  0  0  0  0  0  0  0  0  0
  141.4670   71.1570  226.1200 C   0  0  0  0  0  0  0  0  0  0  0  0
  142.1602   71.5243  225.3489 H   0  0  0  0  0  0  0  0  0  0  0  0
  140.9030   69.8860  226.0120 C   0  0  0  0  0  0  0  0  0  0  0  0
  141.1523   69.2480  225.1513 H   0  0  0  0  0  0  0  0  0  0  0  0
  1  2  1  0
  2  3  2  0
  3  4  1  0
  4  5  1  0
  5  6  2  0
  5  7  1  0
  7  8  1  0
  7  9  1  0
  7 10  1  0
 10 11  1  0
 10 12  1  0
 10 13  1  0
 13 14  1  0
 13 15  1  0
 13 16  1  0
 16 17  1  0
 17 18  2  0
 18 19  1  0
 18 20  1  0
 20 21  1  0
 20 22  2  0
 22 23  1  0
 22 24  1  0
 24 25  1  0
 24 26  2  0
 26 27  1  0
  2 28  1  0
 28 29  2  0
 29 30  1  0
 29 31  1  0
 31 32  2  0
 32 33  1  0
 32 34  1  0
 34 35  1  0
 34 36  2  0
 36 37  1  0
 26 17  1  0
 36 28  1  0
M  CHG  1   4  -1
M  END
>  <UniqueID>  (23) 
14

>  <SMILES>  (23) 
O=C(CCCOc1ccc(Cl)cc1Cl)[N-]/N=C/c1cccnc1F

>  <Energy>  (23) 
37.990803095884296

>  <Genealogy>  (23) 
O=C(CCCOc1ccc(Cl)cc1Cl)[N-]N=Cc1cccnc1F (protonated)
O=C(CCCOc1ccc(Cl)cc1Cl)[N-]/N=C/c1cccnc1F (cis-trans isomerization)
O=C(CCCOc1ccc(Cl)cc1Cl)[N-]/N=C/c1cccnc1F (3D coordinates assigned)
O=C(CCCOc1ccc(Cl)cc1Cl)[N-]/N=C/c1cccnc1F (optimized conformer: 37.990803095884296 kcal/mol)

>  <smiles>  (23) 
O=C(CCCOc1ccc(Cl)cc1Cl)NN=Cc1cccnc1F

>  <score_type>  (23) 
oracle

>  <origin>  (23) 
autodockgpu

>  <m_score__min__energy>  (23) 
-6.79

>  <m_primary>  (23) 
energy

>  <meeko>  (23) 
{"free_energy": -6.03, "intermolecular_energy": -8.72, "internal_energy": -0.68, "cluster_size": 11, "cluster_id": 1, "rank_in_cluster": 11}

>  <energy>  (23) 
-6.6

>  <cluster_rmsd>  (23) 
1.18

>  <rmsd>  (23) 
271.69

>  <cluster>  (23) 
1

$$$$
AMYMGDKGSBDGMC-NYADSFOUNA-M
     RDKit          3D

 37 38  0  0  0  0  0  0  0  0999 V2000
  140.6764   67.0690  227.5034 H   0  0  0  0  0  0  0  0  0  0  0  0
  140.1230   67.7970  226.8920 C   0  0  0  0  0  0  0  0  0  0  0  0
  139.2200   67.3720  226.0600 N   0  0  0  0  0  0  0  0  0  0  0  0
  139.1230   67.8040  224.7240 N   0  0  0  0  0  0  0  0  0  0  0  0
  138.2870   68.8760  224.2700 C   0  0  0  0  0  0  0  0  0  0  0  0
  137.1540   69.0730  224.7870 O   0  0  0  0  0  0  0  0  0  0  0  0
  138.7570   69.7610  223.1560 C   0  0  0  0  0  0  0  0  0  0  0  0
  139.6218   69.2891  222.6667 H   0  0  0  0  0  0  0  0  0  0  0  0
  137.9254   69.8911  222.4478 H   0  0  0  0  0  0  0  0  0  0  0  0
  139.1710   71.1490  223.6680 C   0  0  0  0  0  0  0  0  0  0  0  0
  138.3066   71.8245  223.5872 H   0  0  0  0  0  0  0  0  0  0  0  0
  139.5032   71.0294  224.7098 H   0  0  0  0  0  0  0  0  0  0  0  0
  140.3380   71.7540  222.8820 C   0  0  0  0  0  0  0  0  0  0  0  0
  141.2522   71.7040  223.4918 H   0  0  0  0  0  0  0  0  0  0  0  0
  140.4779   71.1857  221.9506 H   0  0  0  0  0  0  0  0  0  0  0  0
  140.0590   73.1150  222.5610 O   0  0  0  0  0  0  0  0  0  0  0  0
  140.8410   73.9070  221.7070 C   0  0  0  0  0  0  0  0  0  0  0  0
  141.9660   73.3950  221.0300 C   0  0  0  0  0  0  0  0  0  0  0  0
  142.2531   72.3415  221.1635 H   0  0  0  0  0  0  0  0  0  0  0  0
  142.7190   74.2210  220.1890 C   0  0  0  0  0  0  0  0  0  0  0  0
  143.5966   73.8157  219.6641 H   0  0  0  0  0  0  0  0  0  0  0  0
  142.3590   75.5600  220.0140 C   0  0  0  0  0  0  0  0  0  0  0  0
  143.3060   76.5930  218.9600 Cl  0  0  0  0  0  0  0  0  0  0  0  0
  141.2450   76.0760  220.6820 C   0  0  0  0  0  0  0  0  0  0  0  0
  140.9631   77.1304  220.5449 H   0  0  0  0  0  0  0  0  0  0  0  0
  140.4870   75.2550  221.5250 C   0  0  0  0  0  0  0  0  0  0  0  0
  139.0930   75.9280  222.3560 Cl  0  0  0  0  0  0  0  0  0  0  0  0
  140.4230   69.2380  227.0350 C   0  0  0  0  0  0  0  0  0  0  0  0
  139.9510   70.0110  228.1170 C   0  0  0  0  0  0  0  0  0  0  0  0
  139.1870   69.4620  229.0940 F   0  0  0  0  0  0  0  0  0  0  0  0
  140.2610   71.3330  228.1940 N   0  0  0  0  0  0  0  0  0  0  0  0
  141.0190   71.9510  227.2510 C   0  0  0  0  0  0  0  0  0  0  0  0
  141.2484   73.0226  227.3457 H   0  0  0  0  0  0  0  0  0  0  0  0
  141.5060   71.2280  226.1640 C   0  0  0  0  0  0  0  0  0  0  0  0
  142.1207   71.7232  225.3979 H   0  0  0  0  0  0  0  0  0  0  0  0
  141.2060   69.8690  226.0570 C   0  0  0  0  0  0  0  0  0  0  0  0
  141.5853   69.2902  225.2019 H   0  0  0  0  0  0  0  0  0  0  0  0
  1  2  1  0
  2  3  2  0
  3  4  1  0
  4  5  1  0
  5  6  2  0
  5  7  1  0
  7  8  1  0
  7  9  1  0
  7 10  1  0
 10 11  1  0
 10 12  1  0
 10 13  1  0
 13 14  1  0
 13 15  1  0
 13 16  1  0
 16 17  1  0
 17 18  2  0
 18 19  1  0
 18 20  1  0
 20 21  1  0
 20 22  2  0
 22 23  1  0
 22 24  1  0
 24 25  1  0
 24 26  2  0
 26 27  1  0
  2 28  1  0
 28 29  2  0
 29 30  1  0
 29 31  1  0
 31 32  2  0
 32 33  1  0
 32 34  1  0
 34 35  1  0
 34 36  2  0
 36 37  1  0
 26 17  1  0
 36 28  1  0
M  CHG  1   4  -1
M  END
>  <UniqueID>  (24) 
14

>  <SMILES>  (24) 
O=C(CCCOc1ccc(Cl)cc1Cl)[N-]/N=C/c1cccnc1F

>  <Energy>  (24) 
37.990803095884296

>  <Genealogy>  (24) 
O=C(CCCOc1ccc(Cl)cc1Cl)[N-]N=Cc1cccnc1F (protonated)
O=C(CCCOc1ccc(Cl)cc1Cl)[N-]/N=C/c1cccnc1F (cis-trans isomerization)
O=C(CCCOc1ccc(Cl)cc1Cl)[N-]/N=C/c1cccnc1F (3D coordinates assigned)
O=C(CCCOc1ccc(Cl)cc1Cl)[N-]/N=C/c1cccnc1F (optimized conformer: 37.990803095884296 kcal/mol)

>  <smiles>  (24) 
O=C(CCCOc1ccc(Cl)cc1Cl)NN=Cc1cccnc1F

>  <score_type>  (24) 
oracle

>  <origin>  (24) 
autodockgpu

>  <m_score__min__energy>  (24) 
-6.79

>  <m_primary>  (24) 
energy

>  <meeko>  (24) 
{"free_energy": -6.79, "intermolecular_energy": -9.47, "internal_energy": -0.92, "cluster_size": 11, "cluster_id": 1, "rank_in_cluster": 1}

>  <energy>  (24) 
-6.51

>  <cluster_rmsd>  (24) 
1.08

>  <rmsd>  (24) 
271.67

>  <cluster>  (24) 
1

$$$$
AMYMGDKGSBDGMC-NYADSFOUNA-M
     RDKit          3D

 37 38  0  0  0  0  0  0  0  0999 V2000
  140.9164   70.2868  223.4657 H   0  0  0  0  0  0  0  0  0  0  0  0
  140.6190   71.1250  224.1130 C   0  0  0  0  0  0  0  0  0  0  0  0
  140.3430   72.2750  223.5770 N   0  0  0  0  0  0  0  0  0  0  0  0
  140.6250   72.6020  222.2370 N   0  0  0  0  0  0  0  0  0  0  0  0
  140.8110   73.9350  221.7420 C   0  0  0  0  0  0  0  0  0  0  0  0
  140.0050   74.8540  222.0500 O   0  0  0  0  0  0  0  0  0  0  0  0
  141.9650   74.2330  220.8360 C   0  0  0  0  0  0  0  0  0  0  0  0
  142.8996   73.9596  221.3477 H   0  0  0  0  0  0  0  0  0  0  0  0
  141.8351   73.6493  219.9128 H   0  0  0  0  0  0  0  0  0  0  0  0
  142.0220   75.7210  220.4570 C   0  0  0  0  0  0  0  0  0  0  0  0
  142.0349   76.3179  221.3809 H   0  0  0  0  0  0  0  0  0  0  0  0
  142.9314   75.8734  219.8573 H   0  0  0  0  0  0  0  0  0  0  0  0
  140.8300   76.1670  219.6040 C   0  0  0  0  0  0  0  0  0  0  0  0
  141.1665   76.3426  218.5716 H   0  0  0  0  0  0  0  0  0  0  0  0
  140.0620   75.3796  219.6178 H   0  0  0  0  0  0  0  0  0  0  0  0
  140.2750   77.3710  220.1310 O   0  0  0  0  0  0  0  0  0  0  0  0
  140.8910   78.1720  221.1040 C   0  0  0  0  0  0  0  0  0  0  0  0
  140.8090   77.8790  222.4790 C   0  0  0  0  0  0  0  0  0  0  0  0
  140.2488   76.9950  222.8176 H   0  0  0  0  0  0  0  0  0  0  0  0
  141.4360   78.7060  223.4160 C   0  0  0  0  0  0  0  0  0  0  0  0
  141.3655   78.4721  224.4885 H   0  0  0  0  0  0  0  0  0  0  0  0
  142.1520   79.8290  222.9930 C   0  0  0  0  0  0  0  0  0  0  0  0
  142.9380   80.8640  224.1700 Cl  0  0  0  0  0  0  0  0  0  0  0  0
  142.2390   80.1280  221.6300 C   0  0  0  0  0  0  0  0  0  0  0  0
  142.8015   81.0129  221.2974 H   0  0  0  0  0  0  0  0  0  0  0  0
  141.6120   79.3040  220.6870 C   0  0  0  0  0  0  0  0  0  0  0  0
  141.7340   79.7030  218.9800 Cl  0  0  0  0  0  0  0  0  0  0  0  0
  140.5420   70.9180  225.5760 C   0  0  0  0  0  0  0  0  0  0  0  0
  139.9090   69.7980  226.1540 C   0  0  0  0  0  0  0  0  0  0  0  0
  139.3310   68.8410  225.3860 F   0  0  0  0  0  0  0  0  0  0  0  0
  139.8690   69.6630  227.5080 N   0  0  0  0  0  0  0  0  0  0  0  0
  140.4240   70.5820  228.3390 C   0  0  0  0  0  0  0  0  0  0  0  0
  140.3732   70.4393  229.4285 H   0  0  0  0  0  0  0  0  0  0  0  0
  141.0580   71.7060  227.8130 C   0  0  0  0  0  0  0  0  0  0  0  0
  141.5082   72.4540  228.4822 H   0  0  0  0  0  0  0  0  0  0  0  0
  141.1160   71.8730  226.4290 C   0  0  0  0  0  0  0  0  0  0  0  0
  141.6139   72.7573  226.0046 H   0  0  0  0  0  0  0  0  0  0  0  0
  1  2  1  0
  2  3  2  0
  3  4  1  0
  4  5  1  0
  5  6  2  0
  5  7  1  0
  7  8  1  0
  7  9  1  0
  7 10  1  0
 10 11  1  0
 10 12  1  0
 10 13  1  0
 13 14  1  0
 13 15  1  0
 13 16  1  0
 16 17  1  0
 17 18  2  0
 18 19  1  0
 18 20  1  0
 20 21  1  0
 20 22  2  0
 22 23  1  0
 22 24  1  0
 24 25  1  0
 24 26  2  0
 26 27  1  0
  2 28  1  0
 28 29  2  0
 29 30  1  0
 29 31  1  0
 31 32  2  0
 32 33  1  0
 32 34  1  0
 34 35  1  0
 34 36  2  0
 36 37  1  0
 26 17  1  0
 36 28  1  0
M  CHG  1   4  -1
M  END
>  <UniqueID>  (25) 
14

>  <SMILES>  (25) 
O=C(CCCOc1ccc(Cl)cc1Cl)[N-]/N=C/c1cccnc1F

>  <Energy>  (25) 
37.990803095884296

>  <Genealogy>  (25) 
O=C(CCCOc1ccc(Cl)cc1Cl)[N-]N=Cc1cccnc1F (protonated)
O=C(CCCOc1ccc(Cl)cc1Cl)[N-]/N=C/c1cccnc1F (cis-trans isomerization)
O=C(CCCOc1ccc(Cl)cc1Cl)[N-]/N=C/c1cccnc1F (3D coordinates assigned)
O=C(CCCOc1ccc(Cl)cc1Cl)[N-]/N=C/c1cccnc1F (optimized conformer: 37.990803095884296 kcal/mol)

>  <smiles>  (25) 
O=C(CCCOc1ccc(Cl)cc1Cl)NN=Cc1cccnc1F

>  <score_type>  (25) 
oracle

>  <origin>  (25) 
autodockgpu

>  <m_score__min__energy>  (25) 
-6.79

>  <m_primary>  (25) 
energy

>  <meeko>  (25) 
{"free_energy": -6.38, "intermolecular_energy": -9.06, "internal_energy": -0.65, "cluster_size": 6, "cluster_id": 3, "rank_in_cluster": 2}

>  <energy>  (25) 
-6.48

>  <cluster_rmsd>  (25) 
1.28

>  <rmsd>  (25) 
271.62

>  <cluster>  (25) 
1

$$$$
AMYMGDKGSBDGMC-NYADSFOUNA-M
     RDKit          3D

 37 38  0  0  0  0  0  0  0  0999 V2000
  140.1752   69.5531  223.8109 H   0  0  0  0  0  0  0  0  0  0  0  0
  139.9420   70.5280  224.2640 C   0  0  0  0  0  0  0  0  0  0  0  0
  139.3680   71.4430  223.5430 N   0  0  0  0  0  0  0  0  0  0  0  0
  139.8560   71.8780  222.2960 N   0  0  0  0  0  0  0  0  0  0  0  0
  139.8480   73.2390  221.8460 C   0  0  0  0  0  0  0  0  0  0  0  0
  140.6390   74.0870  222.3400 O   0  0  0  0  0  0  0  0  0  0  0  0
  138.8760   73.6620  220.7880 C   0  0  0  0  0  0  0  0  0  0  0  0
  139.4121   74.2436  220.0236 H   0  0  0  0  0  0  0  0  0  0  0  0
  138.4280   72.7565  220.3528 H   0  0  0  0  0  0  0  0  0  0  0  0
  137.7440   74.5250  221.3670 C   0  0  0  0  0  0  0  0  0  0  0  0
  137.2284   75.0298  220.5367 H   0  0  0  0  0  0  0  0  0  0  0  0
  137.0708   73.8551  221.9221 H   0  0  0  0  0  0  0  0  0  0  0  0
  138.2440   75.5880  222.3490 C   0  0  0  0  0  0  0  0  0  0  0  0
  137.4120   75.9083  222.9934 H   0  0  0  0  0  0  0  0  0  0  0  0
  139.0497   75.1602  222.9637 H   0  0  0  0  0  0  0  0  0  0  0  0
  138.7490   76.7150  221.6350 O   0  0  0  0  0  0  0  0  0  0  0  0
  139.6110   77.6800  222.1780 C   0  0  0  0  0  0  0  0  0  0  0  0
  139.1870   78.5930  223.1640 C   0  0  0  0  0  0  0  0  0  0  0  0
  138.1507   78.5607  223.5315 H   0  0  0  0  0  0  0  0  0  0  0  0
  140.0790   79.5400  223.6770 C   0  0  0  0  0  0  0  0  0  0  0  0
  139.7421   80.2501  224.4466 H   0  0  0  0  0  0  0  0  0  0  0  0
  141.3970   79.5870  223.2150 C   0  0  0  0  0  0  0  0  0  0  0  0
  142.5120   80.7760  223.8600 Cl  0  0  0  0  0  0  0  0  0  0  0  0
  141.8250   78.6850  222.2370 C   0  0  0  0  0  0  0  0  0  0  0  0
  142.8624   78.7225  221.8731 H   0  0  0  0  0  0  0  0  0  0  0  0
  140.9380   77.7340  221.7190 C   0  0  0  0  0  0  0  0  0  0  0  0
  141.5000   76.6140  220.4880 Cl  0  0  0  0  0  0  0  0  0  0  0  0
  140.2890   70.7690  225.6820 C   0  0  0  0  0  0  0  0  0  0  0  0
  139.8870   69.9050  226.7220 C   0  0  0  0  0  0  0  0  0  0  0  0
  139.1520   68.7930  226.4700 F   0  0  0  0  0  0  0  0  0  0  0  0
  140.2370   70.1800  228.0080 N   0  0  0  0  0  0  0  0  0  0  0  0
  140.9700   71.2760  228.3350 C   0  0  0  0  0  0  0  0  0  0  0  0
  141.2346   71.4666  229.3856 H   0  0  0  0  0  0  0  0  0  0  0  0
  141.3870   72.1590  227.3410 C   0  0  0  0  0  0  0  0  0  0  0  0
  141.9805   73.0480  227.6007 H   0  0  0  0  0  0  0  0  0  0  0  0
  141.0440   71.9040  226.0130 C   0  0  0  0  0  0  0  0  0  0  0  0
  141.3672   72.5963  225.2216 H   0  0  0  0  0  0  0  0  0  0  0  0
  1  2  1  0
  2  3  2  0
  3  4  1  0
  4  5  1  0
  5  6  2  0
  5  7  1  0
  7  8  1  0
  7  9  1  0
  7 10  1  0
 10 11  1  0
 10 12  1  0
 10 13  1  0
 13 14  1  0
 13 15  1  0
 13 16  1  0
 16 17  1  0
 17 18  2  0
 18 19  1  0
 18 20  1  0
 20 21  1  0
 20 22  2  0
 22 23  1  0
 22 24  1  0
 24 25  1  0
 24 26  2  0
 26 27  1  0
  2 28  1  0
 28 29  2  0
 29 30  1  0
 29 31  1  0
 31 32  2  0
 32 33  1  0
 32 34  1  0
 34 35  1  0
 34 36  2  0
 36 37  1  0
 26 17  1  0
 36 28  1  0
M  CHG  1   4  -1
M  END
>  <UniqueID>  (26) 
14

>  <SMILES>  (26) 
O=C(CCCOc1ccc(Cl)cc1Cl)[N-]/N=C/c1cccnc1F

>  <Energy>  (26) 
37.990803095884296

>  <Genealogy>  (26) 
O=C(CCCOc1ccc(Cl)cc1Cl)[N-]N=Cc1cccnc1F (protonated)
O=C(CCCOc1ccc(Cl)cc1Cl)[N-]/N=C/c1cccnc1F (cis-trans isomerization)
O=C(CCCOc1ccc(Cl)cc1Cl)[N-]/N=C/c1cccnc1F (3D coordinates assigned)
O=C(CCCOc1ccc(Cl)cc1Cl)[N-]/N=C/c1cccnc1F (optimized conformer: 37.990803095884296 kcal/mol)

>  <smiles>  (26) 
O=C(CCCOc1ccc(Cl)cc1Cl)NN=Cc1cccnc1F

>  <score_type>  (26) 
oracle

>  <origin>  (26) 
autodockgpu

>  <m_score__min__energy>  (26) 
-6.79

>  <m_primary>  (26) 
energy

>  <meeko>  (26) 
{"free_energy": -6.05, "intermolecular_energy": -8.73, "internal_energy": -0.81, "cluster_size": 6, "cluster_id": 3, "rank_in_cluster": 6}

>  <energy>  (26) 
-6.38

>  <cluster_rmsd>  (26) 
0.33

>  <rmsd>  (26) 
271.77

>  <cluster>  (26) 
1

$$$$
AMYMGDKGSBDGMC-NYADSFOUNA-M
     RDKit          3D

 37 38  0  0  0  0  0  0  0  0999 V2000
  140.8953   67.0588  227.1437 H   0  0  0  0  0  0  0  0  0  0  0  0
  140.2100   67.8020  226.7100 C   0  0  0  0  0  0  0  0  0  0  0  0
  139.2040   67.3980  225.9940 N   0  0  0  0  0  0  0  0  0  0  0  0
  138.9740   67.8060  224.6670 N   0  0  0  0  0  0  0  0  0  0  0  0
  138.3940   69.0620  224.2870 C   0  0  0  0  0  0  0  0  0  0  0  0
  137.8570   69.8100  225.1480 O   0  0  0  0  0  0  0  0  0  0  0  0
  138.4100   69.4790  222.8490 C   0  0  0  0  0  0  0  0  0  0  0  0
  138.3987   68.5789  222.2168 H   0  0  0  0  0  0  0  0  0  0  0  0
  137.5232   70.1027  222.6633 H   0  0  0  0  0  0  0  0  0  0  0  0
  139.6580   70.3090  222.5110 C   0  0  0  0  0  0  0  0  0  0  0  0
  140.4557   70.0477  223.2219 H   0  0  0  0  0  0  0  0  0  0  0  0
  139.9385   70.0734  221.4738 H   0  0  0  0  0  0  0  0  0  0  0  0
  139.4120   71.8190  222.5870 C   0  0  0  0  0  0  0  0  0  0  0  0
  138.3309   72.0083  222.6601 H   0  0  0  0  0  0  0  0  0  0  0  0
  139.9233   72.2231  223.4732 H   0  0  0  0  0  0  0  0  0  0  0  0
  139.9250   72.4580  221.4200 O   0  0  0  0  0  0  0  0  0  0  0  0
  141.2890   72.6480  221.1510 C   0  0  0  0  0  0  0  0  0  0  0  0
  142.1700   71.5680  220.9450 C   0  0  0  0  0  0  0  0  0  0  0  0
  141.7916   70.5362  220.9913 H   0  0  0  0  0  0  0  0  0  0  0  0
  143.5230   71.8020  220.6820 C   0  0  0  0  0  0  0  0  0  0  0  0
  144.2055   70.9542  220.5226 H   0  0  0  0  0  0  0  0  0  0  0  0
  144.0110   73.1110  220.6210 C   0  0  0  0  0  0  0  0  0  0  0  0
  145.7080   73.4020  220.2910 Cl  0  0  0  0  0  0  0  0  0  0  0  0
  143.1430   74.1880  220.8240 C   0  0  0  0  0  0  0  0  0  0  0  0
  143.5265   75.2179  220.7754 H   0  0  0  0  0  0  0  0  0  0  0  0
  141.7870   73.9600  221.0890 C   0  0  0  0  0  0  0  0  0  0  0  0
  140.7180   75.3310  221.3450 Cl  0  0  0  0  0  0  0  0  0  0  0  0
  140.4530   69.2400  226.9540 C   0  0  0  0  0  0  0  0  0  0  0  0
  139.9880   69.9070  228.1080 C   0  0  0  0  0  0  0  0  0  0  0  0
  139.2830   69.2510  229.0630 F   0  0  0  0  0  0  0  0  0  0  0  0
  140.2440   71.2320  228.2770 N   0  0  0  0  0  0  0  0  0  0  0  0
  140.9410   71.9530  227.3600 C   0  0  0  0  0  0  0  0  0  0  0  0
  141.1280   73.0237  227.5295 H   0  0  0  0  0  0  0  0  0  0  0  0
  141.4190   71.3370  226.2050 C   0  0  0  0  0  0  0  0  0  0  0  0
  141.9847   71.9159  225.4601 H   0  0  0  0  0  0  0  0  0  0  0  0
  141.1730   69.9790  226.0030 C   0  0  0  0  0  0  0  0  0  0  0  0
  141.5453   69.4848  225.0935 H   0  0  0  0  0  0  0  0  0  0  0  0
  1  2  1  0
  2  3  2  0
  3  4  1  0
  4  5  1  0
  5  6  2  0
  5  7  1  0
  7  8  1  0
  7  9  1  0
  7 10  1  0
 10 11  1  0
 10 12  1  0
 10 13  1  0
 13 14  1  0
 13 15  1  0
 13 16  1  0
 16 17  1  0
 17 18  2  0
 18 19  1  0
 18 20  1  0
 20 21  1  0
 20 22  2  0
 22 23  1  0
 22 24  1  0
 24 25  1  0
 24 26  2  0
 26 27  1  0
  2 28  1  0
 28 29  2  0
 29 30  1  0
 29 31  1  0
 31 32  2  0
 32 33  1  0
 32 34  1  0
 34 35  1  0
 34 36  2  0
 36 37  1  0
 26 17  1  0
 36 28  1  0
M  CHG  1   4  -1
M  END
>  <UniqueID>  (27) 
14

>  <SMILES>  (27) 
O=C(CCCOc1ccc(Cl)cc1Cl)[N-]/N=C/c1cccnc1F

>  <Energy>  (27) 
37.990803095884296

>  <Genealogy>  (27) 
O=C(CCCOc1ccc(Cl)cc1Cl)[N-]N=Cc1cccnc1F (protonated)
O=C(CCCOc1ccc(Cl)cc1Cl)[N-]/N=C/c1cccnc1F (cis-trans isomerization)
O=C(CCCOc1ccc(Cl)cc1Cl)[N-]/N=C/c1cccnc1F (3D coordinates assigned)
O=C(CCCOc1ccc(Cl)cc1Cl)[N-]/N=C/c1cccnc1F (optimized conformer: 37.990803095884296 kcal/mol)

>  <smiles>  (27) 
O=C(CCCOc1ccc(Cl)cc1Cl)NN=Cc1cccnc1F

>  <score_type>  (27) 
oracle

>  <origin>  (27) 
autodockgpu

>  <m_score__min__energy>  (27) 
-6.79

>  <m_primary>  (27) 
energy

>  <meeko>  (27) 
{"free_energy": -6.33, "intermolecular_energy": -9.01, "internal_energy": -0.98, "cluster_size": 11, "cluster_id": 1, "rank_in_cluster": 7}

>  <energy>  (27) 
-6.33

>  <cluster_rmsd>  (27) 
1.31

>  <rmsd>  (27) 
271.66

>  <cluster>  (27) 
1

$$$$
AMYMGDKGSBDGMC-NYADSFOUNA-M
     RDKit          3D

 37 38  0  0  0  0  0  0  0  0999 V2000
  139.9503   70.3219  223.3259 H   0  0  0  0  0  0  0  0  0  0  0  0
  140.3000   71.1430  223.9690 C   0  0  0  0  0  0  0  0  0  0  0  0
  140.6660   72.2640  223.4250 N   0  0  0  0  0  0  0  0  0  0  0  0
  140.1830   72.7280  222.1870 N   0  0  0  0  0  0  0  0  0  0  0  0
  139.6560   74.0410  221.9550 C   0  0  0  0  0  0  0  0  0  0  0  0
  140.3900   75.0590  222.0660 O   0  0  0  0  0  0  0  0  0  0  0  0
  138.2110   74.2040  221.5940 C   0  0  0  0  0  0  0  0  0  0  0  0
  138.1325   74.3891  220.5125 H   0  0  0  0  0  0  0  0  0  0  0  0
  137.6813   73.2821  221.8759 H   0  0  0  0  0  0  0  0  0  0  0  0
  137.5650   75.3770  222.3480 C   0  0  0  0  0  0  0  0  0  0  0  0
  136.4790   75.2086  222.3941 H   0  0  0  0  0  0  0  0  0  0  0  0
  138.0176   75.4135  223.3499 H   0  0  0  0  0  0  0  0  0  0  0  0
  137.8210   76.7310  221.6800 C   0  0  0  0  0  0  0  0  0  0  0  0
  138.7426   76.6735  221.0822 H   0  0  0  0  0  0  0  0  0  0  0  0
  136.9688   76.9792  221.0302 H   0  0  0  0  0  0  0  0  0  0  0  0
  137.9640   77.7460  222.6710 O   0  0  0  0  0  0  0  0  0  0  0  0
  139.1540   78.4440  222.9290 C   0  0  0  0  0  0  0  0  0  0  0  0
  140.4220   77.8860  222.6710 C   0  0  0  0  0  0  0  0  0  0  0  0
  140.4992   76.8718  222.2523 H   0  0  0  0  0  0  0  0  0  0  0  0
  141.5820   78.6160  222.9450 C   0  0  0  0  0  0  0  0  0  0  0  0
  142.5685   78.1738  222.7421 H   0  0  0  0  0  0  0  0  0  0  0  0
  141.4930   79.9060  223.4760 C   0  0  0  0  0  0  0  0  0  0  0  0
  142.9500   80.8180  223.8180 Cl  0  0  0  0  0  0  0  0  0  0  0  0
  140.2390   80.4670  223.7340 C   0  0  0  0  0  0  0  0  0  0  0  0
  140.1680   81.4823  224.1513 H   0  0  0  0  0  0  0  0  0  0  0  0
  139.0730   79.7410  223.4630 C   0  0  0  0  0  0  0  0  0  0  0  0
  137.5090   80.4680  223.8010 Cl  0  0  0  0  0  0  0  0  0  0  0  0
  140.3430   70.9460  225.4340 C   0  0  0  0  0  0  0  0  0  0  0  0
  139.7030   69.8660  226.0770 C   0  0  0  0  0  0  0  0  0  0  0  0
  139.0060   68.9400  225.3720 F   0  0  0  0  0  0  0  0  0  0  0  0
  139.7780   69.7380  227.4300 N   0  0  0  0  0  0  0  0  0  0  0  0
  140.4560   70.6280  228.2000 C   0  0  0  0  0  0  0  0  0  0  0  0
  140.4952   70.4930  229.2910 H   0  0  0  0  0  0  0  0  0  0  0  0
  141.1020   71.7120  227.6090 C   0  0  0  0  0  0  0  0  0  0  0  0
  141.6524   72.4354  228.2284 H   0  0  0  0  0  0  0  0  0  0  0  0
  141.0440   71.8710  226.2240 C   0  0  0  0  0  0  0  0  0  0  0  0
  141.5496   72.7247  225.7491 H   0  0  0  0  0  0  0  0  0  0  0  0
  1  2  1  0
  2  3  2  0
  3  4  1  0
  4  5  1  0
  5  6  2  0
  5  7  1  0
  7  8  1  0
  7  9  1  0
  7 10  1  0
 10 11  1  0
 10 12  1  0
 10 13  1  0
 13 14  1  0
 13 15  1  0
 13 16  1  0
 16 17  1  0
 17 18  2  0
 18 19  1  0
 18 20  1  0
 20 21  1  0
 20 22  2  0
 22 23  1  0
 22 24  1  0
 24 25  1  0
 24 26  2  0
 26 27  1  0
  2 28  1  0
 28 29  2  0
 29 30  1  0
 29 31  1  0
 31 32  2  0
 32 33  1  0
 32 34  1  0
 34 35  1  0
 34 36  2  0
 36 37  1  0
 26 17  1  0
 36 28  1  0
M  CHG  1   4  -1
M  END
>  <UniqueID>  (28) 
14

>  <SMILES>  (28) 
O=C(CCCOc1ccc(Cl)cc1Cl)[N-]/N=C/c1cccnc1F

>  <Energy>  (28) 
37.990803095884296

>  <Genealogy>  (28) 
O=C(CCCOc1ccc(Cl)cc1Cl)[N-]N=Cc1cccnc1F (protonated)
O=C(CCCOc1ccc(Cl)cc1Cl)[N-]/N=C/c1cccnc1F (cis-trans isomerization)
O=C(CCCOc1ccc(Cl)cc1Cl)[N-]/N=C/c1cccnc1F (3D coordinates assigned)
O=C(CCCOc1ccc(Cl)cc1Cl)[N-]/N=C/c1cccnc1F (optimized conformer: 37.990803095884296 kcal/mol)

>  <smiles>  (28) 
O=C(CCCOc1ccc(Cl)cc1Cl)NN=Cc1cccnc1F

>  <score_type>  (28) 
oracle

>  <origin>  (28) 
autodockgpu

>  <m_score__min__energy>  (28) 
-6.79

>  <m_primary>  (28) 
energy

>  <meeko>  (28) 
{"free_energy": -6.45, "intermolecular_energy": -9.14, "internal_energy": -0.68, "cluster_size": 6, "cluster_id": 3, "rank_in_cluster": 1}

>  <energy>  (28) 
-6.32

>  <cluster_rmsd>  (28) 
0.6

>  <rmsd>  (28) 
271.73

>  <cluster>  (28) 
1

$$$$
AMYMGDKGSBDGMC-NYADSFOUNA-M
     RDKit          3D

 37 38  0  0  0  0  0  0  0  0999 V2000
  139.1012   77.2919  221.6311 H   0  0  0  0  0  0  0  0  0  0  0  0
  140.1000   77.1450  222.0680 C   0  0  0  0  0  0  0  0  0  0  0  0
  140.4940   75.9430  222.3640 N   0  0  0  0  0  0  0  0  0  0  0  0
  139.6530   74.8150  222.3370 N   0  0  0  0  0  0  0  0  0  0  0  0
  140.0680   73.4950  221.9600 C   0  0  0  0  0  0  0  0  0  0  0  0
  141.2790   73.1540  222.0350 O   0  0  0  0  0  0  0  0  0  0  0  0
  139.0530   72.5160  221.4540 C   0  0  0  0  0  0  0  0  0  0  0  0
  138.7561   72.8051  220.4350 H   0  0  0  0  0  0  0  0  0  0  0  0
  139.5084   71.5148  221.4632 H   0  0  0  0  0  0  0  0  0  0  0  0
  137.8020   72.4810  222.3460 C   0  0  0  0  0  0  0  0  0  0  0  0
  137.6927   73.4601  222.8354 H   0  0  0  0  0  0  0  0  0  0  0  0
  136.9430   72.2474  221.6999 H   0  0  0  0  0  0  0  0  0  0  0  0
  137.8700   71.3990  223.4280 C   0  0  0  0  0  0  0  0  0  0  0  0
  137.3842   71.7686  224.3431 H   0  0  0  0  0  0  0  0  0  0  0  0
  137.3534   70.4970  223.0682 H   0  0  0  0  0  0  0  0  0  0  0  0
  139.2290   71.0760  223.7130 O   0  0  0  0  0  0  0  0  0  0  0  0
  139.6710   70.4690  224.8990 C   0  0  0  0  0  0  0  0  0  0  0  0
  140.2500   71.2090  225.9490 C   0  0  0  0  0  0  0  0  0  0  0  0
  140.3657   72.2986  225.8524 H   0  0  0  0  0  0  0  0  0  0  0  0
  140.6780   70.5640  227.1130 C   0  0  0  0  0  0  0  0  0  0  0  0
  141.1287   71.1477  227.9292 H   0  0  0  0  0  0  0  0  0  0  0  0
  140.5350   69.1800  227.2430 C   0  0  0  0  0  0  0  0  0  0  0  0
  141.0740   68.3740  228.7040 Cl  0  0  0  0  0  0  0  0  0  0  0  0
  139.9620   68.4380  226.2060 C   0  0  0  0  0  0  0  0  0  0  0  0
  139.8493   67.3486  226.3083 H   0  0  0  0  0  0  0  0  0  0  0  0
  139.5310   69.0780  225.0370 C   0  0  0  0  0  0  0  0  0  0  0  0
  138.8180   68.1230  223.7470 Cl  0  0  0  0  0  0  0  0  0  0  0  0
  140.9660   78.3200  222.3060 C   0  0  0  0  0  0  0  0  0  0  0  0
  141.4060   79.1650  221.2650 C   0  0  0  0  0  0  0  0  0  0  0  0
  141.0520   78.9370  219.9760 F   0  0  0  0  0  0  0  0  0  0  0  0
  142.2020   80.2320  221.5450 N   0  0  0  0  0  0  0  0  0  0  0  0
  142.5980   80.5200  222.8120 C   0  0  0  0  0  0  0  0  0  0  0  0
  143.2418   81.3916  223.0015 H   0  0  0  0  0  0  0  0  0  0  0  0
  142.1900   79.7130  223.8720 C   0  0  0  0  0  0  0  0  0  0  0  0
  142.5088   79.9423  224.8995 H   0  0  0  0  0  0  0  0  0  0  0  0
  141.3730   78.6110  223.6170 C   0  0  0  0  0  0  0  0  0  0  0  0
  141.0465   77.9676  224.4473 H   0  0  0  0  0  0  0  0  0  0  0  0
  1  2  1  0
  2  3  2  0
  3  4  1  0
  4  5  1  0
  5  6  2  0
  5  7  1  0
  7  8  1  0
  7  9  1  0
  7 10  1  0
 10 11  1  0
 10 12  1  0
 10 13  1  0
 13 14  1  0
 13 15  1  0
 13 16  1  0
 16 17  1  0
 17 18  2  0
 18 19  1  0
 18 20  1  0
 20 21  1  0
 20 22  2  0
 22 23  1  0
 22 24  1  0
 24 25  1  0
 24 26  2  0
 26 27  1  0
  2 28  1  0
 28 29  2  0
 29 30  1  0
 29 31  1  0
 31 32  2  0
 32 33  1  0
 32 34  1  0
 34 35  1  0
 34 36  2  0
 36 37  1  0
 26 17  1  0
 36 28  1  0
M  CHG  1   4  -1
M  END
>  <UniqueID>  (29) 
14

>  <SMILES>  (29) 
O=C(CCCOc1ccc(Cl)cc1Cl)[N-]/N=C/c1cccnc1F

>  <Energy>  (29) 
37.990803095884296

>  <Genealogy>  (29) 
O=C(CCCOc1ccc(Cl)cc1Cl)[N-]N=Cc1cccnc1F (protonated)
O=C(CCCOc1ccc(Cl)cc1Cl)[N-]/N=C/c1cccnc1F (cis-trans isomerization)
O=C(CCCOc1ccc(Cl)cc1Cl)[N-]/N=C/c1cccnc1F (3D coordinates assigned)
O=C(CCCOc1ccc(Cl)cc1Cl)[N-]/N=C/c1cccnc1F (optimized conformer: 37.990803095884296 kcal/mol)

>  <smiles>  (29) 
O=C(CCCOc1ccc(Cl)cc1Cl)NN=Cc1cccnc1F

>  <score_type>  (29) 
oracle

>  <origin>  (29) 
autodockgpu

>  <m_score__min__energy>  (29) 
-6.79

>  <m_primary>  (29) 
energy

>  <meeko>  (29) 
{"free_energy": -6.16, "intermolecular_energy": -8.84, "internal_energy": -0.5, "cluster_size": 1, "cluster_id": 4, "rank_in_cluster": 1}

>  <energy>  (29) 
-6.17

>  <cluster_rmsd>  (29) 
1.51

>  <rmsd>  (29) 
271.69

>  <cluster>  (29) 
1

$$$$
AMYMGDKGSBDGMC-NYADSFOUNA-M
     RDKit          3D

 37 38  0  0  0  0  0  0  0  0999 V2000
  139.4531   70.4340  223.5404 H   0  0  0  0  0  0  0  0  0  0  0  0
  140.0890   71.1260  224.1120 C   0  0  0  0  0  0  0  0  0  0  0  0
  140.6960   72.0920  223.4910 N   0  0  0  0  0  0  0  0  0  0  0  0
  140.1850   72.7280  222.3440 N   0  0  0  0  0  0  0  0  0  0  0  0
  140.6140   74.0070  221.8590 C   0  0  0  0  0  0  0  0  0  0  0  0
  140.0680   75.0680  222.2670 O   0  0  0  0  0  0  0  0  0  0  0  0
  141.7130   74.0830  220.8430 C   0  0  0  0  0  0  0  0  0  0  0  0
  142.6168   73.6150  221.2602 H   0  0  0  0  0  0  0  0  0  0  0  0
  141.3783   73.5570  219.9367 H   0  0  0  0  0  0  0  0  0  0  0  0
  142.0360   75.5350  220.4610 C   0  0  0  0  0  0  0  0  0  0  0  0
  142.1325   76.1269  221.3832 H   0  0  0  0  0  0  0  0  0  0  0  0
  142.9708   75.5225  219.8813 H   0  0  0  0  0  0  0  0  0  0  0  0
  140.9590   76.1760  219.5800 C   0  0  0  0  0  0  0  0  0  0  0  0
  141.4301   76.6050  218.6833 H   0  0  0  0  0  0  0  0  0  0  0  0
  140.2285   75.4074  219.2873 H   0  0  0  0  0  0  0  0  0  0  0  0
  140.2880   77.2080  220.3000 O   0  0  0  0  0  0  0  0  0  0  0  0
  140.9040   78.0600  221.2270 C   0  0  0  0  0  0  0  0  0  0  0  0
  140.8400   77.8300  222.6160 C   0  0  0  0  0  0  0  0  0  0  0  0
  140.2936   76.9567  223.0018 H   0  0  0  0  0  0  0  0  0  0  0  0
  141.4680   78.7070  223.5060 C   0  0  0  0  0  0  0  0  0  0  0  0
  141.4142   78.5214  224.5889 H   0  0  0  0  0  0  0  0  0  0  0  0
  142.1640   79.8190  223.0230 C   0  0  0  0  0  0  0  0  0  0  0  0
  142.9500   80.9170  224.1420 Cl  0  0  0  0  0  0  0  0  0  0  0  0
  142.2330   80.0550  221.6470 C   0  0  0  0  0  0  0  0  0  0  0  0
  142.7814   80.9297  221.2672 H   0  0  0  0  0  0  0  0  0  0  0  0
  141.6060   79.1810  220.7510 C   0  0  0  0  0  0  0  0  0  0  0  0
  141.7040   79.5020  219.0260 Cl  0  0  0  0  0  0  0  0  0  0  0  0
  140.2350   70.9370  225.5720 C   0  0  0  0  0  0  0  0  0  0  0  0
  139.6820   69.8340  226.2560 C   0  0  0  0  0  0  0  0  0  0  0  0
  138.9780   68.8780  225.5990 F   0  0  0  0  0  0  0  0  0  0  0  0
  139.8490   69.7140  227.6010 N   0  0  0  0  0  0  0  0  0  0  0  0
  140.5390   70.6340  228.3250 C   0  0  0  0  0  0  0  0  0  0  0  0
  140.6540   70.5048  229.4113 H   0  0  0  0  0  0  0  0  0  0  0  0
  141.1010   71.7410  227.6920 C   0  0  0  0  0  0  0  0  0  0  0  0
  141.6605   72.4885  228.2735 H   0  0  0  0  0  0  0  0  0  0  0  0
  140.9470   71.8920  226.3130 C   0  0  0  0  0  0  0  0  0  0  0  0
  141.3858   72.7635  225.8051 H   0  0  0  0  0  0  0  0  0  0  0  0
  1  2  1  0
  2  3  2  0
  3  4  1  0
  4  5  1  0
  5  6  2  0
  5  7  1  0
  7  8  1  0
  7  9  1  0
  7 10  1  0
 10 11  1  0
 10 12  1  0
 10 13  1  0
 13 14  1  0
 13 15  1  0
 13 16  1  0
 16 17  1  0
 17 18  2  0
 18 19  1  0
 18 20  1  0
 20 21  1  0
 20 22  2  0
 22 23  1  0
 22 24  1  0
 24 25  1  0
 24 26  2  0
 26 27  1  0
  2 28  1  0
 28 29  2  0
 29 30  1  0
 29 31  1  0
 31 32  2  0
 32 33  1  0
 32 34  1  0
 34 35  1  0
 34 36  2  0
 36 37  1  0
 26 17  1  0
 36 28  1  0
M  CHG  1   4  -1
M  END
>  <UniqueID>  (30) 
14

>  <SMILES>  (30) 
O=C(CCCOc1ccc(Cl)cc1Cl)[N-]/N=C/c1cccnc1F

>  <Energy>  (30) 
37.990803095884296

>  <Genealogy>  (30) 
O=C(CCCOc1ccc(Cl)cc1Cl)[N-]N=Cc1cccnc1F (protonated)
O=C(CCCOc1ccc(Cl)cc1Cl)[N-]/N=C/c1cccnc1F (cis-trans isomerization)
O=C(CCCOc1ccc(Cl)cc1Cl)[N-]/N=C/c1cccnc1F (3D coordinates assigned)
O=C(CCCOc1ccc(Cl)cc1Cl)[N-]/N=C/c1cccnc1F (optimized conformer: 37.990803095884296 kcal/mol)

>  <smiles>  (30) 
O=C(CCCOc1ccc(Cl)cc1Cl)NN=Cc1cccnc1F

>  <score_type>  (30) 
oracle

>  <origin>  (30) 
autodockgpu

>  <m_score__min__energy>  (30) 
-6.79

>  <m_primary>  (30) 
energy

>  <meeko>  (30) 
{"free_energy": -6.35, "intermolecular_energy": -9.03, "internal_energy": -0.67, "cluster_size": 6, "cluster_id": 3, "rank_in_cluster": 3}

>  <energy>  (30) 
-6.08

>  <cluster_rmsd>  (30) 
1.22

>  <rmsd>  (30) 
271.63

>  <cluster>  (30) 
1

$$$$
AMYMGDKGSBDGMC-NYADSFOUNA-M
     RDKit          3D

 37 38  0  0  0  0  0  0  0  0999 V2000
  140.7256   67.0961  227.3999 H   0  0  0  0  0  0  0  0  0  0  0  0
  140.1240   67.8310  226.8450 C   0  0  0  0  0  0  0  0  0  0  0  0
  139.1800   67.4140  226.0560 N   0  0  0  0  0  0  0  0  0  0  0  0
  139.1820   67.6080  224.6620 N   0  0  0  0  0  0  0  0  0  0  0  0
  138.4870   68.6630  223.9830 C   0  0  0  0  0  0  0  0  0  0  0  0
  137.3060   68.9660  224.3010 O   0  0  0  0  0  0  0  0  0  0  0  0
  139.1680   69.4010  222.8710 C   0  0  0  0  0  0  0  0  0  0  0  0
  140.2521   69.4045  223.0571 H   0  0  0  0  0  0  0  0  0  0  0  0
  138.9317   68.8905  221.9257 H   0  0  0  0  0  0  0  0  0  0  0  0
  138.6760   70.8530  222.7670 C   0  0  0  0  0  0  0  0  0  0  0  0
  138.6142   71.1268  221.7034 H   0  0  0  0  0  0  0  0  0  0  0  0
  137.6949   70.9042  223.2619 H   0  0  0  0  0  0  0  0  0  0  0  0
  139.5990   71.8500  223.4750 C   0  0  0  0  0  0  0  0  0  0  0  0
  139.0884   72.2515  224.3628 H   0  0  0  0  0  0  0  0  0  0  0  0
  140.5229   71.3345  223.7762 H   0  0  0  0  0  0  0  0  0  0  0  0
  139.9280   72.9220  222.5950 O   0  0  0  0  0  0  0  0  0  0  0  0
  141.1110   73.0000  221.8440 C   0  0  0  0  0  0  0  0  0  0  0  0
  141.9030   71.8660  221.5710 C   0  0  0  0  0  0  0  0  0  0  0  0
  141.5966   70.8797  221.9497 H   0  0  0  0  0  0  0  0  0  0  0  0
  143.0760   71.9900  220.8210 C   0  0  0  0  0  0  0  0  0  0  0  0
  143.6901   71.1014  220.6127 H   0  0  0  0  0  0  0  0  0  0  0  0
  143.4710   73.2390  220.3350 C   0  0  0  0  0  0  0  0  0  0  0  0
  144.9430   73.3910  219.3950 Cl  0  0  0  0  0  0  0  0  0  0  0  0
  142.6920   74.3690  220.6020 C   0  0  0  0  0  0  0  0  0  0  0  0
  143.0039   75.3524  220.2204 H   0  0  0  0  0  0  0  0  0  0  0  0
  141.5170   74.2530  221.3530 C   0  0  0  0  0  0  0  0  0  0  0  0
  140.5570   75.6880  221.6770 Cl  0  0  0  0  0  0  0  0  0  0  0  0
  140.4070   69.2730  227.0130 C   0  0  0  0  0  0  0  0  0  0  0  0
  139.9480   70.0160  228.1210 C   0  0  0  0  0  0  0  0  0  0  0  0
  139.2130   69.4350  229.1020 F   0  0  0  0  0  0  0  0  0  0  0  0
  140.2400   71.3410  228.2210 N   0  0  0  0  0  0  0  0  0  0  0  0
  140.9690   71.9890  227.2750 C   0  0  0  0  0  0  0  0  0  0  0  0
  141.1867   73.0613  227.3882 H   0  0  0  0  0  0  0  0  0  0  0  0
  141.4410   71.2970  226.1620 C   0  0  0  0  0  0  0  0  0  0  0  0
  142.0312   71.8178  225.3936 H   0  0  0  0  0  0  0  0  0  0  0  0
  141.1580   69.9370  226.0310 C   0  0  0  0  0  0  0  0  0  0  0  0
  141.5251   69.3831  225.1544 H   0  0  0  0  0  0  0  0  0  0  0  0
  1  2  1  0
  2  3  2  0
  3  4  1  0
  4  5  1  0
  5  6  2  0
  5  7  1  0
  7  8  1  0
  7  9  1  0
  7 10  1  0
 10 11  1  0
 10 12  1  0
 10 13  1  0
 13 14  1  0
 13 15  1  0
 13 16  1  0
 16 17  1  0
 17 18  2  0
 18 19  1  0
 18 20  1  0
 20 21  1  0
 20 22  2  0
 22 23  1  0
 22 24  1  0
 24 25  1  0
 24 26  2  0
 26 27  1  0
  2 28  1  0
 28 29  2  0
 29 30  1  0
 29 31  1  0
 31 32  2  0
 32 33  1  0
 32 34  1  0
 34 35  1  0
 34 36  2  0
 36 37  1  0
 26 17  1  0
 36 28  1  0
M  CHG  1   4  -1
M  END
>  <UniqueID>  (31) 
14

>  <SMILES>  (31) 
O=C(CCCOc1ccc(Cl)cc1Cl)[N-]/N=C/c1cccnc1F

>  <Energy>  (31) 
37.990803095884296

>  <Genealogy>  (31) 
O=C(CCCOc1ccc(Cl)cc1Cl)[N-]N=Cc1cccnc1F (protonated)
O=C(CCCOc1ccc(Cl)cc1Cl)[N-]/N=C/c1cccnc1F (cis-trans isomerization)
O=C(CCCOc1ccc(Cl)cc1Cl)[N-]/N=C/c1cccnc1F (3D coordinates assigned)
O=C(CCCOc1ccc(Cl)cc1Cl)[N-]/N=C/c1cccnc1F (optimized conformer: 37.990803095884296 kcal/mol)

>  <smiles>  (31) 
O=C(CCCOc1ccc(Cl)cc1Cl)NN=Cc1cccnc1F

>  <score_type>  (31) 
oracle

>  <origin>  (31) 
autodockgpu

>  <m_score__min__energy>  (31) 
-6.79

>  <m_primary>  (31) 
energy

>  <meeko>  (31) 
{"free_energy": -6.51, "intermolecular_energy": -9.19, "internal_energy": -1.09, "cluster_size": 11, "cluster_id": 1, "rank_in_cluster": 4}

>  <energy>  (31) 
-6.03

>  <cluster_rmsd>  (31) 
1.29

>  <rmsd>  (31) 
271.61

>  <cluster>  (31) 
1

$$$$
AMYMGDKGSBDGMC-NYADSFOUNA-M
     RDKit          3D

 37 38  0  0  0  0  0  0  0  0999 V2000
  139.6667   70.2923  223.5138 H   0  0  0  0  0  0  0  0  0  0  0  0
  140.0750   71.1180  224.1150 C   0  0  0  0  0  0  0  0  0  0  0  0
  140.3500   72.2490  223.5380 N   0  0  0  0  0  0  0  0  0  0  0  0
  139.6630   72.7410  222.4120 N   0  0  0  0  0  0  0  0  0  0  0  0
  139.7270   74.0950  221.9440 C   0  0  0  0  0  0  0  0  0  0  0  0
  140.7640   74.7890  222.1170 O   0  0  0  0  0  0  0  0  0  0  0  0
  138.5390   74.6960  221.2560 C   0  0  0  0  0  0  0  0  0  0  0  0
  138.3259   74.1191  220.3440 H   0  0  0  0  0  0  0  0  0  0  0  0
  137.6875   74.6633  221.9516 H   0  0  0  0  0  0  0  0  0  0  0  0
  138.7860   76.1620  220.8710 C   0  0  0  0  0  0  0  0  0  0  0  0
  139.7884   76.4516  221.2194 H   0  0  0  0  0  0  0  0  0  0  0  0
  138.6940   76.2344  219.7773 H   0  0  0  0  0  0  0  0  0  0  0  0
  137.7610   77.1230  221.4810 C   0  0  0  0  0  0  0  0  0  0  0  0
  137.6487   77.9994  220.8258 H   0  0  0  0  0  0  0  0  0  0  0  0
  136.7957   76.6050  221.5807 H   0  0  0  0  0  0  0  0  0  0  0  0
  138.1980   77.5500  222.7700 O   0  0  0  0  0  0  0  0  0  0  0  0
  139.3550   78.3060  223.0080 C   0  0  0  0  0  0  0  0  0  0  0  0
  140.6470   77.7930  222.7780 C   0  0  0  0  0  0  0  0  0  0  0  0
  140.7695   76.7678  222.3984 H   0  0  0  0  0  0  0  0  0  0  0  0
  141.7740   78.5810  223.0300 C   0  0  0  0  0  0  0  0  0  0  0  0
  142.7797   78.1741  222.8483 H   0  0  0  0  0  0  0  0  0  0  0  0
  141.6260   79.8840  223.5120 C   0  0  0  0  0  0  0  0  0  0  0  0
  143.0420   80.8700  223.8280 Cl  0  0  0  0  0  0  0  0  0  0  0  0
  140.3480   80.4020  223.7430 C   0  0  0  0  0  0  0  0  0  0  0  0
  140.2321   81.4281  224.1221 H   0  0  0  0  0  0  0  0  0  0  0  0
  139.2160   79.6180  223.4930 C   0  0  0  0  0  0  0  0  0  0  0  0
  137.6210   80.2890  223.7950 Cl  0  0  0  0  0  0  0  0  0  0  0  0
  140.2990   70.9170  225.5620 C   0  0  0  0  0  0  0  0  0  0  0  0
  139.8780   69.7560  226.2450 C   0  0  0  0  0  0  0  0  0  0  0  0
  139.2360   68.7520  225.5960 F   0  0  0  0  0  0  0  0  0  0  0  0
  140.1120   69.6280  227.5790 N   0  0  0  0  0  0  0  0  0  0  0  0
  140.7470   70.5930  228.2930 C   0  0  0  0  0  0  0  0  0  0  0  0
  140.9205   70.4549  229.3704 H   0  0  0  0  0  0  0  0  0  0  0  0
  141.1790   71.7580  227.6620 C   0  0  0  0  0  0  0  0  0  0  0  0
  141.6925   72.5430  228.2365 H   0  0  0  0  0  0  0  0  0  0  0  0
  140.9540   71.9190  226.2950 C   0  0  0  0  0  0  0  0  0  0  0  0
  141.2914   72.8355  225.7889 H   0  0  0  0  0  0  0  0  0  0  0  0
  1  2  1  0
  2  3  2  0
  3  4  1  0
  4  5  1  0
  5  6  2  0
  5  7  1  0
  7  8  1  0
  7  9  1  0
  7 10  1  0
 10 11  1  0
 10 12  1  0
 10 13  1  0
 13 14  1  0
 13 15  1  0
 13 16  1  0
 16 17  1  0
 17 18  2  0
 18 19  1  0
 18 20  1  0
 20 21  1  0
 20 22  2  0
 22 23  1  0
 22 24  1  0
 24 25  1  0
 24 26  2  0
 26 27  1  0
  2 28  1  0
 28 29  2  0
 29 30  1  0
 29 31  1  0
 31 32  2  0
 32 33  1  0
 32 34  1  0
 34 35  1  0
 34 36  2  0
 36 37  1  0
 26 17  1  0
 36 28  1  0
M  CHG  1   4  -1
M  END
>  <UniqueID>  (32) 
14

>  <SMILES>  (32) 
O=C(CCCOc1ccc(Cl)cc1Cl)[N-]/N=C/c1cccnc1F

>  <Energy>  (32) 
37.990803095884296

>  <Genealogy>  (32) 
O=C(CCCOc1ccc(Cl)cc1Cl)[N-]N=Cc1cccnc1F (protonated)
O=C(CCCOc1ccc(Cl)cc1Cl)[N-]/N=C/c1cccnc1F (cis-trans isomerization)
O=C(CCCOc1ccc(Cl)cc1Cl)[N-]/N=C/c1cccnc1F (3D coordinates assigned)
O=C(CCCOc1ccc(Cl)cc1Cl)[N-]/N=C/c1cccnc1F (optimized conformer: 37.990803095884296 kcal/mol)

>  <smiles>  (32) 
O=C(CCCOc1ccc(Cl)cc1Cl)NN=Cc1cccnc1F

>  <score_type>  (32) 
oracle

>  <origin>  (32) 
autodockgpu

>  <m_score__min__energy>  (32) 
-6.79

>  <m_primary>  (32) 
energy

>  <meeko>  (32) 
{"free_energy": -6.24, "intermolecular_energy": -8.92, "internal_energy": -0.58, "cluster_size": 6, "cluster_id": 3, "rank_in_cluster": 5}

>  <energy>  (32) 
-6.6

>  <cluster_rmsd>  (32) 
0.0

>  <rmsd>  (32) 
270.87

>  <cluster>  (32) 
2

$$$$
AMYMGDKGSBDGMC-NYADSFOUNA-M
     RDKit          3D

 37 38  0  0  0  0  0  0  0  0999 V2000
  140.8728   67.0483  227.2756 H   0  0  0  0  0  0  0  0  0  0  0  0
  140.2150   67.7900  226.7990 C   0  0  0  0  0  0  0  0  0  0  0  0
  139.2470   67.3830  226.0350 N   0  0  0  0  0  0  0  0  0  0  0  0
  139.0290   67.8580  224.7280 N   0  0  0  0  0  0  0  0  0  0  0  0
  138.4270   69.1180  224.4060 C   0  0  0  0  0  0  0  0  0  0  0  0
  138.0010   69.8800  225.3160 O   0  0  0  0  0  0  0  0  0  0  0  0
  138.2860   69.5270  222.9720 C   0  0  0  0  0  0  0  0  0  0  0  0
  138.2142   68.6232  222.3492 H   0  0  0  0  0  0  0  0  0  0  0  0
  137.3797   70.1434  222.8794 H   0  0  0  0  0  0  0  0  0  0  0  0
  139.4840   70.3640  222.4980 C   0  0  0  0  0  0  0  0  0  0  0  0
  140.3708   69.7145  222.4561 H   0  0  0  0  0  0  0  0  0  0  0  0
  139.2287   70.7742  221.5098 H   0  0  0  0  0  0  0  0  0  0  0  0
  139.7890   71.5480  223.4210 C   0  0  0  0  0  0  0  0  0  0  0  0
  139.1160   71.5145  224.2904 H   0  0  0  0  0  0  0  0  0  0  0  0
  140.8351   71.4842  223.7551 H   0  0  0  0  0  0  0  0  0  0  0  0
  139.5960   72.7760  222.7220 O   0  0  0  0  0  0  0  0  0  0  0  0
  140.5780   73.4140  221.9510 C   0  0  0  0  0  0  0  0  0  0  0  0
  141.6870   72.7220  221.4250 C   0  0  0  0  0  0  0  0  0  0  0  0
  141.8004   71.6446  221.6156 H   0  0  0  0  0  0  0  0  0  0  0  0
  142.6440   73.3980  220.6620 C   0  0  0  0  0  0  0  0  0  0  0  0
  143.5075   72.8513  220.2552 H   0  0  0  0  0  0  0  0  0  0  0  0
  142.5060   74.7670  220.4150 C   0  0  0  0  0  0  0  0  0  0  0  0
  143.7080   75.6120  219.4580 Cl  0  0  0  0  0  0  0  0  0  0  0  0
  141.4090   75.4620  220.9330 C   0  0  0  0  0  0  0  0  0  0  0  0
  141.3009   76.5393  220.7388 H   0  0  0  0  0  0  0  0  0  0  0  0
  140.4480   74.7910  221.6980 C   0  0  0  0  0  0  0  0  0  0  0  0
  139.0810   75.6870  222.3400 Cl  0  0  0  0  0  0  0  0  0  0  0  0
  140.4520   69.2300  227.0420 C   0  0  0  0  0  0  0  0  0  0  0  0
  139.9500   69.9040  228.1750 C   0  0  0  0  0  0  0  0  0  0  0  0
  139.2140   69.2560  229.1110 F   0  0  0  0  0  0  0  0  0  0  0  0
  140.2010   71.2310  228.3440 N   0  0  0  0  0  0  0  0  0  0  0  0
  140.9290   71.9450  227.4460 C   0  0  0  0  0  0  0  0  0  0  0  0
  141.1127   73.0163  227.6151 H   0  0  0  0  0  0  0  0  0  0  0  0
  141.4430   71.3210  226.3110 C   0  0  0  0  0  0  0  0  0  0  0  0
  142.0323   71.8948  225.5806 H   0  0  0  0  0  0  0  0  0  0  0  0
  141.2030   69.9620  226.1100 C   0  0  0  0  0  0  0  0  0  0  0  0
  141.6044   69.4616  225.2165 H   0  0  0  0  0  0  0  0  0  0  0  0
  1  2  1  0
  2  3  2  0
  3  4  1  0
  4  5  1  0
  5  6  2  0
  5  7  1  0
  7  8  1  0
  7  9  1  0
  7 10  1  0
 10 11  1  0
 10 12  1  0
 10 13  1  0
 13 14  1  0
 13 15  1  0
 13 16  1  0
 16 17  1  0
 17 18  2  0
 18 19  1  0
 18 20  1  0
 20 21  1  0
 20 22  2  0
 22 23  1  0
 22 24  1  0
 24 25  1  0
 24 26  2  0
 26 27  1  0
  2 28  1  0
 28 29  2  0
 29 30  1  0
 29 31  1  0
 31 32  2  0
 32 33  1  0
 32 34  1  0
 34 35  1  0
 34 36  2  0
 36 37  1  0
 26 17  1  0
 36 28  1  0
M  CHG  1   4  -1
M  END
>  <UniqueID>  (33) 
14

>  <SMILES>  (33) 
O=C(CCCOc1ccc(Cl)cc1Cl)[N-]/N=C/c1cccnc1F

>  <Energy>  (33) 
37.990803095884296

>  <Genealogy>  (33) 
O=C(CCCOc1ccc(Cl)cc1Cl)[N-]N=Cc1cccnc1F (protonated)
O=C(CCCOc1ccc(Cl)cc1Cl)[N-]/N=C/c1cccnc1F (cis-trans isomerization)
O=C(CCCOc1ccc(Cl)cc1Cl)[N-]/N=C/c1cccnc1F (3D coordinates assigned)
O=C(CCCOc1ccc(Cl)cc1Cl)[N-]/N=C/c1cccnc1F (optimized conformer: 37.990803095884296 kcal/mol)

>  <smiles>  (33) 
O=C(CCCOc1ccc(Cl)cc1Cl)NN=Cc1cccnc1F

>  <score_type>  (33) 
oracle

>  <origin>  (33) 
autodockgpu

>  <m_score__min__energy>  (33) 
-6.79

>  <m_primary>  (33) 
energy

>  <meeko>  (33) 
{"free_energy": -6.32, "intermolecular_energy": -9.0, "internal_energy": -1.04, "cluster_size": 11, "cluster_id": 1, "rank_in_cluster": 8}

>  <energy>  (33) 
-6.45

>  <cluster_rmsd>  (33) 
0.0

>  <rmsd>  (33) 
272.25

>  <cluster>  (33) 
3

$$$$
AMYMGDKGSBDGMC-NYADSFOUNA-M
     RDKit          3D

 37 38  0  0  0  0  0  0  0  0999 V2000
  141.0223   67.3572  227.2253 H   0  0  0  0  0  0  0  0  0  0  0  0
  140.2540   68.0680  226.8870 C   0  0  0  0  0  0  0  0  0  0  0  0
  139.1920   67.6190  226.2900 N   0  0  0  0  0  0  0  0  0  0  0  0
  138.9560   67.7520  224.9080 N   0  0  0  0  0  0  0  0  0  0  0  0
  138.5090   68.9540  224.2680 C   0  0  0  0  0  0  0  0  0  0  0  0
  137.6160   69.6720  224.7950 O   0  0  0  0  0  0  0  0  0  0  0  0
  139.0970   69.3530  222.9490 C   0  0  0  0  0  0  0  0  0  0  0  0
  140.1874   69.2136  222.9884 H   0  0  0  0  0  0  0  0  0  0  0  0
  138.6461   68.7224  222.1686 H   0  0  0  0  0  0  0  0  0  0  0  0
  138.7950   70.8210  222.6110 C   0  0  0  0  0  0  0  0  0  0  0  0
  139.0514   70.9977  221.5560 H   0  0  0  0  0  0  0  0  0  0  0  0
  137.7261   70.9908  222.8078 H   0  0  0  0  0  0  0  0  0  0  0  0
  139.5830   71.8090  223.4770 C   0  0  0  0  0  0  0  0  0  0  0  0
  138.9649   72.1156  224.3337 H   0  0  0  0  0  0  0  0  0  0  0  0
  140.5020   71.3216  223.8347 H   0  0  0  0  0  0  0  0  0  0  0  0
  139.9320   72.9600  222.7110 O   0  0  0  0  0  0  0  0  0  0  0  0
  141.0630   73.0530  221.8870 C   0  0  0  0  0  0  0  0  0  0  0  0
  141.8650   71.9340  221.5830 C   0  0  0  0  0  0  0  0  0  0  0  0
  141.6082   70.9477  221.9969 H   0  0  0  0  0  0  0  0  0  0  0  0
  142.9850   72.0720  220.7580 C   0  0  0  0  0  0  0  0  0  0  0  0
  143.6065   71.1947  220.5253 H   0  0  0  0  0  0  0  0  0  0  0  0
  143.3170   73.3220  220.2280 C   0  0  0  0  0  0  0  0  0  0  0  0
  144.7230   73.4910  219.1930 Cl  0  0  0  0  0  0  0  0  0  0  0  0
  142.5280   74.4370  220.5230 C   0  0  0  0  0  0  0  0  0  0  0  0
  142.7899   75.4203  220.1052 H   0  0  0  0  0  0  0  0  0  0  0  0
  141.4050   74.3060  221.3490 C   0  0  0  0  0  0  0  0  0  0  0  0
  140.4310   75.7230  221.7090 Cl  0  0  0  0  0  0  0  0  0  0  0  0
  140.4530   69.5150  227.1220 C   0  0  0  0  0  0  0  0  0  0  0  0
  141.3210   70.3020  226.3350 C   0  0  0  0  0  0  0  0  0  0  0  0
  142.0260   69.7620  225.3100 F   0  0  0  0  0  0  0  0  0  0  0  0
  141.4630   71.6290  226.6000 N   0  0  0  0  0  0  0  0  0  0  0  0
  140.7910   72.2360  227.6120 C   0  0  0  0  0  0  0  0  0  0  0  0
  140.9309   73.3113  227.7969 H   0  0  0  0  0  0  0  0  0  0  0  0
  139.9250   71.4990  228.4160 C   0  0  0  0  0  0  0  0  0  0  0  0
  139.3787   71.9868  229.2368 H   0  0  0  0  0  0  0  0  0  0  0  0
  139.7570   70.1350  228.1700 C   0  0  0  0  0  0  0  0  0  0  0  0
  139.0762   69.5443  228.8005 H   0  0  0  0  0  0  0  0  0  0  0  0
  1  2  1  0
  2  3  2  0
  3  4  1  0
  4  5  1  0
  5  6  2  0
  5  7  1  0
  7  8  1  0
  7  9  1  0
  7 10  1  0
 10 11  1  0
 10 12  1  0
 10 13  1  0
 13 14  1  0
 13 15  1  0
 13 16  1  0
 16 17  1  0
 17 18  2  0
 18 19  1  0
 18 20  1  0
 20 21  1  0
 20 22  2  0
 22 23  1  0
 22 24  1  0
 24 25  1  0
 24 26  2  0
 26 27  1  0
  2 28  1  0
 28 29  2  0
 29 30  1  0
 29 31  1  0
 31 32  2  0
 32 33  1  0
 32 34  1  0
 34 35  1  0
 34 36  2  0
 36 37  1  0
 26 17  1  0
 36 28  1  0
M  CHG  1   4  -1
M  END
>  <UniqueID>  (34) 
14

>  <SMILES>  (34) 
O=C(CCCOc1ccc(Cl)cc1Cl)[N-]/N=C/c1cccnc1F

>  <Energy>  (34) 
37.990803095884296

>  <Genealogy>  (34) 
O=C(CCCOc1ccc(Cl)cc1Cl)[N-]N=Cc1cccnc1F (protonated)
O=C(CCCOc1ccc(Cl)cc1Cl)[N-]/N=C/c1cccnc1F (cis-trans isomerization)
O=C(CCCOc1ccc(Cl)cc1Cl)[N-]/N=C/c1cccnc1F (3D coordinates assigned)
O=C(CCCOc1ccc(Cl)cc1Cl)[N-]/N=C/c1cccnc1F (optimized conformer: 37.990803095884296 kcal/mol)

>  <smiles>  (34) 
O=C(CCCOc1ccc(Cl)cc1Cl)NN=Cc1cccnc1F

>  <score_type>  (34) 
oracle

>  <origin>  (34) 
autodockgpu

>  <m_score__min__energy>  (34) 
-6.79

>  <m_primary>  (34) 
energy

>  <meeko>  (34) 
{"free_energy": -6.17, "intermolecular_energy": -8.86, "internal_energy": -1.15, "cluster_size": 11, "cluster_id": 1, "rank_in_cluster": 9}

>  <energy>  (34) 
-6.38

>  <cluster_rmsd>  (34) 
1.83

>  <rmsd>  (34) 
272.2

>  <cluster>  (34) 
3

$$$$
AMYMGDKGSBDGMC-NYADSFOUNA-M
     RDKit          3D

 37 38  0  0  0  0  0  0  0  0999 V2000
  141.3364   70.5458  223.5264 H   0  0  0  0  0  0  0  0  0  0  0  0
  140.6880   71.2210  224.1040 C   0  0  0  0  0  0  0  0  0  0  0  0
  140.0750   72.1890  223.4930 N   0  0  0  0  0  0  0  0  0  0  0  0
  140.6670   72.9840  222.4940 N   0  0  0  0  0  0  0  0  0  0  0  0
  139.9950   74.0270  221.7750 C   0  0  0  0  0  0  0  0  0  0  0  0
  139.6090   75.0720  222.3640 O   0  0  0  0  0  0  0  0  0  0  0  0
  139.7340   73.8640  220.3080 C   0  0  0  0  0  0  0  0  0  0  0  0
  140.3989   73.0819  219.9127 H   0  0  0  0  0  0  0  0  0  0  0  0
  138.6774   73.5876  220.1771 H   0  0  0  0  0  0  0  0  0  0  0  0
  139.9860   75.1680  219.5360 C   0  0  0  0  0  0  0  0  0  0  0  0
  140.1188   74.9252  218.4714 H   0  0  0  0  0  0  0  0  0  0  0  0
  139.1175   75.8223  219.7022 H   0  0  0  0  0  0  0  0  0  0  0  0
  141.2280   75.9210  220.0240 C   0  0  0  0  0  0  0  0  0  0  0  0
  141.4500   75.6243  221.0597 H   0  0  0  0  0  0  0  0  0  0  0  0
  142.0793   75.6721  219.3733 H   0  0  0  0  0  0  0  0  0  0  0  0
  140.9980   77.3270  219.9750 O   0  0  0  0  0  0  0  0  0  0  0  0
  141.3510   78.2270  220.9920 C   0  0  0  0  0  0  0  0  0  0  0  0
  141.2590   77.8900  222.3570 C   0  0  0  0  0  0  0  0  0  0  0  0
  140.9016   76.8923  222.6516 H   0  0  0  0  0  0  0  0  0  0  0  0
  141.6200   78.8180  223.3390 C   0  0  0  0  0  0  0  0  0  0  0  0
  141.5448   78.5484  224.4028 H   0  0  0  0  0  0  0  0  0  0  0  0
  142.0760   80.0870  222.9720 C   0  0  0  0  0  0  0  0  0  0  0  0
  142.5270   81.2480  224.2050 Cl  0  0  0  0  0  0  0  0  0  0  0  0
  142.1710   80.4300  221.6200 C   0  0  0  0  0  0  0  0  0  0  0  0
  142.5295   81.4291  221.3315 H   0  0  0  0  0  0  0  0  0  0  0  0
  141.8110   79.5050  220.6320 C   0  0  0  0  0  0  0  0  0  0  0  0
  141.9350   79.9620  218.9400 Cl  0  0  0  0  0  0  0  0  0  0  0  0
  140.5340   71.0060  225.5590 C   0  0  0  0  0  0  0  0  0  0  0  0
  139.7830   69.9400  226.0970 C   0  0  0  0  0  0  0  0  0  0  0  0
  139.1560   69.0450  225.2930 F   0  0  0  0  0  0  0  0  0  0  0  0
  139.6770   69.7950  227.4450 N   0  0  0  0  0  0  0  0  0  0  0  0
  140.2760   70.6540  228.3100 C   0  0  0  0  0  0  0  0  0  0  0  0
  140.1682   70.5057  229.3946 H   0  0  0  0  0  0  0  0  0  0  0  0
  141.0270   71.7230  227.8250 C   0  0  0  0  0  0  0  0  0  0  0  0
  141.5146   72.4208  228.5216 H   0  0  0  0  0  0  0  0  0  0  0  0
  141.1540   71.8990  226.4470 C   0  0  0  0  0  0  0  0  0  0  0  0
  141.7426   72.7413  226.0545 H   0  0  0  0  0  0  0  0  0  0  0  0
  1  2  1  0
  2  3  2  0
  3  4  1  0
  4  5  1  0
  5  6  2  0
  5  7  1  0
  7  8  1  0
  7  9  1  0
  7 10  1  0
 10 11  1  0
 10 12  1  0
 10 13  1  0
 13 14  1  0
 13 15  1  0
 13 16  1  0
 16 17  1  0
 17 18  2  0
 18 19  1  0
 18 20  1  0
 20 21  1  0
 20 22  2  0
 22 23  1  0
 22 24  1  0
 24 25  1  0
 24 26  2  0
 26 27  1  0
  2 28  1  0
 28 29  2  0
 29 30  1  0
 29 31  1  0
 31 32  2  0
 32 33  1  0
 32 34  1  0
 34 35  1  0
 34 36  2  0
 36 37  1  0
 26 17  1  0
 36 28  1  0
M  CHG  1   4  -1
M  END
>  <UniqueID>  (35) 
14

>  <SMILES>  (35) 
O=C(CCCOc1ccc(Cl)cc1Cl)[N-]/N=C/c1cccnc1F

>  <Energy>  (35) 
37.990803095884296

>  <Genealogy>  (35) 
O=C(CCCOc1ccc(Cl)cc1Cl)[N-]N=Cc1cccnc1F (protonated)
O=C(CCCOc1ccc(Cl)cc1Cl)[N-]/N=C/c1cccnc1F (cis-trans isomerization)
O=C(CCCOc1ccc(Cl)cc1Cl)[N-]/N=C/c1cccnc1F (3D coordinates assigned)
O=C(CCCOc1ccc(Cl)cc1Cl)[N-]/N=C/c1cccnc1F (optimized conformer: 37.990803095884296 kcal/mol)

>  <smiles>  (35) 
O=C(CCCOc1ccc(Cl)cc1Cl)NN=Cc1cccnc1F

>  <score_type>  (35) 
oracle

>  <origin>  (35) 
autodockgpu

>  <m_score__min__energy>  (35) 
-6.79

>  <m_primary>  (35) 
energy

>  <meeko>  (35) 
{"free_energy": -6.3, "intermolecular_energy": -8.99, "internal_energy": -0.64, "cluster_size": 6, "cluster_id": 3, "rank_in_cluster": 4}

>  <energy>  (35) 
-6.35

>  <cluster_rmsd>  (35) 
1.77

>  <rmsd>  (35) 
272.2

>  <cluster>  (35) 
3

$$$$
AMYMGDKGSBDGMC-NYADSFOUNA-M
     RDKit          3D

 37 38  0  0  0  0  0  0  0  0999 V2000
  140.2392   67.2898  227.1295 H   0  0  0  0  0  0  0  0  0  0  0  0
  139.9650   68.1200  226.4620 C   0  0  0  0  0  0  0  0  0  0  0  0
  139.3290   67.8650  225.3580 N   0  0  0  0  0  0  0  0  0  0  0  0
  138.1440   68.5170  224.9690 N   0  0  0  0  0  0  0  0  0  0  0  0
  138.0920   69.7670  224.2690 C   0  0  0  0  0  0  0  0  0  0  0  0
  137.0420   70.4660  224.2740 O   0  0  0  0  0  0  0  0  0  0  0  0
  139.2930   70.2400  223.5080 C   0  0  0  0  0  0  0  0  0  0  0  0
  139.8286   70.9849  224.1148 H   0  0  0  0  0  0  0  0  0  0  0  0
  139.9309   69.3686  223.2989 H   0  0  0  0  0  0  0  0  0  0  0  0
  138.9020   70.8790  222.1670 C   0  0  0  0  0  0  0  0  0  0  0  0
  139.7046   70.6868  221.4398 H   0  0  0  0  0  0  0  0  0  0  0  0
  137.9481   70.4295  221.8539 H   0  0  0  0  0  0  0  0  0  0  0  0
  138.6850   72.3920  222.2660 C   0  0  0  0  0  0  0  0  0  0  0  0
  138.3723   72.7798  221.2853 H   0  0  0  0  0  0  0  0  0  0  0  0
  137.9053   72.5961  223.0146 H   0  0  0  0  0  0  0  0  0  0  0  0
  139.8950   73.0350  222.6640 O   0  0  0  0  0  0  0  0  0  0  0  0
  141.0600   73.0900  221.8840 C   0  0  0  0  0  0  0  0  0  0  0  0
  141.8190   71.9400  221.5880 C   0  0  0  0  0  0  0  0  0  0  0  0
  141.5006   70.9597  221.9722 H   0  0  0  0  0  0  0  0  0  0  0  0
  142.9750   72.0400  220.8080 C   0  0  0  0  0  0  0  0  0  0  0  0
  143.5627   71.1385  220.5800 H   0  0  0  0  0  0  0  0  0  0  0  0
  143.3860   73.2830  220.3170 C   0  0  0  0  0  0  0  0  0  0  0  0
  144.8370   73.4050  219.3390 Cl  0  0  0  0  0  0  0  0  0  0  0  0
  142.6390   74.4280  220.6060 C   0  0  0  0  0  0  0  0  0  0  0  0
  142.9626   75.4057  220.2194 H   0  0  0  0  0  0  0  0  0  0  0  0
  141.4800   74.3350  221.3860 C   0  0  0  0  0  0  0  0  0  0  0  0
  140.5610   75.7900  221.7380 Cl  0  0  0  0  0  0  0  0  0  0  0  0
  140.3280   69.5030  226.8400 C   0  0  0  0  0  0  0  0  0  0  0  0
  139.9200   70.0940  228.0540 C   0  0  0  0  0  0  0  0  0  0  0  0
  139.1620   69.4110  228.9490 F   0  0  0  0  0  0  0  0  0  0  0  0
  140.2850   71.3710  228.3460 N   0  0  0  0  0  0  0  0  0  0  0  0
  141.0410   72.1150  227.4970 C   0  0  0  0  0  0  0  0  0  0  0  0
  141.3178   73.1450  227.7664 H   0  0  0  0  0  0  0  0  0  0  0  0
  141.4660   71.5740  226.2850 C   0  0  0  0  0  0  0  0  0  0  0  0
  142.0782   72.1720  225.5939 H   0  0  0  0  0  0  0  0  0  0  0  0
  141.1070   70.2660  225.9570 C   0  0  0  0  0  0  0  0  0  0  0  0
  141.4362   69.8311  225.0018 H   0  0  0  0  0  0  0  0  0  0  0  0
  1  2  1  0
  2  3  2  0
  3  4  1  0
  4  5  1  0
  5  6  2  0
  5  7  1  0
  7  8  1  0
  7  9  1  0
  7 10  1  0
 10 11  1  0
 10 12  1  0
 10 13  1  0
 13 14  1  0
 13 15  1  0
 13 16  1  0
 16 17  1  0
 17 18  2  0
 18 19  1  0
 18 20  1  0
 20 21  1  0
 20 22  2  0
 22 23  1  0
 22 24  1  0
 24 25  1  0
 24 26  2  0
 26 27  1  0
  2 28  1  0
 28 29  2  0
 29 30  1  0
 29 31  1  0
 31 32  2  0
 32 33  1  0
 32 34  1  0
 34 35  1  0
 34 36  2  0
 36 37  1  0
 26 17  1  0
 36 28  1  0
M  CHG  1   4  -1
M  END
>  <UniqueID>  (36) 
14

>  <SMILES>  (36) 
O=C(CCCOc1ccc(Cl)cc1Cl)[N-]/N=C/c1cccnc1F

>  <Energy>  (36) 
37.990803095884296

>  <Genealogy>  (36) 
O=C(CCCOc1ccc(Cl)cc1Cl)[N-]N=Cc1cccnc1F (protonated)
O=C(CCCOc1ccc(Cl)cc1Cl)[N-]/N=C/c1cccnc1F (cis-trans isomerization)
O=C(CCCOc1ccc(Cl)cc1Cl)[N-]/N=C/c1cccnc1F (3D coordinates assigned)
O=C(CCCOc1ccc(Cl)cc1Cl)[N-]/N=C/c1cccnc1F (optimized conformer: 37.990803095884296 kcal/mol)

>  <smiles>  (36) 
O=C(CCCOc1ccc(Cl)cc1Cl)NN=Cc1cccnc1F

>  <score_type>  (36) 
oracle

>  <origin>  (36) 
autodockgpu

>  <m_score__min__energy>  (36) 
-6.79

>  <m_primary>  (36) 
energy

>  <meeko>  (36) 
{"free_energy": -6.08, "intermolecular_energy": -8.76, "internal_energy": -0.92, "cluster_size": 11, "cluster_id": 1, "rank_in_cluster": 10}

>  <energy>  (36) 
-6.3

>  <cluster_rmsd>  (36) 
1.75

>  <rmsd>  (36) 
272.09

>  <cluster>  (36) 
3

$$$$
AMYMGDKGSBDGMC-NYADSFOUNA-M
     RDKit          3D

 37 38  0  0  0  0  0  0  0  0999 V2000
  141.0507   67.2129  226.7684 H   0  0  0  0  0  0  0  0  0  0  0  0
  140.2920   67.9660  226.5090 C   0  0  0  0  0  0  0  0  0  0  0  0
  139.2070   67.5920  225.9010 N   0  0  0  0  0  0  0  0  0  0  0  0
  138.8110   68.0740  224.6390 N   0  0  0  0  0  0  0  0  0  0  0  0
  137.9940   69.2320  224.4270 C   0  0  0  0  0  0  0  0  0  0  0  0
  136.7480   69.1220  224.2640 O   0  0  0  0  0  0  0  0  0  0  0  0
  138.6300   70.5880  224.3800 C   0  0  0  0  0  0  0  0  0  0  0  0
  137.8389   71.3517  224.3493 H   0  0  0  0  0  0  0  0  0  0  0  0
  139.2560   70.7038  225.2771 H   0  0  0  0  0  0  0  0  0  0  0  0
  139.5290   70.7530  223.1450 C   0  0  0  0  0  0  0  0  0  0  0  0
  140.5697   70.8686  223.4820 H   0  0  0  0  0  0  0  0  0  0  0  0
  139.3967   69.8576  222.5199 H   0  0  0  0  0  0  0  0  0  0  0  0
  139.1550   71.9680  222.2900 C   0  0  0  0  0  0  0  0  0  0  0  0
  139.3487   71.7414  221.2311 H   0  0  0  0  0  0  0  0  0  0  0  0
  138.0886   72.1959  222.4346 H   0  0  0  0  0  0  0  0  0  0  0  0
  139.9310   73.0980  222.6800 O   0  0  0  0  0  0  0  0  0  0  0  0
  140.7490   73.8390  221.8140 C   0  0  0  0  0  0  0  0  0  0  0  0
  141.8770   73.2770  221.1840 C   0  0  0  0  0  0  0  0  0  0  0  0
  142.1379   72.2240  221.3657 H   0  0  0  0  0  0  0  0  0  0  0  0
  142.6660   74.0520  220.3290 C   0  0  0  0  0  0  0  0  0  0  0  0
  143.5459   73.6072  219.8412 H   0  0  0  0  0  0  0  0  0  0  0  0
  142.3400   75.3910  220.0920 C   0  0  0  0  0  0  0  0  0  0  0  0
  143.3320   76.3600  219.0190 Cl  0  0  0  0  0  0  0  0  0  0  0  0
  141.2220   75.9560  220.7130 C   0  0  0  0  0  0  0  0  0  0  0  0
  140.9657   77.0095  220.5272 H   0  0  0  0  0  0  0  0  0  0  0  0
  140.4280   75.1860  221.5700 C   0  0  0  0  0  0  0  0  0  0  0  0
  139.0310   75.9200  222.3410 Cl  0  0  0  0  0  0  0  0  0  0  0  0
  140.5290   69.3830  226.8600 C   0  0  0  0  0  0  0  0  0  0  0  0
  140.0090   69.9760  228.0300 C   0  0  0  0  0  0  0  0  0  0  0  0
  139.2540   69.2650  228.9030 F   0  0  0  0  0  0  0  0  0  0  0  0
  140.2610   71.2860  228.2980 N   0  0  0  0  0  0  0  0  0  0  0  0
  141.0080   72.0600  227.4680 C   0  0  0  0  0  0  0  0  0  0  0  0
  141.1922   73.1153  227.7177 H   0  0  0  0  0  0  0  0  0  0  0  0
  141.5410   71.5170  226.3000 C   0  0  0  0  0  0  0  0  0  0  0  0
  142.1460   72.1394  225.6243 H   0  0  0  0  0  0  0  0  0  0  0  0
  141.3000   70.1770  225.9960 C   0  0  0  0  0  0  0  0  0  0  0  0
  141.7157   69.7407  225.0757 H   0  0  0  0  0  0  0  0  0  0  0  0
  1  2  1  0
  2  3  2  0
  3  4  1  0
  4  5  1  0
  5  6  2  0
  5  7  1  0
  7  8  1  0
  7  9  1  0
  7 10  1  0
 10 11  1  0
 10 12  1  0
 10 13  1  0
 13 14  1  0
 13 15  1  0
 13 16  1  0
 16 17  1  0
 17 18  2  0
 18 19  1  0
 18 20  1  0
 20 21  1  0
 20 22  2  0
 22 23  1  0
 22 24  1  0
 24 25  1  0
 24 26  2  0
 26 27  1  0
  2 28  1  0
 28 29  2  0
 29 30  1  0
 29 31  1  0
 31 32  2  0
 32 33  1  0
 32 34  1  0
 34 35  1  0
 34 36  2  0
 36 37  1  0
 26 17  1  0
 36 28  1  0
M  CHG  1   4  -1
M  END
>  <UniqueID>  (37) 
14

>  <SMILES>  (37) 
O=C(CCCOc1ccc(Cl)cc1Cl)[N-]/N=C/c1cccnc1F

>  <Energy>  (37) 
37.990803095884296

>  <Genealogy>  (37) 
O=C(CCCOc1ccc(Cl)cc1Cl)[N-]N=Cc1cccnc1F (protonated)
O=C(CCCOc1ccc(Cl)cc1Cl)[N-]/N=C/c1cccnc1F (cis-trans isomerization)
O=C(CCCOc1ccc(Cl)cc1Cl)[N-]/N=C/c1cccnc1F (3D coordinates assigned)
O=C(CCCOc1ccc(Cl)cc1Cl)[N-]/N=C/c1cccnc1F (optimized conformer: 37.990803095884296 kcal/mol)

>  <smiles>  (37) 
O=C(CCCOc1ccc(Cl)cc1Cl)NN=Cc1cccnc1F

>  <score_type>  (37) 
oracle

>  <origin>  (37) 
autodockgpu

>  <m_score__min__energy>  (37) 
-6.79

>  <m_primary>  (37) 
energy

>  <meeko>  (37) 
{"free_energy": -6.67, "intermolecular_energy": -9.35, "internal_energy": -0.89, "cluster_size": 11, "cluster_id": 1, "rank_in_cluster": 2}

>  <energy>  (37) 
-6.24

>  <cluster_rmsd>  (37) 
0.42

>  <rmsd>  (37) 
272.32

>  <cluster>  (37) 
3

$$$$
AMYMGDKGSBDGMC-NYADSFOUNA-M
     RDKit          3D

 37 38  0  0  0  0  0  0  0  0999 V2000
  143.8726   71.8827  217.9921 H   0  0  0  0  0  0  0  0  0  0  0  0
  144.8220   71.4170  218.2950 C   0  0  0  0  0  0  0  0  0  0  0  0
  145.9210   72.1040  218.2150 N   0  0  0  0  0  0  0  0  0  0  0  0
  146.1820   73.2570  218.9800 N   0  0  0  0  0  0  0  0  0  0  0  0
  145.6270   73.5190  220.2760 C   0  0  0  0  0  0  0  0  0  0  0  0
  146.0650   72.9250  221.2970 O   0  0  0  0  0  0  0  0  0  0  0  0
  144.5010   74.4990  220.4140 C   0  0  0  0  0  0  0  0  0  0  0  0
  144.4179   74.8002  221.4687 H   0  0  0  0  0  0  0  0  0  0  0  0
  144.7201   75.3653  219.7725 H   0  0  0  0  0  0  0  0  0  0  0  0
  143.1630   73.8950  219.9620 C   0  0  0  0  0  0  0  0  0  0  0  0
  142.9673   74.2116  218.9269 H   0  0  0  0  0  0  0  0  0  0  0  0
  143.2497   72.8018  220.0474 H   0  0  0  0  0  0  0  0  0  0  0  0
  141.9840   74.3310  220.8370 C   0  0  0  0  0  0  0  0  0  0  0  0
  141.2066   73.5531  220.8139 H   0  0  0  0  0  0  0  0  0  0  0  0
  142.3362   74.4776  221.8687 H   0  0  0  0  0  0  0  0  0  0  0  0
  141.4400   75.5560  220.3510 O   0  0  0  0  0  0  0  0  0  0  0  0
  141.4320   76.7630  221.0660 C   0  0  0  0  0  0  0  0  0  0  0  0
  141.0450   76.8300  222.4200 C   0  0  0  0  0  0  0  0  0  0  0  0
  140.7373   75.9154  222.9480 H   0  0  0  0  0  0  0  0  0  0  0  0
  141.0510   78.0550  223.0940 C   0  0  0  0  0  0  0  0  0  0  0  0
  140.7477   78.1010  224.1504 H   0  0  0  0  0  0  0  0  0  0  0  0
  141.4410   79.2210  222.4300 C   0  0  0  0  0  0  0  0  0  0  0  0
  141.4460   80.7550  223.2790 Cl  0  0  0  0  0  0  0  0  0  0  0  0
  141.8260   79.1630  221.0880 C   0  0  0  0  0  0  0  0  0  0  0  0
  142.1333   80.0811  220.5658 H   0  0  0  0  0  0  0  0  0  0  0  0
  141.8220   77.9410  220.4060 C   0  0  0  0  0  0  0  0  0  0  0  0
  142.3070   77.8950  218.7180 Cl  0  0  0  0  0  0  0  0  0  0  0  0
  144.8200   70.0210  218.7850 C   0  0  0  0  0  0  0  0  0  0  0  0
  145.9620   69.4070  219.3420 C   0  0  0  0  0  0  0  0  0  0  0  0
  147.1350   70.0770  219.4570 F   0  0  0  0  0  0  0  0  0  0  0  0
  145.8980   68.1190  219.7760 N   0  0  0  0  0  0  0  0  0  0  0  0
  144.7570   67.3870  219.6900 C   0  0  0  0  0  0  0  0  0  0  0  0
  144.7423   66.3480  220.0509 H   0  0  0  0  0  0  0  0  0  0  0  0
  143.6050   67.9510  219.1450 C   0  0  0  0  0  0  0  0  0  0  0  0
  142.6788   67.3619  219.0728 H   0  0  0  0  0  0  0  0  0  0  0  0
  143.6380   69.2700  218.6920 C   0  0  0  0  0  0  0  0  0  0  0  0
  142.7337   69.7234  218.2600 H   0  0  0  0  0  0  0  0  0  0  0  0
  1  2  1  0
  2  3  2  0
  3  4  1  0
  4  5  1  0
  5  6  2  0
  5  7  1  0
  7  8  1  0
  7  9  1  0
  7 10  1  0
 10 11  1  0
 10 12  1  0
 10 13  1  0
 13 14  1  0
 13 15  1  0
 13 16  1  0
 16 17  1  0
 17 18  2  0
 18 19  1  0
 18 20  1  0
 20 21  1  0
 20 22  2  0
 22 23  1  0
 22 24  1  0
 24 25  1  0
 24 26  2  0
 26 27  1  0
  2 28  1  0
 28 29  2  0
 29 30  1  0
 29 31  1  0
 31 32  2  0
 32 33  1  0
 32 34  1  0
 34 35  1  0
 34 36  2  0
 36 37  1  0
 26 17  1  0
 36 28  1  0
M  CHG  1   4  -1
M  END
>  <UniqueID>  (38) 
14

>  <SMILES>  (38) 
O=C(CCCOc1ccc(Cl)cc1Cl)[N-]/N=C/c1cccnc1F

>  <Energy>  (38) 
37.990803095884296

>  <Genealogy>  (38) 
O=C(CCCOc1ccc(Cl)cc1Cl)[N-]N=Cc1cccnc1F (protonated)
O=C(CCCOc1ccc(Cl)cc1Cl)[N-]/N=C/c1cccnc1F (cis-trans isomerization)
O=C(CCCOc1ccc(Cl)cc1Cl)[N-]/N=C/c1cccnc1F (3D coordinates assigned)
O=C(CCCOc1ccc(Cl)cc1Cl)[N-]/N=C/c1cccnc1F (optimized conformer: 37.990803095884296 kcal/mol)

>  <smiles>  (38) 
O=C(CCCOc1ccc(Cl)cc1Cl)NN=Cc1cccnc1F

>  <score_type>  (38) 
oracle

>  <origin>  (38) 
autodockgpu

>  <m_score__min__energy>  (38) 
-6.79

>  <m_primary>  (38) 
energy

>  <meeko>  (38) 
{"free_energy": -6.6, "intermolecular_energy": -9.28, "internal_energy": -0.57, "cluster_size": 1, "cluster_id": 2, "rank_in_cluster": 1}

>  <energy>  (38) 
-6.05

>  <cluster_rmsd>  (38) 
1.43

>  <rmsd>  (38) 
272.05

>  <cluster>  (38) 
3

$$$$
AMYMGDKGSBDGMC-NYADSFOUNA-M
     RDKit          3D

 37 38  0  0  0  0  0  0  0  0999 V2000
  140.3194   72.1759  225.2836 H   0  0  0  0  0  0  0  0  0  0  0  0
  140.2590   71.2910  224.6330 C   0  0  0  0  0  0  0  0  0  0  0  0
  140.2990   71.4460  223.3450 N   0  0  0  0  0  0  0  0  0  0  0  0
  140.7600   72.6160  222.7110 N   0  0  0  0  0  0  0  0  0  0  0  0
  139.9470   73.4850  221.9110 C   0  0  0  0  0  0  0  0  0  0  0  0
  139.6270   74.6320  222.3270 O   0  0  0  0  0  0  0  0  0  0  0  0
  139.4590   73.0190  220.5740 C   0  0  0  0  0  0  0  0  0  0  0  0
  138.6227   72.3203  220.7238 H   0  0  0  0  0  0  0  0  0  0  0  0
  139.1388   73.9011  220.0001 H   0  0  0  0  0  0  0  0  0  0  0  0
  140.5650   72.3080  219.7800 C   0  0  0  0  0  0  0  0  0  0  0  0
  141.5285   72.4952  220.2766 H   0  0  0  0  0  0  0  0  0  0  0  0
  140.3160   71.2368  219.7565 H   0  0  0  0  0  0  0  0  0  0  0  0
  140.6630   72.7870  218.3290 C   0  0  0  0  0  0  0  0  0  0  0  0
  140.6271   71.9177  217.6559 H   0  0  0  0  0  0  0  0  0  0  0  0
  139.8207   73.4614  218.1152 H   0  0  0  0  0  0  0  0  0  0  0  0
  141.8860   73.4900  218.1260 O   0  0  0  0  0  0  0  0  0  0  0  0
  142.9880   73.4360  218.9940 C   0  0  0  0  0  0  0  0  0  0  0  0
  143.6680   72.2320  219.2680 C   0  0  0  0  0  0  0  0  0  0  0  0
  143.3378   71.2961  218.7937 H   0  0  0  0  0  0  0  0  0  0  0  0
  144.7600   72.2230  220.1400 C   0  0  0  0  0  0  0  0  0  0  0  0
  145.2867   71.2803  220.3493 H   0  0  0  0  0  0  0  0  0  0  0  0
  145.1850   73.4080  220.7470 C   0  0  0  0  0  0  0  0  0  0  0  0
  146.5550   73.3920  221.8410 Cl  0  0  0  0  0  0  0  0  0  0  0  0
  144.5160   74.6060  220.4810 C   0  0  0  0  0  0  0  0  0  0  0  0
  144.8507   75.5386  220.9588 H   0  0  0  0  0  0  0  0  0  0  0  0
  143.4220   74.6230  219.6090 C   0  0  0  0  0  0  0  0  0  0  0  0
  142.5950   76.1410  219.2940 Cl  0  0  0  0  0  0  0  0  0  0  0  0
  140.1340   69.9500  225.2450 C   0  0  0  0  0  0  0  0  0  0  0  0
  139.2540   68.9650  224.7490 C   0  0  0  0  0  0  0  0  0  0  0  0
  138.4670   69.2030  223.6700 F   0  0  0  0  0  0  0  0  0  0  0  0
  139.1820   67.7490  225.3550 N   0  0  0  0  0  0  0  0  0  0  0  0
  139.9390   67.4410  226.4400 C   0  0  0  0  0  0  0  0  0  0  0  0
  139.8557   66.4471  226.9039 H   0  0  0  0  0  0  0  0  0  0  0  0
  140.8210   68.3830  226.9660 C   0  0  0  0  0  0  0  0  0  0  0  0
  141.4355   68.1385  227.8450 H   0  0  0  0  0  0  0  0  0  0  0  0
  140.9170   69.6390  226.3670 C   0  0  0  0  0  0  0  0  0  0  0  0
  141.6098   70.3891  226.7761 H   0  0  0  0  0  0  0  0  0  0  0  0
  1  2  1  0
  2  3  2  0
  3  4  1  0
  4  5  1  0
  5  6  2  0
  5  7  1  0
  7  8  1  0
  7  9  1  0
  7 10  1  0
 10 11  1  0
 10 12  1  0
 10 13  1  0
 13 14  1  0
 13 15  1  0
 13 16  1  0
 16 17  1  0
 17 18  2  0
 18 19  1  0
 18 20  1  0
 20 21  1  0
 20 22  2  0
 22 23  1  0
 22 24  1  0
 24 25  1  0
 24 26  2  0
 26 27  1  0
  2 28  1  0
 28 29  2  0
 29 30  1  0
 29 31  1  0
 31 32  2  0
 32 33  1  0
 32 34  1  0
 34 35  1  0
 34 36  2  0
 36 37  1  0
 26 17  1  0
 36 28  1  0
M  CHG  1   4  -1
M  END
>  <UniqueID>  (39) 
14

>  <SMILES>  (39) 
O=C(CCCOc1ccc(Cl)cc1Cl)[N-]/N=C/c1cccnc1F

>  <Energy>  (39) 
37.990803095884296

>  <Genealogy>  (39) 
O=C(CCCOc1ccc(Cl)cc1Cl)[N-]N=Cc1cccnc1F (protonated)
O=C(CCCOc1ccc(Cl)cc1Cl)[N-]/N=C/c1cccnc1F (cis-trans isomerization)
O=C(CCCOc1ccc(Cl)cc1Cl)[N-]/N=C/c1cccnc1F (3D coordinates assigned)
O=C(CCCOc1ccc(Cl)cc1Cl)[N-]/N=C/c1cccnc1F (optimized conformer: 37.990803095884296 kcal/mol)

>  <smiles>  (39) 
O=C(CCCOc1ccc(Cl)cc1Cl)NN=Cc1cccnc1F

>  <score_type>  (39) 
oracle

>  <origin>  (39) 
autodockgpu

>  <m_score__min__energy>  (39) 
-6.79

>  <m_primary>  (39) 
energy

>  <meeko>  (39) 
{"free_energy": -5.77, "intermolecular_energy": -8.45, "internal_energy": -0.84, "cluster_size": 1, "cluster_id": 5, "rank_in_cluster": 1}

>  <energy>  (39) 
-6.16

>  <cluster_rmsd>  (39) 
0.0

>  <rmsd>  (39) 
271.87

>  <cluster>  (39) 
4

$$$$
AMYMGDKGSBDGMC-NYADSFOUNA-M
     RDKit          3D

 37 38  0  0  0  0  0  0  0  0999 V2000
  140.0876   67.4374  227.7863 H   0  0  0  0  0  0  0  0  0  0  0  0
  140.1660   68.1030  226.9140 C   0  0  0  0  0  0  0  0  0  0  0  0
  140.0300   67.6060  225.7220 N   0  0  0  0  0  0  0  0  0  0  0  0
  138.8450   67.6970  224.9670 N   0  0  0  0  0  0  0  0  0  0  0  0
  138.3360   68.9050  224.3880 C   0  0  0  0  0  0  0  0  0  0  0  0
  137.2710   69.4270  224.8170 O   0  0  0  0  0  0  0  0  0  0  0  0
  139.0670   69.5460  223.2480 C   0  0  0  0  0  0  0  0  0  0  0  0
  140.1368   69.3031  223.3293 H   0  0  0  0  0  0  0  0  0  0  0  0
  138.6442   69.1586  222.3093 H   0  0  0  0  0  0  0  0  0  0  0  0
  138.9020   71.0730  223.2520 C   0  0  0  0  0  0  0  0  0  0  0  0
  138.2369   71.3558  222.4228 H   0  0  0  0  0  0  0  0  0  0  0  0
  138.4836   71.3560  224.2292 H   0  0  0  0  0  0  0  0  0  0  0  0
  140.2290   71.8190  223.0890 C   0  0  0  0  0  0  0  0  0  0  0  0
  140.7734   71.8062  224.0448 H   0  0  0  0  0  0  0  0  0  0  0  0
  140.8277   71.3231  222.3108 H   0  0  0  0  0  0  0  0  0  0  0  0
  139.9870   73.1700  222.7020 O   0  0  0  0  0  0  0  0  0  0  0  0
  140.7890   73.8980  221.8100 C   0  0  0  0  0  0  0  0  0  0  0  0
  141.9070   73.3280  221.1690 C   0  0  0  0  0  0  0  0  0  0  0  0
  142.1725   72.2782  221.3623 H   0  0  0  0  0  0  0  0  0  0  0  0
  142.6800   74.0900  220.2890 C   0  0  0  0  0  0  0  0  0  0  0  0
  143.5518   73.6383  219.7931 H   0  0  0  0  0  0  0  0  0  0  0  0
  142.3490   75.4240  220.0370 C   0  0  0  0  0  0  0  0  0  0  0  0
  143.3210   76.3780  218.9330 Cl  0  0  0  0  0  0  0  0  0  0  0  0
  141.2410   75.9990  220.6680 C   0  0  0  0  0  0  0  0  0  0  0  0
  140.9801   77.0490  220.4694 H   0  0  0  0  0  0  0  0  0  0  0  0
  140.4630   75.2410  221.5520 C   0  0  0  0  0  0  0  0  0  0  0  0
  139.0790   75.9860  222.3350 Cl  0  0  0  0  0  0  0  0  0  0  0  0
  140.4240   69.5440  227.1250 C   0  0  0  0  0  0  0  0  0  0  0  0
  139.9090   70.2570  228.2280 C   0  0  0  0  0  0  0  0  0  0  0  0
  139.1390   69.6470  229.1630 F   0  0  0  0  0  0  0  0  0  0  0  0
  140.1800   71.5830  228.3680 N   0  0  0  0  0  0  0  0  0  0  0  0
  140.9410   72.2590  227.4690 C   0  0  0  0  0  0  0  0  0  0  0  0
  141.1401   73.3310  227.6142 H   0  0  0  0  0  0  0  0  0  0  0  0
  141.4700   71.5970  226.3630 C   0  0  0  0  0  0  0  0  0  0  0  0
  142.0863   72.1411  225.6322 H   0  0  0  0  0  0  0  0  0  0  0  0
  141.2100   70.2370  226.1920 C   0  0  0  0  0  0  0  0  0  0  0  0
  141.6231   69.7057  225.3219 H   0  0  0  0  0  0  0  0  0  0  0  0
  1  2  1  0
  2  3  2  0
  3  4  1  0
  4  5  1  0
  5  6  2  0
  5  7  1  0
  7  8  1  0
  7  9  1  0
  7 10  1  0
 10 11  1  0
 10 12  1  0
 10 13  1  0
 13 14  1  0
 13 15  1  0
 13 16  1  0
 16 17  1  0
 17 18  2  0
 18 19  1  0
 18 20  1  0
 20 21  1  0
 20 22  2  0
 22 23  1  0
 22 24  1  0
 24 25  1  0
 24 26  2  0
 26 27  1  0
  2 28  1  0
 28 29  2  0
 29 30  1  0
 29 31  1  0
 31 32  2  0
 32 33  1  0
 32 34  1  0
 34 35  1  0
 34 36  2  0
 36 37  1  0
 26 17  1  0
 36 28  1  0
M  CHG  1   4  -1
M  END
>  <UniqueID>  (40) 
14

>  <SMILES>  (40) 
O=C(CCCOc1ccc(Cl)cc1Cl)[N-]/N=C/c1cccnc1F

>  <Energy>  (40) 
37.990803095884296

>  <Genealogy>  (40) 
O=C(CCCOc1ccc(Cl)cc1Cl)[N-]N=Cc1cccnc1F (protonated)
O=C(CCCOc1ccc(Cl)cc1Cl)[N-]/N=C/c1cccnc1F (cis-trans isomerization)
O=C(CCCOc1ccc(Cl)cc1Cl)[N-]/N=C/c1cccnc1F (3D coordinates assigned)
O=C(CCCOc1ccc(Cl)cc1Cl)[N-]/N=C/c1cccnc1F (optimized conformer: 37.990803095884296 kcal/mol)

>  <smiles>  (40) 
O=C(CCCOc1ccc(Cl)cc1Cl)NN=Cc1cccnc1F

>  <score_type>  (40) 
oracle

>  <origin>  (40) 
autodockgpu

>  <m_score__min__energy>  (40) 
-6.79

>  <m_primary>  (40) 
energy

>  <meeko>  (40) 
{"free_energy": -6.38, "intermolecular_energy": -9.06, "internal_energy": -1.01, "cluster_size": 11, "cluster_id": 1, "rank_in_cluster": 6}

>  <energy>  (40) 
-5.77

>  <cluster_rmsd>  (40) 
0.0

>  <rmsd>  (40) 
270.78

>  <cluster>  (40) 
5

$$$$
QFPZKQQOUZJSQV-JVRHHQCGNA-N
     RDKit          3D

 37 38  0  0  0  0  0  0  0  0999 V2000
  138.9000   74.2500  223.0390 H   0  0  0  0  0  0  0  0  0  0  0  0
  139.5180   74.5970  222.3160 O   0  0  0  0  0  0  0  0  0  0  0  0
  141.1520   74.1820  220.6100 C   0  0  0  0  0  0  0  0  0  0  0  0
  140.9750   72.6490  222.4210 N   0  0  0  0  0  0  0  0  0  0  0  0
  140.1840   72.0450  223.4070 N   0  0  0  0  0  0  0  0  0  0  0  0
  140.5480   73.8350  221.7540 C   0  0  0  0  0  0  0  0  0  0  0  0
  140.9418   73.5897  219.7072 H   0  0  0  0  0  0  0  0  0  0  0  0
  140.4840   70.9110  225.5510 C   0  0  0  0  0  0  0  0  0  0  0  0
  139.7230   69.9140  226.1900 C   0  0  0  0  0  0  0  0  0  0  0  0
  139.0080   69.0140  225.4690 F   0  0  0  0  0  0  0  0  0  0  0  0
  139.6570   69.8740  227.5480 N   0  0  0  0  0  0  0  0  0  0  0  0
  140.3020   70.7830  228.3250 C   0  0  0  0  0  0  0  0  0  0  0  0
  140.2393   70.7126  229.4209 H   0  0  0  0  0  0  0  0  0  0  0  0
  141.0440   71.8060  227.7330 C   0  0  0  0  0  0  0  0  0  0  0  0
  141.5597   72.5510  228.3567 H   0  0  0  0  0  0  0  0  0  0  0  0
  141.1250   71.8740  226.3410 C   0  0  0  0  0  0  0  0  0  0  0  0
  141.6935   72.6856  225.8634 H   0  0  0  0  0  0  0  0  0  0  0  0
  140.5780   71.0050  224.0790 C   0  0  0  0  0  0  0  0  0  0  0  0
  141.0018   70.1538  223.5259 H   0  0  0  0  0  0  0  0  0  0  0  0
  142.1030   75.3410  220.4990 C   0  0  0  0  0  0  0  0  0  0  0  0
  142.1463   75.8557  221.4702 H   0  0  0  0  0  0  0  0  0  0  0  0
  143.0853   74.9399  220.2089 H   0  0  0  0  0  0  0  0  0  0  0  0
  141.6780   76.3500  219.4270 C   0  0  0  0  0  0  0  0  0  0  0  0
  142.5765   76.7969  218.9765 H   0  0  0  0  0  0  0  0  0  0  0  0
  141.0869   75.8237  218.6631 H   0  0  0  0  0  0  0  0  0  0  0  0
  140.8730   77.3870  219.9940 O   0  0  0  0  0  0  0  0  0  0  0  0
  141.2650   78.2780  221.0070 C   0  0  0  0  0  0  0  0  0  0  0  0
  141.1660   77.9570  222.3760 C   0  0  0  0  0  0  0  0  0  0  0  0
  140.7764   76.9745  222.6807 H   0  0  0  0  0  0  0  0  0  0  0  0
  141.5600   78.8800  223.3480 C   0  0  0  0  0  0  0  0  0  0  0  0
  141.4700   78.6258  224.4144 H   0  0  0  0  0  0  0  0  0  0  0  0
  142.0680   80.1250  222.9690 C   0  0  0  0  0  0  0  0  0  0  0  0
  142.5580   81.2830  224.1920 Cl  0  0  0  0  0  0  0  0  0  0  0  0
  142.1910   80.4450  221.6140 C   0  0  0  0  0  0  0  0  0  0  0  0
  142.5984   81.4223  221.3157 H   0  0  0  0  0  0  0  0  0  0  0  0
  141.7970   79.5250  220.6360 C   0  0  0  0  0  0  0  0  0  0  0  0
  141.9510   79.9570  218.9400 Cl  0  0  0  0  0  0  0  0  0  0  0  0
  1  2  1  0
  2  3  1  0
  3  4  1  0
  4  5  1  0
  5  6  2  0
  6  7  1  0
  6  8  1  0
  8  9  2  0
  9 10  1  0
  9 11  1  0
 11 12  2  0
 12 13  1  0
 12 14  1  0
 14 15  1  0
 14 16  2  0
 16 17  1  0
  3 18  2  0
 18 19  1  0
 18 20  1  0
 20 21  1  0
 20 22  1  0
 20 23  1  0
 23 24  1  0
 23 25  1  0
 23 26  1  0
 26 27  1  0
 27 28  2  0
 28 29  1  0
 28 30  1  0
 30 31  1  0
 30 32  2  0
 32 33  1  0
 32 34  1  0
 34 35  1  0
 34 36  2  0
 36 37  1  0
 16  8  1  0
 36 27  1  0
M  CHG  1   4  -1
M  END
>  <UniqueID>  (41) 
15

>  <SMILES>  (41) 
O/C(=C\CCOc1ccc(Cl)cc1Cl)[N-]/N=C\c1cccnc1F

>  <Energy>  (41) 
41.88192848917527

>  <Genealogy>  (41) 
O=C(CCCOc1ccc(Cl)cc1Cl)[N-]N=Cc1cccnc1F (protonated)
OC(=CCCOc1ccc(Cl)cc1Cl)[N-]N=Cc1cccnc1F (tautomer)
O/C(=C\CCOc1ccc(Cl)cc1Cl)[N-]/N=C\c1cccnc1F (cis-trans isomerization)
O/C(=C\CCOc1ccc(Cl)cc1Cl)[N-]/N=C\c1cccnc1F (3D coordinates assigned)
O/C(=C\CCOc1ccc(Cl)cc1Cl)[N-]/N=C\c1cccnc1F (optimized conformer: 41.88192848917527 kcal/mol)

>  <smiles>  (41) 
O=C(CCCOc1ccc(Cl)cc1Cl)NN=Cc1cccnc1F

>  <score_type>  (41) 
oracle

>  <origin>  (41) 
autodockgpu

>  <m_score__min__energy>  (41) 
-6.6799999999999997

>  <m_primary>  (41) 
energy

>  <meeko>  (41) 
{"free_energy": -6.68, "intermolecular_energy": -9.67, "internal_energy": -0.72, "cluster_size": 4, "cluster_id": 1, "rank_in_cluster": 1}

>  <energy>  (41) 
-6.68

>  <cluster_rmsd>  (41) 
0.0

>  <rmsd>  (41) 
272.97

>  <cluster>  (41) 
1

$$$$
QFPZKQQOUZJSQV-JVRHHQCGNA-N
     RDKit          3D

 37 38  0  0  0  0  0  0  0  0999 V2000
  138.8250   73.7350  223.0700 H   0  0  0  0  0  0  0  0  0  0  0  0
  138.9920   74.3550  222.2880 O   0  0  0  0  0  0  0  0  0  0  0  0
  140.2700   74.7650  221.8930 C   0  0  0  0  0  0  0  0  0  0  0  0
  140.7640   76.0240  222.3460 N   0  0  0  0  0  0  0  0  0  0  0  0
  140.4910   77.2070  221.6450 N   0  0  0  0  0  0  0  0  0  0  0  0
  140.0720   78.2860  222.2330 C   0  0  0  0  0  0  0  0  0  0  0  0
  138.9879   78.4624  222.2937 H   0  0  0  0  0  0  0  0  0  0  0  0
  140.9830   79.2890  222.8250 C   0  0  0  0  0  0  0  0  0  0  0  0
  140.5100   80.3620  223.6050 C   0  0  0  0  0  0  0  0  0  0  0  0
  139.1810   80.5380  223.8130 F   0  0  0  0  0  0  0  0  0  0  0  0
  141.3840   81.2670  224.1190 N   0  0  0  0  0  0  0  0  0  0  0  0
  142.7220   81.1780  223.8980 C   0  0  0  0  0  0  0  0  0  0  0  0
  143.4033   81.9179  224.3434 H   0  0  0  0  0  0  0  0  0  0  0  0
  143.2320   80.1480  223.1060 C   0  0  0  0  0  0  0  0  0  0  0  0
  144.3127   80.0779  222.9134 H   0  0  0  0  0  0  0  0  0  0  0  0
  142.3560   79.2080  222.5610 C   0  0  0  0  0  0  0  0  0  0  0  0
  142.7451   78.4013  221.9224 H   0  0  0  0  0  0  0  0  0  0  0  0
  141.0480   74.0180  221.1000 C   0  0  0  0  0  0  0  0  0  0  0  0
  141.3211   74.4142  220.1108 H   0  0  0  0  0  0  0  0  0  0  0  0
  141.5670   72.6620  221.4970 C   0  0  0  0  0  0  0  0  0  0  0  0
  141.9315   72.1466  220.5962 H   0  0  0  0  0  0  0  0  0  0  0  0
  142.3724   72.8149  222.2305 H   0  0  0  0  0  0  0  0  0  0  0  0
  140.4940   71.7920  222.1600 C   0  0  0  0  0  0  0  0  0  0  0  0
  139.5726   71.8367  221.5608 H   0  0  0  0  0  0  0  0  0  0  0  0
  140.8644   70.7578  222.2167 H   0  0  0  0  0  0  0  0  0  0  0  0
  140.2140   72.2520  223.4860 O   0  0  0  0  0  0  0  0  0  0  0  0
  140.2360   71.4720  224.6540 C   0  0  0  0  0  0  0  0  0  0  0  0
  141.1220   71.7300  225.7190 C   0  0  0  0  0  0  0  0  0  0  0  0
  141.8250   72.5735  225.6539 H   0  0  0  0  0  0  0  0  0  0  0  0
  141.1120   70.9200  226.8570 C   0  0  0  0  0  0  0  0  0  0  0  0
  141.8133   71.1220  227.6800 H   0  0  0  0  0  0  0  0  0  0  0  0
  140.2140   69.8540  226.9530 C   0  0  0  0  0  0  0  0  0  0  0  0
  140.2080   68.8370  228.3820 Cl  0  0  0  0  0  0  0  0  0  0  0  0
  139.3160   69.6030  225.9120 C   0  0  0  0  0  0  0  0  0  0  0  0
  138.6032   68.7690  225.9910 H   0  0  0  0  0  0  0  0  0  0  0  0
  139.3220   70.4110  224.7690 C   0  0  0  0  0  0  0  0  0  0  0  0
  138.1900   70.0660  223.4690 Cl  0  0  0  0  0  0  0  0  0  0  0  0
  1  2  1  0
  2  3  1  0
  3  4  1  0
  4  5  1  0
  5  6  2  0
  6  7  1  0
  6  8  1  0
  8  9  2  0
  9 10  1  0
  9 11  1  0
 11 12  2  0
 12 13  1  0
 12 14  1  0
 14 15  1  0
 14 16  2  0
 16 17  1  0
  3 18  2  0
 18 19  1  0
 18 20  1  0
 20 21  1  0
 20 22  1  0
 20 23  1  0
 23 24  1  0
 23 25  1  0
 23 26  1  0
 26 27  1  0
 27 28  2  0
 28 29  1  0
 28 30  1  0
 30 31  1  0
 30 32  2  0
 32 33  1  0
 32 34  1  0
 34 35  1  0
 34 36  2  0
 36 37  1  0
 16  8  1  0
 36 27  1  0
M  CHG  1   4  -1
M  END
>  <UniqueID>  (42) 
15

>  <SMILES>  (42) 
O/C(=C\CCOc1ccc(Cl)cc1Cl)[N-]/N=C\c1cccnc1F

>  <Energy>  (42) 
41.88192848917527

>  <Genealogy>  (42) 
O=C(CCCOc1ccc(Cl)cc1Cl)[N-]N=Cc1cccnc1F (protonated)
OC(=CCCOc1ccc(Cl)cc1Cl)[N-]N=Cc1cccnc1F (tautomer)
O/C(=C\CCOc1ccc(Cl)cc1Cl)[N-]/N=C\c1cccnc1F (cis-trans isomerization)
O/C(=C\CCOc1ccc(Cl)cc1Cl)[N-]/N=C\c1cccnc1F (3D coordinates assigned)
O/C(=C\CCOc1ccc(Cl)cc1Cl)[N-]/N=C\c1cccnc1F (optimized conformer: 41.88192848917527 kcal/mol)

>  <smiles>  (42) 
O=C(CCCOc1ccc(Cl)cc1Cl)NN=Cc1cccnc1F

>  <score_type>  (42) 
oracle

>  <origin>  (42) 
autodockgpu

>  <m_score__min__energy>  (42) 
-6.6799999999999997

>  <m_primary>  (42) 
energy

>  <meeko>  (42) 
{"free_energy": -6.16, "intermolecular_energy": -9.15, "internal_energy": -0.98, "cluster_size": 4, "cluster_id": 2, "rank_in_cluster": 2}

>  <energy>  (42) 
-6.56

>  <cluster_rmsd>  (42) 
1.15

>  <rmsd>  (42) 
272.44

>  <cluster>  (42) 
1

$$$$
QFPZKQQOUZJSQV-JVRHHQCGNA-N
     RDKit          3D

 37 38  0  0  0  0  0  0  0  0999 V2000
  139.0900   73.5110  223.0910 H   0  0  0  0  0  0  0  0  0  0  0  0
  139.2440   74.1530  222.3240 O   0  0  0  0  0  0  0  0  0  0  0  0
  141.1200   73.3810  221.0450 C   0  0  0  0  0  0  0  0  0  0  0  0
  141.1240   75.6230  221.8400 N   0  0  0  0  0  0  0  0  0  0  0  0
  140.6340   76.6020  222.7150 N   0  0  0  0  0  0  0  0  0  0  0  0
  140.4930   74.3490  221.7260 C   0  0  0  0  0  0  0  0  0  0  0  0
  141.4752   73.6026  220.0278 H   0  0  0  0  0  0  0  0  0  0  0  0
  141.1010   78.9950  222.8720 C   0  0  0  0  0  0  0  0  0  0  0  0
  140.4230   80.0740  223.4710 C   0  0  0  0  0  0  0  0  0  0  0  0
  139.0680   80.0910  223.5420 F   0  0  0  0  0  0  0  0  0  0  0  0
  141.1220   81.1400  223.9420 N   0  0  0  0  0  0  0  0  0  0  0  0
  142.4760   81.2090  223.8470 C   0  0  0  0  0  0  0  0  0  0  0  0
  143.0118   82.0798  224.2528 H   0  0  0  0  0  0  0  0  0  0  0  0
  143.1870   80.1760  223.2350 C   0  0  0  0  0  0  0  0  0  0  0  0
  144.2820   80.2314  223.1458 H   0  0  0  0  0  0  0  0  0  0  0  0
  142.4930   79.0710  222.7370 C   0  0  0  0  0  0  0  0  0  0  0  0
  143.0410   78.2584  222.2376 H   0  0  0  0  0  0  0  0  0  0  0  0
  140.3860   77.8180  222.3340 C   0  0  0  0  0  0  0  0  0  0  0  0
  139.6068   77.9804  221.5747 H   0  0  0  0  0  0  0  0  0  0  0  0
  141.3620   72.0050  221.6040 C   0  0  0  0  0  0  0  0  0  0  0  0
  141.7605   71.3644  220.8035 H   0  0  0  0  0  0  0  0  0  0  0  0
  142.0742   72.1037  222.4365 H   0  0  0  0  0  0  0  0  0  0  0  0
  140.0860   71.3620  222.1580 C   0  0  0  0  0  0  0  0  0  0  0  0
  139.2358   71.6378  221.5169 H   0  0  0  0  0  0  0  0  0  0  0  0
  140.2187   70.2701  222.1702 H   0  0  0  0  0  0  0  0  0  0  0  0
  139.8300   71.8070  223.4930 O   0  0  0  0  0  0  0  0  0  0  0  0
  140.0250   71.0600  224.6660 C   0  0  0  0  0  0  0  0  0  0  0  0
  140.9550   71.4360  225.6560 C   0  0  0  0  0  0  0  0  0  0  0  0
  141.5538   72.3495  225.5258 H   0  0  0  0  0  0  0  0  0  0  0  0
  141.1200   70.6540  226.8020 C   0  0  0  0  0  0  0  0  0  0  0  0
  141.8553   70.9481  227.5654 H   0  0  0  0  0  0  0  0  0  0  0  0
  140.3540   69.5000  226.9810 C   0  0  0  0  0  0  0  0  0  0  0  0
  140.5680   68.5190  228.4200 Cl  0  0  0  0  0  0  0  0  0  0  0  0
  139.4140   69.1300  226.0160 C   0  0  0  0  0  0  0  0  0  0  0  0
  138.8056   68.2251  226.1607 H   0  0  0  0  0  0  0  0  0  0  0  0
  139.2450   69.9090  224.8650 C   0  0  0  0  0  0  0  0  0  0  0  0
  138.0630   69.4150  223.6620 Cl  0  0  0  0  0  0  0  0  0  0  0  0
  1  2  1  0
  2  3  1  0
  3  4  1  0
  4  5  1  0
  5  6  2  0
  6  7  1  0
  6  8  1  0
  8  9  2  0
  9 10  1  0
  9 11  1  0
 11 12  2  0
 12 13  1  0
 12 14  1  0
 14 15  1  0
 14 16  2  0
 16 17  1  0
  3 18  2  0
 18 19  1  0
 18 20  1  0
 20 21  1  0
 20 22  1  0
 20 23  1  0
 23 24  1  0
 23 25  1  0
 23 26  1  0
 26 27  1  0
 27 28  2  0
 28 29  1  0
 28 30  1  0
 30 31  1  0
 30 32  2  0
 32 33  1  0
 32 34  1  0
 34 35  1  0
 34 36  2  0
 36 37  1  0
 16  8  1  0
 36 27  1  0
M  CHG  1   4  -1
M  END
>  <UniqueID>  (43) 
15

>  <SMILES>  (43) 
O/C(=C\CCOc1ccc(Cl)cc1Cl)[N-]/N=C\c1cccnc1F

>  <Energy>  (43) 
41.88192848917527

>  <Genealogy>  (43) 
O=C(CCCOc1ccc(Cl)cc1Cl)[N-]N=Cc1cccnc1F (protonated)
OC(=CCCOc1ccc(Cl)cc1Cl)[N-]N=Cc1cccnc1F (tautomer)
O/C(=C\CCOc1ccc(Cl)cc1Cl)[N-]/N=C\c1cccnc1F (cis-trans isomerization)
O/C(=C\CCOc1ccc(Cl)cc1Cl)[N-]/N=C\c1cccnc1F (3D coordinates assigned)
O/C(=C\CCOc1ccc(Cl)cc1Cl)[N-]/N=C\c1cccnc1F (optimized conformer: 41.88192848917527 kcal/mol)

>  <smiles>  (43) 
O=C(CCCOc1ccc(Cl)cc1Cl)NN=Cc1cccnc1F

>  <score_type>  (43) 
oracle

>  <origin>  (43) 
autodockgpu

>  <m_score__min__energy>  (43) 
-6.6799999999999997

>  <m_primary>  (43) 
energy

>  <meeko>  (43) 
{"free_energy": -6.44, "intermolecular_energy": -9.42, "internal_energy": -0.96, "cluster_size": 4, "cluster_id": 2, "rank_in_cluster": 1}

>  <energy>  (43) 
-6.54

>  <cluster_rmsd>  (43) 
0.81

>  <rmsd>  (43) 
273.03

>  <cluster>  (43) 
1

$$$$
QFPZKQQOUZJSQV-JVRHHQCGNA-N
     RDKit          3D

 37 38  0  0  0  0  0  0  0  0999 V2000
  139.0030   73.9830  223.0960 H   0  0  0  0  0  0  0  0  0  0  0  0
  139.6090   74.1830  222.3110 O   0  0  0  0  0  0  0  0  0  0  0  0
  141.5870   73.7500  221.0260 C   0  0  0  0  0  0  0  0  0  0  0  0
  140.8990   72.1430  222.6390 N   0  0  0  0  0  0  0  0  0  0  0  0
  140.3170   71.8960  223.8890 N   0  0  0  0  0  0  0  0  0  0  0  0
  140.7060   73.3860  221.9660 C   0  0  0  0  0  0  0  0  0  0  0  0
  142.2261   72.9739  220.5796 H   0  0  0  0  0  0  0  0  0  0  0  0
  139.6280   69.8360  225.0100 C   0  0  0  0  0  0  0  0  0  0  0  0
  138.9980   68.5910  224.8240 C   0  0  0  0  0  0  0  0  0  0  0  0
  138.1450   68.3900  223.7890 F   0  0  0  0  0  0  0  0  0  0  0  0
  139.2010   67.5870  225.7180 N   0  0  0  0  0  0  0  0  0  0  0  0
  139.9970   67.7440  226.8080 C   0  0  0  0  0  0  0  0  0  0  0  0
  140.1519   66.9045  227.5017 H   0  0  0  0  0  0  0  0  0  0  0  0
  140.6180   68.9710  227.0470 C   0  0  0  0  0  0  0  0  0  0  0  0
  141.2544   69.1084  227.9336 H   0  0  0  0  0  0  0  0  0  0  0  0
  140.4230   70.0220  226.1490 C   0  0  0  0  0  0  0  0  0  0  0  0
  140.8944   70.9982  226.3359 H   0  0  0  0  0  0  0  0  0  0  0  0
  139.4310   70.9650  224.0760 C   0  0  0  0  0  0  0  0  0  0  0  0
  138.4881   71.0191  223.5120 H   0  0  0  0  0  0  0  0  0  0  0  0
  141.7460   75.1690  220.5500 C   0  0  0  0  0  0  0  0  0  0  0  0
  142.1651   75.7710  221.3697 H   0  0  0  0  0  0  0  0  0  0  0  0
  142.4134   75.1551  219.6757 H   0  0  0  0  0  0  0  0  0  0  0  0
  140.4170   75.7940  220.1110 C   0  0  0  0  0  0  0  0  0  0  0  0
  140.1460   75.4048  219.1184 H   0  0  0  0  0  0  0  0  0  0  0  0
  139.6442   75.5331  220.8490 H   0  0  0  0  0  0  0  0  0  0  0  0
  140.5230   77.2180  220.0430 O   0  0  0  0  0  0  0  0  0  0  0  0
  141.0360   78.0590  221.0450 C   0  0  0  0  0  0  0  0  0  0  0  0
  140.9460   77.7430  222.4150 C   0  0  0  0  0  0  0  0  0  0  0  0
  140.4652   76.8051  222.7301 H   0  0  0  0  0  0  0  0  0  0  0  0
  141.4650   78.6160  223.3760 C   0  0  0  0  0  0  0  0  0  0  0  0
  141.3827   78.3678  224.4445 H   0  0  0  0  0  0  0  0  0  0  0  0
  142.0880   79.8030  222.9820 C   0  0  0  0  0  0  0  0  0  0  0  0
  142.7340   80.8980  224.1920 Cl  0  0  0  0  0  0  0  0  0  0  0  0
  142.2030   80.1140  221.6250 C   0  0  0  0  0  0  0  0  0  0  0  0
  142.7022   81.0439  221.3151 H   0  0  0  0  0  0  0  0  0  0  0  0
  141.6840   79.2440  220.6590 C   0  0  0  0  0  0  0  0  0  0  0  0
  141.8310   79.6650  218.9590 Cl  0  0  0  0  0  0  0  0  0  0  0  0
  1  2  1  0
  2  3  1  0
  3  4  1  0
  4  5  1  0
  5  6  2  0
  6  7  1  0
  6  8  1  0
  8  9  2  0
  9 10  1  0
  9 11  1  0
 11 12  2  0
 12 13  1  0
 12 14  1  0
 14 15  1  0
 14 16  2  0
 16 17  1  0
  3 18  2  0
 18 19  1  0
 18 20  1  0
 20 21  1  0
 20 22  1  0
 20 23  1  0
 23 24  1  0
 23 25  1  0
 23 26  1  0
 26 27  1  0
 27 28  2  0
 28 29  1  0
 28 30  1  0
 30 31  1  0
 30 32  2  0
 32 33  1  0
 32 34  1  0
 34 35  1  0
 34 36  2  0
 36 37  1  0
 16  8  1  0
 36 27  1  0
M  CHG  1   4  -1
M  END
>  <UniqueID>  (44) 
15

>  <SMILES>  (44) 
O/C(=C\CCOc1ccc(Cl)cc1Cl)[N-]/N=C\c1cccnc1F

>  <Energy>  (44) 
41.88192848917527

>  <Genealogy>  (44) 
O=C(CCCOc1ccc(Cl)cc1Cl)[N-]N=Cc1cccnc1F (protonated)
OC(=CCCOc1ccc(Cl)cc1Cl)[N-]N=Cc1cccnc1F (tautomer)
O/C(=C\CCOc1ccc(Cl)cc1Cl)[N-]/N=C\c1cccnc1F (cis-trans isomerization)
O/C(=C\CCOc1ccc(Cl)cc1Cl)[N-]/N=C\c1cccnc1F (3D coordinates assigned)
O/C(=C\CCOc1ccc(Cl)cc1Cl)[N-]/N=C\c1cccnc1F (optimized conformer: 41.88192848917527 kcal/mol)

>  <smiles>  (44) 
O=C(CCCOc1ccc(Cl)cc1Cl)NN=Cc1cccnc1F

>  <score_type>  (44) 
oracle

>  <origin>  (44) 
autodockgpu

>  <m_score__min__energy>  (44) 
-6.6799999999999997

>  <m_primary>  (44) 
energy

>  <meeko>  (44) 
{"free_energy": -6.56, "intermolecular_energy": -9.54, "internal_energy": -0.72, "cluster_size": 4, "cluster_id": 1, "rank_in_cluster": 2}

>  <energy>  (44) 
-5.34

>  <cluster_rmsd>  (44) 
1.66

>  <rmsd>  (44) 
272.89

>  <cluster>  (44) 
1

$$$$
QFPZKQQOUZJSQV-JVRHHQCGNA-N
     RDKit          3D

 37 38  0  0  0  0  0  0  0  0999 V2000
  139.5930   66.6880  223.3740 H   0  0  0  0  0  0  0  0  0  0  0  0
  139.1430   67.4740  222.9220 O   0  0  0  0  0  0  0  0  0  0  0  0
  138.7330   68.6220  223.6080 C   0  0  0  0  0  0  0  0  0  0  0  0
  138.4950   68.5430  225.0130 N   0  0  0  0  0  0  0  0  0  0  0  0
  139.2030   67.6420  225.8200 N   0  0  0  0  0  0  0  0  0  0  0  0
  139.9760   68.0320  226.7880 C   0  0  0  0  0  0  0  0  0  0  0  0
  140.3638   67.2749  227.4854 H   0  0  0  0  0  0  0  0  0  0  0  0
  140.3600   69.4440  226.9980 C   0  0  0  0  0  0  0  0  0  0  0  0
  139.9580   70.1670  228.1370 C   0  0  0  0  0  0  0  0  0  0  0  0
  139.1620   69.6000  229.0780 F   0  0  0  0  0  0  0  0  0  0  0  0
  140.3260   71.4690  228.2810 N   0  0  0  0  0  0  0  0  0  0  0  0
  141.0730   72.1110  227.3460 C   0  0  0  0  0  0  0  0  0  0  0  0
  141.3662   73.1597  227.5020 H   0  0  0  0  0  0  0  0  0  0  0  0
  141.4690   71.4410  226.1870 C   0  0  0  0  0  0  0  0  0  0  0  0
  142.0644   71.9593  225.4210 H   0  0  0  0  0  0  0  0  0  0  0  0
  141.1010   70.1060  226.0110 C   0  0  0  0  0  0  0  0  0  0  0  0
  141.3938   69.5725  225.0947 H   0  0  0  0  0  0  0  0  0  0  0  0
  138.5510   69.7970  222.9920 C   0  0  0  0  0  0  0  0  0  0  0  0
  138.1787   69.7931  221.9569 H   0  0  0  0  0  0  0  0  0  0  0  0
  138.8310   71.1220  223.6470 C   0  0  0  0  0  0  0  0  0  0  0  0
  137.9919   71.8023  223.4393 H   0  0  0  0  0  0  0  0  0  0  0  0
  138.9494   70.9426  224.7258 H   0  0  0  0  0  0  0  0  0  0  0  0
  140.1250   71.7680  223.1380 C   0  0  0  0  0  0  0  0  0  0  0  0
  140.8573   71.8030  223.9581 H   0  0  0  0  0  0  0  0  0  0  0  0
  140.5137   71.1672  222.3025 H   0  0  0  0  0  0  0  0  0  0  0  0
  139.8800   73.0980  222.6710 O   0  0  0  0  0  0  0  0  0  0  0  0
  140.7110   73.8400  221.8160 C   0  0  0  0  0  0  0  0  0  0  0  0
  141.8310   73.2760  221.1740 C   0  0  0  0  0  0  0  0  0  0  0  0
  142.0751   72.2150  221.3312 H   0  0  0  0  0  0  0  0  0  0  0  0
  142.6340   74.0580  220.3380 C   0  0  0  0  0  0  0  0  0  0  0  0
  143.5131   73.6135  219.8486 H   0  0  0  0  0  0  0  0  0  0  0  0
  142.3220   75.4030  220.1230 C   0  0  0  0  0  0  0  0  0  0  0  0
  143.3340   76.3820  219.0770 Cl  0  0  0  0  0  0  0  0  0  0  0  0
  141.2000   75.9660  220.7370 C   0  0  0  0  0  0  0  0  0  0  0  0
  140.9498   77.0225  220.5606 H   0  0  0  0  0  0  0  0  0  0  0  0
  140.3940   75.1880  221.5760 C   0  0  0  0  0  0  0  0  0  0  0  0
  138.9950   75.9240  222.3450 Cl  0  0  0  0  0  0  0  0  0  0  0  0
  1  2  1  0
  2  3  1  0
  3  4  1  0
  4  5  1  0
  5  6  2  0
  6  7  1  0
  6  8  1  0
  8  9  2  0
  9 10  1  0
  9 11  1  0
 11 12  2  0
 12 13  1  0
 12 14  1  0
 14 15  1  0
 14 16  2  0
 16 17  1  0
  3 18  2  0
 18 19  1  0
 18 20  1  0
 20 21  1  0
 20 22  1  0
 20 23  1  0
 23 24  1  0
 23 25  1  0
 23 26  1  0
 26 27  1  0
 27 28  2  0
 28 29  1  0
 28 30  1  0
 30 31  1  0
 30 32  2  0
 32 33  1  0
 32 34  1  0
 34 35  1  0
 34 36  2  0
 36 37  1  0
 16  8  1  0
 36 27  1  0
M  CHG  1   4  -1
M  END
>  <UniqueID>  (45) 
15

>  <SMILES>  (45) 
O/C(=C\CCOc1ccc(Cl)cc1Cl)[N-]/N=C\c1cccnc1F

>  <Energy>  (45) 
41.88192848917527

>  <Genealogy>  (45) 
O=C(CCCOc1ccc(Cl)cc1Cl)[N-]N=Cc1cccnc1F (protonated)
OC(=CCCOc1ccc(Cl)cc1Cl)[N-]N=Cc1cccnc1F (tautomer)
O/C(=C\CCOc1ccc(Cl)cc1Cl)[N-]/N=C\c1cccnc1F (cis-trans isomerization)
O/C(=C\CCOc1ccc(Cl)cc1Cl)[N-]/N=C\c1cccnc1F (3D coordinates assigned)
O/C(=C\CCOc1ccc(Cl)cc1Cl)[N-]/N=C\c1cccnc1F (optimized conformer: 41.88192848917527 kcal/mol)

>  <smiles>  (45) 
O=C(CCCOc1ccc(Cl)cc1Cl)NN=Cc1cccnc1F

>  <score_type>  (45) 
oracle

>  <origin>  (45) 
autodockgpu

>  <m_score__min__energy>  (45) 
-6.6799999999999997

>  <m_primary>  (45) 
energy

>  <meeko>  (45) 
{"free_energy": -6.11, "intermolecular_energy": -9.1, "internal_energy": -0.99, "cluster_size": 6, "cluster_id": 3, "rank_in_cluster": 1}

>  <energy>  (45) 
-6.44

>  <cluster_rmsd>  (45) 
0.0

>  <rmsd>  (45) 
273.09

>  <cluster>  (45) 
2

$$$$
QFPZKQQOUZJSQV-JVRHHQCGNA-N
     RDKit          3D

 37 38  0  0  0  0  0  0  0  0999 V2000
  137.3800   69.4060  225.7070 H   0  0  0  0  0  0  0  0  0  0  0  0
  137.6280   69.6500  224.7570 O   0  0  0  0  0  0  0  0  0  0  0  0
  138.6000   68.9670  224.0180 C   0  0  0  0  0  0  0  0  0  0  0  0
  139.1950   67.7950  224.5720 N   0  0  0  0  0  0  0  0  0  0  0  0
  139.1640   67.5460  225.9500 N   0  0  0  0  0  0  0  0  0  0  0  0
  140.1050   67.9400  226.7530 C   0  0  0  0  0  0  0  0  0  0  0  0
  140.6889   67.1779  227.2899 H   0  0  0  0  0  0  0  0  0  0  0  0
  140.4290   69.3650  226.9800 C   0  0  0  0  0  0  0  0  0  0  0  0
  140.0190   70.0490  228.1400 C   0  0  0  0  0  0  0  0  0  0  0  0
  139.2690   69.4300  229.0860 F   0  0  0  0  0  0  0  0  0  0  0  0
  140.3300   71.3630  228.3000 N   0  0  0  0  0  0  0  0  0  0  0  0
  141.0280   72.0550  227.3620 C   0  0  0  0  0  0  0  0  0  0  0  0
  141.2773   73.1129  227.5316 H   0  0  0  0  0  0  0  0  0  0  0  0
  141.4290   71.4240  226.1830 C   0  0  0  0  0  0  0  0  0  0  0  0
  141.9838   71.9822  225.4145 H   0  0  0  0  0  0  0  0  0  0  0  0
  141.1180   70.0760  225.9900 C   0  0  0  0  0  0  0  0  0  0  0  0
  141.4150   69.5720  225.0584 H   0  0  0  0  0  0  0  0  0  0  0  0
  138.9960   69.3770  222.8060 C   0  0  0  0  0  0  0  0  0  0  0  0
  138.6522   68.8146  221.9254 H   0  0  0  0  0  0  0  0  0  0  0  0
  139.8880   70.5690  222.5900 C   0  0  0  0  0  0  0  0  0  0  0  0
  140.5766   70.6534  223.4437 H   0  0  0  0  0  0  0  0  0  0  0  0
  140.4306   70.4131  221.6459 H   0  0  0  0  0  0  0  0  0  0  0  0
  139.1000   71.8780  222.4630 C   0  0  0  0  0  0  0  0  0  0  0  0
  138.7324   71.9790  221.4312 H   0  0  0  0  0  0  0  0  0  0  0  0
  138.2569   71.8519  223.1690 H   0  0  0  0  0  0  0  0  0  0  0  0
  139.9270   73.0010  222.7780 O   0  0  0  0  0  0  0  0  0  0  0  0
  140.7380   73.7110  221.8760 C   0  0  0  0  0  0  0  0  0  0  0  0
  141.8490   73.1260  221.2370 C   0  0  0  0  0  0  0  0  0  0  0  0
  142.1022   72.0739  221.4343 H   0  0  0  0  0  0  0  0  0  0  0  0
  142.6310   73.8750  220.3540 C   0  0  0  0  0  0  0  0  0  0  0  0
  143.5030   73.4141  219.8671 H   0  0  0  0  0  0  0  0  0  0  0  0
  142.3080   75.2080  220.0880 C   0  0  0  0  0  0  0  0  0  0  0  0
  143.2950   76.1460  218.9830 Cl  0  0  0  0  0  0  0  0  0  0  0  0
  141.1950   75.7910  220.6990 C   0  0  0  0  0  0  0  0  0  0  0  0
  140.9361   76.8380  220.4831 H   0  0  0  0  0  0  0  0  0  0  0  0
  140.4090   75.0460  221.5850 C   0  0  0  0  0  0  0  0  0  0  0  0
  139.0200   75.8070  222.3480 Cl  0  0  0  0  0  0  0  0  0  0  0  0
  1  2  1  0
  2  3  1  0
  3  4  1  0
  4  5  1  0
  5  6  2  0
  6  7  1  0
  6  8  1  0
  8  9  2  0
  9 10  1  0
  9 11  1  0
 11 12  2  0
 12 13  1  0
 12 14  1  0
 14 15  1  0
 14 16  2  0
 16 17  1  0
  3 18  2  0
 18 19  1  0
 18 20  1  0
 20 21  1  0
 20 22  1  0
 20 23  1  0
 23 24  1  0
 23 25  1  0
 23 26  1  0
 26 27  1  0
 27 28  2  0
 28 29  1  0
 28 30  1  0
 30 31  1  0
 30 32  2  0
 32 33  1  0
 32 34  1  0
 34 35  1  0
 34 36  2  0
 36 37  1  0
 16  8  1  0
 36 27  1  0
M  CHG  1   4  -1
M  END
>  <UniqueID>  (46) 
15

>  <SMILES>  (46) 
O/C(=C\CCOc1ccc(Cl)cc1Cl)[N-]/N=C\c1cccnc1F

>  <Energy>  (46) 
41.88192848917527

>  <Genealogy>  (46) 
O=C(CCCOc1ccc(Cl)cc1Cl)[N-]N=Cc1cccnc1F (protonated)
OC(=CCCOc1ccc(Cl)cc1Cl)[N-]N=Cc1cccnc1F (tautomer)
O/C(=C\CCOc1ccc(Cl)cc1Cl)[N-]/N=C\c1cccnc1F (cis-trans isomerization)
O/C(=C\CCOc1ccc(Cl)cc1Cl)[N-]/N=C\c1cccnc1F (3D coordinates assigned)
O/C(=C\CCOc1ccc(Cl)cc1Cl)[N-]/N=C\c1cccnc1F (optimized conformer: 41.88192848917527 kcal/mol)

>  <smiles>  (46) 
O=C(CCCOc1ccc(Cl)cc1Cl)NN=Cc1cccnc1F

>  <score_type>  (46) 
oracle

>  <origin>  (46) 
autodockgpu

>  <m_score__min__energy>  (46) 
-6.6799999999999997

>  <m_primary>  (46) 
energy

>  <meeko>  (46) 
{"free_energy": -5.91, "intermolecular_energy": -8.9, "internal_energy": -1.13, "cluster_size": 6, "cluster_id": 3, "rank_in_cluster": 5}

>  <energy>  (46) 
-6.16

>  <cluster_rmsd>  (46) 
0.53

>  <rmsd>  (46) 
273.17

>  <cluster>  (46) 
2

$$$$
QFPZKQQOUZJSQV-JVRHHQCGNA-N
     RDKit          3D

 37 38  0  0  0  0  0  0  0  0999 V2000
  139.4190   66.9710  222.9550 H   0  0  0  0  0  0  0  0  0  0  0  0
  138.9250   67.8120  222.6840 O   0  0  0  0  0  0  0  0  0  0  0  0
  138.6170   68.8430  223.5770 C   0  0  0  0  0  0  0  0  0  0  0  0
  138.3240   68.5200  224.9350 N   0  0  0  0  0  0  0  0  0  0  0  0
  139.1670   67.6860  225.6820 N   0  0  0  0  0  0  0  0  0  0  0  0
  139.6950   68.0560  226.8090 C   0  0  0  0  0  0  0  0  0  0  0  0
  139.7977   67.3086  227.6095 H   0  0  0  0  0  0  0  0  0  0  0  0
  140.1650   69.4340  227.0680 C   0  0  0  0  0  0  0  0  0  0  0  0
  139.7150   70.1830  228.1720 C   0  0  0  0  0  0  0  0  0  0  0  0
  138.7930   69.6770  229.0290 F   0  0  0  0  0  0  0  0  0  0  0  0
  140.1660   71.4520  228.3620 N   0  0  0  0  0  0  0  0  0  0  0  0
  141.0450   72.0370  227.5070 C   0  0  0  0  0  0  0  0  0  0  0  0
  141.4030   73.0589  227.7007 H   0  0  0  0  0  0  0  0  0  0  0  0
  141.4940   71.3420  226.3830 C   0  0  0  0  0  0  0  0  0  0  0  0
  142.1955   71.8153  225.6803 H   0  0  0  0  0  0  0  0  0  0  0  0
  141.0430   70.0390  226.1600 C   0  0  0  0  0  0  0  0  0  0  0  0
  141.3781   69.4870  225.2695 H   0  0  0  0  0  0  0  0  0  0  0  0
  138.5840   70.1280  223.2020 C   0  0  0  0  0  0  0  0  0  0  0  0
  138.0759   70.3855  222.2610 H   0  0  0  0  0  0  0  0  0  0  0  0
  139.2080   71.2370  224.0050 C   0  0  0  0  0  0  0  0  0  0  0  0
  138.4410   71.9982  224.2108 H   0  0  0  0  0  0  0  0  0  0  0  0
  139.6006   70.7972  224.9336 H   0  0  0  0  0  0  0  0  0  0  0  0
  140.3790   71.9040  223.2740 C   0  0  0  0  0  0  0  0  0  0  0  0
  141.1200   72.2417  224.0135 H   0  0  0  0  0  0  0  0  0  0  0  0
  140.8285   71.1715  222.5875 H   0  0  0  0  0  0  0  0  0  0  0  0
  139.9300   73.0290  222.5130 O   0  0  0  0  0  0  0  0  0  0  0  0
  140.7230   73.8330  221.6780 C   0  0  0  0  0  0  0  0  0  0  0  0
  141.8480   73.3330  220.9940 C   0  0  0  0  0  0  0  0  0  0  0  0
  142.1272   72.2744  221.1007 H   0  0  0  0  0  0  0  0  0  0  0  0
  142.6120   74.1750  220.1800 C   0  0  0  0  0  0  0  0  0  0  0  0
  143.4951   73.7795  219.6568 H   0  0  0  0  0  0  0  0  0  0  0  0
  142.2560   75.5170  220.0300 C   0  0  0  0  0  0  0  0  0  0  0  0
  143.2190   76.5720  219.0110 Cl  0  0  0  0  0  0  0  0  0  0  0  0
  141.1280   76.0180  220.6850 C   0  0  0  0  0  0  0  0  0  0  0  0
  140.8429   77.0729  220.5587 H   0  0  0  0  0  0  0  0  0  0  0  0
  140.3600   75.1790  221.5020 C   0  0  0  0  0  0  0  0  0  0  0  0
  138.9530   75.8370  222.3250 Cl  0  0  0  0  0  0  0  0  0  0  0  0
  1  2  1  0
  2  3  1  0
  3  4  1  0
  4  5  1  0
  5  6  2  0
  6  7  1  0
  6  8  1  0
  8  9  2  0
  9 10  1  0
  9 11  1  0
 11 12  2  0
 12 13  1  0
 12 14  1  0
 14 15  1  0
 14 16  2  0
 16 17  1  0
  3 18  2  0
 18 19  1  0
 18 20  1  0
 20 21  1  0
 20 22  1  0
 20 23  1  0
 23 24  1  0
 23 25  1  0
 23 26  1  0
 26 27  1  0
 27 28  2  0
 28 29  1  0
 28 30  1  0
 30 31  1  0
 30 32  2  0
 32 33  1  0
 32 34  1  0
 34 35  1  0
 34 36  2  0
 36 37  1  0
 16  8  1  0
 36 27  1  0
M  CHG  1   4  -1
M  END
>  <UniqueID>  (47) 
15

>  <SMILES>  (47) 
O/C(=C\CCOc1ccc(Cl)cc1Cl)[N-]/N=C\c1cccnc1F

>  <Energy>  (47) 
41.88192848917527

>  <Genealogy>  (47) 
O=C(CCCOc1ccc(Cl)cc1Cl)[N-]N=Cc1cccnc1F (protonated)
OC(=CCCOc1ccc(Cl)cc1Cl)[N-]N=Cc1cccnc1F (tautomer)
O/C(=C\CCOc1ccc(Cl)cc1Cl)[N-]/N=C\c1cccnc1F (cis-trans isomerization)
O/C(=C\CCOc1ccc(Cl)cc1Cl)[N-]/N=C\c1cccnc1F (3D coordinates assigned)
O/C(=C\CCOc1ccc(Cl)cc1Cl)[N-]/N=C\c1cccnc1F (optimized conformer: 41.88192848917527 kcal/mol)

>  <smiles>  (47) 
O=C(CCCOc1ccc(Cl)cc1Cl)NN=Cc1cccnc1F

>  <score_type>  (47) 
oracle

>  <origin>  (47) 
autodockgpu

>  <m_score__min__energy>  (47) 
-6.6799999999999997

>  <m_primary>  (47) 
energy

>  <meeko>  (47) 
{"free_energy": -5.98, "intermolecular_energy": -8.96, "internal_energy": -0.83, "cluster_size": 6, "cluster_id": 3, "rank_in_cluster": 4}

>  <energy>  (47) 
-6.16

>  <cluster_rmsd>  (47) 
1.7

>  <rmsd>  (47) 
273.04

>  <cluster>  (47) 
2

$$$$
QFPZKQQOUZJSQV-JVRHHQCGNA-N
     RDKit          3D

 37 38  0  0  0  0  0  0  0  0999 V2000
  139.1580   73.7890  222.9670 H   0  0  0  0  0  0  0  0  0  0  0  0
  139.6140   74.4670  222.3690 O   0  0  0  0  0  0  0  0  0  0  0  0
  141.3690   73.0290  221.5920 C   0  0  0  0  0  0  0  0  0  0  0  0
  140.8640   74.9910  220.3460 N   0  0  0  0  0  0  0  0  0  0  0  0
  142.1350   75.5300  220.1070 N   0  0  0  0  0  0  0  0  0  0  0  0
  140.6220   74.1320  221.4590 C   0  0  0  0  0  0  0  0  0  0  0  0
  142.3375   73.1123  222.1068 H   0  0  0  0  0  0  0  0  0  0  0  0
  144.1130   74.2190  219.5260 C   0  0  0  0  0  0  0  0  0  0  0  0
  144.7670   73.4390  218.5530 C   0  0  0  0  0  0  0  0  0  0  0  0
  144.3120   73.3940  217.2760 F   0  0  0  0  0  0  0  0  0  0  0  0
  145.8380   72.6770  218.9000 N   0  0  0  0  0  0  0  0  0  0  0  0
  146.3060   72.6340  220.1740 C   0  0  0  0  0  0  0  0  0  0  0  0
  147.1859   72.0198  220.4159 H   0  0  0  0  0  0  0  0  0  0  0  0
  145.6710   73.3690  221.1770 C   0  0  0  0  0  0  0  0  0  0  0  0
  146.0382   73.3290  222.2131 H   0  0  0  0  0  0  0  0  0  0  0  0
  144.5650   74.1550  220.8500 C   0  0  0  0  0  0  0  0  0  0  0  0
  144.0468   74.7259  221.6346 H   0  0  0  0  0  0  0  0  0  0  0  0
  142.9370   75.0550  219.2030 C   0  0  0  0  0  0  0  0  0  0  0  0
  142.7319   75.2854  218.1471 H   0  0  0  0  0  0  0  0  0  0  0  0
  140.9490   71.6810  221.0720 C   0  0  0  0  0  0  0  0  0  0  0  0
  140.6505   71.7866  220.0186 H   0  0  0  0  0  0  0  0  0  0  0  0
  141.8044   70.9984  221.1835 H   0  0  0  0  0  0  0  0  0  0  0  0
  139.7740   71.0880  221.8590 C   0  0  0  0  0  0  0  0  0  0  0  0
  138.8419   71.2636  221.3019 H   0  0  0  0  0  0  0  0  0  0  0  0
  139.9460   70.0093  221.9888 H   0  0  0  0  0  0  0  0  0  0  0  0
  139.6690   71.6930  223.1500 O   0  0  0  0  0  0  0  0  0  0  0  0
  139.9330   71.0700  224.3810 C   0  0  0  0  0  0  0  0  0  0  0  0
  140.9940   71.4670  225.2180 C   0  0  0  0  0  0  0  0  0  0  0  0
  141.6469   72.2991  224.9158 H   0  0  0  0  0  0  0  0  0  0  0  0
  141.2220   70.8100  226.4300 C   0  0  0  0  0  0  0  0  0  0  0  0
  142.0584   71.1202  227.0736 H   0  0  0  0  0  0  0  0  0  0  0  0
  140.3900   69.7600  226.8260 C   0  0  0  0  0  0  0  0  0  0  0  0
  140.6820   68.9340  228.3460 Cl  0  0  0  0  0  0  0  0  0  0  0  0
  139.3210   69.3730  226.0140 C   0  0  0  0  0  0  0  0  0  0  0  0
  138.6608   68.5521  226.3306 H   0  0  0  0  0  0  0  0  0  0  0  0
  139.0880   70.0270  224.7990 C   0  0  0  0  0  0  0  0  0  0  0  0
  137.7430   69.5120  223.7910 Cl  0  0  0  0  0  0  0  0  0  0  0  0
  1  2  1  0
  2  3  1  0
  3  4  1  0
  4  5  1  0
  5  6  2  0
  6  7  1  0
  6  8  1  0
  8  9  2  0
  9 10  1  0
  9 11  1  0
 11 12  2  0
 12 13  1  0
 12 14  1  0
 14 15  1  0
 14 16  2  0
 16 17  1  0
  3 18  2  0
 18 19  1  0
 18 20  1  0
 20 21  1  0
 20 22  1  0
 20 23  1  0
 23 24  1  0
 23 25  1  0
 23 26  1  0
 26 27  1  0
 27 28  2  0
 28 29  1  0
 28 30  1  0
 30 31  1  0
 30 32  2  0
 32 33  1  0
 32 34  1  0
 34 35  1  0
 34 36  2  0
 36 37  1  0
 16  8  1  0
 36 27  1  0
M  CHG  1   4  -1
M  END
>  <UniqueID>  (48) 
15

>  <SMILES>  (48) 
O/C(=C\CCOc1ccc(Cl)cc1Cl)[N-]/N=C\c1cccnc1F

>  <Energy>  (48) 
41.88192848917527

>  <Genealogy>  (48) 
O=C(CCCOc1ccc(Cl)cc1Cl)[N-]N=Cc1cccnc1F (protonated)
OC(=CCCOc1ccc(Cl)cc1Cl)[N-]N=Cc1cccnc1F (tautomer)
O/C(=C\CCOc1ccc(Cl)cc1Cl)[N-]/N=C\c1cccnc1F (cis-trans isomerization)
O/C(=C\CCOc1ccc(Cl)cc1Cl)[N-]/N=C\c1cccnc1F (3D coordinates assigned)
O/C(=C\CCOc1ccc(Cl)cc1Cl)[N-]/N=C\c1cccnc1F (optimized conformer: 41.88192848917527 kcal/mol)

>  <smiles>  (48) 
O=C(CCCOc1ccc(Cl)cc1Cl)NN=Cc1cccnc1F

>  <score_type>  (48) 
oracle

>  <origin>  (48) 
autodockgpu

>  <m_score__min__energy>  (48) 
-6.6799999999999997

>  <m_primary>  (48) 
energy

>  <meeko>  (48) 
{"free_energy": -5.89, "intermolecular_energy": -8.88, "internal_energy": -1.35, "cluster_size": 1, "cluster_id": 4, "rank_in_cluster": 1}

>  <energy>  (48) 
-5.75

>  <cluster_rmsd>  (48) 
0.69

>  <rmsd>  (48) 
273.08

>  <cluster>  (48) 
2

$$$$
QFPZKQQOUZJSQV-JVRHHQCGNA-N
     RDKit          3D

 37 38  0  0  0  0  0  0  0  0999 V2000
  139.9030   67.9190  223.2550 H   0  0  0  0  0  0  0  0  0  0  0  0
  139.1950   68.6120  223.0470 O   0  0  0  0  0  0  0  0  0  0  0  0
  138.2650   69.0660  223.9890 C   0  0  0  0  0  0  0  0  0  0  0  0
  138.1860   68.4130  225.2550 N   0  0  0  0  0  0  0  0  0  0  0  0
  139.2350   67.6130  225.7270 N   0  0  0  0  0  0  0  0  0  0  0  0
  140.0430   68.0030  226.6660 C   0  0  0  0  0  0  0  0  0  0  0  0
  140.4850   67.2422  227.3261 H   0  0  0  0  0  0  0  0  0  0  0  0
  140.3970   69.4210  226.8900 C   0  0  0  0  0  0  0  0  0  0  0  0
  140.0060   70.1160  228.0500 C   0  0  0  0  0  0  0  0  0  0  0  0
  139.2470   69.5150  229.0000 F   0  0  0  0  0  0  0  0  0  0  0  0
  140.3460   71.4240  228.2060 N   0  0  0  0  0  0  0  0  0  0  0  0
  141.0540   72.0990  227.2640 C   0  0  0  0  0  0  0  0  0  0  0  0
  141.3251   73.1521  227.4299 H   0  0  0  0  0  0  0  0  0  0  0  0
  141.4380   71.4570  226.0850 C   0  0  0  0  0  0  0  0  0  0  0  0
  142.0021   72.0017  225.3136 H   0  0  0  0  0  0  0  0  0  0  0  0
  141.0980   70.1160  225.8960 C   0  0  0  0  0  0  0  0  0  0  0  0
  141.3812   69.6041  224.9645 H   0  0  0  0  0  0  0  0  0  0  0  0
  137.4410   70.0920  223.7430 C   0  0  0  0  0  0  0  0  0  0  0  0
  136.3692   69.8825  223.6112 H   0  0  0  0  0  0  0  0  0  0  0  0
  137.9100   71.5180  223.6380 C   0  0  0  0  0  0  0  0  0  0  0  0
  137.0321   72.1804  223.6608 H   0  0  0  0  0  0  0  0  0  0  0  0
  138.5849   71.7104  224.4851 H   0  0  0  0  0  0  0  0  0  0  0  0
  138.6940   71.7860  222.3490 C   0  0  0  0  0  0  0  0  0  0  0  0
  139.2600   70.8829  222.0769 H   0  0  0  0  0  0  0  0  0  0  0  0
  137.9826   72.0471  221.5517 H   0  0  0  0  0  0  0  0  0  0  0  0
  139.6050   72.8750  222.5250 O   0  0  0  0  0  0  0  0  0  0  0  0
  140.8360   73.0380  221.8690 C   0  0  0  0  0  0  0  0  0  0  0  0
  141.6810   71.9520  221.5660 C   0  0  0  0  0  0  0  0  0  0  0  0
  141.3783   70.9306  221.8401 H   0  0  0  0  0  0  0  0  0  0  0  0
  142.9020   72.1650  220.9190 C   0  0  0  0  0  0  0  0  0  0  0  0
  143.5611   71.3132  220.6955 H   0  0  0  0  0  0  0  0  0  0  0  0
  143.2860   73.4580  220.5560 C   0  0  0  0  0  0  0  0  0  0  0  0
  144.8210   73.7230  219.7470 Cl  0  0  0  0  0  0  0  0  0  0  0  0
  142.4450   74.5390  220.8300 C   0  0  0  0  0  0  0  0  0  0  0  0
  142.7436   75.5556  220.5344 H   0  0  0  0  0  0  0  0  0  0  0  0
  141.2230   74.3310  221.4800 C   0  0  0  0  0  0  0  0  0  0  0  0
  140.1890   75.7110  221.8240 Cl  0  0  0  0  0  0  0  0  0  0  0  0
  1  2  1  0
  2  3  1  0
  3  4  1  0
  4  5  1  0
  5  6  2  0
  6  7  1  0
  6  8  1  0
  8  9  2  0
  9 10  1  0
  9 11  1  0
 11 12  2  0
 12 13  1  0
 12 14  1  0
 14 15  1  0
 14 16  2  0
 16 17  1  0
  3 18  2  0
 18 19  1  0
 18 20  1  0
 20 21  1  0
 20 22  1  0
 20 23  1  0
 23 24  1  0
 23 25  1  0
 23 26  1  0
 26 27  1  0
 27 28  2  0
 28 29  1  0
 28 30  1  0
 30 31  1  0
 30 32  2  0
 32 33  1  0
 32 34  1  0
 34 35  1  0
 34 36  2  0
 36 37  1  0
 16  8  1  0
 36 27  1  0
M  CHG  1   4  -1
M  END
>  <UniqueID>  (49) 
15

>  <SMILES>  (49) 
O/C(=C\CCOc1ccc(Cl)cc1Cl)[N-]/N=C\c1cccnc1F

>  <Energy>  (49) 
41.88192848917527

>  <Genealogy>  (49) 
O=C(CCCOc1ccc(Cl)cc1Cl)[N-]N=Cc1cccnc1F (protonated)
OC(=CCCOc1ccc(Cl)cc1Cl)[N-]N=Cc1cccnc1F (tautomer)
O/C(=C\CCOc1ccc(Cl)cc1Cl)[N-]/N=C\c1cccnc1F (cis-trans isomerization)
O/C(=C\CCOc1ccc(Cl)cc1Cl)[N-]/N=C\c1cccnc1F (3D coordinates assigned)
O/C(=C\CCOc1ccc(Cl)cc1Cl)[N-]/N=C\c1cccnc1F (optimized conformer: 41.88192848917527 kcal/mol)

>  <smiles>  (49) 
O=C(CCCOc1ccc(Cl)cc1Cl)NN=Cc1cccnc1F

>  <score_type>  (49) 
oracle

>  <origin>  (49) 
autodockgpu

>  <m_score__min__energy>  (49) 
-6.6799999999999997

>  <m_primary>  (49) 
energy

>  <meeko>  (49) 
{"free_energy": -5.64, "intermolecular_energy": -8.63, "internal_energy": -1.2, "cluster_size": 6, "cluster_id": 3, "rank_in_cluster": 6}

>  <energy>  (49) 
-6.11

>  <cluster_rmsd>  (49) 
0.0

>  <rmsd>  (49) 
272.36

>  <cluster>  (49) 
3

$$$$
QFPZKQQOUZJSQV-JVRHHQCGNA-N
     RDKit          3D

 37 38  0  0  0  0  0  0  0  0999 V2000
  136.7070   68.4030  225.6220 H   0  0  0  0  0  0  0  0  0  0  0  0
  136.9850   68.8850  224.7760 O   0  0  0  0  0  0  0  0  0  0  0  0
  138.2780   68.8210  224.2470 C   0  0  0  0  0  0  0  0  0  0  0  0
  139.1430   67.7630  224.6560 N   0  0  0  0  0  0  0  0  0  0  0  0
  139.2460   67.3880  226.0020 N   0  0  0  0  0  0  0  0  0  0  0  0
  140.1910   67.8250  226.7790 C   0  0  0  0  0  0  0  0  0  0  0  0
  140.8770   67.0936  227.2311 H   0  0  0  0  0  0  0  0  0  0  0  0
  140.3890   69.2580  227.0850 C   0  0  0  0  0  0  0  0  0  0  0  0
  141.2780   70.0650  226.3500 C   0  0  0  0  0  0  0  0  0  0  0  0
  142.0250   69.5410  225.3460 F   0  0  0  0  0  0  0  0  0  0  0  0
  141.4350   71.3750  226.6770 N   0  0  0  0  0  0  0  0  0  0  0  0
  140.7600   71.9440  227.7100 C   0  0  0  0  0  0  0  0  0  0  0  0
  140.8993   73.0113  227.9368 H   0  0  0  0  0  0  0  0  0  0  0  0
  139.8900   71.1740  228.4830 C   0  0  0  0  0  0  0  0  0  0  0  0
  139.3491   71.6261  229.3274 H   0  0  0  0  0  0  0  0  0  0  0  0
  139.7130   69.8240  228.1740 C   0  0  0  0  0  0  0  0  0  0  0  0
  139.0419   69.2038  228.7864 H   0  0  0  0  0  0  0  0  0  0  0  0
  138.7360   69.7200  223.3670 C   0  0  0  0  0  0  0  0  0  0  0  0
  138.9694   69.3817  222.3467 H   0  0  0  0  0  0  0  0  0  0  0  0
  138.9470   71.1710  223.7060 C   0  0  0  0  0  0  0  0  0  0  0  0
  138.0796   71.7459  223.3497 H   0  0  0  0  0  0  0  0  0  0  0  0
  139.0618   71.2452  224.7975 H   0  0  0  0  0  0  0  0  0  0  0  0
  140.2150   71.7470  223.0650 C   0  0  0  0  0  0  0  0  0  0  0  0
  141.0401   71.6980  223.7908 H   0  0  0  0  0  0  0  0  0  0  0  0
  140.4569   71.1558  222.1695 H   0  0  0  0  0  0  0  0  0  0  0  0
  140.0140   73.1080  222.6750 O   0  0  0  0  0  0  0  0  0  0  0  0
  140.8110   73.8370  221.7770 C   0  0  0  0  0  0  0  0  0  0  0  0
  141.9160   73.2680  221.1130 C   0  0  0  0  0  0  0  0  0  0  0  0
  142.1748   72.2130  221.2866 H   0  0  0  0  0  0  0  0  0  0  0  0
  142.6850   74.0370  220.2350 C   0  0  0  0  0  0  0  0  0  0  0  0
  143.5517   73.5881  219.7277 H   0  0  0  0  0  0  0  0  0  0  0  0
  142.3560   75.3740  220.0000 C   0  0  0  0  0  0  0  0  0  0  0  0
  143.3260   76.3370  218.9010 Cl  0  0  0  0  0  0  0  0  0  0  0  0
  141.2490   75.9420  220.6370 C   0  0  0  0  0  0  0  0  0  0  0  0
  140.9848   76.9925  220.4454 H   0  0  0  0  0  0  0  0  0  0  0  0
  140.4760   75.1770  221.5180 C   0  0  0  0  0  0  0  0  0  0  0  0
  139.0960   75.9190  222.3140 Cl  0  0  0  0  0  0  0  0  0  0  0  0
  1  2  1  0
  2  3  1  0
  3  4  1  0
  4  5  1  0
  5  6  2  0
  6  7  1  0
  6  8  1  0
  8  9  2  0
  9 10  1  0
  9 11  1  0
 11 12  2  0
 12 13  1  0
 12 14  1  0
 14 15  1  0
 14 16  2  0
 16 17  1  0
  3 18  2  0
 18 19  1  0
 18 20  1  0
 20 21  1  0
 20 22  1  0
 20 23  1  0
 23 24  1  0
 23 25  1  0
 23 26  1  0
 26 27  1  0
 27 28  2  0
 28 29  1  0
 28 30  1  0
 30 31  1  0
 30 32  2  0
 32 33  1  0
 32 34  1  0
 34 35  1  0
 34 36  2  0
 36 37  1  0
 16  8  1  0
 36 27  1  0
M  CHG  1   4  -1
M  END
>  <UniqueID>  (50) 
15

>  <SMILES>  (50) 
O/C(=C\CCOc1ccc(Cl)cc1Cl)[N-]/N=C\c1cccnc1F

>  <Energy>  (50) 
41.88192848917527

>  <Genealogy>  (50) 
O=C(CCCOc1ccc(Cl)cc1Cl)[N-]N=Cc1cccnc1F (protonated)
OC(=CCCOc1ccc(Cl)cc1Cl)[N-]N=Cc1cccnc1F (tautomer)
O/C(=C\CCOc1ccc(Cl)cc1Cl)[N-]/N=C\c1cccnc1F (cis-trans isomerization)
O/C(=C\CCOc1ccc(Cl)cc1Cl)[N-]/N=C\c1cccnc1F (3D coordinates assigned)
O/C(=C\CCOc1ccc(Cl)cc1Cl)[N-]/N=C\c1cccnc1F (optimized conformer: 41.88192848917527 kcal/mol)

>  <smiles>  (50) 
O=C(CCCOc1ccc(Cl)cc1Cl)NN=Cc1cccnc1F

>  <score_type>  (50) 
oracle

>  <origin>  (50) 
autodockgpu

>  <m_score__min__energy>  (50) 
-6.6799999999999997

>  <m_primary>  (50) 
energy

>  <meeko>  (50) 
{"free_energy": -6.04, "intermolecular_energy": -9.02, "internal_energy": -1.01, "cluster_size": 6, "cluster_id": 3, "rank_in_cluster": 3}

>  <energy>  (50) 
-6.11

>  <cluster_rmsd>  (50) 
0.47

>  <rmsd>  (50) 
272.24

>  <cluster>  (50) 
3

$$$$
QFPZKQQOUZJSQV-JVRHHQCGNA-N
     RDKit          3D

 37 38  0  0  0  0  0  0  0  0999 V2000
  141.8600   76.0820  222.0090 H   0  0  0  0  0  0  0  0  0  0  0  0
  141.6100   75.1020  221.9570 O   0  0  0  0  0  0  0  0  0  0  0  0
  139.3180   75.4670  221.3540 C   0  0  0  0  0  0  0  0  0  0  0  0
  139.9910   73.2850  222.0200 N   0  0  0  0  0  0  0  0  0  0  0  0
  140.4440   72.6390  223.1780 N   0  0  0  0  0  0  0  0  0  0  0  0
  140.2990   74.6540  221.7680 C   0  0  0  0  0  0  0  0  0  0  0  0
  138.3831   75.4955  221.9330 H   0  0  0  0  0  0  0  0  0  0  0  0
  140.1030   71.0780  225.0270 C   0  0  0  0  0  0  0  0  0  0  0  0
  139.5510   69.8680  225.4890 C   0  0  0  0  0  0  0  0  0  0  0  0
  138.7450   69.1220  224.6920 F   0  0  0  0  0  0  0  0  0  0  0  0
  139.7800   69.4590  226.7650 N   0  0  0  0  0  0  0  0  0  0  0  0
  140.5290   70.1910  227.6300 C   0  0  0  0  0  0  0  0  0  0  0  0
  140.7080   69.8220  228.6507 H   0  0  0  0  0  0  0  0  0  0  0  0
  141.0720   71.4120  227.2240 C   0  0  0  0  0  0  0  0  0  0  0  0
  141.6695   72.0150  227.9236 H   0  0  0  0  0  0  0  0  0  0  0  0
  140.8480   71.8590  225.9200 C   0  0  0  0  0  0  0  0  0  0  0  0
  141.2574   72.8263  225.5934 H   0  0  0  0  0  0  0  0  0  0  0  0
  139.8730   71.5740  223.6530 C   0  0  0  0  0  0  0  0  0  0  0  0
  139.1853   71.0139  223.0023 H   0  0  0  0  0  0  0  0  0  0  0  0
  139.4320   76.3430  220.1360 C   0  0  0  0  0  0  0  0  0  0  0  0
  139.6333   75.7068  219.2616 H   0  0  0  0  0  0  0  0  0  0  0  0
  138.4841   76.8905  220.0284 H   0  0  0  0  0  0  0  0  0  0  0  0
  140.5560   77.3780  220.2600 C   0  0  0  0  0  0  0  0  0  0  0  0
  141.4802   76.9590  219.8354 H   0  0  0  0  0  0  0  0  0  0  0  0
  140.2604   78.2860  219.7139 H   0  0  0  0  0  0  0  0  0  0  0  0
  140.7830   77.7210  221.6300 O   0  0  0  0  0  0  0  0  0  0  0  0
  140.0010   78.5950  222.4040 C   0  0  0  0  0  0  0  0  0  0  0  0
  138.6080   78.4400  222.5430 C   0  0  0  0  0  0  0  0  0  0  0  0
  138.0974   77.6056  222.0399 H   0  0  0  0  0  0  0  0  0  0  0  0
  137.8710   79.3410  223.3170 C   0  0  0  0  0  0  0  0  0  0  0  0
  136.7819   79.2196  223.4120 H   0  0  0  0  0  0  0  0  0  0  0  0
  138.5140   80.3950  223.9700 C   0  0  0  0  0  0  0  0  0  0  0  0
  137.5850   81.5260  224.9370 Cl  0  0  0  0  0  0  0  0  0  0  0  0
  139.8990   80.5440  223.8570 C   0  0  0  0  0  0  0  0  0  0  0  0
  140.4064   81.3690  224.3784 H   0  0  0  0  0  0  0  0  0  0  0  0
  140.6420   79.6460  223.0820 C   0  0  0  0  0  0  0  0  0  0  0  0
  142.3810   79.8630  222.9480 Cl  0  0  0  0  0  0  0  0  0  0  0  0
  1  2  1  0
  2  3  1  0
  3  4  1  0
  4  5  1  0
  5  6  2  0
  6  7  1  0
  6  8  1  0
  8  9  2  0
  9 10  1  0
  9 11  1  0
 11 12  2  0
 12 13  1  0
 12 14  1  0
 14 15  1  0
 14 16  2  0
 16 17  1  0
  3 18  2  0
 18 19  1  0
 18 20  1  0
 20 21  1  0
 20 22  1  0
 20 23  1  0
 23 24  1  0
 23 25  1  0
 23 26  1  0
 26 27  1  0
 27 28  2  0
 28 29  1  0
 28 30  1  0
 30 31  1  0
 30 32  2  0
 32 33  1  0
 32 34  1  0
 34 35  1  0
 34 36  2  0
 36 37  1  0
 16  8  1  0
 36 27  1  0
M  CHG  1   4  -1
M  END
>  <UniqueID>  (51) 
15

>  <SMILES>  (51) 
O/C(=C\CCOc1ccc(Cl)cc1Cl)[N-]/N=C\c1cccnc1F

>  <Energy>  (51) 
41.88192848917527

>  <Genealogy>  (51) 
O=C(CCCOc1ccc(Cl)cc1Cl)[N-]N=Cc1cccnc1F (protonated)
OC(=CCCOc1ccc(Cl)cc1Cl)[N-]N=Cc1cccnc1F (tautomer)
O/C(=C\CCOc1ccc(Cl)cc1Cl)[N-]/N=C\c1cccnc1F (cis-trans isomerization)
O/C(=C\CCOc1ccc(Cl)cc1Cl)[N-]/N=C\c1cccnc1F (3D coordinates assigned)
O/C(=C\CCOc1ccc(Cl)cc1Cl)[N-]/N=C\c1cccnc1F (optimized conformer: 41.88192848917527 kcal/mol)

>  <smiles>  (51) 
O=C(CCCOc1ccc(Cl)cc1Cl)NN=Cc1cccnc1F

>  <score_type>  (51) 
oracle

>  <origin>  (51) 
autodockgpu

>  <m_score__min__energy>  (51) 
-6.6799999999999997

>  <m_primary>  (51) 
energy

>  <meeko>  (51) 
{"free_energy": -5.46, "intermolecular_energy": -8.45, "internal_energy": -1.09, "cluster_size": 2, "cluster_id": 5, "rank_in_cluster": 2}

>  <energy>  (51) 
-6.04

>  <cluster_rmsd>  (51) 
1.5

>  <rmsd>  (51) 
272.4

>  <cluster>  (51) 
3

$$$$
QFPZKQQOUZJSQV-JVRHHQCGNA-N
     RDKit          3D

 37 38  0  0  0  0  0  0  0  0999 V2000
  139.5240   66.8430  222.7350 H   0  0  0  0  0  0  0  0  0  0  0  0
  138.9270   67.6450  222.5810 O   0  0  0  0  0  0  0  0  0  0  0  0
  138.6540   68.5990  223.5680 C   0  0  0  0  0  0  0  0  0  0  0  0
  138.5890   68.1860  224.9320 N   0  0  0  0  0  0  0  0  0  0  0  0
  139.5920   67.3900  225.4990 N   0  0  0  0  0  0  0  0  0  0  0  0
  140.3040   67.7810  226.5130 C   0  0  0  0  0  0  0  0  0  0  0  0
  140.7237   67.0171  227.1840 H   0  0  0  0  0  0  0  0  0  0  0  0
  140.5770   69.2040  226.8080 C   0  0  0  0  0  0  0  0  0  0  0  0
  140.2240   69.7940  228.0360 C   0  0  0  0  0  0  0  0  0  0  0  0
  139.5770   69.0800  228.9910 F   0  0  0  0  0  0  0  0  0  0  0  0
  140.4840   71.1100  228.2580 N   0  0  0  0  0  0  0  0  0  0  0  0
  141.0770   71.8930  227.3190 C   0  0  0  0  0  0  0  0  0  0  0  0
  141.2891   72.9499  227.5382 H   0  0  0  0  0  0  0  0  0  0  0  0
  141.4170   71.3560  226.0760 C   0  0  0  0  0  0  0  0  0  0  0  0
  141.8857   71.9878  225.3071 H   0  0  0  0  0  0  0  0  0  0  0  0
  141.1560   70.0090  225.8190 C   0  0  0  0  0  0  0  0  0  0  0  0
  141.4056   69.5790  224.8378 H   0  0  0  0  0  0  0  0  0  0  0  0
  138.4480   69.8900  223.2770 C   0  0  0  0  0  0  0  0  0  0  0  0
  137.4133   70.2627  223.2541 H   0  0  0  0  0  0  0  0  0  0  0  0
  139.5630   70.8550  222.9800 C   0  0  0  0  0  0  0  0  0  0  0  0
  140.1190   71.0482  223.9093 H   0  0  0  0  0  0  0  0  0  0  0  0
  140.2044   70.3980  222.2120 H   0  0  0  0  0  0  0  0  0  0  0  0
  139.0530   72.1900  222.4260 C   0  0  0  0  0  0  0  0  0  0  0  0
  138.9528   72.1121  221.3333 H   0  0  0  0  0  0  0  0  0  0  0  0
  138.0787   72.4127  222.8856 H   0  0  0  0  0  0  0  0  0  0  0  0
  139.9600   73.2510  222.7390 O   0  0  0  0  0  0  0  0  0  0  0  0
  140.7650   73.9480  221.8230 C   0  0  0  0  0  0  0  0  0  0  0  0
  141.8450   73.3420  221.1500 C   0  0  0  0  0  0  0  0  0  0  0  0
  142.0768   72.2821  221.3311 H   0  0  0  0  0  0  0  0  0  0  0  0
  142.6230   74.0800  220.2540 C   0  0  0  0  0  0  0  0  0  0  0  0
  143.4704   73.6023  219.7405 H   0  0  0  0  0  0  0  0  0  0  0  0
  142.3270   75.4230  220.0090 C   0  0  0  0  0  0  0  0  0  0  0  0
  143.3080   76.3470  218.8860 Cl  0  0  0  0  0  0  0  0  0  0  0  0
  141.2440   76.0280  220.6530 C   0  0  0  0  0  0  0  0  0  0  0  0
  141.0056   77.0829  220.4523 H   0  0  0  0  0  0  0  0  0  0  0  0
  140.4620   75.2940  221.5530 C   0  0  0  0  0  0  0  0  0  0  0  0
  139.1140   76.0820  222.3580 Cl  0  0  0  0  0  0  0  0  0  0  0  0
  1  2  1  0
  2  3  1  0
  3  4  1  0
  4  5  1  0
  5  6  2  0
  6  7  1  0
  6  8  1  0
  8  9  2  0
  9 10  1  0
  9 11  1  0
 11 12  2  0
 12 13  1  0
 12 14  1  0
 14 15  1  0
 14 16  2  0
 16 17  1  0
  3 18  2  0
 18 19  1  0
 18 20  1  0
 20 21  1  0
 20 22  1  0
 20 23  1  0
 23 24  1  0
 23 25  1  0
 23 26  1  0
 26 27  1  0
 27 28  2  0
 28 29  1  0
 28 30  1  0
 30 31  1  0
 30 32  2  0
 32 33  1  0
 32 34  1  0
 34 35  1  0
 34 36  2  0
 36 37  1  0
 16  8  1  0
 36 27  1  0
M  CHG  1   4  -1
M  END
>  <UniqueID>  (52) 
15

>  <SMILES>  (52) 
O/C(=C\CCOc1ccc(Cl)cc1Cl)[N-]/N=C\c1cccnc1F

>  <Energy>  (52) 
41.88192848917527

>  <Genealogy>  (52) 
O=C(CCCOc1ccc(Cl)cc1Cl)[N-]N=Cc1cccnc1F (protonated)
OC(=CCCOc1ccc(Cl)cc1Cl)[N-]N=Cc1cccnc1F (tautomer)
O/C(=C\CCOc1ccc(Cl)cc1Cl)[N-]/N=C\c1cccnc1F (cis-trans isomerization)
O/C(=C\CCOc1ccc(Cl)cc1Cl)[N-]/N=C\c1cccnc1F (3D coordinates assigned)
O/C(=C\CCOc1ccc(Cl)cc1Cl)[N-]/N=C\c1cccnc1F (optimized conformer: 41.88192848917527 kcal/mol)

>  <smiles>  (52) 
O=C(CCCOc1ccc(Cl)cc1Cl)NN=Cc1cccnc1F

>  <score_type>  (52) 
oracle

>  <origin>  (52) 
autodockgpu

>  <m_score__min__energy>  (52) 
-6.6799999999999997

>  <m_primary>  (52) 
energy

>  <meeko>  (52) 
{"free_energy": -6.11, "intermolecular_energy": -9.09, "internal_energy": -0.88, "cluster_size": 6, "cluster_id": 3, "rank_in_cluster": 2}

>  <energy>  (52) 
-5.98

>  <cluster_rmsd>  (52) 
0.27

>  <rmsd>  (52) 
272.33

>  <cluster>  (52) 
3

$$$$
QFPZKQQOUZJSQV-JVRHHQCGNA-N
     RDKit          3D

 37 38  0  0  0  0  0  0  0  0999 V2000
  142.1530   75.9100  222.1170 H   0  0  0  0  0  0  0  0  0  0  0  0
  141.6990   75.5080  221.3070 O   0  0  0  0  0  0  0  0  0  0  0  0
  140.5650   74.6930  221.3890 C   0  0  0  0  0  0  0  0  0  0  0  0
  140.7150   73.3350  221.8000 N   0  0  0  0  0  0  0  0  0  0  0  0
  140.2350   72.8940  223.0400 N   0  0  0  0  0  0  0  0  0  0  0  0
  140.2770   71.6480  223.4030 C   0  0  0  0  0  0  0  0  0  0  0  0
  140.3425   70.8771  222.6210 H   0  0  0  0  0  0  0  0  0  0  0  0
  140.2410   71.2150  224.8160 C   0  0  0  0  0  0  0  0  0  0  0  0
  139.3780   70.1990  225.2660 C   0  0  0  0  0  0  0  0  0  0  0  0
  138.5080   69.5970  224.4160 F   0  0  0  0  0  0  0  0  0  0  0  0
  139.3720   69.8430  226.5780 N   0  0  0  0  0  0  0  0  0  0  0  0
  140.1770   70.4480  227.4900 C   0  0  0  0  0  0  0  0  0  0  0  0
  140.1582   70.1239  228.5410 H   0  0  0  0  0  0  0  0  0  0  0  0
  141.0280   71.4810  227.0930 C   0  0  0  0  0  0  0  0  0  0  0  0
  141.6744   71.9823  227.8285 H   0  0  0  0  0  0  0  0  0  0  0  0
  141.0500   71.8710  225.7530 C   0  0  0  0  0  0  0  0  0  0  0  0
  141.7039   72.6952  225.4320 H   0  0  0  0  0  0  0  0  0  0  0  0
  139.3390   75.1420  221.0920 C   0  0  0  0  0  0  0  0  0  0  0  0
  139.0634   75.2477  220.0324 H   0  0  0  0  0  0  0  0  0  0  0  0
  138.3200   75.5090  222.1360 C   0  0  0  0  0  0  0  0  0  0  0  0
  137.4888   74.7903  222.0856 H   0  0  0  0  0  0  0  0  0  0  0  0
  138.8201   75.4812  223.1153 H   0  0  0  0  0  0  0  0  0  0  0  0
  137.7600   76.9230  221.9390 C   0  0  0  0  0  0  0  0  0  0  0  0
  138.1557   77.3402  221.0013 H   0  0  0  0  0  0  0  0  0  0  0  0
  136.6622   76.8650  221.8991 H   0  0  0  0  0  0  0  0  0  0  0  0
  138.1350   77.7740  223.0260 O   0  0  0  0  0  0  0  0  0  0  0  0
  139.3500   78.4680  223.1520 C   0  0  0  0  0  0  0  0  0  0  0  0
  140.5950   77.8680  222.8750 C   0  0  0  0  0  0  0  0  0  0  0  0
  140.6357   76.8210  222.5400 H   0  0  0  0  0  0  0  0  0  0  0  0
  141.7780   78.5970  223.0240 C   0  0  0  0  0  0  0  0  0  0  0  0
  142.7466   78.1191  222.8155 H   0  0  0  0  0  0  0  0  0  0  0  0
  141.7340   79.9310  223.4370 C   0  0  0  0  0  0  0  0  0  0  0  0
  143.2220   80.8410  223.6260 Cl  0  0  0  0  0  0  0  0  0  0  0  0
  140.5040   80.5410  223.6910 C   0  0  0  0  0  0  0  0  0  0  0  0
  140.4689   81.5941  224.0067 H   0  0  0  0  0  0  0  0  0  0  0  0
  139.3150   79.8160  223.5450 C   0  0  0  0  0  0  0  0  0  0  0  0
  137.7820   80.6050  223.8830 Cl  0  0  0  0  0  0  0  0  0  0  0  0
  1  2  1  0
  2  3  1  0
  3  4  1  0
  4  5  1  0
  5  6  2  0
  6  7  1  0
  6  8  1  0
  8  9  2  0
  9 10  1  0
  9 11  1  0
 11 12  2  0
 12 13  1  0
 12 14  1  0
 14 15  1  0
 14 16  2  0
 16 17  1  0
  3 18  2  0
 18 19  1  0
 18 20  1  0
 20 21  1  0
 20 22  1  0
 20 23  1  0
 23 24  1  0
 23 25  1  0
 23 26  1  0
 26 27  1  0
 27 28  2  0
 28 29  1  0
 28 30  1  0
 30 31  1  0
 30 32  2  0
 32 33  1  0
 32 34  1  0
 34 35  1  0
 34 36  2  0
 36 37  1  0
 16  8  1  0
 36 27  1  0
M  CHG  1   4  -1
M  END
>  <UniqueID>  (53) 
15

>  <SMILES>  (53) 
O/C(=C\CCOc1ccc(Cl)cc1Cl)[N-]/N=C\c1cccnc1F

>  <Energy>  (53) 
41.88192848917527

>  <Genealogy>  (53) 
O=C(CCCOc1ccc(Cl)cc1Cl)[N-]N=Cc1cccnc1F (protonated)
OC(=CCCOc1ccc(Cl)cc1Cl)[N-]N=Cc1cccnc1F (tautomer)
O/C(=C\CCOc1ccc(Cl)cc1Cl)[N-]/N=C\c1cccnc1F (cis-trans isomerization)
O/C(=C\CCOc1ccc(Cl)cc1Cl)[N-]/N=C\c1cccnc1F (3D coordinates assigned)
O/C(=C\CCOc1ccc(Cl)cc1Cl)[N-]/N=C\c1cccnc1F (optimized conformer: 41.88192848917527 kcal/mol)

>  <smiles>  (53) 
O=C(CCCOc1ccc(Cl)cc1Cl)NN=Cc1cccnc1F

>  <score_type>  (53) 
oracle

>  <origin>  (53) 
autodockgpu

>  <m_score__min__energy>  (53) 
-6.6799999999999997

>  <m_primary>  (53) 
energy

>  <meeko>  (53) 
{"free_energy": -5.84, "intermolecular_energy": -8.82, "internal_energy": -0.63, "cluster_size": 2, "cluster_id": 5, "rank_in_cluster": 1}

>  <energy>  (53) 
-5.91

>  <cluster_rmsd>  (53) 
1.16

>  <rmsd>  (53) 
272.41

>  <cluster>  (53) 
3

$$$$
QFPZKQQOUZJSQV-JVRHHQCGNA-N
     RDKit          3D

 37 38  0  0  0  0  0  0  0  0999 V2000
  142.5740   75.4030  221.4700 H   0  0  0  0  0  0  0  0  0  0  0  0
  142.0550   74.6340  221.0660 O   0  0  0  0  0  0  0  0  0  0  0  0
  140.7350   74.3310  221.4160 C   0  0  0  0  0  0  0  0  0  0  0  0
  140.0460   75.1850  222.3260 N   0  0  0  0  0  0  0  0  0  0  0  0
  139.8010   76.5300  222.0180 N   0  0  0  0  0  0  0  0  0  0  0  0
  140.6830   77.2850  221.4360 C   0  0  0  0  0  0  0  0  0  0  0  0
  140.9495   77.0689  220.3909 H   0  0  0  0  0  0  0  0  0  0  0  0
  141.3460   78.4210  222.1110 C   0  0  0  0  0  0  0  0  0  0  0  0
  141.8510   79.5250  221.3980 C   0  0  0  0  0  0  0  0  0  0  0  0
  141.7830   79.5680  220.0440 F   0  0  0  0  0  0  0  0  0  0  0  0
  142.4630   80.5410  222.0620 N   0  0  0  0  0  0  0  0  0  0  0  0
  142.6150   80.5280  223.4120 C   0  0  0  0  0  0  0  0  0  0  0  0
  143.1006   81.3749  223.9189 H   0  0  0  0  0  0  0  0  0  0  0  0
  142.1550   79.4400  224.1560 C   0  0  0  0  0  0  0  0  0  0  0  0
  142.2855   79.4186  225.2480 H   0  0  0  0  0  0  0  0  0  0  0  0
  141.5280   78.3800  223.5000 C   0  0  0  0  0  0  0  0  0  0  0  0
  141.1758   77.5104  224.0743 H   0  0  0  0  0  0  0  0  0  0  0  0
  140.0940   73.2620  220.9270 C   0  0  0  0  0  0  0  0  0  0  0  0
  139.7164   73.3053  219.8948 H   0  0  0  0  0  0  0  0  0  0  0  0
  139.8650   72.0040  221.7210 C   0  0  0  0  0  0  0  0  0  0  0  0
  138.8016   71.9499  221.9972 H   0  0  0  0  0  0  0  0  0  0  0  0
  140.1634   71.1527  221.0915 H   0  0  0  0  0  0  0  0  0  0  0  0
  140.7080   71.9550  223.0000 C   0  0  0  0  0  0  0  0  0  0  0  0
  141.4163   71.1161  222.9329 H   0  0  0  0  0  0  0  0  0  0  0  0
  141.2496   72.9070  223.1014 H   0  0  0  0  0  0  0  0  0  0  0  0
  139.8770   71.7760  224.1510 O   0  0  0  0  0  0  0  0  0  0  0  0
  140.1570   70.9530  225.2540 C   0  0  0  0  0  0  0  0  0  0  0  0
  140.8140   71.4290  226.4050 C   0  0  0  0  0  0  0  0  0  0  0  0
  141.1204   72.4839  226.4629 H   0  0  0  0  0  0  0  0  0  0  0  0
  141.0790   70.5690  227.4740 C   0  0  0  0  0  0  0  0  0  0  0  0
  141.6022   70.9463  228.3650 H   0  0  0  0  0  0  0  0  0  0  0  0
  140.6810   69.2310  227.4140 C   0  0  0  0  0  0  0  0  0  0  0  0
  141.0180   68.1540  228.7560 Cl  0  0  0  0  0  0  0  0  0  0  0  0
  140.0070   68.7540  226.2870 C   0  0  0  0  0  0  0  0  0  0  0  0
  139.6847   67.7032  226.2441 H   0  0  0  0  0  0  0  0  0  0  0  0
  139.7410   69.6110  225.2120 C   0  0  0  0  0  0  0  0  0  0  0  0
  138.9030   68.9820  223.8010 Cl  0  0  0  0  0  0  0  0  0  0  0  0
  1  2  1  0
  2  3  1  0
  3  4  1  0
  4  5  1  0
  5  6  2  0
  6  7  1  0
  6  8  1  0
  8  9  2  0
  9 10  1  0
  9 11  1  0
 11 12  2  0
 12 13  1  0
 12 14  1  0
 14 15  1  0
 14 16  2  0
 16 17  1  0
  3 18  2  0
 18 19  1  0
 18 20  1  0
 20 21  1  0
 20 22  1  0
 20 23  1  0
 23 24  1  0
 23 25  1  0
 23 26  1  0
 26 27  1  0
 27 28  2  0
 28 29  1  0
 28 30  1  0
 30 31  1  0
 30 32  2  0
 32 33  1  0
 32 34  1  0
 34 35  1  0
 34 36  2  0
 36 37  1  0
 16  8  1  0
 36 27  1  0
M  CHG  1   4  -1
M  END
>  <UniqueID>  (54) 
15

>  <SMILES>  (54) 
O/C(=C\CCOc1ccc(Cl)cc1Cl)[N-]/N=C\c1cccnc1F

>  <Energy>  (54) 
41.88192848917527

>  <Genealogy>  (54) 
O=C(CCCOc1ccc(Cl)cc1Cl)[N-]N=Cc1cccnc1F (protonated)
OC(=CCCOc1ccc(Cl)cc1Cl)[N-]N=Cc1cccnc1F (tautomer)
O/C(=C\CCOc1ccc(Cl)cc1Cl)[N-]/N=C\c1cccnc1F (cis-trans isomerization)
O/C(=C\CCOc1ccc(Cl)cc1Cl)[N-]/N=C\c1cccnc1F (3D coordinates assigned)
O/C(=C\CCOc1ccc(Cl)cc1Cl)[N-]/N=C\c1cccnc1F (optimized conformer: 41.88192848917527 kcal/mol)

>  <smiles>  (54) 
O=C(CCCOc1ccc(Cl)cc1Cl)NN=Cc1cccnc1F

>  <score_type>  (54) 
oracle

>  <origin>  (54) 
autodockgpu

>  <m_score__min__energy>  (54) 
-6.6799999999999997

>  <m_primary>  (54) 
energy

>  <meeko>  (54) 
{"free_energy": -6.16, "intermolecular_energy": -9.14, "internal_energy": -0.36, "cluster_size": 4, "cluster_id": 2, "rank_in_cluster": 3}

>  <energy>  (54) 
-5.64

>  <cluster_rmsd>  (54) 
1.05

>  <rmsd>  (54) 
272.35

>  <cluster>  (54) 
3

$$$$
QFPZKQQOUZJSQV-JVRHHQCGNA-N
     RDKit          3D

 37 38  0  0  0  0  0  0  0  0999 V2000
  139.2450   73.7900  223.0350 H   0  0  0  0  0  0  0  0  0  0  0  0
  139.9670   73.9020  222.3340 O   0  0  0  0  0  0  0  0  0  0  0  0
  141.7970   73.0470  221.0420 C   0  0  0  0  0  0  0  0  0  0  0  0
  140.6690   71.5780  222.5350 N   0  0  0  0  0  0  0  0  0  0  0  0
  140.0480   71.4190  223.7810 N   0  0  0  0  0  0  0  0  0  0  0  0
  140.8260   72.8680  221.9470 C   0  0  0  0  0  0  0  0  0  0  0  0
  142.6941   72.4136  221.1053 H   0  0  0  0  0  0  0  0  0  0  0  0
  140.5960   70.5710  226.0060 C   0  0  0  0  0  0  0  0  0  0  0  0
  140.7440   70.9460  227.3550 C   0  0  0  0  0  0  0  0  0  0  0  0
  141.0190   72.2300  227.6940 F   0  0  0  0  0  0  0  0  0  0  0  0
  140.6640   70.0060  228.3350 N   0  0  0  0  0  0  0  0  0  0  0  0
  140.4490   68.6940  228.0560 C   0  0  0  0  0  0  0  0  0  0  0  0
  140.3718   67.9632  228.8745 H   0  0  0  0  0  0  0  0  0  0  0  0
  140.3260   68.2730  226.7300 C   0  0  0  0  0  0  0  0  0  0  0  0
  140.1647   67.2102  226.4967 H   0  0  0  0  0  0  0  0  0  0  0  0
  140.4100   69.2160  225.7040 C   0  0  0  0  0  0  0  0  0  0  0  0
  140.3299   68.8939  224.6553 H   0  0  0  0  0  0  0  0  0  0  0  0
  140.6880   71.5510  224.9030 C   0  0  0  0  0  0  0  0  0  0  0  0
  141.3293   72.4343  225.0393 H   0  0  0  0  0  0  0  0  0  0  0  0
  141.7210   74.0720  219.9430 C   0  0  0  0  0  0  0  0  0  0  0  0
  141.8331   73.5607  218.9755 H   0  0  0  0  0  0  0  0  0  0  0  0
  140.7469   74.5765  220.0236 H   0  0  0  0  0  0  0  0  0  0  0  0
  142.8110   75.1430  220.0620 C   0  0  0  0  0  0  0  0  0  0  0  0
  142.4415   76.0833  219.6268 H   0  0  0  0  0  0  0  0  0  0  0  0
  143.0534   75.2821  221.1259 H   0  0  0  0  0  0  0  0  0  0  0  0
  143.9970   74.7410  219.3710 O   0  0  0  0  0  0  0  0  0  0  0  0
  144.3940   73.4190  219.1100 C   0  0  0  0  0  0  0  0  0  0  0  0
  143.8720   72.6700  218.0370 C   0  0  0  0  0  0  0  0  0  0  0  0
  143.1296   73.1234  217.3637 H   0  0  0  0  0  0  0  0  0  0  0  0
  144.2920   71.3540  217.8230 C   0  0  0  0  0  0  0  0  0  0  0  0
  143.8720   70.7725  216.9891 H   0  0  0  0  0  0  0  0  0  0  0  0
  145.2440   70.7760  218.6660 C   0  0  0  0  0  0  0  0  0  0  0  0
  145.7660   69.1230  218.3970 Cl  0  0  0  0  0  0  0  0  0  0  0  0
  145.7860   71.5170  219.7190 C   0  0  0  0  0  0  0  0  0  0  0  0
  146.5426   71.0641  220.3765 H   0  0  0  0  0  0  0  0  0  0  0  0
  145.3680   72.8350  219.9390 C   0  0  0  0  0  0  0  0  0  0  0  0
  146.0560   73.7420  221.2780 Cl  0  0  0  0  0  0  0  0  0  0  0  0
  1  2  1  0
  2  3  1  0
  3  4  1  0
  4  5  1  0
  5  6  2  0
  6  7  1  0
  6  8  1  0
  8  9  2  0
  9 10  1  0
  9 11  1  0
 11 12  2  0
 12 13  1  0
 12 14  1  0
 14 15  1  0
 14 16  2  0
 16 17  1  0
  3 18  2  0
 18 19  1  0
 18 20  1  0
 20 21  1  0
 20 22  1  0
 20 23  1  0
 23 24  1  0
 23 25  1  0
 23 26  1  0
 26 27  1  0
 27 28  2  0
 28 29  1  0
 28 30  1  0
 30 31  1  0
 30 32  2  0
 32 33  1  0
 32 34  1  0
 34 35  1  0
 34 36  2  0
 36 37  1  0
 16  8  1  0
 36 27  1  0
M  CHG  1   4  -1
M  END
>  <UniqueID>  (55) 
15

>  <SMILES>  (55) 
O/C(=C\CCOc1ccc(Cl)cc1Cl)[N-]/N=C\c1cccnc1F

>  <Energy>  (55) 
41.88192848917527

>  <Genealogy>  (55) 
O=C(CCCOc1ccc(Cl)cc1Cl)[N-]N=Cc1cccnc1F (protonated)
OC(=CCCOc1ccc(Cl)cc1Cl)[N-]N=Cc1cccnc1F (tautomer)
O/C(=C\CCOc1ccc(Cl)cc1Cl)[N-]/N=C\c1cccnc1F (cis-trans isomerization)
O/C(=C\CCOc1ccc(Cl)cc1Cl)[N-]/N=C\c1cccnc1F (3D coordinates assigned)
O/C(=C\CCOc1ccc(Cl)cc1Cl)[N-]/N=C\c1cccnc1F (optimized conformer: 41.88192848917527 kcal/mol)

>  <smiles>  (55) 
O=C(CCCOc1ccc(Cl)cc1Cl)NN=Cc1cccnc1F

>  <score_type>  (55) 
oracle

>  <origin>  (55) 
autodockgpu

>  <m_score__min__energy>  (55) 
-6.6799999999999997

>  <m_primary>  (55) 
energy

>  <meeko>  (55) 
{"free_energy": -5.7, "intermolecular_energy": -8.68, "internal_energy": -0.78, "cluster_size": 1, "cluster_id": 6, "rank_in_cluster": 1}

>  <energy>  (55) 
-5.89

>  <cluster_rmsd>  (55) 
0.0

>  <rmsd>  (55) 
271.95

>  <cluster>  (55) 
4

$$$$
QFPZKQQOUZJSQV-JVRHHQCGNA-N
     RDKit          3D

 37 38  0  0  0  0  0  0  0  0999 V2000
  138.9080   73.6510  223.0520 H   0  0  0  0  0  0  0  0  0  0  0  0
  139.6750   73.8380  222.4180 O   0  0  0  0  0  0  0  0  0  0  0  0
  141.5730   73.1210  221.1400 C   0  0  0  0  0  0  0  0  0  0  0  0
  140.4330   71.5240  222.4840 N   0  0  0  0  0  0  0  0  0  0  0  0
  139.5160   71.2180  223.4980 N   0  0  0  0  0  0  0  0  0  0  0  0
  140.5760   72.8560  221.9930 C   0  0  0  0  0  0  0  0  0  0  0  0
  142.1415   72.2775  220.7213 H   0  0  0  0  0  0  0  0  0  0  0  0
  140.2330   70.6950  225.7750 C   0  0  0  0  0  0  0  0  0  0  0  0
  139.9630   69.8900  226.8980 C   0  0  0  0  0  0  0  0  0  0  0  0
  139.2180   68.7620  226.7830 F   0  0  0  0  0  0  0  0  0  0  0  0
  140.4070   70.2670  228.1260 N   0  0  0  0  0  0  0  0  0  0  0  0
  141.1080   71.4150  228.3160 C   0  0  0  0  0  0  0  0  0  0  0  0
  141.4668   71.6804  229.3214 H   0  0  0  0  0  0  0  0  0  0  0  0
  141.3730   72.2580  227.2350 C   0  0  0  0  0  0  0  0  0  0  0  0
  141.9296   73.1950  227.3841 H   0  0  0  0  0  0  0  0  0  0  0  0
  140.9240   71.8990  225.9630 C   0  0  0  0  0  0  0  0  0  0  0  0
  141.1131   72.5628  225.1065 H   0  0  0  0  0  0  0  0  0  0  0  0
  139.7610   70.3370  224.4200 C   0  0  0  0  0  0  0  0  0  0  0  0
  139.6103   69.2737  224.1818 H   0  0  0  0  0  0  0  0  0  0  0  0
  141.9540   74.5170  220.7260 C   0  0  0  0  0  0  0  0  0  0  0  0
  142.7116   74.8982  221.4265 H   0  0  0  0  0  0  0  0  0  0  0  0
  142.3423   74.4662  219.6981 H   0  0  0  0  0  0  0  0  0  0  0  0
  140.7580   75.4770  220.7250 C   0  0  0  0  0  0  0  0  0  0  0  0
  140.0065   75.1161  220.0074 H   0  0  0  0  0  0  0  0  0  0  0  0
  140.3332   75.5121  221.7391 H   0  0  0  0  0  0  0  0  0  0  0  0
  141.1660   76.7960  220.3530 O   0  0  0  0  0  0  0  0  0  0  0  0
  141.4080   77.8650  221.2320 C   0  0  0  0  0  0  0  0  0  0  0  0
  141.2740   77.7410  222.6290 C   0  0  0  0  0  0  0  0  0  0  0  0
  140.9756   76.7768  223.0664 H   0  0  0  0  0  0  0  0  0  0  0  0
  141.5180   78.8360  223.4620 C   0  0  0  0  0  0  0  0  0  0  0  0
  141.4028   78.7333  224.5511 H   0  0  0  0  0  0  0  0  0  0  0  0
  141.9080   80.0610  222.9150 C   0  0  0  0  0  0  0  0  0  0  0  0
  142.2090   81.4350  223.9640 Cl  0  0  0  0  0  0  0  0  0  0  0  0
  142.0660   80.1890  221.5330 C   0  0  0  0  0  0  0  0  0  0  0  0
  142.3826   81.1508  221.1032 H   0  0  0  0  0  0  0  0  0  0  0  0
  141.8220   79.0950  220.6940 C   0  0  0  0  0  0  0  0  0  0  0  0
  142.0170   79.2870  218.9570 Cl  0  0  0  0  0  0  0  0  0  0  0  0
  1  2  1  0
  2  3  1  0
  3  4  1  0
  4  5  1  0
  5  6  2  0
  6  7  1  0
  6  8  1  0
  8  9  2  0
  9 10  1  0
  9 11  1  0
 11 12  2  0
 12 13  1  0
 12 14  1  0
 14 15  1  0
 14 16  2  0
 16 17  1  0
  3 18  2  0
 18 19  1  0
 18 20  1  0
 20 21  1  0
 20 22  1  0
 20 23  1  0
 23 24  1  0
 23 25  1  0
 23 26  1  0
 26 27  1  0
 27 28  2  0
 28 29  1  0
 28 30  1  0
 30 31  1  0
 30 32  2  0
 32 33  1  0
 32 34  1  0
 34 35  1  0
 34 36  2  0
 36 37  1  0
 16  8  1  0
 36 27  1  0
M  CHG  1   4  -1
M  END
>  <UniqueID>  (56) 
15

>  <SMILES>  (56) 
O/C(=C\CCOc1ccc(Cl)cc1Cl)[N-]/N=C\c1cccnc1F

>  <Energy>  (56) 
41.88192848917527

>  <Genealogy>  (56) 
O=C(CCCOc1ccc(Cl)cc1Cl)[N-]N=Cc1cccnc1F (protonated)
OC(=CCCOc1ccc(Cl)cc1Cl)[N-]N=Cc1cccnc1F (tautomer)
O/C(=C\CCOc1ccc(Cl)cc1Cl)[N-]/N=C\c1cccnc1F (cis-trans isomerization)
O/C(=C\CCOc1ccc(Cl)cc1Cl)[N-]/N=C\c1cccnc1F (3D coordinates assigned)
O/C(=C\CCOc1ccc(Cl)cc1Cl)[N-]/N=C\c1cccnc1F (optimized conformer: 41.88192848917527 kcal/mol)

>  <smiles>  (56) 
O=C(CCCOc1ccc(Cl)cc1Cl)NN=Cc1cccnc1F

>  <score_type>  (56) 
oracle

>  <origin>  (56) 
autodockgpu

>  <m_score__min__energy>  (56) 
-6.6799999999999997

>  <m_primary>  (56) 
energy

>  <meeko>  (56) 
{"free_energy": -6.54, "intermolecular_energy": -9.53, "internal_energy": -0.58, "cluster_size": 4, "cluster_id": 1, "rank_in_cluster": 3}

>  <energy>  (56) 
-5.84

>  <cluster_rmsd>  (56) 
0.0

>  <rmsd>  (56) 
272.99

>  <cluster>  (56) 
5

$$$$
QFPZKQQOUZJSQV-JVRHHQCGNA-N
     RDKit          3D

 37 38  0  0  0  0  0  0  0  0999 V2000
  138.3260   73.5400  223.0260 H   0  0  0  0  0  0  0  0  0  0  0  0
  138.2760   72.5750  222.7230 O   0  0  0  0  0  0  0  0  0  0  0  0
  139.3970   71.7450  222.6190 C   0  0  0  0  0  0  0  0  0  0  0  0
  139.9210   71.1360  223.7970 N   0  0  0  0  0  0  0  0  0  0  0  0
  140.4210   71.9080  224.8540 N   0  0  0  0  0  0  0  0  0  0  0  0
  141.2410   71.4310  225.7410 C   0  0  0  0  0  0  0  0  0  0  0  0
  142.2409   71.8814  225.8261 H   0  0  0  0  0  0  0  0  0  0  0  0
  140.8940   70.3110  226.6420 C   0  0  0  0  0  0  0  0  0  0  0  0
  140.3380   70.5210  227.9180 C   0  0  0  0  0  0  0  0  0  0  0  0
  140.1320   71.7770  228.3890 F   0  0  0  0  0  0  0  0  0  0  0  0
  140.0470   69.4600  228.7160 N   0  0  0  0  0  0  0  0  0  0  0  0
  140.2840   68.1810  228.3250 C   0  0  0  0  0  0  0  0  0  0  0  0
  140.0210   67.3451  228.9899 H   0  0  0  0  0  0  0  0  0  0  0  0
  140.8610   67.9270  227.0800 C   0  0  0  0  0  0  0  0  0  0  0  0
  141.0654   66.8940  226.7622 H   0  0  0  0  0  0  0  0  0  0  0  0
  141.1760   68.9990  226.2420 C   0  0  0  0  0  0  0  0  0  0  0  0
  141.6467   68.8122  225.2655 H   0  0  0  0  0  0  0  0  0  0  0  0
  140.0000   71.5020  221.4480 C   0  0  0  0  0  0  0  0  0  0  0  0
  139.9748   70.4770  221.0495 H   0  0  0  0  0  0  0  0  0  0  0  0
  140.7100   72.5620  220.6510 C   0  0  0  0  0  0  0  0  0  0  0  0
  141.6165   72.1228  220.2090 H   0  0  0  0  0  0  0  0  0  0  0  0
  140.0147   72.9197  219.8773 H   0  0  0  0  0  0  0  0  0  0  0  0
  141.1150   73.7680  221.5060 C   0  0  0  0  0  0  0  0  0  0  0  0
  141.6847   73.4160  222.3787 H   0  0  0  0  0  0  0  0  0  0  0  0
  141.7302   74.4432  220.8932 H   0  0  0  0  0  0  0  0  0  0  0  0
  139.9610   74.4830  221.9570 O   0  0  0  0  0  0  0  0  0  0  0  0
  139.9050   75.8510  222.2700 C   0  0  0  0  0  0  0  0  0  0  0  0
  141.0620   76.6420  222.4090 C   0  0  0  0  0  0  0  0  0  0  0  0
  142.0543   76.1900  222.2643 H   0  0  0  0  0  0  0  0  0  0  0  0
  140.9560   77.9990  222.7300 C   0  0  0  0  0  0  0  0  0  0  0  0
  141.8644   78.6083  222.8465 H   0  0  0  0  0  0  0  0  0  0  0  0
  139.6980   78.5820  222.9030 C   0  0  0  0  0  0  0  0  0  0  0  0
  139.5690   80.2840  223.3100 Cl  0  0  0  0  0  0  0  0  0  0  0  0
  138.5440   77.8120  222.7440 C   0  0  0  0  0  0  0  0  0  0  0  0
  137.5538   78.2742  222.8704 H   0  0  0  0  0  0  0  0  0  0  0  0
  138.6450   76.4530  222.4240 C   0  0  0  0  0  0  0  0  0  0  0  0
  137.1760   75.5040  222.2420 Cl  0  0  0  0  0  0  0  0  0  0  0  0
  1  2  1  0
  2  3  1  0
  3  4  1  0
  4  5  1  0
  5  6  2  0
  6  7  1  0
  6  8  1  0
  8  9  2  0
  9 10  1  0
  9 11  1  0
 11 12  2  0
 12 13  1  0
 12 14  1  0
 14 15  1  0
 14 16  2  0
 16 17  1  0
  3 18  2  0
 18 19  1  0
 18 20  1  0
 20 21  1  0
 20 22  1  0
 20 23  1  0
 23 24  1  0
 23 25  1  0
 23 26  1  0
 26 27  1  0
 27 28  2  0
 28 29  1  0
 28 30  1  0
 30 31  1  0
 30 32  2  0
 32 33  1  0
 32 34  1  0
 34 35  1  0
 34 36  2  0
 36 37  1  0
 16  8  1  0
 36 27  1  0
M  CHG  1   4  -1
M  END
>  <UniqueID>  (57) 
15

>  <SMILES>  (57) 
O/C(=C\CCOc1ccc(Cl)cc1Cl)[N-]/N=C\c1cccnc1F

>  <Energy>  (57) 
41.88192848917527

>  <Genealogy>  (57) 
O=C(CCCOc1ccc(Cl)cc1Cl)[N-]N=Cc1cccnc1F (protonated)
OC(=CCCOc1ccc(Cl)cc1Cl)[N-]N=Cc1cccnc1F (tautomer)
O/C(=C\CCOc1ccc(Cl)cc1Cl)[N-]/N=C\c1cccnc1F (cis-trans isomerization)
O/C(=C\CCOc1ccc(Cl)cc1Cl)[N-]/N=C\c1cccnc1F (3D coordinates assigned)
O/C(=C\CCOc1ccc(Cl)cc1Cl)[N-]/N=C\c1cccnc1F (optimized conformer: 41.88192848917527 kcal/mol)

>  <smiles>  (57) 
O=C(CCCOc1ccc(Cl)cc1Cl)NN=Cc1cccnc1F

>  <score_type>  (57) 
oracle

>  <origin>  (57) 
autodockgpu

>  <m_score__min__energy>  (57) 
-6.6799999999999997

>  <m_primary>  (57) 
energy

>  <meeko>  (57) 
{"free_energy": -5.57, "intermolecular_energy": -8.56, "internal_energy": -1.18, "cluster_size": 1, "cluster_id": 7, "rank_in_cluster": 1}

>  <energy>  (57) 
-5.46

>  <cluster_rmsd>  (57) 
1.09

>  <rmsd>  (57) 
272.87

>  <cluster>  (57) 
5

$$$$
QFPZKQQOUZJSQV-JVRHHQCGNA-N
     RDKit          3D

 37 38  0  0  0  0  0  0  0  0999 V2000
  139.2190   73.6380  223.1010 H   0  0  0  0  0  0  0  0  0  0  0  0
  139.0470   74.3070  222.3610 O   0  0  0  0  0  0  0  0  0  0  0  0
  141.1340   74.2260  221.1830 C   0  0  0  0  0  0  0  0  0  0  0  0
  139.9720   76.2980  221.3080 N   0  0  0  0  0  0  0  0  0  0  0  0
  140.0800   77.2750  222.3060 N   0  0  0  0  0  0  0  0  0  0  0  0
  140.0670   74.9090  221.6180 C   0  0  0  0  0  0  0  0  0  0  0  0
  142.0864   74.7633  221.0641 H   0  0  0  0  0  0  0  0  0  0  0  0
  141.0890   79.4620  222.7150 C   0  0  0  0  0  0  0  0  0  0  0  0
  140.6460   80.4900  223.5690 C   0  0  0  0  0  0  0  0  0  0  0  0
  139.3220   80.7030  223.7750 F   0  0  0  0  0  0  0  0  0  0  0  0
  141.5480   81.3180  224.1610 N   0  0  0  0  0  0  0  0  0  0  0  0
  142.8840   81.1940  223.9490 C   0  0  0  0  0  0  0  0  0  0  0  0
  143.5866   81.8710  224.4570 H   0  0  0  0  0  0  0  0  0  0  0  0
  143.3650   80.2080  223.0870 C   0  0  0  0  0  0  0  0  0  0  0  0
  144.4450   80.1101  222.9025 H   0  0  0  0  0  0  0  0  0  0  0  0
  142.4620   79.3470  222.4610 C   0  0  0  0  0  0  0  0  0  0  0  0
  142.8292   78.5767  221.7669 H   0  0  0  0  0  0  0  0  0  0  0  0
  140.1490   78.5440  222.0380 C   0  0  0  0  0  0  0  0  0  0  0  0
  139.4761   78.9549  221.2710 H   0  0  0  0  0  0  0  0  0  0  0  0
  141.0930   72.7590  220.8490 C   0  0  0  0  0  0  0  0  0  0  0  0
  140.0905   72.5118  220.4697 H   0  0  0  0  0  0  0  0  0  0  0  0
  141.8705   72.5668  220.0949 H   0  0  0  0  0  0  0  0  0  0  0  0
  141.3920   71.8710  222.0610 C   0  0  0  0  0  0  0  0  0  0  0  0
  141.2562   70.8168  221.7777 H   0  0  0  0  0  0  0  0  0  0  0  0
  142.4284   72.0512  222.3824 H   0  0  0  0  0  0  0  0  0  0  0  0
  140.5150   72.1810  223.1480 O   0  0  0  0  0  0  0  0  0  0  0  0
  140.4050   71.4670  224.3530 C   0  0  0  0  0  0  0  0  0  0  0  0
  141.0820   71.8560  225.5250 C   0  0  0  0  0  0  0  0  0  0  0  0
  141.7188   72.7529  225.5169 H   0  0  0  0  0  0  0  0  0  0  0  0
  140.9490   71.1080  226.6990 C   0  0  0  0  0  0  0  0  0  0  0  0
  141.4884   71.4128  227.6080 H   0  0  0  0  0  0  0  0  0  0  0  0
  140.1330   69.9750  226.7200 C   0  0  0  0  0  0  0  0  0  0  0  0
  139.9720   69.0360  228.1930 Cl  0  0  0  0  0  0  0  0  0  0  0  0
  139.4390   69.5940  225.5680 C   0  0  0  0  0  0  0  0  0  0  0  0
  138.7889   68.7069  225.5875 H   0  0  0  0  0  0  0  0  0  0  0  0
  139.5690   70.3380  224.3900 C   0  0  0  0  0  0  0  0  0  0  0  0
  138.6950   69.8300  222.9530 Cl  0  0  0  0  0  0  0  0  0  0  0  0
  1  2  1  0
  2  3  1  0
  3  4  1  0
  4  5  1  0
  5  6  2  0
  6  7  1  0
  6  8  1  0
  8  9  2  0
  9 10  1  0
  9 11  1  0
 11 12  2  0
 12 13  1  0
 12 14  1  0
 14 15  1  0
 14 16  2  0
 16 17  1  0
  3 18  2  0
 18 19  1  0
 18 20  1  0
 20 21  1  0
 20 22  1  0
 20 23  1  0
 23 24  1  0
 23 25  1  0
 23 26  1  0
 26 27  1  0
 27 28  2  0
 28 29  1  0
 28 30  1  0
 30 31  1  0
 30 32  2  0
 32 33  1  0
 32 34  1  0
 34 35  1  0
 34 36  2  0
 36 37  1  0
 16  8  1  0
 36 27  1  0
M  CHG  1   4  -1
M  END
>  <UniqueID>  (58) 
15

>  <SMILES>  (58) 
O/C(=C\CCOc1ccc(Cl)cc1Cl)[N-]/N=C\c1cccnc1F

>  <Energy>  (58) 
41.88192848917527

>  <Genealogy>  (58) 
O=C(CCCOc1ccc(Cl)cc1Cl)[N-]N=Cc1cccnc1F (protonated)
OC(=CCCOc1ccc(Cl)cc1Cl)[N-]N=Cc1cccnc1F (tautomer)
O/C(=C\CCOc1ccc(Cl)cc1Cl)[N-]/N=C\c1cccnc1F (cis-trans isomerization)
O/C(=C\CCOc1ccc(Cl)cc1Cl)[N-]/N=C\c1cccnc1F (3D coordinates assigned)
O/C(=C\CCOc1ccc(Cl)cc1Cl)[N-]/N=C\c1cccnc1F (optimized conformer: 41.88192848917527 kcal/mol)

>  <smiles>  (58) 
O=C(CCCOc1ccc(Cl)cc1Cl)NN=Cc1cccnc1F

>  <score_type>  (58) 
oracle

>  <origin>  (58) 
autodockgpu

>  <m_score__min__energy>  (58) 
-6.6799999999999997

>  <m_primary>  (58) 
energy

>  <meeko>  (58) 
{"free_energy": -5.75, "intermolecular_energy": -8.73, "internal_energy": -1.09, "cluster_size": 4, "cluster_id": 2, "rank_in_cluster": 4}

>  <energy>  (58) 
-5.7

>  <cluster_rmsd>  (58) 
0.0

>  <rmsd>  (58) 
272.3

>  <cluster>  (58) 
6

$$$$
QFPZKQQOUZJSQV-JVRHHQCGNA-N
     RDKit          3D

 37 38  0  0  0  0  0  0  0  0999 V2000
  140.7570   71.0110  220.9900 H   0  0  0  0  0  0  0  0  0  0  0  0
  140.9370   71.9920  220.8140 O   0  0  0  0  0  0  0  0  0  0  0  0
  140.5580   73.0110  221.6940 C   0  0  0  0  0  0  0  0  0  0  0  0
  140.3630   72.7000  223.0720 N   0  0  0  0  0  0  0  0  0  0  0  0
  139.6540   71.5580  223.4660 N   0  0  0  0  0  0  0  0  0  0  0  0
  140.1880   70.6170  224.1850 C   0  0  0  0  0  0  0  0  0  0  0  0
  140.4792   69.6796  223.6884 H   0  0  0  0  0  0  0  0  0  0  0  0
  140.4230   70.7460  225.6390 C   0  0  0  0  0  0  0  0  0  0  0  0
  139.9590   69.7870  226.5600 C   0  0  0  0  0  0  0  0  0  0  0  0
  139.2360   68.7170  226.1450 F   0  0  0  0  0  0  0  0  0  0  0  0
  140.1880   69.9550  227.8890 N   0  0  0  0  0  0  0  0  0  0  0  0
  140.8540   71.0360  228.3730 C   0  0  0  0  0  0  0  0  0  0  0  0
  141.0361   71.1318  229.4536 H   0  0  0  0  0  0  0  0  0  0  0  0
  141.3070   72.0250  227.4980 C   0  0  0  0  0  0  0  0  0  0  0  0
  141.8374   72.9079  227.8841 H   0  0  0  0  0  0  0  0  0  0  0  0
  141.0800   71.8820  226.1280 C   0  0  0  0  0  0  0  0  0  0  0  0
  141.4179   72.6632  225.4312 H   0  0  0  0  0  0  0  0  0  0  0  0
  140.3690   74.2730  221.2880 C   0  0  0  0  0  0  0  0  0  0  0  0
  141.2457   74.9318  221.2025 H   0  0  0  0  0  0  0  0  0  0  0  0
  139.0160   74.8340  220.9430 C   0  0  0  0  0  0  0  0  0  0  0  0
  139.0367   75.1897  219.9023 H   0  0  0  0  0  0  0  0  0  0  0  0
  138.2765   74.0316  221.0818 H   0  0  0  0  0  0  0  0  0  0  0  0
  138.6140   76.0000  221.8530 C   0  0  0  0  0  0  0  0  0  0  0  0
  137.5166   76.0526  221.9080 H   0  0  0  0  0  0  0  0  0  0  0  0
  139.0401   75.8298  222.8527 H   0  0  0  0  0  0  0  0  0  0  0  0
  139.1180   77.2390  221.3450 O   0  0  0  0  0  0  0  0  0  0  0  0
  139.9890   78.1150  222.0130 C   0  0  0  0  0  0  0  0  0  0  0  0
  139.6030   78.8350  223.1610 C   0  0  0  0  0  0  0  0  0  0  0  0
  138.5878   78.7141  223.5668 H   0  0  0  0  0  0  0  0  0  0  0  0
  140.5030   79.7020  223.7870 C   0  0  0  0  0  0  0  0  0  0  0  0
  140.1913   80.2680  224.6772 H   0  0  0  0  0  0  0  0  0  0  0  0
  141.7980   79.8510  223.2840 C   0  0  0  0  0  0  0  0  0  0  0  0
  142.9240   80.9430  224.0700 Cl  0  0  0  0  0  0  0  0  0  0  0  0
  142.1980   79.1240  222.1600 C   0  0  0  0  0  0  0  0  0  0  0  0
  143.2206   79.2350  221.7701 H   0  0  0  0  0  0  0  0  0  0  0  0
  141.3010   78.2550  221.5290 C   0  0  0  0  0  0  0  0  0  0  0  0
  141.8260   77.3620  220.1090 Cl  0  0  0  0  0  0  0  0  0  0  0  0
  1  2  1  0
  2  3  1  0
  3  4  1  0
  4  5  1  0
  5  6  2  0
  6  7  1  0
  6  8  1  0
  8  9  2  0
  9 10  1  0
  9 11  1  0
 11 12  2  0
 12 13  1  0
 12 14  1  0
 14 15  1  0
 14 16  2  0
 16 17  1  0
  3 18  2  0
 18 19  1  0
 18 20  1  0
 20 21  1  0
 20 22  1  0
 20 23  1  0
 23 24  1  0
 23 25  1  0
 23 26  1  0
 26 27  1  0
 27 28  2  0
 28 29  1  0
 28 30  1  0
 30 31  1  0
 30 32  2  0
 32 33  1  0
 32 34  1  0
 34 35  1  0
 34 36  2  0
 36 37  1  0
 16  8  1  0
 36 27  1  0
M  CHG  1   4  -1
M  END
>  <UniqueID>  (59) 
15

>  <SMILES>  (59) 
O/C(=C\CCOc1ccc(Cl)cc1Cl)[N-]/N=C\c1cccnc1F

>  <Energy>  (59) 
41.88192848917527

>  <Genealogy>  (59) 
O=C(CCCOc1ccc(Cl)cc1Cl)[N-]N=Cc1cccnc1F (protonated)
OC(=CCCOc1ccc(Cl)cc1Cl)[N-]N=Cc1cccnc1F (tautomer)
O/C(=C\CCOc1ccc(Cl)cc1Cl)[N-]/N=C\c1cccnc1F (cis-trans isomerization)
O/C(=C\CCOc1ccc(Cl)cc1Cl)[N-]/N=C\c1cccnc1F (3D coordinates assigned)
O/C(=C\CCOc1ccc(Cl)cc1Cl)[N-]/N=C\c1cccnc1F (optimized conformer: 41.88192848917527 kcal/mol)

>  <smiles>  (59) 
O=C(CCCOc1ccc(Cl)cc1Cl)NN=Cc1cccnc1F

>  <score_type>  (59) 
oracle

>  <origin>  (59) 
autodockgpu

>  <m_score__min__energy>  (59) 
-6.6799999999999997

>  <m_primary>  (59) 
energy

>  <meeko>  (59) 
{"free_energy": -5.34, "intermolecular_energy": -8.33, "internal_energy": -0.72, "cluster_size": 4, "cluster_id": 1, "rank_in_cluster": 4}

>  <energy>  (59) 
-5.57

>  <cluster_rmsd>  (59) 
0.0

>  <rmsd>  (59) 
272.76

>  <cluster>  (59) 
7

$$$$
QFPZKQQOUZJSQV-JVRHHQCGNA-N
     RDKit          3D

 37 38  0  0  0  0  0  0  0  0999 V2000
  136.5090   69.6090  225.0440 H   0  0  0  0  0  0  0  0  0  0  0  0
  137.1660   68.8790  225.2890 O   0  0  0  0  0  0  0  0  0  0  0  0
  138.3580   68.6540  224.5920 C   0  0  0  0  0  0  0  0  0  0  0  0
  139.1400   67.5030  224.9090 N   0  0  0  0  0  0  0  0  0  0  0  0
  140.2200   67.5810  225.7980 N   0  0  0  0  0  0  0  0  0  0  0  0
  140.1250   68.1420  226.9650 C   0  0  0  0  0  0  0  0  0  0  0  0
  139.8310   67.5195  227.8229 H   0  0  0  0  0  0  0  0  0  0  0  0
  140.3930   69.5770  227.1960 C   0  0  0  0  0  0  0  0  0  0  0  0
  139.8590   70.2710  228.2990 C   0  0  0  0  0  0  0  0  0  0  0  0
  139.0370   69.6480  229.1810 F   0  0  0  0  0  0  0  0  0  0  0  0
  140.1230   71.5940  228.4630 N   0  0  0  0  0  0  0  0  0  0  0  0
  140.8910   72.2880  227.5820 C   0  0  0  0  0  0  0  0  0  0  0  0
  141.0986   73.3544  227.7541 H   0  0  0  0  0  0  0  0  0  0  0  0
  141.4160   71.6470  226.4590 C   0  0  0  0  0  0  0  0  0  0  0  0
  142.0284   72.2056  225.7358 H   0  0  0  0  0  0  0  0  0  0  0  0
  141.1560   70.2900  226.2630 C   0  0  0  0  0  0  0  0  0  0  0  0
  141.5516   69.7789  225.3729 H   0  0  0  0  0  0  0  0  0  0  0  0
  138.7960   69.4840  223.6370 C   0  0  0  0  0  0  0  0  0  0  0  0
  139.8785   69.5425  223.4506 H   0  0  0  0  0  0  0  0  0  0  0  0
  137.8790   70.3410  222.8060 C   0  0  0  0  0  0  0  0  0  0  0  0
  138.4450   70.7348  221.9489 H   0  0  0  0  0  0  0  0  0  0  0  0
  137.0375   69.7116  222.4808 H   0  0  0  0  0  0  0  0  0  0  0  0
  137.3000   71.5200  223.5960 C   0  0  0  0  0  0  0  0  0  0  0  0
  137.9639   71.7472  224.4432 H   0  0  0  0  0  0  0  0  0  0  0  0
  137.2227   72.3891  222.9262 H   0  0  0  0  0  0  0  0  0  0  0  0
  135.9960   71.2070  224.0930 O   0  0  0  0  0  0  0  0  0  0  0  0
  135.1500   72.0770  224.8010 C   0  0  0  0  0  0  0  0  0  0  0  0
  135.1420   73.4690  224.5810 C   0  0  0  0  0  0  0  0  0  0  0  0
  135.8113   73.9076  223.8262 H   0  0  0  0  0  0  0  0  0  0  0  0
  134.2880   74.2950  225.3170 C   0  0  0  0  0  0  0  0  0  0  0  0
  134.2947   75.3818  225.1469 H   0  0  0  0  0  0  0  0  0  0  0  0
  133.4260   73.7440  226.2680 C   0  0  0  0  0  0  0  0  0  0  0  0
  132.3590   74.7850  227.1930 Cl  0  0  0  0  0  0  0  0  0  0  0  0
  133.4090   72.3620  226.4780 C   0  0  0  0  0  0  0  0  0  0  0  0
  132.7234   71.9275  227.2204 H   0  0  0  0  0  0  0  0  0  0  0  0
  134.2640   71.5300  225.7440 C   0  0  0  0  0  0  0  0  0  0  0  0
  134.2310   69.7970  226.0360 Cl  0  0  0  0  0  0  0  0  0  0  0  0
  1  2  1  0
  2  3  1  0
  3  4  1  0
  4  5  1  0
  5  6  2  0
  6  7  1  0
  6  8  1  0
  8  9  2  0
  9 10  1  0
  9 11  1  0
 11 12  2  0
 12 13  1  0
 12 14  1  0
 14 15  1  0
 14 16  2  0
 16 17  1  0
  3 18  2  0
 18 19  1  0
 18 20  1  0
 20 21  1  0
 20 22  1  0
 20 23  1  0
 23 24  1  0
 23 25  1  0
 23 26  1  0
 26 27  1  0
 27 28  2  0
 28 29  1  0
 28 30  1  0
 30 31  1  0
 30 32  2  0
 32 33  1  0
 32 34  1  0
 34 35  1  0
 34 36  2  0
 36 37  1  0
 16  8  1  0
 36 27  1  0
M  CHG  1   4  -1
M  END
>  <UniqueID>  (60) 
15

>  <SMILES>  (60) 
O/C(=C\CCOc1ccc(Cl)cc1Cl)[N-]/N=C\c1cccnc1F

>  <Energy>  (60) 
41.88192848917527

>  <Genealogy>  (60) 
O=C(CCCOc1ccc(Cl)cc1Cl)[N-]N=Cc1cccnc1F (protonated)
OC(=CCCOc1ccc(Cl)cc1Cl)[N-]N=Cc1cccnc1F (tautomer)
O/C(=C\CCOc1ccc(Cl)cc1Cl)[N-]/N=C\c1cccnc1F (cis-trans isomerization)
O/C(=C\CCOc1ccc(Cl)cc1Cl)[N-]/N=C\c1cccnc1F (3D coordinates assigned)
O/C(=C\CCOc1ccc(Cl)cc1Cl)[N-]/N=C\c1cccnc1F (optimized conformer: 41.88192848917527 kcal/mol)

>  <smiles>  (60) 
O=C(CCCOc1ccc(Cl)cc1Cl)NN=Cc1cccnc1F

>  <score_type>  (60) 
oracle

>  <origin>  (60) 
autodockgpu

>  <m_score__min__energy>  (60) 
-6.6799999999999997

>  <m_primary>  (60) 
energy

>  <meeko>  (60) 
{"free_energy": -5.16, "intermolecular_energy": -8.15, "internal_energy": -1.45, "cluster_size": 1, "cluster_id": 8, "rank_in_cluster": 1}

>  <energy>  (60) 
-5.16

>  <cluster_rmsd>  (60) 
0.0

>  <rmsd>  (60) 
272.27

>  <cluster>  (60) 
8

$$$$
QFPZKQQOUZJSQV-ULFODFFFNA-N
     RDKit          3D

 37 38  0  0  0  0  0  0  0  0999 V2000
  141.9030   76.1120  222.0080 H   0  0  0  0  0  0  0  0  0  0  0  0
  141.0850   75.5160  222.0370 O   0  0  0  0  0  0  0  0  0  0  0  0
  142.9220   74.8880  218.9390 C   0  0  0  0  0  0  0  0  0  0  0  0
  140.7520   74.5250  219.8490 N   0  0  0  0  0  0  0  0  0  0  0  0
  141.7460   74.3390  218.8700 N   0  0  0  0  0  0  0  0  0  0  0  0
  140.9380   73.1370  221.8200 C   0  0  0  0  0  0  0  0  0  0  0  0
  141.5215   72.9752  222.7384 H   0  0  0  0  0  0  0  0  0  0  0  0
  144.0920   74.1250  219.4210 C   0  0  0  0  0  0  0  0  0  0  0  0
  144.8790   73.3890  218.5160 C   0  0  0  0  0  0  0  0  0  0  0  0
  144.5760   73.3640  217.1940 F   0  0  0  0  0  0  0  0  0  0  0  0
  145.9580   72.6910  218.9600 N   0  0  0  0  0  0  0  0  0  0  0  0
  146.3150   72.6780  220.2710 C   0  0  0  0  0  0  0  0  0  0  0  0
  147.1945   72.1025  220.5954 H   0  0  0  0  0  0  0  0  0  0  0  0
  145.5670   73.3940  221.2060 C   0  0  0  0  0  0  0  0  0  0  0  0
  145.8527   73.3875  222.2682 H   0  0  0  0  0  0  0  0  0  0  0  0
  144.4520   74.1190  220.7800 C   0  0  0  0  0  0  0  0  0  0  0  0
  143.8545   74.6862  221.5089 H   0  0  0  0  0  0  0  0  0  0  0  0
  140.9440   74.3620  221.2640 C   0  0  0  0  0  0  0  0  0  0  0  0
  143.0483   75.9372  218.6338 H   0  0  0  0  0  0  0  0  0  0  0  0
  140.1700   71.9770  221.2440 C   0  0  0  0  0  0  0  0  0  0  0  0
  139.1933   72.3375  220.8888 H   0  0  0  0  0  0  0  0  0  0  0  0
  140.7588   71.5532  220.4171 H   0  0  0  0  0  0  0  0  0  0  0  0
  139.9440   70.8740  222.2830 C   0  0  0  0  0  0  0  0  0  0  0  0
  139.1084   70.2377  221.9559 H   0  0  0  0  0  0  0  0  0  0  0  0
  140.8674   70.2829  222.3723 H   0  0  0  0  0  0  0  0  0  0  0  0
  139.6350   71.4290  223.5610 O   0  0  0  0  0  0  0  0  0  0  0  0
  139.8630   70.7340  224.7520 C   0  0  0  0  0  0  0  0  0  0  0  0
  140.8220   71.2160  225.6520 C   0  0  0  0  0  0  0  0  0  0  0  0
  141.3842   72.1311  225.4144 H   0  0  0  0  0  0  0  0  0  0  0  0
  141.0680   70.5410  226.8490 C   0  0  0  0  0  0  0  0  0  0  0  0
  141.8176   70.9287  227.5545 H   0  0  0  0  0  0  0  0  0  0  0  0
  140.3620   69.3720  227.1520 C   0  0  0  0  0  0  0  0  0  0  0  0
  140.6730   68.5220  228.6540 Cl  0  0  0  0  0  0  0  0  0  0  0  0
  139.4140   68.8760  226.2500 C   0  0  0  0  0  0  0  0  0  0  0  0
  138.8634   67.9533  226.4856 H   0  0  0  0  0  0  0  0  0  0  0  0
  139.1640   69.5500  225.0490 C   0  0  0  0  0  0  0  0  0  0  0  0
  138.0090   68.8700  223.9120 Cl  0  0  0  0  0  0  0  0  0  0  0  0
  1  2  1  0
  2  3  1  0
  3  4  1  0
  4  5  1  0
  5  6  2  0
  6  7  1  0
  6  8  1  0
  8  9  2  0
  9 10  1  0
  9 11  1  0
 11 12  2  0
 12 13  1  0
 12 14  1  0
 14 15  1  0
 14 16  2  0
 16 17  1  0
  3 18  2  0
 18 19  1  0
 18 20  1  0
 20 21  1  0
 20 22  1  0
 20 23  1  0
 23 24  1  0
 23 25  1  0
 23 26  1  0
 26 27  1  0
 27 28  2  0
 28 29  1  0
 28 30  1  0
 30 31  1  0
 30 32  2  0
 32 33  1  0
 32 34  1  0
 34 35  1  0
 34 36  2  0
 36 37  1  0
 16  8  1  0
 36 27  1  0
M  CHG  1   4  -1
M  END
>  <UniqueID>  (61) 
16

>  <SMILES>  (61) 
O/C(=C\CCOc1ccc(Cl)cc1Cl)[N-]/N=C/c1cccnc1F

>  <Energy>  (61) 
47.25194010948697

>  <Genealogy>  (61) 
O=C(CCCOc1ccc(Cl)cc1Cl)[N-]N=Cc1cccnc1F (protonated)
OC(=CCCOc1ccc(Cl)cc1Cl)[N-]N=Cc1cccnc1F (tautomer)
O/C(=C\CCOc1ccc(Cl)cc1Cl)[N-]/N=C/c1cccnc1F (cis-trans isomerization)
O/C(=C\CCOc1ccc(Cl)cc1Cl)[N-]/N=C/c1cccnc1F (3D coordinates assigned)
O/C(=C\CCOc1ccc(Cl)cc1Cl)[N-]/N=C/c1cccnc1F (optimized conformer: 47.25194010948697 kcal/mol)

>  <smiles>  (61) 
O=C(CCCOc1ccc(Cl)cc1Cl)NN=Cc1cccnc1F

>  <score_type>  (61) 
oracle

>  <origin>  (61) 
autodockgpu

>  <m_score__min__energy>  (61) 
-6.4299999999999997

>  <m_primary>  (61) 
energy

>  <meeko>  (61) 
{"free_energy": -5.69, "intermolecular_energy": -8.68, "internal_energy": -0.56, "cluster_size": 3, "cluster_id": 6, "rank_in_cluster": 3}

>  <energy>  (61) 
-6.43

>  <cluster_rmsd>  (61) 
0.0

>  <rmsd>  (61) 
272.41

>  <cluster>  (61) 
1

$$$$
QFPZKQQOUZJSQV-ULFODFFFNA-N
     RDKit          3D

 37 38  0  0  0  0  0  0  0  0999 V2000
  136.5230   68.6140  224.1250 H   0  0  0  0  0  0  0  0  0  0  0  0
  137.2740   69.1430  223.6990 O   0  0  0  0  0  0  0  0  0  0  0  0
  140.0330   68.1120  226.8910 C   0  0  0  0  0  0  0  0  0  0  0  0
  138.9690   67.7920  224.7850 N   0  0  0  0  0  0  0  0  0  0  0  0
  138.9960   67.7600  226.1930 N   0  0  0  0  0  0  0  0  0  0  0  0
  139.5720   69.8030  223.5880 C   0  0  0  0  0  0  0  0  0  0  0  0
  140.4951   69.4007  223.1452 H   0  0  0  0  0  0  0  0  0  0  0  0
  140.3100   69.5350  227.1790 C   0  0  0  0  0  0  0  0  0  0  0  0
  141.2350   70.2490  226.3950 C   0  0  0  0  0  0  0  0  0  0  0  0
  141.8890   69.6450  225.3710 F   0  0  0  0  0  0  0  0  0  0  0  0
  141.4860   71.5590  226.6570 N   0  0  0  0  0  0  0  0  0  0  0  0
  140.8620   72.2220  227.6670 C   0  0  0  0  0  0  0  0  0  0  0  0
  141.0881   73.2827  227.8509 H   0  0  0  0  0  0  0  0  0  0  0  0
  139.9350   71.5570  228.4700 C   0  0  0  0  0  0  0  0  0  0  0  0
  139.4263   72.0887  229.2876 H   0  0  0  0  0  0  0  0  0  0  0  0
  139.6590   70.2100  228.2260 C   0  0  0  0  0  0  0  0  0  0  0  0
  138.9308   69.6762  228.8543 H   0  0  0  0  0  0  0  0  0  0  0  0
  138.6240   68.9380  223.9910 C   0  0  0  0  0  0  0  0  0  0  0  0
  140.7158   67.3392  227.2738 H   0  0  0  0  0  0  0  0  0  0  0  0
  139.4280   71.2970  223.7150 C   0  0  0  0  0  0  0  0  0  0  0  0
  138.3913   71.5323  223.9976 H   0  0  0  0  0  0  0  0  0  0  0  0
  140.1350   71.6453  224.4824 H   0  0  0  0  0  0  0  0  0  0  0  0
  139.7590   72.0130  222.4010 C   0  0  0  0  0  0  0  0  0  0  0  0
  140.6816   71.5859  221.9811 H   0  0  0  0  0  0  0  0  0  0  0  0
  138.9186   71.8743  221.7050 H   0  0  0  0  0  0  0  0  0  0  0  0
  139.9470   73.4120  222.6140 O   0  0  0  0  0  0  0  0  0  0  0  0
  140.7150   74.2010  221.7530 C   0  0  0  0  0  0  0  0  0  0  0  0
  141.8350   73.6400  221.1290 C   0  0  0  0  0  0  0  0  0  0  0  0
  142.1002   72.5899  221.3210 H   0  0  0  0  0  0  0  0  0  0  0  0
  142.6180   74.4080  220.2630 C   0  0  0  0  0  0  0  0  0  0  0  0
  143.4922   73.9590  219.7689 H   0  0  0  0  0  0  0  0  0  0  0  0
  142.2920   75.7450  220.0240 C   0  0  0  0  0  0  0  0  0  0  0  0
  143.2770   76.7100  218.9400 Cl  0  0  0  0  0  0  0  0  0  0  0  0
  141.1820   76.3170  220.6570 C   0  0  0  0  0  0  0  0  0  0  0  0
  140.9282   77.3712  220.4717 H   0  0  0  0  0  0  0  0  0  0  0  0
  140.3940   75.5520  221.5250 C   0  0  0  0  0  0  0  0  0  0  0  0
  139.0430   76.3150  222.3490 Cl  0  0  0  0  0  0  0  0  0  0  0  0
  1  2  1  0
  2  3  1  0
  3  4  1  0
  4  5  1  0
  5  6  2  0
  6  7  1  0
  6  8  1  0
  8  9  2  0
  9 10  1  0
  9 11  1  0
 11 12  2  0
 12 13  1  0
 12 14  1  0
 14 15  1  0
 14 16  2  0
 16 17  1  0
  3 18  2  0
 18 19  1  0
 18 20  1  0
 20 21  1  0
 20 22  1  0
 20 23  1  0
 23 24  1  0
 23 25  1  0
 23 26  1  0
 26 27  1  0
 27 28  2  0
 28 29  1  0
 28 30  1  0
 30 31  1  0
 30 32  2  0
 32 33  1  0
 32 34  1  0
 34 35  1  0
 34 36  2  0
 36 37  1  0
 16  8  1  0
 36 27  1  0
M  CHG  1   4  -1
M  END
>  <UniqueID>  (62) 
16

>  <SMILES>  (62) 
O/C(=C\CCOc1ccc(Cl)cc1Cl)[N-]/N=C/c1cccnc1F

>  <Energy>  (62) 
47.25194010948697

>  <Genealogy>  (62) 
O=C(CCCOc1ccc(Cl)cc1Cl)[N-]N=Cc1cccnc1F (protonated)
OC(=CCCOc1ccc(Cl)cc1Cl)[N-]N=Cc1cccnc1F (tautomer)
O/C(=C\CCOc1ccc(Cl)cc1Cl)[N-]/N=C/c1cccnc1F (cis-trans isomerization)
O/C(=C\CCOc1ccc(Cl)cc1Cl)[N-]/N=C/c1cccnc1F (3D coordinates assigned)
O/C(=C\CCOc1ccc(Cl)cc1Cl)[N-]/N=C/c1cccnc1F (optimized conformer: 47.25194010948697 kcal/mol)

>  <smiles>  (62) 
O=C(CCCOc1ccc(Cl)cc1Cl)NN=Cc1cccnc1F

>  <score_type>  (62) 
oracle

>  <origin>  (62) 
autodockgpu

>  <m_score__min__energy>  (62) 
-6.4299999999999997

>  <m_primary>  (62) 
energy

>  <meeko>  (62) 
{"free_energy": -5.99, "intermolecular_energy": -8.98, "internal_energy": -0.8, "cluster_size": 1, "cluster_id": 4, "rank_in_cluster": 1}

>  <energy>  (62) 
-6.35

>  <cluster_rmsd>  (62) 
0.69

>  <rmsd>  (62) 
272.29

>  <cluster>  (62) 
1

$$$$
QFPZKQQOUZJSQV-ULFODFFFNA-N
     RDKit          3D

 37 38  0  0  0  0  0  0  0  0999 V2000
  145.9670   71.9310  221.5210 H   0  0  0  0  0  0  0  0  0  0  0  0
  146.3510   72.6560  220.9270 O   0  0  0  0  0  0  0  0  0  0  0  0
  145.6010   73.3550  219.9790 C   0  0  0  0  0  0  0  0  0  0  0  0
  146.0050   73.2560  218.6040 N   0  0  0  0  0  0  0  0  0  0  0  0
  145.9380   72.0870  217.8220 N   0  0  0  0  0  0  0  0  0  0  0  0
  144.9920   71.2040  217.9450 C   0  0  0  0  0  0  0  0  0  0  0  0
  143.9573   71.4803  217.6938 H   0  0  0  0  0  0  0  0  0  0  0  0
  145.2850   69.8350  218.4170 C   0  0  0  0  0  0  0  0  0  0  0  0
  144.7980   69.3970  219.6620 C   0  0  0  0  0  0  0  0  0  0  0  0
  144.0590   70.2200  220.4470 F   0  0  0  0  0  0  0  0  0  0  0  0
  145.0630   68.1350  220.0950 N   0  0  0  0  0  0  0  0  0  0  0  0
  145.7960   67.2620  219.3540 C   0  0  0  0  0  0  0  0  0  0  0  0
  145.9926   66.2487  219.7342 H   0  0  0  0  0  0  0  0  0  0  0  0
  146.2990   67.6500  218.1120 C   0  0  0  0  0  0  0  0  0  0  0  0
  146.8913   66.9467  217.5082 H   0  0  0  0  0  0  0  0  0  0  0  0
  146.0430   68.9400  217.6430 C   0  0  0  0  0  0  0  0  0  0  0  0
  146.4356   69.2564  216.6654 H   0  0  0  0  0  0  0  0  0  0  0  0
  144.5650   74.1350  220.3350 C   0  0  0  0  0  0  0  0  0  0  0  0
  144.6873   75.2268  220.2794 H   0  0  0  0  0  0  0  0  0  0  0  0
  143.2460   73.5840  220.8060 C   0  0  0  0  0  0  0  0  0  0  0  0
  143.2038   72.5104  220.5700 H   0  0  0  0  0  0  0  0  0  0  0  0
  143.1720   73.7534  221.8904 H   0  0  0  0  0  0  0  0  0  0  0  0
  142.0630   74.2870  220.1320 C   0  0  0  0  0  0  0  0  0  0  0  0
  142.3238   74.5073  219.0863 H   0  0  0  0  0  0  0  0  0  0  0  0
  141.1876   73.6226  220.1792 H   0  0  0  0  0  0  0  0  0  0  0  0
  141.7440   75.5080  220.8010 O   0  0  0  0  0  0  0  0  0  0  0  0
  141.8890   76.7550  220.1870 C   0  0  0  0  0  0  0  0  0  0  0  0
  142.3830   76.8200  218.8800 C   0  0  0  0  0  0  0  0  0  0  0  0
  142.6524   75.8944  218.3503 H   0  0  0  0  0  0  0  0  0  0  0  0
  142.5360   78.0540  218.2440 C   0  0  0  0  0  0  0  0  0  0  0  0
  142.9181   78.0974  217.2134 H   0  0  0  0  0  0  0  0  0  0  0  0
  142.2040   79.2340  218.9160 C   0  0  0  0  0  0  0  0  0  0  0  0
  142.3990   80.7840  218.1200 Cl  0  0  0  0  0  0  0  0  0  0  0  0
  141.7240   79.1770  220.2300 C   0  0  0  0  0  0  0  0  0  0  0  0
  141.4685   80.1060  220.7608 H   0  0  0  0  0  0  0  0  0  0  0  0
  141.5680   77.9420  220.8710 C   0  0  0  0  0  0  0  0  0  0  0  0
  141.0180   77.9090  222.5390 Cl  0  0  0  0  0  0  0  0  0  0  0  0
  1  2  1  0
  2  3  1  0
  3  4  1  0
  4  5  1  0
  5  6  2  0
  6  7  1  0
  6  8  1  0
  8  9  2  0
  9 10  1  0
  9 11  1  0
 11 12  2  0
 12 13  1  0
 12 14  1  0
 14 15  1  0
 14 16  2  0
 16 17  1  0
  3 18  2  0
 18 19  1  0
 18 20  1  0
 20 21  1  0
 20 22  1  0
 20 23  1  0
 23 24  1  0
 23 25  1  0
 23 26  1  0
 26 27  1  0
 27 28  2  0
 28 29  1  0
 28 30  1  0
 30 31  1  0
 30 32  2  0
 32 33  1  0
 32 34  1  0
 34 35  1  0
 34 36  2  0
 36 37  1  0
 16  8  1  0
 36 27  1  0
M  CHG  1   4  -1
M  END
>  <UniqueID>  (63) 
16

>  <SMILES>  (63) 
O/C(=C\CCOc1ccc(Cl)cc1Cl)[N-]/N=C/c1cccnc1F

>  <Energy>  (63) 
47.25194010948697

>  <Genealogy>  (63) 
O=C(CCCOc1ccc(Cl)cc1Cl)[N-]N=Cc1cccnc1F (protonated)
OC(=CCCOc1ccc(Cl)cc1Cl)[N-]N=Cc1cccnc1F (tautomer)
O/C(=C\CCOc1ccc(Cl)cc1Cl)[N-]/N=C/c1cccnc1F (cis-trans isomerization)
O/C(=C\CCOc1ccc(Cl)cc1Cl)[N-]/N=C/c1cccnc1F (3D coordinates assigned)
O/C(=C\CCOc1ccc(Cl)cc1Cl)[N-]/N=C/c1cccnc1F (optimized conformer: 47.25194010948697 kcal/mol)

>  <smiles>  (63) 
O=C(CCCOc1ccc(Cl)cc1Cl)NN=Cc1cccnc1F

>  <score_type>  (63) 
oracle

>  <origin>  (63) 
autodockgpu

>  <m_score__min__energy>  (63) 
-6.4299999999999997

>  <m_primary>  (63) 
energy

>  <meeko>  (63) 
{"free_energy": -6.01, "intermolecular_energy": -8.99, "internal_energy": -0.65, "cluster_size": 2, "cluster_id": 3, "rank_in_cluster": 1}

>  <energy>  (63) 
-6.3

>  <cluster_rmsd>  (63) 
1.63

>  <rmsd>  (63) 
272.47

>  <cluster>  (63) 
1

$$$$
QFPZKQQOUZJSQV-ULFODFFFNA-N
     RDKit          3D

 37 38  0  0  0  0  0  0  0  0999 V2000
  145.9210   72.0840  221.9780 H   0  0  0  0  0  0  0  0  0  0  0  0
  145.6120   73.0020  221.6810 O   0  0  0  0  0  0  0  0  0  0  0  0
  145.9110   70.3930  218.4220 C   0  0  0  0  0  0  0  0  0  0  0  0
  146.0120   72.5930  219.3250 N   0  0  0  0  0  0  0  0  0  0  0  0
  146.2820   71.2120  219.3590 N   0  0  0  0  0  0  0  0  0  0  0  0
  144.4850   74.3260  220.0360 C   0  0  0  0  0  0  0  0  0  0  0  0
  144.2735   75.0943  220.7942 H   0  0  0  0  0  0  0  0  0  0  0  0
  145.4490   69.0260  218.7420 C   0  0  0  0  0  0  0  0  0  0  0  0
  144.1130   68.8010  219.1210 C   0  0  0  0  0  0  0  0  0  0  0  0
  143.2320   69.8290  219.2010 F   0  0  0  0  0  0  0  0  0  0  0  0
  143.6870   67.5430  219.4110 N   0  0  0  0  0  0  0  0  0  0  0  0
  144.5200   66.4700  219.3460 C   0  0  0  0  0  0  0  0  0  0  0  0
  144.1423   65.4653  219.5869 H   0  0  0  0  0  0  0  0  0  0  0  0
  145.8530   66.6430  218.9740 C   0  0  0  0  0  0  0  0  0  0  0  0
  146.5308   65.7784  218.9191 H   0  0  0  0  0  0  0  0  0  0  0  0
  146.3190   67.9240  218.6720 C   0  0  0  0  0  0  0  0  0  0  0  0
  147.3689   68.0712  218.3787 H   0  0  0  0  0  0  0  0  0  0  0  0
  145.3290   73.3280  220.3530 C   0  0  0  0  0  0  0  0  0  0  0  0
  145.9411   70.7221  217.3728 H   0  0  0  0  0  0  0  0  0  0  0  0
  143.8160   74.4410  218.6920 C   0  0  0  0  0  0  0  0  0  0  0  0
  144.5714   74.3008  217.9048 H   0  0  0  0  0  0  0  0  0  0  0  0
  143.0347   73.6691  218.6311 H   0  0  0  0  0  0  0  0  0  0  0  0
  143.1510   75.8090  218.5040 C   0  0  0  0  0  0  0  0  0  0  0  0
  143.8020   76.5869  218.9297 H   0  0  0  0  0  0  0  0  0  0  0  0
  142.9991   75.9797  217.4280 H   0  0  0  0  0  0  0  0  0  0  0  0
  141.8820   75.8550  219.1550 O   0  0  0  0  0  0  0  0  0  0  0  0
  141.6390   76.6750  220.2600 C   0  0  0  0  0  0  0  0  0  0  0  0
  142.0170   78.0220  220.2080 C   0  0  0  0  0  0  0  0  0  0  0  0
  142.4999   78.4203  219.3035 H   0  0  0  0  0  0  0  0  0  0  0  0
  141.7840   78.8630  221.2990 C   0  0  0  0  0  0  0  0  0  0  0  0
  142.0764   79.9222  221.2486 H   0  0  0  0  0  0  0  0  0  0  0  0
  141.1800   78.3600  222.4540 C   0  0  0  0  0  0  0  0  0  0  0  0
  140.8900   79.4140  223.8250 Cl  0  0  0  0  0  0  0  0  0  0  0  0
  140.8130   77.0100  222.5190 C   0  0  0  0  0  0  0  0  0  0  0  0
  140.3417   76.6132  223.4303 H   0  0  0  0  0  0  0  0  0  0  0  0
  141.0440   76.1640  221.4280 C   0  0  0  0  0  0  0  0  0  0  0  0
  140.6260   74.4620  221.5640 Cl  0  0  0  0  0  0  0  0  0  0  0  0
  1  2  1  0
  2  3  1  0
  3  4  1  0
  4  5  1  0
  5  6  2  0
  6  7  1  0
  6  8  1  0
  8  9  2  0
  9 10  1  0
  9 11  1  0
 11 12  2  0
 12 13  1  0
 12 14  1  0
 14 15  1  0
 14 16  2  0
 16 17  1  0
  3 18  2  0
 18 19  1  0
 18 20  1  0
 20 21  1  0
 20 22  1  0
 20 23  1  0
 23 24  1  0
 23 25  1  0
 23 26  1  0
 26 27  1  0
 27 28  2  0
 28 29  1  0
 28 30  1  0
 30 31  1  0
 30 32  2  0
 32 33  1  0
 32 34  1  0
 34 35  1  0
 34 36  2  0
 36 37  1  0
 16  8  1  0
 36 27  1  0
M  CHG  1   4  -1
M  END
>  <UniqueID>  (64) 
16

>  <SMILES>  (64) 
O/C(=C\CCOc1ccc(Cl)cc1Cl)[N-]/N=C/c1cccnc1F

>  <Energy>  (64) 
47.25194010948697

>  <Genealogy>  (64) 
O=C(CCCOc1ccc(Cl)cc1Cl)[N-]N=Cc1cccnc1F (protonated)
OC(=CCCOc1ccc(Cl)cc1Cl)[N-]N=Cc1cccnc1F (tautomer)
O/C(=C\CCOc1ccc(Cl)cc1Cl)[N-]/N=C/c1cccnc1F (cis-trans isomerization)
O/C(=C\CCOc1ccc(Cl)cc1Cl)[N-]/N=C/c1cccnc1F (3D coordinates assigned)
O/C(=C\CCOc1ccc(Cl)cc1Cl)[N-]/N=C/c1cccnc1F (optimized conformer: 47.25194010948697 kcal/mol)

>  <smiles>  (64) 
O=C(CCCOc1ccc(Cl)cc1Cl)NN=Cc1cccnc1F

>  <score_type>  (64) 
oracle

>  <origin>  (64) 
autodockgpu

>  <m_score__min__energy>  (64) 
-6.4299999999999997

>  <m_primary>  (64) 
energy

>  <meeko>  (64) 
{"free_energy": -5.8, "intermolecular_energy": -8.78, "internal_energy": -0.7, "cluster_size": 2, "cluster_id": 3, "rank_in_cluster": 2}

>  <energy>  (64) 
-6.09

>  <cluster_rmsd>  (64) 
0.91

>  <rmsd>  (64) 
272.27

>  <cluster>  (64) 
1

$$$$
QFPZKQQOUZJSQV-ULFODFFFNA-N
     RDKit          3D

 37 38  0  0  0  0  0  0  0  0999 V2000
  139.2000   74.7400  223.3070 H   0  0  0  0  0  0  0  0  0  0  0  0
  139.5220   74.9640  222.3730 O   0  0  0  0  0  0  0  0  0  0  0  0
  140.2890   74.0970  221.5930 C   0  0  0  0  0  0  0  0  0  0  0  0
  140.4380   72.7430  222.0490 N   0  0  0  0  0  0  0  0  0  0  0  0
  140.6860   72.3590  223.3810 N   0  0  0  0  0  0  0  0  0  0  0  0
  140.2330   71.2570  223.8990 C   0  0  0  0  0  0  0  0  0  0  0  0
  139.7686   70.5029  223.2466 H   0  0  0  0  0  0  0  0  0  0  0  0
  140.3320   71.0010  225.3510 C   0  0  0  0  0  0  0  0  0  0  0  0
  139.7450   69.8500  225.9080 C   0  0  0  0  0  0  0  0  0  0  0  0
  139.0770   68.9640  225.1270 F   0  0  0  0  0  0  0  0  0  0  0  0
  139.8410   69.6120  227.2430 N   0  0  0  0  0  0  0  0  0  0  0  0
  140.4980   70.4590  228.0780 C   0  0  0  0  0  0  0  0  0  0  0  0
  140.5567   70.2353  229.1534 H   0  0  0  0  0  0  0  0  0  0  0  0
  141.0980   71.6120  227.5720 C   0  0  0  0  0  0  0  0  0  0  0  0
  141.6322   72.3004  228.2434 H   0  0  0  0  0  0  0  0  0  0  0  0
  141.0140   71.8840  226.2050 C   0  0  0  0  0  0  0  0  0  0  0  0
  141.4826   72.7912  225.7960 H   0  0  0  0  0  0  0  0  0  0  0  0
  140.9120   74.5160  220.4770 C   0  0  0  0  0  0  0  0  0  0  0  0
  140.6618   74.0295  219.5227 H   0  0  0  0  0  0  0  0  0  0  0  0
  141.9360   75.6200  220.4730 C   0  0  0  0  0  0  0  0  0  0  0  0
  142.5821   75.5099  221.3564 H   0  0  0  0  0  0  0  0  0  0  0  0
  142.5204   75.5417  219.5444 H   0  0  0  0  0  0  0  0  0  0  0  0
  141.2790   77.0040  220.5080 C   0  0  0  0  0  0  0  0  0  0  0  0
  141.6201   77.5862  219.6393 H   0  0  0  0  0  0  0  0  0  0  0  0
  140.1870   76.8744  220.4803 H   0  0  0  0  0  0  0  0  0  0  0  0
  141.6240   77.7040  221.7040 O   0  0  0  0  0  0  0  0  0  0  0  0
  140.7080   78.5050  222.3910 C   0  0  0  0  0  0  0  0  0  0  0  0
  139.3540   78.1500  222.3900 C   0  0  0  0  0  0  0  0  0  0  0  0
  139.0248   77.2495  221.8507 H   0  0  0  0  0  0  0  0  0  0  0  0
  138.4190   78.9330  223.0700 C   0  0  0  0  0  0  0  0  0  0  0  0
  137.3575   78.6445  223.0713 H   0  0  0  0  0  0  0  0  0  0  0  0
  138.8310   80.0830  223.7490 C   0  0  0  0  0  0  0  0  0  0  0  0
  137.6560   81.0690  224.6020 Cl  0  0  0  0  0  0  0  0  0  0  0  0
  140.1810   80.4530  223.7420 C   0  0  0  0  0  0  0  0  0  0  0  0
  140.5036   81.3607  224.2730 H   0  0  0  0  0  0  0  0  0  0  0  0
  141.1220   79.6710  223.0610 C   0  0  0  0  0  0  0  0  0  0  0  0
  142.7990   80.1940  223.0220 Cl  0  0  0  0  0  0  0  0  0  0  0  0
  1  2  1  0
  2  3  1  0
  3  4  1  0
  4  5  1  0
  5  6  2  0
  6  7  1  0
  6  8  1  0
  8  9  2  0
  9 10  1  0
  9 11  1  0
 11 12  2  0
 12 13  1  0
 12 14  1  0
 14 15  1  0
 14 16  2  0
 16 17  1  0
  3 18  2  0
 18 19  1  0
 18 20  1  0
 20 21  1  0
 20 22  1  0
 20 23  1  0
 23 24  1  0
 23 25  1  0
 23 26  1  0
 26 27  1  0
 27 28  2  0
 28 29  1  0
 28 30  1  0
 30 31  1  0
 30 32  2  0
 32 33  1  0
 32 34  1  0
 34 35  1  0
 34 36  2  0
 36 37  1  0
 16  8  1  0
 36 27  1  0
M  CHG  1   4  -1
M  END
>  <UniqueID>  (65) 
16

>  <SMILES>  (65) 
O/C(=C\CCOc1ccc(Cl)cc1Cl)[N-]/N=C/c1cccnc1F

>  <Energy>  (65) 
47.25194010948697

>  <Genealogy>  (65) 
O=C(CCCOc1ccc(Cl)cc1Cl)[N-]N=Cc1cccnc1F (protonated)
OC(=CCCOc1ccc(Cl)cc1Cl)[N-]N=Cc1cccnc1F (tautomer)
O/C(=C\CCOc1ccc(Cl)cc1Cl)[N-]/N=C/c1cccnc1F (cis-trans isomerization)
O/C(=C\CCOc1ccc(Cl)cc1Cl)[N-]/N=C/c1cccnc1F (3D coordinates assigned)
O/C(=C\CCOc1ccc(Cl)cc1Cl)[N-]/N=C/c1cccnc1F (optimized conformer: 47.25194010948697 kcal/mol)

>  <smiles>  (65) 
O=C(CCCOc1ccc(Cl)cc1Cl)NN=Cc1cccnc1F

>  <score_type>  (65) 
oracle

>  <origin>  (65) 
autodockgpu

>  <m_score__min__energy>  (65) 
-6.4299999999999997

>  <m_primary>  (65) 
energy

>  <meeko>  (65) 
{"free_energy": -6.3, "intermolecular_energy": -9.29, "internal_energy": -0.63, "cluster_size": 7, "cluster_id": 1, "rank_in_cluster": 3}

>  <energy>  (65) 
-5.8

>  <cluster_rmsd>  (65) 
1.89

>  <rmsd>  (65) 
271.92

>  <cluster>  (65) 
1

$$$$
QFPZKQQOUZJSQV-ULFODFFFNA-N
     RDKit          3D

 37 38  0  0  0  0  0  0  0  0999 V2000
  138.8240   74.0100  223.0670 H   0  0  0  0  0  0  0  0  0  0  0  0
  139.4970   74.3160  222.3740 O   0  0  0  0  0  0  0  0  0  0  0  0
  140.5180   73.5010  221.8790 C   0  0  0  0  0  0  0  0  0  0  0  0
  140.4880   72.1080  222.2270 N   0  0  0  0  0  0  0  0  0  0  0  0
  139.8270   71.5660  223.3460 N   0  0  0  0  0  0  0  0  0  0  0  0
  140.3480   70.6480  224.1020 C   0  0  0  0  0  0  0  0  0  0  0  0
  140.7526   69.7339  223.6430 H   0  0  0  0  0  0  0  0  0  0  0  0
  140.4060   70.8120  225.5700 C   0  0  0  0  0  0  0  0  0  0  0  0
  139.7220   69.9150  226.4100 C   0  0  0  0  0  0  0  0  0  0  0  0
  138.9970   68.8930  225.8910 F   0  0  0  0  0  0  0  0  0  0  0  0
  139.7800   70.0640  227.7610 N   0  0  0  0  0  0  0  0  0  0  0  0
  140.4900   71.0660  228.3430 C   0  0  0  0  0  0  0  0  0  0  0  0
  140.5152   71.1573  229.4389 H   0  0  0  0  0  0  0  0  0  0  0  0
  141.1870   71.9790  227.5510 C   0  0  0  0  0  0  0  0  0  0  0  0
  141.7647   72.7909  228.0169 H   0  0  0  0  0  0  0  0  0  0  0  0
  141.1440   71.8520  226.1610 C   0  0  0  0  0  0  0  0  0  0  0  0
  141.6888   72.5673  225.5273 H   0  0  0  0  0  0  0  0  0  0  0  0
  141.5250   74.0030  221.1420 C   0  0  0  0  0  0  0  0  0  0  0  0
  142.5586   73.8030  221.4608 H   0  0  0  0  0  0  0  0  0  0  0  0
  141.3030   74.8260  219.9010 C   0  0  0  0  0  0  0  0  0  0  0  0
  141.6247   74.2437  219.0249 H   0  0  0  0  0  0  0  0  0  0  0  0
  140.2326   75.0719  219.8398 H   0  0  0  0  0  0  0  0  0  0  0  0
  142.0930   76.1390  219.9420 C   0  0  0  0  0  0  0  0  0  0  0  0
  142.8161   76.0979  220.7699 H   0  0  0  0  0  0  0  0  0  0  0  0
  142.6137   76.2647  218.9812 H   0  0  0  0  0  0  0  0  0  0  0  0
  141.2230   77.2540  220.1370 O   0  0  0  0  0  0  0  0  0  0  0  0
  141.4880   78.2500  221.0810 C   0  0  0  0  0  0  0  0  0  0  0  0
  141.3760   77.9490  222.4430 C   0  0  0  0  0  0  0  0  0  0  0  0
  141.0816   76.9367  222.7571 H   0  0  0  0  0  0  0  0  0  0  0  0
  141.6360   78.9270  223.4060 C   0  0  0  0  0  0  0  0  0  0  0  0
  141.5526   78.6817  224.4750 H   0  0  0  0  0  0  0  0  0  0  0  0
  142.0020   80.2170  223.0120 C   0  0  0  0  0  0  0  0  0  0  0  0
  142.3270   81.4460  224.2200 Cl  0  0  0  0  0  0  0  0  0  0  0  0
  142.1020   80.5300  221.6510 C   0  0  0  0  0  0  0  0  0  0  0  0
  142.3855   81.5467  221.3413 H   0  0  0  0  0  0  0  0  0  0  0  0
  141.8420   79.5520  220.6830 C   0  0  0  0  0  0  0  0  0  0  0  0
  141.9190   79.9930  218.9830 Cl  0  0  0  0  0  0  0  0  0  0  0  0
  1  2  1  0
  2  3  1  0
  3  4  1  0
  4  5  1  0
  5  6  2  0
  6  7  1  0
  6  8  1  0
  8  9  2  0
  9 10  1  0
  9 11  1  0
 11 12  2  0
 12 13  1  0
 12 14  1  0
 14 15  1  0
 14 16  2  0
 16 17  1  0
  3 18  2  0
 18 19  1  0
 18 20  1  0
 20 21  1  0
 20 22  1  0
 20 23  1  0
 23 24  1  0
 23 25  1  0
 23 26  1  0
 26 27  1  0
 27 28  2  0
 28 29  1  0
 28 30  1  0
 30 31  1  0
 30 32  2  0
 32 33  1  0
 32 34  1  0
 34 35  1  0
 34 36  2  0
 36 37  1  0
 16  8  1  0
 36 27  1  0
M  CHG  1   4  -1
M  END
>  <UniqueID>  (66) 
16

>  <SMILES>  (66) 
O/C(=C\CCOc1ccc(Cl)cc1Cl)[N-]/N=C/c1cccnc1F

>  <Energy>  (66) 
47.25194010948697

>  <Genealogy>  (66) 
O=C(CCCOc1ccc(Cl)cc1Cl)[N-]N=Cc1cccnc1F (protonated)
OC(=CCCOc1ccc(Cl)cc1Cl)[N-]N=Cc1cccnc1F (tautomer)
O/C(=C\CCOc1ccc(Cl)cc1Cl)[N-]/N=C/c1cccnc1F (cis-trans isomerization)
O/C(=C\CCOc1ccc(Cl)cc1Cl)[N-]/N=C/c1cccnc1F (3D coordinates assigned)
O/C(=C\CCOc1ccc(Cl)cc1Cl)[N-]/N=C/c1cccnc1F (optimized conformer: 47.25194010948697 kcal/mol)

>  <smiles>  (66) 
O=C(CCCOc1ccc(Cl)cc1Cl)NN=Cc1cccnc1F

>  <score_type>  (66) 
oracle

>  <origin>  (66) 
autodockgpu

>  <m_score__min__energy>  (66) 
-6.4299999999999997

>  <m_primary>  (66) 
energy

>  <meeko>  (66) 
{"free_energy": -6.43, "intermolecular_energy": -9.41, "internal_energy": -0.65, "cluster_size": 7, "cluster_id": 1, "rank_in_cluster": 1}

>  <energy>  (66) 
-5.67

>  <cluster_rmsd>  (66) 
1.94

>  <rmsd>  (66) 
272.38

>  <cluster>  (66) 
1

$$$$
QFPZKQQOUZJSQV-ULFODFFFNA-N
     RDKit          3D

 37 38  0  0  0  0  0  0  0  0999 V2000
  139.5810   74.1810  223.0930 H   0  0  0  0  0  0  0  0  0  0  0  0
  139.5180   73.3810  222.4740 O   0  0  0  0  0  0  0  0  0  0  0  0
  140.6280   72.6510  222.0430 C   0  0  0  0  0  0  0  0  0  0  0  0
  141.0780   71.5690  222.8730 N   0  0  0  0  0  0  0  0  0  0  0  0
  140.2610   70.8160  223.7370 N   0  0  0  0  0  0  0  0  0  0  0  0
  139.9680   71.1930  224.9450 C   0  0  0  0  0  0  0  0  0  0  0  0
  139.4525   72.1517  225.1033 H   0  0  0  0  0  0  0  0  0  0  0  0
  140.3170   70.3530  226.1100 C   0  0  0  0  0  0  0  0  0  0  0  0
  140.8450   70.9420  227.2740 C   0  0  0  0  0  0  0  0  0  0  0  0
  141.0460   72.2810  227.3440 F   0  0  0  0  0  0  0  0  0  0  0  0
  141.1610   70.1700  228.3480 N   0  0  0  0  0  0  0  0  0  0  0  0
  140.9810   68.8230  228.3410 C   0  0  0  0  0  0  0  0  0  0  0  0
  141.2479   68.2282  229.2270 H   0  0  0  0  0  0  0  0  0  0  0  0
  140.4580   68.1940  227.2110 C   0  0  0  0  0  0  0  0  0  0  0  0
  140.3087   67.1042  227.2011 H   0  0  0  0  0  0  0  0  0  0  0  0
  140.1260   68.9610  226.0930 C   0  0  0  0  0  0  0  0  0  0  0  0
  139.7139   68.4746  225.1966 H   0  0  0  0  0  0  0  0  0  0  0  0
  141.2880   72.9720  220.9160 C   0  0  0  0  0  0  0  0  0  0  0  0
  141.1002   72.3763  220.0106 H   0  0  0  0  0  0  0  0  0  0  0  0
  142.2720   74.1090  220.8360 C   0  0  0  0  0  0  0  0  0  0  0  0
  142.9494   74.0554  221.7011 H   0  0  0  0  0  0  0  0  0  0  0  0
  142.8287   74.0141  219.8920 H   0  0  0  0  0  0  0  0  0  0  0  0
  141.5690   75.4700  220.8400 C   0  0  0  0  0  0  0  0  0  0  0  0
  142.3275   76.2665  220.8574 H   0  0  0  0  0  0  0  0  0  0  0  0
  140.9497   75.5470  219.9342 H   0  0  0  0  0  0  0  0  0  0  0  0
  140.7230   75.6060  221.9820 O   0  0  0  0  0  0  0  0  0  0  0  0
  140.2420   76.8460  222.4110 C   0  0  0  0  0  0  0  0  0  0  0  0
  141.1530   77.8360  222.7970 C   0  0  0  0  0  0  0  0  0  0  0  0
  142.2330   77.6303  222.7608 H   0  0  0  0  0  0  0  0  0  0  0  0
  140.6970   79.0840  223.2280 C   0  0  0  0  0  0  0  0  0  0  0  0
  141.4183   79.8609  223.5214 H   0  0  0  0  0  0  0  0  0  0  0  0
  139.3260   79.3470  223.2870 C   0  0  0  0  0  0  0  0  0  0  0  0
  138.7530   80.9130  223.8310 Cl  0  0  0  0  0  0  0  0  0  0  0  0
  138.4090   78.3560  222.9180 C   0  0  0  0  0  0  0  0  0  0  0  0
  137.3296   78.5616  222.9692 H   0  0  0  0  0  0  0  0  0  0  0  0
  138.8610   77.1040  222.4840 C   0  0  0  0  0  0  0  0  0  0  0  0
  137.6830   75.8620  222.0830 Cl  0  0  0  0  0  0  0  0  0  0  0  0
  1  2  1  0
  2  3  1  0
  3  4  1  0
  4  5  1  0
  5  6  2  0
  6  7  1  0
  6  8  1  0
  8  9  2  0
  9 10  1  0
  9 11  1  0
 11 12  2  0
 12 13  1  0
 12 14  1  0
 14 15  1  0
 14 16  2  0
 16 17  1  0
  3 18  2  0
 18 19  1  0
 18 20  1  0
 20 21  1  0
 20 22  1  0
 20 23  1  0
 23 24  1  0
 23 25  1  0
 23 26  1  0
 26 27  1  0
 27 28  2  0
 28 29  1  0
 28 30  1  0
 30 31  1  0
 30 32  2  0
 32 33  1  0
 32 34  1  0
 34 35  1  0
 34 36  2  0
 36 37  1  0
 16  8  1  0
 36 27  1  0
M  CHG  1   4  -1
M  END
>  <UniqueID>  (67) 
16

>  <SMILES>  (67) 
O/C(=C\CCOc1ccc(Cl)cc1Cl)[N-]/N=C/c1cccnc1F

>  <Energy>  (67) 
47.25194010948697

>  <Genealogy>  (67) 
O=C(CCCOc1ccc(Cl)cc1Cl)[N-]N=Cc1cccnc1F (protonated)
OC(=CCCOc1ccc(Cl)cc1Cl)[N-]N=Cc1cccnc1F (tautomer)
O/C(=C\CCOc1ccc(Cl)cc1Cl)[N-]/N=C/c1cccnc1F (cis-trans isomerization)
O/C(=C\CCOc1ccc(Cl)cc1Cl)[N-]/N=C/c1cccnc1F (3D coordinates assigned)
O/C(=C\CCOc1ccc(Cl)cc1Cl)[N-]/N=C/c1cccnc1F (optimized conformer: 47.25194010948697 kcal/mol)

>  <smiles>  (67) 
O=C(CCCOc1ccc(Cl)cc1Cl)NN=Cc1cccnc1F

>  <score_type>  (67) 
oracle

>  <origin>  (67) 
autodockgpu

>  <m_score__min__energy>  (67) 
-6.4299999999999997

>  <m_primary>  (67) 
energy

>  <meeko>  (67) 
{"free_energy": -5.97, "intermolecular_energy": -8.95, "internal_energy": -1.0, "cluster_size": 1, "cluster_id": 5, "rank_in_cluster": 1}

>  <energy>  (67) 
-5.4

>  <cluster_rmsd>  (67) 
1.97

>  <rmsd>  (67) 
272.05

>  <cluster>  (67) 
1

$$$$
QFPZKQQOUZJSQV-ULFODFFFNA-N
     RDKit          3D

 37 38  0  0  0  0  0  0  0  0999 V2000
  139.0640   74.8920  223.3640 H   0  0  0  0  0  0  0  0  0  0  0  0
  139.2170   74.9480  222.3650 O   0  0  0  0  0  0  0  0  0  0  0  0
  139.8460   73.9460  221.6230 C   0  0  0  0  0  0  0  0  0  0  0  0
  140.6210   72.9710  222.3400 N   0  0  0  0  0  0  0  0  0  0  0  0
  140.3490   72.5220  223.6470 N   0  0  0  0  0  0  0  0  0  0  0  0
  140.5180   71.2900  224.0230 C   0  0  0  0  0  0  0  0  0  0  0  0
  140.6361   70.5031  223.2635 H   0  0  0  0  0  0  0  0  0  0  0  0
  140.5540   70.9300  225.4560 C   0  0  0  0  0  0  0  0  0  0  0  0
  140.0890   69.6720  225.8810 C   0  0  0  0  0  0  0  0  0  0  0  0
  139.5990   68.7750  224.9890 F   0  0  0  0  0  0  0  0  0  0  0  0
  140.1280   69.3390  227.1990 N   0  0  0  0  0  0  0  0  0  0  0  0
  140.6090   70.1910  228.1410 C   0  0  0  0  0  0  0  0  0  0  0  0
  140.6248   69.8890  229.1986 H   0  0  0  0  0  0  0  0  0  0  0  0
  141.0830   71.4490  227.7680 C   0  0  0  0  0  0  0  0  0  0  0  0
  141.4748   72.1424  228.5267 H   0  0  0  0  0  0  0  0  0  0  0  0
  141.0550   71.8190  226.4220 C   0  0  0  0  0  0  0  0  0  0  0  0
  141.4260   72.8087  226.1171 H   0  0  0  0  0  0  0  0  0  0  0  0
  139.7750   73.9120  220.2800 C   0  0  0  0  0  0  0  0  0  0  0  0
  139.7655   72.9323  219.7800 H   0  0  0  0  0  0  0  0  0  0  0  0
  139.7080   75.1520  219.4300 C   0  0  0  0  0  0  0  0  0  0  0  0
  140.5718   75.1641  218.7490 H   0  0  0  0  0  0  0  0  0  0  0  0
  138.7624   75.1311  218.8684 H   0  0  0  0  0  0  0  0  0  0  0  0
  139.7290   76.4270  220.2810 C   0  0  0  0  0  0  0  0  0  0  0  0
  138.9987   77.1424  219.8749 H   0  0  0  0  0  0  0  0  0  0  0  0
  139.4730   76.1606  221.3171 H   0  0  0  0  0  0  0  0  0  0  0  0
  141.0240   77.0270  220.2730 O   0  0  0  0  0  0  0  0  0  0  0  0
  141.3880   78.0280  221.1770 C   0  0  0  0  0  0  0  0  0  0  0  0
  141.2700   77.7840  222.5510 C   0  0  0  0  0  0  0  0  0  0  0  0
  140.8929   76.8129  222.9041 H   0  0  0  0  0  0  0  0  0  0  0  0
  141.6290   78.7680  223.4750 C   0  0  0  0  0  0  0  0  0  0  0  0
  141.5409   78.5675  224.5530 H   0  0  0  0  0  0  0  0  0  0  0  0
  142.1000   80.0070  223.0320 C   0  0  0  0  0  0  0  0  0  0  0  0
  142.5480   81.2430  224.1930 Cl  0  0  0  0  0  0  0  0  0  0  0  0
  142.2050   80.2640  221.6600 C   0  0  0  0  0  0  0  0  0  0  0  0
  142.5697   81.2415  221.3114 H   0  0  0  0  0  0  0  0  0  0  0  0
  141.8470   79.2800  220.7300 C   0  0  0  0  0  0  0  0  0  0  0  0
  141.9360   79.6550  219.0150 Cl  0  0  0  0  0  0  0  0  0  0  0  0
  1  2  1  0
  2  3  1  0
  3  4  1  0
  4  5  1  0
  5  6  2  0
  6  7  1  0
  6  8  1  0
  8  9  2  0
  9 10  1  0
  9 11  1  0
 11 12  2  0
 12 13  1  0
 12 14  1  0
 14 15  1  0
 14 16  2  0
 16 17  1  0
  3 18  2  0
 18 19  1  0
 18 20  1  0
 20 21  1  0
 20 22  1  0
 20 23  1  0
 23 24  1  0
 23 25  1  0
 23 26  1  0
 26 27  1  0
 27 28  2  0
 28 29  1  0
 28 30  1  0
 30 31  1  0
 30 32  2  0
 32 33  1  0
 32 34  1  0
 34 35  1  0
 34 36  2  0
 36 37  1  0
 16  8  1  0
 36 27  1  0
M  CHG  1   4  -1
M  END
>  <UniqueID>  (68) 
16

>  <SMILES>  (68) 
O/C(=C\CCOc1ccc(Cl)cc1Cl)[N-]/N=C/c1cccnc1F

>  <Energy>  (68) 
47.25194010948697

>  <Genealogy>  (68) 
O=C(CCCOc1ccc(Cl)cc1Cl)[N-]N=Cc1cccnc1F (protonated)
OC(=CCCOc1ccc(Cl)cc1Cl)[N-]N=Cc1cccnc1F (tautomer)
O/C(=C\CCOc1ccc(Cl)cc1Cl)[N-]/N=C/c1cccnc1F (cis-trans isomerization)
O/C(=C\CCOc1ccc(Cl)cc1Cl)[N-]/N=C/c1cccnc1F (3D coordinates assigned)
O/C(=C\CCOc1ccc(Cl)cc1Cl)[N-]/N=C/c1cccnc1F (optimized conformer: 47.25194010948697 kcal/mol)

>  <smiles>  (68) 
O=C(CCCOc1ccc(Cl)cc1Cl)NN=Cc1cccnc1F

>  <score_type>  (68) 
oracle

>  <origin>  (68) 
autodockgpu

>  <m_score__min__energy>  (68) 
-6.4299999999999997

>  <m_primary>  (68) 
energy

>  <meeko>  (68) 
{"free_energy": -6.09, "intermolecular_energy": -9.07, "internal_energy": -0.44, "cluster_size": 7, "cluster_id": 1, "rank_in_cluster": 4}

>  <energy>  (68) 
-6.39

>  <cluster_rmsd>  (68) 
0.0

>  <rmsd>  (68) 
272.52

>  <cluster>  (68) 
2

$$$$
QFPZKQQOUZJSQV-ULFODFFFNA-N
     RDKit          3D

 37 38  0  0  0  0  0  0  0  0999 V2000
  140.7440   75.2520  221.4810 H   0  0  0  0  0  0  0  0  0  0  0  0
  140.9520   74.3960  221.9800 O   0  0  0  0  0  0  0  0  0  0  0  0
  140.0670   73.3200  222.0690 C   0  0  0  0  0  0  0  0  0  0  0  0
  140.4970   72.1610  222.8020 N   0  0  0  0  0  0  0  0  0  0  0  0
  139.6990   71.4310  223.7030 N   0  0  0  0  0  0  0  0  0  0  0  0
  140.0380   71.2180  224.9390 C   0  0  0  0  0  0  0  0  0  0  0  0
  140.2623   72.0729  225.5939 H   0  0  0  0  0  0  0  0  0  0  0  0
  140.1270   69.8450  225.4790 C   0  0  0  0  0  0  0  0  0  0  0  0
  139.1020   68.9170  225.2240 C   0  0  0  0  0  0  0  0  0  0  0  0
  138.0170   69.2650  224.4870 F   0  0  0  0  0  0  0  0  0  0  0  0
  139.1860   67.6520  225.7170 N   0  0  0  0  0  0  0  0  0  0  0  0
  140.2470   67.2410  226.4600 C   0  0  0  0  0  0  0  0  0  0  0  0
  140.2835   66.2103  226.8426 H   0  0  0  0  0  0  0  0  0  0  0  0
  141.2900   68.1250  226.7380 C   0  0  0  0  0  0  0  0  0  0  0  0
  142.1513   67.7971  227.3385 H   0  0  0  0  0  0  0  0  0  0  0  0
  141.2290   69.4300  226.2460 C   0  0  0  0  0  0  0  0  0  0  0  0
  142.0457   70.1353  226.4592 H   0  0  0  0  0  0  0  0  0  0  0  0
  138.8720   73.3370  221.4530 C   0  0  0  0  0  0  0  0  0  0  0  0
  138.5254   72.4194  220.9552 H   0  0  0  0  0  0  0  0  0  0  0  0
  137.9860   74.5540  221.4130 C   0  0  0  0  0  0  0  0  0  0  0  0
  137.8834   74.8859  220.3693 H   0  0  0  0  0  0  0  0  0  0  0  0
  137.0090   74.2804  221.8381 H   0  0  0  0  0  0  0  0  0  0  0  0
  138.5630   75.7040  222.2450 C   0  0  0  0  0  0  0  0  0  0  0  0
  137.7372   76.3263  222.6201 H   0  0  0  0  0  0  0  0  0  0  0  0
  139.1355   75.2781  223.0822 H   0  0  0  0  0  0  0  0  0  0  0  0
  139.4390   76.5140  221.4600 O   0  0  0  0  0  0  0  0  0  0  0  0
  140.1650   77.5750  222.0090 C   0  0  0  0  0  0  0  0  0  0  0  0
  139.6240   78.2920  223.0820 C   0  0  0  0  0  0  0  0  0  0  0  0
  138.6368   78.0169  223.4817 H   0  0  0  0  0  0  0  0  0  0  0  0
  140.3310   79.3550  223.6480 C   0  0  0  0  0  0  0  0  0  0  0  0
  139.9031   79.9102  224.4957 H   0  0  0  0  0  0  0  0  0  0  0  0
  141.5820   79.7140  223.1380 C   0  0  0  0  0  0  0  0  0  0  0  0
  142.4690   81.0510  223.8470 Cl  0  0  0  0  0  0  0  0  0  0  0  0
  142.1230   79.0120  222.0550 C   0  0  0  0  0  0  0  0  0  0  0  0
  143.1047   79.2992  221.6504 H   0  0  0  0  0  0  0  0  0  0  0  0
  141.4180   77.9450  221.4850 C   0  0  0  0  0  0  0  0  0  0  0  0
  142.0970   77.1210  220.0890 Cl  0  0  0  0  0  0  0  0  0  0  0  0
  1  2  1  0
  2  3  1  0
  3  4  1  0
  4  5  1  0
  5  6  2  0
  6  7  1  0
  6  8  1  0
  8  9  2  0
  9 10  1  0
  9 11  1  0
 11 12  2  0
 12 13  1  0
 12 14  1  0
 14 15  1  0
 14 16  2  0
 16 17  1  0
  3 18  2  0
 18 19  1  0
 18 20  1  0
 20 21  1  0
 20 22  1  0
 20 23  1  0
 23 24  1  0
 23 25  1  0
 23 26  1  0
 26 27  1  0
 27 28  2  0
 28 29  1  0
 28 30  1  0
 30 31  1  0
 30 32  2  0
 32 33  1  0
 32 34  1  0
 34 35  1  0
 34 36  2  0
 36 37  1  0
 16  8  1  0
 36 27  1  0
M  CHG  1   4  -1
M  END
>  <UniqueID>  (69) 
16

>  <SMILES>  (69) 
O/C(=C\CCOc1ccc(Cl)cc1Cl)[N-]/N=C/c1cccnc1F

>  <Energy>  (69) 
47.25194010948697

>  <Genealogy>  (69) 
O=C(CCCOc1ccc(Cl)cc1Cl)[N-]N=Cc1cccnc1F (protonated)
OC(=CCCOc1ccc(Cl)cc1Cl)[N-]N=Cc1cccnc1F (tautomer)
O/C(=C\CCOc1ccc(Cl)cc1Cl)[N-]/N=C/c1cccnc1F (cis-trans isomerization)
O/C(=C\CCOc1ccc(Cl)cc1Cl)[N-]/N=C/c1cccnc1F (3D coordinates assigned)
O/C(=C\CCOc1ccc(Cl)cc1Cl)[N-]/N=C/c1cccnc1F (optimized conformer: 47.25194010948697 kcal/mol)

>  <smiles>  (69) 
O=C(CCCOc1ccc(Cl)cc1Cl)NN=Cc1cccnc1F

>  <score_type>  (69) 
oracle

>  <origin>  (69) 
autodockgpu

>  <m_score__min__energy>  (69) 
-6.4299999999999997

>  <m_primary>  (69) 
energy

>  <meeko>  (69) 
{"free_energy": -5.8, "intermolecular_energy": -8.78, "internal_energy": -1.09, "cluster_size": 7, "cluster_id": 1, "rank_in_cluster": 5}

>  <energy>  (69) 
-5.84

>  <cluster_rmsd>  (69) 
1.28

>  <rmsd>  (69) 
272.31

>  <cluster>  (69) 
2

$$$$
QFPZKQQOUZJSQV-ULFODFFFNA-N
     RDKit          3D

 37 38  0  0  0  0  0  0  0  0999 V2000
  139.5030   73.6030  223.0840 H   0  0  0  0  0  0  0  0  0  0  0  0
  139.9240   74.1560  222.3470 O   0  0  0  0  0  0  0  0  0  0  0  0
  142.9310   74.9310  219.0230 C   0  0  0  0  0  0  0  0  0  0  0  0
  140.9120   74.3470  220.1410 N   0  0  0  0  0  0  0  0  0  0  0  0
  141.9600   75.2340  219.8310 N   0  0  0  0  0  0  0  0  0  0  0  0
  141.4170   72.4580  221.5620 C   0  0  0  0  0  0  0  0  0  0  0  0
  142.5161   72.4495  221.5177 H   0  0  0  0  0  0  0  0  0  0  0  0
  144.0920   74.1450  219.4890 C   0  0  0  0  0  0  0  0  0  0  0  0
  144.8550   73.3980  218.5720 C   0  0  0  0  0  0  0  0  0  0  0  0
  144.5370   73.3840  217.2540 F   0  0  0  0  0  0  0  0  0  0  0  0
  145.9270   72.6790  219.0010 N   0  0  0  0  0  0  0  0  0  0  0  0
  146.2980   72.6540  220.3080 C   0  0  0  0  0  0  0  0  0  0  0  0
  147.1704   72.0612  220.6202 H   0  0  0  0  0  0  0  0  0  0  0  0
  145.5740   73.3790  221.2540 C   0  0  0  0  0  0  0  0  0  0  0  0
  145.8710   73.3626  222.3130 H   0  0  0  0  0  0  0  0  0  0  0  0
  144.4680   74.1260  220.8430 C   0  0  0  0  0  0  0  0  0  0  0  0
  143.8896   74.7011  221.5810 H   0  0  0  0  0  0  0  0  0  0  0  0
  140.7770   73.6260  221.3770 C   0  0  0  0  0  0  0  0  0  0  0  0
  142.8882   75.2648  217.9757 H   0  0  0  0  0  0  0  0  0  0  0  0
  140.6990   71.1610  221.8270 C   0  0  0  0  0  0  0  0  0  0  0  0
  140.7414   70.5387  220.9209 H   0  0  0  0  0  0  0  0  0  0  0  0
  141.1949   70.6616  222.6724 H   0  0  0  0  0  0  0  0  0  0  0  0
  139.2310   71.3910  222.2030 C   0  0  0  0  0  0  0  0  0  0  0  0
  138.7993   72.1417  221.5247 H   0  0  0  0  0  0  0  0  0  0  0  0
  138.6926   70.4359  222.1137 H   0  0  0  0  0  0  0  0  0  0  0  0
  139.1140   71.8550  223.5480 O   0  0  0  0  0  0  0  0  0  0  0  0
  139.5220   71.0860  224.6410 C   0  0  0  0  0  0  0  0  0  0  0  0
  140.6510   71.4780  225.3690 C   0  0  0  0  0  0  0  0  0  0  0  0
  141.2046   72.3819  225.0749 H   0  0  0  0  0  0  0  0  0  0  0  0
  141.0790   70.7280  226.4670 C   0  0  0  0  0  0  0  0  0  0  0  0
  141.9630   71.0460  227.0392 H   0  0  0  0  0  0  0  0  0  0  0  0
  140.3840   69.5730  226.8390 C   0  0  0  0  0  0  0  0  0  0  0  0
  140.9230   68.6290  228.2150 Cl  0  0  0  0  0  0  0  0  0  0  0  0
  139.2640   69.1660  226.1060 C   0  0  0  0  0  0  0  0  0  0  0  0
  138.7215   68.2538  226.3953 H   0  0  0  0  0  0  0  0  0  0  0  0
  138.8310   69.9160  225.0050 C   0  0  0  0  0  0  0  0  0  0  0  0
  137.4560   69.3460  224.0710 Cl  0  0  0  0  0  0  0  0  0  0  0  0
  1  2  1  0
  2  3  1  0
  3  4  1  0
  4  5  1  0
  5  6  2  0
  6  7  1  0
  6  8  1  0
  8  9  2  0
  9 10  1  0
  9 11  1  0
 11 12  2  0
 12 13  1  0
 12 14  1  0
 14 15  1  0
 14 16  2  0
 16 17  1  0
  3 18  2  0
 18 19  1  0
 18 20  1  0
 20 21  1  0
 20 22  1  0
 20 23  1  0
 23 24  1  0
 23 25  1  0
 23 26  1  0
 26 27  1  0
 27 28  2  0
 28 29  1  0
 28 30  1  0
 30 31  1  0
 30 32  2  0
 32 33  1  0
 32 34  1  0
 34 35  1  0
 34 36  2  0
 36 37  1  0
 16  8  1  0
 36 27  1  0
M  CHG  1   4  -1
M  END
>  <UniqueID>  (70) 
16

>  <SMILES>  (70) 
O/C(=C\CCOc1ccc(Cl)cc1Cl)[N-]/N=C/c1cccnc1F

>  <Energy>  (70) 
47.25194010948697

>  <Genealogy>  (70) 
O=C(CCCOc1ccc(Cl)cc1Cl)[N-]N=Cc1cccnc1F (protonated)
OC(=CCCOc1ccc(Cl)cc1Cl)[N-]N=Cc1cccnc1F (tautomer)
O/C(=C\CCOc1ccc(Cl)cc1Cl)[N-]/N=C/c1cccnc1F (cis-trans isomerization)
O/C(=C\CCOc1ccc(Cl)cc1Cl)[N-]/N=C/c1cccnc1F (3D coordinates assigned)
O/C(=C\CCOc1ccc(Cl)cc1Cl)[N-]/N=C/c1cccnc1F (optimized conformer: 47.25194010948697 kcal/mol)

>  <smiles>  (70) 
O=C(CCCOc1ccc(Cl)cc1Cl)NN=Cc1cccnc1F

>  <score_type>  (70) 
oracle

>  <origin>  (70) 
autodockgpu

>  <m_score__min__energy>  (70) 
-6.4299999999999997

>  <m_primary>  (70) 
energy

>  <meeko>  (70) 
{"free_energy": -5.87, "intermolecular_energy": -8.86, "internal_energy": -1.43, "cluster_size": 3, "cluster_id": 6, "rank_in_cluster": 1}

>  <energy>  (70) 
-5.66

>  <cluster_rmsd>  (70) 
1.32

>  <rmsd>  (70) 
272.22

>  <cluster>  (70) 
2

$$$$
QFPZKQQOUZJSQV-ULFODFFFNA-N
     RDKit          3D

 37 38  0  0  0  0  0  0  0  0999 V2000
  141.8560   76.6340  222.5040 H   0  0  0  0  0  0  0  0  0  0  0  0
  141.0630   76.0120  222.6090 O   0  0  0  0  0  0  0  0  0  0  0  0
  140.5830   75.1940  221.5850 C   0  0  0  0  0  0  0  0  0  0  0  0
  139.9540   73.9570  221.9580 N   0  0  0  0  0  0  0  0  0  0  0  0
  140.4980   73.0050  222.8410 N   0  0  0  0  0  0  0  0  0  0  0  0
  139.8940   71.8980  223.1520 C   0  0  0  0  0  0  0  0  0  0  0  0
  139.2725   71.3908  222.3993 H   0  0  0  0  0  0  0  0  0  0  0  0
  140.0280   71.3090  224.5000 C   0  0  0  0  0  0  0  0  0  0  0  0
  139.2990   70.1560  224.8450 C   0  0  0  0  0  0  0  0  0  0  0  0
  138.4620   69.5720  223.9520 F   0  0  0  0  0  0  0  0  0  0  0  0
  139.4280   69.6120  226.0840 N   0  0  0  0  0  0  0  0  0  0  0  0
  140.2510   70.1490  227.0230 C   0  0  0  0  0  0  0  0  0  0  0  0
  140.3297   69.6832  228.0164 H   0  0  0  0  0  0  0  0  0  0  0  0
  140.9960   71.2910  226.7270 C   0  0  0  0  0  0  0  0  0  0  0  0
  141.6655   71.7289  227.4820 H   0  0  0  0  0  0  0  0  0  0  0  0
  140.8830   71.8720  225.4630 C   0  0  0  0  0  0  0  0  0  0  0  0
  141.4649   72.7733  225.2198 H   0  0  0  0  0  0  0  0  0  0  0  0
  140.7420   75.5180  220.2890 C   0  0  0  0  0  0  0  0  0  0  0  0
  140.0078   75.1429  219.5608 H   0  0  0  0  0  0  0  0  0  0  0  0
  141.8780   76.3700  219.7890 C   0  0  0  0  0  0  0  0  0  0  0  0
  142.7874   76.1187  220.3545 H   0  0  0  0  0  0  0  0  0  0  0  0
  142.0114   76.1672  218.7161 H   0  0  0  0  0  0  0  0  0  0  0  0
  141.5850   77.8650  219.9590 C   0  0  0  0  0  0  0  0  0  0  0  0
  142.2159   78.4365  219.2623 H   0  0  0  0  0  0  0  0  0  0  0  0
  140.5199   78.0393  219.7467 H   0  0  0  0  0  0  0  0  0  0  0  0
  141.8580   78.2920  221.2930 O   0  0  0  0  0  0  0  0  0  0  0  0
  140.8930   78.9140  222.0900 C   0  0  0  0  0  0  0  0  0  0  0  0
  139.5490   78.5490  221.9470 C   0  0  0  0  0  0  0  0  0  0  0  0
  139.2658   77.7816  221.2116 H   0  0  0  0  0  0  0  0  0  0  0  0
  138.5660   79.1540  222.7330 C   0  0  0  0  0  0  0  0  0  0  0  0
  137.5128   78.8571  222.6206 H   0  0  0  0  0  0  0  0  0  0  0  0
  138.9190   80.1360  223.6620 C   0  0  0  0  0  0  0  0  0  0  0  0
  137.6840   80.8980  224.6470 Cl  0  0  0  0  0  0  0  0  0  0  0  0
  140.2580   80.5170  223.8000 C   0  0  0  0  0  0  0  0  0  0  0  0
  140.5346   81.2939  224.5279 H   0  0  0  0  0  0  0  0  0  0  0  0
  141.2470   79.9130  223.0150 C   0  0  0  0  0  0  0  0  0  0  0  0
  142.9120   80.4560  223.1720 Cl  0  0  0  0  0  0  0  0  0  0  0  0
  1  2  1  0
  2  3  1  0
  3  4  1  0
  4  5  1  0
  5  6  2  0
  6  7  1  0
  6  8  1  0
  8  9  2  0
  9 10  1  0
  9 11  1  0
 11 12  2  0
 12 13  1  0
 12 14  1  0
 14 15  1  0
 14 16  2  0
 16 17  1  0
  3 18  2  0
 18 19  1  0
 18 20  1  0
 20 21  1  0
 20 22  1  0
 20 23  1  0
 23 24  1  0
 23 25  1  0
 23 26  1  0
 26 27  1  0
 27 28  2  0
 28 29  1  0
 28 30  1  0
 30 31  1  0
 30 32  2  0
 32 33  1  0
 32 34  1  0
 34 35  1  0
 34 36  2  0
 36 37  1  0
 16  8  1  0
 36 27  1  0
M  CHG  1   4  -1
M  END
>  <UniqueID>  (71) 
16

>  <SMILES>  (71) 
O/C(=C\CCOc1ccc(Cl)cc1Cl)[N-]/N=C/c1cccnc1F

>  <Energy>  (71) 
47.25194010948697

>  <Genealogy>  (71) 
O=C(CCCOc1ccc(Cl)cc1Cl)[N-]N=Cc1cccnc1F (protonated)
OC(=CCCOc1ccc(Cl)cc1Cl)[N-]N=Cc1cccnc1F (tautomer)
O/C(=C\CCOc1ccc(Cl)cc1Cl)[N-]/N=C/c1cccnc1F (cis-trans isomerization)
O/C(=C\CCOc1ccc(Cl)cc1Cl)[N-]/N=C/c1cccnc1F (3D coordinates assigned)
O/C(=C\CCOc1ccc(Cl)cc1Cl)[N-]/N=C/c1cccnc1F (optimized conformer: 47.25194010948697 kcal/mol)

>  <smiles>  (71) 
O=C(CCCOc1ccc(Cl)cc1Cl)NN=Cc1cccnc1F

>  <score_type>  (71) 
oracle

>  <origin>  (71) 
autodockgpu

>  <m_score__min__energy>  (71) 
-6.4299999999999997

>  <m_primary>  (71) 
energy

>  <meeko>  (71) 
{"free_energy": -5.82, "intermolecular_energy": -8.81, "internal_energy": -1.21, "cluster_size": 2, "cluster_id": 7, "rank_in_cluster": 1}

>  <energy>  (71) 
-6.01

>  <cluster_rmsd>  (71) 
0.0

>  <rmsd>  (71) 
270.79

>  <cluster>  (71) 
3

$$$$
QFPZKQQOUZJSQV-ULFODFFFNA-N
     RDKit          3D

 37 38  0  0  0  0  0  0  0  0999 V2000
  142.1110   75.7810  221.9830 H   0  0  0  0  0  0  0  0  0  0  0  0
  141.8190   74.8870  221.6050 O   0  0  0  0  0  0  0  0  0  0  0  0
  140.4840   74.4950  221.4970 C   0  0  0  0  0  0  0  0  0  0  0  0
  139.9610   73.6190  222.5080 N   0  0  0  0  0  0  0  0  0  0  0  0
  140.6700   72.5620  223.1100 N   0  0  0  0  0  0  0  0  0  0  0  0
  140.0950   71.4920  223.5690 C   0  0  0  0  0  0  0  0  0  0  0  0
  139.5184   70.8517  222.8853 H   0  0  0  0  0  0  0  0  0  0  0  0
  140.2030   71.1210  224.9950 C   0  0  0  0  0  0  0  0  0  0  0  0
  139.5140   69.9980  225.4890 C   0  0  0  0  0  0  0  0  0  0  0  0
  138.7390   69.2440  224.6700 F   0  0  0  0  0  0  0  0  0  0  0  0
  139.6180   69.6540  226.8000 N   0  0  0  0  0  0  0  0  0  0  0  0
  140.3790   70.3670  227.6720 C   0  0  0  0  0  0  0  0  0  0  0  0
  140.4398   70.0613  228.7269 H   0  0  0  0  0  0  0  0  0  0  0  0
  141.0830   71.4870  227.2280 C   0  0  0  0  0  0  0  0  0  0  0  0
  141.7025   72.0666  227.9282 H   0  0  0  0  0  0  0  0  0  0  0  0
  140.9940   71.8650  225.8880 C   0  0  0  0  0  0  0  0  0  0  0  0
  141.5441   72.7474  225.5292 H   0  0  0  0  0  0  0  0  0  0  0  0
  139.7180   74.8790  220.4600 C   0  0  0  0  0  0  0  0  0  0  0  0
  138.6801   75.1839  220.6594 H   0  0  0  0  0  0  0  0  0  0  0  0
  140.2150   74.9110  219.0390 C   0  0  0  0  0  0  0  0  0  0  0  0
  139.4575   75.3984  218.4076 H   0  0  0  0  0  0  0  0  0  0  0  0
  141.1629   75.4688  219.0203 H   0  0  0  0  0  0  0  0  0  0  0  0
  140.4800   73.5020  218.4980 C   0  0  0  0  0  0  0  0  0  0  0  0
  140.2577   72.7668  219.2854 H   0  0  0  0  0  0  0  0  0  0  0  0
  139.8353   73.3361  217.6223 H   0  0  0  0  0  0  0  0  0  0  0  0
  141.8420   73.3560  218.0940 O   0  0  0  0  0  0  0  0  0  0  0  0
  142.8950   73.3420  219.0120 C   0  0  0  0  0  0  0  0  0  0  0  0
  143.6870   74.4860  219.1630 C   0  0  0  0  0  0  0  0  0  0  0  0
  143.4752   75.3814  218.5602 H   0  0  0  0  0  0  0  0  0  0  0  0
  144.7450   74.4970  220.0750 C   0  0  0  0  0  0  0  0  0  0  0  0
  145.3593   75.4018  220.1930 H   0  0  0  0  0  0  0  0  0  0  0  0
  145.0240   73.3590  220.8380 C   0  0  0  0  0  0  0  0  0  0  0  0
  146.3540   73.3720  221.9810 Cl  0  0  0  0  0  0  0  0  0  0  0  0
  144.2460   72.2060  220.6810 C   0  0  0  0  0  0  0  0  0  0  0  0
  144.4691   71.3088  221.2770 H   0  0  0  0  0  0  0  0  0  0  0  0
  143.1850   72.1910  219.7680 C   0  0  0  0  0  0  0  0  0  0  0  0
  142.2640   70.7090  219.5540 Cl  0  0  0  0  0  0  0  0  0  0  0  0
  1  2  1  0
  2  3  1  0
  3  4  1  0
  4  5  1  0
  5  6  2  0
  6  7  1  0
  6  8  1  0
  8  9  2  0
  9 10  1  0
  9 11  1  0
 11 12  2  0
 12 13  1  0
 12 14  1  0
 14 15  1  0
 14 16  2  0
 16 17  1  0
  3 18  2  0
 18 19  1  0
 18 20  1  0
 20 21  1  0
 20 22  1  0
 20 23  1  0
 23 24  1  0
 23 25  1  0
 23 26  1  0
 26 27  1  0
 27 28  2  0
 28 29  1  0
 28 30  1  0
 30 31  1  0
 30 32  2  0
 32 33  1  0
 32 34  1  0
 34 35  1  0
 34 36  2  0
 36 37  1  0
 16  8  1  0
 36 27  1  0
M  CHG  1   4  -1
M  END
>  <UniqueID>  (72) 
16

>  <SMILES>  (72) 
O/C(=C\CCOc1ccc(Cl)cc1Cl)[N-]/N=C/c1cccnc1F

>  <Energy>  (72) 
47.25194010948697

>  <Genealogy>  (72) 
O=C(CCCOc1ccc(Cl)cc1Cl)[N-]N=Cc1cccnc1F (protonated)
OC(=CCCOc1ccc(Cl)cc1Cl)[N-]N=Cc1cccnc1F (tautomer)
O/C(=C\CCOc1ccc(Cl)cc1Cl)[N-]/N=C/c1cccnc1F (cis-trans isomerization)
O/C(=C\CCOc1ccc(Cl)cc1Cl)[N-]/N=C/c1cccnc1F (3D coordinates assigned)
O/C(=C\CCOc1ccc(Cl)cc1Cl)[N-]/N=C/c1cccnc1F (optimized conformer: 47.25194010948697 kcal/mol)

>  <smiles>  (72) 
O=C(CCCOc1ccc(Cl)cc1Cl)NN=Cc1cccnc1F

>  <score_type>  (72) 
oracle

>  <origin>  (72) 
autodockgpu

>  <m_score__min__energy>  (72) 
-6.4299999999999997

>  <m_primary>  (72) 
energy

>  <meeko>  (72) 
{"free_energy": -5.06, "intermolecular_energy": -8.05, "internal_energy": -1.14, "cluster_size": 1, "cluster_id": 8, "rank_in_cluster": 1}

>  <energy>  (72) 
-5.8

>  <cluster_rmsd>  (72) 
1.53

>  <rmsd>  (72) 
270.95

>  <cluster>  (72) 
3

$$$$
QFPZKQQOUZJSQV-ULFODFFFNA-N
     RDKit          3D

 37 38  0  0  0  0  0  0  0  0999 V2000
  139.1730   73.6480  223.0840 H   0  0  0  0  0  0  0  0  0  0  0  0
  139.3680   74.2870  222.3220 O   0  0  0  0  0  0  0  0  0  0  0  0
  140.6080   74.3730  221.6860 C   0  0  0  0  0  0  0  0  0  0  0  0
  141.3020   75.6300  221.7430 N   0  0  0  0  0  0  0  0  0  0  0  0
  141.0570   76.6490  222.6830 N   0  0  0  0  0  0  0  0  0  0  0  0
  140.5510   77.8020  222.3640 C   0  0  0  0  0  0  0  0  0  0  0  0
  139.6671   77.8432  221.7106 H   0  0  0  0  0  0  0  0  0  0  0  0
  141.1440   79.0590  222.8650 C   0  0  0  0  0  0  0  0  0  0  0  0
  140.3180   80.0800  223.3680 C   0  0  0  0  0  0  0  0  0  0  0  0
  138.9700   79.9320  223.3980 F   0  0  0  0  0  0  0  0  0  0  0  0
  140.8650   81.2350  223.8340 N   0  0  0  0  0  0  0  0  0  0  0  0
  142.2080   81.4450  223.8330 C   0  0  0  0  0  0  0  0  0  0  0  0
  142.6169   82.3916  224.2161 H   0  0  0  0  0  0  0  0  0  0  0  0
  143.0680   80.4600  223.3460 C   0  0  0  0  0  0  0  0  0  0  0  0
  144.1557   80.6239  223.3444 H   0  0  0  0  0  0  0  0  0  0  0  0
  142.5350   79.2650  222.8610 C   0  0  0  0  0  0  0  0  0  0  0  0
  143.2045   78.4824  222.4747 H   0  0  0  0  0  0  0  0  0  0  0  0
  141.1230   73.3360  221.0010 C   0  0  0  0  0  0  0  0  0  0  0  0
  141.4062   73.4912  219.9495 H   0  0  0  0  0  0  0  0  0  0  0  0
  141.3300   71.9730  221.6060 C   0  0  0  0  0  0  0  0  0  0  0  0
  141.7467   71.3027  220.8398 H   0  0  0  0  0  0  0  0  0  0  0  0
  142.0194   72.0773  222.4568 H   0  0  0  0  0  0  0  0  0  0  0  0
  140.0180   71.3770  222.1260 C   0  0  0  0  0  0  0  0  0  0  0  0
  139.2016   71.6541  221.4428 H   0  0  0  0  0  0  0  0  0  0  0  0
  140.1257   70.2834  222.1752 H   0  0  0  0  0  0  0  0  0  0  0  0
  139.7170   71.8630  223.4340 O   0  0  0  0  0  0  0  0  0  0  0  0
  139.9180   71.0930  224.5820 C   0  0  0  0  0  0  0  0  0  0  0  0
  140.8920   71.4860  225.5070 C   0  0  0  0  0  0  0  0  0  0  0  0
  141.4874   72.3924  225.3229 H   0  0  0  0  0  0  0  0  0  0  0  0
  141.1120   70.7330  226.6630 C   0  0  0  0  0  0  0  0  0  0  0  0
  141.8741   71.0514  227.3895 H   0  0  0  0  0  0  0  0  0  0  0  0
  140.3650   69.5760  226.8970 C   0  0  0  0  0  0  0  0  0  0  0  0
  140.6430   68.6290  228.3470 Cl  0  0  0  0  0  0  0  0  0  0  0  0
  139.4000   69.1670  225.9690 C   0  0  0  0  0  0  0  0  0  0  0  0
  138.8162   68.2527  226.1514 H   0  0  0  0  0  0  0  0  0  0  0  0
  139.1760   69.9190  224.8090 C   0  0  0  0  0  0  0  0  0  0  0  0
  137.9990   69.3480  223.6350 Cl  0  0  0  0  0  0  0  0  0  0  0  0
  1  2  1  0
  2  3  1  0
  3  4  1  0
  4  5  1  0
  5  6  2  0
  6  7  1  0
  6  8  1  0
  8  9  2  0
  9 10  1  0
  9 11  1  0
 11 12  2  0
 12 13  1  0
 12 14  1  0
 14 15  1  0
 14 16  2  0
 16 17  1  0
  3 18  2  0
 18 19  1  0
 18 20  1  0
 20 21  1  0
 20 22  1  0
 20 23  1  0
 23 24  1  0
 23 25  1  0
 23 26  1  0
 26 27  1  0
 27 28  2  0
 28 29  1  0
 28 30  1  0
 30 31  1  0
 30 32  2  0
 32 33  1  0
 32 34  1  0
 34 35  1  0
 34 36  2  0
 36 37  1  0
 16  8  1  0
 36 27  1  0
M  CHG  1   4  -1
M  END
>  <UniqueID>  (73) 
16

>  <SMILES>  (73) 
O/C(=C\CCOc1ccc(Cl)cc1Cl)[N-]/N=C/c1cccnc1F

>  <Energy>  (73) 
47.25194010948697

>  <Genealogy>  (73) 
O=C(CCCOc1ccc(Cl)cc1Cl)[N-]N=Cc1cccnc1F (protonated)
OC(=CCCOc1ccc(Cl)cc1Cl)[N-]N=Cc1cccnc1F (tautomer)
O/C(=C\CCOc1ccc(Cl)cc1Cl)[N-]/N=C/c1cccnc1F (cis-trans isomerization)
O/C(=C\CCOc1ccc(Cl)cc1Cl)[N-]/N=C/c1cccnc1F (3D coordinates assigned)
O/C(=C\CCOc1ccc(Cl)cc1Cl)[N-]/N=C/c1cccnc1F (optimized conformer: 47.25194010948697 kcal/mol)

>  <smiles>  (73) 
O=C(CCCOc1ccc(Cl)cc1Cl)NN=Cc1cccnc1F

>  <score_type>  (73) 
oracle

>  <origin>  (73) 
autodockgpu

>  <m_score__min__energy>  (73) 
-6.4299999999999997

>  <m_primary>  (73) 
energy

>  <meeko>  (73) 
{"free_energy": -6.39, "intermolecular_energy": -9.37, "internal_energy": -1.01, "cluster_size": 3, "cluster_id": 2, "rank_in_cluster": 1}

>  <energy>  (73) 
-5.99

>  <cluster_rmsd>  (73) 
0.0

>  <rmsd>  (73) 
271.85

>  <cluster>  (73) 
4

$$$$
QFPZKQQOUZJSQV-ULFODFFFNA-N
     RDKit          3D

 37 38  0  0  0  0  0  0  0  0999 V2000
  138.8160   74.5520  223.0570 H   0  0  0  0  0  0  0  0  0  0  0  0
  139.4440   74.9070  222.3460 O   0  0  0  0  0  0  0  0  0  0  0  0
  140.5810   74.2230  221.9110 C   0  0  0  0  0  0  0  0  0  0  0  0
  140.7520   72.8650  222.3480 N   0  0  0  0  0  0  0  0  0  0  0  0
  140.0530   72.2620  223.4110 N   0  0  0  0  0  0  0  0  0  0  0  0
  140.4480   71.1690  223.9910 C   0  0  0  0  0  0  0  0  0  0  0  0
  140.8198   70.3349  223.3778 H   0  0  0  0  0  0  0  0  0  0  0  0
  140.4060   71.0280  225.4610 C   0  0  0  0  0  0  0  0  0  0  0  0
  139.6840   69.9760  226.0510 C   0  0  0  0  0  0  0  0  0  0  0  0
  139.0130   69.0790  225.2860 F   0  0  0  0  0  0  0  0  0  0  0  0
  139.6500   69.8440  227.4040 N   0  0  0  0  0  0  0  0  0  0  0  0
  140.3020   70.7070  228.2270 C   0  0  0  0  0  0  0  0  0  0  0  0
  140.2528   70.5709  229.3174 H   0  0  0  0  0  0  0  0  0  0  0  0
  141.0340   71.7660  227.6880 C   0  0  0  0  0  0  0  0  0  0  0  0
  141.5649   72.4671  228.3488 H   0  0  0  0  0  0  0  0  0  0  0  0
  141.0860   71.9270  226.3020 C   0  0  0  0  0  0  0  0  0  0  0  0
  141.6599   72.7586  225.8671 H   0  0  0  0  0  0  0  0  0  0  0  0
  141.5150   74.8200  221.1480 C   0  0  0  0  0  0  0  0  0  0  0  0
  142.5493   74.8599  221.5204 H   0  0  0  0  0  0  0  0  0  0  0  0
  141.2100   75.4360  219.8080 C   0  0  0  0  0  0  0  0  0  0  0  0
  142.0952   75.9886  219.4602 H   0  0  0  0  0  0  0  0  0  0  0  0
  140.9506   74.6262  219.1102 H   0  0  0  0  0  0  0  0  0  0  0  0
  140.0210   76.4000  219.8830 C   0  0  0  0  0  0  0  0  0  0  0  0
  139.3039   76.1495  219.0873 H   0  0  0  0  0  0  0  0  0  0  0  0
  139.5497   76.2993  220.8718 H   0  0  0  0  0  0  0  0  0  0  0  0
  140.4480   77.7520  219.7180 O   0  0  0  0  0  0  0  0  0  0  0  0
  141.0230   78.4860  220.7590 C   0  0  0  0  0  0  0  0  0  0  0  0
  140.9140   78.0120  222.0720 C   0  0  0  0  0  0  0  0  0  0  0  0
  140.3778   77.0725  222.2716 H   0  0  0  0  0  0  0  0  0  0  0  0
  141.4820   78.7250  223.1290 C   0  0  0  0  0  0  0  0  0  0  0  0
  141.3992   78.3423  224.1569 H   0  0  0  0  0  0  0  0  0  0  0  0
  142.1560   79.9250  222.8830 C   0  0  0  0  0  0  0  0  0  0  0  0
  142.8660   80.8230  224.2110 Cl  0  0  0  0  0  0  0  0  0  0  0  0
  142.2560   80.4130  221.5750 C   0  0  0  0  0  0  0  0  0  0  0  0
  142.7822   81.3594  221.3817 H   0  0  0  0  0  0  0  0  0  0  0  0
  141.6880   79.7000  220.5110 C   0  0  0  0  0  0  0  0  0  0  0  0
  141.7810   80.3700  218.8890 Cl  0  0  0  0  0  0  0  0  0  0  0  0
  1  2  1  0
  2  3  1  0
  3  4  1  0
  4  5  1  0
  5  6  2  0
  6  7  1  0
  6  8  1  0
  8  9  2  0
  9 10  1  0
  9 11  1  0
 11 12  2  0
 12 13  1  0
 12 14  1  0
 14 15  1  0
 14 16  2  0
 16 17  1  0
  3 18  2  0
 18 19  1  0
 18 20  1  0
 20 21  1  0
 20 22  1  0
 20 23  1  0
 23 24  1  0
 23 25  1  0
 23 26  1  0
 26 27  1  0
 27 28  2  0
 28 29  1  0
 28 30  1  0
 30 31  1  0
 30 32  2  0
 32 33  1  0
 32 34  1  0
 34 35  1  0
 34 36  2  0
 36 37  1  0
 16  8  1  0
 36 27  1  0
M  CHG  1   4  -1
M  END
>  <UniqueID>  (74) 
16

>  <SMILES>  (74) 
O/C(=C\CCOc1ccc(Cl)cc1Cl)[N-]/N=C/c1cccnc1F

>  <Energy>  (74) 
47.25194010948697

>  <Genealogy>  (74) 
O=C(CCCOc1ccc(Cl)cc1Cl)[N-]N=Cc1cccnc1F (protonated)
OC(=CCCOc1ccc(Cl)cc1Cl)[N-]N=Cc1cccnc1F (tautomer)
O/C(=C\CCOc1ccc(Cl)cc1Cl)[N-]/N=C/c1cccnc1F (cis-trans isomerization)
O/C(=C\CCOc1ccc(Cl)cc1Cl)[N-]/N=C/c1cccnc1F (3D coordinates assigned)
O/C(=C\CCOc1ccc(Cl)cc1Cl)[N-]/N=C/c1cccnc1F (optimized conformer: 47.25194010948697 kcal/mol)

>  <smiles>  (74) 
O=C(CCCOc1ccc(Cl)cc1Cl)NN=Cc1cccnc1F

>  <score_type>  (74) 
oracle

>  <origin>  (74) 
autodockgpu

>  <m_score__min__energy>  (74) 
-6.4299999999999997

>  <m_primary>  (74) 
energy

>  <meeko>  (74) 
{"free_energy": -6.35, "intermolecular_energy": -9.33, "internal_energy": -0.81, "cluster_size": 7, "cluster_id": 1, "rank_in_cluster": 2}

>  <energy>  (74) 
-5.97

>  <cluster_rmsd>  (74) 
0.0

>  <rmsd>  (74) 
272.38

>  <cluster>  (74) 
5

$$$$
QFPZKQQOUZJSQV-ULFODFFFNA-N
     RDKit          3D

 37 38  0  0  0  0  0  0  0  0999 V2000
  140.7980   75.1740  221.8070 H   0  0  0  0  0  0  0  0  0  0  0  0
  140.7130   74.2920  222.2960 O   0  0  0  0  0  0  0  0  0  0  0  0
  139.6430   73.4130  222.1220 C   0  0  0  0  0  0  0  0  0  0  0  0
  139.8250   72.0480  222.5330 N   0  0  0  0  0  0  0  0  0  0  0  0
  139.6880   71.5740  223.8510 N   0  0  0  0  0  0  0  0  0  0  0  0
  140.6800   71.4980  224.6860 C   0  0  0  0  0  0  0  0  0  0  0  0
  141.6203   72.0214  224.4581 H   0  0  0  0  0  0  0  0  0  0  0  0
  140.5660   70.7200  225.9370 C   0  0  0  0  0  0  0  0  0  0  0  0
  140.7960   71.3400  227.1790 C   0  0  0  0  0  0  0  0  0  0  0  0
  141.1290   72.6530  227.2480 F   0  0  0  0  0  0  0  0  0  0  0  0
  140.6850   70.6260  228.3300 N   0  0  0  0  0  0  0  0  0  0  0  0
  140.3520   69.3080  228.3290 C   0  0  0  0  0  0  0  0  0  0  0  0
  140.2710   68.7603  229.2795 H   0  0  0  0  0  0  0  0  0  0  0  0
  140.1130   68.6500  227.1220 C   0  0  0  0  0  0  0  0  0  0  0  0
  139.8421   67.5839  227.1149 H   0  0  0  0  0  0  0  0  0  0  0  0
  140.2210   69.3580  225.9230 C   0  0  0  0  0  0  0  0  0  0  0  0
  140.0356   68.8484  224.9659 H   0  0  0  0  0  0  0  0  0  0  0  0
  138.4930   73.8070  221.5460 C   0  0  0  0  0  0  0  0  0  0  0  0
  138.1240   73.2460  220.6747 H   0  0  0  0  0  0  0  0  0  0  0  0
  137.6870   74.9800  222.0380 C   0  0  0  0  0  0  0  0  0  0  0  0
  136.6201   74.7776  221.8627 H   0  0  0  0  0  0  0  0  0  0  0  0
  137.8933   75.1111  223.1105 H   0  0  0  0  0  0  0  0  0  0  0  0
  138.0710   76.2760  221.3170 C   0  0  0  0  0  0  0  0  0  0  0  0
  137.6661   76.2523  220.2945 H   0  0  0  0  0  0  0  0  0  0  0  0
  137.6535   77.1255  221.8774 H   0  0  0  0  0  0  0  0  0  0  0  0
  139.4900   76.4260  221.2540 O   0  0  0  0  0  0  0  0  0  0  0  0
  140.1520   77.5120  221.8340 C   0  0  0  0  0  0  0  0  0  0  0  0
  139.5320   78.2170  222.8720 C   0  0  0  0  0  0  0  0  0  0  0  0
  138.5339   77.9126  223.2200 H   0  0  0  0  0  0  0  0  0  0  0  0
  140.1730   79.3040  223.4680 C   0  0  0  0  0  0  0  0  0  0  0  0
  139.6831   79.8487  224.2886 H   0  0  0  0  0  0  0  0  0  0  0  0
  141.4370   79.7010  223.0230 C   0  0  0  0  0  0  0  0  0  0  0  0
  142.2420   81.0690  223.7700 Cl  0  0  0  0  0  0  0  0  0  0  0  0
  142.0570   79.0110  221.9750 C   0  0  0  0  0  0  0  0  0  0  0  0
  143.0496   79.3272  221.6218 H   0  0  0  0  0  0  0  0  0  0  0  0
  141.4180   77.9200  221.3750 C   0  0  0  0  0  0  0  0  0  0  0  0
  142.1970   77.1120  220.0230 Cl  0  0  0  0  0  0  0  0  0  0  0  0
  1  2  1  0
  2  3  1  0
  3  4  1  0
  4  5  1  0
  5  6  2  0
  6  7  1  0
  6  8  1  0
  8  9  2  0
  9 10  1  0
  9 11  1  0
 11 12  2  0
 12 13  1  0
 12 14  1  0
 14 15  1  0
 14 16  2  0
 16 17  1  0
  3 18  2  0
 18 19  1  0
 18 20  1  0
 20 21  1  0
 20 22  1  0
 20 23  1  0
 23 24  1  0
 23 25  1  0
 23 26  1  0
 26 27  1  0
 27 28  2  0
 28 29  1  0
 28 30  1  0
 30 31  1  0
 30 32  2  0
 32 33  1  0
 32 34  1  0
 34 35  1  0
 34 36  2  0
 36 37  1  0
 16  8  1  0
 36 27  1  0
M  CHG  1   4  -1
M  END
>  <UniqueID>  (75) 
16

>  <SMILES>  (75) 
O/C(=C\CCOc1ccc(Cl)cc1Cl)[N-]/N=C/c1cccnc1F

>  <Energy>  (75) 
47.25194010948697

>  <Genealogy>  (75) 
O=C(CCCOc1ccc(Cl)cc1Cl)[N-]N=Cc1cccnc1F (protonated)
OC(=CCCOc1ccc(Cl)cc1Cl)[N-]N=Cc1cccnc1F (tautomer)
O/C(=C\CCOc1ccc(Cl)cc1Cl)[N-]/N=C/c1cccnc1F (cis-trans isomerization)
O/C(=C\CCOc1ccc(Cl)cc1Cl)[N-]/N=C/c1cccnc1F (3D coordinates assigned)
O/C(=C\CCOc1ccc(Cl)cc1Cl)[N-]/N=C/c1cccnc1F (optimized conformer: 47.25194010948697 kcal/mol)

>  <smiles>  (75) 
O=C(CCCOc1ccc(Cl)cc1Cl)NN=Cc1cccnc1F

>  <score_type>  (75) 
oracle

>  <origin>  (75) 
autodockgpu

>  <m_score__min__energy>  (75) 
-6.4299999999999997

>  <m_primary>  (75) 
energy

>  <meeko>  (75) 
{"free_energy": -5.67, "intermolecular_energy": -8.65, "internal_energy": -1.18, "cluster_size": 7, "cluster_id": 1, "rank_in_cluster": 6}

>  <energy>  (75) 
-5.87

>  <cluster_rmsd>  (75) 
0.0

>  <rmsd>  (75) 
271.4

>  <cluster>  (75) 
6

$$$$
QFPZKQQOUZJSQV-ULFODFFFNA-N
     RDKit          3D

 37 38  0  0  0  0  0  0  0  0999 V2000
  139.0890   73.8330  222.9300 H   0  0  0  0  0  0  0  0  0  0  0  0
  139.6120   74.4870  222.3600 O   0  0  0  0  0  0  0  0  0  0  0  0
  140.5750   74.0970  221.4270 C   0  0  0  0  0  0  0  0  0  0  0  0
  140.7690   74.9360  220.2770 N   0  0  0  0  0  0  0  0  0  0  0  0
  142.0110   75.4280  219.8330 N   0  0  0  0  0  0  0  0  0  0  0  0
  142.7750   74.7830  219.0030 C   0  0  0  0  0  0  0  0  0  0  0  0
  142.5094   74.7512  217.9360 H   0  0  0  0  0  0  0  0  0  0  0  0
  143.9940   74.0920  219.4690 C   0  0  0  0  0  0  0  0  0  0  0  0
  144.8030   73.3910  218.5570 C   0  0  0  0  0  0  0  0  0  0  0  0
  144.4760   73.3330  217.2420 F   0  0  0  0  0  0  0  0  0  0  0  0
  145.9280   72.7590  218.9860 N   0  0  0  0  0  0  0  0  0  0  0  0
  146.3120   72.7810  220.2900 C   0  0  0  0  0  0  0  0  0  0  0  0
  147.2284   72.2591  220.6028 H   0  0  0  0  0  0  0  0  0  0  0  0
  145.5430   73.4660  221.2310 C   0  0  0  0  0  0  0  0  0  0  0  0
  145.8490   73.4888  222.2873 H   0  0  0  0  0  0  0  0  0  0  0  0
  144.3820   74.1220  220.8200 C   0  0  0  0  0  0  0  0  0  0  0  0
  143.7688   74.6640  221.5550 H   0  0  0  0  0  0  0  0  0  0  0  0
  141.2690   72.9530  221.5650 C   0  0  0  0  0  0  0  0  0  0  0  0
  142.2269   72.9829  222.1049 H   0  0  0  0  0  0  0  0  0  0  0  0
  140.7960   71.6330  221.0150 C   0  0  0  0  0  0  0  0  0  0  0  0
  140.4541   71.7806  219.9799 H   0  0  0  0  0  0  0  0  0  0  0  0
  141.6364   70.9245  221.0567 H   0  0  0  0  0  0  0  0  0  0  0  0
  139.6430   71.0530  221.8400 C   0  0  0  0  0  0  0  0  0  0  0  0
  138.7059   71.1607  221.2741 H   0  0  0  0  0  0  0  0  0  0  0  0
  139.8533   69.9917  222.0386 H   0  0  0  0  0  0  0  0  0  0  0  0
  139.5150   71.7330  223.0890 O   0  0  0  0  0  0  0  0  0  0  0  0
  139.7630   71.1030  224.3110 C   0  0  0  0  0  0  0  0  0  0  0  0
  140.8410   71.5300  225.0950 C   0  0  0  0  0  0  0  0  0  0  0  0
  141.4812   72.3526  224.7436 H   0  0  0  0  0  0  0  0  0  0  0  0
  141.1080   70.9170  226.3210 C   0  0  0  0  0  0  0  0  0  0  0  0
  141.9519   71.2630  226.9359 H   0  0  0  0  0  0  0  0  0  0  0  0
  140.3040   69.8640  226.7680 C   0  0  0  0  0  0  0  0  0  0  0  0
  140.6420   69.0920  228.3060 Cl  0  0  0  0  0  0  0  0  0  0  0  0
  139.2340   69.4220  225.9830 C   0  0  0  0  0  0  0  0  0  0  0  0
  138.6040   68.5909  226.3329 H   0  0  0  0  0  0  0  0  0  0  0  0
  138.9620   70.0340  224.7530 C   0  0  0  0  0  0  0  0  0  0  0  0
  137.6470   69.4160  223.7640 Cl  0  0  0  0  0  0  0  0  0  0  0  0
  1  2  1  0
  2  3  1  0
  3  4  1  0
  4  5  1  0
  5  6  2  0
  6  7  1  0
  6  8  1  0
  8  9  2  0
  9 10  1  0
  9 11  1  0
 11 12  2  0
 12 13  1  0
 12 14  1  0
 14 15  1  0
 14 16  2  0
 16 17  1  0
  3 18  2  0
 18 19  1  0
 18 20  1  0
 20 21  1  0
 20 22  1  0
 20 23  1  0
 23 24  1  0
 23 25  1  0
 23 26  1  0
 26 27  1  0
 27 28  2  0
 28 29  1  0
 28 30  1  0
 30 31  1  0
 30 32  2  0
 32 33  1  0
 32 34  1  0
 34 35  1  0
 34 36  2  0
 36 37  1  0
 16  8  1  0
 36 27  1  0
M  CHG  1   4  -1
M  END
>  <UniqueID>  (76) 
16

>  <SMILES>  (76) 
O/C(=C\CCOc1ccc(Cl)cc1Cl)[N-]/N=C/c1cccnc1F

>  <Energy>  (76) 
47.25194010948697

>  <Genealogy>  (76) 
O=C(CCCOc1ccc(Cl)cc1Cl)[N-]N=Cc1cccnc1F (protonated)
OC(=CCCOc1ccc(Cl)cc1Cl)[N-]N=Cc1cccnc1F (tautomer)
O/C(=C\CCOc1ccc(Cl)cc1Cl)[N-]/N=C/c1cccnc1F (cis-trans isomerization)
O/C(=C\CCOc1ccc(Cl)cc1Cl)[N-]/N=C/c1cccnc1F (3D coordinates assigned)
O/C(=C\CCOc1ccc(Cl)cc1Cl)[N-]/N=C/c1cccnc1F (optimized conformer: 47.25194010948697 kcal/mol)

>  <smiles>  (76) 
O=C(CCCOc1ccc(Cl)cc1Cl)NN=Cc1cccnc1F

>  <score_type>  (76) 
oracle

>  <origin>  (76) 
autodockgpu

>  <m_score__min__energy>  (76) 
-6.4299999999999997

>  <m_primary>  (76) 
energy

>  <meeko>  (76) 
{"free_energy": -5.84, "intermolecular_energy": -8.82, "internal_energy": -1.37, "cluster_size": 3, "cluster_id": 6, "rank_in_cluster": 2}

>  <energy>  (76) 
-5.84

>  <cluster_rmsd>  (76) 
0.41

>  <rmsd>  (76) 
271.33

>  <cluster>  (76) 
6

$$$$
QFPZKQQOUZJSQV-ULFODFFFNA-N
     RDKit          3D

 37 38  0  0  0  0  0  0  0  0999 V2000
  138.5130   73.6290  222.9700 H   0  0  0  0  0  0  0  0  0  0  0  0
  138.7180   74.1180  222.1080 O   0  0  0  0  0  0  0  0  0  0  0  0
  141.0140   78.0130  220.6190 C   0  0  0  0  0  0  0  0  0  0  0  0
  140.0670   76.0730  221.6240 N   0  0  0  0  0  0  0  0  0  0  0  0
  140.9190   76.7200  220.7090 N   0  0  0  0  0  0  0  0  0  0  0  0
  141.0490   73.8650  221.6300 C   0  0  0  0  0  0  0  0  0  0  0  0
  142.0442   74.2880  221.8317 H   0  0  0  0  0  0  0  0  0  0  0  0
  141.4870   78.8230  221.7600 C   0  0  0  0  0  0  0  0  0  0  0  0
  142.0550   80.0910  221.5410 C   0  0  0  0  0  0  0  0  0  0  0  0
  142.1830   80.5870  220.2840 F   0  0  0  0  0  0  0  0  0  0  0  0
  142.4860   80.8390  222.5920 N   0  0  0  0  0  0  0  0  0  0  0  0
  142.3850   80.4000  223.8740 C   0  0  0  0  0  0  0  0  0  0  0  0
  142.7441   81.0304  224.7009 H   0  0  0  0  0  0  0  0  0  0  0  0
  141.8260   79.1500  224.1420 C   0  0  0  0  0  0  0  0  0  0  0  0
  141.7401   78.7907  225.1781 H   0  0  0  0  0  0  0  0  0  0  0  0
  141.3770   78.3600  223.0830 C   0  0  0  0  0  0  0  0  0  0  0  0
  140.9359   77.3725  223.2838 H   0  0  0  0  0  0  0  0  0  0  0  0
  139.9720   74.6510  221.8020 C   0  0  0  0  0  0  0  0  0  0  0  0
  140.7378   78.5120  219.6784 H   0  0  0  0  0  0  0  0  0  0  0  0
  140.9570   72.4320  221.1740 C   0  0  0  0  0  0  0  0  0  0  0  0
  140.5425   72.4080  220.1554 H   0  0  0  0  0  0  0  0  0  0  0  0
  141.9678   71.9988  221.1986 H   0  0  0  0  0  0  0  0  0  0  0  0
  140.0580   71.6000  222.0960 C   0  0  0  0  0  0  0  0  0  0  0  0
  139.0379   71.5837  221.6847 H   0  0  0  0  0  0  0  0  0  0  0  0
  140.4659   70.5802  222.1559 H   0  0  0  0  0  0  0  0  0  0  0  0
  140.0220   72.1530  223.4110 O   0  0  0  0  0  0  0  0  0  0  0  0
  140.0660   71.3550  224.5580 C   0  0  0  0  0  0  0  0  0  0  0  0
  141.1060   71.5350  225.4770 C   0  0  0  0  0  0  0  0  0  0  0  0
  141.8757   72.2981  225.2894 H   0  0  0  0  0  0  0  0  0  0  0  0
  141.1720   70.7510  226.6310 C   0  0  0  0  0  0  0  0  0  0  0  0
  141.9880   70.9028  227.3528 H   0  0  0  0  0  0  0  0  0  0  0  0
  140.2020   69.7740  226.8690 C   0  0  0  0  0  0  0  0  0  0  0  0
  140.2850   68.7870  228.3170 Cl  0  0  0  0  0  0  0  0  0  0  0  0
  139.1680   69.5770  225.9470 C   0  0  0  0  0  0  0  0  0  0  0  0
  138.4078   68.8039  226.1325 H   0  0  0  0  0  0  0  0  0  0  0  0
  139.0980   70.3610  224.7890 C   0  0  0  0  0  0  0  0  0  0  0  0
  137.8200   70.0490  223.6220 Cl  0  0  0  0  0  0  0  0  0  0  0  0
  1  2  1  0
  2  3  1  0
  3  4  1  0
  4  5  1  0
  5  6  2  0
  6  7  1  0
  6  8  1  0
  8  9  2  0
  9 10  1  0
  9 11  1  0
 11 12  2  0
 12 13  1  0
 12 14  1  0
 14 15  1  0
 14 16  2  0
 16 17  1  0
  3 18  2  0
 18 19  1  0
 18 20  1  0
 20 21  1  0
 20 22  1  0
 20 23  1  0
 23 24  1  0
 23 25  1  0
 23 26  1  0
 26 27  1  0
 27 28  2  0
 28 29  1  0
 28 30  1  0
 30 31  1  0
 30 32  2  0
 32 33  1  0
 32 34  1  0
 34 35  1  0
 34 36  2  0
 36 37  1  0
 16  8  1  0
 36 27  1  0
M  CHG  1   4  -1
M  END
>  <UniqueID>  (77) 
16

>  <SMILES>  (77) 
O/C(=C\CCOc1ccc(Cl)cc1Cl)[N-]/N=C/c1cccnc1F

>  <Energy>  (77) 
47.25194010948697

>  <Genealogy>  (77) 
O=C(CCCOc1ccc(Cl)cc1Cl)[N-]N=Cc1cccnc1F (protonated)
OC(=CCCOc1ccc(Cl)cc1Cl)[N-]N=Cc1cccnc1F (tautomer)
O/C(=C\CCOc1ccc(Cl)cc1Cl)[N-]/N=C/c1cccnc1F (cis-trans isomerization)
O/C(=C\CCOc1ccc(Cl)cc1Cl)[N-]/N=C/c1cccnc1F (3D coordinates assigned)
O/C(=C\CCOc1ccc(Cl)cc1Cl)[N-]/N=C/c1cccnc1F (optimized conformer: 47.25194010948697 kcal/mol)

>  <smiles>  (77) 
O=C(CCCOc1ccc(Cl)cc1Cl)NN=Cc1cccnc1F

>  <score_type>  (77) 
oracle

>  <origin>  (77) 
autodockgpu

>  <m_score__min__energy>  (77) 
-6.4299999999999997

>  <m_primary>  (77) 
energy

>  <meeko>  (77) 
{"free_energy": -5.66, "intermolecular_energy": -8.65, "internal_energy": -0.91, "cluster_size": 3, "cluster_id": 2, "rank_in_cluster": 3}

>  <energy>  (77) 
-5.69

>  <cluster_rmsd>  (77) 
0.98

>  <rmsd>  (77) 
271.47

>  <cluster>  (77) 
6

$$$$
QFPZKQQOUZJSQV-ULFODFFFNA-N
     RDKit          3D

 37 38  0  0  0  0  0  0  0  0999 V2000
  141.8490   76.6830  222.6910 H   0  0  0  0  0  0  0  0  0  0  0  0
  141.0770   76.0290  222.7090 O   0  0  0  0  0  0  0  0  0  0  0  0
  140.7850   75.1520  221.6620 C   0  0  0  0  0  0  0  0  0  0  0  0
  140.0710   73.9460  221.9810 N   0  0  0  0  0  0  0  0  0  0  0  0
  140.5930   72.8670  222.7190 N   0  0  0  0  0  0  0  0  0  0  0  0
  139.8750   71.8520  223.0970 C   0  0  0  0  0  0  0  0  0  0  0  0
  139.1449   71.4156  222.3995 H   0  0  0  0  0  0  0  0  0  0  0  0
  140.0240   71.2750  224.4490 C   0  0  0  0  0  0  0  0  0  0  0  0
  139.3130   70.1140  224.8050 C   0  0  0  0  0  0  0  0  0  0  0  0
  138.4810   69.5110  223.9200 F   0  0  0  0  0  0  0  0  0  0  0  0
  139.4550   69.5810  226.0480 N   0  0  0  0  0  0  0  0  0  0  0  0
  140.2740   70.1360  226.9790 C   0  0  0  0  0  0  0  0  0  0  0  0
  140.3642   69.6784  227.9753 H   0  0  0  0  0  0  0  0  0  0  0  0
  141.0010   71.2870  226.6710 C   0  0  0  0  0  0  0  0  0  0  0  0
  141.6672   71.7398  227.4201 H   0  0  0  0  0  0  0  0  0  0  0  0
  140.8750   71.8580  225.4040 C   0  0  0  0  0  0  0  0  0  0  0  0
  141.4426   72.7659  225.1521 H   0  0  0  0  0  0  0  0  0  0  0  0
  141.1940   75.3940  220.4040 C   0  0  0  0  0  0  0  0  0  0  0  0
  141.9234   74.7080  219.9486 H   0  0  0  0  0  0  0  0  0  0  0  0
  140.7000   76.5600  219.5900 C   0  0  0  0  0  0  0  0  0  0  0  0
  140.7602   76.3002  218.5228 H   0  0  0  0  0  0  0  0  0  0  0  0
  139.6621   76.7698  219.8878 H   0  0  0  0  0  0  0  0  0  0  0  0
  141.5320   77.8220  219.8410 C   0  0  0  0  0  0  0  0  0  0  0  0
  142.5058   77.7161  219.3405 H   0  0  0  0  0  0  0  0  0  0  0  0
  140.9843   78.6877  219.4404 H   0  0  0  0  0  0  0  0  0  0  0  0
  141.7450   78.0260  221.2370 O   0  0  0  0  0  0  0  0  0  0  0  0
  140.8440   78.7370  222.0340 C   0  0  0  0  0  0  0  0  0  0  0  0
  139.4740   78.4760  221.9170 C   0  0  0  0  0  0  0  0  0  0  0  0
  139.1205   77.7181  221.2024 H   0  0  0  0  0  0  0  0  0  0  0  0
  138.5530   79.1730  222.7030 C   0  0  0  0  0  0  0  0  0  0  0  0
  137.4782   78.9572  222.6118 H   0  0  0  0  0  0  0  0  0  0  0  0
  138.9960   80.1440  223.6050 C   0  0  0  0  0  0  0  0  0  0  0  0
  137.8400   81.0210  224.5890 Cl  0  0  0  0  0  0  0  0  0  0  0  0
  140.3630   80.4220  223.7160 C   0  0  0  0  0  0  0  0  0  0  0  0
  140.7106   81.1905  224.4221 H   0  0  0  0  0  0  0  0  0  0  0  0
  141.2900   79.7250  222.9310 C   0  0  0  0  0  0  0  0  0  0  0  0
  142.9940   80.1390  223.0520 Cl  0  0  0  0  0  0  0  0  0  0  0  0
  1  2  1  0
  2  3  1  0
  3  4  1  0
  4  5  1  0
  5  6  2  0
  6  7  1  0
  6  8  1  0
  8  9  2  0
  9 10  1  0
  9 11  1  0
 11 12  2  0
 12 13  1  0
 12 14  1  0
 14 15  1  0
 14 16  2  0
 16 17  1  0
  3 18  2  0
 18 19  1  0
 18 20  1  0
 20 21  1  0
 20 22  1  0
 20 23  1  0
 23 24  1  0
 23 25  1  0
 23 26  1  0
 26 27  1  0
 27 28  2  0
 28 29  1  0
 28 30  1  0
 30 31  1  0
 30 32  2  0
 32 33  1  0
 32 34  1  0
 34 35  1  0
 34 36  2  0
 36 37  1  0
 16  8  1  0
 36 27  1  0
M  CHG  1   4  -1
M  END
>  <UniqueID>  (78) 
16

>  <SMILES>  (78) 
O/C(=C\CCOc1ccc(Cl)cc1Cl)[N-]/N=C/c1cccnc1F

>  <Energy>  (78) 
47.25194010948697

>  <Genealogy>  (78) 
O=C(CCCOc1ccc(Cl)cc1Cl)[N-]N=Cc1cccnc1F (protonated)
OC(=CCCOc1ccc(Cl)cc1Cl)[N-]N=Cc1cccnc1F (tautomer)
O/C(=C\CCOc1ccc(Cl)cc1Cl)[N-]/N=C/c1cccnc1F (cis-trans isomerization)
O/C(=C\CCOc1ccc(Cl)cc1Cl)[N-]/N=C/c1cccnc1F (3D coordinates assigned)
O/C(=C\CCOc1ccc(Cl)cc1Cl)[N-]/N=C/c1cccnc1F (optimized conformer: 47.25194010948697 kcal/mol)

>  <smiles>  (78) 
O=C(CCCOc1ccc(Cl)cc1Cl)NN=Cc1cccnc1F

>  <score_type>  (78) 
oracle

>  <origin>  (78) 
autodockgpu

>  <m_score__min__energy>  (78) 
-6.4299999999999997

>  <m_primary>  (78) 
energy

>  <meeko>  (78) 
{"free_energy": -5.64, "intermolecular_energy": -8.63, "internal_energy": -1.1, "cluster_size": 2, "cluster_id": 7, "rank_in_cluster": 2}

>  <energy>  (78) 
-5.82

>  <cluster_rmsd>  (78) 
0.0

>  <rmsd>  (78) 
272.28

>  <cluster>  (78) 
7

$$$$
QFPZKQQOUZJSQV-ULFODFFFNA-N
     RDKit          3D

 37 38  0  0  0  0  0  0  0  0999 V2000
  139.6450   71.5740  220.8060 H   0  0  0  0  0  0  0  0  0  0  0  0
  139.1560   72.4560  220.7110 O   0  0  0  0  0  0  0  0  0  0  0  0
  139.9210   71.2630  223.8190 C   0  0  0  0  0  0  0  0  0  0  0  0
  140.2080   73.3470  222.7050 N   0  0  0  0  0  0  0  0  0  0  0  0
  140.6720   72.1030  223.1730 N   0  0  0  0  0  0  0  0  0  0  0  0
  138.6740   74.6940  221.4100 C   0  0  0  0  0  0  0  0  0  0  0  0
  138.9466   75.3311  220.5557 H   0  0  0  0  0  0  0  0  0  0  0  0
  140.1110   71.0280  225.2660 C   0  0  0  0  0  0  0  0  0  0  0  0
  139.4850   69.9360  225.8930 C   0  0  0  0  0  0  0  0  0  0  0  0
  138.6960   69.0880  225.1870 F   0  0  0  0  0  0  0  0  0  0  0  0
  139.6640   69.7170  227.2240 N   0  0  0  0  0  0  0  0  0  0  0  0
  140.4430   70.5290  227.9860 C   0  0  0  0  0  0  0  0  0  0  0  0
  140.5667   70.3228  229.0594 H   0  0  0  0  0  0  0  0  0  0  0  0
  141.0860   71.6240  227.4080 C   0  0  0  0  0  0  0  0  0  0  0  0
  141.7183   72.2837  228.0204 H   0  0  0  0  0  0  0  0  0  0  0  0
  140.9190   71.8740  226.0450 C   0  0  0  0  0  0  0  0  0  0  0  0
  141.4209   72.7350  225.5795 H   0  0  0  0  0  0  0  0  0  0  0  0
  139.3330   73.5330  221.5810 C   0  0  0  0  0  0  0  0  0  0  0  0
  139.1314   70.7180  223.2810 H   0  0  0  0  0  0  0  0  0  0  0  0
  137.5810   75.1610  222.3340 C   0  0  0  0  0  0  0  0  0  0  0  0
  136.6067   74.9238  221.8819 H   0  0  0  0  0  0  0  0  0  0  0  0
  137.7045   74.6462  223.2982 H   0  0  0  0  0  0  0  0  0  0  0  0
  137.6570   76.6710  222.5860 C   0  0  0  0  0  0  0  0  0  0  0  0
  136.6696   77.1174  222.3970 H   0  0  0  0  0  0  0  0  0  0  0  0
  137.9616   76.8373  223.6298 H   0  0  0  0  0  0  0  0  0  0  0  0
  138.6190   77.2850  221.7280 O   0  0  0  0  0  0  0  0  0  0  0  0
  139.6350   78.1110  222.2170 C   0  0  0  0  0  0  0  0  0  0  0  0
  139.3240   79.0880  223.1700 C   0  0  0  0  0  0  0  0  0  0  0  0
  138.2881   79.1976  223.5235 H   0  0  0  0  0  0  0  0  0  0  0  0
  140.3220   79.9240  223.6740 C   0  0  0  0  0  0  0  0  0  0  0  0
  140.0720   80.6847  224.4282 H   0  0  0  0  0  0  0  0  0  0  0  0
  141.6380   79.7960  223.2220 C   0  0  0  0  0  0  0  0  0  0  0  0
  142.8910   80.8490  223.8530 Cl  0  0  0  0  0  0  0  0  0  0  0  0
  141.9540   78.8320  222.2570 C   0  0  0  0  0  0  0  0  0  0  0  0
  142.9888   78.7349  221.8969 H   0  0  0  0  0  0  0  0  0  0  0  0
  140.9560   77.9910  221.7490 C   0  0  0  0  0  0  0  0  0  0  0  0
  141.3750   76.8310  220.4970 Cl  0  0  0  0  0  0  0  0  0  0  0  0
  1  2  1  0
  2  3  1  0
  3  4  1  0
  4  5  1  0
  5  6  2  0
  6  7  1  0
  6  8  1  0
  8  9  2  0
  9 10  1  0
  9 11  1  0
 11 12  2  0
 12 13  1  0
 12 14  1  0
 14 15  1  0
 14 16  2  0
 16 17  1  0
  3 18  2  0
 18 19  1  0
 18 20  1  0
 20 21  1  0
 20 22  1  0
 20 23  1  0
 23 24  1  0
 23 25  1  0
 23 26  1  0
 26 27  1  0
 27 28  2  0
 28 29  1  0
 28 30  1  0
 30 31  1  0
 30 32  2  0
 32 33  1  0
 32 34  1  0
 34 35  1  0
 34 36  2  0
 36 37  1  0
 16  8  1  0
 36 27  1  0
M  CHG  1   4  -1
M  END
>  <UniqueID>  (79) 
16

>  <SMILES>  (79) 
O/C(=C\CCOc1ccc(Cl)cc1Cl)[N-]/N=C/c1cccnc1F

>  <Energy>  (79) 
47.25194010948697

>  <Genealogy>  (79) 
O=C(CCCOc1ccc(Cl)cc1Cl)[N-]N=Cc1cccnc1F (protonated)
OC(=CCCOc1ccc(Cl)cc1Cl)[N-]N=Cc1cccnc1F (tautomer)
O/C(=C\CCOc1ccc(Cl)cc1Cl)[N-]/N=C/c1cccnc1F (cis-trans isomerization)
O/C(=C\CCOc1ccc(Cl)cc1Cl)[N-]/N=C/c1cccnc1F (3D coordinates assigned)
O/C(=C\CCOc1ccc(Cl)cc1Cl)[N-]/N=C/c1cccnc1F (optimized conformer: 47.25194010948697 kcal/mol)

>  <smiles>  (79) 
O=C(CCCOc1ccc(Cl)cc1Cl)NN=Cc1cccnc1F

>  <score_type>  (79) 
oracle

>  <origin>  (79) 
autodockgpu

>  <m_score__min__energy>  (79) 
-6.4299999999999997

>  <m_primary>  (79) 
energy

>  <meeko>  (79) 
{"free_energy": -5.4, "intermolecular_energy": -8.38, "internal_energy": -0.8, "cluster_size": 7, "cluster_id": 1, "rank_in_cluster": 7}

>  <energy>  (79) 
-5.64

>  <cluster_rmsd>  (79) 
0.3

>  <rmsd>  (79) 
272.23

>  <cluster>  (79) 
7

$$$$
QFPZKQQOUZJSQV-ULFODFFFNA-N
     RDKit          3D

 37 38  0  0  0  0  0  0  0  0999 V2000
  139.1810   74.0100  223.0950 H   0  0  0  0  0  0  0  0  0  0  0  0
  139.4690   74.7520  222.4690 O   0  0  0  0  0  0  0  0  0  0  0  0
  140.8140   77.8330  220.9490 C   0  0  0  0  0  0  0  0  0  0  0  0
  141.4770   75.5910  221.3990 N   0  0  0  0  0  0  0  0  0  0  0  0
  141.4250   76.7430  220.5920 N   0  0  0  0  0  0  0  0  0  0  0  0
  140.4050   73.5740  220.6080 C   0  0  0  0  0  0  0  0  0  0  0  0
  140.4135   73.8055  219.5327 H   0  0  0  0  0  0  0  0  0  0  0  0
  141.4170   78.7560  221.9330 C   0  0  0  0  0  0  0  0  0  0  0  0
  141.9810   79.9730  221.5080 C   0  0  0  0  0  0  0  0  0  0  0  0
  141.9850   80.3160  220.1960 F   0  0  0  0  0  0  0  0  0  0  0  0
  142.5300   80.8250  222.4150 N   0  0  0  0  0  0  0  0  0  0  0  0
  142.5550   80.5410  223.7430 C   0  0  0  0  0  0  0  0  0  0  0  0
  143.0077   81.2531  224.4487 H   0  0  0  0  0  0  0  0  0  0  0  0
  142.0070   79.3470  224.2130 C   0  0  0  0  0  0  0  0  0  0  0  0
  142.0240   79.1127  225.2876 H   0  0  0  0  0  0  0  0  0  0  0  0
  141.4370   78.4530  223.3050 C   0  0  0  0  0  0  0  0  0  0  0  0
  141.0022   77.5087  223.6645 H   0  0  0  0  0  0  0  0  0  0  0  0
  140.4460   74.5940  221.4840 C   0  0  0  0  0  0  0  0  0  0  0  0
  139.8332   78.0722  220.5122 H   0  0  0  0  0  0  0  0  0  0  0  0
  140.3480   72.1300  221.0310 C   0  0  0  0  0  0  0  0  0  0  0  0
  139.2947   71.8312  221.1372 H   0  0  0  0  0  0  0  0  0  0  0  0
  140.8537   71.5278  220.2618 H   0  0  0  0  0  0  0  0  0  0  0  0
  141.0660   71.9000  222.3650 C   0  0  0  0  0  0  0  0  0  0  0  0
  141.4264   70.8615  222.4051 H   0  0  0  0  0  0  0  0  0  0  0  0
  141.9087   72.6035  222.4352 H   0  0  0  0  0  0  0  0  0  0  0  0
  140.1870   72.1320  223.4660 O   0  0  0  0  0  0  0  0  0  0  0  0
  140.2110   71.3440  224.6200 C   0  0  0  0  0  0  0  0  0  0  0  0
  141.0300   71.7230  225.6900 C   0  0  0  0  0  0  0  0  0  0  0  0
  141.6445   72.6321  225.6134 H   0  0  0  0  0  0  0  0  0  0  0  0
  141.0710   70.9530  226.8540 C   0  0  0  0  0  0  0  0  0  0  0  0
  141.7110   71.2608  227.6940 H   0  0  0  0  0  0  0  0  0  0  0  0
  140.3000   69.7920  226.9530 C   0  0  0  0  0  0  0  0  0  0  0  0
  140.3540   68.8230  228.4140 Cl  0  0  0  0  0  0  0  0  0  0  0  0
  139.4910   69.3980  225.8820 C   0  0  0  0  0  0  0  0  0  0  0  0
  138.8881   68.4812  225.9588 H   0  0  0  0  0  0  0  0  0  0  0  0
  139.4460   70.1670  224.7120 C   0  0  0  0  0  0  0  0  0  0  0  0
  138.4650   69.6130  223.3630 Cl  0  0  0  0  0  0  0  0  0  0  0  0
  1  2  1  0
  2  3  1  0
  3  4  1  0
  4  5  1  0
  5  6  2  0
  6  7  1  0
  6  8  1  0
  8  9  2  0
  9 10  1  0
  9 11  1  0
 11 12  2  0
 12 13  1  0
 12 14  1  0
 14 15  1  0
 14 16  2  0
 16 17  1  0
  3 18  2  0
 18 19  1  0
 18 20  1  0
 20 21  1  0
 20 22  1  0
 20 23  1  0
 23 24  1  0
 23 25  1  0
 23 26  1  0
 26 27  1  0
 27 28  2  0
 28 29  1  0
 28 30  1  0
 30 31  1  0
 30 32  2  0
 32 33  1  0
 32 34  1  0
 34 35  1  0
 34 36  2  0
 36 37  1  0
 16  8  1  0
 36 27  1  0
M  CHG  1   4  -1
M  END
>  <UniqueID>  (80) 
16

>  <SMILES>  (80) 
O/C(=C\CCOc1ccc(Cl)cc1Cl)[N-]/N=C/c1cccnc1F

>  <Energy>  (80) 
47.25194010948697

>  <Genealogy>  (80) 
O=C(CCCOc1ccc(Cl)cc1Cl)[N-]N=Cc1cccnc1F (protonated)
OC(=CCCOc1ccc(Cl)cc1Cl)[N-]N=Cc1cccnc1F (tautomer)
O/C(=C\CCOc1ccc(Cl)cc1Cl)[N-]/N=C/c1cccnc1F (cis-trans isomerization)
O/C(=C\CCOc1ccc(Cl)cc1Cl)[N-]/N=C/c1cccnc1F (3D coordinates assigned)
O/C(=C\CCOc1ccc(Cl)cc1Cl)[N-]/N=C/c1cccnc1F (optimized conformer: 47.25194010948697 kcal/mol)

>  <smiles>  (80) 
O=C(CCCOc1ccc(Cl)cc1Cl)NN=Cc1cccnc1F

>  <score_type>  (80) 
oracle

>  <origin>  (80) 
autodockgpu

>  <m_score__min__energy>  (80) 
-6.4299999999999997

>  <m_primary>  (80) 
energy

>  <meeko>  (80) 
{"free_energy": -5.84, "intermolecular_energy": -8.82, "internal_energy": -1.17, "cluster_size": 3, "cluster_id": 2, "rank_in_cluster": 2}

>  <energy>  (80) 
-5.06

>  <cluster_rmsd>  (80) 
0.0

>  <rmsd>  (80) 
271.37

>  <cluster>  (80) 
8

$$$$
