AQNDWTVLZSMOQU-FMIVXFBMNA-N
     RDKit          3D

 43 46  0  0  0  0  0  0  0  0999 V2000
  143.6278   69.9020  220.5438 H   0  0  0  0  0  0  0  0  0  0  0  0
  143.4120   70.9340  220.2300 C   0  0  0  0  0  0  0  0  0  0  0  0
  142.1490   71.2620  219.9410 C   0  0  0  0  0  0  0  0  0  0  0  0
  141.5196   70.5652  219.3680 H   0  0  0  0  0  0  0  0  0  0  0  0
  141.5970   72.5510  220.3860 C   0  0  0  0  0  0  0  0  0  0  0  0
  142.2610   73.6800  220.0370 N   0  0  0  0  0  0  0  0  0  0  0  0
  141.8420   74.9050  220.4270 C   0  0  0  0  0  0  0  0  0  0  0  0
  142.5480   76.0470  220.0320 C   0  0  0  0  0  0  0  0  0  0  0  0
  143.4384   75.9487  219.3936 H   0  0  0  0  0  0  0  0  0  0  0  0
  142.1240   77.3110  220.4470 C   0  0  0  0  0  0  0  0  0  0  0  0
  142.6778   78.2075  220.1314 H   0  0  0  0  0  0  0  0  0  0  0  0
  140.9980   77.4380  221.2620 C   0  0  0  0  0  0  0  0  0  0  0  0
  140.6710   78.4344  221.5939 H   0  0  0  0  0  0  0  0  0  0  0  0
  140.2840   76.3020  221.6580 C   0  0  0  0  0  0  0  0  0  0  0  0
  139.3954   76.4068  222.2979 H   0  0  0  0  0  0  0  0  0  0  0  0
  140.7020   75.0240  221.2380 C   0  0  0  0  0  0  0  0  0  0  0  0
  140.0230   73.8510  221.6050 C   0  0  0  0  0  0  0  0  0  0  0  0
  139.0080   73.9340  222.3520 O   0  0  0  0  0  0  0  0  0  0  0  0
  140.4620   72.6230  221.1630 N   0  0  0  0  0  0  0  0  0  0  0  0
  139.7340   71.3900  221.5410 C   0  0  0  0  0  0  0  0  0  0  0  0
  138.6610   71.5339  221.3459 H   0  0  0  0  0  0  0  0  0  0  0  0
  140.1313   70.5565  220.9431 H   0  0  0  0  0  0  0  0  0  0  0  0
  139.9280   71.0610  223.0030 C   0  0  0  0  0  0  0  0  0  0  0  0
  139.2950   69.9390  223.5670 C   0  0  0  0  0  0  0  0  0  0  0  0
  138.7088   69.2608  222.9295 H   0  0  0  0  0  0  0  0  0  0  0  0
  139.4100   69.6840  224.9390 C   0  0  0  0  0  0  0  0  0  0  0  0
  138.9028   68.8132  225.3800 H   0  0  0  0  0  0  0  0  0  0  0  0
  140.1690   70.5350  225.7500 C   0  0  0  0  0  0  0  0  0  0  0  0
  140.2610   70.2500  227.4760 Cl  0  0  0  0  0  0  0  0  0  0  0  0
  140.8200   71.6380  225.1880 C   0  0  0  0  0  0  0  0  0  0  0  0
  141.4233   72.3020  225.8245 H   0  0  0  0  0  0  0  0  0  0  0  0
  140.7060   71.8980  223.8220 C   0  0  0  0  0  0  0  0  0  0  0  0
  141.2272   72.7619  223.3838 H   0  0  0  0  0  0  0  0  0  0  0  0
  144.5330   71.8960  220.1470 C   0  0  0  0  0  0  0  0  0  0  0  0
  145.2660   72.0960  218.9640 C   0  0  0  0  0  0  0  0  0  0  0  0
  145.0286   71.5064  218.0663 H   0  0  0  0  0  0  0  0  0  0  0  0
  146.2680   73.0160  218.9250 N   0  0  0  0  0  0  0  0  0  0  0  0
  146.6000   73.7560  220.0180 C   0  0  0  0  0  0  0  0  0  0  0  0
  147.4168   74.4901  219.9556 H   0  0  0  0  0  0  0  0  0  0  0  0
  145.9060   73.5860  221.2200 C   0  0  0  0  0  0  0  0  0  0  0  0
  146.1782   74.1751  222.1082 H   0  0  0  0  0  0  0  0  0  0  0  0
  144.8640   72.6600  221.2790 C   0  0  0  0  0  0  0  0  0  0  0  0
  144.3001   72.5277  222.2141 H   0  0  0  0  0  0  0  0  0  0  0  0
  1  2  1  0
  2  3  2  0
  3  4  1  0
  3  5  1  0
  5  6  2  0
  6  7  1  0
  7  8  2  0
  8  9  1  0
  8 10  1  0
 10 11  1  0
 10 12  2  0
 12 13  1  0
 12 14  1  0
 14 15  1  0
 14 16  2  0
 16 17  1  0
 17 18  2  0
 17 19  1  0
 19 20  1  0
 20 21  1  0
 20 22  1  0
 20 23  1  0
 23 24  2  0
 24 25  1  0
 24 26  1  0
 26 27  1  0
 26 28  2  0
 28 29  1  0
 28 30  1  0
 30 31  1  0
 30 32  2  0
 32 33  1  0
  2 34  1  0
 34 35  2  0
 35 36  1  0
 35 37  1  0
 37 38  2  0
 38 39  1  0
 38 40  1  0
 40 41  1  0
 40 42  2  0
 42 43  1  0
 19  5  1  0
 32 23  1  0
 42 34  1  0
 16  7  1  0
M  END
>  <UniqueID>  (1) 
22

>  <SMILES>  (1) 
O=c1c2ccccc2nc(/C=C/c2cccnc2)n1Cc1ccc(Cl)cc1

>  <Energy>  (1) 
62.91553001668598

>  <Genealogy>  (1) 
O=c1c2ccccc2nc(/C=C/c2cccnc2)n1Cc1ccc(Cl)cc1 (cis-trans isomerization)
O=c1c2ccccc2nc(/C=C/c2cccnc2)n1Cc1ccc(Cl)cc1 (3D coordinates assigned)
O=c1c2ccccc2nc(/C=C/c2cccnc2)n1Cc1ccc(Cl)cc1 (optimized conformer: 62.91553001668598 kcal/mol)

>  <smiles>  (1) 
O=c1c2ccccc2nc(/C=C/c2cccnc2)n1Cc1ccc(Cl)cc1

>  <score_type>  (1) 
oracle

>  <origin>  (1) 
autodockgpu

>  <m_score__min__energy>  (1) 
-7.5499999999999998

>  <m_primary>  (1) 
energy

>  <meeko>  (1) 
{"free_energy": -7.5, "intermolecular_energy": -8.99, "internal_energy": -1.41, "cluster_size": 5, "cluster_id": 3, "rank_in_cluster": 2}

>  <energy>  (1) 
-7.55

>  <cluster_rmsd>  (1) 
0.0

>  <rmsd>  (1) 
269.94

>  <cluster>  (1) 
1

$$$$
AQNDWTVLZSMOQU-FMIVXFBMNA-N
     RDKit          3D

 43 46  0  0  0  0  0  0  0  0999 V2000
  141.0517   70.5646  220.8430 H   0  0  0  0  0  0  0  0  0  0  0  0
  140.3700   71.2040  221.4230 C   0  0  0  0  0  0  0  0  0  0  0  0
  139.3660   70.6260  222.0910 C   0  0  0  0  0  0  0  0  0  0  0  0
  138.4078   70.4370  221.5849 H   0  0  0  0  0  0  0  0  0  0  0  0
  139.5390   70.2420  223.5010 C   0  0  0  0  0  0  0  0  0  0  0  0
  140.0730   71.1570  224.3460 N   0  0  0  0  0  0  0  0  0  0  0  0
  140.2950   70.8790  225.6510 C   0  0  0  0  0  0  0  0  0  0  0  0
  140.8330   71.8580  226.4950 C   0  0  0  0  0  0  0  0  0  0  0  0
  141.0647   72.8576  226.0985 H   0  0  0  0  0  0  0  0  0  0  0  0
  141.0760   71.5680  227.8390 C   0  0  0  0  0  0  0  0  0  0  0  0
  141.4954   72.3402  228.5007 H   0  0  0  0  0  0  0  0  0  0  0  0
  140.7870   70.2980  228.3440 C   0  0  0  0  0  0  0  0  0  0  0  0
  140.9867   70.0694  229.4013 H   0  0  0  0  0  0  0  0  0  0  0  0
  140.2440   69.3160  227.5080 C   0  0  0  0  0  0  0  0  0  0  0  0
  140.0144   68.3181  227.9098 H   0  0  0  0  0  0  0  0  0  0  0  0
  139.9910   69.6040  226.1520 C   0  0  0  0  0  0  0  0  0  0  0  0
  139.4470   68.6560  225.2700 C   0  0  0  0  0  0  0  0  0  0  0  0
  139.1870   67.4950  225.6950 O   0  0  0  0  0  0  0  0  0  0  0  0
  139.2080   68.9840  223.9550 N   0  0  0  0  0  0  0  0  0  0  0  0
  138.6200   67.9860  223.0310 C   0  0  0  0  0  0  0  0  0  0  0  0
  139.0832   68.0991  222.0397 H   0  0  0  0  0  0  0  0  0  0  0  0
  138.8108   66.9820  223.4379 H   0  0  0  0  0  0  0  0  0  0  0  0
  137.1260   68.1710  222.9000 C   0  0  0  0  0  0  0  0  0  0  0  0
  136.4420   69.0460  223.7640 C   0  0  0  0  0  0  0  0  0  0  0  0
  137.0027   69.6468  224.4952 H   0  0  0  0  0  0  0  0  0  0  0  0
  135.0470   69.1520  223.6930 C   0  0  0  0  0  0  0  0  0  0  0  0
  134.5130   69.8267  224.3782 H   0  0  0  0  0  0  0  0  0  0  0  0
  134.3310   68.4030  222.7540 C   0  0  0  0  0  0  0  0  0  0  0  0
  132.5830   68.4900  222.7100 Cl  0  0  0  0  0  0  0  0  0  0  0  0
  135.0110   67.5500  221.8780 C   0  0  0  0  0  0  0  0  0  0  0  0
  134.4487   66.9666  221.1341 H   0  0  0  0  0  0  0  0  0  0  0  0
  136.4000   67.4370  221.9450 C   0  0  0  0  0  0  0  0  0  0  0  0
  136.9295   66.7709  221.2479 H   0  0  0  0  0  0  0  0  0  0  0  0
  140.6050   72.6640  221.4290 C   0  0  0  0  0  0  0  0  0  0  0  0
  139.6870   73.5720  221.9850 C   0  0  0  0  0  0  0  0  0  0  0  0
  138.7421   73.2040  222.4112 H   0  0  0  0  0  0  0  0  0  0  0  0
  139.9630   74.9050  221.9980 N   0  0  0  0  0  0  0  0  0  0  0  0
  141.1150   75.4010  221.4680 C   0  0  0  0  0  0  0  0  0  0  0  0
  141.3072   76.4839  221.4901 H   0  0  0  0  0  0  0  0  0  0  0  0
  142.0540   74.5380  220.8960 C   0  0  0  0  0  0  0  0  0  0  0  0
  142.9819   74.9356  220.4590 H   0  0  0  0  0  0  0  0  0  0  0  0
  141.8000   73.1660  220.8860 C   0  0  0  0  0  0  0  0  0  0  0  0
  142.5376   72.4751  220.4517 H   0  0  0  0  0  0  0  0  0  0  0  0
  1  2  1  0
  2  3  2  0
  3  4  1  0
  3  5  1  0
  5  6  2  0
  6  7  1  0
  7  8  2  0
  8  9  1  0
  8 10  1  0
 10 11  1  0
 10 12  2  0
 12 13  1  0
 12 14  1  0
 14 15  1  0
 14 16  2  0
 16 17  1  0
 17 18  2  0
 17 19  1  0
 19 20  1  0
 20 21  1  0
 20 22  1  0
 20 23  1  0
 23 24  2  0
 24 25  1  0
 24 26  1  0
 26 27  1  0
 26 28  2  0
 28 29  1  0
 28 30  1  0
 30 31  1  0
 30 32  2  0
 32 33  1  0
  2 34  1  0
 34 35  2  0
 35 36  1  0
 35 37  1  0
 37 38  2  0
 38 39  1  0
 38 40  1  0
 40 41  1  0
 40 42  2  0
 42 43  1  0
 19  5  1  0
 32 23  1  0
 42 34  1  0
 16  7  1  0
M  END
>  <UniqueID>  (2) 
22

>  <SMILES>  (2) 
O=c1c2ccccc2nc(/C=C/c2cccnc2)n1Cc1ccc(Cl)cc1

>  <Energy>  (2) 
62.91553001668598

>  <Genealogy>  (2) 
O=c1c2ccccc2nc(/C=C/c2cccnc2)n1Cc1ccc(Cl)cc1 (cis-trans isomerization)
O=c1c2ccccc2nc(/C=C/c2cccnc2)n1Cc1ccc(Cl)cc1 (3D coordinates assigned)
O=c1c2ccccc2nc(/C=C/c2cccnc2)n1Cc1ccc(Cl)cc1 (optimized conformer: 62.91553001668598 kcal/mol)

>  <smiles>  (2) 
O=c1c2ccccc2nc(/C=C/c2cccnc2)n1Cc1ccc(Cl)cc1

>  <score_type>  (2) 
oracle

>  <origin>  (2) 
autodockgpu

>  <m_score__min__energy>  (2) 
-7.5499999999999998

>  <m_primary>  (2) 
energy

>  <meeko>  (2) 
{"free_energy": -7.37, "intermolecular_energy": -8.87, "internal_energy": -1.22, "cluster_size": 1, "cluster_id": 4, "rank_in_cluster": 1}

>  <energy>  (2) 
-7.55

>  <cluster_rmsd>  (2) 
0.17

>  <rmsd>  (2) 
269.92

>  <cluster>  (2) 
1

$$$$
AQNDWTVLZSMOQU-FMIVXFBMNA-N
     RDKit          3D

 43 46  0  0  0  0  0  0  0  0999 V2000
  142.7923   70.8173  219.2830 H   0  0  0  0  0  0  0  0  0  0  0  0
  143.0380   71.4960  220.1130 C   0  0  0  0  0  0  0  0  0  0  0  0
  142.1700   71.6080  221.1240 C   0  0  0  0  0  0  0  0  0  0  0  0
  142.0783   70.7959  221.8602 H   0  0  0  0  0  0  0  0  0  0  0  0
  141.3370   72.8140  221.2550 C   0  0  0  0  0  0  0  0  0  0  0  0
  141.8970   74.0090  220.9440 N   0  0  0  0  0  0  0  0  0  0  0  0
  141.2150   75.1700  221.0640 C   0  0  0  0  0  0  0  0  0  0  0  0
  141.8260   76.3810  220.7170 C   0  0  0  0  0  0  0  0  0  0  0  0
  142.8577   76.3867  220.3355 H   0  0  0  0  0  0  0  0  0  0  0  0
  141.1260   77.5820  220.8550 C   0  0  0  0  0  0  0  0  0  0  0  0
  141.6067   78.5322  220.5792 H   0  0  0  0  0  0  0  0  0  0  0  0
  139.8180   77.5790  221.3420 C   0  0  0  0  0  0  0  0  0  0  0  0
  139.2720   78.5272  221.4548 H   0  0  0  0  0  0  0  0  0  0  0  0
  139.2000   76.3720  221.6870 C   0  0  0  0  0  0  0  0  0  0  0  0
  138.1687   76.3726  222.0696 H   0  0  0  0  0  0  0  0  0  0  0  0
  139.8970   75.1560  221.5450 C   0  0  0  0  0  0  0  0  0  0  0  0
  139.3240   73.9160  221.8760 C   0  0  0  0  0  0  0  0  0  0  0  0
  138.1460   73.8830  222.3310 O   0  0  0  0  0  0  0  0  0  0  0  0
  140.0390   72.7520  221.7120 N   0  0  0  0  0  0  0  0  0  0  0  0
  139.4260   71.4460  222.0470 C   0  0  0  0  0  0  0  0  0  0  0  0
  138.3412   71.5051  221.8746 H   0  0  0  0  0  0  0  0  0  0  0  0
  139.8815   70.6756  221.4075 H   0  0  0  0  0  0  0  0  0  0  0  0
  139.6750   71.0740  223.4910 C   0  0  0  0  0  0  0  0  0  0  0  0
  140.5140   71.8690  224.2910 C   0  0  0  0  0  0  0  0  0  0  0  0
  140.9399   72.7989  223.8861 H   0  0  0  0  0  0  0  0  0  0  0  0
  140.8080   71.4780  225.6030 C   0  0  0  0  0  0  0  0  0  0  0  0
  141.4745   72.0953  226.2232 H   0  0  0  0  0  0  0  0  0  0  0  0
  140.2560   70.3040  226.1270 C   0  0  0  0  0  0  0  0  0  0  0  0
  140.6750   69.7840  227.7460 Cl  0  0  0  0  0  0  0  0  0  0  0  0
  139.4010   69.5240  225.3410 C   0  0  0  0  0  0  0  0  0  0  0  0
  138.9596   68.6057  225.7557 H   0  0  0  0  0  0  0  0  0  0  0  0
  139.1070   69.9080  224.0330 C   0  0  0  0  0  0  0  0  0  0  0  0
  138.4273   69.2955  223.4224 H   0  0  0  0  0  0  0  0  0  0  0  0
  144.3130   72.2430  220.0600 C   0  0  0  0  0  0  0  0  0  0  0  0
  145.0820   72.3360  218.8860 C   0  0  0  0  0  0  0  0  0  0  0  0
  144.7523   71.8188  217.9729 H   0  0  0  0  0  0  0  0  0  0  0  0
  146.2320   73.0630  218.8750 N   0  0  0  0  0  0  0  0  0  0  0  0
  146.6800   73.7060  219.9880 C   0  0  0  0  0  0  0  0  0  0  0  0
  147.6155   74.2833  219.9485 H   0  0  0  0  0  0  0  0  0  0  0  0
  145.9550   73.6350  221.1810 C   0  0  0  0  0  0  0  0  0  0  0  0
  146.3192   74.1455  222.0847 H   0  0  0  0  0  0  0  0  0  0  0  0
  144.7640   72.9090  221.2120 C   0  0  0  0  0  0  0  0  0  0  0  0
  144.1766   72.8579  222.1407 H   0  0  0  0  0  0  0  0  0  0  0  0
  1  2  1  0
  2  3  2  0
  3  4  1  0
  3  5  1  0
  5  6  2  0
  6  7  1  0
  7  8  2  0
  8  9  1  0
  8 10  1  0
 10 11  1  0
 10 12  2  0
 12 13  1  0
 12 14  1  0
 14 15  1  0
 14 16  2  0
 16 17  1  0
 17 18  2  0
 17 19  1  0
 19 20  1  0
 20 21  1  0
 20 22  1  0
 20 23  1  0
 23 24  2  0
 24 25  1  0
 24 26  1  0
 26 27  1  0
 26 28  2  0
 28 29  1  0
 28 30  1  0
 30 31  1  0
 30 32  2  0
 32 33  1  0
  2 34  1  0
 34 35  2  0
 35 36  1  0
 35 37  1  0
 37 38  2  0
 38 39  1  0
 38 40  1  0
 40 41  1  0
 40 42  2  0
 42 43  1  0
 19  5  1  0
 32 23  1  0
 42 34  1  0
 16  7  1  0
M  END
>  <UniqueID>  (3) 
22

>  <SMILES>  (3) 
O=c1c2ccccc2nc(/C=C/c2cccnc2)n1Cc1ccc(Cl)cc1

>  <Energy>  (3) 
62.91553001668598

>  <Genealogy>  (3) 
O=c1c2ccccc2nc(/C=C/c2cccnc2)n1Cc1ccc(Cl)cc1 (cis-trans isomerization)
O=c1c2ccccc2nc(/C=C/c2cccnc2)n1Cc1ccc(Cl)cc1 (3D coordinates assigned)
O=c1c2ccccc2nc(/C=C/c2cccnc2)n1Cc1ccc(Cl)cc1 (optimized conformer: 62.91553001668598 kcal/mol)

>  <smiles>  (3) 
O=c1c2ccccc2nc(/C=C/c2cccnc2)n1Cc1ccc(Cl)cc1

>  <score_type>  (3) 
oracle

>  <origin>  (3) 
autodockgpu

>  <m_score__min__energy>  (3) 
-7.5499999999999998

>  <m_primary>  (3) 
energy

>  <meeko>  (3) 
{"free_energy": -7.45, "intermolecular_energy": -8.94, "internal_energy": -1.3, "cluster_size": 5, "cluster_id": 3, "rank_in_cluster": 3}

>  <energy>  (3) 
-7.53

>  <cluster_rmsd>  (3) 
0.19

>  <rmsd>  (3) 
269.94

>  <cluster>  (3) 
1

$$$$
AQNDWTVLZSMOQU-FMIVXFBMNA-N
     RDKit          3D

 43 46  0  0  0  0  0  0  0  0999 V2000
  143.3229   75.6280  218.1259 H   0  0  0  0  0  0  0  0  0  0  0  0
  143.4280   75.3280  219.1790 C   0  0  0  0  0  0  0  0  0  0  0  0
  142.6540   75.9230  220.0920 C   0  0  0  0  0  0  0  0  0  0  0  0
  142.8588   76.9616  220.3908 H   0  0  0  0  0  0  0  0  0  0  0  0
  141.5290   75.1940  220.6990 C   0  0  0  0  0  0  0  0  0  0  0  0
  141.7440   73.9170  221.1000 N   0  0  0  0  0  0  0  0  0  0  0  0
  140.7590   73.1640  221.6410 C   0  0  0  0  0  0  0  0  0  0  0  0
  141.0270   71.8550  222.0570 C   0  0  0  0  0  0  0  0  0  0  0  0
  142.0417   71.4429  221.9548 H   0  0  0  0  0  0  0  0  0  0  0  0
  140.0070   71.0710  222.6020 C   0  0  0  0  0  0  0  0  0  0  0  0
  140.2206   70.0439  222.9329 H   0  0  0  0  0  0  0  0  0  0  0  0
  138.7170   71.5900  222.7270 C   0  0  0  0  0  0  0  0  0  0  0  0
  137.9139   70.9679  223.1490 H   0  0  0  0  0  0  0  0  0  0  0  0
  138.4430   72.8990  222.3170 C   0  0  0  0  0  0  0  0  0  0  0  0
  137.4261   73.3057  222.4202 H   0  0  0  0  0  0  0  0  0  0  0  0
  139.4680   73.6970  221.7720 C   0  0  0  0  0  0  0  0  0  0  0  0
  139.2480   75.0180  221.3460 C   0  0  0  0  0  0  0  0  0  0  0  0
  138.0880   75.5090  221.4350 O   0  0  0  0  0  0  0  0  0  0  0  0
  140.2820   75.7640  220.8280 N   0  0  0  0  0  0  0  0  0  0  0  0
  140.0490   77.1610  220.3930 C   0  0  0  0  0  0  0  0  0  0  0  0
  140.4689   77.2970  219.3854 H   0  0  0  0  0  0  0  0  0  0  0  0
  138.9649   77.3475  220.3921 H   0  0  0  0  0  0  0  0  0  0  0  0
  140.7010   78.1470  221.3350 C   0  0  0  0  0  0  0  0  0  0  0  0
  141.2840   79.3250  220.8350 C   0  0  0  0  0  0  0  0  0  0  0  0
  141.2097   79.5632  219.7637 H   0  0  0  0  0  0  0  0  0  0  0  0
  141.9590   80.1950  221.7000 C   0  0  0  0  0  0  0  0  0  0  0  0
  142.4245   81.1098  221.3045 H   0  0  0  0  0  0  0  0  0  0  0  0
  142.0430   79.9040  223.0660 C   0  0  0  0  0  0  0  0  0  0  0  0
  142.9410   80.9610  224.1350 Cl  0  0  0  0  0  0  0  0  0  0  0  0
  141.4440   78.7450  223.5700 C   0  0  0  0  0  0  0  0  0  0  0  0
  141.5029   78.5203  224.6452 H   0  0  0  0  0  0  0  0  0  0  0  0
  140.7720   77.8730  222.7130 C   0  0  0  0  0  0  0  0  0  0  0  0
  140.2956   76.9673  223.1165 H   0  0  0  0  0  0  0  0  0  0  0  0
  144.4190   74.2850  219.5200 C   0  0  0  0  0  0  0  0  0  0  0  0
  144.9030   73.3680  218.5690 C   0  0  0  0  0  0  0  0  0  0  0  0
  144.5222   73.3960  217.5374 H   0  0  0  0  0  0  0  0  0  0  0  0
  145.8410   72.4460  218.9210 N   0  0  0  0  0  0  0  0  0  0  0  0
  146.3260   72.3710  220.1910 C   0  0  0  0  0  0  0  0  0  0  0  0
  147.0802   71.6119  220.4457 H   0  0  0  0  0  0  0  0  0  0  0  0
  145.8690   73.2550  221.1720 C   0  0  0  0  0  0  0  0  0  0  0  0
  146.2534   73.1919  222.2007 H   0  0  0  0  0  0  0  0  0  0  0  0
  144.9190   74.2190  220.8310 C   0  0  0  0  0  0  0  0  0  0  0  0
  144.5609   74.9290  221.5910 H   0  0  0  0  0  0  0  0  0  0  0  0
  1  2  1  0
  2  3  2  0
  3  4  1  0
  3  5  1  0
  5  6  2  0
  6  7  1  0
  7  8  2  0
  8  9  1  0
  8 10  1  0
 10 11  1  0
 10 12  2  0
 12 13  1  0
 12 14  1  0
 14 15  1  0
 14 16  2  0
 16 17  1  0
 17 18  2  0
 17 19  1  0
 19 20  1  0
 20 21  1  0
 20 22  1  0
 20 23  1  0
 23 24  2  0
 24 25  1  0
 24 26  1  0
 26 27  1  0
 26 28  2  0
 28 29  1  0
 28 30  1  0
 30 31  1  0
 30 32  2  0
 32 33  1  0
  2 34  1  0
 34 35  2  0
 35 36  1  0
 35 37  1  0
 37 38  2  0
 38 39  1  0
 38 40  1  0
 40 41  1  0
 40 42  2  0
 42 43  1  0
 19  5  1  0
 32 23  1  0
 42 34  1  0
 16  7  1  0
M  END
>  <UniqueID>  (4) 
22

>  <SMILES>  (4) 
O=c1c2ccccc2nc(/C=C/c2cccnc2)n1Cc1ccc(Cl)cc1

>  <Energy>  (4) 
62.91553001668598

>  <Genealogy>  (4) 
O=c1c2ccccc2nc(/C=C/c2cccnc2)n1Cc1ccc(Cl)cc1 (cis-trans isomerization)
O=c1c2ccccc2nc(/C=C/c2cccnc2)n1Cc1ccc(Cl)cc1 (3D coordinates assigned)
O=c1c2ccccc2nc(/C=C/c2cccnc2)n1Cc1ccc(Cl)cc1 (optimized conformer: 62.91553001668598 kcal/mol)

>  <smiles>  (4) 
O=c1c2ccccc2nc(/C=C/c2cccnc2)n1Cc1ccc(Cl)cc1

>  <score_type>  (4) 
oracle

>  <origin>  (4) 
autodockgpu

>  <m_score__min__energy>  (4) 
-7.5499999999999998

>  <m_primary>  (4) 
energy

>  <meeko>  (4) 
{"free_energy": -7.49, "intermolecular_energy": -8.98, "internal_energy": -1.33, "cluster_size": 5, "cluster_id": 1, "rank_in_cluster": 5}

>  <energy>  (4) 
-7.5

>  <cluster_rmsd>  (4) 
0.12

>  <rmsd>  (4) 
269.93

>  <cluster>  (4) 
1

$$$$
AQNDWTVLZSMOQU-FMIVXFBMNA-N
     RDKit          3D

 43 46  0  0  0  0  0  0  0  0999 V2000
  143.2968   75.5891  218.1230 H   0  0  0  0  0  0  0  0  0  0  0  0
  143.4090   75.2810  219.1730 C   0  0  0  0  0  0  0  0  0  0  0  0
  142.6440   75.8720  220.0970 C   0  0  0  0  0  0  0  0  0  0  0  0
  142.8508   76.9096  220.3980 H   0  0  0  0  0  0  0  0  0  0  0  0
  141.5270   75.1390  220.7120 C   0  0  0  0  0  0  0  0  0  0  0  0
  141.7310   73.8430  221.0560 N   0  0  0  0  0  0  0  0  0  0  0  0
  140.7510   73.0860  221.6000 C   0  0  0  0  0  0  0  0  0  0  0  0
  141.0080   71.7560  221.9550 C   0  0  0  0  0  0  0  0  0  0  0  0
  142.0108   71.3306  221.8020 H   0  0  0  0  0  0  0  0  0  0  0  0
  139.9930   70.9690  222.5030 C   0  0  0  0  0  0  0  0  0  0  0  0
  140.1982   69.9258  222.7852 H   0  0  0  0  0  0  0  0  0  0  0  0
  138.7180   71.5050  222.6930 C   0  0  0  0  0  0  0  0  0  0  0  0
  137.9182   70.8808  223.1181 H   0  0  0  0  0  0  0  0  0  0  0  0
  138.4550   72.8340  222.3440 C   0  0  0  0  0  0  0  0  0  0  0  0
  137.4496   73.2532  222.4972 H   0  0  0  0  0  0  0  0  0  0  0  0
  139.4750   73.6360  221.7970 C   0  0  0  0  0  0  0  0  0  0  0  0
  139.2660   74.9760  221.4300 C   0  0  0  0  0  0  0  0  0  0  0  0
  138.1190   75.4840  221.5790 O   0  0  0  0  0  0  0  0  0  0  0  0
  140.2960   75.7240  220.9070 N   0  0  0  0  0  0  0  0  0  0  0  0
  140.0740   77.1420  220.5360 C   0  0  0  0  0  0  0  0  0  0  0  0
  140.3955   77.2945  219.4951 H   0  0  0  0  0  0  0  0  0  0  0  0
  139.0033   77.3669  220.6498 H   0  0  0  0  0  0  0  0  0  0  0  0
  140.8550   78.0740  221.4340 C   0  0  0  0  0  0  0  0  0  0  0  0
  141.0350   77.7620  222.7930 C   0  0  0  0  0  0  0  0  0  0  0  0
  140.6631   76.8064  223.1912 H   0  0  0  0  0  0  0  0  0  0  0  0
  141.6870   78.6660  223.6400 C   0  0  0  0  0  0  0  0  0  0  0  0
  141.8160   78.4247  224.7054 H   0  0  0  0  0  0  0  0  0  0  0  0
  142.1750   79.8760  223.1340 C   0  0  0  0  0  0  0  0  0  0  0  0
  142.9350   81.0330  224.2070 Cl  0  0  0  0  0  0  0  0  0  0  0  0
  142.0180   80.1790  221.7770 C   0  0  0  0  0  0  0  0  0  0  0  0
  142.4091   81.1263  221.3775 H   0  0  0  0  0  0  0  0  0  0  0  0
  141.3670   79.2830  220.9300 C   0  0  0  0  0  0  0  0  0  0  0  0
  141.2533   79.5229  219.8625 H   0  0  0  0  0  0  0  0  0  0  0  0
  144.3990   74.2320  219.4990 C   0  0  0  0  0  0  0  0  0  0  0  0
  144.8850   73.3300  218.5350 C   0  0  0  0  0  0  0  0  0  0  0  0
  144.5069   73.3750  217.5030 H   0  0  0  0  0  0  0  0  0  0  0  0
  145.8210   72.4020  218.8740 N   0  0  0  0  0  0  0  0  0  0  0  0
  146.3040   72.3060  220.1430 C   0  0  0  0  0  0  0  0  0  0  0  0
  147.0571   71.5421  220.3868 H   0  0  0  0  0  0  0  0  0  0  0  0
  145.8460   73.1750  221.1370 C   0  0  0  0  0  0  0  0  0  0  0  0
  146.2289   73.0955  222.1651 H   0  0  0  0  0  0  0  0  0  0  0  0
  144.8970   74.1450  220.8100 C   0  0  0  0  0  0  0  0  0  0  0  0
  144.5381   74.8431  221.5806 H   0  0  0  0  0  0  0  0  0  0  0  0
  1  2  1  0
  2  3  2  0
  3  4  1  0
  3  5  1  0
  5  6  2  0
  6  7  1  0
  7  8  2  0
  8  9  1  0
  8 10  1  0
 10 11  1  0
 10 12  2  0
 12 13  1  0
 12 14  1  0
 14 15  1  0
 14 16  2  0
 16 17  1  0
 17 18  2  0
 17 19  1  0
 19 20  1  0
 20 21  1  0
 20 22  1  0
 20 23  1  0
 23 24  2  0
 24 25  1  0
 24 26  1  0
 26 27  1  0
 26 28  2  0
 28 29  1  0
 28 30  1  0
 30 31  1  0
 30 32  2  0
 32 33  1  0
  2 34  1  0
 34 35  2  0
 35 36  1  0
 35 37  1  0
 37 38  2  0
 38 39  1  0
 38 40  1  0
 40 41  1  0
 40 42  2  0
 42 43  1  0
 19  5  1  0
 32 23  1  0
 42 34  1  0
 16  7  1  0
M  END
>  <UniqueID>  (5) 
22

>  <SMILES>  (5) 
O=c1c2ccccc2nc(/C=C/c2cccnc2)n1Cc1ccc(Cl)cc1

>  <Energy>  (5) 
62.91553001668598

>  <Genealogy>  (5) 
O=c1c2ccccc2nc(/C=C/c2cccnc2)n1Cc1ccc(Cl)cc1 (cis-trans isomerization)
O=c1c2ccccc2nc(/C=C/c2cccnc2)n1Cc1ccc(Cl)cc1 (3D coordinates assigned)
O=c1c2ccccc2nc(/C=C/c2cccnc2)n1Cc1ccc(Cl)cc1 (optimized conformer: 62.91553001668598 kcal/mol)

>  <smiles>  (5) 
O=c1c2ccccc2nc(/C=C/c2cccnc2)n1Cc1ccc(Cl)cc1

>  <score_type>  (5) 
oracle

>  <origin>  (5) 
autodockgpu

>  <m_score__min__energy>  (5) 
-7.5499999999999998

>  <m_primary>  (5) 
energy

>  <meeko>  (5) 
{"free_energy": -7.55, "intermolecular_energy": -9.04, "internal_energy": -1.3, "cluster_size": 5, "cluster_id": 1, "rank_in_cluster": 2}

>  <energy>  (5) 
-7.49

>  <cluster_rmsd>  (5) 
0.13

>  <rmsd>  (5) 
269.9

>  <cluster>  (5) 
1

$$$$
AQNDWTVLZSMOQU-FMIVXFBMNA-N
     RDKit          3D

 43 46  0  0  0  0  0  0  0  0999 V2000
  143.5037   69.8575  220.3408 H   0  0  0  0  0  0  0  0  0  0  0  0
  143.2750   70.9110  220.1220 C   0  0  0  0  0  0  0  0  0  0  0  0
  142.0010   71.2560  219.9100 C   0  0  0  0  0  0  0  0  0  0  0  0
  141.3221   70.5585  219.3976 H   0  0  0  0  0  0  0  0  0  0  0  0
  141.5040   72.5660  220.3600 C   0  0  0  0  0  0  0  0  0  0  0  0
  142.2050   73.6690  219.9980 N   0  0  0  0  0  0  0  0  0  0  0  0
  141.8370   74.9090  220.3910 C   0  0  0  0  0  0  0  0  0  0  0  0
  142.5790   76.0230  219.9810 C   0  0  0  0  0  0  0  0  0  0  0  0
  143.4547   75.8899  219.3287 H   0  0  0  0  0  0  0  0  0  0  0  0
  142.2090   77.3030  220.3990 C   0  0  0  0  0  0  0  0  0  0  0  0
  142.7920   78.1771  220.0732 H   0  0  0  0  0  0  0  0  0  0  0  0
  141.1000   77.4750  221.2300 C   0  0  0  0  0  0  0  0  0  0  0  0
  140.8146   78.4838  221.5629 H   0  0  0  0  0  0  0  0  0  0  0  0
  140.3510   76.3660  221.6400 C   0  0  0  0  0  0  0  0  0  0  0  0
  139.4767   76.5048  222.2929 H   0  0  0  0  0  0  0  0  0  0  0  0
  140.7150   75.0730  221.2180 C   0  0  0  0  0  0  0  0  0  0  0  0
  139.9980   73.9260  221.5990 C   0  0  0  0  0  0  0  0  0  0  0  0
  138.9980   74.0490  222.3600 O   0  0  0  0  0  0  0  0  0  0  0  0
  140.3850   72.6830  221.1540 N   0  0  0  0  0  0  0  0  0  0  0  0
  139.6170   71.4780  221.5460 C   0  0  0  0  0  0  0  0  0  0  0  0
  138.5561   71.6339  221.3006 H   0  0  0  0  0  0  0  0  0  0  0  0
  140.0215   70.6152  220.9965 H   0  0  0  0  0  0  0  0  0  0  0  0
  139.7440   71.2020  223.0260 C   0  0  0  0  0  0  0  0  0  0  0  0
  140.7080   71.8800  223.7930 C   0  0  0  0  0  0  0  0  0  0  0  0
  141.3285   72.6611  223.3296 H   0  0  0  0  0  0  0  0  0  0  0  0
  140.8790   71.5620  225.1460 C   0  0  0  0  0  0  0  0  0  0  0  0
  141.6435   72.0842  225.7400 H   0  0  0  0  0  0  0  0  0  0  0  0
  140.0800   70.5820  225.7440 C   0  0  0  0  0  0  0  0  0  0  0  0
  140.3360   70.1420  227.4200 Cl  0  0  0  0  0  0  0  0  0  0  0  0
  139.1030   69.9220  224.9900 C   0  0  0  0  0  0  0  0  0  0  0  0
  138.4693   69.1570  225.4624 H   0  0  0  0  0  0  0  0  0  0  0  0
  138.9310   70.2320  223.6410 C   0  0  0  0  0  0  0  0  0  0  0  0
  138.1562   69.7158  223.0552 H   0  0  0  0  0  0  0  0  0  0  0  0
  144.3910   71.8800  220.0760 C   0  0  0  0  0  0  0  0  0  0  0  0
  145.1330   72.1190  218.9050 C   0  0  0  0  0  0  0  0  0  0  0  0
  144.9062   71.5547  217.9884 H   0  0  0  0  0  0  0  0  0  0  0  0
  146.1300   73.0450  218.9010 N   0  0  0  0  0  0  0  0  0  0  0  0
  146.4490   73.7550  220.0180 C   0  0  0  0  0  0  0  0  0  0  0  0
  147.2628   74.4943  219.9842 H   0  0  0  0  0  0  0  0  0  0  0  0
  145.7450   73.5470  221.2080 C   0  0  0  0  0  0  0  0  0  0  0  0
  146.0049   74.1131  222.1146 H   0  0  0  0  0  0  0  0  0  0  0  0
  144.7090   72.6130  221.2320 C   0  0  0  0  0  0  0  0  0  0  0  0
  144.1393   72.4498  222.1587 H   0  0  0  0  0  0  0  0  0  0  0  0
  1  2  1  0
  2  3  2  0
  3  4  1  0
  3  5  1  0
  5  6  2  0
  6  7  1  0
  7  8  2  0
  8  9  1  0
  8 10  1  0
 10 11  1  0
 10 12  2  0
 12 13  1  0
 12 14  1  0
 14 15  1  0
 14 16  2  0
 16 17  1  0
 17 18  2  0
 17 19  1  0
 19 20  1  0
 20 21  1  0
 20 22  1  0
 20 23  1  0
 23 24  2  0
 24 25  1  0
 24 26  1  0
 26 27  1  0
 26 28  2  0
 28 29  1  0
 28 30  1  0
 30 31  1  0
 30 32  2  0
 32 33  1  0
  2 34  1  0
 34 35  2  0
 35 36  1  0
 35 37  1  0
 37 38  2  0
 38 39  1  0
 38 40  1  0
 40 41  1  0
 40 42  2  0
 42 43  1  0
 19  5  1  0
 32 23  1  0
 42 34  1  0
 16  7  1  0
M  END
>  <UniqueID>  (6) 
22

>  <SMILES>  (6) 
O=c1c2ccccc2nc(/C=C/c2cccnc2)n1Cc1ccc(Cl)cc1

>  <Energy>  (6) 
62.91553001668598

>  <Genealogy>  (6) 
O=c1c2ccccc2nc(/C=C/c2cccnc2)n1Cc1ccc(Cl)cc1 (cis-trans isomerization)
O=c1c2ccccc2nc(/C=C/c2cccnc2)n1Cc1ccc(Cl)cc1 (3D coordinates assigned)
O=c1c2ccccc2nc(/C=C/c2cccnc2)n1Cc1ccc(Cl)cc1 (optimized conformer: 62.91553001668598 kcal/mol)

>  <smiles>  (6) 
O=c1c2ccccc2nc(/C=C/c2cccnc2)n1Cc1ccc(Cl)cc1

>  <score_type>  (6) 
oracle

>  <origin>  (6) 
autodockgpu

>  <m_score__min__energy>  (6) 
-7.5499999999999998

>  <m_primary>  (6) 
energy

>  <meeko>  (6) 
{"free_energy": -7.52, "intermolecular_energy": -9.01, "internal_energy": -1.41, "cluster_size": 5, "cluster_id": 3, "rank_in_cluster": 1}

>  <energy>  (6) 
-7.54

>  <cluster_rmsd>  (6) 
0.0

>  <rmsd>  (6) 
270.24

>  <cluster>  (6) 
2

$$$$
AQNDWTVLZSMOQU-FMIVXFBMNA-N
     RDKit          3D

 43 46  0  0  0  0  0  0  0  0999 V2000
  139.6087   77.0782  220.4848 H   0  0  0  0  0  0  0  0  0  0  0  0
  140.1700   76.8590  221.4050 C   0  0  0  0  0  0  0  0  0  0  0  0
  140.0790   75.6330  221.9310 C   0  0  0  0  0  0  0  0  0  0  0  0
  139.2554   75.3917  222.6191 H   0  0  0  0  0  0  0  0  0  0  0  0
  141.0760   74.6060  221.5930 C   0  0  0  0  0  0  0  0  0  0  0  0
  142.3070   75.0210  221.2030 N   0  0  0  0  0  0  0  0  0  0  0  0
  143.2750   74.1470  220.8450 C   0  0  0  0  0  0  0  0  0  0  0  0
  144.5370   74.6170  220.4640 C   0  0  0  0  0  0  0  0  0  0  0  0
  144.7448   75.6972  220.4669 H   0  0  0  0  0  0  0  0  0  0  0  0
  145.5330   73.7160  220.0800 C   0  0  0  0  0  0  0  0  0  0  0  0
  146.5252   74.0870  219.7837 H   0  0  0  0  0  0  0  0  0  0  0  0
  145.2700   72.3450  220.0720 C   0  0  0  0  0  0  0  0  0  0  0  0
  146.0539   71.6379  219.7630 H   0  0  0  0  0  0  0  0  0  0  0  0
  144.0120   71.8680  220.4560 C   0  0  0  0  0  0  0  0  0  0  0  0
  143.8093   70.7869  220.4501 H   0  0  0  0  0  0  0  0  0  0  0  0
  143.0050   72.7700  220.8500 C   0  0  0  0  0  0  0  0  0  0  0  0
  141.7260   72.3450  221.2450 C   0  0  0  0  0  0  0  0  0  0  0  0
  141.4550   71.1120  221.2360 O   0  0  0  0  0  0  0  0  0  0  0  0
  140.7750   73.2630  221.6310 N   0  0  0  0  0  0  0  0  0  0  0  0
  139.4320   72.8100  222.0620 C   0  0  0  0  0  0  0  0  0  0  0  0
  138.8449   73.6835  222.3818 H   0  0  0  0  0  0  0  0  0  0  0  0
  138.9476   72.3045  221.2136 H   0  0  0  0  0  0  0  0  0  0  0  0
  139.5240   71.8310  223.2110 C   0  0  0  0  0  0  0  0  0  0  0  0
  140.5630   71.9400  224.1520 C   0  0  0  0  0  0  0  0  0  0  0  0
  141.2743   72.7768  224.0908 H   0  0  0  0  0  0  0  0  0  0  0  0
  140.6930   70.9840  225.1670 C   0  0  0  0  0  0  0  0  0  0  0  0
  141.5138   71.0643  225.8949 H   0  0  0  0  0  0  0  0  0  0  0  0
  139.7810   69.9270  225.2570 C   0  0  0  0  0  0  0  0  0  0  0  0
  139.9820   68.6980  226.4880 Cl  0  0  0  0  0  0  0  0  0  0  0  0
  138.7320   69.8290  224.3370 C   0  0  0  0  0  0  0  0  0  0  0  0
  138.0097   69.0029  224.4139 H   0  0  0  0  0  0  0  0  0  0  0  0
  138.6000   70.7770  223.3220 C   0  0  0  0  0  0  0  0  0  0  0  0
  137.7692   70.6995  222.6052 H   0  0  0  0  0  0  0  0  0  0  0  0
  140.9910   77.9340  222.0040 C   0  0  0  0  0  0  0  0  0  0  0  0
  141.4010   77.9070  223.3490 C   0  0  0  0  0  0  0  0  0  0  0  0
  141.0869   77.0789  224.0014 H   0  0  0  0  0  0  0  0  0  0  0  0
  142.1850   78.9020  223.8460 N   0  0  0  0  0  0  0  0  0  0  0  0
  142.5830   79.9500  223.0750 C   0  0  0  0  0  0  0  0  0  0  0  0
  143.2131   80.7409  223.5080 H   0  0  0  0  0  0  0  0  0  0  0  0
  142.1940   80.0250  221.7350 C   0  0  0  0  0  0  0  0  0  0  0  0
  142.5073   80.8750  221.1110 H   0  0  0  0  0  0  0  0  0  0  0  0
  141.4030   79.0080  221.1980 C   0  0  0  0  0  0  0  0  0  0  0  0
  141.1015   79.0478  220.1409 H   0  0  0  0  0  0  0  0  0  0  0  0
  1  2  1  0
  2  3  2  0
  3  4  1  0
  3  5  1  0
  5  6  2  0
  6  7  1  0
  7  8  2  0
  8  9  1  0
  8 10  1  0
 10 11  1  0
 10 12  2  0
 12 13  1  0
 12 14  1  0
 14 15  1  0
 14 16  2  0
 16 17  1  0
 17 18  2  0
 17 19  1  0
 19 20  1  0
 20 21  1  0
 20 22  1  0
 20 23  1  0
 23 24  2  0
 24 25  1  0
 24 26  1  0
 26 27  1  0
 26 28  2  0
 28 29  1  0
 28 30  1  0
 30 31  1  0
 30 32  2  0
 32 33  1  0
  2 34  1  0
 34 35  2  0
 35 36  1  0
 35 37  1  0
 37 38  2  0
 38 39  1  0
 38 40  1  0
 40 41  1  0
 40 42  2  0
 42 43  1  0
 19  5  1  0
 32 23  1  0
 42 34  1  0
 16  7  1  0
M  END
>  <UniqueID>  (7) 
22

>  <SMILES>  (7) 
O=c1c2ccccc2nc(/C=C/c2cccnc2)n1Cc1ccc(Cl)cc1

>  <Energy>  (7) 
62.91553001668598

>  <Genealogy>  (7) 
O=c1c2ccccc2nc(/C=C/c2cccnc2)n1Cc1ccc(Cl)cc1 (cis-trans isomerization)
O=c1c2ccccc2nc(/C=C/c2cccnc2)n1Cc1ccc(Cl)cc1 (3D coordinates assigned)
O=c1c2ccccc2nc(/C=C/c2cccnc2)n1Cc1ccc(Cl)cc1 (optimized conformer: 62.91553001668598 kcal/mol)

>  <smiles>  (7) 
O=c1c2ccccc2nc(/C=C/c2cccnc2)n1Cc1ccc(Cl)cc1

>  <score_type>  (7) 
oracle

>  <origin>  (7) 
autodockgpu

>  <m_score__min__energy>  (7) 
-7.5499999999999998

>  <m_primary>  (7) 
energy

>  <meeko>  (7) 
{"free_energy": -7.51, "intermolecular_energy": -9.0, "internal_energy": -1.13, "cluster_size": 4, "cluster_id": 2, "rank_in_cluster": 2}

>  <energy>  (7) 
-7.51

>  <cluster_rmsd>  (7) 
0.19

>  <rmsd>  (7) 
270.24

>  <cluster>  (7) 
2

$$$$
AQNDWTVLZSMOQU-FMIVXFBMNA-N
     RDKit          3D

 43 46  0  0  0  0  0  0  0  0999 V2000
  135.3959   69.3668  222.2672 H   0  0  0  0  0  0  0  0  0  0  0  0
  135.8980   69.2790  223.2420 C   0  0  0  0  0  0  0  0  0  0  0  0
  137.1560   68.8270  223.2730 C   0  0  0  0  0  0  0  0  0  0  0  0
  137.4341   67.9394  222.6858 H   0  0  0  0  0  0  0  0  0  0  0  0
  138.1700   69.5130  224.0900 C   0  0  0  0  0  0  0  0  0  0  0  0
  138.3700   69.0700  225.3550 N   0  0  0  0  0  0  0  0  0  0  0  0
  139.2600   69.6590  226.1850 C   0  0  0  0  0  0  0  0  0  0  0  0
  139.4490   69.1600  227.4800 C   0  0  0  0  0  0  0  0  0  0  0  0
  138.8817   68.2803  227.8179 H   0  0  0  0  0  0  0  0  0  0  0  0
  140.3570   69.7780  228.3430 C   0  0  0  0  0  0  0  0  0  0  0  0
  140.5063   69.3824  229.3585 H   0  0  0  0  0  0  0  0  0  0  0  0
  141.0750   70.8970  227.9180 C   0  0  0  0  0  0  0  0  0  0  0  0
  141.7844   71.3857  228.6021 H   0  0  0  0  0  0  0  0  0  0  0  0
  140.8950   71.3990  226.6240 C   0  0  0  0  0  0  0  0  0  0  0  0
  141.4648   72.2795  226.2921 H   0  0  0  0  0  0  0  0  0  0  0  0
  139.9850   70.7780  225.7460 C   0  0  0  0  0  0  0  0  0  0  0  0
  139.7670   71.2400  224.4380 C   0  0  0  0  0  0  0  0  0  0  0  0
  140.3930   72.2580  224.0310 O   0  0  0  0  0  0  0  0  0  0  0  0
  138.8750   70.5950  223.6120 N   0  0  0  0  0  0  0  0  0  0  0  0
  138.6580   71.0760  222.2270 C   0  0  0  0  0  0  0  0  0  0  0  0
  139.6175   71.0638  221.6893 H   0  0  0  0  0  0  0  0  0  0  0  0
  137.9294   70.4115  221.7395 H   0  0  0  0  0  0  0  0  0  0  0  0
  138.1040   72.4820  222.2130 C   0  0  0  0  0  0  0  0  0  0  0  0
  138.9240   73.5630  221.8390 C   0  0  0  0  0  0  0  0  0  0  0  0
  139.9519   73.3793  221.4931 H   0  0  0  0  0  0  0  0  0  0  0  0
  138.4320   74.8720  221.9070 C   0  0  0  0  0  0  0  0  0  0  0  0
  139.0790   75.7164  221.6270 H   0  0  0  0  0  0  0  0  0  0  0  0
  137.1200   75.1090  222.3300 C   0  0  0  0  0  0  0  0  0  0  0  0
  136.5270   76.7500  222.4740 Cl  0  0  0  0  0  0  0  0  0  0  0  0
  136.2940   74.0350  222.6800 C   0  0  0  0  0  0  0  0  0  0  0  0
  135.2596   74.2212  223.0046 H   0  0  0  0  0  0  0  0  0  0  0  0
  136.7800   72.7280  222.6180 C   0  0  0  0  0  0  0  0  0  0  0  0
  136.1244   71.8867  222.8871 H   0  0  0  0  0  0  0  0  0  0  0  0
  135.1510   69.6660  224.4570 C   0  0  0  0  0  0  0  0  0  0  0  0
  134.6000   68.7160  225.3360 C   0  0  0  0  0  0  0  0  0  0  0  0
  134.6964   67.6431  225.1134 H   0  0  0  0  0  0  0  0  0  0  0  0
  133.9480   69.1190  226.4610 N   0  0  0  0  0  0  0  0  0  0  0  0
  133.7970   70.4370  226.7650 C   0  0  0  0  0  0  0  0  0  0  0  0
  133.2618   70.7310  227.6799 H   0  0  0  0  0  0  0  0  0  0  0  0
  134.3200   71.4180  225.9180 C   0  0  0  0  0  0  0  0  0  0  0  0
  134.1926   72.4843  226.1563 H   0  0  0  0  0  0  0  0  0  0  0  0
  135.0060   71.0290  224.7660 C   0  0  0  0  0  0  0  0  0  0  0  0
  135.4340   71.7914  224.0986 H   0  0  0  0  0  0  0  0  0  0  0  0
  1  2  1  0
  2  3  2  0
  3  4  1  0
  3  5  1  0
  5  6  2  0
  6  7  1  0
  7  8  2  0
  8  9  1  0
  8 10  1  0
 10 11  1  0
 10 12  2  0
 12 13  1  0
 12 14  1  0
 14 15  1  0
 14 16  2  0
 16 17  1  0
 17 18  2  0
 17 19  1  0
 19 20  1  0
 20 21  1  0
 20 22  1  0
 20 23  1  0
 23 24  2  0
 24 25  1  0
 24 26  1  0
 26 27  1  0
 26 28  2  0
 28 29  1  0
 28 30  1  0
 30 31  1  0
 30 32  2  0
 32 33  1  0
  2 34  1  0
 34 35  2  0
 35 36  1  0
 35 37  1  0
 37 38  2  0
 38 39  1  0
 38 40  1  0
 40 41  1  0
 40 42  2  0
 42 43  1  0
 19  5  1  0
 32 23  1  0
 42 34  1  0
 16  7  1  0
M  END
>  <UniqueID>  (8) 
22

>  <SMILES>  (8) 
O=c1c2ccccc2nc(/C=C/c2cccnc2)n1Cc1ccc(Cl)cc1

>  <Energy>  (8) 
62.91553001668598

>  <Genealogy>  (8) 
O=c1c2ccccc2nc(/C=C/c2cccnc2)n1Cc1ccc(Cl)cc1 (cis-trans isomerization)
O=c1c2ccccc2nc(/C=C/c2cccnc2)n1Cc1ccc(Cl)cc1 (3D coordinates assigned)
O=c1c2ccccc2nc(/C=C/c2cccnc2)n1Cc1ccc(Cl)cc1 (optimized conformer: 62.91553001668598 kcal/mol)

>  <smiles>  (8) 
O=c1c2ccccc2nc(/C=C/c2cccnc2)n1Cc1ccc(Cl)cc1

>  <score_type>  (8) 
oracle

>  <origin>  (8) 
autodockgpu

>  <m_score__min__energy>  (8) 
-7.5499999999999998

>  <m_primary>  (8) 
energy

>  <meeko>  (8) 
{"free_energy": -6.9, "intermolecular_energy": -8.39, "internal_energy": -1.7, "cluster_size": 1, "cluster_id": 7, "rank_in_cluster": 1}

>  <energy>  (8) 
-7.5

>  <cluster_rmsd>  (8) 
0.7

>  <rmsd>  (8) 
270.09

>  <cluster>  (8) 
2

$$$$
AQNDWTVLZSMOQU-FMIVXFBMNA-N
     RDKit          3D

 43 46  0  0  0  0  0  0  0  0999 V2000
  139.5533   76.2993  223.5337 H   0  0  0  0  0  0  0  0  0  0  0  0
  140.0470   76.4340  222.5600 C   0  0  0  0  0  0  0  0  0  0  0  0
  139.8790   75.4940  221.6240 C   0  0  0  0  0  0  0  0  0  0  0  0
  138.9490   75.4649  221.0372 H   0  0  0  0  0  0  0  0  0  0  0  0
  140.9340   74.4980  221.3760 C   0  0  0  0  0  0  0  0  0  0  0  0
  142.1570   74.9500  221.0020 N   0  0  0  0  0  0  0  0  0  0  0  0
  143.1750   74.1040  220.7250 C   0  0  0  0  0  0  0  0  0  0  0  0
  144.4270   74.6120  220.3580 C   0  0  0  0  0  0  0  0  0  0  0  0
  144.5847   75.6994  220.3059 H   0  0  0  0  0  0  0  0  0  0  0  0
  145.4760   73.7400  220.0580 C   0  0  0  0  0  0  0  0  0  0  0  0
  146.4602   74.1411  219.7743 H   0  0  0  0  0  0  0  0  0  0  0  0
  145.2760   72.3590  220.1180 C   0  0  0  0  0  0  0  0  0  0  0  0
  146.1012   71.6742  219.8729 H   0  0  0  0  0  0  0  0  0  0  0  0
  144.0290   71.8440  220.4890 C   0  0  0  0  0  0  0  0  0  0  0  0
  143.8765   70.7558  220.5386 H   0  0  0  0  0  0  0  0  0  0  0  0
  142.9690   72.7180  220.7990 C   0  0  0  0  0  0  0  0  0  0  0  0
  141.6970   72.2550  221.1770 C   0  0  0  0  0  0  0  0  0  0  0  0
  141.4840   71.0120  221.2280 O   0  0  0  0  0  0  0  0  0  0  0  0
  140.6930   73.1460  221.4800 N   0  0  0  0  0  0  0  0  0  0  0  0
  139.3580   72.6540  221.8930 C   0  0  0  0  0  0  0  0  0  0  0  0
  138.7252   73.5141  222.1571 H   0  0  0  0  0  0  0  0  0  0  0  0
  138.9209   72.0917  221.0547 H   0  0  0  0  0  0  0  0  0  0  0  0
  139.4570   71.7310  223.0860 C   0  0  0  0  0  0  0  0  0  0  0  0
  140.4790   71.9080  224.0350 C   0  0  0  0  0  0  0  0  0  0  0  0
  141.1703   72.7590  223.9457 H   0  0  0  0  0  0  0  0  0  0  0  0
  140.6180   71.0020  225.0940 C   0  0  0  0  0  0  0  0  0  0  0  0
  141.4266   71.1350  225.8278 H   0  0  0  0  0  0  0  0  0  0  0  0
  139.7300   69.9280  225.2200 C   0  0  0  0  0  0  0  0  0  0  0  0
  139.9430   68.7610  226.5080 Cl  0  0  0  0  0  0  0  0  0  0  0  0
  138.6970   69.7630  224.2910 C   0  0  0  0  0  0  0  0  0  0  0  0
  137.9939   68.9235  224.3952 H   0  0  0  0  0  0  0  0  0  0  0  0
  138.5570   70.6610  223.2330 C   0  0  0  0  0  0  0  0  0  0  0  0
  137.7382   70.5314  222.5099 H   0  0  0  0  0  0  0  0  0  0  0  0
  140.8660   77.6460  222.3460 C   0  0  0  0  0  0  0  0  0  0  0  0
  141.0660   78.2040  221.0700 C   0  0  0  0  0  0  0  0  0  0  0  0
  140.6274   77.7194  220.1853 H   0  0  0  0  0  0  0  0  0  0  0  0
  141.8000   79.3410  220.9260 N   0  0  0  0  0  0  0  0  0  0  0  0
  142.3700   79.9620  221.9950 C   0  0  0  0  0  0  0  0  0  0  0  0
  142.9612   80.8775  221.8456 H   0  0  0  0  0  0  0  0  0  0  0  0
  142.2070   79.4410  223.2810 C   0  0  0  0  0  0  0  0  0  0  0  0
  142.6737   79.9361  224.1453 H   0  0  0  0  0  0  0  0  0  0  0  0
  141.4450   78.2850  223.4560 C   0  0  0  0  0  0  0  0  0  0  0  0
  141.2972   77.8729  224.4651 H   0  0  0  0  0  0  0  0  0  0  0  0
  1  2  1  0
  2  3  2  0
  3  4  1  0
  3  5  1  0
  5  6  2  0
  6  7  1  0
  7  8  2  0
  8  9  1  0
  8 10  1  0
 10 11  1  0
 10 12  2  0
 12 13  1  0
 12 14  1  0
 14 15  1  0
 14 16  2  0
 16 17  1  0
 17 18  2  0
 17 19  1  0
 19 20  1  0
 20 21  1  0
 20 22  1  0
 20 23  1  0
 23 24  2  0
 24 25  1  0
 24 26  1  0
 26 27  1  0
 26 28  2  0
 28 29  1  0
 28 30  1  0
 30 31  1  0
 30 32  2  0
 32 33  1  0
  2 34  1  0
 34 35  2  0
 35 36  1  0
 35 37  1  0
 37 38  2  0
 38 39  1  0
 38 40  1  0
 40 41  1  0
 40 42  2  0
 42 43  1  0
 19  5  1  0
 32 23  1  0
 42 34  1  0
 16  7  1  0
M  END
>  <UniqueID>  (9) 
22

>  <SMILES>  (9) 
O=c1c2ccccc2nc(/C=C/c2cccnc2)n1Cc1ccc(Cl)cc1

>  <Energy>  (9) 
62.91553001668598

>  <Genealogy>  (9) 
O=c1c2ccccc2nc(/C=C/c2cccnc2)n1Cc1ccc(Cl)cc1 (cis-trans isomerization)
O=c1c2ccccc2nc(/C=C/c2cccnc2)n1Cc1ccc(Cl)cc1 (3D coordinates assigned)
O=c1c2ccccc2nc(/C=C/c2cccnc2)n1Cc1ccc(Cl)cc1 (optimized conformer: 62.91553001668598 kcal/mol)

>  <smiles>  (9) 
O=c1c2ccccc2nc(/C=C/c2cccnc2)n1Cc1ccc(Cl)cc1

>  <score_type>  (9) 
oracle

>  <origin>  (9) 
autodockgpu

>  <m_score__min__energy>  (9) 
-7.5499999999999998

>  <m_primary>  (9) 
energy

>  <meeko>  (9) 
{"free_energy": -7.5, "intermolecular_energy": -8.99, "internal_energy": -1.17, "cluster_size": 4, "cluster_id": 2, "rank_in_cluster": 3}

>  <energy>  (9) 
-7.47

>  <cluster_rmsd>  (9) 
1.09

>  <rmsd>  (9) 
270.09

>  <cluster>  (9) 
2

$$$$
AQNDWTVLZSMOQU-FMIVXFBMNA-N
     RDKit          3D

 43 46  0  0  0  0  0  0  0  0999 V2000
  143.4923   69.9415  220.3773 H   0  0  0  0  0  0  0  0  0  0  0  0
  143.3140   70.9920  220.1040 C   0  0  0  0  0  0  0  0  0  0  0  0
  142.0650   71.3730  219.8150 C   0  0  0  0  0  0  0  0  0  0  0  0
  141.4165   70.7161  219.2167 H   0  0  0  0  0  0  0  0  0  0  0  0
  141.5550   72.6670  220.2940 C   0  0  0  0  0  0  0  0  0  0  0  0
  142.2490   73.7840  219.9630 N   0  0  0  0  0  0  0  0  0  0  0  0
  141.8690   75.0110  220.3840 C   0  0  0  0  0  0  0  0  0  0  0  0
  142.6040   76.1410  220.0060 C   0  0  0  0  0  0  0  0  0  0  0  0
  143.4845   76.0312  219.3559 H   0  0  0  0  0  0  0  0  0  0  0  0
  142.2210   77.4070  220.4530 C   0  0  0  0  0  0  0  0  0  0  0  0
  142.7979   78.2937  220.1515 H   0  0  0  0  0  0  0  0  0  0  0  0
  141.1070   77.5490  221.2820 C   0  0  0  0  0  0  0  0  0  0  0  0
  140.8118   78.5470  221.6382 H   0  0  0  0  0  0  0  0  0  0  0  0
  140.3650   76.4250  221.6610 C   0  0  0  0  0  0  0  0  0  0  0  0
  139.4867   76.5411  222.3130 H   0  0  0  0  0  0  0  0  0  0  0  0
  140.7410   75.1450  221.2090 C   0  0  0  0  0  0  0  0  0  0  0  0
  140.0320   73.9840  221.5580 C   0  0  0  0  0  0  0  0  0  0  0  0
  139.0270   74.0800  222.3160 O   0  0  0  0  0  0  0  0  0  0  0  0
  140.4310   72.7550  221.0850 N   0  0  0  0  0  0  0  0  0  0  0  0
  139.6700   71.5340  221.4420 C   0  0  0  0  0  0  0  0  0  0  0  0
  138.5945   71.7373  221.3328 H   0  0  0  0  0  0  0  0  0  0  0  0
  139.9824   70.7211  220.7700 H   0  0  0  0  0  0  0  0  0  0  0  0
  139.9490   71.1100  222.8660 C   0  0  0  0  0  0  0  0  0  0  0  0
  139.4280   69.9000  223.3590 C   0  0  0  0  0  0  0  0  0  0  0  0
  138.8702   69.2284  222.6898 H   0  0  0  0  0  0  0  0  0  0  0  0
  139.6190   69.5500  224.7010 C   0  0  0  0  0  0  0  0  0  0  0  0
  139.2004   68.6090  225.0874 H   0  0  0  0  0  0  0  0  0  0  0  0
  140.3410   70.3940  225.5520 C   0  0  0  0  0  0  0  0  0  0  0  0
  140.5240   69.9850  227.2450 Cl  0  0  0  0  0  0  0  0  0  0  0  0
  140.8800   71.5870  225.0590 C   0  0  0  0  0  0  0  0  0  0  0  0
  141.4542   72.2467  225.7262 H   0  0  0  0  0  0  0  0  0  0  0  0
  140.6910   71.9420  223.7230 C   0  0  0  0  0  0  0  0  0  0  0  0
  141.1244   72.8770  223.3384 H   0  0  0  0  0  0  0  0  0  0  0  0
  144.4660   71.9180  220.0730 C   0  0  0  0  0  0  0  0  0  0  0  0
  145.2210   72.1400  218.9070 C   0  0  0  0  0  0  0  0  0  0  0  0
  144.9762   71.5946  217.9836 H   0  0  0  0  0  0  0  0  0  0  0  0
  146.2530   73.0270  218.9170 N   0  0  0  0  0  0  0  0  0  0  0  0
  146.5940   73.7120  220.0430 C   0  0  0  0  0  0  0  0  0  0  0  0
  147.4358   74.4197  220.0203 H   0  0  0  0  0  0  0  0  0  0  0  0
  145.8780   73.5190  221.2280 C   0  0  0  0  0  0  0  0  0  0  0  0
  146.1561   74.0650  222.1416 H   0  0  0  0  0  0  0  0  0  0  0  0
  144.8070   72.6260  221.2380 C   0  0  0  0  0  0  0  0  0  0  0  0
  144.2273   72.4753  222.1607 H   0  0  0  0  0  0  0  0  0  0  0  0
  1  2  1  0
  2  3  2  0
  3  4  1  0
  3  5  1  0
  5  6  2  0
  6  7  1  0
  7  8  2  0
  8  9  1  0
  8 10  1  0
 10 11  1  0
 10 12  2  0
 12 13  1  0
 12 14  1  0
 14 15  1  0
 14 16  2  0
 16 17  1  0
 17 18  2  0
 17 19  1  0
 19 20  1  0
 20 21  1  0
 20 22  1  0
 20 23  1  0
 23 24  2  0
 24 25  1  0
 24 26  1  0
 26 27  1  0
 26 28  2  0
 28 29  1  0
 28 30  1  0
 30 31  1  0
 30 32  2  0
 32 33  1  0
  2 34  1  0
 34 35  2  0
 35 36  1  0
 35 37  1  0
 37 38  2  0
 38 39  1  0
 38 40  1  0
 40 41  1  0
 40 42  2  0
 42 43  1  0
 19  5  1  0
 32 23  1  0
 42 34  1  0
 16  7  1  0
M  END
>  <UniqueID>  (10) 
22

>  <SMILES>  (10) 
O=c1c2ccccc2nc(/C=C/c2cccnc2)n1Cc1ccc(Cl)cc1

>  <Energy>  (10) 
62.91553001668598

>  <Genealogy>  (10) 
O=c1c2ccccc2nc(/C=C/c2cccnc2)n1Cc1ccc(Cl)cc1 (cis-trans isomerization)
O=c1c2ccccc2nc(/C=C/c2cccnc2)n1Cc1ccc(Cl)cc1 (3D coordinates assigned)
O=c1c2ccccc2nc(/C=C/c2cccnc2)n1Cc1ccc(Cl)cc1 (optimized conformer: 62.91553001668598 kcal/mol)

>  <smiles>  (10) 
O=c1c2ccccc2nc(/C=C/c2cccnc2)n1Cc1ccc(Cl)cc1

>  <score_type>  (10) 
oracle

>  <origin>  (10) 
autodockgpu

>  <m_score__min__energy>  (10) 
-7.5499999999999998

>  <m_primary>  (10) 
energy

>  <meeko>  (10) 
{"free_energy": -7.44, "intermolecular_energy": -8.93, "internal_energy": -1.45, "cluster_size": 5, "cluster_id": 3, "rank_in_cluster": 4}

>  <energy>  (10) 
-7.52

>  <cluster_rmsd>  (10) 
0.0

>  <rmsd>  (10) 
269.62

>  <cluster>  (10) 
3

$$$$
AQNDWTVLZSMOQU-FMIVXFBMNA-N
     RDKit          3D

 43 46  0  0  0  0  0  0  0  0999 V2000
  139.7051   77.0162  220.4660 H   0  0  0  0  0  0  0  0  0  0  0  0
  140.2580   76.8320  221.3990 C   0  0  0  0  0  0  0  0  0  0  0  0
  140.1860   75.6180  221.9540 C   0  0  0  0  0  0  0  0  0  0  0  0
  139.4104   75.4031  222.7039 H   0  0  0  0  0  0  0  0  0  0  0  0
  141.1410   74.5680  221.5650 C   0  0  0  0  0  0  0  0  0  0  0  0
  142.3590   74.9550  221.1110 N   0  0  0  0  0  0  0  0  0  0  0  0
  143.2870   74.0600  220.7050 C   0  0  0  0  0  0  0  0  0  0  0  0
  144.5390   74.5010  220.2590 C   0  0  0  0  0  0  0  0  0  0  0  0
  144.7722   75.5760  220.2512 H   0  0  0  0  0  0  0  0  0  0  0  0
  145.4920   73.5770  219.8240 C   0  0  0  0  0  0  0  0  0  0  0  0
  146.4761   73.9250  219.4771 H   0  0  0  0  0  0  0  0  0  0  0  0
  145.1970   72.2120  219.8290 C   0  0  0  0  0  0  0  0  0  0  0  0
  145.9472   71.4873  219.4797 H   0  0  0  0  0  0  0  0  0  0  0  0
  143.9500   71.7640  220.2770 C   0  0  0  0  0  0  0  0  0  0  0  0
  143.7219   70.6879  220.2810 H   0  0  0  0  0  0  0  0  0  0  0  0
  142.9860   72.6890  220.7230 C   0  0  0  0  0  0  0  0  0  0  0  0
  141.7190   72.2930  221.1830 C   0  0  0  0  0  0  0  0  0  0  0  0
  141.4200   71.0670  221.1870 O   0  0  0  0  0  0  0  0  0  0  0  0
  140.8110   73.2320  221.6180 N   0  0  0  0  0  0  0  0  0  0  0  0
  139.4820   72.8100  222.1180 C   0  0  0  0  0  0  0  0  0  0  0  0
  138.9338   73.6964  222.4699 H   0  0  0  0  0  0  0  0  0  0  0  0
  138.9419   72.3189  221.2951 H   0  0  0  0  0  0  0  0  0  0  0  0
  139.6100   71.8260  223.2580 C   0  0  0  0  0  0  0  0  0  0  0  0
  138.6140   70.8560  223.4710 C   0  0  0  0  0  0  0  0  0  0  0  0
  137.7718   70.7695  222.7687 H   0  0  0  0  0  0  0  0  0  0  0  0
  138.6940   70.0000  224.5770 C   0  0  0  0  0  0  0  0  0  0  0  0
  137.9069   69.2511  224.7491 H   0  0  0  0  0  0  0  0  0  0  0  0
  139.7720   70.0950  225.4630 C   0  0  0  0  0  0  0  0  0  0  0  0
  139.8390   69.0660  226.8780 Cl  0  0  0  0  0  0  0  0  0  0  0  0
  140.7770   71.0430  225.2400 C   0  0  0  0  0  0  0  0  0  0  0  0
  141.6290   71.1125  225.9323 H   0  0  0  0  0  0  0  0  0  0  0  0
  140.7010   71.9000  224.1420 C   0  0  0  0  0  0  0  0  0  0  0  0
  141.4984   72.6372  223.9668 H   0  0  0  0  0  0  0  0  0  0  0  0
  141.0470   77.9390  221.9820 C   0  0  0  0  0  0  0  0  0  0  0  0
  141.4440   77.9510  223.3310 C   0  0  0  0  0  0  0  0  0  0  0  0
  141.1432   77.1295  223.9978 H   0  0  0  0  0  0  0  0  0  0  0  0
  142.1990   78.9750  223.8150 N   0  0  0  0  0  0  0  0  0  0  0  0
  142.5800   80.0160  223.0240 C   0  0  0  0  0  0  0  0  0  0  0  0
  143.1866   80.8312  223.4453 H   0  0  0  0  0  0  0  0  0  0  0  0
  142.2030   80.0520  221.6790 C   0  0  0  0  0  0  0  0  0  0  0  0
  142.5024   80.8953  221.0393 H   0  0  0  0  0  0  0  0  0  0  0  0
  141.4420   79.0050  221.1570 C   0  0  0  0  0  0  0  0  0  0  0  0
  141.1507   79.0146  220.0963 H   0  0  0  0  0  0  0  0  0  0  0  0
  1  2  1  0
  2  3  2  0
  3  4  1  0
  3  5  1  0
  5  6  2  0
  6  7  1  0
  7  8  2  0
  8  9  1  0
  8 10  1  0
 10 11  1  0
 10 12  2  0
 12 13  1  0
 12 14  1  0
 14 15  1  0
 14 16  2  0
 16 17  1  0
 17 18  2  0
 17 19  1  0
 19 20  1  0
 20 21  1  0
 20 22  1  0
 20 23  1  0
 23 24  2  0
 24 25  1  0
 24 26  1  0
 26 27  1  0
 26 28  2  0
 28 29  1  0
 28 30  1  0
 30 31  1  0
 30 32  2  0
 32 33  1  0
  2 34  1  0
 34 35  2  0
 35 36  1  0
 35 37  1  0
 37 38  2  0
 38 39  1  0
 38 40  1  0
 40 41  1  0
 40 42  2  0
 42 43  1  0
 19  5  1  0
 32 23  1  0
 42 34  1  0
 16  7  1  0
M  END
>  <UniqueID>  (11) 
22

>  <SMILES>  (11) 
O=c1c2ccccc2nc(/C=C/c2cccnc2)n1Cc1ccc(Cl)cc1

>  <Energy>  (11) 
62.91553001668598

>  <Genealogy>  (11) 
O=c1c2ccccc2nc(/C=C/c2cccnc2)n1Cc1ccc(Cl)cc1 (cis-trans isomerization)
O=c1c2ccccc2nc(/C=C/c2cccnc2)n1Cc1ccc(Cl)cc1 (3D coordinates assigned)
O=c1c2ccccc2nc(/C=C/c2cccnc2)n1Cc1ccc(Cl)cc1 (optimized conformer: 62.91553001668598 kcal/mol)

>  <smiles>  (11) 
O=c1c2ccccc2nc(/C=C/c2cccnc2)n1Cc1ccc(Cl)cc1

>  <score_type>  (11) 
oracle

>  <origin>  (11) 
autodockgpu

>  <m_score__min__energy>  (11) 
-7.5499999999999998

>  <m_primary>  (11) 
energy

>  <meeko>  (11) 
{"free_energy": -7.54, "intermolecular_energy": -9.03, "internal_energy": -1.08, "cluster_size": 4, "cluster_id": 2, "rank_in_cluster": 1}

>  <energy>  (11) 
-7.5

>  <cluster_rmsd>  (11) 
0.17

>  <rmsd>  (11) 
269.67

>  <cluster>  (11) 
3

$$$$
AQNDWTVLZSMOQU-FMIVXFBMNA-N
     RDKit          3D

 43 46  0  0  0  0  0  0  0  0999 V2000
  138.5395   76.6173  220.8296 H   0  0  0  0  0  0  0  0  0  0  0  0
  139.0900   76.4330  221.7640 C   0  0  0  0  0  0  0  0  0  0  0  0
  139.1890   75.1760  222.2090 C   0  0  0  0  0  0  0  0  0  0  0  0
  138.4354   74.7805  222.9059 H   0  0  0  0  0  0  0  0  0  0  0  0
  140.3020   74.3200  221.7700 C   0  0  0  0  0  0  0  0  0  0  0  0
  141.4210   74.9260  221.3020 N   0  0  0  0  0  0  0  0  0  0  0  0
  142.4800   74.2170  220.8510 C   0  0  0  0  0  0  0  0  0  0  0  0
  143.6240   74.8810  220.3910 C   0  0  0  0  0  0  0  0  0  0  0  0
  143.6652   75.9801  220.4080 H   0  0  0  0  0  0  0  0  0  0  0  0
  144.7120   74.1500  219.9110 C   0  0  0  0  0  0  0  0  0  0  0  0
  145.6108   74.6738  219.5535 H   0  0  0  0  0  0  0  0  0  0  0  0
  144.6610   72.7550  219.8840 C   0  0  0  0  0  0  0  0  0  0  0  0
  145.5169   72.1821  219.4977 H   0  0  0  0  0  0  0  0  0  0  0  0
  143.5240   72.0840  220.3470 C   0  0  0  0  0  0  0  0  0  0  0  0
  143.4887   70.9847  220.3277 H   0  0  0  0  0  0  0  0  0  0  0  0
  142.4240   72.8150  220.8380 C   0  0  0  0  0  0  0  0  0  0  0  0
  141.2590   72.1920  221.3150 C   0  0  0  0  0  0  0  0  0  0  0  0
  141.1790   70.9320  221.2910 O   0  0  0  0  0  0  0  0  0  0  0  0
  140.2120   72.9460  221.7940 N   0  0  0  0  0  0  0  0  0  0  0  0
  138.9900   72.2850  222.3100 C   0  0  0  0  0  0  0  0  0  0  0  0
  138.2355   73.0529  222.5360 H   0  0  0  0  0  0  0  0  0  0  0  0
  138.6202   71.5903  221.5415 H   0  0  0  0  0  0  0  0  0  0  0  0
  139.2810   71.4960  223.5660 C   0  0  0  0  0  0  0  0  0  0  0  0
  140.3580   71.8560  224.3960 C   0  0  0  0  0  0  0  0  0  0  0  0
  140.9524   72.7528  224.1671 H   0  0  0  0  0  0  0  0  0  0  0  0
  140.6740   71.0740  225.5130 C   0  0  0  0  0  0  0  0  0  0  0  0
  141.5241   71.3512  226.1537 H   0  0  0  0  0  0  0  0  0  0  0  0
  139.9120   69.9410  225.8170 C   0  0  0  0  0  0  0  0  0  0  0  0
  140.3480   68.9290  227.1780 Cl  0  0  0  0  0  0  0  0  0  0  0  0
  138.8260   69.5920  225.0060 C   0  0  0  0  0  0  0  0  0  0  0  0
  138.2221   68.7052  225.2488 H   0  0  0  0  0  0  0  0  0  0  0  0
  138.5080   70.3670  223.8900 C   0  0  0  0  0  0  0  0  0  0  0  0
  137.6483   70.0934  223.2606 H   0  0  0  0  0  0  0  0  0  0  0  0
  139.6870   77.5870  222.4710 C   0  0  0  0  0  0  0  0  0  0  0  0
  138.9120   78.6560  222.9560 C   0  0  0  0  0  0  0  0  0  0  0  0
  137.8248   78.6644  222.7890 H   0  0  0  0  0  0  0  0  0  0  0  0
  139.5020   79.6800  223.6310 N   0  0  0  0  0  0  0  0  0  0  0  0
  140.8460   79.7130  223.8440 C   0  0  0  0  0  0  0  0  0  0  0  0
  141.2940   80.5572  224.3887 H   0  0  0  0  0  0  0  0  0  0  0  0
  141.6590   78.6780  223.3730 C   0  0  0  0  0  0  0  0  0  0  0  0
  142.7464   78.7061  223.5366 H   0  0  0  0  0  0  0  0  0  0  0  0
  141.0750   77.6090  222.6930 C   0  0  0  0  0  0  0  0  0  0  0  0
  141.7020   76.7814  222.3297 H   0  0  0  0  0  0  0  0  0  0  0  0
  1  2  1  0
  2  3  2  0
  3  4  1  0
  3  5  1  0
  5  6  2  0
  6  7  1  0
  7  8  2  0
  8  9  1  0
  8 10  1  0
 10 11  1  0
 10 12  2  0
 12 13  1  0
 12 14  1  0
 14 15  1  0
 14 16  2  0
 16 17  1  0
 17 18  2  0
 17 19  1  0
 19 20  1  0
 20 21  1  0
 20 22  1  0
 20 23  1  0
 23 24  2  0
 24 25  1  0
 24 26  1  0
 26 27  1  0
 26 28  2  0
 28 29  1  0
 28 30  1  0
 30 31  1  0
 30 32  2  0
 32 33  1  0
  2 34  1  0
 34 35  2  0
 35 36  1  0
 35 37  1  0
 37 38  2  0
 38 39  1  0
 38 40  1  0
 40 41  1  0
 40 42  2  0
 42 43  1  0
 19  5  1  0
 32 23  1  0
 42 34  1  0
 16  7  1  0
M  END
>  <UniqueID>  (12) 
22

>  <SMILES>  (12) 
O=c1c2ccccc2nc(/C=C/c2cccnc2)n1Cc1ccc(Cl)cc1

>  <Energy>  (12) 
62.91553001668598

>  <Genealogy>  (12) 
O=c1c2ccccc2nc(/C=C/c2cccnc2)n1Cc1ccc(Cl)cc1 (cis-trans isomerization)
O=c1c2ccccc2nc(/C=C/c2cccnc2)n1Cc1ccc(Cl)cc1 (3D coordinates assigned)
O=c1c2ccccc2nc(/C=C/c2cccnc2)n1Cc1ccc(Cl)cc1 (optimized conformer: 62.91553001668598 kcal/mol)

>  <smiles>  (12) 
O=c1c2ccccc2nc(/C=C/c2cccnc2)n1Cc1ccc(Cl)cc1

>  <score_type>  (12) 
oracle

>  <origin>  (12) 
autodockgpu

>  <m_score__min__energy>  (12) 
-7.5499999999999998

>  <m_primary>  (12) 
energy

>  <meeko>  (12) 
{"free_energy": -7.47, "intermolecular_energy": -8.96, "internal_energy": -1.19, "cluster_size": 4, "cluster_id": 2, "rank_in_cluster": 4}

>  <energy>  (12) 
-7.45

>  <cluster_rmsd>  (12) 
0.71

>  <rmsd>  (12) 
269.79

>  <cluster>  (12) 
3

$$$$
AQNDWTVLZSMOQU-FMIVXFBMNA-N
     RDKit          3D

 43 46  0  0  0  0  0  0  0  0999 V2000
  143.3622   75.5571  218.1040 H   0  0  0  0  0  0  0  0  0  0  0  0
  143.4490   75.2580  219.1590 C   0  0  0  0  0  0  0  0  0  0  0  0
  142.6610   75.8560  220.0580 C   0  0  0  0  0  0  0  0  0  0  0  0
  142.8372   76.9079  220.3271 H   0  0  0  0  0  0  0  0  0  0  0  0
  141.5590   75.1130  220.6890 C   0  0  0  0  0  0  0  0  0  0  0  0
  141.7770   73.8160  221.0200 N   0  0  0  0  0  0  0  0  0  0  0  0
  140.8110   73.0500  221.5760 C   0  0  0  0  0  0  0  0  0  0  0  0
  141.0820   71.7200  221.9190 C   0  0  0  0  0  0  0  0  0  0  0  0
  142.0847   71.3017  221.7471 H   0  0  0  0  0  0  0  0  0  0  0  0
  140.0810   70.9240  222.4790 C   0  0  0  0  0  0  0  0  0  0  0  0
  140.2970   69.8801  222.7505 H   0  0  0  0  0  0  0  0  0  0  0  0
  138.8060   71.4510  222.6950 C   0  0  0  0  0  0  0  0  0  0  0  0
  138.0178   70.8197  223.1311 H   0  0  0  0  0  0  0  0  0  0  0  0
  138.5290   72.7800  222.3580 C   0  0  0  0  0  0  0  0  0  0  0  0
  137.5239   73.1923  222.5306 H   0  0  0  0  0  0  0  0  0  0  0  0
  139.5350   73.5910  221.7980 C   0  0  0  0  0  0  0  0  0  0  0  0
  139.3120   74.9320  221.4440 C   0  0  0  0  0  0  0  0  0  0  0  0
  138.1650   75.4320  221.6150 O   0  0  0  0  0  0  0  0  0  0  0  0
  140.3280   75.6900  220.9080 N   0  0  0  0  0  0  0  0  0  0  0  0
  140.0920   77.1080  220.5490 C   0  0  0  0  0  0  0  0  0  0  0  0
  140.4017   77.2697  219.5060 H   0  0  0  0  0  0  0  0  0  0  0  0
  139.0208   77.3241  220.6753 H   0  0  0  0  0  0  0  0  0  0  0  0
  140.8750   78.0400  221.4450 C   0  0  0  0  0  0  0  0  0  0  0  0
  141.0390   77.7390  222.8090 C   0  0  0  0  0  0  0  0  0  0  0  0
  140.6524   76.7918  223.2131 H   0  0  0  0  0  0  0  0  0  0  0  0
  141.6940   78.6440  223.6530 C   0  0  0  0  0  0  0  0  0  0  0  0
  141.8103   78.4115  224.7218 H   0  0  0  0  0  0  0  0  0  0  0  0
  142.2010   79.8430  223.1410 C   0  0  0  0  0  0  0  0  0  0  0  0
  142.9630   81.0010  224.2090 Cl  0  0  0  0  0  0  0  0  0  0  0  0
  142.0610   80.1340  221.7790 C   0  0  0  0  0  0  0  0  0  0  0  0
  142.4677   81.0723  221.3739 H   0  0  0  0  0  0  0  0  0  0  0  0
  141.4070   79.2370  220.9340 C   0  0  0  0  0  0  0  0  0  0  0  0
  141.3071   79.4673  219.8630 H   0  0  0  0  0  0  0  0  0  0  0  0
  144.4320   74.2130  219.5170 C   0  0  0  0  0  0  0  0  0  0  0  0
  144.9390   73.3010  218.5740 C   0  0  0  0  0  0  0  0  0  0  0  0
  144.5829   73.3347  217.5338 H   0  0  0  0  0  0  0  0  0  0  0  0
  145.8680   72.3770  218.9420 N   0  0  0  0  0  0  0  0  0  0  0  0
  146.3230   72.2950  220.2230 C   0  0  0  0  0  0  0  0  0  0  0  0
  147.0709   71.5343  220.4913 H   0  0  0  0  0  0  0  0  0  0  0  0
  145.8430   73.1740  221.1980 C   0  0  0  0  0  0  0  0  0  0  0  0
  146.2028   73.1050  222.2352 H   0  0  0  0  0  0  0  0  0  0  0  0
  144.9020   74.1400  220.8400 C   0  0  0  0  0  0  0  0  0  0  0  0
  144.5268   74.8465  221.5951 H   0  0  0  0  0  0  0  0  0  0  0  0
  1  2  1  0
  2  3  2  0
  3  4  1  0
  3  5  1  0
  5  6  2  0
  6  7  1  0
  7  8  2  0
  8  9  1  0
  8 10  1  0
 10 11  1  0
 10 12  2  0
 12 13  1  0
 12 14  1  0
 14 15  1  0
 14 16  2  0
 16 17  1  0
 17 18  2  0
 17 19  1  0
 19 20  1  0
 20 21  1  0
 20 22  1  0
 20 23  1  0
 23 24  2  0
 24 25  1  0
 24 26  1  0
 26 27  1  0
 26 28  2  0
 28 29  1  0
 28 30  1  0
 30 31  1  0
 30 32  2  0
 32 33  1  0
  2 34  1  0
 34 35  2  0
 35 36  1  0
 35 37  1  0
 37 38  2  0
 38 39  1  0
 38 40  1  0
 40 41  1  0
 40 42  2  0
 42 43  1  0
 19  5  1  0
 32 23  1  0
 42 34  1  0
 16  7  1  0
M  END
>  <UniqueID>  (13) 
22

>  <SMILES>  (13) 
O=c1c2ccccc2nc(/C=C/c2cccnc2)n1Cc1ccc(Cl)cc1

>  <Energy>  (13) 
62.91553001668598

>  <Genealogy>  (13) 
O=c1c2ccccc2nc(/C=C/c2cccnc2)n1Cc1ccc(Cl)cc1 (cis-trans isomerization)
O=c1c2ccccc2nc(/C=C/c2cccnc2)n1Cc1ccc(Cl)cc1 (3D coordinates assigned)
O=c1c2ccccc2nc(/C=C/c2cccnc2)n1Cc1ccc(Cl)cc1 (optimized conformer: 62.91553001668598 kcal/mol)

>  <smiles>  (13) 
O=c1c2ccccc2nc(/C=C/c2cccnc2)n1Cc1ccc(Cl)cc1

>  <score_type>  (13) 
oracle

>  <origin>  (13) 
autodockgpu

>  <m_score__min__energy>  (13) 
-7.5499999999999998

>  <m_primary>  (13) 
energy

>  <meeko>  (13) 
{"free_energy": -7.53, "intermolecular_energy": -9.02, "internal_energy": -1.31, "cluster_size": 5, "cluster_id": 1, "rank_in_cluster": 3}

>  <energy>  (13) 
-7.44

>  <cluster_rmsd>  (13) 
0.24

>  <rmsd>  (13) 
269.63

>  <cluster>  (13) 
3

$$$$
AQNDWTVLZSMOQU-FMIVXFBMNA-N
     RDKit          3D

 43 46  0  0  0  0  0  0  0  0999 V2000
  135.8433   71.4190  223.8970 H   0  0  0  0  0  0  0  0  0  0  0  0
  135.7080   72.4760  223.6240 C   0  0  0  0  0  0  0  0  0  0  0  0
  136.1530   72.8890  222.4320 C   0  0  0  0  0  0  0  0  0  0  0  0
  135.6022   72.6210  221.5183 H   0  0  0  0  0  0  0  0  0  0  0  0
  137.3760   73.7000  222.3390 C   0  0  0  0  0  0  0  0  0  0  0  0
  137.2430   75.0500  222.3250 N   0  0  0  0  0  0  0  0  0  0  0  0
  138.3110   75.8710  222.2120 C   0  0  0  0  0  0  0  0  0  0  0  0
  138.1310   77.2600  222.2180 C   0  0  0  0  0  0  0  0  0  0  0  0
  137.1213   77.6826  222.3268 H   0  0  0  0  0  0  0  0  0  0  0  0
  139.2320   78.1090  222.0860 C   0  0  0  0  0  0  0  0  0  0  0  0
  139.0889   79.1996  222.0947 H   0  0  0  0  0  0  0  0  0  0  0  0
  140.5140   77.5750  221.9430 C   0  0  0  0  0  0  0  0  0  0  0  0
  141.3786   78.2461  221.8324 H   0  0  0  0  0  0  0  0  0  0  0  0
  140.7020   76.1890  221.9400 C   0  0  0  0  0  0  0  0  0  0  0  0
  141.7139   75.7722  221.8290 H   0  0  0  0  0  0  0  0  0  0  0  0
  139.5970   75.3260  222.0790 C   0  0  0  0  0  0  0  0  0  0  0  0
  139.7290   73.9280  222.0830 C   0  0  0  0  0  0  0  0  0  0  0  0
  140.8750   73.4160  221.9430 O   0  0  0  0  0  0  0  0  0  0  0  0
  138.6220   73.1230  222.2310 N   0  0  0  0  0  0  0  0  0  0  0  0
  138.7680   71.6490  222.2510 C   0  0  0  0  0  0  0  0  0  0  0  0
  137.8122   71.1905  221.9574 H   0  0  0  0  0  0  0  0  0  0  0  0
  139.5666   71.3704  221.5477 H   0  0  0  0  0  0  0  0  0  0  0  0
  139.1500   71.1520  223.6260 C   0  0  0  0  0  0  0  0  0  0  0  0
  140.2990   71.6510  224.2650 C   0  0  0  0  0  0  0  0  0  0  0  0
  140.8868   72.4518  223.7926 H   0  0  0  0  0  0  0  0  0  0  0  0
  140.6950   71.1290  225.5020 C   0  0  0  0  0  0  0  0  0  0  0  0
  141.6014   71.5120  225.9937 H   0  0  0  0  0  0  0  0  0  0  0  0
  139.9420   70.1220  226.1150 C   0  0  0  0  0  0  0  0  0  0  0  0
  140.4730   69.4270  227.6320 Cl  0  0  0  0  0  0  0  0  0  0  0  0
  138.7840   69.6400  225.4930 C   0  0  0  0  0  0  0  0  0  0  0  0
  138.1863   68.8544  225.9783 H   0  0  0  0  0  0  0  0  0  0  0  0
  138.3870   70.1550  224.2580 C   0  0  0  0  0  0  0  0  0  0  0  0
  137.4722   69.7787  223.7768 H   0  0  0  0  0  0  0  0  0  0  0  0
  135.0430   73.3740  224.5910 C   0  0  0  0  0  0  0  0  0  0  0  0
  134.1660   72.8970  225.5810 C   0  0  0  0  0  0  0  0  0  0  0  0
  133.9339   71.8232  225.6356 H   0  0  0  0  0  0  0  0  0  0  0  0
  133.6030   73.7580  226.4720 N   0  0  0  0  0  0  0  0  0  0  0  0
  133.8560   75.0950  226.4290 C   0  0  0  0  0  0  0  0  0  0  0  0
  133.3828   75.7661  227.1609 H   0  0  0  0  0  0  0  0  0  0  0  0
  134.7150   75.6180  225.4580 C   0  0  0  0  0  0  0  0  0  0  0  0
  134.9146   76.6989  225.4151 H   0  0  0  0  0  0  0  0  0  0  0  0
  135.3160   74.7520  224.5440 C   0  0  0  0  0  0  0  0  0  0  0  0
  136.0055   75.1488  223.7844 H   0  0  0  0  0  0  0  0  0  0  0  0
  1  2  1  0
  2  3  2  0
  3  4  1  0
  3  5  1  0
  5  6  2  0
  6  7  1  0
  7  8  2  0
  8  9  1  0
  8 10  1  0
 10 11  1  0
 10 12  2  0
 12 13  1  0
 12 14  1  0
 14 15  1  0
 14 16  2  0
 16 17  1  0
 17 18  2  0
 17 19  1  0
 19 20  1  0
 20 21  1  0
 20 22  1  0
 20 23  1  0
 23 24  2  0
 24 25  1  0
 24 26  1  0
 26 27  1  0
 26 28  2  0
 28 29  1  0
 28 30  1  0
 30 31  1  0
 30 32  2  0
 32 33  1  0
  2 34  1  0
 34 35  2  0
 35 36  1  0
 35 37  1  0
 37 38  2  0
 38 39  1  0
 38 40  1  0
 40 41  1  0
 40 42  2  0
 42 43  1  0
 19  5  1  0
 32 23  1  0
 42 34  1  0
 16  7  1  0
M  END
>  <UniqueID>  (14) 
22

>  <SMILES>  (14) 
O=c1c2ccccc2nc(/C=C/c2cccnc2)n1Cc1ccc(Cl)cc1

>  <Energy>  (14) 
62.91553001668598

>  <Genealogy>  (14) 
O=c1c2ccccc2nc(/C=C/c2cccnc2)n1Cc1ccc(Cl)cc1 (cis-trans isomerization)
O=c1c2ccccc2nc(/C=C/c2cccnc2)n1Cc1ccc(Cl)cc1 (3D coordinates assigned)
O=c1c2ccccc2nc(/C=C/c2cccnc2)n1Cc1ccc(Cl)cc1 (optimized conformer: 62.91553001668598 kcal/mol)

>  <smiles>  (14) 
O=c1c2ccccc2nc(/C=C/c2cccnc2)n1Cc1ccc(Cl)cc1

>  <score_type>  (14) 
oracle

>  <origin>  (14) 
autodockgpu

>  <m_score__min__energy>  (14) 
-7.5499999999999998

>  <m_primary>  (14) 
energy

>  <meeko>  (14) 
{"free_energy": -7.36, "intermolecular_energy": -8.85, "internal_energy": -1.34, "cluster_size": 2, "cluster_id": 5, "rank_in_cluster": 1}

>  <energy>  (14) 
-7.34

>  <cluster_rmsd>  (14) 
0.34

>  <rmsd>  (14) 
269.56

>  <cluster>  (14) 
3

$$$$
AQNDWTVLZSMOQU-FMIVXFBMNA-N
     RDKit          3D

 43 46  0  0  0  0  0  0  0  0999 V2000
  135.9278   71.5326  223.8528 H   0  0  0  0  0  0  0  0  0  0  0  0
  135.7680   72.5900  223.5950 C   0  0  0  0  0  0  0  0  0  0  0  0
  136.2000   73.0290  222.4090 C   0  0  0  0  0  0  0  0  0  0  0  0
  135.6562   72.7560  221.4926 H   0  0  0  0  0  0  0  0  0  0  0  0
  137.4000   73.8760  222.3240 C   0  0  0  0  0  0  0  0  0  0  0  0
  137.2320   75.2210  222.3620 N   0  0  0  0  0  0  0  0  0  0  0  0
  138.2760   76.0740  222.2610 C   0  0  0  0  0  0  0  0  0  0  0  0
  138.0610   77.4560  222.3210 C   0  0  0  0  0  0  0  0  0  0  0  0
  137.0430   77.8478  222.4629 H   0  0  0  0  0  0  0  0  0  0  0  0
  139.1370   78.3380  222.2010 C   0  0  0  0  0  0  0  0  0  0  0  0
  138.9659   79.4234  222.2516 H   0  0  0  0  0  0  0  0  0  0  0  0
  140.4290   77.8440  222.0170 C   0  0  0  0  0  0  0  0  0  0  0  0
  141.2736   78.5414  221.9157 H   0  0  0  0  0  0  0  0  0  0  0  0
  140.6530   76.4640  221.9610 C   0  0  0  0  0  0  0  0  0  0  0  0
  141.6734   76.0783  221.8192 H   0  0  0  0  0  0  0  0  0  0  0  0
  139.5730   75.5680  222.0860 C   0  0  0  0  0  0  0  0  0  0  0  0
  139.7420   74.1740  222.0370 C   0  0  0  0  0  0  0  0  0  0  0  0
  140.8980   73.6980  221.8590 O   0  0  0  0  0  0  0  0  0  0  0  0
  138.6590   73.3360  222.1740 N   0  0  0  0  0  0  0  0  0  0  0  0
  138.8430   71.8660  222.1380 C   0  0  0  0  0  0  0  0  0  0  0  0
  137.8947   71.3936  221.8420 H   0  0  0  0  0  0  0  0  0  0  0  0
  139.6373   71.6338  221.4133 H   0  0  0  0  0  0  0  0  0  0  0  0
  139.2590   71.3300  223.4880 C   0  0  0  0  0  0  0  0  0  0  0  0
  138.5240   70.2970  224.0980 C   0  0  0  0  0  0  0  0  0  0  0  0
  137.6818   69.8324  223.5643 H   0  0  0  0  0  0  0  0  0  0  0  0
  138.8640   69.8600  225.3840 C   0  0  0  0  0  0  0  0  0  0  0  0
  138.2805   69.0602  225.8634 H   0  0  0  0  0  0  0  0  0  0  0  0
  139.9430   70.4370  226.0610 C   0  0  0  0  0  0  0  0  0  0  0  0
  140.3270   69.9320  227.6930 Cl  0  0  0  0  0  0  0  0  0  0  0  0
  140.6910   71.4480  225.4480 C   0  0  0  0  0  0  0  0  0  0  0  0
  141.5453   71.8957  225.9769 H   0  0  0  0  0  0  0  0  0  0  0  0
  140.3560   71.8900  224.1670 C   0  0  0  0  0  0  0  0  0  0  0  0
  140.9525   72.6796  223.6866 H   0  0  0  0  0  0  0  0  0  0  0  0
  135.0850   73.4600  224.5770 C   0  0  0  0  0  0  0  0  0  0  0  0
  134.2280   72.9490  225.5680 C   0  0  0  0  0  0  0  0  0  0  0  0
  134.0258   71.8687  225.6132 H   0  0  0  0  0  0  0  0  0  0  0  0
  133.6480   73.7850  226.4710 N   0  0  0  0  0  0  0  0  0  0  0  0
  133.8620   75.1290  226.4400 C   0  0  0  0  0  0  0  0  0  0  0  0
  133.3746   75.7794  227.1813 H   0  0  0  0  0  0  0  0  0  0  0  0
  134.7000   75.6850  225.4680 C   0  0  0  0  0  0  0  0  0  0  0  0
  134.8698   76.7713  225.4348 H   0  0  0  0  0  0  0  0  0  0  0  0
  135.3180   74.8450  224.5410 C   0  0  0  0  0  0  0  0  0  0  0  0
  135.9896   75.2685  223.7797 H   0  0  0  0  0  0  0  0  0  0  0  0
  1  2  1  0
  2  3  2  0
  3  4  1  0
  3  5  1  0
  5  6  2  0
  6  7  1  0
  7  8  2  0
  8  9  1  0
  8 10  1  0
 10 11  1  0
 10 12  2  0
 12 13  1  0
 12 14  1  0
 14 15  1  0
 14 16  2  0
 16 17  1  0
 17 18  2  0
 17 19  1  0
 19 20  1  0
 20 21  1  0
 20 22  1  0
 20 23  1  0
 23 24  2  0
 24 25  1  0
 24 26  1  0
 26 27  1  0
 26 28  2  0
 28 29  1  0
 28 30  1  0
 30 31  1  0
 30 32  2  0
 32 33  1  0
  2 34  1  0
 34 35  2  0
 35 36  1  0
 35 37  1  0
 37 38  2  0
 38 39  1  0
 38 40  1  0
 40 41  1  0
 40 42  2  0
 42 43  1  0
 19  5  1  0
 32 23  1  0
 42 34  1  0
 16  7  1  0
M  END
>  <UniqueID>  (15) 
22

>  <SMILES>  (15) 
O=c1c2ccccc2nc(/C=C/c2cccnc2)n1Cc1ccc(Cl)cc1

>  <Energy>  (15) 
62.91553001668598

>  <Genealogy>  (15) 
O=c1c2ccccc2nc(/C=C/c2cccnc2)n1Cc1ccc(Cl)cc1 (cis-trans isomerization)
O=c1c2ccccc2nc(/C=C/c2cccnc2)n1Cc1ccc(Cl)cc1 (3D coordinates assigned)
O=c1c2ccccc2nc(/C=C/c2cccnc2)n1Cc1ccc(Cl)cc1 (optimized conformer: 62.91553001668598 kcal/mol)

>  <smiles>  (15) 
O=c1c2ccccc2nc(/C=C/c2cccnc2)n1Cc1ccc(Cl)cc1

>  <score_type>  (15) 
oracle

>  <origin>  (15) 
autodockgpu

>  <m_score__min__energy>  (15) 
-7.5499999999999998

>  <m_primary>  (15) 
energy

>  <meeko>  (15) 
{"free_energy": -7.35, "intermolecular_energy": -8.84, "internal_energy": -1.36, "cluster_size": 2, "cluster_id": 5, "rank_in_cluster": 2}

>  <energy>  (15) 
-7.37

>  <cluster_rmsd>  (15) 
0.0

>  <rmsd>  (15) 
269.11

>  <cluster>  (15) 
4

$$$$
AQNDWTVLZSMOQU-FMIVXFBMNA-N
     RDKit          3D

 43 46  0  0  0  0  0  0  0  0999 V2000
  135.3441   67.8982  222.7229 H   0  0  0  0  0  0  0  0  0  0  0  0
  135.8710   68.6890  223.2770 C   0  0  0  0  0  0  0  0  0  0  0  0
  137.1030   69.0290  222.8860 C   0  0  0  0  0  0  0  0  0  0  0  0
  137.3576   69.0292  221.8159 H   0  0  0  0  0  0  0  0  0  0  0  0
  138.1200   69.4030  223.8810 C   0  0  0  0  0  0  0  0  0  0  0  0
  138.3930   68.5180  224.8720 N   0  0  0  0  0  0  0  0  0  0  0  0
  139.2910   68.7910  225.8450 C   0  0  0  0  0  0  0  0  0  0  0  0
  139.5550   67.8430  226.8410 C   0  0  0  0  0  0  0  0  0  0  0  0
  139.0398   66.8712  226.8250 H   0  0  0  0  0  0  0  0  0  0  0  0
  140.4720   68.1300  227.8550 C   0  0  0  0  0  0  0  0  0  0  0  0
  140.6815   67.3821  228.6340 H   0  0  0  0  0  0  0  0  0  0  0  0
  141.1230   69.3650  227.8810 C   0  0  0  0  0  0  0  0  0  0  0  0
  141.8388   69.5912  228.6850 H   0  0  0  0  0  0  0  0  0  0  0  0
  140.8670   70.3150  226.8870 C   0  0  0  0  0  0  0  0  0  0  0  0
  141.3840   71.2857  226.9092 H   0  0  0  0  0  0  0  0  0  0  0  0
  139.9480   70.0310  225.8570 C   0  0  0  0  0  0  0  0  0  0  0  0
  139.6550   70.9480  224.8350 C   0  0  0  0  0  0  0  0  0  0  0  0
  140.2190   72.0780  224.8400 O   0  0  0  0  0  0  0  0  0  0  0  0
  138.7570   70.6230  223.8440 N   0  0  0  0  0  0  0  0  0  0  0  0
  138.4620   71.5880  222.7580 C   0  0  0  0  0  0  0  0  0  0  0  0
  137.8225   71.0990  222.0084 H   0  0  0  0  0  0  0  0  0  0  0  0
  137.9526   72.4586  223.1969 H   0  0  0  0  0  0  0  0  0  0  0  0
  139.7290   72.0660  222.0870 C   0  0  0  0  0  0  0  0  0  0  0  0
  140.6640   71.1370  221.5960 C   0  0  0  0  0  0  0  0  0  0  0  0
  140.4447   70.0601  221.6417 H   0  0  0  0  0  0  0  0  0  0  0  0
  141.8740   71.5820  221.0490 C   0  0  0  0  0  0  0  0  0  0  0  0
  142.6089   70.8531  220.6767 H   0  0  0  0  0  0  0  0  0  0  0  0
  142.1500   72.9510  220.9750 C   0  0  0  0  0  0  0  0  0  0  0  0
  143.6890   73.5030  220.3490 Cl  0  0  0  0  0  0  0  0  0  0  0  0
  141.2120   73.8790  221.4410 C   0  0  0  0  0  0  0  0  0  0  0  0
  141.4257   74.9560  221.3744 H   0  0  0  0  0  0  0  0  0  0  0  0
  140.0060   73.4410  221.9900 C   0  0  0  0  0  0  0  0  0  0  0  0
  139.2690   74.1747  222.3484 H   0  0  0  0  0  0  0  0  0  0  0  0
  135.1840   69.3270  224.4200 C   0  0  0  0  0  0  0  0  0  0  0  0
  134.5260   68.5800  225.4140 C   0  0  0  0  0  0  0  0  0  0  0  0
  134.4882   67.4832  225.3399 H   0  0  0  0  0  0  0  0  0  0  0  0
  133.9360   69.2090  226.4670 N   0  0  0  0  0  0  0  0  0  0  0  0
  133.9490   70.5650  226.5860 C   0  0  0  0  0  0  0  0  0  0  0  0
  133.4589   71.0445  227.4461 H   0  0  0  0  0  0  0  0  0  0  0  0
  134.5830   71.3500  225.6190 C   0  0  0  0  0  0  0  0  0  0  0  0
  134.5883   72.4463  225.7084 H   0  0  0  0  0  0  0  0  0  0  0  0
  135.2090   70.7270  224.5390 C   0  0  0  0  0  0  0  0  0  0  0  0
  135.7234   71.3332  223.7788 H   0  0  0  0  0  0  0  0  0  0  0  0
  1  2  1  0
  2  3  2  0
  3  4  1  0
  3  5  1  0
  5  6  2  0
  6  7  1  0
  7  8  2  0
  8  9  1  0
  8 10  1  0
 10 11  1  0
 10 12  2  0
 12 13  1  0
 12 14  1  0
 14 15  1  0
 14 16  2  0
 16 17  1  0
 17 18  2  0
 17 19  1  0
 19 20  1  0
 20 21  1  0
 20 22  1  0
 20 23  1  0
 23 24  2  0
 24 25  1  0
 24 26  1  0
 26 27  1  0
 26 28  2  0
 28 29  1  0
 28 30  1  0
 30 31  1  0
 30 32  2  0
 32 33  1  0
  2 34  1  0
 34 35  2  0
 35 36  1  0
 35 37  1  0
 37 38  2  0
 38 39  1  0
 38 40  1  0
 40 41  1  0
 40 42  2  0
 42 43  1  0
 19  5  1  0
 32 23  1  0
 42 34  1  0
 16  7  1  0
M  END
>  <UniqueID>  (16) 
22

>  <SMILES>  (16) 
O=c1c2ccccc2nc(/C=C/c2cccnc2)n1Cc1ccc(Cl)cc1

>  <Energy>  (16) 
62.91553001668598

>  <Genealogy>  (16) 
O=c1c2ccccc2nc(/C=C/c2cccnc2)n1Cc1ccc(Cl)cc1 (cis-trans isomerization)
O=c1c2ccccc2nc(/C=C/c2cccnc2)n1Cc1ccc(Cl)cc1 (3D coordinates assigned)
O=c1c2ccccc2nc(/C=C/c2cccnc2)n1Cc1ccc(Cl)cc1 (optimized conformer: 62.91553001668598 kcal/mol)

>  <smiles>  (16) 
O=c1c2ccccc2nc(/C=C/c2cccnc2)n1Cc1ccc(Cl)cc1

>  <score_type>  (16) 
oracle

>  <origin>  (16) 
autodockgpu

>  <m_score__min__energy>  (16) 
-7.5499999999999998

>  <m_primary>  (16) 
energy

>  <meeko>  (16) 
{"free_energy": -7.2, "intermolecular_energy": -8.69, "internal_energy": -1.42, "cluster_size": 2, "cluster_id": 6, "rank_in_cluster": 1}

>  <energy>  (16) 
-7.36

>  <cluster_rmsd>  (16) 
0.0

>  <rmsd>  (16) 
269.47

>  <cluster>  (16) 
5

$$$$
AQNDWTVLZSMOQU-FMIVXFBMNA-N
     RDKit          3D

 43 46  0  0  0  0  0  0  0  0999 V2000
  143.2519   69.6072  220.0578 H   0  0  0  0  0  0  0  0  0  0  0  0
  143.0530   70.6870  219.9910 C   0  0  0  0  0  0  0  0  0  0  0  0
  141.7840   71.0970  219.9000 C   0  0  0  0  0  0  0  0  0  0  0  0
  141.0138   70.4139  219.5125 H   0  0  0  0  0  0  0  0  0  0  0  0
  141.4140   72.4580  220.3160 C   0  0  0  0  0  0  0  0  0  0  0  0
  142.1930   73.4850  219.8920 N   0  0  0  0  0  0  0  0  0  0  0  0
  141.9430   74.7650  220.2500 C   0  0  0  0  0  0  0  0  0  0  0  0
  142.7630   75.7970  219.7780 C   0  0  0  0  0  0  0  0  0  0  0  0
  143.6034   75.5676  219.1064 H   0  0  0  0  0  0  0  0  0  0  0  0
  142.5150   77.1170  220.1590 C   0  0  0  0  0  0  0  0  0  0  0  0
  143.1572   77.9269  219.7827 H   0  0  0  0  0  0  0  0  0  0  0  0
  141.4530   77.4110  221.0170 C   0  0  0  0  0  0  0  0  0  0  0  0
  141.2656   78.4510  221.3223 H   0  0  0  0  0  0  0  0  0  0  0  0
  140.6270   76.3850  221.4890 C   0  0  0  0  0  0  0  0  0  0  0  0
  139.7890   76.6202  222.1616 H   0  0  0  0  0  0  0  0  0  0  0  0
  140.8670   75.0510  221.1040 C   0  0  0  0  0  0  0  0  0  0  0  0
  140.0690   73.9840  221.5490 C   0  0  0  0  0  0  0  0  0  0  0  0
  139.1090   74.2170  222.3350 O   0  0  0  0  0  0  0  0  0  0  0  0
  140.3360   72.6970  221.1390 N   0  0  0  0  0  0  0  0  0  0  0  0
  139.4820   71.5760  221.5980 C   0  0  0  0  0  0  0  0  0  0  0  0
  138.4328   71.9063  221.6094 H   0  0  0  0  0  0  0  0  0  0  0  0
  139.6169   70.7314  220.9064 H   0  0  0  0  0  0  0  0  0  0  0  0
  139.8700   71.1220  222.9860 C   0  0  0  0  0  0  0  0  0  0  0  0
  139.3690   69.9130  223.5020 C   0  0  0  0  0  0  0  0  0  0  0  0
  138.7449   69.2631  222.8711 H   0  0  0  0  0  0  0  0  0  0  0  0
  139.6640   69.5360  224.8180 C   0  0  0  0  0  0  0  0  0  0  0  0
  139.2615   68.5957  225.2226 H   0  0  0  0  0  0  0  0  0  0  0  0
  140.4690   70.3520  225.6190 C   0  0  0  0  0  0  0  0  0  0  0  0
  140.7850   69.9100  227.2840 Cl  0  0  0  0  0  0  0  0  0  0  0  0
  140.9890   71.5440  225.1020 C   0  0  0  0  0  0  0  0  0  0  0  0
  141.6299   72.1810  225.7293 H   0  0  0  0  0  0  0  0  0  0  0  0
  140.6960   71.9260  223.7920 C   0  0  0  0  0  0  0  0  0  0  0  0
  141.1130   72.8603  223.3880 H   0  0  0  0  0  0  0  0  0  0  0  0
  144.2020   71.6180  220.0060 C   0  0  0  0  0  0  0  0  0  0  0  0
  144.9740   71.8790  218.8590 C   0  0  0  0  0  0  0  0  0  0  0  0
  144.7466   71.3611  217.9156 H   0  0  0  0  0  0  0  0  0  0  0  0
  146.0010   72.7700  218.9130 N   0  0  0  0  0  0  0  0  0  0  0  0
  146.3230   73.4210  220.0650 C   0  0  0  0  0  0  0  0  0  0  0  0
  147.1618   74.1326  220.0772 H   0  0  0  0  0  0  0  0  0  0  0  0
  145.5900   73.1870  221.2320 C   0  0  0  0  0  0  0  0  0  0  0  0
  145.8523   73.7043  222.1667 H   0  0  0  0  0  0  0  0  0  0  0  0
  144.5220   72.2900  221.1980 C   0  0  0  0  0  0  0  0  0  0  0  0
  143.9290   72.1083  222.1065 H   0  0  0  0  0  0  0  0  0  0  0  0
  1  2  1  0
  2  3  2  0
  3  4  1  0
  3  5  1  0
  5  6  2  0
  6  7  1  0
  7  8  2  0
  8  9  1  0
  8 10  1  0
 10 11  1  0
 10 12  2  0
 12 13  1  0
 12 14  1  0
 14 15  1  0
 14 16  2  0
 16 17  1  0
 17 18  2  0
 17 19  1  0
 19 20  1  0
 20 21  1  0
 20 22  1  0
 20 23  1  0
 23 24  2  0
 24 25  1  0
 24 26  1  0
 26 27  1  0
 26 28  2  0
 28 29  1  0
 28 30  1  0
 30 31  1  0
 30 32  2  0
 32 33  1  0
  2 34  1  0
 34 35  2  0
 35 36  1  0
 35 37  1  0
 37 38  2  0
 38 39  1  0
 38 40  1  0
 40 41  1  0
 40 42  2  0
 42 43  1  0
 19  5  1  0
 32 23  1  0
 42 34  1  0
 16  7  1  0
M  END
>  <UniqueID>  (17) 
22

>  <SMILES>  (17) 
O=c1c2ccccc2nc(/C=C/c2cccnc2)n1Cc1ccc(Cl)cc1

>  <Energy>  (17) 
62.91553001668598

>  <Genealogy>  (17) 
O=c1c2ccccc2nc(/C=C/c2cccnc2)n1Cc1ccc(Cl)cc1 (cis-trans isomerization)
O=c1c2ccccc2nc(/C=C/c2cccnc2)n1Cc1ccc(Cl)cc1 (3D coordinates assigned)
O=c1c2ccccc2nc(/C=C/c2cccnc2)n1Cc1ccc(Cl)cc1 (optimized conformer: 62.91553001668598 kcal/mol)

>  <smiles>  (17) 
O=c1c2ccccc2nc(/C=C/c2cccnc2)n1Cc1ccc(Cl)cc1

>  <score_type>  (17) 
oracle

>  <origin>  (17) 
autodockgpu

>  <m_score__min__energy>  (17) 
-7.5499999999999998

>  <m_primary>  (17) 
energy

>  <meeko>  (17) 
{"free_energy": -7.34, "intermolecular_energy": -8.83, "internal_energy": -1.42, "cluster_size": 5, "cluster_id": 3, "rank_in_cluster": 5}

>  <energy>  (17) 
-7.35

>  <cluster_rmsd>  (17) 
0.24

>  <rmsd>  (17) 
269.51

>  <cluster>  (17) 
5

$$$$
AQNDWTVLZSMOQU-FMIVXFBMNA-N
     RDKit          3D

 43 46  0  0  0  0  0  0  0  0999 V2000
  143.3811   75.6448  218.1264 H   0  0  0  0  0  0  0  0  0  0  0  0
  143.4630   75.3360  219.1790 C   0  0  0  0  0  0  0  0  0  0  0  0
  142.6770   75.9320  220.0820 C   0  0  0  0  0  0  0  0  0  0  0  0
  142.8641   76.9783  220.3651 H   0  0  0  0  0  0  0  0  0  0  0  0
  141.5640   75.1950  220.6980 C   0  0  0  0  0  0  0  0  0  0  0  0
  141.7900   73.9160  221.0890 N   0  0  0  0  0  0  0  0  0  0  0  0
  140.8160   73.1550  221.6380 C   0  0  0  0  0  0  0  0  0  0  0  0
  141.0950   71.8440  222.0430 C   0  0  0  0  0  0  0  0  0  0  0  0
  142.1102   71.4371  221.9261 H   0  0  0  0  0  0  0  0  0  0  0  0
  140.0860   71.0530  222.5950 C   0  0  0  0  0  0  0  0  0  0  0  0
  140.3082   70.0245  222.9156 H   0  0  0  0  0  0  0  0  0  0  0  0
  138.7950   71.5650  222.7410 C   0  0  0  0  0  0  0  0  0  0  0  0
  138.0007   70.9369  223.1706 H   0  0  0  0  0  0  0  0  0  0  0  0
  138.5100   72.8750  222.3420 C   0  0  0  0  0  0  0  0  0  0  0  0
  137.4925   73.2759  222.4601 H   0  0  0  0  0  0  0  0  0  0  0  0
  139.5240   73.6820  221.7890 C   0  0  0  0  0  0  0  0  0  0  0  0
  139.2920   75.0030  221.3740 C   0  0  0  0  0  0  0  0  0  0  0  0
  138.1320   75.4900  221.4810 O   0  0  0  0  0  0  0  0  0  0  0  0
  140.3160   75.7580  220.8480 N   0  0  0  0  0  0  0  0  0  0  0  0
  140.0710   77.1570  220.4240 C   0  0  0  0  0  0  0  0  0  0  0  0
  140.4844   77.3032  219.4152 H   0  0  0  0  0  0  0  0  0  0  0  0
  138.9857   77.3364  220.4299 H   0  0  0  0  0  0  0  0  0  0  0  0
  140.7220   78.1400  221.3700 C   0  0  0  0  0  0  0  0  0  0  0  0
  141.3010   79.3220  220.8750 C   0  0  0  0  0  0  0  0  0  0  0  0
  141.2244   79.5651  219.8049 H   0  0  0  0  0  0  0  0  0  0  0  0
  141.9750   80.1900  221.7430 C   0  0  0  0  0  0  0  0  0  0  0  0
  142.4373   81.1079  221.3510 H   0  0  0  0  0  0  0  0  0  0  0  0
  142.0620   79.8930  223.1070 C   0  0  0  0  0  0  0  0  0  0  0  0
  142.9590   80.9470  224.1790 Cl  0  0  0  0  0  0  0  0  0  0  0  0
  141.4670   78.7290  223.6070 C   0  0  0  0  0  0  0  0  0  0  0  0
  141.5277   78.4995  224.6811 H   0  0  0  0  0  0  0  0  0  0  0  0
  140.7970   77.8590  222.7460 C   0  0  0  0  0  0  0  0  0  0  0  0
  140.3253   76.9491  223.1454 H   0  0  0  0  0  0  0  0  0  0  0  0
  144.4370   74.2810  219.5310 C   0  0  0  0  0  0  0  0  0  0  0  0
  144.9250   73.3610  218.5850 C   0  0  0  0  0  0  0  0  0  0  0  0
  144.5599   73.3959  217.5479 H   0  0  0  0  0  0  0  0  0  0  0  0
  145.8470   72.4280  218.9480 N   0  0  0  0  0  0  0  0  0  0  0  0
  146.3140   72.3450  220.2240 C   0  0  0  0  0  0  0  0  0  0  0  0
  147.0566   71.5773  220.4871 H   0  0  0  0  0  0  0  0  0  0  0  0
  145.8530   73.2320  221.2010 C   0  0  0  0  0  0  0  0  0  0  0  0
  146.2221   73.1622  222.2349 H   0  0  0  0  0  0  0  0  0  0  0  0
  144.9190   74.2070  220.8490 C   0  0  0  0  0  0  0  0  0  0  0  0
  144.5589   74.9199  221.6054 H   0  0  0  0  0  0  0  0  0  0  0  0
  1  2  1  0
  2  3  2  0
  3  4  1  0
  3  5  1  0
  5  6  2  0
  6  7  1  0
  7  8  2  0
  8  9  1  0
  8 10  1  0
 10 11  1  0
 10 12  2  0
 12 13  1  0
 12 14  1  0
 14 15  1  0
 14 16  2  0
 16 17  1  0
 17 18  2  0
 17 19  1  0
 19 20  1  0
 20 21  1  0
 20 22  1  0
 20 23  1  0
 23 24  2  0
 24 25  1  0
 24 26  1  0
 26 27  1  0
 26 28  2  0
 28 29  1  0
 28 30  1  0
 30 31  1  0
 30 32  2  0
 32 33  1  0
  2 34  1  0
 34 35  2  0
 35 36  1  0
 35 37  1  0
 37 38  2  0
 38 39  1  0
 38 40  1  0
 40 41  1  0
 40 42  2  0
 42 43  1  0
 19  5  1  0
 32 23  1  0
 42 34  1  0
 16  7  1  0
M  END
>  <UniqueID>  (18) 
22

>  <SMILES>  (18) 
O=c1c2ccccc2nc(/C=C/c2cccnc2)n1Cc1ccc(Cl)cc1

>  <Energy>  (18) 
62.91553001668598

>  <Genealogy>  (18) 
O=c1c2ccccc2nc(/C=C/c2cccnc2)n1Cc1ccc(Cl)cc1 (cis-trans isomerization)
O=c1c2ccccc2nc(/C=C/c2cccnc2)n1Cc1ccc(Cl)cc1 (3D coordinates assigned)
O=c1c2ccccc2nc(/C=C/c2cccnc2)n1Cc1ccc(Cl)cc1 (optimized conformer: 62.91553001668598 kcal/mol)

>  <smiles>  (18) 
O=c1c2ccccc2nc(/C=C/c2cccnc2)n1Cc1ccc(Cl)cc1

>  <score_type>  (18) 
oracle

>  <origin>  (18) 
autodockgpu

>  <m_score__min__energy>  (18) 
-7.5499999999999998

>  <m_primary>  (18) 
energy

>  <meeko>  (18) 
{"free_energy": -7.5, "intermolecular_energy": -8.99, "internal_energy": -1.34, "cluster_size": 5, "cluster_id": 1, "rank_in_cluster": 4}

>  <energy>  (18) 
-7.2

>  <cluster_rmsd>  (18) 
0.0

>  <rmsd>  (18) 
269.46

>  <cluster>  (18) 
6

$$$$
AQNDWTVLZSMOQU-FMIVXFBMNA-N
     RDKit          3D

 43 46  0  0  0  0  0  0  0  0999 V2000
  143.4059   75.6883  218.1305 H   0  0  0  0  0  0  0  0  0  0  0  0
  143.4910   75.3700  219.1800 C   0  0  0  0  0  0  0  0  0  0  0  0
  142.7160   75.9660  220.0920 C   0  0  0  0  0  0  0  0  0  0  0  0
  142.9153   77.0075  220.3844 H   0  0  0  0  0  0  0  0  0  0  0  0
  141.5970   75.2330  220.7060 C   0  0  0  0  0  0  0  0  0  0  0  0
  141.8140   73.9530  221.0950 N   0  0  0  0  0  0  0  0  0  0  0  0
  140.8350   73.1970  221.6410 C   0  0  0  0  0  0  0  0  0  0  0  0
  141.1060   71.8840  222.0440 C   0  0  0  0  0  0  0  0  0  0  0  0
  142.1191   71.4715  221.9275 H   0  0  0  0  0  0  0  0  0  0  0  0
  140.0910   71.0970  222.5940 C   0  0  0  0  0  0  0  0  0  0  0  0
  140.3065   70.0668  222.9137 H   0  0  0  0  0  0  0  0  0  0  0  0
  138.8040   71.6170  222.7380 C   0  0  0  0  0  0  0  0  0  0  0  0
  138.0049   70.9927  223.1642 H   0  0  0  0  0  0  0  0  0  0  0  0
  138.5270   72.9300  222.3420 C   0  0  0  0  0  0  0  0  0  0  0  0
  137.5119   73.3370  222.4605 H   0  0  0  0  0  0  0  0  0  0  0  0
  139.5460   73.7310  221.7920 C   0  0  0  0  0  0  0  0  0  0  0  0
  139.3230   75.0550  221.3780 C   0  0  0  0  0  0  0  0  0  0  0  0
  138.1650   75.5470  221.4850 O   0  0  0  0  0  0  0  0  0  0  0  0
  140.3520   75.8040  220.8550 N   0  0  0  0  0  0  0  0  0  0  0  0
  140.1160   77.2050  220.4340 C   0  0  0  0  0  0  0  0  0  0  0  0
  140.5065   77.3434  219.4150 H   0  0  0  0  0  0  0  0  0  0  0  0
  139.0338   77.3992  220.4662 H   0  0  0  0  0  0  0  0  0  0  0  0
  140.8030   78.1810  221.3610 C   0  0  0  0  0  0  0  0  0  0  0  0
  140.8990   77.9030  222.7360 C   0  0  0  0  0  0  0  0  0  0  0  0
  140.5315   76.9438  223.1295 H   0  0  0  0  0  0  0  0  0  0  0  0
  141.4620   78.8460  223.6050 C   0  0  0  0  0  0  0  0  0  0  0  0
  141.5254   78.6310  224.6819 H   0  0  0  0  0  0  0  0  0  0  0  0
  141.9440   80.0610  223.1060 C   0  0  0  0  0  0  0  0  0  0  0  0
  142.5900   81.2640  224.2020 Cl  0  0  0  0  0  0  0  0  0  0  0  0
  141.8710   80.3310  221.7350 C   0  0  0  0  0  0  0  0  0  0  0  0
  142.2577   81.2827  221.3417 H   0  0  0  0  0  0  0  0  0  0  0  0
  141.3090   79.3960  220.8660 C   0  0  0  0  0  0  0  0  0  0  0  0
  141.2614   79.6101  219.7881 H   0  0  0  0  0  0  0  0  0  0  0  0
  144.4570   74.3030  219.5170 C   0  0  0  0  0  0  0  0  0  0  0  0
  144.9160   73.3750  218.5650 C   0  0  0  0  0  0  0  0  0  0  0  0
  144.5328   73.4126  217.5346 H   0  0  0  0  0  0  0  0  0  0  0  0
  145.8320   72.4310  218.9130 N   0  0  0  0  0  0  0  0  0  0  0  0
  146.3190   72.3430  220.1810 C   0  0  0  0  0  0  0  0  0  0  0  0
  147.0552   71.5654  220.4327 H   0  0  0  0  0  0  0  0  0  0  0  0
  145.8870   73.2370  221.1640 C   0  0  0  0  0  0  0  0  0  0  0  0
  146.2731   73.1636  222.1914 H   0  0  0  0  0  0  0  0  0  0  0  0
  144.9600   74.2240  220.8270 C   0  0  0  0  0  0  0  0  0  0  0  0
  144.6220   74.9421  221.5886 H   0  0  0  0  0  0  0  0  0  0  0  0
  1  2  1  0
  2  3  2  0
  3  4  1  0
  3  5  1  0
  5  6  2  0
  6  7  1  0
  7  8  2  0
  8  9  1  0
  8 10  1  0
 10 11  1  0
 10 12  2  0
 12 13  1  0
 12 14  1  0
 14 15  1  0
 14 16  2  0
 16 17  1  0
 17 18  2  0
 17 19  1  0
 19 20  1  0
 20 21  1  0
 20 22  1  0
 20 23  1  0
 23 24  2  0
 24 25  1  0
 24 26  1  0
 26 27  1  0
 26 28  2  0
 28 29  1  0
 28 30  1  0
 30 31  1  0
 30 32  2  0
 32 33  1  0
  2 34  1  0
 34 35  2  0
 35 36  1  0
 35 37  1  0
 37 38  2  0
 38 39  1  0
 38 40  1  0
 40 41  1  0
 40 42  2  0
 42 43  1  0
 19  5  1  0
 32 23  1  0
 42 34  1  0
 16  7  1  0
M  END
>  <UniqueID>  (19) 
22

>  <SMILES>  (19) 
O=c1c2ccccc2nc(/C=C/c2cccnc2)n1Cc1ccc(Cl)cc1

>  <Energy>  (19) 
62.91553001668598

>  <Genealogy>  (19) 
O=c1c2ccccc2nc(/C=C/c2cccnc2)n1Cc1ccc(Cl)cc1 (cis-trans isomerization)
O=c1c2ccccc2nc(/C=C/c2cccnc2)n1Cc1ccc(Cl)cc1 (3D coordinates assigned)
O=c1c2ccccc2nc(/C=C/c2cccnc2)n1Cc1ccc(Cl)cc1 (optimized conformer: 62.91553001668598 kcal/mol)

>  <smiles>  (19) 
O=c1c2ccccc2nc(/C=C/c2cccnc2)n1Cc1ccc(Cl)cc1

>  <score_type>  (19) 
oracle

>  <origin>  (19) 
autodockgpu

>  <m_score__min__energy>  (19) 
-7.5499999999999998

>  <m_primary>  (19) 
energy

>  <meeko>  (19) 
{"free_energy": -7.55, "intermolecular_energy": -9.04, "internal_energy": -1.31, "cluster_size": 5, "cluster_id": 1, "rank_in_cluster": 1}

>  <energy>  (19) 
-7.07

>  <cluster_rmsd>  (19) 
0.34

>  <rmsd>  (19) 
269.45

>  <cluster>  (19) 
6

$$$$
AQNDWTVLZSMOQU-FMIVXFBMNA-N
     RDKit          3D

 43 46  0  0  0  0  0  0  0  0999 V2000
  135.2601   68.1369  222.3631 H   0  0  0  0  0  0  0  0  0  0  0  0
  135.9300   68.6040  223.1000 C   0  0  0  0  0  0  0  0  0  0  0  0
  137.2500   68.5350  222.8960 C   0  0  0  0  0  0  0  0  0  0  0  0
  137.6387   68.1010  221.9630 H   0  0  0  0  0  0  0  0  0  0  0  0
  138.1840   69.0380  223.9160 C   0  0  0  0  0  0  0  0  0  0  0  0
  138.4950   68.2190  224.9500 N   0  0  0  0  0  0  0  0  0  0  0  0
  139.3220   68.6100  225.9470 C   0  0  0  0  0  0  0  0  0  0  0  0
  139.6310   67.7270  226.9880 C   0  0  0  0  0  0  0  0  0  0  0  0
  139.2108   66.7104  226.9891 H   0  0  0  0  0  0  0  0  0  0  0  0
  140.4720   68.1350  228.0250 C   0  0  0  0  0  0  0  0  0  0  0  0
  140.7166   67.4381  228.8402 H   0  0  0  0  0  0  0  0  0  0  0  0
  141.0030   69.4260  228.0290 C   0  0  0  0  0  0  0  0  0  0  0  0
  141.6589   69.7469  228.8517 H   0  0  0  0  0  0  0  0  0  0  0  0
  140.7030   70.3130  226.9890 C   0  0  0  0  0  0  0  0  0  0  0  0
  141.1256   71.3286  226.9936 H   0  0  0  0  0  0  0  0  0  0  0  0
  139.8600   69.9060  225.9360 C   0  0  0  0  0  0  0  0  0  0  0  0
  139.5260   70.7550  224.8680 C   0  0  0  0  0  0  0  0  0  0  0  0
  139.9820   71.9330  224.8500 O   0  0  0  0  0  0  0  0  0  0  0  0
  138.7050   70.3120  223.8550 N   0  0  0  0  0  0  0  0  0  0  0  0
  138.3680   71.2050  222.7220 C   0  0  0  0  0  0  0  0  0  0  0  0
  137.9351   70.6041  221.9087 H   0  0  0  0  0  0  0  0  0  0  0  0
  137.6481   71.9577  223.0757 H   0  0  0  0  0  0  0  0  0  0  0  0
  139.5930   71.9230  222.2050 C   0  0  0  0  0  0  0  0  0  0  0  0
  139.6210   73.3290  222.1520 C   0  0  0  0  0  0  0  0  0  0  0  0
  138.7755   73.9108  222.5478 H   0  0  0  0  0  0  0  0  0  0  0  0
  140.7240   73.9880  221.5960 C   0  0  0  0  0  0  0  0  0  0  0  0
  140.7379   75.0867  221.5445 H   0  0  0  0  0  0  0  0  0  0  0  0
  141.8080   73.2530  221.1060 C   0  0  0  0  0  0  0  0  0  0  0  0
  143.1580   74.0770  220.3540 Cl  0  0  0  0  0  0  0  0  0  0  0  0
  141.7950   71.8560  221.1780 C   0  0  0  0  0  0  0  0  0  0  0  0
  142.6514   71.2785  220.7998 H   0  0  0  0  0  0  0  0  0  0  0  0
  140.6970   71.1940  221.7290 C   0  0  0  0  0  0  0  0  0  0  0  0
  140.6952   70.0958  221.7913 H   0  0  0  0  0  0  0  0  0  0  0  0
  135.3300   69.2790  224.2700 C   0  0  0  0  0  0  0  0  0  0  0  0
  134.7960   68.5660  225.3580 C   0  0  0  0  0  0  0  0  0  0  0  0
  134.7926   67.4661  225.3432 H   0  0  0  0  0  0  0  0  0  0  0  0
  134.2830   69.2310  226.4300 N   0  0  0  0  0  0  0  0  0  0  0  0
  134.2570   70.5910  226.4790 C   0  0  0  0  0  0  0  0  0  0  0  0
  133.8323   71.0998  227.3569 H   0  0  0  0  0  0  0  0  0  0  0  0
  134.7680   71.3430  225.4180 C   0  0  0  0  0  0  0  0  0  0  0  0
  134.7410   72.4422  225.4511 H   0  0  0  0  0  0  0  0  0  0  0  0
  135.3130   70.6830  224.3160 C   0  0  0  0  0  0  0  0  0  0  0  0
  135.7307   71.2639  223.4805 H   0  0  0  0  0  0  0  0  0  0  0  0
  1  2  1  0
  2  3  2  0
  3  4  1  0
  3  5  1  0
  5  6  2  0
  6  7  1  0
  7  8  2  0
  8  9  1  0
  8 10  1  0
 10 11  1  0
 10 12  2  0
 12 13  1  0
 12 14  1  0
 14 15  1  0
 14 16  2  0
 16 17  1  0
 17 18  2  0
 17 19  1  0
 19 20  1  0
 20 21  1  0
 20 22  1  0
 20 23  1  0
 23 24  2  0
 24 25  1  0
 24 26  1  0
 26 27  1  0
 26 28  2  0
 28 29  1  0
 28 30  1  0
 30 31  1  0
 30 32  2  0
 32 33  1  0
  2 34  1  0
 34 35  2  0
 35 36  1  0
 35 37  1  0
 37 38  2  0
 38 39  1  0
 38 40  1  0
 40 41  1  0
 40 42  2  0
 42 43  1  0
 19  5  1  0
 32 23  1  0
 42 34  1  0
 16  7  1  0
M  END
>  <UniqueID>  (20) 
22

>  <SMILES>  (20) 
O=c1c2ccccc2nc(/C=C/c2cccnc2)n1Cc1ccc(Cl)cc1

>  <Energy>  (20) 
62.91553001668598

>  <Genealogy>  (20) 
O=c1c2ccccc2nc(/C=C/c2cccnc2)n1Cc1ccc(Cl)cc1 (cis-trans isomerization)
O=c1c2ccccc2nc(/C=C/c2cccnc2)n1Cc1ccc(Cl)cc1 (3D coordinates assigned)
O=c1c2ccccc2nc(/C=C/c2cccnc2)n1Cc1ccc(Cl)cc1 (optimized conformer: 62.91553001668598 kcal/mol)

>  <smiles>  (20) 
O=c1c2ccccc2nc(/C=C/c2cccnc2)n1Cc1ccc(Cl)cc1

>  <score_type>  (20) 
oracle

>  <origin>  (20) 
autodockgpu

>  <m_score__min__energy>  (20) 
-7.5499999999999998

>  <m_primary>  (20) 
energy

>  <meeko>  (20) 
{"free_energy": -7.07, "intermolecular_energy": -8.57, "internal_energy": -1.42, "cluster_size": 2, "cluster_id": 6, "rank_in_cluster": 2}

>  <energy>  (20) 
-6.9

>  <cluster_rmsd>  (20) 
0.0

>  <rmsd>  (20) 
269.35

>  <cluster>  (20) 
7

$$$$
