OOSPKVZPLIIQRF-UTVOXLHVNA-N
     RDKit          3D

 44 47  0  0  0  0  0  0  0  0999 V2000
  136.2240   77.2040  223.6490 H   0  0  0  0  0  0  0  0  0  0  0  0
  136.7030   76.4070  223.1720 N   0  0  0  0  0  0  0  0  0  0  0  0
  137.8440   76.5430  222.5670 C   0  0  0  0  0  0  0  0  0  0  0  0
  138.2400   77.8020  222.0500 C   0  0  0  0  0  0  0  0  0  0  0  0
  137.4140   79.0340  222.1880 C   0  0  0  0  0  0  0  0  0  0  0  0
  137.9890   80.2060  222.1710 N   0  0  0  0  0  0  0  0  0  0  0  0
  138.7460   80.8770  223.2350 C   0  0  2  0  0  0  0  0  0  0  0  0
  138.7356   81.9653  223.0754 H   0  0  0  0  0  0  0  0  0  0  0  0
  140.2280   80.5250  223.1740 C   0  0  0  0  0  0  0  0  0  0  0  0
  141.1600   81.2650  222.4150 C   0  0  0  0  0  0  0  0  0  0  0  0
  140.8261   82.1454  221.8463 H   0  0  0  0  0  0  0  0  0  0  0  0
  142.5060   80.8850  222.3820 C   0  0  0  0  0  0  0  0  0  0  0  0
  143.2267   81.4722  221.7940 H   0  0  0  0  0  0  0  0  0  0  0  0
  142.9380   79.7640  223.0920 C   0  0  0  0  0  0  0  0  0  0  0  0
  143.9979   79.4708  223.0662 H   0  0  0  0  0  0  0  0  0  0  0  0
  142.0240   79.0150  223.8350 C   0  0  0  0  0  0  0  0  0  0  0  0
  142.3637   78.1290  224.3915 H   0  0  0  0  0  0  0  0  0  0  0  0
  140.6780   79.3890  223.8730 C   0  0  0  0  0  0  0  0  0  0  0  0
  139.9627   78.7894  224.4552 H   0  0  0  0  0  0  0  0  0  0  0  0
  138.0560   80.6800  224.5950 C   0  0  0  0  0  0  0  0  0  0  0  0
  138.7735   80.8848  225.4033 H   0  0  0  0  0  0  0  0  0  0  0  0
  137.2039   81.3708  224.6773 H   0  0  0  0  0  0  0  0  0  0  0  0
  137.6970   79.6435  224.6773 H   0  0  0  0  0  0  0  0  0  0  0  0
  136.0300   78.8930  222.3240 O   0  0  0  0  0  0  0  0  0  0  0  0
  135.5440   78.0100  222.2880 H   0  0  0  0  0  0  0  0  0  0  0  0
  139.4670   77.8840  221.3700 C   0  0  0  0  0  0  0  0  0  0  0  0
  139.7930   78.8470  220.9501 H   0  0  0  0  0  0  0  0  0  0  0  0
  140.2800   76.7520  221.2210 C   0  0  0  0  0  0  0  0  0  0  0  0
  141.5190   76.7900  220.5530 C   0  0  0  0  0  0  0  0  0  0  0  0
  141.9280   77.8790  220.0600 O   0  0  0  0  0  0  0  0  0  0  0  0
  142.2750   75.6470  220.4390 N   0  0  0  0  0  0  0  0  0  0  0  0
  143.4850   75.6710  219.7900 C   0  0  0  0  0  0  0  0  0  0  0  0
  143.8515   76.6139  219.3580 H   0  0  0  0  0  0  0  0  0  0  0  0
  144.2560   74.5120  219.6720 C   0  0  0  0  0  0  0  0  0  0  0  0
  145.2233   74.5417  219.1490 H   0  0  0  0  0  0  0  0  0  0  0  0
  143.7930   73.3200  220.2200 C   0  0  0  0  0  0  0  0  0  0  0  0
  144.3932   72.4023  220.1326 H   0  0  0  0  0  0  0  0  0  0  0  0
  142.5680   73.2930  220.8790 C   0  0  0  0  0  0  0  0  0  0  0  0
  142.1949   72.3548  221.3155 H   0  0  0  0  0  0  0  0  0  0  0  0
  141.8140   74.4660  220.9830 C   0  0  0  0  0  0  0  0  0  0  0  0
  140.6200   74.4270  221.6280 N   0  0  0  0  0  0  0  0  0  0  0  0
  139.8480   75.5330  221.7600 C   0  0  0  0  0  0  0  0  0  0  0  0
  138.6560   75.4550  222.4120 N   0  0  0  0  0  0  0  0  0  0  0  0
  138.3590   74.5290  222.7970 H   0  0  0  0  0  0  0  0  0  0  0  0
  1  2  1  0
  2  3  2  0
  3  4  1  0
  4  5  1  0
  5  6  2  0
  6  7  1  0
  7  8  1  6
  7  9  1  0
  9 10  2  0
 10 11  1  0
 10 12  1  0
 12 13  1  0
 12 14  2  0
 14 15  1  0
 14 16  1  0
 16 17  1  0
 16 18  2  0
 18 19  1  0
  7 20  1  0
 20 21  1  0
 20 22  1  0
 20 23  1  0
  5 24  1  0
 24 25  1  0
  4 26  2  0
 26 27  1  0
 26 28  1  0
 28 29  1  0
 29 30  2  0
 29 31  1  0
 31 32  1  0
 32 33  1  0
 32 34  2  0
 34 35  1  0
 34 36  1  0
 36 37  1  0
 36 38  2  0
 38 39  1  0
 38 40  1  0
 40 41  2  0
 41 42  1  0
 42 43  1  0
 43 44  1  0
 43  3  1  0
 18  9  1  0
 42 28  2  0
 40 31  1  0
M  END
>  <UniqueID>  (1) 
31

>  <SMILES>  (1) 
[H]/N=c1\[nH]c2nc3ccccn3c(=O)c2cc1/C(O)=N/[C@@H](C)c1ccccc1

>  <Energy>  (1) 
66.68677808593213

>  <Genealogy>  (1) 
C[C@H](N=C(O)c1cc2c(=O)n3ccccc3nc2[nH]c1=N)c1ccccc1 (tautomer)
[H]/N=c1\[nH]c2nc3ccccn3c(=O)c2cc1/C(O)=N/[C@@H](C)c1ccccc1 (cis-trans isomerization)
[H]/N=c1\[nH]c2nc3ccccn3c(=O)c2cc1/C(O)=N/[C@@H](C)c1ccccc1 (3D coordinates assigned)
[H]/N=c1\[nH]c2nc3ccccn3c(=O)c2cc1/C(O)=N/[C@@H](C)c1ccccc1 (optimized conformer: 66.68677808593213 kcal/mol)

>  <smiles>  (1) 
C[C@H](NC(=O)c1cc2c(=O)n3ccccc3nc2[nH]c1=N)c1ccccc1

>  <score_type>  (1) 
oracle

>  <origin>  (1) 
autodockgpu

>  <m_score__min__energy>  (1) 
-7.4500000000000002

>  <m_primary>  (1) 
energy

>  <meeko>  (1) 
{"free_energy": -6.6, "intermolecular_energy": -8.39, "internal_energy": -2.24, "cluster_size": 15, "cluster_id": 2, "rank_in_cluster": 8}

>  <energy>  (1) 
-7.45

>  <cluster_rmsd>  (1) 
0.0

>  <rmsd>  (1) 
270.59

>  <cluster>  (1) 
1

$$$$
OOSPKVZPLIIQRF-UTVOXLHVNA-N
     RDKit          3D

 44 47  0  0  0  0  0  0  0  0999 V2000
  134.2820   68.0870  226.2120 H   0  0  0  0  0  0  0  0  0  0  0  0
  133.6150   68.8470  226.4710 N   0  0  0  0  0  0  0  0  0  0  0  0
  133.8420   70.0960  226.1960 C   0  0  0  0  0  0  0  0  0  0  0  0
  134.8360   70.4560  225.2500 C   0  0  0  0  0  0  0  0  0  0  0  0
  135.6460   69.4560  224.5010 C   0  0  0  0  0  0  0  0  0  0  0  0
  136.8690   69.7440  224.1490 N   0  0  0  0  0  0  0  0  0  0  0  0
  138.0960   68.9680  224.3630 C   0  0  2  0  0  0  0  0  0  0  0  0
  137.8579   68.0205  224.8685 H   0  0  0  0  0  0  0  0  0  0  0  0
  139.0350   69.6640  225.3410 C   0  0  0  0  0  0  0  0  0  0  0  0
  139.2140   69.2290  226.6730 C   0  0  0  0  0  0  0  0  0  0  0  0
  138.6723   68.3433  227.0366 H   0  0  0  0  0  0  0  0  0  0  0  0
  140.0760   69.9180  227.5320 C   0  0  0  0  0  0  0  0  0  0  0  0
  140.2164   69.5665  228.5648 H   0  0  0  0  0  0  0  0  0  0  0  0
  140.7590   71.0500  227.0840 C   0  0  0  0  0  0  0  0  0  0  0  0
  141.4378   71.5877  227.7623 H   0  0  0  0  0  0  0  0  0  0  0  0
  140.5800   71.4990  225.7750 C   0  0  0  0  0  0  0  0  0  0  0  0
  141.1159   72.3929  225.4231 H   0  0  0  0  0  0  0  0  0  0  0  0
  139.7210   70.8150  224.9100 C   0  0  0  0  0  0  0  0  0  0  0  0
  139.5797   71.1800  223.8820 H   0  0  0  0  0  0  0  0  0  0  0  0
  138.7090   68.5450  223.0170 C   0  0  0  0  0  0  0  0  0  0  0  0
  139.6020   67.9288  223.1983 H   0  0  0  0  0  0  0  0  0  0  0  0
  137.9716   67.9626  222.4451 H   0  0  0  0  0  0  0  0  0  0  0  0
  138.9918   69.4411  222.4451 H   0  0  0  0  0  0  0  0  0  0  0  0
  135.0640   68.2190  224.2030 O   0  0  0  0  0  0  0  0  0  0  0  0
  134.1840   67.9020  224.5800 H   0  0  0  0  0  0  0  0  0  0  0  0
  135.0690   71.8220  225.0200 C   0  0  0  0  0  0  0  0  0  0  0  0
  135.8425   72.1282  224.3004 H   0  0  0  0  0  0  0  0  0  0  0  0
  134.3260   72.8000  225.6980 C   0  0  0  0  0  0  0  0  0  0  0  0
  134.5210   74.1790  225.4930 C   0  0  0  0  0  0  0  0  0  0  0  0
  135.3980   74.5690  224.6710 O   0  0  0  0  0  0  0  0  0  0  0  0
  133.7610   75.0920  226.1860 N   0  0  0  0  0  0  0  0  0  0  0  0
  133.9420   76.4400  225.9950 C   0  0  0  0  0  0  0  0  0  0  0  0
  134.7015   76.7906  225.2807 H   0  0  0  0  0  0  0  0  0  0  0  0
  133.1730   77.3710  226.6970 C   0  0  0  0  0  0  0  0  0  0  0  0
  133.3269   78.4485  226.5378 H   0  0  0  0  0  0  0  0  0  0  0  0
  132.2110   76.9270  227.5990 C   0  0  0  0  0  0  0  0  0  0  0  0
  131.5993   77.6522  228.1556 H   0  0  0  0  0  0  0  0  0  0  0  0
  132.0260   75.5610  227.7940 C   0  0  0  0  0  0  0  0  0  0  0  0
  131.2683   75.2011  228.5056 H   0  0  0  0  0  0  0  0  0  0  0  0
  132.8090   74.6500  227.0800 C   0  0  0  0  0  0  0  0  0  0  0  0
  132.6190   73.3200  227.2790 N   0  0  0  0  0  0  0  0  0  0  0  0
  133.3480   72.3910  226.6140 C   0  0  0  0  0  0  0  0  0  0  0  0
  133.1300   71.0670  226.8420 N   0  0  0  0  0  0  0  0  0  0  0  0
  132.3980   70.7960  227.5360 H   0  0  0  0  0  0  0  0  0  0  0  0
  1  2  1  0
  2  3  2  0
  3  4  1  0
  4  5  1  0
  5  6  2  0
  6  7  1  0
  7  8  1  1
  7  9  1  0
  9 10  2  0
 10 11  1  0
 10 12  1  0
 12 13  1  0
 12 14  2  0
 14 15  1  0
 14 16  1  0
 16 17  1  0
 16 18  2  0
 18 19  1  0
  7 20  1  0
 20 21  1  0
 20 22  1  0
 20 23  1  0
  5 24  1  0
 24 25  1  0
  4 26  2  0
 26 27  1  0
 26 28  1  0
 28 29  1  0
 29 30  2  0
 29 31  1  0
 31 32  1  0
 32 33  1  0
 32 34  2  0
 34 35  1  0
 34 36  1  0
 36 37  1  0
 36 38  2  0
 38 39  1  0
 38 40  1  0
 40 41  2  0
 41 42  1  0
 42 43  1  0
 43 44  1  0
 43  3  1  0
 18  9  1  0
 42 28  2  0
 40 31  1  0
M  END
>  <UniqueID>  (2) 
31

>  <SMILES>  (2) 
[H]/N=c1\[nH]c2nc3ccccn3c(=O)c2cc1/C(O)=N/[C@@H](C)c1ccccc1

>  <Energy>  (2) 
66.68677808593213

>  <Genealogy>  (2) 
C[C@H](N=C(O)c1cc2c(=O)n3ccccc3nc2[nH]c1=N)c1ccccc1 (tautomer)
[H]/N=c1\[nH]c2nc3ccccn3c(=O)c2cc1/C(O)=N/[C@@H](C)c1ccccc1 (cis-trans isomerization)
[H]/N=c1\[nH]c2nc3ccccn3c(=O)c2cc1/C(O)=N/[C@@H](C)c1ccccc1 (3D coordinates assigned)
[H]/N=c1\[nH]c2nc3ccccn3c(=O)c2cc1/C(O)=N/[C@@H](C)c1ccccc1 (optimized conformer: 66.68677808593213 kcal/mol)

>  <smiles>  (2) 
C[C@H](NC(=O)c1cc2c(=O)n3ccccc3nc2[nH]c1=N)c1ccccc1

>  <score_type>  (2) 
oracle

>  <origin>  (2) 
autodockgpu

>  <m_score__min__energy>  (2) 
-7.4500000000000002

>  <m_primary>  (2) 
energy

>  <meeko>  (2) 
{"free_energy": -7.42, "intermolecular_energy": -9.21, "internal_energy": -1.49, "cluster_size": 5, "cluster_id": 1, "rank_in_cluster": 4}

>  <energy>  (2) 
-7.45

>  <cluster_rmsd>  (2) 
0.05

>  <rmsd>  (2) 
270.61

>  <cluster>  (2) 
1

$$$$
OOSPKVZPLIIQRF-UTVOXLHVNA-N
     RDKit          3D

 44 47  0  0  0  0  0  0  0  0999 V2000
  136.2510   77.1780  223.7850 H   0  0  0  0  0  0  0  0  0  0  0  0
  136.7140   76.3910  223.2790 N   0  0  0  0  0  0  0  0  0  0  0  0
  137.8420   76.5340  222.6520 C   0  0  0  0  0  0  0  0  0  0  0  0
  138.2180   77.7950  222.1240 C   0  0  0  0  0  0  0  0  0  0  0  0
  137.3840   79.0200  222.2730 C   0  0  0  0  0  0  0  0  0  0  0  0
  137.9430   80.1980  222.2090 N   0  0  0  0  0  0  0  0  0  0  0  0
  138.7180   80.9070  223.2340 C   0  0  2  0  0  0  0  0  0  0  0  0
  138.7127   81.9877  223.0289 H   0  0  0  0  0  0  0  0  0  0  0  0
  140.1960   80.5440  223.1690 C   0  0  0  0  0  0  0  0  0  0  0  0
  141.1280   81.2590  222.3850 C   0  0  0  0  0  0  0  0  0  0  0  0
  140.7958   82.1281  221.7982 H   0  0  0  0  0  0  0  0  0  0  0  0
  142.4710   80.8690  222.3500 C   0  0  0  0  0  0  0  0  0  0  0  0
  143.1910   81.4373  221.7428 H   0  0  0  0  0  0  0  0  0  0  0  0
  142.9010   79.7610  223.0830 C   0  0  0  0  0  0  0  0  0  0  0  0
  143.9585   79.4596  223.0553 H   0  0  0  0  0  0  0  0  0  0  0  0
  141.9880   79.0360  223.8510 C   0  0  0  0  0  0  0  0  0  0  0  0
  142.3261   78.1609  224.4254 H   0  0  0  0  0  0  0  0  0  0  0  0
  140.6440   79.4210  223.8910 C   0  0  0  0  0  0  0  0  0  0  0  0
  139.9293   78.8404  224.4928 H   0  0  0  0  0  0  0  0  0  0  0  0
  138.0440   80.7720  224.6100 C   0  0  0  0  0  0  0  0  0  0  0  0
  138.7930   80.9220  225.4015 H   0  0  0  0  0  0  0  0  0  0  0  0
  137.2521   81.5294  224.7063 H   0  0  0  0  0  0  0  0  0  0  0  0
  137.6049   79.7681  224.7063 H   0  0  0  0  0  0  0  0  0  0  0  0
  136.0080   78.8670  222.4700 O   0  0  0  0  0  0  0  0  0  0  0  0
  135.5240   77.9830  222.4230 H   0  0  0  0  0  0  0  0  0  0  0  0
  139.4300   77.8860  221.4190 C   0  0  0  0  0  0  0  0  0  0  0  0
  139.7381   78.8501  220.9882 H   0  0  0  0  0  0  0  0  0  0  0  0
  140.2510   76.7600  221.2590 C   0  0  0  0  0  0  0  0  0  0  0  0
  141.4760   76.8060  220.5680 C   0  0  0  0  0  0  0  0  0  0  0  0
  141.8660   77.8970  220.0630 O   0  0  0  0  0  0  0  0  0  0  0  0
  142.2400   75.6700  220.4440 N   0  0  0  0  0  0  0  0  0  0  0  0
  143.4380   75.7020  219.7720 C   0  0  0  0  0  0  0  0  0  0  0  0
  143.7879   76.6466  219.3301 H   0  0  0  0  0  0  0  0  0  0  0  0
  144.2170   74.5500  219.6430 C   0  0  0  0  0  0  0  0  0  0  0  0
  145.1738   74.5867  219.1015 H   0  0  0  0  0  0  0  0  0  0  0  0
  143.7750   73.3550  220.2040 C   0  0  0  0  0  0  0  0  0  0  0  0
  144.3817   72.4424  220.1087 H   0  0  0  0  0  0  0  0  0  0  0  0
  142.5620   73.3200  220.8860 C   0  0  0  0  0  0  0  0  0  0  0  0
  142.2045   72.3800  221.3316 H   0  0  0  0  0  0  0  0  0  0  0  0
  141.8010   74.4870  221.0010 C   0  0  0  0  0  0  0  0  0  0  0  0
  140.6190   74.4390  221.6680 N   0  0  0  0  0  0  0  0  0  0  0  0
  139.8400   75.5390  221.8110 C   0  0  0  0  0  0  0  0  0  0  0  0
  138.6610   75.4530  222.4850 N   0  0  0  0  0  0  0  0  0  0  0  0
  138.3800   74.5260  222.8790 H   0  0  0  0  0  0  0  0  0  0  0  0
  1  2  1  0
  2  3  2  0
  3  4  1  0
  4  5  1  0
  5  6  2  0
  6  7  1  0
  7  8  1  6
  7  9  1  0
  9 10  2  0
 10 11  1  0
 10 12  1  0
 12 13  1  0
 12 14  2  0
 14 15  1  0
 14 16  1  0
 16 17  1  0
 16 18  2  0
 18 19  1  0
  7 20  1  0
 20 21  1  0
 20 22  1  0
 20 23  1  0
  5 24  1  0
 24 25  1  0
  4 26  2  0
 26 27  1  0
 26 28  1  0
 28 29  1  0
 29 30  2  0
 29 31  1  0
 31 32  1  0
 32 33  1  0
 32 34  2  0
 34 35  1  0
 34 36  1  0
 36 37  1  0
 36 38  2  0
 38 39  1  0
 38 40  1  0
 40 41  2  0
 41 42  1  0
 42 43  1  0
 43 44  1  0
 43  3  1  0
 18  9  1  0
 42 28  2  0
 40 31  1  0
M  END
>  <UniqueID>  (3) 
31

>  <SMILES>  (3) 
[H]/N=c1\[nH]c2nc3ccccn3c(=O)c2cc1/C(O)=N/[C@@H](C)c1ccccc1

>  <Energy>  (3) 
66.68677808593213

>  <Genealogy>  (3) 
C[C@H](N=C(O)c1cc2c(=O)n3ccccc3nc2[nH]c1=N)c1ccccc1 (tautomer)
[H]/N=c1\[nH]c2nc3ccccn3c(=O)c2cc1/C(O)=N/[C@@H](C)c1ccccc1 (cis-trans isomerization)
[H]/N=c1\[nH]c2nc3ccccn3c(=O)c2cc1/C(O)=N/[C@@H](C)c1ccccc1 (3D coordinates assigned)
[H]/N=c1\[nH]c2nc3ccccn3c(=O)c2cc1/C(O)=N/[C@@H](C)c1ccccc1 (optimized conformer: 66.68677808593213 kcal/mol)

>  <smiles>  (3) 
C[C@H](NC(=O)c1cc2c(=O)n3ccccc3nc2[nH]c1=N)c1ccccc1

>  <score_type>  (3) 
oracle

>  <origin>  (3) 
autodockgpu

>  <m_score__min__energy>  (3) 
-7.4500000000000002

>  <m_primary>  (3) 
energy

>  <meeko>  (3) 
{"free_energy": -6.59, "intermolecular_energy": -8.38, "internal_energy": -2.24, "cluster_size": 15, "cluster_id": 2, "rank_in_cluster": 11}

>  <energy>  (3) 
-7.42

>  <cluster_rmsd>  (3) 
0.07

>  <rmsd>  (3) 
270.57

>  <cluster>  (3) 
1

$$$$
OOSPKVZPLIIQRF-UTVOXLHVNA-N
     RDKit          3D

 44 47  0  0  0  0  0  0  0  0999 V2000
  136.2570   77.1740  223.8000 H   0  0  0  0  0  0  0  0  0  0  0  0
  136.7160   76.3850  223.2920 N   0  0  0  0  0  0  0  0  0  0  0  0
  137.8440   76.5250  222.6630 C   0  0  0  0  0  0  0  0  0  0  0  0
  138.2210   77.7840  222.1310 C   0  0  0  0  0  0  0  0  0  0  0  0
  137.3890   79.0110  222.2780 C   0  0  0  0  0  0  0  0  0  0  0  0
  137.9500   80.1870  222.2080 N   0  0  0  0  0  0  0  0  0  0  0  0
  138.7550   80.8860  223.2170 C   0  0  2  0  0  0  0  0  0  0  0  0
  138.7978   81.9605  222.9854 H   0  0  0  0  0  0  0  0  0  0  0  0
  140.2160   80.4540  223.1640 C   0  0  0  0  0  0  0  0  0  0  0  0
  140.7220   79.3690  223.9130 C   0  0  0  0  0  0  0  0  0  0  0  0
  140.0470   78.7886  224.5591 H   0  0  0  0  0  0  0  0  0  0  0  0
  142.0770   79.0280  223.8380 C   0  0  0  0  0  0  0  0  0  0  0  0
  142.4611   78.1766  224.4190 H   0  0  0  0  0  0  0  0  0  0  0  0
  142.9430   79.7650  223.0280 C   0  0  0  0  0  0  0  0  0  0  0  0
  144.0069   79.4920  222.9692 H   0  0  0  0  0  0  0  0  0  0  0  0
  142.4590   80.8480  222.2930 C   0  0  0  0  0  0  0  0  0  0  0  0
  143.1427   81.4302  221.6578 H   0  0  0  0  0  0  0  0  0  0  0  0
  141.1060   81.1940  222.3630 C   0  0  0  0  0  0  0  0  0  0  0  0
  140.7333   82.0533  221.7862 H   0  0  0  0  0  0  0  0  0  0  0  0
  138.0750   80.8150  224.5950 C   0  0  0  0  0  0  0  0  0  0  0  0
  138.8369   80.8946  225.3844 H   0  0  0  0  0  0  0  0  0  0  0  0
  137.3576   81.6431  224.6930 H   0  0  0  0  0  0  0  0  0  0  0  0
  137.5442   79.8566  224.6930 H   0  0  0  0  0  0  0  0  0  0  0  0
  136.0130   78.8600  222.4800 O   0  0  0  0  0  0  0  0  0  0  0  0
  135.5280   77.9770  222.4360 H   0  0  0  0  0  0  0  0  0  0  0  0
  139.4320   77.8710  221.4240 C   0  0  0  0  0  0  0  0  0  0  0  0
  139.7413   78.8336  220.9906 H   0  0  0  0  0  0  0  0  0  0  0  0
  140.2510   76.7430  221.2650 C   0  0  0  0  0  0  0  0  0  0  0  0
  141.4750   76.7860  220.5730 C   0  0  0  0  0  0  0  0  0  0  0  0
  141.8660   77.8750  220.0650 O   0  0  0  0  0  0  0  0  0  0  0  0
  142.2370   75.6480  220.4500 N   0  0  0  0  0  0  0  0  0  0  0  0
  143.4340   75.6760  219.7760 C   0  0  0  0  0  0  0  0  0  0  0  0
  143.7852   76.6187  219.3311 H   0  0  0  0  0  0  0  0  0  0  0  0
  144.2100   74.5220  219.6490 C   0  0  0  0  0  0  0  0  0  0  0  0
  145.1658   74.5551  219.1055 H   0  0  0  0  0  0  0  0  0  0  0  0
  143.7670   73.3300  220.2140 C   0  0  0  0  0  0  0  0  0  0  0  0
  144.3723   72.4162  220.1211 H   0  0  0  0  0  0  0  0  0  0  0  0
  142.5550   73.2990  220.8970 C   0  0  0  0  0  0  0  0  0  0  0  0
  142.1964   72.3607  221.3453 H   0  0  0  0  0  0  0  0  0  0  0  0
  141.7960   74.4670  221.0100 C   0  0  0  0  0  0  0  0  0  0  0  0
  140.6160   74.4230  221.6800 N   0  0  0  0  0  0  0  0  0  0  0  0
  139.8380   75.5250  221.8210 C   0  0  0  0  0  0  0  0  0  0  0  0
  138.6600   75.4420  222.4970 N   0  0  0  0  0  0  0  0  0  0  0  0
  138.3780   74.5160  222.8940 H   0  0  0  0  0  0  0  0  0  0  0  0
  1  2  1  0
  2  3  2  0
  3  4  1  0
  4  5  1  0
  5  6  2  0
  6  7  1  0
  7  8  1  6
  7  9  1  0
  9 10  2  0
 10 11  1  0
 10 12  1  0
 12 13  1  0
 12 14  2  0
 14 15  1  0
 14 16  1  0
 16 17  1  0
 16 18  2  0
 18 19  1  0
  7 20  1  0
 20 21  1  0
 20 22  1  0
 20 23  1  0
  5 24  1  0
 24 25  1  0
  4 26  2  0
 26 27  1  0
 26 28  1  0
 28 29  1  0
 29 30  2  0
 29 31  1  0
 31 32  1  0
 32 33  1  0
 32 34  2  0
 34 35  1  0
 34 36  1  0
 36 37  1  0
 36 38  2  0
 38 39  1  0
 38 40  1  0
 40 41  2  0
 41 42  1  0
 42 43  1  0
 43 44  1  0
 43  3  1  0
 18  9  1  0
 42 28  2  0
 40 31  1  0
M  END
>  <UniqueID>  (4) 
31

>  <SMILES>  (4) 
[H]/N=c1\[nH]c2nc3ccccn3c(=O)c2cc1/C(O)=N/[C@@H](C)c1ccccc1

>  <Energy>  (4) 
66.68677808593213

>  <Genealogy>  (4) 
C[C@H](N=C(O)c1cc2c(=O)n3ccccc3nc2[nH]c1=N)c1ccccc1 (tautomer)
[H]/N=c1\[nH]c2nc3ccccn3c(=O)c2cc1/C(O)=N/[C@@H](C)c1ccccc1 (cis-trans isomerization)
[H]/N=c1\[nH]c2nc3ccccn3c(=O)c2cc1/C(O)=N/[C@@H](C)c1ccccc1 (3D coordinates assigned)
[H]/N=c1\[nH]c2nc3ccccn3c(=O)c2cc1/C(O)=N/[C@@H](C)c1ccccc1 (optimized conformer: 66.68677808593213 kcal/mol)

>  <smiles>  (4) 
C[C@H](NC(=O)c1cc2c(=O)n3ccccc3nc2[nH]c1=N)c1ccccc1

>  <score_type>  (4) 
oracle

>  <origin>  (4) 
autodockgpu

>  <m_score__min__energy>  (4) 
-7.4500000000000002

>  <m_primary>  (4) 
energy

>  <meeko>  (4) 
{"free_energy": -6.57, "intermolecular_energy": -8.36, "internal_energy": -2.25, "cluster_size": 15, "cluster_id": 2, "rank_in_cluster": 15}

>  <energy>  (4) 
-7.42

>  <cluster_rmsd>  (4) 
0.06

>  <rmsd>  (4) 
270.59

>  <cluster>  (4) 
1

$$$$
OOSPKVZPLIIQRF-UTVOXLHVNA-N
     RDKit          3D

 44 47  0  0  0  0  0  0  0  0999 V2000
  134.2690   68.0930  226.2000 H   0  0  0  0  0  0  0  0  0  0  0  0
  133.6070   68.8570  226.4620 N   0  0  0  0  0  0  0  0  0  0  0  0
  133.8380   70.1040  226.1810 C   0  0  0  0  0  0  0  0  0  0  0  0
  134.8360   70.4580  225.2380 C   0  0  0  0  0  0  0  0  0  0  0  0
  135.6470   69.4520  224.4970 C   0  0  0  0  0  0  0  0  0  0  0  0
  136.8760   69.7310  224.1600 N   0  0  0  0  0  0  0  0  0  0  0  0
  138.1000   68.9640  224.4220 C   0  0  2  0  0  0  0  0  0  0  0  0
  137.8561   68.0450  224.9752 H   0  0  0  0  0  0  0  0  0  0  0  0
  139.0350   69.7090  225.3680 C   0  0  0  0  0  0  0  0  0  0  0  0
  139.7290   70.8800  224.9940 C   0  0  0  0  0  0  0  0  0  0  0  0
  139.5937   71.2972  223.9852 H   0  0  0  0  0  0  0  0  0  0  0  0
  140.5880   71.5130  225.8990 C   0  0  0  0  0  0  0  0  0  0  0  0
  141.1178   72.4301  225.6020 H   0  0  0  0  0  0  0  0  0  0  0  0
  140.7750   70.9850  227.1770 C   0  0  0  0  0  0  0  0  0  0  0  0
  141.4491   71.4873  227.8864 H   0  0  0  0  0  0  0  0  0  0  0  0
  140.1070   69.8200  227.5550 C   0  0  0  0  0  0  0  0  0  0  0  0
  140.2576   69.4025  228.5615 H   0  0  0  0  0  0  0  0  0  0  0  0
  139.2460   69.1820  226.6560 C   0  0  0  0  0  0  0  0  0  0  0  0
  138.7288   68.2595  226.9585 H   0  0  0  0  0  0  0  0  0  0  0  0
  138.7200   68.4670  223.1050 C   0  0  0  0  0  0  0  0  0  0  0  0
  139.5607   67.7931  223.3268 H   0  0  0  0  0  0  0  0  0  0  0  0
  137.9596   67.9254  222.5232 H   0  0  0  0  0  0  0  0  0  0  0  0
  139.0831   69.3270  222.5232 H   0  0  0  0  0  0  0  0  0  0  0  0
  135.0590   68.2200  224.1900 O   0  0  0  0  0  0  0  0  0  0  0  0
  134.1850   67.8980  224.5770 H   0  0  0  0  0  0  0  0  0  0  0  0
  135.0720   71.8220  225.0010 C   0  0  0  0  0  0  0  0  0  0  0  0
  135.8482   72.1228  224.2819 H   0  0  0  0  0  0  0  0  0  0  0  0
  134.3290   72.8050  225.6710 C   0  0  0  0  0  0  0  0  0  0  0  0
  134.5270   74.1820  225.4600 C   0  0  0  0  0  0  0  0  0  0  0  0
  135.4080   74.5660  224.6390 O   0  0  0  0  0  0  0  0  0  0  0  0
  133.7660   75.1000  226.1450 N   0  0  0  0  0  0  0  0  0  0  0  0
  133.9500   76.4470  225.9480 C   0  0  0  0  0  0  0  0  0  0  0  0
  134.7130   76.7926  225.2350 H   0  0  0  0  0  0  0  0  0  0  0  0
  133.1800   77.3830  226.6420 C   0  0  0  0  0  0  0  0  0  0  0  0
  133.3365   78.4594  226.4778 H   0  0  0  0  0  0  0  0  0  0  0  0
  132.2130   76.9450  227.5430 C   0  0  0  0  0  0  0  0  0  0  0  0
  131.6003   77.6741  228.0935 H   0  0  0  0  0  0  0  0  0  0  0  0
  132.0250   75.5810  227.7440 C   0  0  0  0  0  0  0  0  0  0  0  0
  131.2642   75.2262  228.4548 H   0  0  0  0  0  0  0  0  0  0  0  0
  132.8090   74.6640  227.0370 C   0  0  0  0  0  0  0  0  0  0  0  0
  132.6160   73.3360  227.2430 N   0  0  0  0  0  0  0  0  0  0  0  0
  133.3460   72.4020  226.5850 C   0  0  0  0  0  0  0  0  0  0  0  0
  133.1250   71.0800  226.8190 N   0  0  0  0  0  0  0  0  0  0  0  0
  132.3890   70.8130  227.5120 H   0  0  0  0  0  0  0  0  0  0  0  0
  1  2  1  0
  2  3  2  0
  3  4  1  0
  4  5  1  0
  5  6  2  0
  6  7  1  0
  7  8  1  1
  7  9  1  0
  9 10  2  0
 10 11  1  0
 10 12  1  0
 12 13  1  0
 12 14  2  0
 14 15  1  0
 14 16  1  0
 16 17  1  0
 16 18  2  0
 18 19  1  0
  7 20  1  0
 20 21  1  0
 20 22  1  0
 20 23  1  0
  5 24  1  0
 24 25  1  0
  4 26  2  0
 26 27  1  0
 26 28  1  0
 28 29  1  0
 29 30  2  0
 29 31  1  0
 31 32  1  0
 32 33  1  0
 32 34  2  0
 34 35  1  0
 34 36  1  0
 36 37  1  0
 36 38  2  0
 38 39  1  0
 38 40  1  0
 40 41  2  0
 41 42  1  0
 42 43  1  0
 43 44  1  0
 43  3  1  0
 18  9  1  0
 42 28  2  0
 40 31  1  0
M  END
>  <UniqueID>  (5) 
31

>  <SMILES>  (5) 
[H]/N=c1\[nH]c2nc3ccccn3c(=O)c2cc1/C(O)=N/[C@@H](C)c1ccccc1

>  <Energy>  (5) 
66.68677808593213

>  <Genealogy>  (5) 
C[C@H](N=C(O)c1cc2c(=O)n3ccccc3nc2[nH]c1=N)c1ccccc1 (tautomer)
[H]/N=c1\[nH]c2nc3ccccn3c(=O)c2cc1/C(O)=N/[C@@H](C)c1ccccc1 (cis-trans isomerization)
[H]/N=c1\[nH]c2nc3ccccn3c(=O)c2cc1/C(O)=N/[C@@H](C)c1ccccc1 (3D coordinates assigned)
[H]/N=c1\[nH]c2nc3ccccn3c(=O)c2cc1/C(O)=N/[C@@H](C)c1ccccc1 (optimized conformer: 66.68677808593213 kcal/mol)

>  <smiles>  (5) 
C[C@H](NC(=O)c1cc2c(=O)n3ccccc3nc2[nH]c1=N)c1ccccc1

>  <score_type>  (5) 
oracle

>  <origin>  (5) 
autodockgpu

>  <m_score__min__energy>  (5) 
-7.4500000000000002

>  <m_primary>  (5) 
energy

>  <meeko>  (5) 
{"free_energy": -7.45, "intermolecular_energy": -9.24, "internal_energy": -1.49, "cluster_size": 5, "cluster_id": 1, "rank_in_cluster": 1}

>  <energy>  (5) 
-7.41

>  <cluster_rmsd>  (5) 
0.14

>  <rmsd>  (5) 
270.57

>  <cluster>  (5) 
1

$$$$
OOSPKVZPLIIQRF-UTVOXLHVNA-N
     RDKit          3D

 44 47  0  0  0  0  0  0  0  0999 V2000
  136.2390   77.2170  223.5630 H   0  0  0  0  0  0  0  0  0  0  0  0
  136.7430   76.4110  223.1320 N   0  0  0  0  0  0  0  0  0  0  0  0
  137.8820   76.5460  222.5230 C   0  0  0  0  0  0  0  0  0  0  0  0
  138.2710   77.8030  221.9930 C   0  0  0  0  0  0  0  0  0  0  0  0
  137.4380   79.0310  222.1200 C   0  0  0  0  0  0  0  0  0  0  0  0
  138.0110   80.2040  222.1360 N   0  0  0  0  0  0  0  0  0  0  0  0
  138.7620   80.8490  223.2200 C   0  0  2  0  0  0  0  0  0  0  0  0
  138.7472   81.9413  223.0909 H   0  0  0  0  0  0  0  0  0  0  0  0
  140.2450   80.5060  223.1530 C   0  0  0  0  0  0  0  0  0  0  0  0
  141.1710   81.2520  222.3910 C   0  0  0  0  0  0  0  0  0  0  0  0
  140.8297   82.1309  221.8243 H   0  0  0  0  0  0  0  0  0  0  0  0
  142.5190   80.8810  222.3520 C   0  0  0  0  0  0  0  0  0  0  0  0
  143.2338   81.4730  221.7615 H   0  0  0  0  0  0  0  0  0  0  0  0
  142.9600   79.7620  223.0600 C   0  0  0  0  0  0  0  0  0  0  0  0
  144.0215   79.4752  223.0300 H   0  0  0  0  0  0  0  0  0  0  0  0
  142.0540   79.0070  223.8060 C   0  0  0  0  0  0  0  0  0  0  0  0
  142.4017   78.1233  224.3611 H   0  0  0  0  0  0  0  0  0  0  0  0
  140.7050   79.3720  223.8490 C   0  0  0  0  0  0  0  0  0  0  0  0
  139.9957   78.7668  224.4327 H   0  0  0  0  0  0  0  0  0  0  0  0
  138.0690   80.6110  224.5720 C   0  0  0  0  0  0  0  0  0  0  0  0
  138.7661   80.8504  225.3885 H   0  0  0  0  0  0  0  0  0  0  0  0
  137.1809   81.2556  224.6473 H   0  0  0  0  0  0  0  0  0  0  0  0
  137.7643   79.5567  224.6473 H   0  0  0  0  0  0  0  0  0  0  0  0
  136.0500   78.8860  222.2100 O   0  0  0  0  0  0  0  0  0  0  0  0
  135.5730   77.9980  222.2200 H   0  0  0  0  0  0  0  0  0  0  0  0
  139.4950   77.8850  221.3090 C   0  0  0  0  0  0  0  0  0  0  0  0
  139.8142   78.8455  220.8784 H   0  0  0  0  0  0  0  0  0  0  0  0
  140.3150   76.7550  221.1690 C   0  0  0  0  0  0  0  0  0  0  0  0
  141.5510   76.7940  220.4990 C   0  0  0  0  0  0  0  0  0  0  0  0
  141.9530   77.8800  219.9940 O   0  0  0  0  0  0  0  0  0  0  0  0
  142.3140   75.6540  220.3950 N   0  0  0  0  0  0  0  0  0  0  0  0
  143.5230   75.6770  219.7430 C   0  0  0  0  0  0  0  0  0  0  0  0
  143.8835   76.6173  219.3004 H   0  0  0  0  0  0  0  0  0  0  0  0
  144.3000   74.5220  219.6350 C   0  0  0  0  0  0  0  0  0  0  0  0
  145.2662   74.5520  219.1101 H   0  0  0  0  0  0  0  0  0  0  0  0
  143.8440   73.3320  220.1960 C   0  0  0  0  0  0  0  0  0  0  0  0
  144.4487   72.4166  220.1170 H   0  0  0  0  0  0  0  0  0  0  0  0
  142.6200   73.3060  220.8570 C   0  0  0  0  0  0  0  0  0  0  0  0
  142.2516   72.3700  221.3023 H   0  0  0  0  0  0  0  0  0  0  0  0
  141.8610   74.4760  220.9520 C   0  0  0  0  0  0  0  0  0  0  0  0
  140.6680   74.4360  221.5990 N   0  0  0  0  0  0  0  0  0  0  0  0
  139.8900   75.5400  221.7220 C   0  0  0  0  0  0  0  0  0  0  0  0
  138.7000   75.4610  222.3770 N   0  0  0  0  0  0  0  0  0  0  0  0
  138.4090   74.5380  222.7710 H   0  0  0  0  0  0  0  0  0  0  0  0
  1  2  1  0
  2  3  2  0
  3  4  1  0
  4  5  1  0
  5  6  2  0
  6  7  1  0
  7  8  1  6
  7  9  1  0
  9 10  2  0
 10 11  1  0
 10 12  1  0
 12 13  1  0
 12 14  2  0
 14 15  1  0
 14 16  1  0
 16 17  1  0
 16 18  2  0
 18 19  1  0
  7 20  1  0
 20 21  1  0
 20 22  1  0
 20 23  1  0
  5 24  1  0
 24 25  1  0
  4 26  2  0
 26 27  1  0
 26 28  1  0
 28 29  1  0
 29 30  2  0
 29 31  1  0
 31 32  1  0
 32 33  1  0
 32 34  2  0
 34 35  1  0
 34 36  1  0
 36 37  1  0
 36 38  2  0
 38 39  1  0
 38 40  1  0
 40 41  2  0
 41 42  1  0
 42 43  1  0
 43 44  1  0
 43  3  1  0
 18  9  1  0
 42 28  2  0
 40 31  1  0
M  END
>  <UniqueID>  (6) 
31

>  <SMILES>  (6) 
[H]/N=c1\[nH]c2nc3ccccn3c(=O)c2cc1/C(O)=N/[C@@H](C)c1ccccc1

>  <Energy>  (6) 
66.68677808593213

>  <Genealogy>  (6) 
C[C@H](N=C(O)c1cc2c(=O)n3ccccc3nc2[nH]c1=N)c1ccccc1 (tautomer)
[H]/N=c1\[nH]c2nc3ccccn3c(=O)c2cc1/C(O)=N/[C@@H](C)c1ccccc1 (cis-trans isomerization)
[H]/N=c1\[nH]c2nc3ccccn3c(=O)c2cc1/C(O)=N/[C@@H](C)c1ccccc1 (3D coordinates assigned)
[H]/N=c1\[nH]c2nc3ccccn3c(=O)c2cc1/C(O)=N/[C@@H](C)c1ccccc1 (optimized conformer: 66.68677808593213 kcal/mol)

>  <smiles>  (6) 
C[C@H](NC(=O)c1cc2c(=O)n3ccccc3nc2[nH]c1=N)c1ccccc1

>  <score_type>  (6) 
oracle

>  <origin>  (6) 
autodockgpu

>  <m_score__min__energy>  (6) 
-7.4500000000000002

>  <m_primary>  (6) 
energy

>  <meeko>  (6) 
{"free_energy": -6.58, "intermolecular_energy": -8.37, "internal_energy": -2.25, "cluster_size": 15, "cluster_id": 2, "rank_in_cluster": 13}

>  <energy>  (6) 
-6.63

>  <cluster_rmsd>  (6) 
0.0

>  <rmsd>  (6) 
271.45

>  <cluster>  (6) 
2

$$$$
OOSPKVZPLIIQRF-UTVOXLHVNA-N
     RDKit          3D

 44 47  0  0  0  0  0  0  0  0999 V2000
  136.2910   77.1280  223.8320 H   0  0  0  0  0  0  0  0  0  0  0  0
  136.7270   76.3540  223.2820 N   0  0  0  0  0  0  0  0  0  0  0  0
  137.8560   76.4960  222.6570 C   0  0  0  0  0  0  0  0  0  0  0  0
  138.2400   77.7590  222.1400 C   0  0  0  0  0  0  0  0  0  0  0  0
  137.4150   78.9880  222.3000 C   0  0  0  0  0  0  0  0  0  0  0  0
  137.9740   80.1630  222.1990 N   0  0  0  0  0  0  0  0  0  0  0  0
  138.7530   80.9020  223.2000 C   0  0  2  0  0  0  0  0  0  0  0  0
  138.7531   81.9753  222.9591 H   0  0  0  0  0  0  0  0  0  0  0  0
  140.2290   80.5280  223.1470 C   0  0  0  0  0  0  0  0  0  0  0  0
  141.1750   81.2440  222.3800 C   0  0  0  0  0  0  0  0  0  0  0  0
  140.8557   82.1216  221.7988 H   0  0  0  0  0  0  0  0  0  0  0  0
  142.5150   80.8440  222.3550 C   0  0  0  0  0  0  0  0  0  0  0  0
  143.2458   81.4125  221.7611 H   0  0  0  0  0  0  0  0  0  0  0  0
  142.9280   79.7260  223.0810 C   0  0  0  0  0  0  0  0  0  0  0  0
  143.9836   79.4171  223.0620 H   0  0  0  0  0  0  0  0  0  0  0  0
  142.0020   79.0000  223.8310 C   0  0  0  0  0  0  0  0  0  0  0  0
  142.3276   78.1164  224.3995 H   0  0  0  0  0  0  0  0  0  0  0  0
  140.6610   79.3940  223.8610 C   0  0  0  0  0  0  0  0  0  0  0  0
  139.9358   78.8119  224.4486 H   0  0  0  0  0  0  0  0  0  0  0  0
  138.0790   80.8170  224.5800 C   0  0  0  0  0  0  0  0  0  0  0  0
  138.8415   80.9132  225.3670 H   0  0  0  0  0  0  0  0  0  0  0  0
  137.3444   81.6296  224.6799 H   0  0  0  0  0  0  0  0  0  0  0  0
  137.5691   79.8474  224.6799 H   0  0  0  0  0  0  0  0  0  0  0  0
  136.0460   78.8410  222.5480 O   0  0  0  0  0  0  0  0  0  0  0  0
  135.5450   77.9700  222.4620 H   0  0  0  0  0  0  0  0  0  0  0  0
  139.4530   77.8480  221.4370 C   0  0  0  0  0  0  0  0  0  0  0  0
  139.7685   78.8141  221.0162 H   0  0  0  0  0  0  0  0  0  0  0  0
  140.2660   76.7180  221.2660 C   0  0  0  0  0  0  0  0  0  0  0  0
  141.4920   76.7620  220.5750 C   0  0  0  0  0  0  0  0  0  0  0  0
  141.8890   77.8550  220.0810 O   0  0  0  0  0  0  0  0  0  0  0  0
  142.2480   75.6220  220.4400 N   0  0  0  0  0  0  0  0  0  0  0  0
  143.4460   75.6520  219.7690 C   0  0  0  0  0  0  0  0  0  0  0  0
  143.8032   76.5981  219.3361 H   0  0  0  0  0  0  0  0  0  0  0  0
  144.2160   74.4950  219.6300 C   0  0  0  0  0  0  0  0  0  0  0  0
  145.1733   74.5296  219.0892 H   0  0  0  0  0  0  0  0  0  0  0  0
  143.7660   73.2990  220.1790 C   0  0  0  0  0  0  0  0  0  0  0  0
  144.3664   72.3831  220.0753 H   0  0  0  0  0  0  0  0  0  0  0  0
  142.5530   73.2660  220.8600 C   0  0  0  0  0  0  0  0  0  0  0  0
  142.1889   72.3243  221.2965 H   0  0  0  0  0  0  0  0  0  0  0  0
  141.8000   74.4370  220.9860 C   0  0  0  0  0  0  0  0  0  0  0  0
  140.6180   74.3910  221.6530 N   0  0  0  0  0  0  0  0  0  0  0  0
  139.8460   75.4950  221.8060 C   0  0  0  0  0  0  0  0  0  0  0  0
  138.6670   75.4100  222.4790 N   0  0  0  0  0  0  0  0  0  0  0  0
  138.3790   74.4820  222.8640 H   0  0  0  0  0  0  0  0  0  0  0  0
  1  2  1  0
  2  3  2  0
  3  4  1  0
  4  5  1  0
  5  6  2  0
  6  7  1  0
  7  8  1  6
  7  9  1  0
  9 10  2  0
 10 11  1  0
 10 12  1  0
 12 13  1  0
 12 14  2  0
 14 15  1  0
 14 16  1  0
 16 17  1  0
 16 18  2  0
 18 19  1  0
  7 20  1  0
 20 21  1  0
 20 22  1  0
 20 23  1  0
  5 24  1  0
 24 25  1  0
  4 26  2  0
 26 27  1  0
 26 28  1  0
 28 29  1  0
 29 30  2  0
 29 31  1  0
 31 32  1  0
 32 33  1  0
 32 34  2  0
 34 35  1  0
 34 36  1  0
 36 37  1  0
 36 38  2  0
 38 39  1  0
 38 40  1  0
 40 41  2  0
 41 42  1  0
 42 43  1  0
 43 44  1  0
 43  3  1  0
 18  9  1  0
 42 28  2  0
 40 31  1  0
M  END
>  <UniqueID>  (7) 
31

>  <SMILES>  (7) 
[H]/N=c1\[nH]c2nc3ccccn3c(=O)c2cc1/C(O)=N/[C@@H](C)c1ccccc1

>  <Energy>  (7) 
66.68677808593213

>  <Genealogy>  (7) 
C[C@H](N=C(O)c1cc2c(=O)n3ccccc3nc2[nH]c1=N)c1ccccc1 (tautomer)
[H]/N=c1\[nH]c2nc3ccccn3c(=O)c2cc1/C(O)=N/[C@@H](C)c1ccccc1 (cis-trans isomerization)
[H]/N=c1\[nH]c2nc3ccccn3c(=O)c2cc1/C(O)=N/[C@@H](C)c1ccccc1 (3D coordinates assigned)
[H]/N=c1\[nH]c2nc3ccccn3c(=O)c2cc1/C(O)=N/[C@@H](C)c1ccccc1 (optimized conformer: 66.68677808593213 kcal/mol)

>  <smiles>  (7) 
C[C@H](NC(=O)c1cc2c(=O)n3ccccc3nc2[nH]c1=N)c1ccccc1

>  <score_type>  (7) 
oracle

>  <origin>  (7) 
autodockgpu

>  <m_score__min__energy>  (7) 
-7.4500000000000002

>  <m_primary>  (7) 
energy

>  <meeko>  (7) 
{"free_energy": -6.63, "intermolecular_energy": -8.42, "internal_energy": -2.22, "cluster_size": 15, "cluster_id": 2, "rank_in_cluster": 1}

>  <energy>  (7) 
-6.62

>  <cluster_rmsd>  (7) 
0.04

>  <rmsd>  (7) 
271.46

>  <cluster>  (7) 
2

$$$$
OOSPKVZPLIIQRF-UTVOXLHVNA-N
     RDKit          3D

 44 47  0  0  0  0  0  0  0  0999 V2000
  134.2700   68.0820  226.1430 H   0  0  0  0  0  0  0  0  0  0  0  0
  133.6250   68.8460  226.4450 N   0  0  0  0  0  0  0  0  0  0  0  0
  133.8540   70.0960  226.1780 C   0  0  0  0  0  0  0  0  0  0  0  0
  134.8510   70.4620  225.2380 C   0  0  0  0  0  0  0  0  0  0  0  0
  135.6640   69.4660  224.4860 C   0  0  0  0  0  0  0  0  0  0  0  0
  136.9010   69.7400  224.1760 N   0  0  0  0  0  0  0  0  0  0  0  0
  138.1160   68.9670  224.4600 C   0  0  2  0  0  0  0  0  0  0  0  0
  137.8617   68.0653  225.0365 H   0  0  0  0  0  0  0  0  0  0  0  0
  139.0570   69.7260  225.3880 C   0  0  0  0  0  0  0  0  0  0  0  0
  139.7860   70.8630  224.9780 C   0  0  0  0  0  0  0  0  0  0  0  0
  139.6745   71.2426  223.9516 H   0  0  0  0  0  0  0  0  0  0  0  0
  140.6490   71.5100  225.8680 C   0  0  0  0  0  0  0  0  0  0  0  0
  141.2061   72.4005  225.5415 H   0  0  0  0  0  0  0  0  0  0  0  0
  140.8060   71.0300  227.1690 C   0  0  0  0  0  0  0  0  0  0  0  0
  141.4835   71.5436  227.8670 H   0  0  0  0  0  0  0  0  0  0  0  0
  140.1030   69.8980  227.5840 C   0  0  0  0  0  0  0  0  0  0  0  0
  140.2297   69.5181  228.6085 H   0  0  0  0  0  0  0  0  0  0  0  0
  139.2380   69.2460  226.7000 C   0  0  0  0  0  0  0  0  0  0  0  0
  138.6936   68.3497  227.0321 H   0  0  0  0  0  0  0  0  0  0  0  0
  138.7320   68.4290  223.1580 C   0  0  0  0  0  0  0  0  0  0  0  0
  139.5403   67.7230  223.3992 H   0  0  0  0  0  0  0  0  0  0  0  0
  137.9574   67.9131  222.5717 H   0  0  0  0  0  0  0  0  0  0  0  0
  139.1390   69.2660  222.5717 H   0  0  0  0  0  0  0  0  0  0  0  0
  135.0680   68.2480  224.1400 O   0  0  0  0  0  0  0  0  0  0  0  0
  134.2130   67.9000  224.5460 H   0  0  0  0  0  0  0  0  0  0  0  0
  135.0840   71.8290  225.0170 C   0  0  0  0  0  0  0  0  0  0  0  0
  135.8593   72.1398  224.3012 H   0  0  0  0  0  0  0  0  0  0  0  0
  134.3390   72.8030  225.6990 C   0  0  0  0  0  0  0  0  0  0  0  0
  134.5350   74.1820  225.5030 C   0  0  0  0  0  0  0  0  0  0  0  0
  135.4150   74.5780  224.6860 O   0  0  0  0  0  0  0  0  0  0  0  0
  133.7720   75.0920  226.1980 N   0  0  0  0  0  0  0  0  0  0  0  0
  133.9530   76.4410  226.0160 C   0  0  0  0  0  0  0  0  0  0  0  0
  134.7149   76.7964  225.3067 H   0  0  0  0  0  0  0  0  0  0  0  0
  133.1810   77.3670  226.7210 C   0  0  0  0  0  0  0  0  0  0  0  0
  133.3351   78.4454  226.5687 H   0  0  0  0  0  0  0  0  0  0  0  0
  132.2160   76.9180  227.6170 C   0  0  0  0  0  0  0  0  0  0  0  0
  131.6022   77.6398  228.1758 H   0  0  0  0  0  0  0  0  0  0  0  0
  132.0310   75.5510  227.8030 C   0  0  0  0  0  0  0  0  0  0  0  0
  131.2718   75.1866  228.5106 H   0  0  0  0  0  0  0  0  0  0  0  0
  132.8160   74.6440  227.0850 C   0  0  0  0  0  0  0  0  0  0  0  0
  132.6260   73.3130  227.2760 N   0  0  0  0  0  0  0  0  0  0  0  0
  133.3570   72.3880  226.6080 C   0  0  0  0  0  0  0  0  0  0  0  0
  133.1390   71.0630  226.8270 N   0  0  0  0  0  0  0  0  0  0  0  0
  132.4040   70.7870  227.5170 H   0  0  0  0  0  0  0  0  0  0  0  0
  1  2  1  0
  2  3  2  0
  3  4  1  0
  4  5  1  0
  5  6  2  0
  6  7  1  0
  7  8  1  1
  7  9  1  0
  9 10  2  0
 10 11  1  0
 10 12  1  0
 12 13  1  0
 12 14  2  0
 14 15  1  0
 14 16  1  0
 16 17  1  0
 16 18  2  0
 18 19  1  0
  7 20  1  0
 20 21  1  0
 20 22  1  0
 20 23  1  0
  5 24  1  0
 24 25  1  0
  4 26  2  0
 26 27  1  0
 26 28  1  0
 28 29  1  0
 29 30  2  0
 29 31  1  0
 31 32  1  0
 32 33  1  0
 32 34  2  0
 34 35  1  0
 34 36  1  0
 36 37  1  0
 36 38  2  0
 38 39  1  0
 38 40  1  0
 40 41  2  0
 41 42  1  0
 42 43  1  0
 43 44  1  0
 43  3  1  0
 18  9  1  0
 42 28  2  0
 40 31  1  0
M  END
>  <UniqueID>  (8) 
31

>  <SMILES>  (8) 
[H]/N=c1\[nH]c2nc3ccccn3c(=O)c2cc1/C(O)=N/[C@@H](C)c1ccccc1

>  <Energy>  (8) 
66.68677808593213

>  <Genealogy>  (8) 
C[C@H](N=C(O)c1cc2c(=O)n3ccccc3nc2[nH]c1=N)c1ccccc1 (tautomer)
[H]/N=c1\[nH]c2nc3ccccn3c(=O)c2cc1/C(O)=N/[C@@H](C)c1ccccc1 (cis-trans isomerization)
[H]/N=c1\[nH]c2nc3ccccn3c(=O)c2cc1/C(O)=N/[C@@H](C)c1ccccc1 (3D coordinates assigned)
[H]/N=c1\[nH]c2nc3ccccn3c(=O)c2cc1/C(O)=N/[C@@H](C)c1ccccc1 (optimized conformer: 66.68677808593213 kcal/mol)

>  <smiles>  (8) 
C[C@H](NC(=O)c1cc2c(=O)n3ccccc3nc2[nH]c1=N)c1ccccc1

>  <score_type>  (8) 
oracle

>  <origin>  (8) 
autodockgpu

>  <m_score__min__energy>  (8) 
-7.4500000000000002

>  <m_primary>  (8) 
energy

>  <meeko>  (8) 
{"free_energy": -7.45, "intermolecular_energy": -9.24, "internal_energy": -1.47, "cluster_size": 5, "cluster_id": 1, "rank_in_cluster": 2}

>  <energy>  (8) 
-6.62

>  <cluster_rmsd>  (8) 
0.04

>  <rmsd>  (8) 
271.46

>  <cluster>  (8) 
2

$$$$
OOSPKVZPLIIQRF-UTVOXLHVNA-N
     RDKit          3D

 44 47  0  0  0  0  0  0  0  0999 V2000
  136.2600   77.1880  223.6530 H   0  0  0  0  0  0  0  0  0  0  0  0
  136.7500   76.3890  223.1910 N   0  0  0  0  0  0  0  0  0  0  0  0
  137.8880   76.5300  222.5810 C   0  0  0  0  0  0  0  0  0  0  0  0
  138.2730   77.7890  222.0560 C   0  0  0  0  0  0  0  0  0  0  0  0
  137.4390   79.0150  222.1890 C   0  0  0  0  0  0  0  0  0  0  0  0
  138.0060   80.1910  222.1740 N   0  0  0  0  0  0  0  0  0  0  0  0
  138.7610   80.8630  223.2390 C   0  0  2  0  0  0  0  0  0  0  0  0
  138.7449   81.9517  223.0823 H   0  0  0  0  0  0  0  0  0  0  0  0
  140.2440   80.5170  223.1750 C   0  0  0  0  0  0  0  0  0  0  0  0
  141.1680   81.2440  222.3910 C   0  0  0  0  0  0  0  0  0  0  0  0
  140.8253   82.1088  221.8038 H   0  0  0  0  0  0  0  0  0  0  0  0
  142.5150   80.8710  222.3570 C   0  0  0  0  0  0  0  0  0  0  0  0
  143.2284   81.4484  221.7507 H   0  0  0  0  0  0  0  0  0  0  0  0
  142.9580   79.7680  223.0900 C   0  0  0  0  0  0  0  0  0  0  0  0
  144.0191   79.4795  223.0628 H   0  0  0  0  0  0  0  0  0  0  0  0
  142.0540   79.0320  223.8570 C   0  0  0  0  0  0  0  0  0  0  0  0
  142.4026   78.1612  224.4316 H   0  0  0  0  0  0  0  0  0  0  0  0
  140.7060   79.4000  223.8960 C   0  0  0  0  0  0  0  0  0  0  0  0
  139.9984   78.8100  224.4969 H   0  0  0  0  0  0  0  0  0  0  0  0
  138.0740   80.6600  224.6000 C   0  0  0  0  0  0  0  0  0  0  0  0
  138.7903   80.8717  225.4075 H   0  0  0  0  0  0  0  0  0  0  0  0
  137.2157   81.3429  224.6830 H   0  0  0  0  0  0  0  0  0  0  0  0
  137.7247   79.6202  224.6830 H   0  0  0  0  0  0  0  0  0  0  0  0
  136.0540   78.8650  222.3170 O   0  0  0  0  0  0  0  0  0  0  0  0
  135.5770   77.9770  222.3020 H   0  0  0  0  0  0  0  0  0  0  0  0
  139.4960   77.8760  221.3700 C   0  0  0  0  0  0  0  0  0  0  0  0
  139.8123   78.8387  220.9419 H   0  0  0  0  0  0  0  0  0  0  0  0
  140.3180   76.7490  221.2250 C   0  0  0  0  0  0  0  0  0  0  0  0
  141.5540   76.7920  220.5530 C   0  0  0  0  0  0  0  0  0  0  0  0
  141.9530   77.8820  220.0520 O   0  0  0  0  0  0  0  0  0  0  0  0
  142.3180   75.6540  220.4430 N   0  0  0  0  0  0  0  0  0  0  0  0
  143.5260   75.6830  219.7900 C   0  0  0  0  0  0  0  0  0  0  0  0
  143.8841   76.6261  219.3515 H   0  0  0  0  0  0  0  0  0  0  0  0
  144.3050   74.5300  219.6760 C   0  0  0  0  0  0  0  0  0  0  0  0
  145.2701   74.5641  219.1492 H   0  0  0  0  0  0  0  0  0  0  0  0
  143.8530   73.3370  220.2330 C   0  0  0  0  0  0  0  0  0  0  0  0
  144.4603   72.4236  220.1500 H   0  0  0  0  0  0  0  0  0  0  0  0
  142.6300   73.3050  220.8950 C   0  0  0  0  0  0  0  0  0  0  0  0
  142.2642   72.3662  221.3364 H   0  0  0  0  0  0  0  0  0  0  0  0
  141.8680   74.4740  220.9960 C   0  0  0  0  0  0  0  0  0  0  0  0
  140.6770   74.4290  221.6450 N   0  0  0  0  0  0  0  0  0  0  0  0
  139.8970   75.5300  221.7730 C   0  0  0  0  0  0  0  0  0  0  0  0
  138.7070   75.4470  222.4290 N   0  0  0  0  0  0  0  0  0  0  0  0
  138.4190   74.5210  222.8210 H   0  0  0  0  0  0  0  0  0  0  0  0
  1  2  1  0
  2  3  2  0
  3  4  1  0
  4  5  1  0
  5  6  2  0
  6  7  1  0
  7  8  1  6
  7  9  1  0
  9 10  2  0
 10 11  1  0
 10 12  1  0
 12 13  1  0
 12 14  2  0
 14 15  1  0
 14 16  1  0
 16 17  1  0
 16 18  2  0
 18 19  1  0
  7 20  1  0
 20 21  1  0
 20 22  1  0
 20 23  1  0
  5 24  1  0
 24 25  1  0
  4 26  2  0
 26 27  1  0
 26 28  1  0
 28 29  1  0
 29 30  2  0
 29 31  1  0
 31 32  1  0
 32 33  1  0
 32 34  2  0
 34 35  1  0
 34 36  1  0
 36 37  1  0
 36 38  2  0
 38 39  1  0
 38 40  1  0
 40 41  2  0
 41 42  1  0
 42 43  1  0
 43 44  1  0
 43  3  1  0
 18  9  1  0
 42 28  2  0
 40 31  1  0
M  END
>  <UniqueID>  (9) 
31

>  <SMILES>  (9) 
[H]/N=c1\[nH]c2nc3ccccn3c(=O)c2cc1/C(O)=N/[C@@H](C)c1ccccc1

>  <Energy>  (9) 
66.68677808593213

>  <Genealogy>  (9) 
C[C@H](N=C(O)c1cc2c(=O)n3ccccc3nc2[nH]c1=N)c1ccccc1 (tautomer)
[H]/N=c1\[nH]c2nc3ccccn3c(=O)c2cc1/C(O)=N/[C@@H](C)c1ccccc1 (cis-trans isomerization)
[H]/N=c1\[nH]c2nc3ccccn3c(=O)c2cc1/C(O)=N/[C@@H](C)c1ccccc1 (3D coordinates assigned)
[H]/N=c1\[nH]c2nc3ccccn3c(=O)c2cc1/C(O)=N/[C@@H](C)c1ccccc1 (optimized conformer: 66.68677808593213 kcal/mol)

>  <smiles>  (9) 
C[C@H](NC(=O)c1cc2c(=O)n3ccccc3nc2[nH]c1=N)c1ccccc1

>  <score_type>  (9) 
oracle

>  <origin>  (9) 
autodockgpu

>  <m_score__min__energy>  (9) 
-7.4500000000000002

>  <m_primary>  (9) 
energy

>  <meeko>  (9) 
{"free_energy": -6.58, "intermolecular_energy": -8.37, "internal_energy": -2.26, "cluster_size": 15, "cluster_id": 2, "rank_in_cluster": 14}

>  <energy>  (9) 
-6.62

>  <cluster_rmsd>  (9) 
0.04

>  <rmsd>  (9) 
271.46

>  <cluster>  (9) 
2

$$$$
OOSPKVZPLIIQRF-UTVOXLHVNA-N
     RDKit          3D

 44 47  0  0  0  0  0  0  0  0999 V2000
  136.2870   77.1270  223.8260 H   0  0  0  0  0  0  0  0  0  0  0  0
  136.7340   76.3570  223.2800 N   0  0  0  0  0  0  0  0  0  0  0  0
  137.8610   76.5100  222.6550 C   0  0  0  0  0  0  0  0  0  0  0  0
  138.2340   77.7780  222.1410 C   0  0  0  0  0  0  0  0  0  0  0  0
  137.3980   79.0000  222.3060 C   0  0  0  0  0  0  0  0  0  0  0  0
  137.9480   80.1800  222.2140 N   0  0  0  0  0  0  0  0  0  0  0  0
  138.7520   80.9020  223.2070 C   0  0  2  0  0  0  0  0  0  0  0  0
  138.7920   81.9717  222.9537 H   0  0  0  0  0  0  0  0  0  0  0  0
  140.2140   80.4730  223.1610 C   0  0  0  0  0  0  0  0  0  0  0  0
  140.7170   79.3820  223.9020 C   0  0  0  0  0  0  0  0  0  0  0  0
  140.0384   78.7938  224.5372 H   0  0  0  0  0  0  0  0  0  0  0  0
  142.0720   79.0440  223.8340 C   0  0  0  0  0  0  0  0  0  0  0  0
  142.4522   78.1857  224.4074 H   0  0  0  0  0  0  0  0  0  0  0  0
  142.9440   79.7920  223.0410 C   0  0  0  0  0  0  0  0  0  0  0  0
  144.0091   79.5223  222.9888 H   0  0  0  0  0  0  0  0  0  0  0  0
  142.4630   80.8830  222.3140 C   0  0  0  0  0  0  0  0  0  0  0  0
  143.1504   81.4740  221.6910 H   0  0  0  0  0  0  0  0  0  0  0  0
  141.1090   81.2250  222.3770 C   0  0  0  0  0  0  0  0  0  0  0  0
  140.7392   82.0907  221.8080 H   0  0  0  0  0  0  0  0  0  0  0  0
  138.0730   80.8570  224.5870 C   0  0  0  0  0  0  0  0  0  0  0  0
  138.8393   80.9078  225.3745 H   0  0  0  0  0  0  0  0  0  0  0  0
  137.3877   81.7117  224.6865 H   0  0  0  0  0  0  0  0  0  0  0  0
  137.5065   79.9193  224.6865 H   0  0  0  0  0  0  0  0  0  0  0  0
  136.0300   78.8400  222.5470 O   0  0  0  0  0  0  0  0  0  0  0  0
  135.5380   77.9630  222.4610 H   0  0  0  0  0  0  0  0  0  0  0  0
  139.4460   77.8790  221.4380 C   0  0  0  0  0  0  0  0  0  0  0  0
  139.7530   78.8491  221.0201 H   0  0  0  0  0  0  0  0  0  0  0  0
  140.2690   76.7570  221.2630 C   0  0  0  0  0  0  0  0  0  0  0  0
  141.4940   76.8150  220.5720 C   0  0  0  0  0  0  0  0  0  0  0  0
  141.8810   77.9130  220.0810 O   0  0  0  0  0  0  0  0  0  0  0  0
  142.2600   75.6810  220.4340 N   0  0  0  0  0  0  0  0  0  0  0  0
  143.4570   75.7240  219.7620 C   0  0  0  0  0  0  0  0  0  0  0  0
  143.8047   76.6746  219.3313 H   0  0  0  0  0  0  0  0  0  0  0  0
  144.2380   74.5750  219.6190 C   0  0  0  0  0  0  0  0  0  0  0  0
  145.1946   74.6201  219.0779 H   0  0  0  0  0  0  0  0  0  0  0  0
  143.7990   73.3730  220.1650 C   0  0  0  0  0  0  0  0  0  0  0  0
  144.4074   72.4629  220.0580 H   0  0  0  0  0  0  0  0  0  0  0  0
  142.5870   73.3270  220.8470 C   0  0  0  0  0  0  0  0  0  0  0  0
  142.2322   72.3810  221.2819 H   0  0  0  0  0  0  0  0  0  0  0  0
  141.8230   74.4910  220.9760 C   0  0  0  0  0  0  0  0  0  0  0  0
  140.6420   74.4330  221.6430 N   0  0  0  0  0  0  0  0  0  0  0  0
  139.8600   75.5290  221.8000 C   0  0  0  0  0  0  0  0  0  0  0  0
  138.6820   75.4320  222.4740 N   0  0  0  0  0  0  0  0  0  0  0  0
  138.4030   74.5000  222.8560 H   0  0  0  0  0  0  0  0  0  0  0  0
  1  2  1  0
  2  3  2  0
  3  4  1  0
  4  5  1  0
  5  6  2  0
  6  7  1  0
  7  8  1  6
  7  9  1  0
  9 10  2  0
 10 11  1  0
 10 12  1  0
 12 13  1  0
 12 14  2  0
 14 15  1  0
 14 16  1  0
 16 17  1  0
 16 18  2  0
 18 19  1  0
  7 20  1  0
 20 21  1  0
 20 22  1  0
 20 23  1  0
  5 24  1  0
 24 25  1  0
  4 26  2  0
 26 27  1  0
 26 28  1  0
 28 29  1  0
 29 30  2  0
 29 31  1  0
 31 32  1  0
 32 33  1  0
 32 34  2  0
 34 35  1  0
 34 36  1  0
 36 37  1  0
 36 38  2  0
 38 39  1  0
 38 40  1  0
 40 41  2  0
 41 42  1  0
 42 43  1  0
 43 44  1  0
 43  3  1  0
 18  9  1  0
 42 28  2  0
 40 31  1  0
M  END
>  <UniqueID>  (10) 
31

>  <SMILES>  (10) 
[H]/N=c1\[nH]c2nc3ccccn3c(=O)c2cc1/C(O)=N/[C@@H](C)c1ccccc1

>  <Energy>  (10) 
66.68677808593213

>  <Genealogy>  (10) 
C[C@H](N=C(O)c1cc2c(=O)n3ccccc3nc2[nH]c1=N)c1ccccc1 (tautomer)
[H]/N=c1\[nH]c2nc3ccccn3c(=O)c2cc1/C(O)=N/[C@@H](C)c1ccccc1 (cis-trans isomerization)
[H]/N=c1\[nH]c2nc3ccccn3c(=O)c2cc1/C(O)=N/[C@@H](C)c1ccccc1 (3D coordinates assigned)
[H]/N=c1\[nH]c2nc3ccccn3c(=O)c2cc1/C(O)=N/[C@@H](C)c1ccccc1 (optimized conformer: 66.68677808593213 kcal/mol)

>  <smiles>  (10) 
C[C@H](NC(=O)c1cc2c(=O)n3ccccc3nc2[nH]c1=N)c1ccccc1

>  <score_type>  (10) 
oracle

>  <origin>  (10) 
autodockgpu

>  <m_score__min__energy>  (10) 
-7.4500000000000002

>  <m_primary>  (10) 
energy

>  <meeko>  (10) 
{"free_energy": -6.6, "intermolecular_energy": -8.39, "internal_energy": -2.23, "cluster_size": 15, "cluster_id": 2, "rank_in_cluster": 9}

>  <energy>  (10) 
-6.62

>  <cluster_rmsd>  (10) 
0.06

>  <rmsd>  (10) 
271.48

>  <cluster>  (10) 
2

$$$$
OOSPKVZPLIIQRF-UTVOXLHVNA-N
     RDKit          3D

 44 47  0  0  0  0  0  0  0  0999 V2000
  136.3110   77.1290  223.7600 H   0  0  0  0  0  0  0  0  0  0  0  0
  136.7610   76.3510  223.2280 N   0  0  0  0  0  0  0  0  0  0  0  0
  137.8900   76.4970  222.6030 C   0  0  0  0  0  0  0  0  0  0  0  0
  138.2680   77.7610  222.0840 C   0  0  0  0  0  0  0  0  0  0  0  0
  137.4370   78.9860  222.2410 C   0  0  0  0  0  0  0  0  0  0  0  0
  137.9940   80.1630  222.1600 N   0  0  0  0  0  0  0  0  0  0  0  0
  138.7540   80.8960  223.1810 C   0  0  2  0  0  0  0  0  0  0  0  0
  138.7439   81.9731  222.9577 H   0  0  0  0  0  0  0  0  0  0  0  0
  140.2350   80.5390  223.1370 C   0  0  0  0  0  0  0  0  0  0  0  0
  141.1770   81.2650  222.3750 C   0  0  0  0  0  0  0  0  0  0  0  0
  140.8506   82.1372  221.7896 H   0  0  0  0  0  0  0  0  0  0  0  0
  142.5220   80.8820  222.3600 C   0  0  0  0  0  0  0  0  0  0  0  0
  143.2499   81.4595  221.7712 H   0  0  0  0  0  0  0  0  0  0  0  0
  142.9440   79.7690  223.0900 C   0  0  0  0  0  0  0  0  0  0  0  0
  144.0030   79.4717  223.0769 H   0  0  0  0  0  0  0  0  0  0  0  0
  142.0220   79.0340  223.8360 C   0  0  0  0  0  0  0  0  0  0  0  0
  142.3545   78.1560  224.4092 H   0  0  0  0  0  0  0  0  0  0  0  0
  140.6760   79.4120  223.8560 C   0  0  0  0  0  0  0  0  0  0  0  0
  139.9539   78.8224  224.4399 H   0  0  0  0  0  0  0  0  0  0  0  0
  138.0670   80.7810  224.5520 C   0  0  0  0  0  0  0  0  0  0  0  0
  138.8151   80.9062  225.3487 H   0  0  0  0  0  0  0  0  0  0  0  0
  137.2990   81.5631  224.6440 H   0  0  0  0  0  0  0  0  0  0  0  0
  137.5955   79.7914  224.6440 H   0  0  0  0  0  0  0  0  0  0  0  0
  136.0640   78.8330  222.4650 O   0  0  0  0  0  0  0  0  0  0  0  0
  135.5730   77.9550  222.3940 H   0  0  0  0  0  0  0  0  0  0  0  0
  139.4810   77.8530  221.3800 C   0  0  0  0  0  0  0  0  0  0  0  0
  139.7919   78.8193  220.9562 H   0  0  0  0  0  0  0  0  0  0  0  0
  140.2990   76.7270  221.2120 C   0  0  0  0  0  0  0  0  0  0  0  0
  141.5240   76.7760  220.5210 C   0  0  0  0  0  0  0  0  0  0  0  0
  141.9170   77.8700  220.0250 O   0  0  0  0  0  0  0  0  0  0  0  0
  142.2860   75.6390  220.3890 N   0  0  0  0  0  0  0  0  0  0  0  0
  143.4840   75.6730  219.7180 C   0  0  0  0  0  0  0  0  0  0  0  0
  143.8358   76.6200  219.2829 H   0  0  0  0  0  0  0  0  0  0  0  0
  144.2610   74.5210  219.5810 C   0  0  0  0  0  0  0  0  0  0  0  0
  145.2183   74.5598  219.0405 H   0  0  0  0  0  0  0  0  0  0  0  0
  143.8160   73.3230  220.1330 C   0  0  0  0  0  0  0  0  0  0  0  0
  144.4205   72.4097  220.0313 H   0  0  0  0  0  0  0  0  0  0  0  0
  142.6030   73.2860  220.8140 C   0  0  0  0  0  0  0  0  0  0  0  0
  142.2436   72.3436  221.2530 H   0  0  0  0  0  0  0  0  0  0  0  0
  141.8440   74.4530  220.9370 C   0  0  0  0  0  0  0  0  0  0  0  0
  140.6620   74.4030  221.6040 N   0  0  0  0  0  0  0  0  0  0  0  0
  139.8850   75.5040  221.7550 C   0  0  0  0  0  0  0  0  0  0  0  0
  138.7060   75.4150  222.4280 N   0  0  0  0  0  0  0  0  0  0  0  0
  138.4230   74.4860  222.8150 H   0  0  0  0  0  0  0  0  0  0  0  0
  1  2  1  0
  2  3  2  0
  3  4  1  0
  4  5  1  0
  5  6  2  0
  6  7  1  0
  7  8  1  6
  7  9  1  0
  9 10  2  0
 10 11  1  0
 10 12  1  0
 12 13  1  0
 12 14  2  0
 14 15  1  0
 14 16  1  0
 16 17  1  0
 16 18  2  0
 18 19  1  0
  7 20  1  0
 20 21  1  0
 20 22  1  0
 20 23  1  0
  5 24  1  0
 24 25  1  0
  4 26  2  0
 26 27  1  0
 26 28  1  0
 28 29  1  0
 29 30  2  0
 29 31  1  0
 31 32  1  0
 32 33  1  0
 32 34  2  0
 34 35  1  0
 34 36  1  0
 36 37  1  0
 36 38  2  0
 38 39  1  0
 38 40  1  0
 40 41  2  0
 41 42  1  0
 42 43  1  0
 43 44  1  0
 43  3  1  0
 18  9  1  0
 42 28  2  0
 40 31  1  0
M  END
>  <UniqueID>  (11) 
31

>  <SMILES>  (11) 
[H]/N=c1\[nH]c2nc3ccccn3c(=O)c2cc1/C(O)=N/[C@@H](C)c1ccccc1

>  <Energy>  (11) 
66.68677808593213

>  <Genealogy>  (11) 
C[C@H](N=C(O)c1cc2c(=O)n3ccccc3nc2[nH]c1=N)c1ccccc1 (tautomer)
[H]/N=c1\[nH]c2nc3ccccn3c(=O)c2cc1/C(O)=N/[C@@H](C)c1ccccc1 (cis-trans isomerization)
[H]/N=c1\[nH]c2nc3ccccn3c(=O)c2cc1/C(O)=N/[C@@H](C)c1ccccc1 (3D coordinates assigned)
[H]/N=c1\[nH]c2nc3ccccn3c(=O)c2cc1/C(O)=N/[C@@H](C)c1ccccc1 (optimized conformer: 66.68677808593213 kcal/mol)

>  <smiles>  (11) 
C[C@H](NC(=O)c1cc2c(=O)n3ccccc3nc2[nH]c1=N)c1ccccc1

>  <score_type>  (11) 
oracle

>  <origin>  (11) 
autodockgpu

>  <m_score__min__energy>  (11) 
-7.4500000000000002

>  <m_primary>  (11) 
energy

>  <meeko>  (11) 
{"free_energy": -6.61, "intermolecular_energy": -8.4, "internal_energy": -2.23, "cluster_size": 15, "cluster_id": 2, "rank_in_cluster": 6}

>  <energy>  (11) 
-6.61

>  <cluster_rmsd>  (11) 
0.06

>  <rmsd>  (11) 
271.43

>  <cluster>  (11) 
2

$$$$
OOSPKVZPLIIQRF-UTVOXLHVNA-N
     RDKit          3D

 44 47  0  0  0  0  0  0  0  0999 V2000
  136.2760   77.2030  223.7810 H   0  0  0  0  0  0  0  0  0  0  0  0
  136.7450   76.4080  223.2930 N   0  0  0  0  0  0  0  0  0  0  0  0
  137.8690   76.5480  222.6580 C   0  0  0  0  0  0  0  0  0  0  0  0
  138.2400   77.8050  222.1170 C   0  0  0  0  0  0  0  0  0  0  0  0
  137.4060   79.0300  222.2600 C   0  0  0  0  0  0  0  0  0  0  0  0
  137.9660   80.2070  222.2020 N   0  0  0  0  0  0  0  0  0  0  0  0
  138.7480   80.9070  223.2290 C   0  0  2  0  0  0  0  0  0  0  0  0
  138.7553   81.9879  223.0251 H   0  0  0  0  0  0  0  0  0  0  0  0
  140.2220   80.5260  223.1650 C   0  0  0  0  0  0  0  0  0  0  0  0
  141.1650   81.2370  222.3910 C   0  0  0  0  0  0  0  0  0  0  0  0
  140.8454   82.1155  221.8113 H   0  0  0  0  0  0  0  0  0  0  0  0
  142.5030   80.8310  222.3570 C   0  0  0  0  0  0  0  0  0  0  0  0
  143.2320   81.3966  221.7581 H   0  0  0  0  0  0  0  0  0  0  0  0
  142.9170   79.7110  223.0800 C   0  0  0  0  0  0  0  0  0  0  0  0
  143.9708   79.3967  223.0527 H   0  0  0  0  0  0  0  0  0  0  0  0
  141.9920   78.9900  223.8380 C   0  0  0  0  0  0  0  0  0  0  0  0
  142.3172   78.1054  224.4052 H   0  0  0  0  0  0  0  0  0  0  0  0
  140.6530   79.3910  223.8770 C   0  0  0  0  0  0  0  0  0  0  0  0
  139.9289   78.8134  224.4703 H   0  0  0  0  0  0  0  0  0  0  0  0
  138.0710   80.7800  224.6040 C   0  0  0  0  0  0  0  0  0  0  0  0
  138.8209   80.9207  225.3963 H   0  0  0  0  0  0  0  0  0  0  0  0
  137.2883   81.5470  224.6996 H   0  0  0  0  0  0  0  0  0  0  0  0
  137.6195   79.7815  224.6996 H   0  0  0  0  0  0  0  0  0  0  0  0
  136.0280   78.8770  222.4450 O   0  0  0  0  0  0  0  0  0  0  0  0
  135.5480   77.9900  222.4210 H   0  0  0  0  0  0  0  0  0  0  0  0
  139.4490   77.8910  221.4060 C   0  0  0  0  0  0  0  0  0  0  0  0
  139.7547   78.8522  220.9670 H   0  0  0  0  0  0  0  0  0  0  0  0
  140.2700   76.7650  221.2500 C   0  0  0  0  0  0  0  0  0  0  0  0
  141.4910   76.8070  220.5520 C   0  0  0  0  0  0  0  0  0  0  0  0
  141.8770   77.8940  220.0360 O   0  0  0  0  0  0  0  0  0  0  0  0
  142.2570   75.6710  220.4340 N   0  0  0  0  0  0  0  0  0  0  0  0
  143.4500   75.6980  219.7550 C   0  0  0  0  0  0  0  0  0  0  0  0
  143.7959   76.6389  219.3021 H   0  0  0  0  0  0  0  0  0  0  0  0
  144.2300   74.5460  219.6320 C   0  0  0  0  0  0  0  0  0  0  0  0
  145.1840   74.5794  219.0854 H   0  0  0  0  0  0  0  0  0  0  0  0
  143.7930   73.3560  220.2050 C   0  0  0  0  0  0  0  0  0  0  0  0
  144.4004   72.4434  220.1139 H   0  0  0  0  0  0  0  0  0  0  0  0
  142.5840   73.3250  220.8940 C   0  0  0  0  0  0  0  0  0  0  0  0
  142.2308   72.3883  221.3500 H   0  0  0  0  0  0  0  0  0  0  0  0
  141.8210   74.4920  221.0030 C   0  0  0  0  0  0  0  0  0  0  0  0
  140.6440   74.4480  221.6770 N   0  0  0  0  0  0  0  0  0  0  0  0
  139.8640   75.5480  221.8150 C   0  0  0  0  0  0  0  0  0  0  0  0
  138.6880   75.4660  222.4960 N   0  0  0  0  0  0  0  0  0  0  0  0
  138.4110   74.5420  222.8990 H   0  0  0  0  0  0  0  0  0  0  0  0
  1  2  1  0
  2  3  2  0
  3  4  1  0
  4  5  1  0
  5  6  2  0
  6  7  1  0
  7  8  1  6
  7  9  1  0
  9 10  2  0
 10 11  1  0
 10 12  1  0
 12 13  1  0
 12 14  2  0
 14 15  1  0
 14 16  1  0
 16 17  1  0
 16 18  2  0
 18 19  1  0
  7 20  1  0
 20 21  1  0
 20 22  1  0
 20 23  1  0
  5 24  1  0
 24 25  1  0
  4 26  2  0
 26 27  1  0
 26 28  1  0
 28 29  1  0
 29 30  2  0
 29 31  1  0
 31 32  1  0
 32 33  1  0
 32 34  2  0
 34 35  1  0
 34 36  1  0
 36 37  1  0
 36 38  2  0
 38 39  1  0
 38 40  1  0
 40 41  2  0
 41 42  1  0
 42 43  1  0
 43 44  1  0
 43  3  1  0
 18  9  1  0
 42 28  2  0
 40 31  1  0
M  END
>  <UniqueID>  (12) 
31

>  <SMILES>  (12) 
[H]/N=c1\[nH]c2nc3ccccn3c(=O)c2cc1/C(O)=N/[C@@H](C)c1ccccc1

>  <Energy>  (12) 
66.68677808593213

>  <Genealogy>  (12) 
C[C@H](N=C(O)c1cc2c(=O)n3ccccc3nc2[nH]c1=N)c1ccccc1 (tautomer)
[H]/N=c1\[nH]c2nc3ccccn3c(=O)c2cc1/C(O)=N/[C@@H](C)c1ccccc1 (cis-trans isomerization)
[H]/N=c1\[nH]c2nc3ccccn3c(=O)c2cc1/C(O)=N/[C@@H](C)c1ccccc1 (3D coordinates assigned)
[H]/N=c1\[nH]c2nc3ccccn3c(=O)c2cc1/C(O)=N/[C@@H](C)c1ccccc1 (optimized conformer: 66.68677808593213 kcal/mol)

>  <smiles>  (12) 
C[C@H](NC(=O)c1cc2c(=O)n3ccccc3nc2[nH]c1=N)c1ccccc1

>  <score_type>  (12) 
oracle

>  <origin>  (12) 
autodockgpu

>  <m_score__min__energy>  (12) 
-7.4500000000000002

>  <m_primary>  (12) 
energy

>  <meeko>  (12) 
{"free_energy": -6.59, "intermolecular_energy": -8.38, "internal_energy": -2.24, "cluster_size": 15, "cluster_id": 2, "rank_in_cluster": 10}

>  <energy>  (12) 
-6.61

>  <cluster_rmsd>  (12) 
0.06

>  <rmsd>  (12) 
271.44

>  <cluster>  (12) 
2

$$$$
OOSPKVZPLIIQRF-UTVOXLHVNA-N
     RDKit          3D

 44 47  0  0  0  0  0  0  0  0999 V2000
  136.2770   77.1550  223.7240 H   0  0  0  0  0  0  0  0  0  0  0  0
  136.7430   76.3690  223.2180 N   0  0  0  0  0  0  0  0  0  0  0  0
  137.8760   76.5130  222.6010 C   0  0  0  0  0  0  0  0  0  0  0  0
  138.2590   77.7750  222.0810 C   0  0  0  0  0  0  0  0  0  0  0  0
  137.4260   79.0020  222.2290 C   0  0  0  0  0  0  0  0  0  0  0  0
  137.9880   80.1780  222.1760 N   0  0  0  0  0  0  0  0  0  0  0  0
  138.7540   80.8810  223.2130 C   0  0  2  0  0  0  0  0  0  0  0  0
  138.7463   81.9634  223.0173 H   0  0  0  0  0  0  0  0  0  0  0  0
  140.2340   80.5210  223.1550 C   0  0  0  0  0  0  0  0  0  0  0  0
  141.1680   81.2410  222.3780 C   0  0  0  0  0  0  0  0  0  0  0  0
  140.8364   82.1108  221.7920 H   0  0  0  0  0  0  0  0  0  0  0  0
  142.5120   80.8550  222.3490 C   0  0  0  0  0  0  0  0  0  0  0  0
  143.2338   81.4278  221.7482 H   0  0  0  0  0  0  0  0  0  0  0  0
  142.9410   79.7450  223.0800 C   0  0  0  0  0  0  0  0  0  0  0  0
  143.9993   79.4459  223.0565 H   0  0  0  0  0  0  0  0  0  0  0  0
  142.0250   79.0150  223.8410 C   0  0  0  0  0  0  0  0  0  0  0  0
  142.3620   78.1392  224.4150 H   0  0  0  0  0  0  0  0  0  0  0  0
  140.6810   79.3960  223.8740 C   0  0  0  0  0  0  0  0  0  0  0  0
  139.9642   78.8104  224.4684 H   0  0  0  0  0  0  0  0  0  0  0  0
  138.0720   80.7320  224.5830 C   0  0  0  0  0  0  0  0  0  0  0  0
  138.8121   80.8937  225.3805 H   0  0  0  0  0  0  0  0  0  0  0  0
  137.2663   81.4753  224.6743 H   0  0  0  0  0  0  0  0  0  0  0  0
  137.6497   79.7204  224.6743 H   0  0  0  0  0  0  0  0  0  0  0  0
  136.0480   78.8500  222.4130 O   0  0  0  0  0  0  0  0  0  0  0  0
  135.5630   77.9670  222.3610 H   0  0  0  0  0  0  0  0  0  0  0  0
  139.4770   77.8660  221.3870 C   0  0  0  0  0  0  0  0  0  0  0  0
  139.7909   78.8315  220.9636 H   0  0  0  0  0  0  0  0  0  0  0  0
  140.2970   76.7400  221.2280 C   0  0  0  0  0  0  0  0  0  0  0  0
  141.5270   76.7870  220.5470 C   0  0  0  0  0  0  0  0  0  0  0  0
  141.9230   77.8790  220.0510 O   0  0  0  0  0  0  0  0  0  0  0  0
  142.2900   75.6490  220.4240 N   0  0  0  0  0  0  0  0  0  0  0  0
  143.4930   75.6820  219.7620 C   0  0  0  0  0  0  0  0  0  0  0  0
  143.8485   76.6280  219.3275 H   0  0  0  0  0  0  0  0  0  0  0  0
  144.2700   74.5290  219.6340 C   0  0  0  0  0  0  0  0  0  0  0  0
  145.2311   74.5660  219.1003 H   0  0  0  0  0  0  0  0  0  0  0  0
  143.8210   73.3320  220.1860 C   0  0  0  0  0  0  0  0  0  0  0  0
  144.4266   72.4185  220.0919 H   0  0  0  0  0  0  0  0  0  0  0  0
  142.6030   73.2970  220.8570 C   0  0  0  0  0  0  0  0  0  0  0  0
  142.2397   72.3555  221.2948 H   0  0  0  0  0  0  0  0  0  0  0  0
  141.8430   74.4650  220.9720 C   0  0  0  0  0  0  0  0  0  0  0  0
  140.6560   74.4170  221.6290 N   0  0  0  0  0  0  0  0  0  0  0  0
  139.8780   75.5170  221.7710 C   0  0  0  0  0  0  0  0  0  0  0  0
  138.6940   75.4300  222.4350 N   0  0  0  0  0  0  0  0  0  0  0  0
  138.4070   74.5020  222.8220 H   0  0  0  0  0  0  0  0  0  0  0  0
  1  2  1  0
  2  3  2  0
  3  4  1  0
  4  5  1  0
  5  6  2  0
  6  7  1  0
  7  8  1  6
  7  9  1  0
  9 10  2  0
 10 11  1  0
 10 12  1  0
 12 13  1  0
 12 14  2  0
 14 15  1  0
 14 16  1  0
 16 17  1  0
 16 18  2  0
 18 19  1  0
  7 20  1  0
 20 21  1  0
 20 22  1  0
 20 23  1  0
  5 24  1  0
 24 25  1  0
  4 26  2  0
 26 27  1  0
 26 28  1  0
 28 29  1  0
 29 30  2  0
 29 31  1  0
 31 32  1  0
 32 33  1  0
 32 34  2  0
 34 35  1  0
 34 36  1  0
 36 37  1  0
 36 38  2  0
 38 39  1  0
 38 40  1  0
 40 41  2  0
 41 42  1  0
 42 43  1  0
 43 44  1  0
 43  3  1  0
 18  9  1  0
 42 28  2  0
 40 31  1  0
M  END
>  <UniqueID>  (13) 
31

>  <SMILES>  (13) 
[H]/N=c1\[nH]c2nc3ccccn3c(=O)c2cc1/C(O)=N/[C@@H](C)c1ccccc1

>  <Energy>  (13) 
66.68677808593213

>  <Genealogy>  (13) 
C[C@H](N=C(O)c1cc2c(=O)n3ccccc3nc2[nH]c1=N)c1ccccc1 (tautomer)
[H]/N=c1\[nH]c2nc3ccccn3c(=O)c2cc1/C(O)=N/[C@@H](C)c1ccccc1 (cis-trans isomerization)
[H]/N=c1\[nH]c2nc3ccccn3c(=O)c2cc1/C(O)=N/[C@@H](C)c1ccccc1 (3D coordinates assigned)
[H]/N=c1\[nH]c2nc3ccccn3c(=O)c2cc1/C(O)=N/[C@@H](C)c1ccccc1 (optimized conformer: 66.68677808593213 kcal/mol)

>  <smiles>  (13) 
C[C@H](NC(=O)c1cc2c(=O)n3ccccc3nc2[nH]c1=N)c1ccccc1

>  <score_type>  (13) 
oracle

>  <origin>  (13) 
autodockgpu

>  <m_score__min__energy>  (13) 
-7.4500000000000002

>  <m_primary>  (13) 
energy

>  <meeko>  (13) 
{"free_energy": -6.61, "intermolecular_energy": -8.4, "internal_energy": -2.24, "cluster_size": 15, "cluster_id": 2, "rank_in_cluster": 7}

>  <energy>  (13) 
-6.6

>  <cluster_rmsd>  (13) 
0.09

>  <rmsd>  (13) 
271.43

>  <cluster>  (13) 
2

$$$$
OOSPKVZPLIIQRF-UTVOXLHVNA-N
     RDKit          3D

 44 47  0  0  0  0  0  0  0  0999 V2000
  136.2580   77.1670  223.6430 H   0  0  0  0  0  0  0  0  0  0  0  0
  136.7370   76.3770  223.1570 N   0  0  0  0  0  0  0  0  0  0  0  0
  137.8780   76.5200  222.5530 C   0  0  0  0  0  0  0  0  0  0  0  0
  138.2690   77.7830  222.0410 C   0  0  0  0  0  0  0  0  0  0  0  0
  137.4370   79.0100  222.1830 C   0  0  0  0  0  0  0  0  0  0  0  0
  138.0050   80.1850  222.1570 N   0  0  0  0  0  0  0  0  0  0  0  0
  138.7680   80.8630  223.2130 C   0  0  2  0  0  0  0  0  0  0  0  0
  138.7607   81.9499  223.0440 H   0  0  0  0  0  0  0  0  0  0  0  0
  140.2480   80.5050  223.1500 C   0  0  0  0  0  0  0  0  0  0  0  0
  141.1760   81.2170  222.3580 C   0  0  0  0  0  0  0  0  0  0  0  0
  140.8395   82.0793  221.7637 H   0  0  0  0  0  0  0  0  0  0  0  0
  142.5200   80.8320  222.3250 C   0  0  0  0  0  0  0  0  0  0  0  0
  143.2369   81.3969  221.7110 H   0  0  0  0  0  0  0  0  0  0  0  0
  142.9550   79.7340  223.0680 C   0  0  0  0  0  0  0  0  0  0  0  0
  144.0139   79.4372  223.0424 H   0  0  0  0  0  0  0  0  0  0  0  0
  142.0460   79.0120  223.8440 C   0  0  0  0  0  0  0  0  0  0  0  0
  142.3886   78.1442  224.4267 H   0  0  0  0  0  0  0  0  0  0  0  0
  140.7010   79.3910  223.8810 C   0  0  0  0  0  0  0  0  0  0  0  0
  139.9891   78.8124  224.4879 H   0  0  0  0  0  0  0  0  0  0  0  0
  138.0820   80.6810  224.5770 C   0  0  0  0  0  0  0  0  0  0  0  0
  138.8076   80.8735  225.3810 H   0  0  0  0  0  0  0  0  0  0  0  0
  137.2435   81.3878  224.6629 H   0  0  0  0  0  0  0  0  0  0  0  0
  137.7041   79.6515  224.6629 H   0  0  0  0  0  0  0  0  0  0  0  0
  136.0540   78.8620  222.3310 O   0  0  0  0  0  0  0  0  0  0  0  0
  135.5680   77.9810  222.2580 H   0  0  0  0  0  0  0  0  0  0  0  0
  139.4950   77.8730  221.3610 C   0  0  0  0  0  0  0  0  0  0  0  0
  139.8161   78.8389  220.9440 H   0  0  0  0  0  0  0  0  0  0  0  0
  140.3140   76.7450  221.2080 C   0  0  0  0  0  0  0  0  0  0  0  0
  141.5520   76.7910  220.5410 C   0  0  0  0  0  0  0  0  0  0  0  0
  141.9560   77.8840  220.0520 O   0  0  0  0  0  0  0  0  0  0  0  0
  142.3140   75.6520  220.4240 N   0  0  0  0  0  0  0  0  0  0  0  0
  143.5240   75.6840  219.7750 C   0  0  0  0  0  0  0  0  0  0  0  0
  143.8855   76.6302  219.3460 H   0  0  0  0  0  0  0  0  0  0  0  0
  144.3010   74.5300  219.6530 C   0  0  0  0  0  0  0  0  0  0  0  0
  145.2684   74.5665  219.1306 H   0  0  0  0  0  0  0  0  0  0  0  0
  143.8430   73.3330  220.1970 C   0  0  0  0  0  0  0  0  0  0  0  0
  144.4477   72.4185  220.1071 H   0  0  0  0  0  0  0  0  0  0  0  0
  142.6170   73.2980  220.8550 C   0  0  0  0  0  0  0  0  0  0  0  0
  142.2474   72.3564  221.2872 H   0  0  0  0  0  0  0  0  0  0  0  0
  141.8580   74.4680  220.9630 C   0  0  0  0  0  0  0  0  0  0  0  0
  140.6640   74.4200  221.6070 N   0  0  0  0  0  0  0  0  0  0  0  0
  139.8870   75.5220  221.7430 C   0  0  0  0  0  0  0  0  0  0  0  0
  138.6950   75.4360  222.3940 N   0  0  0  0  0  0  0  0  0  0  0  0
  138.4020   74.5080  222.7750 H   0  0  0  0  0  0  0  0  0  0  0  0
  1  2  1  0
  2  3  2  0
  3  4  1  0
  4  5  1  0
  5  6  2  0
  6  7  1  0
  7  8  1  6
  7  9  1  0
  9 10  2  0
 10 11  1  0
 10 12  1  0
 12 13  1  0
 12 14  2  0
 14 15  1  0
 14 16  1  0
 16 17  1  0
 16 18  2  0
 18 19  1  0
  7 20  1  0
 20 21  1  0
 20 22  1  0
 20 23  1  0
  5 24  1  0
 24 25  1  0
  4 26  2  0
 26 27  1  0
 26 28  1  0
 28 29  1  0
 29 30  2  0
 29 31  1  0
 31 32  1  0
 32 33  1  0
 32 34  2  0
 34 35  1  0
 34 36  1  0
 36 37  1  0
 36 38  2  0
 38 39  1  0
 38 40  1  0
 40 41  2  0
 41 42  1  0
 42 43  1  0
 43 44  1  0
 43  3  1  0
 18  9  1  0
 42 28  2  0
 40 31  1  0
M  END
>  <UniqueID>  (14) 
31

>  <SMILES>  (14) 
[H]/N=c1\[nH]c2nc3ccccn3c(=O)c2cc1/C(O)=N/[C@@H](C)c1ccccc1

>  <Energy>  (14) 
66.68677808593213

>  <Genealogy>  (14) 
C[C@H](N=C(O)c1cc2c(=O)n3ccccc3nc2[nH]c1=N)c1ccccc1 (tautomer)
[H]/N=c1\[nH]c2nc3ccccn3c(=O)c2cc1/C(O)=N/[C@@H](C)c1ccccc1 (cis-trans isomerization)
[H]/N=c1\[nH]c2nc3ccccn3c(=O)c2cc1/C(O)=N/[C@@H](C)c1ccccc1 (3D coordinates assigned)
[H]/N=c1\[nH]c2nc3ccccn3c(=O)c2cc1/C(O)=N/[C@@H](C)c1ccccc1 (optimized conformer: 66.68677808593213 kcal/mol)

>  <smiles>  (14) 
C[C@H](NC(=O)c1cc2c(=O)n3ccccc3nc2[nH]c1=N)c1ccccc1

>  <score_type>  (14) 
oracle

>  <origin>  (14) 
autodockgpu

>  <m_score__min__energy>  (14) 
-7.4500000000000002

>  <m_primary>  (14) 
energy

>  <meeko>  (14) 
{"free_energy": -6.59, "intermolecular_energy": -8.38, "internal_energy": -2.26, "cluster_size": 15, "cluster_id": 2, "rank_in_cluster": 12}

>  <energy>  (14) 
-6.6

>  <cluster_rmsd>  (14) 
0.05

>  <rmsd>  (14) 
271.45

>  <cluster>  (14) 
2

$$$$
OOSPKVZPLIIQRF-UTVOXLHVNA-N
     RDKit          3D

 44 47  0  0  0  0  0  0  0  0999 V2000
  136.3000   77.1590  223.8290 H   0  0  0  0  0  0  0  0  0  0  0  0
  136.7440   76.3830  223.2890 N   0  0  0  0  0  0  0  0  0  0  0  0
  137.8710   76.5300  222.6600 C   0  0  0  0  0  0  0  0  0  0  0  0
  138.2480   77.7940  222.1420 C   0  0  0  0  0  0  0  0  0  0  0  0
  137.4160   79.0200  222.3030 C   0  0  0  0  0  0  0  0  0  0  0  0
  137.9710   80.1970  222.2090 N   0  0  0  0  0  0  0  0  0  0  0  0
  138.7520   80.9310  223.2120 C   0  0  2  0  0  0  0  0  0  0  0  0
  138.7541   82.0051  222.9746 H   0  0  0  0  0  0  0  0  0  0  0  0
  140.2280   80.5530  223.1570 C   0  0  0  0  0  0  0  0  0  0  0  0
  141.1730   81.2610  222.3830 C   0  0  0  0  0  0  0  0  0  0  0  0
  140.8540   82.1353  221.7966 H   0  0  0  0  0  0  0  0  0  0  0  0
  142.5120   80.8580  222.3570 C   0  0  0  0  0  0  0  0  0  0  0  0
  143.2422   81.4212  221.7574 H   0  0  0  0  0  0  0  0  0  0  0  0
  142.9250   79.7440  223.0890 C   0  0  0  0  0  0  0  0  0  0  0  0
  143.9796   79.4318  223.0680 H   0  0  0  0  0  0  0  0  0  0  0  0
  141.9990   79.0260  223.8480 C   0  0  0  0  0  0  0  0  0  0  0  0
  142.3243   78.1466  224.4232 H   0  0  0  0  0  0  0  0  0  0  0  0
  140.6590   79.4230  223.8780 C   0  0  0  0  0  0  0  0  0  0  0  0
  139.9337   78.8466  224.4711 H   0  0  0  0  0  0  0  0  0  0  0  0
  138.0790   80.8430  224.5920 C   0  0  0  0  0  0  0  0  0  0  0  0
  138.8413   80.9427  225.3787 H   0  0  0  0  0  0  0  0  0  0  0  0
  137.3407   81.6523  224.6922 H   0  0  0  0  0  0  0  0  0  0  0  0
  137.5736   79.8711  224.6922 H   0  0  0  0  0  0  0  0  0  0  0  0
  136.0470   78.8660  222.5440 O   0  0  0  0  0  0  0  0  0  0  0  0
  135.5540   77.9900  222.4690 H   0  0  0  0  0  0  0  0  0  0  0  0
  139.4590   77.8880  221.4350 C   0  0  0  0  0  0  0  0  0  0  0  0
  139.7682   78.8552  221.0120 H   0  0  0  0  0  0  0  0  0  0  0  0
  140.2770   76.7630  221.2630 C   0  0  0  0  0  0  0  0  0  0  0  0
  141.5000   76.8130  220.5690 C   0  0  0  0  0  0  0  0  0  0  0  0
  141.8910   77.9070  220.0730 O   0  0  0  0  0  0  0  0  0  0  0  0
  142.2620   75.6760  220.4340 N   0  0  0  0  0  0  0  0  0  0  0  0
  143.4580   75.7110  219.7590 C   0  0  0  0  0  0  0  0  0  0  0  0
  143.8085   76.6584  219.3235 H   0  0  0  0  0  0  0  0  0  0  0  0
  144.2340   74.5590  219.6190 C   0  0  0  0  0  0  0  0  0  0  0  0
  145.1900   74.5986  219.0764 H   0  0  0  0  0  0  0  0  0  0  0  0
  143.7910   73.3600  220.1700 C   0  0  0  0  0  0  0  0  0  0  0  0
  144.3950   72.4468  220.0642 H   0  0  0  0  0  0  0  0  0  0  0  0
  142.5810   73.3220  220.8550 C   0  0  0  0  0  0  0  0  0  0  0  0
  142.2235   72.3793  221.2949 H   0  0  0  0  0  0  0  0  0  0  0  0
  141.8220   74.4890  220.9810 C   0  0  0  0  0  0  0  0  0  0  0  0
  140.6420   74.4380  221.6510 N   0  0  0  0  0  0  0  0  0  0  0  0
  139.8650   75.5380  221.8060 C   0  0  0  0  0  0  0  0  0  0  0  0
  138.6870   75.4480  222.4820 N   0  0  0  0  0  0  0  0  0  0  0  0
  138.4050   74.5190  222.8680 H   0  0  0  0  0  0  0  0  0  0  0  0
  1  2  1  0
  2  3  2  0
  3  4  1  0
  4  5  1  0
  5  6  2  0
  6  7  1  0
  7  8  1  6
  7  9  1  0
  9 10  2  0
 10 11  1  0
 10 12  1  0
 12 13  1  0
 12 14  2  0
 14 15  1  0
 14 16  1  0
 16 17  1  0
 16 18  2  0
 18 19  1  0
  7 20  1  0
 20 21  1  0
 20 22  1  0
 20 23  1  0
  5 24  1  0
 24 25  1  0
  4 26  2  0
 26 27  1  0
 26 28  1  0
 28 29  1  0
 29 30  2  0
 29 31  1  0
 31 32  1  0
 32 33  1  0
 32 34  2  0
 34 35  1  0
 34 36  1  0
 36 37  1  0
 36 38  2  0
 38 39  1  0
 38 40  1  0
 40 41  2  0
 41 42  1  0
 42 43  1  0
 43 44  1  0
 43  3  1  0
 18  9  1  0
 42 28  2  0
 40 31  1  0
M  END
>  <UniqueID>  (15) 
31

>  <SMILES>  (15) 
[H]/N=c1\[nH]c2nc3ccccn3c(=O)c2cc1/C(O)=N/[C@@H](C)c1ccccc1

>  <Energy>  (15) 
66.68677808593213

>  <Genealogy>  (15) 
C[C@H](N=C(O)c1cc2c(=O)n3ccccc3nc2[nH]c1=N)c1ccccc1 (tautomer)
[H]/N=c1\[nH]c2nc3ccccn3c(=O)c2cc1/C(O)=N/[C@@H](C)c1ccccc1 (cis-trans isomerization)
[H]/N=c1\[nH]c2nc3ccccn3c(=O)c2cc1/C(O)=N/[C@@H](C)c1ccccc1 (3D coordinates assigned)
[H]/N=c1\[nH]c2nc3ccccn3c(=O)c2cc1/C(O)=N/[C@@H](C)c1ccccc1 (optimized conformer: 66.68677808593213 kcal/mol)

>  <smiles>  (15) 
C[C@H](NC(=O)c1cc2c(=O)n3ccccc3nc2[nH]c1=N)c1ccccc1

>  <score_type>  (15) 
oracle

>  <origin>  (15) 
autodockgpu

>  <m_score__min__energy>  (15) 
-7.4500000000000002

>  <m_primary>  (15) 
energy

>  <meeko>  (15) 
{"free_energy": -6.62, "intermolecular_energy": -8.41, "internal_energy": -2.23, "cluster_size": 15, "cluster_id": 2, "rank_in_cluster": 3}

>  <energy>  (15) 
-6.59

>  <cluster_rmsd>  (15) 
0.06

>  <rmsd>  (15) 
271.45

>  <cluster>  (15) 
2

$$$$
OOSPKVZPLIIQRF-UTVOXLHVNA-N
     RDKit          3D

 44 47  0  0  0  0  0  0  0  0999 V2000
  134.2670   68.0900  226.1680 H   0  0  0  0  0  0  0  0  0  0  0  0
  133.6310   68.8640  226.4650 N   0  0  0  0  0  0  0  0  0  0  0  0
  133.8610   70.1070  226.1670 C   0  0  0  0  0  0  0  0  0  0  0  0
  134.8410   70.4470  225.2000 C   0  0  0  0  0  0  0  0  0  0  0  0
  135.6340   69.4300  224.4540 C   0  0  0  0  0  0  0  0  0  0  0  0
  136.8670   69.6900  224.1170 N   0  0  0  0  0  0  0  0  0  0  0  0
  138.0810   68.9080  224.3870 C   0  0  2  0  0  0  0  0  0  0  0  0
  137.8171   67.9595  224.8776 H   0  0  0  0  0  0  0  0  0  0  0  0
  138.9740   69.6000  225.4110 C   0  0  0  0  0  0  0  0  0  0  0  0
  139.5590   70.8650  225.1870 C   0  0  0  0  0  0  0  0  0  0  0  0
  139.3642   71.3985  224.2450 H   0  0  0  0  0  0  0  0  0  0  0  0
  140.3850   71.4440  226.1560 C   0  0  0  0  0  0  0  0  0  0  0  0
  140.8298   72.4338  225.9761 H   0  0  0  0  0  0  0  0  0  0  0  0
  140.6470   70.7710  227.3500 C   0  0  0  0  0  0  0  0  0  0  0  0
  141.2951   71.2312  228.1104 H   0  0  0  0  0  0  0  0  0  0  0  0
  140.0860   69.5130  227.5790 C   0  0  0  0  0  0  0  0  0  0  0  0
  140.2949   68.9814  228.5191 H   0  0  0  0  0  0  0  0  0  0  0  0
  139.2590   68.9280  226.6150 C   0  0  0  0  0  0  0  0  0  0  0  0
  138.8270   67.9333  226.7991 H   0  0  0  0  0  0  0  0  0  0  0  0
  138.7550   68.4850  223.0720 C   0  0  0  0  0  0  0  0  0  0  0  0
  139.6673   67.9124  223.2952 H   0  0  0  0  0  0  0  0  0  0  0  0
  138.0626   67.8592  222.4898 H   0  0  0  0  0  0  0  0  0  0  0  0
  139.0175   69.3807  222.4898 H   0  0  0  0  0  0  0  0  0  0  0  0
  135.0250   68.2100  224.1440 O   0  0  0  0  0  0  0  0  0  0  0  0
  134.1750   67.8760  224.5730 H   0  0  0  0  0  0  0  0  0  0  0  0
  135.0770   71.8080  224.9440 C   0  0  0  0  0  0  0  0  0  0  0  0
  135.8401   72.0987  224.2070 H   0  0  0  0  0  0  0  0  0  0  0  0
  134.3500   72.8000  225.6180 C   0  0  0  0  0  0  0  0  0  0  0  0
  134.5490   74.1740  225.3880 C   0  0  0  0  0  0  0  0  0  0  0  0
  135.4140   74.5460  224.5460 O   0  0  0  0  0  0  0  0  0  0  0  0
  133.8050   75.1020  226.0780 N   0  0  0  0  0  0  0  0  0  0  0  0
  133.9890   76.4460  225.8630 C   0  0  0  0  0  0  0  0  0  0  0  0
  134.7390   76.7816  225.1317 H   0  0  0  0  0  0  0  0  0  0  0  0
  133.2350   77.3920  226.5620 C   0  0  0  0  0  0  0  0  0  0  0  0
  133.3908   78.4661  226.3828 H   0  0  0  0  0  0  0  0  0  0  0  0
  132.2860   76.9670  227.4860 C   0  0  0  0  0  0  0  0  0  0  0  0
  131.6870   77.7042  228.0408 H   0  0  0  0  0  0  0  0  0  0  0  0
  132.0970   75.6060  227.7060 C   0  0  0  0  0  0  0  0  0  0  0  0
  131.3490   75.2618  228.4354 H   0  0  0  0  0  0  0  0  0  0  0  0
  132.8640   74.6790  226.9940 C   0  0  0  0  0  0  0  0  0  0  0  0
  132.6700   73.3540  227.2180 N   0  0  0  0  0  0  0  0  0  0  0  0
  133.3840   72.4110  226.5560 C   0  0  0  0  0  0  0  0  0  0  0  0
  133.1630   71.0920  226.8080 N   0  0  0  0  0  0  0  0  0  0  0  0
  132.4410   70.8350  227.5180 H   0  0  0  0  0  0  0  0  0  0  0  0
  1  2  1  0
  2  3  2  0
  3  4  1  0
  4  5  1  0
  5  6  2  0
  6  7  1  0
  7  8  1  1
  7  9  1  0
  9 10  2  0
 10 11  1  0
 10 12  1  0
 12 13  1  0
 12 14  2  0
 14 15  1  0
 14 16  1  0
 16 17  1  0
 16 18  2  0
 18 19  1  0
  7 20  1  0
 20 21  1  0
 20 22  1  0
 20 23  1  0
  5 24  1  0
 24 25  1  0
  4 26  2  0
 26 27  1  0
 26 28  1  0
 28 29  1  0
 29 30  2  0
 29 31  1  0
 31 32  1  0
 32 33  1  0
 32 34  2  0
 34 35  1  0
 34 36  1  0
 36 37  1  0
 36 38  2  0
 38 39  1  0
 38 40  1  0
 40 41  2  0
 41 42  1  0
 42 43  1  0
 43 44  1  0
 43  3  1  0
 18  9  1  0
 42 28  2  0
 40 31  1  0
M  END
>  <UniqueID>  (16) 
31

>  <SMILES>  (16) 
[H]/N=c1\[nH]c2nc3ccccn3c(=O)c2cc1/C(O)=N/[C@@H](C)c1ccccc1

>  <Energy>  (16) 
66.68677808593213

>  <Genealogy>  (16) 
C[C@H](N=C(O)c1cc2c(=O)n3ccccc3nc2[nH]c1=N)c1ccccc1 (tautomer)
[H]/N=c1\[nH]c2nc3ccccn3c(=O)c2cc1/C(O)=N/[C@@H](C)c1ccccc1 (cis-trans isomerization)
[H]/N=c1\[nH]c2nc3ccccn3c(=O)c2cc1/C(O)=N/[C@@H](C)c1ccccc1 (3D coordinates assigned)
[H]/N=c1\[nH]c2nc3ccccn3c(=O)c2cc1/C(O)=N/[C@@H](C)c1ccccc1 (optimized conformer: 66.68677808593213 kcal/mol)

>  <smiles>  (16) 
C[C@H](NC(=O)c1cc2c(=O)n3ccccc3nc2[nH]c1=N)c1ccccc1

>  <score_type>  (16) 
oracle

>  <origin>  (16) 
autodockgpu

>  <m_score__min__energy>  (16) 
-7.4500000000000002

>  <m_primary>  (16) 
energy

>  <meeko>  (16) 
{"free_energy": -7.41, "intermolecular_energy": -9.2, "internal_energy": -1.49, "cluster_size": 5, "cluster_id": 1, "rank_in_cluster": 5}

>  <energy>  (16) 
-6.59

>  <cluster_rmsd>  (16) 
0.05

>  <rmsd>  (16) 
271.45

>  <cluster>  (16) 
2

$$$$
OOSPKVZPLIIQRF-UTVOXLHVNA-N
     RDKit          3D

 44 47  0  0  0  0  0  0  0  0999 V2000
  136.2630   77.1640  223.8160 H   0  0  0  0  0  0  0  0  0  0  0  0
  136.7050   76.3870  223.2760 N   0  0  0  0  0  0  0  0  0  0  0  0
  137.8390   76.5260  222.6580 C   0  0  0  0  0  0  0  0  0  0  0  0
  138.2290   77.7890  222.1450 C   0  0  0  0  0  0  0  0  0  0  0  0
  137.4050   79.0200  222.3010 C   0  0  0  0  0  0  0  0  0  0  0  0
  137.9700   80.1940  222.2160 N   0  0  0  0  0  0  0  0  0  0  0  0
  138.7450   80.9190  223.2290 C   0  0  2  0  0  0  0  0  0  0  0  0
  138.7431   81.9958  223.0045 H   0  0  0  0  0  0  0  0  0  0  0  0
  140.2230   80.5480  223.1730 C   0  0  0  0  0  0  0  0  0  0  0  0
  141.1660   81.2690  222.4090 C   0  0  0  0  0  0  0  0  0  0  0  0
  140.8442   82.1485  221.8321 H   0  0  0  0  0  0  0  0  0  0  0  0
  142.5070   80.8720  222.3810 C   0  0  0  0  0  0  0  0  0  0  0  0
  143.2361   81.4452  221.7896 H   0  0  0  0  0  0  0  0  0  0  0  0
  142.9230   79.7510  223.1010 C   0  0  0  0  0  0  0  0  0  0  0  0
  143.9788   79.4430  223.0781 H   0  0  0  0  0  0  0  0  0  0  0  0
  141.9990   79.0210  223.8500 C   0  0  0  0  0  0  0  0  0  0  0  0
  142.3271   78.1364  224.4155 H   0  0  0  0  0  0  0  0  0  0  0  0
  140.6570   79.4120  223.8830 C   0  0  0  0  0  0  0  0  0  0  0  0
  139.9333   78.8266  224.4692 H   0  0  0  0  0  0  0  0  0  0  0  0
  138.0690   80.8120  224.6060 C   0  0  0  0  0  0  0  0  0  0  0  0
  138.8251   80.9317  225.3959 H   0  0  0  0  0  0  0  0  0  0  0  0
  137.3087   81.6010  224.7036 H   0  0  0  0  0  0  0  0  0  0  0  0
  137.5896   79.8268  224.7036 H   0  0  0  0  0  0  0  0  0  0  0  0
  136.0320   78.8760  222.5270 O   0  0  0  0  0  0  0  0  0  0  0  0
  135.5330   78.0040  222.4410 H   0  0  0  0  0  0  0  0  0  0  0  0
  139.4470   77.8750  221.4500 C   0  0  0  0  0  0  0  0  0  0  0  0
  139.7672   78.8405  221.0314 H   0  0  0  0  0  0  0  0  0  0  0  0
  140.2590   76.7440  221.2840 C   0  0  0  0  0  0  0  0  0  0  0  0
  141.4890   76.7870  220.6010 C   0  0  0  0  0  0  0  0  0  0  0  0
  141.8920   77.8790  220.1100 O   0  0  0  0  0  0  0  0  0  0  0  0
  142.2440   75.6440  220.4710 N   0  0  0  0  0  0  0  0  0  0  0  0
  143.4460   75.6720  219.8070 C   0  0  0  0  0  0  0  0  0  0  0  0
  143.8070   76.6177  219.3764 H   0  0  0  0  0  0  0  0  0  0  0  0
  144.2150   74.5150  219.6720 C   0  0  0  0  0  0  0  0  0  0  0  0
  145.1757   74.5486  219.1373 H   0  0  0  0  0  0  0  0  0  0  0  0
  143.7590   73.3180  220.2180 C   0  0  0  0  0  0  0  0  0  0  0  0
  144.3582   72.4009  220.1180 H   0  0  0  0  0  0  0  0  0  0  0  0
  142.5410   73.2880  220.8910 C   0  0  0  0  0  0  0  0  0  0  0  0
  142.1717   72.3469  221.3244 H   0  0  0  0  0  0  0  0  0  0  0  0
  141.7900   74.4600  221.0130 C   0  0  0  0  0  0  0  0  0  0  0  0
  140.6030   74.4160  221.6710 N   0  0  0  0  0  0  0  0  0  0  0  0
  139.8330   75.5220  221.8210 C   0  0  0  0  0  0  0  0  0  0  0  0
  138.6490   75.4390  222.4860 N   0  0  0  0  0  0  0  0  0  0  0  0
  138.3560   74.5110  222.8680 H   0  0  0  0  0  0  0  0  0  0  0  0
  1  2  1  0
  2  3  2  0
  3  4  1  0
  4  5  1  0
  5  6  2  0
  6  7  1  0
  7  8  1  6
  7  9  1  0
  9 10  2  0
 10 11  1  0
 10 12  1  0
 12 13  1  0
 12 14  2  0
 14 15  1  0
 14 16  1  0
 16 17  1  0
 16 18  2  0
 18 19  1  0
  7 20  1  0
 20 21  1  0
 20 22  1  0
 20 23  1  0
  5 24  1  0
 24 25  1  0
  4 26  2  0
 26 27  1  0
 26 28  1  0
 28 29  1  0
 29 30  2  0
 29 31  1  0
 31 32  1  0
 32 33  1  0
 32 34  2  0
 34 35  1  0
 34 36  1  0
 36 37  1  0
 36 38  2  0
 38 39  1  0
 38 40  1  0
 40 41  2  0
 41 42  1  0
 42 43  1  0
 43 44  1  0
 43  3  1  0
 18  9  1  0
 42 28  2  0
 40 31  1  0
M  END
>  <UniqueID>  (17) 
31

>  <SMILES>  (17) 
[H]/N=c1\[nH]c2nc3ccccn3c(=O)c2cc1/C(O)=N/[C@@H](C)c1ccccc1

>  <Energy>  (17) 
66.68677808593213

>  <Genealogy>  (17) 
C[C@H](N=C(O)c1cc2c(=O)n3ccccc3nc2[nH]c1=N)c1ccccc1 (tautomer)
[H]/N=c1\[nH]c2nc3ccccn3c(=O)c2cc1/C(O)=N/[C@@H](C)c1ccccc1 (cis-trans isomerization)
[H]/N=c1\[nH]c2nc3ccccn3c(=O)c2cc1/C(O)=N/[C@@H](C)c1ccccc1 (3D coordinates assigned)
[H]/N=c1\[nH]c2nc3ccccn3c(=O)c2cc1/C(O)=N/[C@@H](C)c1ccccc1 (optimized conformer: 66.68677808593213 kcal/mol)

>  <smiles>  (17) 
C[C@H](NC(=O)c1cc2c(=O)n3ccccc3nc2[nH]c1=N)c1ccccc1

>  <score_type>  (17) 
oracle

>  <origin>  (17) 
autodockgpu

>  <m_score__min__energy>  (17) 
-7.4500000000000002

>  <m_primary>  (17) 
energy

>  <meeko>  (17) 
{"free_energy": -6.62, "intermolecular_energy": -8.41, "internal_energy": -2.21, "cluster_size": 15, "cluster_id": 2, "rank_in_cluster": 2}

>  <energy>  (17) 
-6.59

>  <cluster_rmsd>  (17) 
0.1

>  <rmsd>  (17) 
271.43

>  <cluster>  (17) 
2

$$$$
OOSPKVZPLIIQRF-UTVOXLHVNA-N
     RDKit          3D

 44 47  0  0  0  0  0  0  0  0999 V2000
  136.2830   77.1580  223.7940 H   0  0  0  0  0  0  0  0  0  0  0  0
  136.7350   76.3790  223.2650 N   0  0  0  0  0  0  0  0  0  0  0  0
  137.8650   76.5240  222.6430 C   0  0  0  0  0  0  0  0  0  0  0  0
  138.2470   77.7880  222.1260 C   0  0  0  0  0  0  0  0  0  0  0  0
  137.4170   79.0150  222.2850 C   0  0  0  0  0  0  0  0  0  0  0  0
  137.9770   80.1910  222.2120 N   0  0  0  0  0  0  0  0  0  0  0  0
  138.7500   80.9080  223.2340 C   0  0  2  0  0  0  0  0  0  0  0  0
  138.7395   81.9879  223.0249 H   0  0  0  0  0  0  0  0  0  0  0  0
  140.2300   80.5510  223.1690 C   0  0  0  0  0  0  0  0  0  0  0  0
  141.1630   81.2860  222.4060 C   0  0  0  0  0  0  0  0  0  0  0  0
  140.8305   82.1666  221.8368 H   0  0  0  0  0  0  0  0  0  0  0  0
  142.5070   80.9020  222.3690 C   0  0  0  0  0  0  0  0  0  0  0  0
  143.2279   81.4862  221.7783 H   0  0  0  0  0  0  0  0  0  0  0  0
  142.9370   79.7800  223.0790 C   0  0  0  0  0  0  0  0  0  0  0  0
  143.9956   79.4826  223.0494 H   0  0  0  0  0  0  0  0  0  0  0  0
  142.0230   79.0350  223.8270 C   0  0  0  0  0  0  0  0  0  0  0  0
  142.3616   78.1492  224.3844 H   0  0  0  0  0  0  0  0  0  0  0  0
  140.6780   79.4140  223.8680 C   0  0  0  0  0  0  0  0  0  0  0  0
  139.9621   78.8175  224.4526 H   0  0  0  0  0  0  0  0  0  0  0  0
  138.0780   80.7750  224.6110 C   0  0  0  0  0  0  0  0  0  0  0  0
  138.8287   80.9236  225.4012 H   0  0  0  0  0  0  0  0  0  0  0  0
  137.2880   81.5342  224.7083 H   0  0  0  0  0  0  0  0  0  0  0  0
  137.6367   79.7721  224.7083 H   0  0  0  0  0  0  0  0  0  0  0  0
  136.0430   78.8640  222.4990 O   0  0  0  0  0  0  0  0  0  0  0  0
  135.5520   77.9860  222.4280 H   0  0  0  0  0  0  0  0  0  0  0  0
  139.4610   77.8800  221.4260 C   0  0  0  0  0  0  0  0  0  0  0  0
  139.7745   78.8469  221.0056 H   0  0  0  0  0  0  0  0  0  0  0  0
  140.2780   76.7530  221.2570 C   0  0  0  0  0  0  0  0  0  0  0  0
  141.5050   76.8020  220.5700 C   0  0  0  0  0  0  0  0  0  0  0  0
  141.9000   77.8960  220.0760 O   0  0  0  0  0  0  0  0  0  0  0  0
  142.2660   75.6630  220.4370 N   0  0  0  0  0  0  0  0  0  0  0  0
  143.4650   75.6970  219.7690 C   0  0  0  0  0  0  0  0  0  0  0  0
  143.8195   76.6443  219.3365 H   0  0  0  0  0  0  0  0  0  0  0  0
  144.2400   74.5430  219.6320 C   0  0  0  0  0  0  0  0  0  0  0  0
  145.1988   74.5811  219.0941 H   0  0  0  0  0  0  0  0  0  0  0  0
  143.7920   73.3450  220.1800 C   0  0  0  0  0  0  0  0  0  0  0  0
  144.3948   72.4306  220.0769 H   0  0  0  0  0  0  0  0  0  0  0  0
  142.5780   73.3090  220.8590 C   0  0  0  0  0  0  0  0  0  0  0  0
  142.2168   72.3666  221.2965 H   0  0  0  0  0  0  0  0  0  0  0  0
  141.8200   74.4770  220.9820 C   0  0  0  0  0  0  0  0  0  0  0  0
  140.6370   74.4280  221.6460 N   0  0  0  0  0  0  0  0  0  0  0  0
  139.8610   75.5290  221.7970 C   0  0  0  0  0  0  0  0  0  0  0  0
  138.6800   75.4410  222.4680 N   0  0  0  0  0  0  0  0  0  0  0  0
  138.3950   74.5110  222.8520 H   0  0  0  0  0  0  0  0  0  0  0  0
  1  2  1  0
  2  3  2  0
  3  4  1  0
  4  5  1  0
  5  6  2  0
  6  7  1  0
  7  8  1  6
  7  9  1  0
  9 10  2  0
 10 11  1  0
 10 12  1  0
 12 13  1  0
 12 14  2  0
 14 15  1  0
 14 16  1  0
 16 17  1  0
 16 18  2  0
 18 19  1  0
  7 20  1  0
 20 21  1  0
 20 22  1  0
 20 23  1  0
  5 24  1  0
 24 25  1  0
  4 26  2  0
 26 27  1  0
 26 28  1  0
 28 29  1  0
 29 30  2  0
 29 31  1  0
 31 32  1  0
 32 33  1  0
 32 34  2  0
 34 35  1  0
 34 36  1  0
 36 37  1  0
 36 38  2  0
 38 39  1  0
 38 40  1  0
 40 41  2  0
 41 42  1  0
 42 43  1  0
 43 44  1  0
 43  3  1  0
 18  9  1  0
 42 28  2  0
 40 31  1  0
M  END
>  <UniqueID>  (18) 
31

>  <SMILES>  (18) 
[H]/N=c1\[nH]c2nc3ccccn3c(=O)c2cc1/C(O)=N/[C@@H](C)c1ccccc1

>  <Energy>  (18) 
66.68677808593213

>  <Genealogy>  (18) 
C[C@H](N=C(O)c1cc2c(=O)n3ccccc3nc2[nH]c1=N)c1ccccc1 (tautomer)
[H]/N=c1\[nH]c2nc3ccccn3c(=O)c2cc1/C(O)=N/[C@@H](C)c1ccccc1 (cis-trans isomerization)
[H]/N=c1\[nH]c2nc3ccccn3c(=O)c2cc1/C(O)=N/[C@@H](C)c1ccccc1 (3D coordinates assigned)
[H]/N=c1\[nH]c2nc3ccccn3c(=O)c2cc1/C(O)=N/[C@@H](C)c1ccccc1 (optimized conformer: 66.68677808593213 kcal/mol)

>  <smiles>  (18) 
C[C@H](NC(=O)c1cc2c(=O)n3ccccc3nc2[nH]c1=N)c1ccccc1

>  <score_type>  (18) 
oracle

>  <origin>  (18) 
autodockgpu

>  <m_score__min__energy>  (18) 
-7.4500000000000002

>  <m_primary>  (18) 
energy

>  <meeko>  (18) 
{"free_energy": -6.62, "intermolecular_energy": -8.41, "internal_energy": -2.23, "cluster_size": 15, "cluster_id": 2, "rank_in_cluster": 4}

>  <energy>  (18) 
-6.58

>  <cluster_rmsd>  (18) 
0.14

>  <rmsd>  (18) 
271.41

>  <cluster>  (18) 
2

$$$$
OOSPKVZPLIIQRF-UTVOXLHVNA-N
     RDKit          3D

 44 47  0  0  0  0  0  0  0  0999 V2000
  136.3140   77.1520  223.8460 H   0  0  0  0  0  0  0  0  0  0  0  0
  136.7620   76.3770  223.3080 N   0  0  0  0  0  0  0  0  0  0  0  0
  137.8850   76.5290  222.6750 C   0  0  0  0  0  0  0  0  0  0  0  0
  138.2530   77.7950  222.1530 C   0  0  0  0  0  0  0  0  0  0  0  0
  137.4160   79.0160  222.3160 C   0  0  0  0  0  0  0  0  0  0  0  0
  137.9650   80.1970  222.2270 N   0  0  0  0  0  0  0  0  0  0  0  0
  138.7430   80.9290  223.2340 C   0  0  2  0  0  0  0  0  0  0  0  0
  138.7438   82.0038  222.9998 H   0  0  0  0  0  0  0  0  0  0  0  0
  140.2200   80.5540  223.1810 C   0  0  0  0  0  0  0  0  0  0  0  0
  141.1670   81.2770  222.4240 C   0  0  0  0  0  0  0  0  0  0  0  0
  140.8495   82.1608  221.8512 H   0  0  0  0  0  0  0  0  0  0  0  0
  142.5070   80.8760  222.3980 C   0  0  0  0  0  0  0  0  0  0  0  0
  143.2395   81.4499  221.8113 H   0  0  0  0  0  0  0  0  0  0  0  0
  142.9180   79.7500  223.1140 C   0  0  0  0  0  0  0  0  0  0  0  0
  143.9732   79.4400  223.0941 H   0  0  0  0  0  0  0  0  0  0  0  0
  141.9890   79.0180  223.8550 C   0  0  0  0  0  0  0  0  0  0  0  0
  142.3122   78.1288  224.4162 H   0  0  0  0  0  0  0  0  0  0  0  0
  140.6490   79.4130  223.8850 C   0  0  0  0  0  0  0  0  0  0  0  0
  139.9216   78.8261  224.4649 H   0  0  0  0  0  0  0  0  0  0  0  0
  138.0670   80.8350  224.6130 C   0  0  0  0  0  0  0  0  0  0  0  0
  138.8265   80.9406  225.4016 H   0  0  0  0  0  0  0  0  0  0  0  0
  137.3219   81.6382  224.7116 H   0  0  0  0  0  0  0  0  0  0  0  0
  137.5693   79.8590  224.7116 H   0  0  0  0  0  0  0  0  0  0  0  0
  136.0460   78.8560  222.5530 O   0  0  0  0  0  0  0  0  0  0  0  0
  135.5600   77.9750  222.4850 H   0  0  0  0  0  0  0  0  0  0  0  0
  139.4600   77.8950  221.4410 C   0  0  0  0  0  0  0  0  0  0  0  0
  139.7622   78.8633  221.0154 H   0  0  0  0  0  0  0  0  0  0  0  0
  140.2840   76.7730  221.2670 C   0  0  0  0  0  0  0  0  0  0  0  0
  141.5040   76.8290  220.5680 C   0  0  0  0  0  0  0  0  0  0  0  0
  141.8870   77.9250  220.0690 O   0  0  0  0  0  0  0  0  0  0  0  0
  142.2710   75.6960  220.4310 N   0  0  0  0  0  0  0  0  0  0  0  0
  143.4640   75.7370  219.7510 C   0  0  0  0  0  0  0  0  0  0  0  0
  143.8076   76.6858  219.3131 H   0  0  0  0  0  0  0  0  0  0  0  0
  144.2460   74.5880  219.6090 C   0  0  0  0  0  0  0  0  0  0  0  0
  145.1992   74.6317  219.0617 H   0  0  0  0  0  0  0  0  0  0  0  0
  143.8120   73.3880  220.1640 C   0  0  0  0  0  0  0  0  0  0  0  0
  144.4210   72.4781  220.0579 H   0  0  0  0  0  0  0  0  0  0  0  0
  142.6040   73.3440  220.8540 C   0  0  0  0  0  0  0  0  0  0  0  0
  142.2531   72.3997  221.2959 H   0  0  0  0  0  0  0  0  0  0  0  0
  141.8390   74.5080  220.9820 C   0  0  0  0  0  0  0  0  0  0  0  0
  140.6620   74.4510  221.6570 N   0  0  0  0  0  0  0  0  0  0  0  0
  139.8800   75.5470  221.8130 C   0  0  0  0  0  0  0  0  0  0  0  0
  138.7060   75.4520  222.4940 N   0  0  0  0  0  0  0  0  0  0  0  0
  138.4310   74.5210  222.8830 H   0  0  0  0  0  0  0  0  0  0  0  0
  1  2  1  0
  2  3  2  0
  3  4  1  0
  4  5  1  0
  5  6  2  0
  6  7  1  0
  7  8  1  6
  7  9  1  0
  9 10  2  0
 10 11  1  0
 10 12  1  0
 12 13  1  0
 12 14  2  0
 14 15  1  0
 14 16  1  0
 16 17  1  0
 16 18  2  0
 18 19  1  0
  7 20  1  0
 20 21  1  0
 20 22  1  0
 20 23  1  0
  5 24  1  0
 24 25  1  0
  4 26  2  0
 26 27  1  0
 26 28  1  0
 28 29  1  0
 29 30  2  0
 29 31  1  0
 31 32  1  0
 32 33  1  0
 32 34  2  0
 34 35  1  0
 34 36  1  0
 36 37  1  0
 36 38  2  0
 38 39  1  0
 38 40  1  0
 40 41  2  0
 41 42  1  0
 42 43  1  0
 43 44  1  0
 43  3  1  0
 18  9  1  0
 42 28  2  0
 40 31  1  0
M  END
>  <UniqueID>  (19) 
31

>  <SMILES>  (19) 
[H]/N=c1\[nH]c2nc3ccccn3c(=O)c2cc1/C(O)=N/[C@@H](C)c1ccccc1

>  <Energy>  (19) 
66.68677808593213

>  <Genealogy>  (19) 
C[C@H](N=C(O)c1cc2c(=O)n3ccccc3nc2[nH]c1=N)c1ccccc1 (tautomer)
[H]/N=c1\[nH]c2nc3ccccn3c(=O)c2cc1/C(O)=N/[C@@H](C)c1ccccc1 (cis-trans isomerization)
[H]/N=c1\[nH]c2nc3ccccn3c(=O)c2cc1/C(O)=N/[C@@H](C)c1ccccc1 (3D coordinates assigned)
[H]/N=c1\[nH]c2nc3ccccn3c(=O)c2cc1/C(O)=N/[C@@H](C)c1ccccc1 (optimized conformer: 66.68677808593213 kcal/mol)

>  <smiles>  (19) 
C[C@H](NC(=O)c1cc2c(=O)n3ccccc3nc2[nH]c1=N)c1ccccc1

>  <score_type>  (19) 
oracle

>  <origin>  (19) 
autodockgpu

>  <m_score__min__energy>  (19) 
-7.4500000000000002

>  <m_primary>  (19) 
energy

>  <meeko>  (19) 
{"free_energy": -6.62, "intermolecular_energy": -8.41, "internal_energy": -2.22, "cluster_size": 15, "cluster_id": 2, "rank_in_cluster": 5}

>  <energy>  (19) 
-6.58

>  <cluster_rmsd>  (19) 
0.1

>  <rmsd>  (19) 
271.45

>  <cluster>  (19) 
2

$$$$
OOSPKVZPLIIQRF-UTVOXLHVNA-N
     RDKit          3D

 44 47  0  0  0  0  0  0  0  0999 V2000
  134.2870   68.0690  226.2050 H   0  0  0  0  0  0  0  0  0  0  0  0
  133.6110   68.8290  226.4430 N   0  0  0  0  0  0  0  0  0  0  0  0
  133.8420   70.0770  226.1690 C   0  0  0  0  0  0  0  0  0  0  0  0
  134.8320   70.4350  225.2190 C   0  0  0  0  0  0  0  0  0  0  0  0
  135.6350   69.4320  224.4640 C   0  0  0  0  0  0  0  0  0  0  0  0
  136.8490   69.7260  224.0850 N   0  0  0  0  0  0  0  0  0  0  0  0
  138.0910   68.9760  224.3080 C   0  0  2  0  0  0  0  0  0  0  0  0
  137.8703   68.0234  224.8118 H   0  0  0  0  0  0  0  0  0  0  0  0
  139.0070   69.6920  225.2930 C   0  0  0  0  0  0  0  0  0  0  0  0
  139.6960   70.8820  224.9730 C   0  0  0  0  0  0  0  0  0  0  0  0
  139.5704   71.3360  223.9790 H   0  0  0  0  0  0  0  0  0  0  0  0
  140.5370   71.4870  225.9120 C   0  0  0  0  0  0  0  0  0  0  0  0
  141.0619   72.4194  225.6570 H   0  0  0  0  0  0  0  0  0  0  0  0
  140.7130   70.9120  227.1720 C   0  0  0  0  0  0  0  0  0  0  0  0
  141.3746   71.3918  227.9083 H   0  0  0  0  0  0  0  0  0  0  0  0
  140.0490   69.7280  227.4970 C   0  0  0  0  0  0  0  0  0  0  0  0
  140.1891   69.2742  228.4892 H   0  0  0  0  0  0  0  0  0  0  0  0
  139.2060   69.1180  226.5630 C   0  0  0  0  0  0  0  0  0  0  0  0
  138.6932   68.1803  226.8231 H   0  0  0  0  0  0  0  0  0  0  0  0
  138.7220   68.5650  222.9670 C   0  0  0  0  0  0  0  0  0  0  0  0
  139.6301   67.9735  223.1551 H   0  0  0  0  0  0  0  0  0  0  0  0
  138.0034   67.9612  222.3934 H   0  0  0  0  0  0  0  0  0  0  0  0
  138.9838   69.4664  222.3934 H   0  0  0  0  0  0  0  0  0  0  0  0
  135.0570   68.1880  224.1920 O   0  0  0  0  0  0  0  0  0  0  0  0
  134.1670   67.8850  224.5570 H   0  0  0  0  0  0  0  0  0  0  0  0
  135.0690   71.8010  224.9890 C   0  0  0  0  0  0  0  0  0  0  0  0
  135.8395   72.1053  224.2653 H   0  0  0  0  0  0  0  0  0  0  0  0
  134.3340   72.7800  225.6720 C   0  0  0  0  0  0  0  0  0  0  0  0
  134.5330   74.1580  225.4670 C   0  0  0  0  0  0  0  0  0  0  0  0
  135.4070   74.5460  224.6410 O   0  0  0  0  0  0  0  0  0  0  0  0
  133.7800   75.0740  226.1650 N   0  0  0  0  0  0  0  0  0  0  0  0
  133.9640   76.4210  225.9750 C   0  0  0  0  0  0  0  0  0  0  0  0
  134.7209   76.7699  225.2571 H   0  0  0  0  0  0  0  0  0  0  0  0
  133.2020   77.3540  226.6820 C   0  0  0  0  0  0  0  0  0  0  0  0
  133.3590   78.4311  226.5236 H   0  0  0  0  0  0  0  0  0  0  0  0
  132.2430   76.9120  227.5880 C   0  0  0  0  0  0  0  0  0  0  0  0
  131.6366   77.6386  228.1487 H   0  0  0  0  0  0  0  0  0  0  0  0
  132.0540   75.5470  227.7820 C   0  0  0  0  0  0  0  0  0  0  0  0
  131.2985   75.1890  228.4968 H   0  0  0  0  0  0  0  0  0  0  0  0
  132.8300   74.6340  227.0630 C   0  0  0  0  0  0  0  0  0  0  0  0
  132.6360   73.3050  227.2620 N   0  0  0  0  0  0  0  0  0  0  0  0
  133.3580   72.3740  226.5920 C   0  0  0  0  0  0  0  0  0  0  0  0
  133.1370   71.0500  226.8190 N   0  0  0  0  0  0  0  0  0  0  0  0
  132.4070   70.7800  227.5170 H   0  0  0  0  0  0  0  0  0  0  0  0
  1  2  1  0
  2  3  2  0
  3  4  1  0
  4  5  1  0
  5  6  2  0
  6  7  1  0
  7  8  1  1
  7  9  1  0
  9 10  2  0
 10 11  1  0
 10 12  1  0
 12 13  1  0
 12 14  2  0
 14 15  1  0
 14 16  1  0
 16 17  1  0
 16 18  2  0
 18 19  1  0
  7 20  1  0
 20 21  1  0
 20 22  1  0
 20 23  1  0
  5 24  1  0
 24 25  1  0
  4 26  2  0
 26 27  1  0
 26 28  1  0
 28 29  1  0
 29 30  2  0
 29 31  1  0
 31 32  1  0
 32 33  1  0
 32 34  2  0
 34 35  1  0
 34 36  1  0
 36 37  1  0
 36 38  2  0
 38 39  1  0
 38 40  1  0
 40 41  2  0
 41 42  1  0
 42 43  1  0
 43 44  1  0
 43  3  1  0
 18  9  1  0
 42 28  2  0
 40 31  1  0
M  END
>  <UniqueID>  (20) 
31

>  <SMILES>  (20) 
[H]/N=c1\[nH]c2nc3ccccn3c(=O)c2cc1/C(O)=N/[C@@H](C)c1ccccc1

>  <Energy>  (20) 
66.68677808593213

>  <Genealogy>  (20) 
C[C@H](N=C(O)c1cc2c(=O)n3ccccc3nc2[nH]c1=N)c1ccccc1 (tautomer)
[H]/N=c1\[nH]c2nc3ccccn3c(=O)c2cc1/C(O)=N/[C@@H](C)c1ccccc1 (cis-trans isomerization)
[H]/N=c1\[nH]c2nc3ccccn3c(=O)c2cc1/C(O)=N/[C@@H](C)c1ccccc1 (3D coordinates assigned)
[H]/N=c1\[nH]c2nc3ccccn3c(=O)c2cc1/C(O)=N/[C@@H](C)c1ccccc1 (optimized conformer: 66.68677808593213 kcal/mol)

>  <smiles>  (20) 
C[C@H](NC(=O)c1cc2c(=O)n3ccccc3nc2[nH]c1=N)c1ccccc1

>  <score_type>  (20) 
oracle

>  <origin>  (20) 
autodockgpu

>  <m_score__min__energy>  (20) 
-7.4500000000000002

>  <m_primary>  (20) 
energy

>  <meeko>  (20) 
{"free_energy": -7.42, "intermolecular_energy": -9.21, "internal_energy": -1.5, "cluster_size": 5, "cluster_id": 1, "rank_in_cluster": 3}

>  <energy>  (20) 
-6.57

>  <cluster_rmsd>  (20) 
0.05

>  <rmsd>  (20) 
271.45

>  <cluster>  (20) 
2

$$$$
HDANWICVGDYKAH-VJHPIRKKNA-M
     RDKit          3D

 43 46  0  0  0  0  0  0  0  0999 V2000
  136.4300   77.2050  223.4430 H   0  0  0  0  0  0  0  0  0  0  0  0
  137.0020   76.3920  223.1240 N   0  0  0  0  0  0  0  0  0  0  0  0
  138.1220   76.5060  222.4790 C   0  0  0  0  0  0  0  0  0  0  0  0
  138.9240   75.4140  222.3660 N   0  0  0  0  0  0  0  0  0  0  0  0
  140.1130   75.4520  221.7090 C   0  0  0  0  0  0  0  0  0  0  0  0
  140.8600   74.3280  221.6050 N   0  0  0  0  0  0  0  0  0  0  0  0
  142.0450   74.3240  220.9430 C   0  0  0  0  0  0  0  0  0  0  0  0
  142.7750   73.1340  220.8630 C   0  0  0  0  0  0  0  0  0  0  0  0
  142.3912   72.2174  221.3347 H   0  0  0  0  0  0  0  0  0  0  0  0
  143.9890   73.1150  220.1840 C   0  0  0  0  0  0  0  0  0  0  0  0
  144.5697   72.1832  220.1165 H   0  0  0  0  0  0  0  0  0  0  0  0
  144.4660   74.2810  219.5900 C   0  0  0  0  0  0  0  0  0  0  0  0
  145.4248   74.2759  219.0508 H   0  0  0  0  0  0  0  0  0  0  0  0
  143.7180   75.4570  219.6840 C   0  0  0  0  0  0  0  0  0  0  0  0
  144.0945   76.3782  219.2153 H   0  0  0  0  0  0  0  0  0  0  0  0
  142.5200   75.4790  220.3530 N   0  0  0  0  0  0  0  0  0  0  0  0
  141.7880   76.6390  220.4420 C   0  0  0  0  0  0  0  0  0  0  0  0
  142.2070   77.7040  219.9040 O   0  0  0  0  0  0  0  0  0  0  0  0
  140.5630   76.6470  221.1310 C   0  0  0  0  0  0  0  0  0  0  0  0
  139.7650   77.7950  221.2450 C   0  0  0  0  0  0  0  0  0  0  0  0
  140.1129   78.7490  220.8221 H   0  0  0  0  0  0  0  0  0  0  0  0
  138.5260   77.7300  221.8960 C   0  0  0  0  0  0  0  0  0  0  0  0
  137.6650   78.9300  221.8890 C   0  0  0  0  0  0  0  0  0  0  0  0
  138.1610   80.1350  221.8450 N   0  0  0  0  0  0  0  0  0  0  0  0
  138.8150   80.8410  222.9540 C   0  0  2  0  0  0  0  0  0  0  0  0
  138.7462   81.9238  222.7730 H   0  0  0  0  0  0  0  0  0  0  0  0
  140.2850   80.4790  223.0400 C   0  0  0  0  0  0  0  0  0  0  0  0
  140.7170   79.3990  223.8310 C   0  0  0  0  0  0  0  0  0  0  0  0
  139.9887   78.8344  224.4317 H   0  0  0  0  0  0  0  0  0  0  0  0
  142.0680   79.0400  223.8570 C   0  0  0  0  0  0  0  0  0  0  0  0
  142.3983   78.1913  224.4739 H   0  0  0  0  0  0  0  0  0  0  0  0
  142.9990   79.7560  223.1020 C   0  0  0  0  0  0  0  0  0  0  0  0
  144.0601   79.4666  223.1190 H   0  0  0  0  0  0  0  0  0  0  0  0
  142.5830   80.8400  222.3250 C   0  0  0  0  0  0  0  0  0  0  0  0
  143.3180   81.4064  221.7343 H   0  0  0  0  0  0  0  0  0  0  0  0
  141.2340   81.2060  222.2970 C   0  0  0  0  0  0  0  0  0  0  0  0
  140.9127   82.0663  221.6914 H   0  0  0  0  0  0  0  0  0  0  0  0
  138.1060   80.4960  224.2630 C   0  0  0  0  0  0  0  0  0  0  0  0
  138.7347   80.8019  225.1122 H   0  0  0  0  0  0  0  0  0  0  0  0
  137.1435   81.0265  224.3095 H   0  0  0  0  0  0  0  0  0  0  0  0
  137.9295   79.4113  224.3095 H   0  0  0  0  0  0  0  0  0  0  0  0
  136.2860   78.7590  221.9630 O   0  0  0  0  0  0  0  0  0  0  0  0
  135.8760   77.8330  221.9880 H   0  0  0  0  0  0  0  0  0  0  0  0
  1  2  1  0
  2  3  2  0
  3  4  1  0
  4  5  1  0
  5  6  1  0
  6  7  2  0
  7  8  1  0
  8  9  1  0
  8 10  2  0
 10 11  1  0
 10 12  1  0
 12 13  1  0
 12 14  2  0
 14 15  1  0
 14 16  1  0
 16 17  1  0
 17 18  2  0
 17 19  1  0
 19 20  1  0
 20 21  1  0
 20 22  2  0
 22 23  1  0
 23 24  2  0
 24 25  1  0
 25 26  1  6
 25 27  1  0
 27 28  2  0
 28 29  1  0
 28 30  1  0
 30 31  1  0
 30 32  2  0
 32 33  1  0
 32 34  1  0
 34 35  1  0
 34 36  2  0
 36 37  1  0
 25 38  1  0
 38 39  1  0
 38 40  1  0
 38 41  1  0
 23 42  1  0
 42 43  1  0
 22  3  1  0
 36 27  1  0
 19  5  2  0
 16  7  1  0
M  CHG  1   4  -1
M  END
>  <UniqueID>  (21) 
32

>  <SMILES>  (21) 
[H]/N=c1/[n-]c2nc3ccccn3c(=O)c2cc1/C(O)=N\[C@@H](C)c1ccccc1

>  <Energy>  (21) 
60.985657862872024

>  <Genealogy>  (21) 
C[C@H](NC(=O)c1cc2c(=O)n3ccccc3nc2[n-]c1=N)c1ccccc1 (protonated)
C[C@H](N=C(O)c1cc2c(=O)n3ccccc3nc2[n-]c1=N)c1ccccc1 (tautomer)
[H]/N=c1/[n-]c2nc3ccccn3c(=O)c2cc1/C(O)=N\[C@@H](C)c1ccccc1 (cis-trans isomerization)
[H]/N=c1/[n-]c2nc3ccccn3c(=O)c2cc1/C(O)=N\[C@@H](C)c1ccccc1 (3D coordinates assigned)
[H]/N=c1/[n-]c2nc3ccccn3c(=O)c2cc1/C(O)=N\[C@@H](C)c1ccccc1 (optimized conformer: 60.985657862872024 kcal/mol)

>  <smiles>  (21) 
C[C@H](NC(=O)c1cc2c(=O)n3ccccc3nc2[nH]c1=N)c1ccccc1

>  <score_type>  (21) 
oracle

>  <origin>  (21) 
autodockgpu

>  <m_score__min__energy>  (21) 
-7.6799999999999997

>  <m_primary>  (21) 
energy

>  <meeko>  (21) 
{"free_energy": -5.93, "intermolecular_energy": -7.72, "internal_energy": -2.39, "cluster_size": 4, "cluster_id": 5, "rank_in_cluster": 3}

>  <energy>  (21) 
-7.68

>  <cluster_rmsd>  (21) 
0.0

>  <rmsd>  (21) 
271.66

>  <cluster>  (21) 
1

$$$$
HDANWICVGDYKAH-VJHPIRKKNA-M
     RDKit          3D

 43 46  0  0  0  0  0  0  0  0999 V2000
  136.2030   70.9720  223.9000 H   0  0  0  0  0  0  0  0  0  0  0  0
  136.5430   71.7510  223.2930 N   0  0  0  0  0  0  0  0  0  0  0  0
  137.7680   71.8620  222.8800 C   0  0  0  0  0  0  0  0  0  0  0  0
  138.1680   73.0410  222.3340 N   0  0  0  0  0  0  0  0  0  0  0  0
  139.4330   73.2360  221.8770 C   0  0  0  0  0  0  0  0  0  0  0  0
  139.7850   74.4390  221.3650 N   0  0  0  0  0  0  0  0  0  0  0  0
  141.0430   74.6750  220.9130 C   0  0  0  0  0  0  0  0  0  0  0  0
  141.3540   75.9380  220.3980 C   0  0  0  0  0  0  0  0  0  0  0  0
  140.5857   76.7243  220.3600 H   0  0  0  0  0  0  0  0  0  0  0  0
  142.6410   76.1940  219.9340 C   0  0  0  0  0  0  0  0  0  0  0  0
  142.8942   77.1835  219.5256 H   0  0  0  0  0  0  0  0  0  0  0  0
  143.6060   75.1930  219.9890 C   0  0  0  0  0  0  0  0  0  0  0  0
  144.6261   75.3871  219.6261 H   0  0  0  0  0  0  0  0  0  0  0  0
  143.2710   73.9400  220.5080 C   0  0  0  0  0  0  0  0  0  0  0  0
  144.0337   73.1485  220.5508 H   0  0  0  0  0  0  0  0  0  0  0  0
  142.0030   73.6840  220.9650 N   0  0  0  0  0  0  0  0  0  0  0  0
  141.6780   72.4490  221.4760 C   0  0  0  0  0  0  0  0  0  0  0  0
  142.5470   71.5320  221.5350 O   0  0  0  0  0  0  0  0  0  0  0  0
  140.3760   72.2010  221.9410 C   0  0  0  0  0  0  0  0  0  0  0  0
  139.9870   70.9670  222.4840 C   0  0  0  0  0  0  0  0  0  0  0  0
  140.7032   70.1328  222.5178 H   0  0  0  0  0  0  0  0  0  0  0  0
  138.6900   70.7940  222.9830 C   0  0  0  0  0  0  0  0  0  0  0  0
  138.3600   69.5200  223.6550 C   0  0  0  0  0  0  0  0  0  0  0  0
  139.2490   68.8440  224.3270 N   0  0  0  0  0  0  0  0  0  0  0  0
  139.3160   68.7180  225.7880 C   0  0  2  0  0  0  0  0  0  0  0  0
  138.2916   68.6653  226.1851 H   0  0  0  0  0  0  0  0  0  0  0  0
  139.9900   69.9250  226.4100 C   0  0  0  0  0  0  0  0  0  0  0  0
  139.8900   70.1740  227.7910 C   0  0  0  0  0  0  0  0  0  0  0  0
  139.2791   69.5133  228.4237 H   0  0  0  0  0  0  0  0  0  0  0  0
  140.5640   71.2580  228.3630 C   0  0  0  0  0  0  0  0  0  0  0  0
  140.4852   71.4447  229.4442 H   0  0  0  0  0  0  0  0  0  0  0  0
  141.3370   72.1040  227.5640 C   0  0  0  0  0  0  0  0  0  0  0  0
  141.8715   72.9519  228.0171 H   0  0  0  0  0  0  0  0  0  0  0  0
  141.4310   71.8730  226.1900 C   0  0  0  0  0  0  0  0  0  0  0  0
  142.0366   72.5422  225.5611 H   0  0  0  0  0  0  0  0  0  0  0  0
  140.7570   70.7930  225.6120 C   0  0  0  0  0  0  0  0  0  0  0  0
  140.8269   70.6212  224.5277 H   0  0  0  0  0  0  0  0  0  0  0  0
  140.0710   67.4400  226.1530 C   0  0  0  0  0  0  0  0  0  0  0  0
  140.1261   67.3467  227.2476 H   0  0  0  0  0  0  0  0  0  0  0  0
  139.5418   66.5700  225.7370 H   0  0  0  0  0  0  0  0  0  0  0  0
  141.0884   67.4837  225.7370 H   0  0  0  0  0  0  0  0  0  0  0  0
  137.0660   69.0210  223.5340 O   0  0  0  0  0  0  0  0  0  0  0  0
  136.3140   69.6000  223.1790 H   0  0  0  0  0  0  0  0  0  0  0  0
  1  2  1  0
  2  3  2  0
  3  4  1  0
  4  5  1  0
  5  6  1  0
  6  7  2  0
  7  8  1  0
  8  9  1  0
  8 10  2  0
 10 11  1  0
 10 12  1  0
 12 13  1  0
 12 14  2  0
 14 15  1  0
 14 16  1  0
 16 17  1  0
 17 18  2  0
 17 19  1  0
 19 20  1  0
 20 21  1  0
 20 22  2  0
 22 23  1  0
 23 24  2  0
 24 25  1  0
 25 26  1  1
 25 27  1  0
 27 28  2  0
 28 29  1  0
 28 30  1  0
 30 31  1  0
 30 32  2  0
 32 33  1  0
 32 34  1  0
 34 35  1  0
 34 36  2  0
 36 37  1  0
 25 38  1  0
 38 39  1  0
 38 40  1  0
 38 41  1  0
 23 42  1  0
 42 43  1  0
 22  3  1  0
 36 27  1  0
 19  5  2  0
 16  7  1  0
M  CHG  1   4  -1
M  END
>  <UniqueID>  (22) 
32

>  <SMILES>  (22) 
[H]/N=c1/[n-]c2nc3ccccn3c(=O)c2cc1/C(O)=N\[C@@H](C)c1ccccc1

>  <Energy>  (22) 
60.985657862872024

>  <Genealogy>  (22) 
C[C@H](NC(=O)c1cc2c(=O)n3ccccc3nc2[n-]c1=N)c1ccccc1 (protonated)
C[C@H](N=C(O)c1cc2c(=O)n3ccccc3nc2[n-]c1=N)c1ccccc1 (tautomer)
[H]/N=c1/[n-]c2nc3ccccn3c(=O)c2cc1/C(O)=N\[C@@H](C)c1ccccc1 (cis-trans isomerization)
[H]/N=c1/[n-]c2nc3ccccn3c(=O)c2cc1/C(O)=N\[C@@H](C)c1ccccc1 (3D coordinates assigned)
[H]/N=c1/[n-]c2nc3ccccn3c(=O)c2cc1/C(O)=N\[C@@H](C)c1ccccc1 (optimized conformer: 60.985657862872024 kcal/mol)

>  <smiles>  (22) 
C[C@H](NC(=O)c1cc2c(=O)n3ccccc3nc2[nH]c1=N)c1ccccc1

>  <score_type>  (22) 
oracle

>  <origin>  (22) 
autodockgpu

>  <m_score__min__energy>  (22) 
-7.6799999999999997

>  <m_primary>  (22) 
energy

>  <meeko>  (22) 
{"free_energy": -6.5, "intermolecular_energy": -8.29, "internal_energy": -1.94, "cluster_size": 2, "cluster_id": 4, "rank_in_cluster": 1}

>  <energy>  (22) 
-7.67

>  <cluster_rmsd>  (22) 
0.1

>  <rmsd>  (22) 
271.62

>  <cluster>  (22) 
1

$$$$
HDANWICVGDYKAH-VJHPIRKKNA-M
     RDKit          3D

 43 46  0  0  0  0  0  0  0  0999 V2000
  134.4650   68.2720  226.1160 H   0  0  0  0  0  0  0  0  0  0  0  0
  133.8250   69.0350  226.4310 N   0  0  0  0  0  0  0  0  0  0  0  0
  134.0130   70.2910  226.1640 C   0  0  0  0  0  0  0  0  0  0  0  0
  133.2620   71.2160  226.8180 N   0  0  0  0  0  0  0  0  0  0  0  0
  133.3980   72.5500  226.5950 C   0  0  0  0  0  0  0  0  0  0  0  0
  132.6410   73.4290  227.2930 N   0  0  0  0  0  0  0  0  0  0  0  0
  132.7610   74.7690  227.1070 C   0  0  0  0  0  0  0  0  0  0  0  0
  131.9570   75.6320  227.8580 C   0  0  0  0  0  0  0  0  0  0  0  0
  131.2385   75.2260  228.5853 H   0  0  0  0  0  0  0  0  0  0  0  0
  132.0710   77.0080  227.6800 C   0  0  0  0  0  0  0  0  0  0  0  0
  131.4418   77.6948  228.2652 H   0  0  0  0  0  0  0  0  0  0  0  0
  132.9850   77.5110  226.7580 C   0  0  0  0  0  0  0  0  0  0  0  0
  133.0831   78.5968  226.6113 H   0  0  0  0  0  0  0  0  0  0  0  0
  133.7760   76.6280  226.0210 C   0  0  0  0  0  0  0  0  0  0  0  0
  134.4981   77.0253  225.2925 H   0  0  0  0  0  0  0  0  0  0  0  0
  133.6650   75.2700  226.1930 N   0  0  0  0  0  0  0  0  0  0  0  0
  134.4470   74.4050  225.4640 C   0  0  0  0  0  0  0  0  0  0  0  0
  135.2840   74.8490  224.6270 O   0  0  0  0  0  0  0  0  0  0  0  0
  134.3240   73.0180  225.6520 C   0  0  0  0  0  0  0  0  0  0  0  0
  135.1010   72.0860  224.9490 C   0  0  0  0  0  0  0  0  0  0  0  0
  135.8126   72.4312  224.1845 H   0  0  0  0  0  0  0  0  0  0  0  0
  134.9740   70.7170  225.2170 C   0  0  0  0  0  0  0  0  0  0  0  0
  135.8950   69.7800  224.5430 C   0  0  0  0  0  0  0  0  0  0  0  0
  137.1200   70.1130  224.2410 N   0  0  0  0  0  0  0  0  0  0  0  0
  138.3160   69.2900  224.4510 C   0  0  2  0  0  0  0  0  0  0  0  0
  138.0006   68.2808  224.7543 H   0  0  0  0  0  0  0  0  0  0  0  0
  139.1810   69.8560  225.5600 C   0  0  0  0  0  0  0  0  0  0  0  0
  139.9510   71.0150  225.3540 C   0  0  0  0  0  0  0  0  0  0  0  0
  139.9642   71.4949  224.3643 H   0  0  0  0  0  0  0  0  0  0  0  0
  140.7000   71.5600  226.4020 C   0  0  0  0  0  0  0  0  0  0  0  0
  141.2967   72.4689  226.2353 H   0  0  0  0  0  0  0  0  0  0  0  0
  140.6920   70.9530  227.6590 C   0  0  0  0  0  0  0  0  0  0  0  0
  141.2759   71.3884  228.4833 H   0  0  0  0  0  0  0  0  0  0  0  0
  139.9430   69.7930  227.8710 C   0  0  0  0  0  0  0  0  0  0  0  0
  139.9417   69.3128  228.8606 H   0  0  0  0  0  0  0  0  0  0  0  0
  139.1950   69.2420  226.8260 C   0  0  0  0  0  0  0  0  0  0  0  0
  138.6141   68.3232  226.9946 H   0  0  0  0  0  0  0  0  0  0  0  0
  139.1100   69.2060  223.1480 C   0  0  0  0  0  0  0  0  0  0  0  0
  140.1799   69.0928  223.3772 H   0  0  0  0  0  0  0  0  0  0  0  0
  138.7663   68.3392  222.5644 H   0  0  0  0  0  0  0  0  0  0  0  0
  138.9553   70.1255  222.5644 H   0  0  0  0  0  0  0  0  0  0  0  0
  135.4230   68.5180  224.1950 O   0  0  0  0  0  0  0  0  0  0  0  0
  134.5610   68.1580  224.5850 H   0  0  0  0  0  0  0  0  0  0  0  0
  1  2  1  0
  2  3  2  0
  3  4  1  0
  4  5  1  0
  5  6  1  0
  6  7  2  0
  7  8  1  0
  8  9  1  0
  8 10  2  0
 10 11  1  0
 10 12  1  0
 12 13  1  0
 12 14  2  0
 14 15  1  0
 14 16  1  0
 16 17  1  0
 17 18  2  0
 17 19  1  0
 19 20  1  0
 20 21  1  0
 20 22  2  0
 22 23  1  0
 23 24  2  0
 24 25  1  0
 25 26  1  1
 25 27  1  0
 27 28  2  0
 28 29  1  0
 28 30  1  0
 30 31  1  0
 30 32  2  0
 32 33  1  0
 32 34  1  0
 34 35  1  0
 34 36  2  0
 36 37  1  0
 25 38  1  0
 38 39  1  0
 38 40  1  0
 38 41  1  0
 23 42  1  0
 42 43  1  0
 22  3  1  0
 36 27  1  0
 19  5  2  0
 16  7  1  0
M  CHG  1   4  -1
M  END
>  <UniqueID>  (23) 
32

>  <SMILES>  (23) 
[H]/N=c1/[n-]c2nc3ccccn3c(=O)c2cc1/C(O)=N\[C@@H](C)c1ccccc1

>  <Energy>  (23) 
60.985657862872024

>  <Genealogy>  (23) 
C[C@H](NC(=O)c1cc2c(=O)n3ccccc3nc2[n-]c1=N)c1ccccc1 (protonated)
C[C@H](N=C(O)c1cc2c(=O)n3ccccc3nc2[n-]c1=N)c1ccccc1 (tautomer)
[H]/N=c1/[n-]c2nc3ccccn3c(=O)c2cc1/C(O)=N\[C@@H](C)c1ccccc1 (cis-trans isomerization)
[H]/N=c1/[n-]c2nc3ccccn3c(=O)c2cc1/C(O)=N\[C@@H](C)c1ccccc1 (3D coordinates assigned)
[H]/N=c1/[n-]c2nc3ccccn3c(=O)c2cc1/C(O)=N\[C@@H](C)c1ccccc1 (optimized conformer: 60.985657862872024 kcal/mol)

>  <smiles>  (23) 
C[C@H](NC(=O)c1cc2c(=O)n3ccccc3nc2[nH]c1=N)c1ccccc1

>  <score_type>  (23) 
oracle

>  <origin>  (23) 
autodockgpu

>  <m_score__min__energy>  (23) 
-7.6799999999999997

>  <m_primary>  (23) 
energy

>  <meeko>  (23) 
{"free_energy": -7.59, "intermolecular_energy": -9.38, "internal_energy": -1.63, "cluster_size": 11, "cluster_id": 1, "rank_in_cluster": 6}

>  <energy>  (23) 
-7.62

>  <cluster_rmsd>  (23) 
0.21

>  <rmsd>  (23) 
271.66

>  <cluster>  (23) 
1

$$$$
HDANWICVGDYKAH-VJHPIRKKNA-M
     RDKit          3D

 43 46  0  0  0  0  0  0  0  0999 V2000
  135.3250   70.3830  223.7960 H   0  0  0  0  0  0  0  0  0  0  0  0
  135.8330   71.2890  223.8910 N   0  0  0  0  0  0  0  0  0  0  0  0
  137.0370   71.4920  223.4490 C   0  0  0  0  0  0  0  0  0  0  0  0
  137.3000   72.6450  222.7780 N   0  0  0  0  0  0  0  0  0  0  0  0
  138.5330   72.9310  222.2830 C   0  0  0  0  0  0  0  0  0  0  0  0
  138.7460   74.1050  221.6450 N   0  0  0  0  0  0  0  0  0  0  0  0
  139.9680   74.4310  221.1510 C   0  0  0  0  0  0  0  0  0  0  0  0
  140.1330   75.6600  220.5040 C   0  0  0  0  0  0  0  0  0  0  0  0
  139.2811   76.3476  220.3973 H   0  0  0  0  0  0  0  0  0  0  0  0
  141.3810   76.0080  219.9960 C   0  0  0  0  0  0  0  0  0  0  0  0
  141.5199   76.9722  219.4851 H   0  0  0  0  0  0  0  0  0  0  0  0
  142.4530   75.1310  220.1370 C   0  0  0  0  0  0  0  0  0  0  0  0
  143.4429   75.3979  219.7384 H   0  0  0  0  0  0  0  0  0  0  0  0
  142.2630   73.9100  220.7880 C   0  0  0  0  0  0  0  0  0  0  0  0
  143.1101   73.2174  220.9007 H   0  0  0  0  0  0  0  0  0  0  0  0
  141.0330   73.5630  221.2890 N   0  0  0  0  0  0  0  0  0  0  0  0
  140.8510   72.3590  221.9290 C   0  0  0  0  0  0  0  0  0  0  0  0
  141.8170   71.5550  222.0680 O   0  0  0  0  0  0  0  0  0  0  0  0
  139.5860   72.0180  222.4380 C   0  0  0  0  0  0  0  0  0  0  0  0
  139.3410   70.8120  223.1120 C   0  0  0  0  0  0  0  0  0  0  0  0
  140.1467   70.0712  223.2213 H   0  0  0  0  0  0  0  0  0  0  0  0
  138.0730   70.5490  223.6460 C   0  0  0  0  0  0  0  0  0  0  0  0
  137.8900   69.3240  224.4510 C   0  0  0  0  0  0  0  0  0  0  0  0
  138.9010   68.6040  224.8510 N   0  0  0  0  0  0  0  0  0  0  0  0
  139.4050   68.5120  226.2270 C   0  0  2  0  0  0  0  0  0  0  0  0
  138.5569   68.3252  226.9021 H   0  0  0  0  0  0  0  0  0  0  0  0
  140.0600   69.8110  226.6570 C   0  0  0  0  0  0  0  0  0  0  0  0
  140.9020   70.5180  225.7800 C   0  0  0  0  0  0  0  0  0  0  0  0
  141.1275   70.1053  224.7856 H   0  0  0  0  0  0  0  0  0  0  0  0
  141.4540   71.7440  226.1670 C   0  0  0  0  0  0  0  0  0  0  0  0
  142.1080   72.2947  225.4748 H   0  0  0  0  0  0  0  0  0  0  0  0
  141.1760   72.2700  227.4310 C   0  0  0  0  0  0  0  0  0  0  0  0
  141.6055   73.2373  227.7307 H   0  0  0  0  0  0  0  0  0  0  0  0
  140.3530   71.5680  228.3140 C   0  0  0  0  0  0  0  0  0  0  0  0
  140.1385   71.9812  229.3106 H   0  0  0  0  0  0  0  0  0  0  0  0
  139.8010   70.3410  227.9340 C   0  0  0  0  0  0  0  0  0  0  0  0
  139.1611   69.7874  228.6370 H   0  0  0  0  0  0  0  0  0  0  0  0
  140.4000   67.3570  226.3260 C   0  0  0  0  0  0  0  0  0  0  0  0
  140.5949   67.1307  227.3847 H   0  0  0  0  0  0  0  0  0  0  0  0
  139.9803   66.4681  225.8323 H   0  0  0  0  0  0  0  0  0  0  0  0
  141.3412   67.6405  225.8323 H   0  0  0  0  0  0  0  0  0  0  0  0
  136.5950   68.9170  224.7570 O   0  0  0  0  0  0  0  0  0  0  0  0
  135.8480   69.5920  224.8670 H   0  0  0  0  0  0  0  0  0  0  0  0
  1  2  1  0
  2  3  2  0
  3  4  1  0
  4  5  1  0
  5  6  1  0
  6  7  2  0
  7  8  1  0
  8  9  1  0
  8 10  2  0
 10 11  1  0
 10 12  1  0
 12 13  1  0
 12 14  2  0
 14 15  1  0
 14 16  1  0
 16 17  1  0
 17 18  2  0
 17 19  1  0
 19 20  1  0
 20 21  1  0
 20 22  2  0
 22 23  1  0
 23 24  2  0
 24 25  1  0
 25 26  1  1
 25 27  1  0
 27 28  2  0
 28 29  1  0
 28 30  1  0
 30 31  1  0
 30 32  2  0
 32 33  1  0
 32 34  1  0
 34 35  1  0
 34 36  2  0
 36 37  1  0
 25 38  1  0
 38 39  1  0
 38 40  1  0
 38 41  1  0
 23 42  1  0
 42 43  1  0
 22  3  1  0
 36 27  1  0
 19  5  2  0
 16  7  1  0
M  CHG  1   4  -1
M  END
>  <UniqueID>  (24) 
32

>  <SMILES>  (24) 
[H]/N=c1/[n-]c2nc3ccccn3c(=O)c2cc1/C(O)=N\[C@@H](C)c1ccccc1

>  <Energy>  (24) 
60.985657862872024

>  <Genealogy>  (24) 
C[C@H](NC(=O)c1cc2c(=O)n3ccccc3nc2[n-]c1=N)c1ccccc1 (protonated)
C[C@H](N=C(O)c1cc2c(=O)n3ccccc3nc2[n-]c1=N)c1ccccc1 (tautomer)
[H]/N=c1/[n-]c2nc3ccccn3c(=O)c2cc1/C(O)=N\[C@@H](C)c1ccccc1 (cis-trans isomerization)
[H]/N=c1/[n-]c2nc3ccccn3c(=O)c2cc1/C(O)=N\[C@@H](C)c1ccccc1 (3D coordinates assigned)
[H]/N=c1/[n-]c2nc3ccccn3c(=O)c2cc1/C(O)=N\[C@@H](C)c1ccccc1 (optimized conformer: 60.985657862872024 kcal/mol)

>  <smiles>  (24) 
C[C@H](NC(=O)c1cc2c(=O)n3ccccc3nc2[nH]c1=N)c1ccccc1

>  <score_type>  (24) 
oracle

>  <origin>  (24) 
autodockgpu

>  <m_score__min__energy>  (24) 
-7.6799999999999997

>  <m_primary>  (24) 
energy

>  <meeko>  (24) 
{"free_energy": -6.38, "intermolecular_energy": -8.17, "internal_energy": -1.99, "cluster_size": 2, "cluster_id": 4, "rank_in_cluster": 2}

>  <energy>  (24) 
-7.6

>  <cluster_rmsd>  (24) 
0.25

>  <rmsd>  (24) 
271.68

>  <cluster>  (24) 
1

$$$$
HDANWICVGDYKAH-VJHPIRKKNA-M
     RDKit          3D

 43 46  0  0  0  0  0  0  0  0999 V2000
  138.4990   71.6040  220.1170 H   0  0  0  0  0  0  0  0  0  0  0  0
  138.7790   70.8060  220.7290 N   0  0  0  0  0  0  0  0  0  0  0  0
  139.2610   70.9490  221.9260 C   0  0  0  0  0  0  0  0  0  0  0  0
  139.2000   69.8960  222.7830 N   0  0  0  0  0  0  0  0  0  0  0  0
  139.6800   69.9660  224.0530 C   0  0  0  0  0  0  0  0  0  0  0  0
  139.6170   68.8780  224.8560 N   0  0  0  0  0  0  0  0  0  0  0  0
  140.1000   68.9070  226.1250 C   0  0  0  0  0  0  0  0  0  0  0  0
  140.0120   67.7530  226.9110 C   0  0  0  0  0  0  0  0  0  0  0  0
  139.5551   66.8393  226.5031 H   0  0  0  0  0  0  0  0  0  0  0  0
  140.5060   67.7680  228.2120 C   0  0  0  0  0  0  0  0  0  0  0  0
  140.4400   66.8660  228.8381 H   0  0  0  0  0  0  0  0  0  0  0  0
  141.0840   68.9290  228.7180 C   0  0  0  0  0  0  0  0  0  0  0  0
  141.4780   68.9495  229.7448 H   0  0  0  0  0  0  0  0  0  0  0  0
  141.1600   70.0670  227.9130 C   0  0  0  0  0  0  0  0  0  0  0  0
  141.6166   70.9845  228.3126 H   0  0  0  0  0  0  0  0  0  0  0  0
  140.6730   70.0570  226.6300 N   0  0  0  0  0  0  0  0  0  0  0  0
  140.7510   71.1810  225.8420 C   0  0  0  0  0  0  0  0  0  0  0  0
  141.2770   72.2410  226.2870 O   0  0  0  0  0  0  0  0  0  0  0  0
  140.2480   71.1560  224.5290 C   0  0  0  0  0  0  0  0  0  0  0  0
  140.3090   72.2650  223.6730 C   0  0  0  0  0  0  0  0  0  0  0  0
  140.7248   73.2162  224.0367 H   0  0  0  0  0  0  0  0  0  0  0  0
  139.8420   72.1650  222.3560 C   0  0  0  0  0  0  0  0  0  0  0  0
  140.0350   73.3170  221.4520 C   0  0  0  0  0  0  0  0  0  0  0  0
  140.1490   74.5360  221.9030 N   0  0  0  0  0  0  0  0  0  0  0  0
  139.2050   75.6350  221.6660 C   0  0  2  0  0  0  0  0  0  0  0  0
  139.1438   75.8204  220.5835 H   0  0  0  0  0  0  0  0  0  0  0  0
  139.6790   76.9140  222.3280 C   0  0  0  0  0  0  0  0  0  0  0  0
  138.7600   77.8920  222.7500 C   0  0  0  0  0  0  0  0  0  0  0  0
  137.6858   77.7521  222.5590 H   0  0  0  0  0  0  0  0  0  0  0  0
  139.2050   79.0410  223.4110 C   0  0  0  0  0  0  0  0  0  0  0  0
  138.4804   79.7996  223.7417 H   0  0  0  0  0  0  0  0  0  0  0  0
  140.5680   79.2270  223.6520 C   0  0  0  0  0  0  0  0  0  0  0  0
  140.9151   80.1282  224.1786 H   0  0  0  0  0  0  0  0  0  0  0  0
  141.4900   78.2700  223.2250 C   0  0  0  0  0  0  0  0  0  0  0  0
  142.5636   78.4205  223.4115 H   0  0  0  0  0  0  0  0  0  0  0  0
  141.0520   77.1210  222.5610 C   0  0  0  0  0  0  0  0  0  0  0  0
  141.7837   76.3745  222.2186 H   0  0  0  0  0  0  0  0  0  0  0  0
  137.8270   75.2430  222.1950 C   0  0  0  0  0  0  0  0  0  0  0  0
  137.8417   75.2472  223.2949 H   0  0  0  0  0  0  0  0  0  0  0  0
  137.0776   75.9636  221.8356 H   0  0  0  0  0  0  0  0  0  0  0  0
  137.5691   74.2359  221.8356 H   0  0  0  0  0  0  0  0  0  0  0  0
  140.0640   73.0880  220.0800 O   0  0  0  0  0  0  0  0  0  0  0  0
  139.9330   72.1570  219.7030 H   0  0  0  0  0  0  0  0  0  0  0  0
  1  2  1  0
  2  3  2  0
  3  4  1  0
  4  5  1  0
  5  6  1  0
  6  7  2  0
  7  8  1  0
  8  9  1  0
  8 10  2  0
 10 11  1  0
 10 12  1  0
 12 13  1  0
 12 14  2  0
 14 15  1  0
 14 16  1  0
 16 17  1  0
 17 18  2  0
 17 19  1  0
 19 20  1  0
 20 21  1  0
 20 22  2  0
 22 23  1  0
 23 24  2  0
 24 25  1  0
 25 26  1  6
 25 27  1  0
 27 28  2  0
 28 29  1  0
 28 30  1  0
 30 31  1  0
 30 32  2  0
 32 33  1  0
 32 34  1  0
 34 35  1  0
 34 36  2  0
 36 37  1  0
 25 38  1  0
 38 39  1  0
 38 40  1  0
 38 41  1  0
 23 42  1  0
 42 43  1  0
 22  3  1  0
 36 27  1  0
 19  5  2  0
 16  7  1  0
M  CHG  1   4  -1
M  END
>  <UniqueID>  (25) 
32

>  <SMILES>  (25) 
[H]/N=c1/[n-]c2nc3ccccn3c(=O)c2cc1/C(O)=N\[C@@H](C)c1ccccc1

>  <Energy>  (25) 
60.985657862872024

>  <Genealogy>  (25) 
C[C@H](NC(=O)c1cc2c(=O)n3ccccc3nc2[n-]c1=N)c1ccccc1 (protonated)
C[C@H](N=C(O)c1cc2c(=O)n3ccccc3nc2[n-]c1=N)c1ccccc1 (tautomer)
[H]/N=c1/[n-]c2nc3ccccn3c(=O)c2cc1/C(O)=N\[C@@H](C)c1ccccc1 (cis-trans isomerization)
[H]/N=c1/[n-]c2nc3ccccn3c(=O)c2cc1/C(O)=N\[C@@H](C)c1ccccc1 (3D coordinates assigned)
[H]/N=c1/[n-]c2nc3ccccn3c(=O)c2cc1/C(O)=N\[C@@H](C)c1ccccc1 (optimized conformer: 60.985657862872024 kcal/mol)

>  <smiles>  (25) 
C[C@H](NC(=O)c1cc2c(=O)n3ccccc3nc2[nH]c1=N)c1ccccc1

>  <score_type>  (25) 
oracle

>  <origin>  (25) 
autodockgpu

>  <m_score__min__energy>  (25) 
-7.6799999999999997

>  <m_primary>  (25) 
energy

>  <meeko>  (25) 
{"free_energy": -6.87, "intermolecular_energy": -8.66, "internal_energy": -1.58, "cluster_size": 2, "cluster_id": 2, "rank_in_cluster": 1}

>  <energy>  (25) 
-7.59

>  <cluster_rmsd>  (25) 
0.22

>  <rmsd>  (25) 
271.53

>  <cluster>  (25) 
1

$$$$
HDANWICVGDYKAH-VJHPIRKKNA-M
     RDKit          3D

 43 46  0  0  0  0  0  0  0  0999 V2000
  134.3760   68.2890  226.1340 H   0  0  0  0  0  0  0  0  0  0  0  0
  133.7660   69.0670  226.4680 N   0  0  0  0  0  0  0  0  0  0  0  0
  133.9750   70.3180  226.1900 C   0  0  0  0  0  0  0  0  0  0  0  0
  133.2400   71.2610  226.8370 N   0  0  0  0  0  0  0  0  0  0  0  0
  133.3980   72.5900  226.6030 C   0  0  0  0  0  0  0  0  0  0  0  0
  132.6560   73.4880  227.2940 N   0  0  0  0  0  0  0  0  0  0  0  0
  132.7980   74.8240  227.0960 C   0  0  0  0  0  0  0  0  0  0  0  0
  132.0090   75.7070  227.8410 C   0  0  0  0  0  0  0  0  0  0  0  0
  131.2847   75.3193  228.5725 H   0  0  0  0  0  0  0  0  0  0  0  0
  132.1460   77.0790  227.6510 C   0  0  0  0  0  0  0  0  0  0  0  0
  131.5286   77.7811  228.2306 H   0  0  0  0  0  0  0  0  0  0  0  0
  133.0670   77.5590  226.7250 C   0  0  0  0  0  0  0  0  0  0  0  0
  133.1826   78.6418  226.5695 H   0  0  0  0  0  0  0  0  0  0  0  0
  133.8440   76.6570  225.9940 C   0  0  0  0  0  0  0  0  0  0  0  0
  134.5722   77.0363  225.2619 H   0  0  0  0  0  0  0  0  0  0  0  0
  133.7100   75.3030  226.1780 N   0  0  0  0  0  0  0  0  0  0  0  0
  134.4770   74.4190  225.4560 C   0  0  0  0  0  0  0  0  0  0  0  0
  135.3210   74.8410  224.6150 O   0  0  0  0  0  0  0  0  0  0  0  0
  134.3310   73.0350  225.6560 C   0  0  0  0  0  0  0  0  0  0  0  0
  135.0920   72.0840  224.9600 C   0  0  0  0  0  0  0  0  0  0  0  0
  135.8086   72.4106  224.1921 H   0  0  0  0  0  0  0  0  0  0  0  0
  134.9420   70.7200  225.2400 C   0  0  0  0  0  0  0  0  0  0  0  0
  135.8470   69.7620  224.5720 C   0  0  0  0  0  0  0  0  0  0  0  0
  137.0840   70.0640  224.2900 N   0  0  0  0  0  0  0  0  0  0  0  0
  138.2570   69.2160  224.5340 C   0  0  2  0  0  0  0  0  0  0  0  0
  137.9143   68.2339  224.8919 H   0  0  0  0  0  0  0  0  0  0  0  0
  139.1490   69.8120  225.6060 C   0  0  0  0  0  0  0  0  0  0  0  0
  139.9250   70.9560  225.3440 C   0  0  0  0  0  0  0  0  0  0  0  0
  139.9227   71.4007  224.3379 H   0  0  0  0  0  0  0  0  0  0  0  0
  140.6990   71.5300  226.3570 C   0  0  0  0  0  0  0  0  0  0  0  0
  141.3000   72.4270  226.1467 H   0  0  0  0  0  0  0  0  0  0  0  0
  140.7110   70.9670  227.6360 C   0  0  0  0  0  0  0  0  0  0  0  0
  141.3151   71.4250  228.4330 H   0  0  0  0  0  0  0  0  0  0  0  0
  139.9560   69.8230  227.9020 C   0  0  0  0  0  0  0  0  0  0  0  0
  139.9700   69.3773  228.9075 H   0  0  0  0  0  0  0  0  0  0  0  0
  139.1820   69.2430  226.8920 C   0  0  0  0  0  0  0  0  0  0  0  0
  138.5958   68.3368  227.1044 H   0  0  0  0  0  0  0  0  0  0  0  0
  139.0360   69.0410  223.2310 C   0  0  0  0  0  0  0  0  0  0  0  0
  140.0857   68.8052  223.4602 H   0  0  0  0  0  0  0  0  0  0  0  0
  138.5947   68.2196  222.6474 H   0  0  0  0  0  0  0  0  0  0  0  0
  138.9884   69.9722  222.6474 H   0  0  0  0  0  0  0  0  0  0  0  0
  135.3460   68.5160  224.2100 O   0  0  0  0  0  0  0  0  0  0  0  0
  134.4930   68.1570  224.6210 H   0  0  0  0  0  0  0  0  0  0  0  0
  1  2  1  0
  2  3  2  0
  3  4  1  0
  4  5  1  0
  5  6  1  0
  6  7  2  0
  7  8  1  0
  8  9  1  0
  8 10  2  0
 10 11  1  0
 10 12  1  0
 12 13  1  0
 12 14  2  0
 14 15  1  0
 14 16  1  0
 16 17  1  0
 17 18  2  0
 17 19  1  0
 19 20  1  0
 20 21  1  0
 20 22  2  0
 22 23  1  0
 23 24  2  0
 24 25  1  0
 25 26  1  1
 25 27  1  0
 27 28  2  0
 28 29  1  0
 28 30  1  0
 30 31  1  0
 30 32  2  0
 32 33  1  0
 32 34  1  0
 34 35  1  0
 34 36  2  0
 36 37  1  0
 25 38  1  0
 38 39  1  0
 38 40  1  0
 38 41  1  0
 23 42  1  0
 42 43  1  0
 22  3  1  0
 36 27  1  0
 19  5  2  0
 16  7  1  0
M  CHG  1   4  -1
M  END
>  <UniqueID>  (26) 
32

>  <SMILES>  (26) 
[H]/N=c1/[n-]c2nc3ccccn3c(=O)c2cc1/C(O)=N\[C@@H](C)c1ccccc1

>  <Energy>  (26) 
60.985657862872024

>  <Genealogy>  (26) 
C[C@H](NC(=O)c1cc2c(=O)n3ccccc3nc2[n-]c1=N)c1ccccc1 (protonated)
C[C@H](N=C(O)c1cc2c(=O)n3ccccc3nc2[n-]c1=N)c1ccccc1 (tautomer)
[H]/N=c1/[n-]c2nc3ccccn3c(=O)c2cc1/C(O)=N\[C@@H](C)c1ccccc1 (cis-trans isomerization)
[H]/N=c1/[n-]c2nc3ccccn3c(=O)c2cc1/C(O)=N\[C@@H](C)c1ccccc1 (3D coordinates assigned)
[H]/N=c1/[n-]c2nc3ccccn3c(=O)c2cc1/C(O)=N\[C@@H](C)c1ccccc1 (optimized conformer: 60.985657862872024 kcal/mol)

>  <smiles>  (26) 
C[C@H](NC(=O)c1cc2c(=O)n3ccccc3nc2[nH]c1=N)c1ccccc1

>  <score_type>  (26) 
oracle

>  <origin>  (26) 
autodockgpu

>  <m_score__min__energy>  (26) 
-7.6799999999999997

>  <m_primary>  (26) 
energy

>  <meeko>  (26) 
{"free_energy": -7.62, "intermolecular_energy": -9.41, "internal_energy": -1.61, "cluster_size": 11, "cluster_id": 1, "rank_in_cluster": 3}

>  <energy>  (26) 
-7.59

>  <cluster_rmsd>  (26) 
0.27

>  <rmsd>  (26) 
271.65

>  <cluster>  (26) 
1

$$$$
HDANWICVGDYKAH-VJHPIRKKNA-M
     RDKit          3D

 43 46  0  0  0  0  0  0  0  0999 V2000
  134.4910   68.2590  226.1220 H   0  0  0  0  0  0  0  0  0  0  0  0
  133.8320   69.0110  226.4200 N   0  0  0  0  0  0  0  0  0  0  0  0
  134.0130   70.2710  226.1660 C   0  0  0  0  0  0  0  0  0  0  0  0
  133.2630   71.1860  226.8350 N   0  0  0  0  0  0  0  0  0  0  0  0
  133.3910   72.5220  226.6270 C   0  0  0  0  0  0  0  0  0  0  0  0
  132.6350   73.3900  227.3390 N   0  0  0  0  0  0  0  0  0  0  0  0
  132.7470   74.7330  227.1670 C   0  0  0  0  0  0  0  0  0  0  0  0
  131.9440   75.5840  227.9330 C   0  0  0  0  0  0  0  0  0  0  0  0
  131.2314   75.1669  228.6598 H   0  0  0  0  0  0  0  0  0  0  0  0
  132.0520   76.9620  227.7700 C   0  0  0  0  0  0  0  0  0  0  0  0
  131.4244   77.6393  228.3677 H   0  0  0  0  0  0  0  0  0  0  0  0
  132.9570   77.4800  226.8480 C   0  0  0  0  0  0  0  0  0  0  0  0
  133.0492   78.5678  226.7128 H   0  0  0  0  0  0  0  0  0  0  0  0
  133.7470   76.6080  226.0960 C   0  0  0  0  0  0  0  0  0  0  0  0
  134.4623   77.0168  225.3671 H   0  0  0  0  0  0  0  0  0  0  0  0
  133.6440   75.2480  226.2530 N   0  0  0  0  0  0  0  0  0  0  0  0
  134.4250   74.3950  225.5100 C   0  0  0  0  0  0  0  0  0  0  0  0
  135.2540   74.8520  224.6720 O   0  0  0  0  0  0  0  0  0  0  0  0
  134.3080   73.0050  225.6830 C   0  0  0  0  0  0  0  0  0  0  0  0
  135.0850   72.0850  224.9640 C   0  0  0  0  0  0  0  0  0  0  0  0
  135.7902   72.4419  224.1990 H   0  0  0  0  0  0  0  0  0  0  0  0
  134.9650   70.7120  225.2180 C   0  0  0  0  0  0  0  0  0  0  0  0
  135.8870   69.7870  224.5270 C   0  0  0  0  0  0  0  0  0  0  0  0
  137.0990   70.1380  224.1970 N   0  0  0  0  0  0  0  0  0  0  0  0
  138.3150   69.3430  224.4030 C   0  0  2  0  0  0  0  0  0  0  0  0
  138.0247   68.3172  224.6742 H   0  0  0  0  0  0  0  0  0  0  0  0
  139.1470   69.9030  225.5400 C   0  0  0  0  0  0  0  0  0  0  0  0
  139.1740   69.2680  226.7950 C   0  0  0  0  0  0  0  0  0  0  0  0
  138.5499   68.3798  226.9727 H   0  0  0  0  0  0  0  0  0  0  0  0
  139.9910   69.7610  227.8180 C   0  0  0  0  0  0  0  0  0  0  0  0
  140.0104   69.2576  228.7959 H   0  0  0  0  0  0  0  0  0  0  0  0
  140.7820   70.8910  227.6000 C   0  0  0  0  0  0  0  0  0  0  0  0
  141.4299   71.2717  228.4033 H   0  0  0  0  0  0  0  0  0  0  0  0
  140.7510   71.5380  226.3630 C   0  0  0  0  0  0  0  0  0  0  0  0
  141.3703   72.4314  226.1948 H   0  0  0  0  0  0  0  0  0  0  0  0
  139.9340   71.0520  225.3380 C   0  0  0  0  0  0  0  0  0  0  0  0
  139.9062   71.5705  224.3683 H   0  0  0  0  0  0  0  0  0  0  0  0
  139.1290   69.3170  223.1110 C   0  0  0  0  0  0  0  0  0  0  0  0
  140.2013   69.2827  223.3538 H   0  0  0  0  0  0  0  0  0  0  0  0
  138.8573   68.4271  222.5243 H   0  0  0  0  0  0  0  0  0  0  0  0
  138.9147   70.2225  222.5243 H   0  0  0  0  0  0  0  0  0  0  0  0
  135.4270   68.5170  224.1940 O   0  0  0  0  0  0  0  0  0  0  0  0
  134.5510   68.1650  224.5630 H   0  0  0  0  0  0  0  0  0  0  0  0
  1  2  1  0
  2  3  2  0
  3  4  1  0
  4  5  1  0
  5  6  1  0
  6  7  2  0
  7  8  1  0
  8  9  1  0
  8 10  2  0
 10 11  1  0
 10 12  1  0
 12 13  1  0
 12 14  2  0
 14 15  1  0
 14 16  1  0
 16 17  1  0
 17 18  2  0
 17 19  1  0
 19 20  1  0
 20 21  1  0
 20 22  2  0
 22 23  1  0
 23 24  2  0
 24 25  1  0
 25 26  1  1
 25 27  1  0
 27 28  2  0
 28 29  1  0
 28 30  1  0
 30 31  1  0
 30 32  2  0
 32 33  1  0
 32 34  1  0
 34 35  1  0
 34 36  2  0
 36 37  1  0
 25 38  1  0
 38 39  1  0
 38 40  1  0
 38 41  1  0
 23 42  1  0
 42 43  1  0
 22  3  1  0
 36 27  1  0
 19  5  2  0
 16  7  1  0
M  CHG  1   4  -1
M  END
>  <UniqueID>  (27) 
32

>  <SMILES>  (27) 
[H]/N=c1/[n-]c2nc3ccccn3c(=O)c2cc1/C(O)=N\[C@@H](C)c1ccccc1

>  <Energy>  (27) 
60.985657862872024

>  <Genealogy>  (27) 
C[C@H](NC(=O)c1cc2c(=O)n3ccccc3nc2[n-]c1=N)c1ccccc1 (protonated)
C[C@H](N=C(O)c1cc2c(=O)n3ccccc3nc2[n-]c1=N)c1ccccc1 (tautomer)
[H]/N=c1/[n-]c2nc3ccccn3c(=O)c2cc1/C(O)=N\[C@@H](C)c1ccccc1 (cis-trans isomerization)
[H]/N=c1/[n-]c2nc3ccccn3c(=O)c2cc1/C(O)=N\[C@@H](C)c1ccccc1 (3D coordinates assigned)
[H]/N=c1/[n-]c2nc3ccccn3c(=O)c2cc1/C(O)=N\[C@@H](C)c1ccccc1 (optimized conformer: 60.985657862872024 kcal/mol)

>  <smiles>  (27) 
C[C@H](NC(=O)c1cc2c(=O)n3ccccc3nc2[nH]c1=N)c1ccccc1

>  <score_type>  (27) 
oracle

>  <origin>  (27) 
autodockgpu

>  <m_score__min__energy>  (27) 
-7.6799999999999997

>  <m_primary>  (27) 
energy

>  <meeko>  (27) 
{"free_energy": -7.56, "intermolecular_energy": -9.35, "internal_energy": -1.63, "cluster_size": 11, "cluster_id": 1, "rank_in_cluster": 7}

>  <energy>  (27) 
-7.56

>  <cluster_rmsd>  (27) 
0.29

>  <rmsd>  (27) 
271.65

>  <cluster>  (27) 
1

$$$$
HDANWICVGDYKAH-VJHPIRKKNA-M
     RDKit          3D

 43 46  0  0  0  0  0  0  0  0999 V2000
  136.0640   68.3890  224.4780 H   0  0  0  0  0  0  0  0  0  0  0  0
  135.2500   68.8890  224.8980 N   0  0  0  0  0  0  0  0  0  0  0  0
  135.1530   70.1820  224.9620 C   0  0  0  0  0  0  0  0  0  0  0  0
  134.1860   70.7250  225.7480 N   0  0  0  0  0  0  0  0  0  0  0  0
  134.0170   72.0680  225.8680 C   0  0  0  0  0  0  0  0  0  0  0  0
  133.0540   72.5550  226.6850 N   0  0  0  0  0  0  0  0  0  0  0  0
  132.8680   73.8910  226.8400 C   0  0  0  0  0  0  0  0  0  0  0  0
  131.8600   74.3400  227.7000 C   0  0  0  0  0  0  0  0  0  0  0  0
  131.2289   73.6168  228.2373 H   0  0  0  0  0  0  0  0  0  0  0  0
  131.6600   75.7060  227.8720 C   0  0  0  0  0  0  0  0  0  0  0  0
  130.8699   76.0679  228.5464 H   0  0  0  0  0  0  0  0  0  0  0  0
  132.4640   76.6130  227.1870 C   0  0  0  0  0  0  0  0  0  0  0  0
  132.3125   77.6948  227.3161 H   0  0  0  0  0  0  0  0  0  0  0  0
  133.4640   76.1400  226.3350 C   0  0  0  0  0  0  0  0  0  0  0  0
  134.1008   76.8563  225.7953 H   0  0  0  0  0  0  0  0  0  0  0  0
  133.6630   74.7920  226.1620 N   0  0  0  0  0  0  0  0  0  0  0  0
  134.6490   74.3320  225.3210 C   0  0  0  0  0  0  0  0  0  0  0  0
  135.3900   75.1440  224.6970 O   0  0  0  0  0  0  0  0  0  0  0  0
  134.8430   72.9500  225.1560 C   0  0  0  0  0  0  0  0  0  0  0  0
  135.8390   72.4190  224.3230 C   0  0  0  0  0  0  0  0  0  0  0  0
  136.4787   73.0930  223.7343 H   0  0  0  0  0  0  0  0  0  0  0  0
  136.0210   71.0320  224.2390 C   0  0  0  0  0  0  0  0  0  0  0  0
  137.1580   70.5200  223.4450 C   0  0  0  0  0  0  0  0  0  0  0  0
  138.2790   71.1780  223.3420 N   0  0  0  0  0  0  0  0  0  0  0  0
  139.6190   70.6490  223.6190 C   0  0  2  0  0  0  0  0  0  0  0  0
  139.6758   69.6178  223.2404 H   0  0  0  0  0  0  0  0  0  0  0  0
  139.8940   70.6100  225.1100 C   0  0  0  0  0  0  0  0  0  0  0  0
  140.6820   71.6000  225.7250 C   0  0  0  0  0  0  0  0  0  0  0  0
  141.1444   72.3894  225.1143 H   0  0  0  0  0  0  0  0  0  0  0  0
  140.8800   71.5850  227.1090 C   0  0  0  0  0  0  0  0  0  0  0  0
  141.4941   72.3643  227.5838 H   0  0  0  0  0  0  0  0  0  0  0  0
  140.3000   70.5830  227.8900 C   0  0  0  0  0  0  0  0  0  0  0  0
  140.4510   70.5780  228.9796 H   0  0  0  0  0  0  0  0  0  0  0  0
  139.5280   69.5870  227.2870 C   0  0  0  0  0  0  0  0  0  0  0  0
  139.0757   68.7954  227.9024 H   0  0  0  0  0  0  0  0  0  0  0  0
  139.3290   69.5940  225.9040 C   0  0  0  0  0  0  0  0  0  0  0  0
  138.7280   68.8019  225.4334 H   0  0  0  0  0  0  0  0  0  0  0  0
  140.6620   71.5120  222.9100 C   0  0  0  0  0  0  0  0  0  0  0  0
  141.2830   72.0258  223.6586 H   0  0  0  0  0  0  0  0  0  0  0  0
  141.2995   70.8737  222.2805 H   0  0  0  0  0  0  0  0  0  0  0  0
  140.1543   72.2577  222.2805 H   0  0  0  0  0  0  0  0  0  0  0  0
  137.0050   69.3150  222.7670 O   0  0  0  0  0  0  0  0  0  0  0  0
  136.2430   68.6850  222.9880 H   0  0  0  0  0  0  0  0  0  0  0  0
  1  2  1  0
  2  3  2  0
  3  4  1  0
  4  5  1  0
  5  6  1  0
  6  7  2  0
  7  8  1  0
  8  9  1  0
  8 10  2  0
 10 11  1  0
 10 12  1  0
 12 13  1  0
 12 14  2  0
 14 15  1  0
 14 16  1  0
 16 17  1  0
 17 18  2  0
 17 19  1  0
 19 20  1  0
 20 21  1  0
 20 22  2  0
 22 23  1  0
 23 24  2  0
 24 25  1  0
 25 26  1  6
 25 27  1  0
 27 28  2  0
 28 29  1  0
 28 30  1  0
 30 31  1  0
 30 32  2  0
 32 33  1  0
 32 34  1  0
 34 35  1  0
 34 36  2  0
 36 37  1  0
 25 38  1  0
 38 39  1  0
 38 40  1  0
 38 41  1  0
 23 42  1  0
 42 43  1  0
 22  3  1  0
 36 27  1  0
 19  5  2  0
 16  7  1  0
M  CHG  1   4  -1
M  END
>  <UniqueID>  (28) 
32

>  <SMILES>  (28) 
[H]/N=c1/[n-]c2nc3ccccn3c(=O)c2cc1/C(O)=N\[C@@H](C)c1ccccc1

>  <Energy>  (28) 
60.985657862872024

>  <Genealogy>  (28) 
C[C@H](NC(=O)c1cc2c(=O)n3ccccc3nc2[n-]c1=N)c1ccccc1 (protonated)
C[C@H](N=C(O)c1cc2c(=O)n3ccccc3nc2[n-]c1=N)c1ccccc1 (tautomer)
[H]/N=c1/[n-]c2nc3ccccn3c(=O)c2cc1/C(O)=N\[C@@H](C)c1ccccc1 (cis-trans isomerization)
[H]/N=c1/[n-]c2nc3ccccn3c(=O)c2cc1/C(O)=N\[C@@H](C)c1ccccc1 (3D coordinates assigned)
[H]/N=c1/[n-]c2nc3ccccn3c(=O)c2cc1/C(O)=N\[C@@H](C)c1ccccc1 (optimized conformer: 60.985657862872024 kcal/mol)

>  <smiles>  (28) 
C[C@H](NC(=O)c1cc2c(=O)n3ccccc3nc2[nH]c1=N)c1ccccc1

>  <score_type>  (28) 
oracle

>  <origin>  (28) 
autodockgpu

>  <m_score__min__energy>  (28) 
-7.6799999999999997

>  <m_primary>  (28) 
energy

>  <meeko>  (28) 
{"free_energy": -6.6, "intermolecular_energy": -8.39, "internal_energy": -1.79, "cluster_size": 11, "cluster_id": 1, "rank_in_cluster": 11}

>  <energy>  (28) 
-7.55

>  <cluster_rmsd>  (28) 
0.31

>  <rmsd>  (28) 
271.68

>  <cluster>  (28) 
1

$$$$
HDANWICVGDYKAH-VJHPIRKKNA-M
     RDKit          3D

 43 46  0  0  0  0  0  0  0  0999 V2000
  134.1580   68.0520  226.1490 H   0  0  0  0  0  0  0  0  0  0  0  0
  133.5510   68.8480  226.4460 N   0  0  0  0  0  0  0  0  0  0  0  0
  133.8120   70.0910  226.1820 C   0  0  0  0  0  0  0  0  0  0  0  0
  133.1150   71.0580  226.8370 N   0  0  0  0  0  0  0  0  0  0  0  0
  133.3280   72.3820  226.6160 C   0  0  0  0  0  0  0  0  0  0  0  0
  132.6220   73.3020  227.3150 N   0  0  0  0  0  0  0  0  0  0  0  0
  132.8190   74.6330  227.1310 C   0  0  0  0  0  0  0  0  0  0  0  0
  132.0650   75.5400  227.8820 C   0  0  0  0  0  0  0  0  0  0  0  0
  131.3226   75.1751  228.6071 H   0  0  0  0  0  0  0  0  0  0  0  0
  132.2590   76.9070  227.7070 C   0  0  0  0  0  0  0  0  0  0  0  0
  131.6703   77.6279  228.2933 H   0  0  0  0  0  0  0  0  0  0  0  0
  133.2010   77.3580  226.7870 C   0  0  0  0  0  0  0  0  0  0  0  0
  133.3617   78.4366  226.6428 H   0  0  0  0  0  0  0  0  0  0  0  0
  133.9410   76.4320  226.0480 C   0  0  0  0  0  0  0  0  0  0  0  0
  134.6849   76.7884  225.3203 H   0  0  0  0  0  0  0  0  0  0  0  0
  133.7520   75.0830  226.2180 N   0  0  0  0  0  0  0  0  0  0  0  0
  134.4840   74.1750  225.4890 C   0  0  0  0  0  0  0  0  0  0  0  0
  135.3450   74.5710  224.6530 O   0  0  0  0  0  0  0  0  0  0  0  0
  134.2800   72.7970  225.6740 C   0  0  0  0  0  0  0  0  0  0  0  0
  135.0030   71.8230  224.9710 C   0  0  0  0  0  0  0  0  0  0  0  0
  135.7353   72.1277  224.2088 H   0  0  0  0  0  0  0  0  0  0  0  0
  134.7960   70.4630  225.2360 C   0  0  0  0  0  0  0  0  0  0  0  0
  135.6630   69.4750  224.5610 C   0  0  0  0  0  0  0  0  0  0  0  0
  136.9020   69.7420  224.2520 N   0  0  0  0  0  0  0  0  0  0  0  0
  138.0720   68.9260  224.5980 C   0  0  2  0  0  0  0  0  0  0  0  0
  137.7316   68.0356  225.1469 H   0  0  0  0  0  0  0  0  0  0  0  0
  139.0230   69.6890  225.5000 C   0  0  0  0  0  0  0  0  0  0  0  0
  139.2510   69.2740  226.8240 C   0  0  0  0  0  0  0  0  0  0  0  0
  138.7010   68.4120  227.2294 H   0  0  0  0  0  0  0  0  0  0  0  0
  140.1730   69.9510  227.6280 C   0  0  0  0  0  0  0  0  0  0  0  0
  140.3497   69.6176  228.6613 H   0  0  0  0  0  0  0  0  0  0  0  0
  140.8700   71.0500  227.1210 C   0  0  0  0  0  0  0  0  0  0  0  0
  141.5998   71.5773  227.7530 H   0  0  0  0  0  0  0  0  0  0  0  0
  140.6410   71.4800  225.8120 C   0  0  0  0  0  0  0  0  0  0  0  0
  141.1880   72.3481  225.4156 H   0  0  0  0  0  0  0  0  0  0  0  0
  139.7180   70.8090  225.0050 C   0  0  0  0  0  0  0  0  0  0  0  0
  139.5336   71.1576  223.9781 H   0  0  0  0  0  0  0  0  0  0  0  0
  138.7860   68.4950  223.3170 C   0  0  0  0  0  0  0  0  0  0  0  0
  139.7013   67.9425  223.5756 H   0  0  0  0  0  0  0  0  0  0  0  0
  138.1211   67.8473  222.7268 H   0  0  0  0  0  0  0  0  0  0  0  0
  139.0494   69.3851  222.7268 H   0  0  0  0  0  0  0  0  0  0  0  0
  135.1220   68.2400  224.2210 O   0  0  0  0  0  0  0  0  0  0  0  0
  134.2310   67.9380  224.5960 H   0  0  0  0  0  0  0  0  0  0  0  0
  1  2  1  0
  2  3  2  0
  3  4  1  0
  4  5  1  0
  5  6  1  0
  6  7  2  0
  7  8  1  0
  8  9  1  0
  8 10  2  0
 10 11  1  0
 10 12  1  0
 12 13  1  0
 12 14  2  0
 14 15  1  0
 14 16  1  0
 16 17  1  0
 17 18  2  0
 17 19  1  0
 19 20  1  0
 20 21  1  0
 20 22  2  0
 22 23  1  0
 23 24  2  0
 24 25  1  0
 25 26  1  1
 25 27  1  0
 27 28  2  0
 28 29  1  0
 28 30  1  0
 30 31  1  0
 30 32  2  0
 32 33  1  0
 32 34  1  0
 34 35  1  0
 34 36  2  0
 36 37  1  0
 25 38  1  0
 38 39  1  0
 38 40  1  0
 38 41  1  0
 23 42  1  0
 42 43  1  0
 22  3  1  0
 36 27  1  0
 19  5  2  0
 16  7  1  0
M  CHG  1   4  -1
M  END
>  <UniqueID>  (29) 
32

>  <SMILES>  (29) 
[H]/N=c1/[n-]c2nc3ccccn3c(=O)c2cc1/C(O)=N\[C@@H](C)c1ccccc1

>  <Energy>  (29) 
60.985657862872024

>  <Genealogy>  (29) 
C[C@H](NC(=O)c1cc2c(=O)n3ccccc3nc2[n-]c1=N)c1ccccc1 (protonated)
C[C@H](N=C(O)c1cc2c(=O)n3ccccc3nc2[n-]c1=N)c1ccccc1 (tautomer)
[H]/N=c1/[n-]c2nc3ccccn3c(=O)c2cc1/C(O)=N\[C@@H](C)c1ccccc1 (cis-trans isomerization)
[H]/N=c1/[n-]c2nc3ccccn3c(=O)c2cc1/C(O)=N\[C@@H](C)c1ccccc1 (3D coordinates assigned)
[H]/N=c1/[n-]c2nc3ccccn3c(=O)c2cc1/C(O)=N\[C@@H](C)c1ccccc1 (optimized conformer: 60.985657862872024 kcal/mol)

>  <smiles>  (29) 
C[C@H](NC(=O)c1cc2c(=O)n3ccccc3nc2[nH]c1=N)c1ccccc1

>  <score_type>  (29) 
oracle

>  <origin>  (29) 
autodockgpu

>  <m_score__min__energy>  (29) 
-7.6799999999999997

>  <m_primary>  (29) 
energy

>  <meeko>  (29) 
{"free_energy": -7.59, "intermolecular_energy": -9.38, "internal_energy": -1.63, "cluster_size": 11, "cluster_id": 1, "rank_in_cluster": 5}

>  <energy>  (29) 
-7.55

>  <cluster_rmsd>  (29) 
0.34

>  <rmsd>  (29) 
271.63

>  <cluster>  (29) 
1

$$$$
HDANWICVGDYKAH-VJHPIRKKNA-M
     RDKit          3D

 43 46  0  0  0  0  0  0  0  0999 V2000
  139.6240   71.0310  223.4010 H   0  0  0  0  0  0  0  0  0  0  0  0
  138.6980   71.5010  223.2880 N   0  0  0  0  0  0  0  0  0  0  0  0
  137.6280   71.1500  223.9340 C   0  0  0  0  0  0  0  0  0  0  0  0
  136.5610   71.9920  223.9340 N   0  0  0  0  0  0  0  0  0  0  0  0
  135.4060   71.7000  224.5870 C   0  0  0  0  0  0  0  0  0  0  0  0
  134.3650   72.5640  224.5340 N   0  0  0  0  0  0  0  0  0  0  0  0
  133.1910   72.2970  225.1610 C   0  0  0  0  0  0  0  0  0  0  0  0
  132.1470   73.2230  225.0690 C   0  0  0  0  0  0  0  0  0  0  0  0
  132.2817   74.1534  224.4978 H   0  0  0  0  0  0  0  0  0  0  0  0
  130.9370   72.9610  225.7040 C   0  0  0  0  0  0  0  0  0  0  0  0
  130.1109   73.6844  225.6384 H   0  0  0  0  0  0  0  0  0  0  0  0
  130.7760   71.7790  226.4230 C   0  0  0  0  0  0  0  0  0  0  0  0
  129.8226   71.5632  226.9275 H   0  0  0  0  0  0  0  0  0  0  0  0
  131.8330   70.8700  226.4990 C   0  0  0  0  0  0  0  0  0  0  0  0
  131.7063   69.9365  227.0669 H   0  0  0  0  0  0  0  0  0  0  0  0
  133.0290   71.1260  225.8740 N   0  0  0  0  0  0  0  0  0  0  0  0
  134.0670   70.2280  225.9520 C   0  0  0  0  0  0  0  0  0  0  0  0
  133.9330   69.1490  226.5980 O   0  0  0  0  0  0  0  0  0  0  0  0
  135.2850   70.5030  225.3070 C   0  0  0  0  0  0  0  0  0  0  0  0
  136.3750   69.6210  225.3390 C   0  0  0  0  0  0  0  0  0  0  0  0
  136.3104   68.6902  225.9216 H   0  0  0  0  0  0  0  0  0  0  0  0
  137.5460   69.9220  224.6310 C   0  0  0  0  0  0  0  0  0  0  0  0
  138.6230   68.9120  224.5920 C   0  0  0  0  0  0  0  0  0  0  0  0
  138.8210   68.0760  225.5740 N   0  0  0  0  0  0  0  0  0  0  0  0
  139.8590   68.1860  226.6060 C   0  0  2  0  0  0  0  0  0  0  0  0
  139.4680   67.7702  227.5463 H   0  0  0  0  0  0  0  0  0  0  0  0
  140.2250   69.6350  226.8600 C   0  0  0  0  0  0  0  0  0  0  0  0
  139.8380   70.2790  228.0500 C   0  0  0  0  0  0  0  0  0  0  0  0
  139.2232   69.7429  228.7880 H   0  0  0  0  0  0  0  0  0  0  0  0
  140.2320   71.5980  228.2980 C   0  0  0  0  0  0  0  0  0  0  0  0
  139.9298   72.0945  229.2319 H   0  0  0  0  0  0  0  0  0  0  0  0
  141.0080   72.2860  227.3630 C   0  0  0  0  0  0  0  0  0  0  0  0
  141.3223   73.3208  227.5642 H   0  0  0  0  0  0  0  0  0  0  0  0
  141.3850   71.6610  226.1730 C   0  0  0  0  0  0  0  0  0  0  0  0
  141.9922   72.2059  225.4352 H   0  0  0  0  0  0  0  0  0  0  0  0
  140.9920   70.3430  225.9170 C   0  0  0  0  0  0  0  0  0  0  0  0
  141.2841   69.8580  224.9739 H   0  0  0  0  0  0  0  0  0  0  0  0
  141.0910   67.3940  226.1720 C   0  0  0  0  0  0  0  0  0  0  0  0
  141.6346   67.0446  227.0622 H   0  0  0  0  0  0  0  0  0  0  0  0
  140.7771   66.5281  225.5706 H   0  0  0  0  0  0  0  0  0  0  0  0
  141.7485   68.0391  225.5706 H   0  0  0  0  0  0  0  0  0  0  0  0
  139.4660   68.8820  223.4860 O   0  0  0  0  0  0  0  0  0  0  0  0
  139.4070   69.5900  222.7650 H   0  0  0  0  0  0  0  0  0  0  0  0
  1  2  1  0
  2  3  2  0
  3  4  1  0
  4  5  1  0
  5  6  1  0
  6  7  2  0
  7  8  1  0
  8  9  1  0
  8 10  2  0
 10 11  1  0
 10 12  1  0
 12 13  1  0
 12 14  2  0
 14 15  1  0
 14 16  1  0
 16 17  1  0
 17 18  2  0
 17 19  1  0
 19 20  1  0
 20 21  1  0
 20 22  2  0
 22 23  1  0
 23 24  2  0
 24 25  1  0
 25 26  1  1
 25 27  1  0
 27 28  2  0
 28 29  1  0
 28 30  1  0
 30 31  1  0
 30 32  2  0
 32 33  1  0
 32 34  1  0
 34 35  1  0
 34 36  2  0
 36 37  1  0
 25 38  1  0
 38 39  1  0
 38 40  1  0
 38 41  1  0
 23 42  1  0
 42 43  1  0
 22  3  1  0
 36 27  1  0
 19  5  2  0
 16  7  1  0
M  CHG  1   4  -1
M  END
>  <UniqueID>  (30) 
32

>  <SMILES>  (30) 
[H]/N=c1/[n-]c2nc3ccccn3c(=O)c2cc1/C(O)=N\[C@@H](C)c1ccccc1

>  <Energy>  (30) 
60.985657862872024

>  <Genealogy>  (30) 
C[C@H](NC(=O)c1cc2c(=O)n3ccccc3nc2[n-]c1=N)c1ccccc1 (protonated)
C[C@H](N=C(O)c1cc2c(=O)n3ccccc3nc2[n-]c1=N)c1ccccc1 (tautomer)
[H]/N=c1/[n-]c2nc3ccccn3c(=O)c2cc1/C(O)=N\[C@@H](C)c1ccccc1 (cis-trans isomerization)
[H]/N=c1/[n-]c2nc3ccccn3c(=O)c2cc1/C(O)=N\[C@@H](C)c1ccccc1 (3D coordinates assigned)
[H]/N=c1/[n-]c2nc3ccccn3c(=O)c2cc1/C(O)=N\[C@@H](C)c1ccccc1 (optimized conformer: 60.985657862872024 kcal/mol)

>  <smiles>  (30) 
C[C@H](NC(=O)c1cc2c(=O)n3ccccc3nc2[nH]c1=N)c1ccccc1

>  <score_type>  (30) 
oracle

>  <origin>  (30) 
autodockgpu

>  <m_score__min__energy>  (30) 
-7.6799999999999997

>  <m_primary>  (30) 
energy

>  <meeko>  (30) 
{"free_energy": -6.72, "intermolecular_energy": -8.51, "internal_energy": -1.95, "cluster_size": 1, "cluster_id": 3, "rank_in_cluster": 1}

>  <energy>  (30) 
-7.46

>  <cluster_rmsd>  (30) 
0.4

>  <rmsd>  (30) 
271.63

>  <cluster>  (30) 
1

$$$$
HDANWICVGDYKAH-VJHPIRKKNA-M
     RDKit          3D

 43 46  0  0  0  0  0  0  0  0999 V2000
  136.4000   77.2410  223.4560 H   0  0  0  0  0  0  0  0  0  0  0  0
  136.9770   76.4290  223.1420 N   0  0  0  0  0  0  0  0  0  0  0  0
  138.0980   76.5470  222.4980 C   0  0  0  0  0  0  0  0  0  0  0  0
  138.9000   75.4560  222.3800 N   0  0  0  0  0  0  0  0  0  0  0  0
  140.0890   75.4970  221.7230 C   0  0  0  0  0  0  0  0  0  0  0  0
  140.8370   74.3750  221.6140 N   0  0  0  0  0  0  0  0  0  0  0  0
  142.0220   74.3750  220.9520 C   0  0  0  0  0  0  0  0  0  0  0  0
  142.7530   73.1850  220.8670 C   0  0  0  0  0  0  0  0  0  0  0  0
  142.3699   72.2659  221.3344 H   0  0  0  0  0  0  0  0  0  0  0  0
  143.9670   73.1710  220.1880 C   0  0  0  0  0  0  0  0  0  0  0  0
  144.5488   72.2402  220.1168 H   0  0  0  0  0  0  0  0  0  0  0  0
  144.4430   74.3390  219.5990 C   0  0  0  0  0  0  0  0  0  0  0  0
  145.4015   74.3364  219.0594 H   0  0  0  0  0  0  0  0  0  0  0  0
  143.6950   75.5140  219.6980 C   0  0  0  0  0  0  0  0  0  0  0  0
  144.0707   76.4374  219.2330 H   0  0  0  0  0  0  0  0  0  0  0  0
  142.4970   75.5320  220.3680 N   0  0  0  0  0  0  0  0  0  0  0  0
  141.7640   76.6920  220.4620 C   0  0  0  0  0  0  0  0  0  0  0  0
  142.1820   77.7600  219.9280 O   0  0  0  0  0  0  0  0  0  0  0  0
  140.5390   76.6950  221.1500 C   0  0  0  0  0  0  0  0  0  0  0  0
  139.7400   77.8420  221.2690 C   0  0  0  0  0  0  0  0  0  0  0  0
  140.0873   78.7979  220.8499 H   0  0  0  0  0  0  0  0  0  0  0  0
  138.5010   77.7740  221.9200 C   0  0  0  0  0  0  0  0  0  0  0  0
  137.6390   78.9730  221.9170 C   0  0  0  0  0  0  0  0  0  0  0  0
  138.1340   80.1790  221.8930 N   0  0  0  0  0  0  0  0  0  0  0  0
  138.8030   80.8610  223.0080 C   0  0  2  0  0  0  0  0  0  0  0  0
  138.7378   81.9473  222.8478 H   0  0  0  0  0  0  0  0  0  0  0  0
  140.2720   80.4910  223.0720 C   0  0  0  0  0  0  0  0  0  0  0  0
  140.7080   79.3970  223.8420 C   0  0  0  0  0  0  0  0  0  0  0  0
  139.9838   78.8275  224.4430 H   0  0  0  0  0  0  0  0  0  0  0  0
  142.0580   79.0300  223.8470 C   0  0  0  0  0  0  0  0  0  0  0  0
  142.3913   78.1706  224.4473 H   0  0  0  0  0  0  0  0  0  0  0  0
  142.9830   79.7530  223.0910 C   0  0  0  0  0  0  0  0  0  0  0  0
  144.0428   79.4582  223.0909 H   0  0  0  0  0  0  0  0  0  0  0  0
  142.5640   80.8500  222.3350 C   0  0  0  0  0  0  0  0  0  0  0  0
  143.2951   81.4214  221.7443 H   0  0  0  0  0  0  0  0  0  0  0  0
  141.2160   81.2230  222.3280 C   0  0  0  0  0  0  0  0  0  0  0  0
  140.8921   82.0930  221.7379 H   0  0  0  0  0  0  0  0  0  0  0  0
  138.1060   80.4950  224.3170 C   0  0  0  0  0  0  0  0  0  0  0  0
  138.7256   80.8203  225.1657 H   0  0  0  0  0  0  0  0  0  0  0  0
  137.1277   80.9957  224.3640 H   0  0  0  0  0  0  0  0  0  0  0  0
  137.9628   79.4054  224.3640 H   0  0  0  0  0  0  0  0  0  0  0  0
  136.2590   78.8000  221.9760 O   0  0  0  0  0  0  0  0  0  0  0  0
  135.8550   77.8940  222.1820 H   0  0  0  0  0  0  0  0  0  0  0  0
  1  2  1  0
  2  3  2  0
  3  4  1  0
  4  5  1  0
  5  6  1  0
  6  7  2  0
  7  8  1  0
  8  9  1  0
  8 10  2  0
 10 11  1  0
 10 12  1  0
 12 13  1  0
 12 14  2  0
 14 15  1  0
 14 16  1  0
 16 17  1  0
 17 18  2  0
 17 19  1  0
 19 20  1  0
 20 21  1  0
 20 22  2  0
 22 23  1  0
 23 24  2  0
 24 25  1  0
 25 26  1  6
 25 27  1  0
 27 28  2  0
 28 29  1  0
 28 30  1  0
 30 31  1  0
 30 32  2  0
 32 33  1  0
 32 34  1  0
 34 35  1  0
 34 36  2  0
 36 37  1  0
 25 38  1  0
 38 39  1  0
 38 40  1  0
 38 41  1  0
 23 42  1  0
 42 43  1  0
 22  3  1  0
 36 27  1  0
 19  5  2  0
 16  7  1  0
M  CHG  1   4  -1
M  END
>  <UniqueID>  (31) 
32

>  <SMILES>  (31) 
[H]/N=c1/[n-]c2nc3ccccn3c(=O)c2cc1/C(O)=N\[C@@H](C)c1ccccc1

>  <Energy>  (31) 
60.985657862872024

>  <Genealogy>  (31) 
C[C@H](NC(=O)c1cc2c(=O)n3ccccc3nc2[n-]c1=N)c1ccccc1 (protonated)
C[C@H](N=C(O)c1cc2c(=O)n3ccccc3nc2[n-]c1=N)c1ccccc1 (tautomer)
[H]/N=c1/[n-]c2nc3ccccn3c(=O)c2cc1/C(O)=N\[C@@H](C)c1ccccc1 (cis-trans isomerization)
[H]/N=c1/[n-]c2nc3ccccn3c(=O)c2cc1/C(O)=N\[C@@H](C)c1ccccc1 (3D coordinates assigned)
[H]/N=c1/[n-]c2nc3ccccn3c(=O)c2cc1/C(O)=N\[C@@H](C)c1ccccc1 (optimized conformer: 60.985657862872024 kcal/mol)

>  <smiles>  (31) 
C[C@H](NC(=O)c1cc2c(=O)n3ccccc3nc2[nH]c1=N)c1ccccc1

>  <score_type>  (31) 
oracle

>  <origin>  (31) 
autodockgpu

>  <m_score__min__energy>  (31) 
-7.6799999999999997

>  <m_primary>  (31) 
energy

>  <meeko>  (31) 
{"free_energy": -5.94, "intermolecular_energy": -7.73, "internal_energy": -2.4, "cluster_size": 4, "cluster_id": 5, "rank_in_cluster": 2}

>  <energy>  (31) 
-6.6

>  <cluster_rmsd>  (31) 
1.45

>  <rmsd>  (31) 
271.52

>  <cluster>  (31) 
1

$$$$
HDANWICVGDYKAH-VJHPIRKKNA-M
     RDKit          3D

 43 46  0  0  0  0  0  0  0  0999 V2000
  134.5340   68.3010  226.1950 H   0  0  0  0  0  0  0  0  0  0  0  0
  133.8600   69.0550  226.4550 N   0  0  0  0  0  0  0  0  0  0  0  0
  134.0480   70.3120  226.1900 C   0  0  0  0  0  0  0  0  0  0  0  0
  133.3000   71.2360  226.8490 N   0  0  0  0  0  0  0  0  0  0  0  0
  133.4350   72.5700  226.6290 C   0  0  0  0  0  0  0  0  0  0  0  0
  132.6810   73.4480  227.3310 N   0  0  0  0  0  0  0  0  0  0  0  0
  132.8000   74.7880  227.1480 C   0  0  0  0  0  0  0  0  0  0  0  0
  131.9980   75.6500  227.9040 C   0  0  0  0  0  0  0  0  0  0  0  0
  131.2811   75.2427  228.6321 H   0  0  0  0  0  0  0  0  0  0  0  0
  132.1130   77.0260  227.7290 C   0  0  0  0  0  0  0  0  0  0  0  0
  131.4870   77.7118  228.3188 H   0  0  0  0  0  0  0  0  0  0  0  0
  133.0230   77.5310  226.8050 C   0  0  0  0  0  0  0  0  0  0  0  0
  133.1200   78.6171  226.6602 H   0  0  0  0  0  0  0  0  0  0  0  0
  133.8120   76.6500  226.0630 C   0  0  0  0  0  0  0  0  0  0  0  0
  134.5315   77.0494  225.3331 H   0  0  0  0  0  0  0  0  0  0  0  0
  133.7020   75.2920  226.2320 N   0  0  0  0  0  0  0  0  0  0  0  0
  134.4810   74.4280  225.4990 C   0  0  0  0  0  0  0  0  0  0  0  0
  135.3150   74.8740  224.6600 O   0  0  0  0  0  0  0  0  0  0  0  0
  134.3570   73.0410  225.6840 C   0  0  0  0  0  0  0  0  0  0  0  0
  135.1330   72.1100  224.9760 C   0  0  0  0  0  0  0  0  0  0  0  0
  135.8434   72.4568  224.2111 H   0  0  0  0  0  0  0  0  0  0  0  0
  135.0050   70.7400  225.2410 C   0  0  0  0  0  0  0  0  0  0  0  0
  135.9250   69.8050  224.5610 C   0  0  0  0  0  0  0  0  0  0  0  0
  137.1300   70.1550  224.2090 N   0  0  0  0  0  0  0  0  0  0  0  0
  138.3450   69.3450  224.3620 C   0  0  2  0  0  0  0  0  0  0  0  0
  138.0532   68.3142  224.6115 H   0  0  0  0  0  0  0  0  0  0  0  0
  139.2100   69.8650  225.4930 C   0  0  0  0  0  0  0  0  0  0  0  0
  139.9890   71.0250  225.3310 C   0  0  0  0  0  0  0  0  0  0  0  0
  140.0090   71.5401  224.3592 H   0  0  0  0  0  0  0  0  0  0  0  0
  140.7380   71.5260  226.4000 C   0  0  0  0  0  0  0  0  0  0  0  0
  141.3418   72.4359  226.2676 H   0  0  0  0  0  0  0  0  0  0  0  0
  140.7220   70.8750  227.6350 C   0  0  0  0  0  0  0  0  0  0  0  0
  141.3062   71.2764  228.4762 H   0  0  0  0  0  0  0  0  0  0  0  0
  139.9640   69.7140  227.8020 C   0  0  0  0  0  0  0  0  0  0  0  0
  139.9561   69.1983  228.7736 H   0  0  0  0  0  0  0  0  0  0  0  0
  139.2150   69.2060  226.7360 C   0  0  0  0  0  0  0  0  0  0  0  0
  138.6266   68.2863  226.8700 H   0  0  0  0  0  0  0  0  0  0  0  0
  139.1260   69.3510  223.0490 C   0  0  0  0  0  0  0  0  0  0  0  0
  140.2047   69.3593  223.2641 H   0  0  0  0  0  0  0  0  0  0  0  0
  138.8747   68.4509  222.4688 H   0  0  0  0  0  0  0  0  0  0  0  0
  138.8609   70.2471  222.4688 H   0  0  0  0  0  0  0  0  0  0  0  0
  135.4690   68.5240  224.2640 O   0  0  0  0  0  0  0  0  0  0  0  0
  134.5740   68.1960  224.6060 H   0  0  0  0  0  0  0  0  0  0  0  0
  1  2  1  0
  2  3  2  0
  3  4  1  0
  4  5  1  0
  5  6  1  0
  6  7  2  0
  7  8  1  0
  8  9  1  0
  8 10  2  0
 10 11  1  0
 10 12  1  0
 12 13  1  0
 12 14  2  0
 14 15  1  0
 14 16  1  0
 16 17  1  0
 17 18  2  0
 17 19  1  0
 19 20  1  0
 20 21  1  0
 20 22  2  0
 22 23  1  0
 23 24  2  0
 24 25  1  0
 25 26  1  1
 25 27  1  0
 27 28  2  0
 28 29  1  0
 28 30  1  0
 30 31  1  0
 30 32  2  0
 32 33  1  0
 32 34  1  0
 34 35  1  0
 34 36  2  0
 36 37  1  0
 25 38  1  0
 38 39  1  0
 38 40  1  0
 38 41  1  0
 23 42  1  0
 42 43  1  0
 22  3  1  0
 36 27  1  0
 19  5  2  0
 16  7  1  0
M  CHG  1   4  -1
M  END
>  <UniqueID>  (32) 
32

>  <SMILES>  (32) 
[H]/N=c1/[n-]c2nc3ccccn3c(=O)c2cc1/C(O)=N\[C@@H](C)c1ccccc1

>  <Energy>  (32) 
60.985657862872024

>  <Genealogy>  (32) 
C[C@H](NC(=O)c1cc2c(=O)n3ccccc3nc2[n-]c1=N)c1ccccc1 (protonated)
C[C@H](N=C(O)c1cc2c(=O)n3ccccc3nc2[n-]c1=N)c1ccccc1 (tautomer)
[H]/N=c1/[n-]c2nc3ccccn3c(=O)c2cc1/C(O)=N\[C@@H](C)c1ccccc1 (cis-trans isomerization)
[H]/N=c1/[n-]c2nc3ccccn3c(=O)c2cc1/C(O)=N\[C@@H](C)c1ccccc1 (3D coordinates assigned)
[H]/N=c1/[n-]c2nc3ccccn3c(=O)c2cc1/C(O)=N\[C@@H](C)c1ccccc1 (optimized conformer: 60.985657862872024 kcal/mol)

>  <smiles>  (32) 
C[C@H](NC(=O)c1cc2c(=O)n3ccccc3nc2[nH]c1=N)c1ccccc1

>  <score_type>  (32) 
oracle

>  <origin>  (32) 
autodockgpu

>  <m_score__min__energy>  (32) 
-7.6799999999999997

>  <m_primary>  (32) 
energy

>  <meeko>  (32) 
{"free_energy": -7.55, "intermolecular_energy": -9.34, "internal_energy": -1.64, "cluster_size": 11, "cluster_id": 1, "rank_in_cluster": 8}

>  <energy>  (32) 
-6.87

>  <cluster_rmsd>  (32) 
0.0

>  <rmsd>  (32) 
272.18

>  <cluster>  (32) 
2

$$$$
HDANWICVGDYKAH-VJHPIRKKNA-M
     RDKit          3D

 43 46  0  0  0  0  0  0  0  0999 V2000
  134.4230   68.2840  226.1520 H   0  0  0  0  0  0  0  0  0  0  0  0
  133.7890   69.0510  226.4690 N   0  0  0  0  0  0  0  0  0  0  0  0
  133.9850   70.3060  226.2020 C   0  0  0  0  0  0  0  0  0  0  0  0
  133.2360   71.2360  226.8520 N   0  0  0  0  0  0  0  0  0  0  0  0
  133.3790   72.5690  226.6280 C   0  0  0  0  0  0  0  0  0  0  0  0
  132.6240   73.4520  227.3210 N   0  0  0  0  0  0  0  0  0  0  0  0
  132.7500   74.7910  227.1340 C   0  0  0  0  0  0  0  0  0  0  0  0
  131.9470   75.6600  227.8800 C   0  0  0  0  0  0  0  0  0  0  0  0
  131.2229   75.2589  228.6044 H   0  0  0  0  0  0  0  0  0  0  0  0
  132.0690   77.0340  227.7010 C   0  0  0  0  0  0  0  0  0  0  0  0
  131.4407   77.7244  228.2828 H   0  0  0  0  0  0  0  0  0  0  0  0
  132.9890   77.5320  226.7830 C   0  0  0  0  0  0  0  0  0  0  0  0
  133.0925   78.6172  226.6357 H   0  0  0  0  0  0  0  0  0  0  0  0
  133.7800   76.6440  226.0500 C   0  0  0  0  0  0  0  0  0  0  0  0
  134.5072   77.0372  225.3244 H   0  0  0  0  0  0  0  0  0  0  0  0
  133.6620   75.2870  226.2230 N   0  0  0  0  0  0  0  0  0  0  0  0
  134.4420   74.4180  225.4990 C   0  0  0  0  0  0  0  0  0  0  0  0
  135.2850   74.8560  224.6650 O   0  0  0  0  0  0  0  0  0  0  0  0
  134.3110   73.0310  225.6880 C   0  0  0  0  0  0  0  0  0  0  0  0
  135.0870   72.0940  224.9900 C   0  0  0  0  0  0  0  0  0  0  0  0
  135.8046   72.4345  224.2290 H   0  0  0  0  0  0  0  0  0  0  0  0
  134.9510   70.7260  225.2590 C   0  0  0  0  0  0  0  0  0  0  0  0
  135.8710   69.7840  224.5890 C   0  0  0  0  0  0  0  0  0  0  0  0
  137.1010   70.1080  224.2990 N   0  0  0  0  0  0  0  0  0  0  0  0
  138.2890   69.2740  224.5180 C   0  0  2  0  0  0  0  0  0  0  0  0
  137.9642   68.2744  224.8425 H   0  0  0  0  0  0  0  0  0  0  0  0
  139.1670   69.8500  225.6110 C   0  0  0  0  0  0  0  0  0  0  0  0
  139.9320   71.0090  225.3860 C   0  0  0  0  0  0  0  0  0  0  0  0
  139.9308   71.4811  224.3925 H   0  0  0  0  0  0  0  0  0  0  0  0
  140.6940   71.5640  226.4190 C   0  0  0  0  0  0  0  0  0  0  0  0
  141.2864   72.4729  226.2372 H   0  0  0  0  0  0  0  0  0  0  0  0
  140.7040   70.9660  227.6810 C   0  0  0  0  0  0  0  0  0  0  0  0
  141.2975   71.4089  228.4944 H   0  0  0  0  0  0  0  0  0  0  0  0
  139.9610   69.8060  227.9110 C   0  0  0  0  0  0  0  0  0  0  0  0
  139.9746   69.3330  228.9040 H   0  0  0  0  0  0  0  0  0  0  0  0
  139.2000   69.2450  226.8810 C   0  0  0  0  0  0  0  0  0  0  0  0
  138.6241   68.3259  227.0644 H   0  0  0  0  0  0  0  0  0  0  0  0
  139.0730   69.1570  223.2120 C   0  0  0  0  0  0  0  0  0  0  0  0
  140.1380   68.9981  223.4367 H   0  0  0  0  0  0  0  0  0  0  0  0
  138.6902   68.3060  222.6295 H   0  0  0  0  0  0  0  0  0  0  0  0
  138.9553   70.0827  222.6295 H   0  0  0  0  0  0  0  0  0  0  0  0
  135.3920   68.5270  224.2330 O   0  0  0  0  0  0  0  0  0  0  0  0
  134.5300   68.1670  224.6240 H   0  0  0  0  0  0  0  0  0  0  0  0
  1  2  1  0
  2  3  2  0
  3  4  1  0
  4  5  1  0
  5  6  1  0
  6  7  2  0
  7  8  1  0
  8  9  1  0
  8 10  2  0
 10 11  1  0
 10 12  1  0
 12 13  1  0
 12 14  2  0
 14 15  1  0
 14 16  1  0
 16 17  1  0
 17 18  2  0
 17 19  1  0
 19 20  1  0
 20 21  1  0
 20 22  2  0
 22 23  1  0
 23 24  2  0
 24 25  1  0
 25 26  1  1
 25 27  1  0
 27 28  2  0
 28 29  1  0
 28 30  1  0
 30 31  1  0
 30 32  2  0
 32 33  1  0
 32 34  1  0
 34 35  1  0
 34 36  2  0
 36 37  1  0
 25 38  1  0
 38 39  1  0
 38 40  1  0
 38 41  1  0
 23 42  1  0
 42 43  1  0
 22  3  1  0
 36 27  1  0
 19  5  2  0
 16  7  1  0
M  CHG  1   4  -1
M  END
>  <UniqueID>  (33) 
32

>  <SMILES>  (33) 
[H]/N=c1/[n-]c2nc3ccccn3c(=O)c2cc1/C(O)=N\[C@@H](C)c1ccccc1

>  <Energy>  (33) 
60.985657862872024

>  <Genealogy>  (33) 
C[C@H](NC(=O)c1cc2c(=O)n3ccccc3nc2[n-]c1=N)c1ccccc1 (protonated)
C[C@H](N=C(O)c1cc2c(=O)n3ccccc3nc2[n-]c1=N)c1ccccc1 (tautomer)
[H]/N=c1/[n-]c2nc3ccccn3c(=O)c2cc1/C(O)=N\[C@@H](C)c1ccccc1 (cis-trans isomerization)
[H]/N=c1/[n-]c2nc3ccccn3c(=O)c2cc1/C(O)=N\[C@@H](C)c1ccccc1 (3D coordinates assigned)
[H]/N=c1/[n-]c2nc3ccccn3c(=O)c2cc1/C(O)=N\[C@@H](C)c1ccccc1 (optimized conformer: 60.985657862872024 kcal/mol)

>  <smiles>  (33) 
C[C@H](NC(=O)c1cc2c(=O)n3ccccc3nc2[nH]c1=N)c1ccccc1

>  <score_type>  (33) 
oracle

>  <origin>  (33) 
autodockgpu

>  <m_score__min__energy>  (33) 
-7.6799999999999997

>  <m_primary>  (33) 
energy

>  <meeko>  (33) 
{"free_energy": -7.6, "intermolecular_energy": -9.39, "internal_energy": -1.62, "cluster_size": 11, "cluster_id": 1, "rank_in_cluster": 4}

>  <energy>  (33) 
-6.86

>  <cluster_rmsd>  (33) 
0.09

>  <rmsd>  (33) 
272.17

>  <cluster>  (33) 
2

$$$$
HDANWICVGDYKAH-VJHPIRKKNA-M
     RDKit          3D

 43 46  0  0  0  0  0  0  0  0999 V2000
  134.1040   68.2210  226.0180 H   0  0  0  0  0  0  0  0  0  0  0  0
  133.5860   69.0200  226.4450 N   0  0  0  0  0  0  0  0  0  0  0  0
  133.8490   70.2670  226.1950 C   0  0  0  0  0  0  0  0  0  0  0  0
  133.1310   71.2260  226.8370 N   0  0  0  0  0  0  0  0  0  0  0  0
  133.3430   72.5520  226.6290 C   0  0  0  0  0  0  0  0  0  0  0  0
  132.6160   73.4650  227.3150 N   0  0  0  0  0  0  0  0  0  0  0  0
  132.8110   74.7980  227.1440 C   0  0  0  0  0  0  0  0  0  0  0  0
  132.0350   75.6980  227.8810 C   0  0  0  0  0  0  0  0  0  0  0  0
  131.2768   75.3261  228.5859 H   0  0  0  0  0  0  0  0  0  0  0  0
  132.2270   77.0670  227.7180 C   0  0  0  0  0  0  0  0  0  0  0  0
  131.6201   77.7822  228.2926 H   0  0  0  0  0  0  0  0  0  0  0  0
  133.1900   77.5270  226.8250 C   0  0  0  0  0  0  0  0  0  0  0  0
  133.3493   78.6070  226.6902 H   0  0  0  0  0  0  0  0  0  0  0  0
  133.9530   76.6080  226.1010 C   0  0  0  0  0  0  0  0  0  0  0  0
  134.7143   76.9718  225.3952 H   0  0  0  0  0  0  0  0  0  0  0  0
  133.7660   75.2570  226.2580 N   0  0  0  0  0  0  0  0  0  0  0  0
  134.5200   74.3570  225.5430 C   0  0  0  0  0  0  0  0  0  0  0  0
  135.4010   74.7620  224.7320 O   0  0  0  0  0  0  0  0  0  0  0  0
  134.3170   72.9770  225.7150 C   0  0  0  0  0  0  0  0  0  0  0  0
  135.0630   72.0100  225.0250 C   0  0  0  0  0  0  0  0  0  0  0  0
  135.8135   72.3223  224.2839 H   0  0  0  0  0  0  0  0  0  0  0  0
  134.8550   70.6480  225.2770 C   0  0  0  0  0  0  0  0  0  0  0  0
  135.7430   69.6680  224.6190 C   0  0  0  0  0  0  0  0  0  0  0  0
  137.0130   69.9030  224.4340 N   0  0  0  0  0  0  0  0  0  0  0  0
  138.1190   69.0140  224.8100 C   0  0  2  0  0  0  0  0  0  0  0  0
  137.7100   68.1584  225.3674 H   0  0  0  0  0  0  0  0  0  0  0  0
  139.1080   69.7250  225.7140 C   0  0  0  0  0  0  0  0  0  0  0  0
  139.8440   70.8290  225.2490 C   0  0  0  0  0  0  0  0  0  0  0  0
  139.7386   71.1570  224.2043 H   0  0  0  0  0  0  0  0  0  0  0  0
  140.7100   71.5120  226.1100 C   0  0  0  0  0  0  0  0  0  0  0  0
  141.2796   72.3779  225.7417 H   0  0  0  0  0  0  0  0  0  0  0  0
  140.8530   71.0970  227.4360 C   0  0  0  0  0  0  0  0  0  0  0  0
  141.5290   71.6401  228.1128 H   0  0  0  0  0  0  0  0  0  0  0  0
  140.1370   69.9920  227.9020 C   0  0  0  0  0  0  0  0  0  0  0  0
  140.2543   69.6624  228.9449 H   0  0  0  0  0  0  0  0  0  0  0  0
  139.2720   69.3040  227.0470 C   0  0  0  0  0  0  0  0  0  0  0  0
  138.7168   68.4296  227.4173 H   0  0  0  0  0  0  0  0  0  0  0  0
  138.8190   68.5130  223.5480 C   0  0  0  0  0  0  0  0  0  0  0  0
  139.6837   67.8941  223.8295 H   0  0  0  0  0  0  0  0  0  0  0  0
  138.1159   67.9117  222.9529 H   0  0  0  0  0  0  0  0  0  0  0  0
  139.1614   69.3724  222.9529 H   0  0  0  0  0  0  0  0  0  0  0  0
  135.1920   68.4770  224.1570 O   0  0  0  0  0  0  0  0  0  0  0  0
  134.3480   68.0970  224.5700 H   0  0  0  0  0  0  0  0  0  0  0  0
  1  2  1  0
  2  3  2  0
  3  4  1  0
  4  5  1  0
  5  6  1  0
  6  7  2  0
  7  8  1  0
  8  9  1  0
  8 10  2  0
 10 11  1  0
 10 12  1  0
 12 13  1  0
 12 14  2  0
 14 15  1  0
 14 16  1  0
 16 17  1  0
 17 18  2  0
 17 19  1  0
 19 20  1  0
 20 21  1  0
 20 22  2  0
 22 23  1  0
 23 24  2  0
 24 25  1  0
 25 26  1  1
 25 27  1  0
 27 28  2  0
 28 29  1  0
 28 30  1  0
 30 31  1  0
 30 32  2  0
 32 33  1  0
 32 34  1  0
 34 35  1  0
 34 36  2  0
 36 37  1  0
 25 38  1  0
 38 39  1  0
 38 40  1  0
 38 41  1  0
 23 42  1  0
 42 43  1  0
 22  3  1  0
 36 27  1  0
 19  5  2  0
 16  7  1  0
M  CHG  1   4  -1
M  END
>  <UniqueID>  (34) 
32

>  <SMILES>  (34) 
[H]/N=c1/[n-]c2nc3ccccn3c(=O)c2cc1/C(O)=N\[C@@H](C)c1ccccc1

>  <Energy>  (34) 
60.985657862872024

>  <Genealogy>  (34) 
C[C@H](NC(=O)c1cc2c(=O)n3ccccc3nc2[n-]c1=N)c1ccccc1 (protonated)
C[C@H](N=C(O)c1cc2c(=O)n3ccccc3nc2[n-]c1=N)c1ccccc1 (tautomer)
[H]/N=c1/[n-]c2nc3ccccn3c(=O)c2cc1/C(O)=N\[C@@H](C)c1ccccc1 (cis-trans isomerization)
[H]/N=c1/[n-]c2nc3ccccn3c(=O)c2cc1/C(O)=N\[C@@H](C)c1ccccc1 (3D coordinates assigned)
[H]/N=c1/[n-]c2nc3ccccn3c(=O)c2cc1/C(O)=N\[C@@H](C)c1ccccc1 (optimized conformer: 60.985657862872024 kcal/mol)

>  <smiles>  (34) 
C[C@H](NC(=O)c1cc2c(=O)n3ccccc3nc2[nH]c1=N)c1ccccc1

>  <score_type>  (34) 
oracle

>  <origin>  (34) 
autodockgpu

>  <m_score__min__energy>  (34) 
-7.6799999999999997

>  <m_primary>  (34) 
energy

>  <meeko>  (34) 
{"free_energy": -7.68, "intermolecular_energy": -9.47, "internal_energy": -1.56, "cluster_size": 11, "cluster_id": 1, "rank_in_cluster": 1}

>  <energy>  (34) 
-6.72

>  <cluster_rmsd>  (34) 
0.0

>  <rmsd>  (34) 
271.6

>  <cluster>  (34) 
3

$$$$
HDANWICVGDYKAH-VJHPIRKKNA-M
     RDKit          3D

 43 46  0  0  0  0  0  0  0  0999 V2000
  133.8880   68.3130  225.7400 H   0  0  0  0  0  0  0  0  0  0  0  0
  133.9130   69.0630  226.4660 N   0  0  0  0  0  0  0  0  0  0  0  0
  134.0820   70.3210  226.1970 C   0  0  0  0  0  0  0  0  0  0  0  0
  133.3370   71.2380  226.8700 N   0  0  0  0  0  0  0  0  0  0  0  0
  133.4530   72.5730  226.6460 C   0  0  0  0  0  0  0  0  0  0  0  0
  132.7030   73.4430  227.3630 N   0  0  0  0  0  0  0  0  0  0  0  0
  132.8040   74.7840  227.1770 C   0  0  0  0  0  0  0  0  0  0  0  0
  132.0090   75.6380  227.9480 C   0  0  0  0  0  0  0  0  0  0  0  0
  131.3125   75.2237  228.6918 H   0  0  0  0  0  0  0  0  0  0  0  0
  132.1040   77.0150  227.7690 C   0  0  0  0  0  0  0  0  0  0  0  0
  131.4809   77.6943  228.3693 H   0  0  0  0  0  0  0  0  0  0  0  0
  132.9910   77.5290  226.8270 C   0  0  0  0  0  0  0  0  0  0  0  0
  133.0742   78.6160  226.6803 H   0  0  0  0  0  0  0  0  0  0  0  0
  133.7740   76.6560  226.0700 C   0  0  0  0  0  0  0  0  0  0  0  0
  134.4740   77.0621  225.3250 H   0  0  0  0  0  0  0  0  0  0  0  0
  133.6820   75.2970  226.2430 N   0  0  0  0  0  0  0  0  0  0  0  0
  134.4560   74.4410  225.4950 C   0  0  0  0  0  0  0  0  0  0  0  0
  135.2680   74.8950  224.6390 O   0  0  0  0  0  0  0  0  0  0  0  0
  134.3510   73.0520  225.6830 C   0  0  0  0  0  0  0  0  0  0  0  0
  135.1220   72.1300  224.9600 C   0  0  0  0  0  0  0  0  0  0  0  0
  135.8122   72.4840  224.1801 H   0  0  0  0  0  0  0  0  0  0  0  0
  135.0150   70.7590  225.2290 C   0  0  0  0  0  0  0  0  0  0  0  0
  135.9310   69.8330  224.5320 C   0  0  0  0  0  0  0  0  0  0  0  0
  137.0870   70.2230  224.0690 N   0  0  0  0  0  0  0  0  0  0  0  0
  138.3510   69.4840  224.1710 C   0  0  2  0  0  0  0  0  0  0  0  0
  138.1260   68.4171  224.3165 H   0  0  0  0  0  0  0  0  0  0  0  0
  139.1620   69.9520  225.3640 C   0  0  0  0  0  0  0  0  0  0  0  0
  139.1600   69.2250  226.5680 C   0  0  0  0  0  0  0  0  0  0  0  0
  138.5285   68.3297  226.6659 H   0  0  0  0  0  0  0  0  0  0  0  0
  139.9570   69.6350  227.6410 C   0  0  0  0  0  0  0  0  0  0  0  0
  139.9535   69.0597  228.5786 H   0  0  0  0  0  0  0  0  0  0  0  0
  140.7580   70.7740  227.5250 C   0  0  0  0  0  0  0  0  0  0  0  0
  141.3903   71.0898  228.3679 H   0  0  0  0  0  0  0  0  0  0  0  0
  140.7560   71.5110  226.3400 C   0  0  0  0  0  0  0  0  0  0  0  0
  141.3826   72.4108  226.2522 H   0  0  0  0  0  0  0  0  0  0  0  0
  139.9590   71.1080  225.2640 C   0  0  0  0  0  0  0  0  0  0  0  0
  139.9548   71.6971  224.3351 H   0  0  0  0  0  0  0  0  0  0  0  0
  139.1500   69.6660  222.8810 C   0  0  0  0  0  0  0  0  0  0  0  0
  140.1952   69.9041  223.1276 H   0  0  0  0  0  0  0  0  0  0  0  0
  139.1144   68.7367  222.2935 H   0  0  0  0  0  0  0  0  0  0  0  0
  138.7154   70.4882  222.2935 H   0  0  0  0  0  0  0  0  0  0  0  0
  135.5250   68.5160  224.3400 O   0  0  0  0  0  0  0  0  0  0  0  0
  134.5900   68.2160  224.5890 H   0  0  0  0  0  0  0  0  0  0  0  0
  1  2  1  0
  2  3  2  0
  3  4  1  0
  4  5  1  0
  5  6  1  0
  6  7  2  0
  7  8  1  0
  8  9  1  0
  8 10  2  0
 10 11  1  0
 10 12  1  0
 12 13  1  0
 12 14  2  0
 14 15  1  0
 14 16  1  0
 16 17  1  0
 17 18  2  0
 17 19  1  0
 19 20  1  0
 20 21  1  0
 20 22  2  0
 22 23  1  0
 23 24  2  0
 24 25  1  0
 25 26  1  1
 25 27  1  0
 27 28  2  0
 28 29  1  0
 28 30  1  0
 30 31  1  0
 30 32  2  0
 32 33  1  0
 32 34  1  0
 34 35  1  0
 34 36  2  0
 36 37  1  0
 25 38  1  0
 38 39  1  0
 38 40  1  0
 38 41  1  0
 23 42  1  0
 42 43  1  0
 22  3  1  0
 36 27  1  0
 19  5  2  0
 16  7  1  0
M  CHG  1   4  -1
M  END
>  <UniqueID>  (35) 
32

>  <SMILES>  (35) 
[H]/N=c1/[n-]c2nc3ccccn3c(=O)c2cc1/C(O)=N\[C@@H](C)c1ccccc1

>  <Energy>  (35) 
60.985657862872024

>  <Genealogy>  (35) 
C[C@H](NC(=O)c1cc2c(=O)n3ccccc3nc2[n-]c1=N)c1ccccc1 (protonated)
C[C@H](N=C(O)c1cc2c(=O)n3ccccc3nc2[n-]c1=N)c1ccccc1 (tautomer)
[H]/N=c1/[n-]c2nc3ccccn3c(=O)c2cc1/C(O)=N\[C@@H](C)c1ccccc1 (cis-trans isomerization)
[H]/N=c1/[n-]c2nc3ccccn3c(=O)c2cc1/C(O)=N\[C@@H](C)c1ccccc1 (3D coordinates assigned)
[H]/N=c1/[n-]c2nc3ccccn3c(=O)c2cc1/C(O)=N\[C@@H](C)c1ccccc1 (optimized conformer: 60.985657862872024 kcal/mol)

>  <smiles>  (35) 
C[C@H](NC(=O)c1cc2c(=O)n3ccccc3nc2[nH]c1=N)c1ccccc1

>  <score_type>  (35) 
oracle

>  <origin>  (35) 
autodockgpu

>  <m_score__min__energy>  (35) 
-7.6799999999999997

>  <m_primary>  (35) 
energy

>  <meeko>  (35) 
{"free_energy": -7.46, "intermolecular_energy": -9.25, "internal_energy": -1.56, "cluster_size": 11, "cluster_id": 1, "rank_in_cluster": 10}

>  <energy>  (35) 
-6.5

>  <cluster_rmsd>  (35) 
0.0

>  <rmsd>  (35) 
271.68

>  <cluster>  (35) 
4

$$$$
HDANWICVGDYKAH-VJHPIRKKNA-M
     RDKit          3D

 43 46  0  0  0  0  0  0  0  0999 V2000
  138.5800   71.5230  220.0650 H   0  0  0  0  0  0  0  0  0  0  0  0
  138.9500   70.7480  220.6580 N   0  0  0  0  0  0  0  0  0  0  0  0
  139.3840   70.9110  221.8700 C   0  0  0  0  0  0  0  0  0  0  0  0
  139.3500   69.8530  222.7230 N   0  0  0  0  0  0  0  0  0  0  0  0
  139.7840   69.9420  224.0080 C   0  0  0  0  0  0  0  0  0  0  0  0
  139.7510   68.8500  224.8070 N   0  0  0  0  0  0  0  0  0  0  0  0
  140.1900   68.8990  226.0910 C   0  0  0  0  0  0  0  0  0  0  0  0
  140.1360   67.7400  226.8710 C   0  0  0  0  0  0  0  0  0  0  0  0
  139.7393   66.8058  226.4469 H   0  0  0  0  0  0  0  0  0  0  0  0
  140.5870   67.7750  228.1870 C   0  0  0  0  0  0  0  0  0  0  0  0
  140.5478   66.8682  228.8084 H   0  0  0  0  0  0  0  0  0  0  0  0
  141.0880   68.9620  228.7140 C   0  0  0  0  0  0  0  0  0  0  0  0
  141.4476   68.9984  229.7529 H   0  0  0  0  0  0  0  0  0  0  0  0
  141.1310   70.1060  227.9150 C   0  0  0  0  0  0  0  0  0  0  0  0
  141.5257   71.0445  228.3315 H   0  0  0  0  0  0  0  0  0  0  0  0
  140.6870   70.0750  226.6160 N   0  0  0  0  0  0  0  0  0  0  0  0
  140.7320   71.2050  225.8330 C   0  0  0  0  0  0  0  0  0  0  0  0
  141.1880   72.2890  226.2980 O   0  0  0  0  0  0  0  0  0  0  0  0
  140.2740   71.1580  224.5050 C   0  0  0  0  0  0  0  0  0  0  0  0
  140.3070   72.2720  223.6530 C   0  0  0  0  0  0  0  0  0  0  0  0
  140.6630   73.2416  224.0314 H   0  0  0  0  0  0  0  0  0  0  0  0
  139.8880   72.1530  222.3220 C   0  0  0  0  0  0  0  0  0  0  0  0
  140.0510   73.3170  221.4270 C   0  0  0  0  0  0  0  0  0  0  0  0
  140.1680   74.5310  221.8890 N   0  0  0  0  0  0  0  0  0  0  0  0
  139.2290   75.6360  221.6610 C   0  0  2  0  0  0  0  0  0  0  0  0
  139.1896   75.8495  220.5826 H   0  0  0  0  0  0  0  0  0  0  0  0
  139.6890   76.8980  222.3650 C   0  0  0  0  0  0  0  0  0  0  0  0
  141.0520   77.1140  222.6420 C   0  0  0  0  0  0  0  0  0  0  0  0
  141.7917   76.3406  222.3876 H   0  0  0  0  0  0  0  0  0  0  0  0
  141.4700   78.3070  223.2390 C   0  0  0  0  0  0  0  0  0  0  0  0
  142.5372   78.4712  223.4493 H   0  0  0  0  0  0  0  0  0  0  0  0
  140.5350   79.2910  223.5690 C   0  0  0  0  0  0  0  0  0  0  0  0
  140.8674   80.2320  224.0317 H   0  0  0  0  0  0  0  0  0  0  0  0
  139.1790   79.0810  223.3120 C   0  0  0  0  0  0  0  0  0  0  0  0
  138.4436   79.8548  223.5774 H   0  0  0  0  0  0  0  0  0  0  0  0
  138.7540   77.8890  222.7180 C   0  0  0  0  0  0  0  0  0  0  0  0
  137.6835   77.7248  222.5255 H   0  0  0  0  0  0  0  0  0  0  0  0
  137.8410   75.2300  222.1530 C   0  0  0  0  0  0  0  0  0  0  0  0
  137.8284   75.2263  223.2529 H   0  0  0  0  0  0  0  0  0  0  0  0
  137.0954   75.9477  221.7802 H   0  0  0  0  0  0  0  0  0  0  0  0
  137.5997   74.2236  221.7802 H   0  0  0  0  0  0  0  0  0  0  0  0
  140.0460   73.1040  220.0520 O   0  0  0  0  0  0  0  0  0  0  0  0
  139.9600   72.1710  219.6690 H   0  0  0  0  0  0  0  0  0  0  0  0
  1  2  1  0
  2  3  2  0
  3  4  1  0
  4  5  1  0
  5  6  1  0
  6  7  2  0
  7  8  1  0
  8  9  1  0
  8 10  2  0
 10 11  1  0
 10 12  1  0
 12 13  1  0
 12 14  2  0
 14 15  1  0
 14 16  1  0
 16 17  1  0
 17 18  2  0
 17 19  1  0
 19 20  1  0
 20 21  1  0
 20 22  2  0
 22 23  1  0
 23 24  2  0
 24 25  1  0
 25 26  1  6
 25 27  1  0
 27 28  2  0
 28 29  1  0
 28 30  1  0
 30 31  1  0
 30 32  2  0
 32 33  1  0
 32 34  1  0
 34 35  1  0
 34 36  2  0
 36 37  1  0
 25 38  1  0
 38 39  1  0
 38 40  1  0
 38 41  1  0
 23 42  1  0
 42 43  1  0
 22  3  1  0
 36 27  1  0
 19  5  2  0
 16  7  1  0
M  CHG  1   4  -1
M  END
>  <UniqueID>  (36) 
32

>  <SMILES>  (36) 
[H]/N=c1/[n-]c2nc3ccccn3c(=O)c2cc1/C(O)=N\[C@@H](C)c1ccccc1

>  <Energy>  (36) 
60.985657862872024

>  <Genealogy>  (36) 
C[C@H](NC(=O)c1cc2c(=O)n3ccccc3nc2[n-]c1=N)c1ccccc1 (protonated)
C[C@H](N=C(O)c1cc2c(=O)n3ccccc3nc2[n-]c1=N)c1ccccc1 (tautomer)
[H]/N=c1/[n-]c2nc3ccccn3c(=O)c2cc1/C(O)=N\[C@@H](C)c1ccccc1 (cis-trans isomerization)
[H]/N=c1/[n-]c2nc3ccccn3c(=O)c2cc1/C(O)=N\[C@@H](C)c1ccccc1 (3D coordinates assigned)
[H]/N=c1/[n-]c2nc3ccccn3c(=O)c2cc1/C(O)=N\[C@@H](C)c1ccccc1 (optimized conformer: 60.985657862872024 kcal/mol)

>  <smiles>  (36) 
C[C@H](NC(=O)c1cc2c(=O)n3ccccc3nc2[nH]c1=N)c1ccccc1

>  <score_type>  (36) 
oracle

>  <origin>  (36) 
autodockgpu

>  <m_score__min__energy>  (36) 
-7.6799999999999997

>  <m_primary>  (36) 
energy

>  <meeko>  (36) 
{"free_energy": -6.86, "intermolecular_energy": -8.65, "internal_energy": -1.57, "cluster_size": 2, "cluster_id": 2, "rank_in_cluster": 2}

>  <energy>  (36) 
-6.38

>  <cluster_rmsd>  (36) 
0.9

>  <rmsd>  (36) 
271.66

>  <cluster>  (36) 
4

$$$$
HDANWICVGDYKAH-VJHPIRKKNA-M
     RDKit          3D

 43 46  0  0  0  0  0  0  0  0999 V2000
  136.3530   77.2870  223.4650 H   0  0  0  0  0  0  0  0  0  0  0  0
  136.9390   76.4790  223.1620 N   0  0  0  0  0  0  0  0  0  0  0  0
  138.0570   76.6020  222.5130 C   0  0  0  0  0  0  0  0  0  0  0  0
  138.8600   75.5130  222.3850 N   0  0  0  0  0  0  0  0  0  0  0  0
  140.0460   75.5590  221.7220 C   0  0  0  0  0  0  0  0  0  0  0  0
  140.7940   74.4380  221.6030 N   0  0  0  0  0  0  0  0  0  0  0  0
  141.9770   74.4440  220.9360 C   0  0  0  0  0  0  0  0  0  0  0  0
  142.7080   73.2560  220.8400 C   0  0  0  0  0  0  0  0  0  0  0  0
  142.3276   72.3336  221.3031 H   0  0  0  0  0  0  0  0  0  0  0  0
  143.9200   73.2470  220.1550 C   0  0  0  0  0  0  0  0  0  0  0  0
  144.5028   72.3175  220.0758 H   0  0  0  0  0  0  0  0  0  0  0  0
  144.3910   74.4190  219.5710 C   0  0  0  0  0  0  0  0  0  0  0  0
  145.3467   74.4210  219.0264 H   0  0  0  0  0  0  0  0  0  0  0  0
  143.6420   75.5930  219.6810 C   0  0  0  0  0  0  0  0  0  0  0  0
  144.0148   76.5199  219.2207 H   0  0  0  0  0  0  0  0  0  0  0  0
  142.4470   75.6050  220.3560 N   0  0  0  0  0  0  0  0  0  0  0  0
  141.7130   76.7640  220.4610 C   0  0  0  0  0  0  0  0  0  0  0  0
  142.1280   77.8350  219.9320 O   0  0  0  0  0  0  0  0  0  0  0  0
  140.4910   76.7610  221.1550 C   0  0  0  0  0  0  0  0  0  0  0  0
  139.6920   77.9070  221.2850 C   0  0  0  0  0  0  0  0  0  0  0  0
  140.0369   78.8663  220.8717 H   0  0  0  0  0  0  0  0  0  0  0  0
  138.4560   77.8320  221.9400 C   0  0  0  0  0  0  0  0  0  0  0  0
  137.5920   79.0310  221.9500 C   0  0  0  0  0  0  0  0  0  0  0  0
  138.0870   80.2380  221.9480 N   0  0  0  0  0  0  0  0  0  0  0  0
  138.7890   80.8840  223.0630 C   0  0  2  0  0  0  0  0  0  0  0  0
  138.7395   81.9743  222.9257 H   0  0  0  0  0  0  0  0  0  0  0  0
  140.2520   80.4880  223.0910 C   0  0  0  0  0  0  0  0  0  0  0  0
  140.6920   79.4050  223.8750 C   0  0  0  0  0  0  0  0  0  0  0  0
  139.9769   78.8645  224.5126 H   0  0  0  0  0  0  0  0  0  0  0  0
  142.0340   79.0130  223.8470 C   0  0  0  0  0  0  0  0  0  0  0  0
  142.3703   78.1631  224.4590 H   0  0  0  0  0  0  0  0  0  0  0  0
  142.9480   79.6980  223.0440 C   0  0  0  0  0  0  0  0  0  0  0  0
  144.0015   79.3827  223.0181 H   0  0  0  0  0  0  0  0  0  0  0  0
  142.5250   80.7830  222.2740 C   0  0  0  0  0  0  0  0  0  0  0  0
  143.2471   81.3249  221.6456 H   0  0  0  0  0  0  0  0  0  0  0  0
  141.1860   81.1820  222.3000 C   0  0  0  0  0  0  0  0  0  0  0  0
  140.8603   82.0436  221.6986 H   0  0  0  0  0  0  0  0  0  0  0  0
  138.1110   80.5040  224.3790 C   0  0  0  0  0  0  0  0  0  0  0  0
  138.7273   80.8494  225.2221 H   0  0  0  0  0  0  0  0  0  0  0  0
  137.1197   80.9780  224.4310 H   0  0  0  0  0  0  0  0  0  0  0  0
  137.9980   79.4111  224.4310 H   0  0  0  0  0  0  0  0  0  0  0  0
  136.2130   78.8550  221.9930 O   0  0  0  0  0  0  0  0  0  0  0  0
  135.8070   77.9370  222.1290 H   0  0  0  0  0  0  0  0  0  0  0  0
  1  2  1  0
  2  3  2  0
  3  4  1  0
  4  5  1  0
  5  6  1  0
  6  7  2  0
  7  8  1  0
  8  9  1  0
  8 10  2  0
 10 11  1  0
 10 12  1  0
 12 13  1  0
 12 14  2  0
 14 15  1  0
 14 16  1  0
 16 17  1  0
 17 18  2  0
 17 19  1  0
 19 20  1  0
 20 21  1  0
 20 22  2  0
 22 23  1  0
 23 24  2  0
 24 25  1  0
 25 26  1  6
 25 27  1  0
 27 28  2  0
 28 29  1  0
 28 30  1  0
 30 31  1  0
 30 32  2  0
 32 33  1  0
 32 34  1  0
 34 35  1  0
 34 36  2  0
 36 37  1  0
 25 38  1  0
 38 39  1  0
 38 40  1  0
 38 41  1  0
 23 42  1  0
 42 43  1  0
 22  3  1  0
 36 27  1  0
 19  5  2  0
 16  7  1  0
M  CHG  1   4  -1
M  END
>  <UniqueID>  (37) 
32

>  <SMILES>  (37) 
[H]/N=c1/[n-]c2nc3ccccn3c(=O)c2cc1/C(O)=N\[C@@H](C)c1ccccc1

>  <Energy>  (37) 
60.985657862872024

>  <Genealogy>  (37) 
C[C@H](NC(=O)c1cc2c(=O)n3ccccc3nc2[n-]c1=N)c1ccccc1 (protonated)
C[C@H](N=C(O)c1cc2c(=O)n3ccccc3nc2[n-]c1=N)c1ccccc1 (tautomer)
[H]/N=c1/[n-]c2nc3ccccn3c(=O)c2cc1/C(O)=N\[C@@H](C)c1ccccc1 (cis-trans isomerization)
[H]/N=c1/[n-]c2nc3ccccn3c(=O)c2cc1/C(O)=N\[C@@H](C)c1ccccc1 (3D coordinates assigned)
[H]/N=c1/[n-]c2nc3ccccn3c(=O)c2cc1/C(O)=N\[C@@H](C)c1ccccc1 (optimized conformer: 60.985657862872024 kcal/mol)

>  <smiles>  (37) 
C[C@H](NC(=O)c1cc2c(=O)n3ccccc3nc2[nH]c1=N)c1ccccc1

>  <score_type>  (37) 
oracle

>  <origin>  (37) 
autodockgpu

>  <m_score__min__energy>  (37) 
-7.6799999999999997

>  <m_primary>  (37) 
energy

>  <meeko>  (37) 
{"free_energy": -5.89, "intermolecular_energy": -7.68, "internal_energy": -2.42, "cluster_size": 4, "cluster_id": 5, "rank_in_cluster": 4}

>  <energy>  (37) 
-5.96

>  <cluster_rmsd>  (37) 
0.0

>  <rmsd>  (37) 
272.16

>  <cluster>  (37) 
5

$$$$
HDANWICVGDYKAH-VJHPIRKKNA-M
     RDKit          3D

 43 46  0  0  0  0  0  0  0  0999 V2000
  136.4540   77.0870  223.6630 H   0  0  0  0  0  0  0  0  0  0  0  0
  136.9880   76.2860  223.2600 N   0  0  0  0  0  0  0  0  0  0  0  0
  138.0930   76.4190  222.5920 C   0  0  0  0  0  0  0  0  0  0  0  0
  138.9040   75.3370  222.4500 N   0  0  0  0  0  0  0  0  0  0  0  0
  140.0770   75.3940  221.7660 C   0  0  0  0  0  0  0  0  0  0  0  0
  140.8340   74.2790  221.6350 N   0  0  0  0  0  0  0  0  0  0  0  0
  142.0040   74.2960  220.9460 C   0  0  0  0  0  0  0  0  0  0  0  0
  142.7440   73.1140  220.8380 C   0  0  0  0  0  0  0  0  0  0  0  0
  142.3807   72.1886  221.3088 H   0  0  0  0  0  0  0  0  0  0  0  0
  143.9430   73.1160  220.1310 C   0  0  0  0  0  0  0  0  0  0  0  0
  144.5320   72.1914  220.0405 H   0  0  0  0  0  0  0  0  0  0  0  0
  144.3940   74.2920  219.5390 C   0  0  0  0  0  0  0  0  0  0  0  0
  145.3407   74.3025  218.9790 H   0  0  0  0  0  0  0  0  0  0  0  0
  143.6360   75.4590  219.6610 C   0  0  0  0  0  0  0  0  0  0  0  0
  143.9915   76.3886  219.1925 H   0  0  0  0  0  0  0  0  0  0  0  0
  142.4530   75.4610  220.3580 N   0  0  0  0  0  0  0  0  0  0  0  0
  141.7110   76.6130  220.4750 C   0  0  0  0  0  0  0  0  0  0  0  0
  142.1060   77.6870  219.9380 O   0  0  0  0  0  0  0  0  0  0  0  0
  140.5010   76.5990  221.1900 C   0  0  0  0  0  0  0  0  0  0  0  0
  139.6940   77.7370  221.3340 C   0  0  0  0  0  0  0  0  0  0  0  0
  140.0225   78.6990  220.9137 H   0  0  0  0  0  0  0  0  0  0  0  0
  138.4700   77.6520  222.0120 C   0  0  0  0  0  0  0  0  0  0  0  0
  137.5960   78.8430  222.0360 C   0  0  0  0  0  0  0  0  0  0  0  0
  138.0740   80.0520  221.9340 N   0  0  0  0  0  0  0  0  0  0  0  0
  138.7550   80.8040  222.9960 C   0  0  2  0  0  0  0  0  0  0  0  0
  138.6760   81.8786  222.7748 H   0  0  0  0  0  0  0  0  0  0  0  0
  140.2290   80.4520  223.0550 C   0  0  0  0  0  0  0  0  0  0  0  0
  140.6820   79.3700  223.8310 C   0  0  0  0  0  0  0  0  0  0  0  0
  139.9682   78.7965  224.4406 H   0  0  0  0  0  0  0  0  0  0  0  0
  142.0360   79.0200  223.8310 C   0  0  0  0  0  0  0  0  0  0  0  0
  142.3829   78.1689  224.4354 H   0  0  0  0  0  0  0  0  0  0  0  0
  142.9490   79.7490  223.0650 C   0  0  0  0  0  0  0  0  0  0  0  0
  144.0126   79.4683  223.0622 H   0  0  0  0  0  0  0  0  0  0  0  0
  142.5110   80.8340  222.3030 C   0  0  0  0  0  0  0  0  0  0  0  0
  143.2314   81.4099  221.7036 H   0  0  0  0  0  0  0  0  0  0  0  0
  141.1600   81.1900  222.3000 C   0  0  0  0  0  0  0  0  0  0  0  0
  140.8222   82.0512  221.7048 H   0  0  0  0  0  0  0  0  0  0  0  0
  138.0840   80.5080  224.3360 C   0  0  0  0  0  0  0  0  0  0  0  0
  138.7553   80.8041  225.1556 H   0  0  0  0  0  0  0  0  0  0  0  0
  137.1443   81.0751  224.4087 H   0  0  0  0  0  0  0  0  0  0  0  0
  137.8692   79.4316  224.4087 H   0  0  0  0  0  0  0  0  0  0  0  0
  136.2270   78.6590  222.2040 O   0  0  0  0  0  0  0  0  0  0  0  0
  135.8410   77.7370  222.3690 H   0  0  0  0  0  0  0  0  0  0  0  0
  1  2  1  0
  2  3  2  0
  3  4  1  0
  4  5  1  0
  5  6  1  0
  6  7  2  0
  7  8  1  0
  8  9  1  0
  8 10  2  0
 10 11  1  0
 10 12  1  0
 12 13  1  0
 12 14  2  0
 14 15  1  0
 14 16  1  0
 16 17  1  0
 17 18  2  0
 17 19  1  0
 19 20  1  0
 20 21  1  0
 20 22  2  0
 22 23  1  0
 23 24  2  0
 24 25  1  0
 25 26  1  6
 25 27  1  0
 27 28  2  0
 28 29  1  0
 28 30  1  0
 30 31  1  0
 30 32  2  0
 32 33  1  0
 32 34  1  0
 34 35  1  0
 34 36  2  0
 36 37  1  0
 25 38  1  0
 38 39  1  0
 38 40  1  0
 38 41  1  0
 23 42  1  0
 42 43  1  0
 22  3  1  0
 36 27  1  0
 19  5  2  0
 16  7  1  0
M  CHG  1   4  -1
M  END
>  <UniqueID>  (38) 
32

>  <SMILES>  (38) 
[H]/N=c1/[n-]c2nc3ccccn3c(=O)c2cc1/C(O)=N\[C@@H](C)c1ccccc1

>  <Energy>  (38) 
60.985657862872024

>  <Genealogy>  (38) 
C[C@H](NC(=O)c1cc2c(=O)n3ccccc3nc2[n-]c1=N)c1ccccc1 (protonated)
C[C@H](N=C(O)c1cc2c(=O)n3ccccc3nc2[n-]c1=N)c1ccccc1 (tautomer)
[H]/N=c1/[n-]c2nc3ccccn3c(=O)c2cc1/C(O)=N\[C@@H](C)c1ccccc1 (cis-trans isomerization)
[H]/N=c1/[n-]c2nc3ccccn3c(=O)c2cc1/C(O)=N\[C@@H](C)c1ccccc1 (3D coordinates assigned)
[H]/N=c1/[n-]c2nc3ccccn3c(=O)c2cc1/C(O)=N\[C@@H](C)c1ccccc1 (optimized conformer: 60.985657862872024 kcal/mol)

>  <smiles>  (38) 
C[C@H](NC(=O)c1cc2c(=O)n3ccccc3nc2[nH]c1=N)c1ccccc1

>  <score_type>  (38) 
oracle

>  <origin>  (38) 
autodockgpu

>  <m_score__min__energy>  (38) 
-7.6799999999999997

>  <m_primary>  (38) 
energy

>  <meeko>  (38) 
{"free_energy": -5.96, "intermolecular_energy": -7.75, "internal_energy": -2.36, "cluster_size": 4, "cluster_id": 5, "rank_in_cluster": 1}

>  <energy>  (38) 
-5.94

>  <cluster_rmsd>  (38) 
0.13

>  <rmsd>  (38) 
272.17

>  <cluster>  (38) 
5

$$$$
HDANWICVGDYKAH-VJHPIRKKNA-M
     RDKit          3D

 43 46  0  0  0  0  0  0  0  0999 V2000
  134.1290   68.1340  226.0550 H   0  0  0  0  0  0  0  0  0  0  0  0
  133.5990   68.9360  226.4610 N   0  0  0  0  0  0  0  0  0  0  0  0
  133.8580   70.1800  226.1960 C   0  0  0  0  0  0  0  0  0  0  0  0
  133.1460   71.1460  226.8350 N   0  0  0  0  0  0  0  0  0  0  0  0
  133.3550   72.4690  226.6120 C   0  0  0  0  0  0  0  0  0  0  0  0
  132.6340   73.3890  227.2950 N   0  0  0  0  0  0  0  0  0  0  0  0
  132.8270   74.7200  227.1090 C   0  0  0  0  0  0  0  0  0  0  0  0
  132.0570   75.6270  227.8450 C   0  0  0  0  0  0  0  0  0  0  0  0
  131.3059   75.2618  228.5609 H   0  0  0  0  0  0  0  0  0  0  0  0
  132.2470   76.9940  227.6660 C   0  0  0  0  0  0  0  0  0  0  0  0
  131.6453   77.7146  228.2393 H   0  0  0  0  0  0  0  0  0  0  0  0
  133.2010   77.4460  226.7590 C   0  0  0  0  0  0  0  0  0  0  0  0
  133.3579   78.5247  226.6117 H   0  0  0  0  0  0  0  0  0  0  0  0
  133.9580   76.5200  226.0370 C   0  0  0  0  0  0  0  0  0  0  0  0
  134.7128   76.8765  225.3206 H   0  0  0  0  0  0  0  0  0  0  0  0
  133.7720   75.1710  226.2100 N   0  0  0  0  0  0  0  0  0  0  0  0
  134.5200   74.2640  225.4960 C   0  0  0  0  0  0  0  0  0  0  0  0
  135.3930   74.6610  224.6720 O   0  0  0  0  0  0  0  0  0  0  0  0
  134.3200   72.8860  225.6840 C   0  0  0  0  0  0  0  0  0  0  0  0
  135.0590   71.9120  224.9960 C   0  0  0  0  0  0  0  0  0  0  0  0
  135.8011   72.2171  224.2436 H   0  0  0  0  0  0  0  0  0  0  0  0
  134.8550   70.5520  225.2640 C   0  0  0  0  0  0  0  0  0  0  0  0
  135.7380   69.5660  224.6070 C   0  0  0  0  0  0  0  0  0  0  0  0
  137.0040   69.8030  224.4010 N   0  0  0  0  0  0  0  0  0  0  0  0
  138.1200   68.9380  224.8020 C   0  0  2  0  0  0  0  0  0  0  0  0
  137.7225   68.1004  225.3940 H   0  0  0  0  0  0  0  0  0  0  0  0
  139.1080   69.6890  225.6720 C   0  0  0  0  0  0  0  0  0  0  0  0
  139.8180   70.7950  225.1680 C   0  0  0  0  0  0  0  0  0  0  0  0
  139.6919   71.0942  224.1170 H   0  0  0  0  0  0  0  0  0  0  0  0
  140.6830   71.5150  225.9980 C   0  0  0  0  0  0  0  0  0  0  0  0
  141.2309   72.3815  225.5994 H   0  0  0  0  0  0  0  0  0  0  0  0
  140.8530   71.1370  227.3310 C   0  0  0  0  0  0  0  0  0  0  0  0
  141.5290   71.7096  227.9830 H   0  0  0  0  0  0  0  0  0  0  0  0
  140.1650   70.0320  227.8370 C   0  0  0  0  0  0  0  0  0  0  0  0
  140.3035   69.7326  228.8864 H   0  0  0  0  0  0  0  0  0  0  0  0
  139.3010   69.3060  227.0130 C   0  0  0  0  0  0  0  0  0  0  0  0
  138.7689   68.4308  227.4141 H   0  0  0  0  0  0  0  0  0  0  0  0
  138.8150   68.3960  223.5540 C   0  0  0  0  0  0  0  0  0  0  0  0
  139.6498   67.7450  223.8528 H   0  0  0  0  0  0  0  0  0  0  0  0
  138.0955   67.8182  222.9554 H   0  0  0  0  0  0  0  0  0  0  0  0
  139.2001   69.2346  222.9554 H   0  0  0  0  0  0  0  0  0  0  0  0
  135.1840   68.3670  224.1700 O   0  0  0  0  0  0  0  0  0  0  0  0
  134.3370   68.0000  224.5880 H   0  0  0  0  0  0  0  0  0  0  0  0
  1  2  1  0
  2  3  2  0
  3  4  1  0
  4  5  1  0
  5  6  1  0
  6  7  2  0
  7  8  1  0
  8  9  1  0
  8 10  2  0
 10 11  1  0
 10 12  1  0
 12 13  1  0
 12 14  2  0
 14 15  1  0
 14 16  1  0
 16 17  1  0
 17 18  2  0
 17 19  1  0
 19 20  1  0
 20 21  1  0
 20 22  2  0
 22 23  1  0
 23 24  2  0
 24 25  1  0
 25 26  1  1
 25 27  1  0
 27 28  2  0
 28 29  1  0
 28 30  1  0
 30 31  1  0
 30 32  2  0
 32 33  1  0
 32 34  1  0
 34 35  1  0
 34 36  2  0
 36 37  1  0
 25 38  1  0
 38 39  1  0
 38 40  1  0
 38 41  1  0
 23 42  1  0
 42 43  1  0
 22  3  1  0
 36 27  1  0
 19  5  2  0
 16  7  1  0
M  CHG  1   4  -1
M  END
>  <UniqueID>  (39) 
32

>  <SMILES>  (39) 
[H]/N=c1/[n-]c2nc3ccccn3c(=O)c2cc1/C(O)=N\[C@@H](C)c1ccccc1

>  <Energy>  (39) 
60.985657862872024

>  <Genealogy>  (39) 
C[C@H](NC(=O)c1cc2c(=O)n3ccccc3nc2[n-]c1=N)c1ccccc1 (protonated)
C[C@H](N=C(O)c1cc2c(=O)n3ccccc3nc2[n-]c1=N)c1ccccc1 (tautomer)
[H]/N=c1/[n-]c2nc3ccccn3c(=O)c2cc1/C(O)=N\[C@@H](C)c1ccccc1 (cis-trans isomerization)
[H]/N=c1/[n-]c2nc3ccccn3c(=O)c2cc1/C(O)=N\[C@@H](C)c1ccccc1 (3D coordinates assigned)
[H]/N=c1/[n-]c2nc3ccccn3c(=O)c2cc1/C(O)=N\[C@@H](C)c1ccccc1 (optimized conformer: 60.985657862872024 kcal/mol)

>  <smiles>  (39) 
C[C@H](NC(=O)c1cc2c(=O)n3ccccc3nc2[nH]c1=N)c1ccccc1

>  <score_type>  (39) 
oracle

>  <origin>  (39) 
autodockgpu

>  <m_score__min__energy>  (39) 
-7.6799999999999997

>  <m_primary>  (39) 
energy

>  <meeko>  (39) 
{"free_energy": -7.67, "intermolecular_energy": -9.46, "internal_energy": -1.57, "cluster_size": 11, "cluster_id": 1, "rank_in_cluster": 2}

>  <energy>  (39) 
-5.93

>  <cluster_rmsd>  (39) 
0.14

>  <rmsd>  (39) 
272.15

>  <cluster>  (39) 
5

$$$$
HDANWICVGDYKAH-VJHPIRKKNA-M
     RDKit          3D

 43 46  0  0  0  0  0  0  0  0999 V2000
  134.5650   68.3410  226.1910 H   0  0  0  0  0  0  0  0  0  0  0  0
  133.9100   69.1060  226.4630 N   0  0  0  0  0  0  0  0  0  0  0  0
  134.0910   70.3550  226.1570 C   0  0  0  0  0  0  0  0  0  0  0  0
  133.3550   71.2980  226.8020 N   0  0  0  0  0  0  0  0  0  0  0  0
  133.4850   72.6250  226.5380 C   0  0  0  0  0  0  0  0  0  0  0  0
  132.7440   73.5240  227.2280 N   0  0  0  0  0  0  0  0  0  0  0  0
  132.8580   74.8580  227.0010 C   0  0  0  0  0  0  0  0  0  0  0  0
  132.0720   75.7420  227.7460 C   0  0  0  0  0  0  0  0  0  0  0  0
  131.3715   75.3571  228.5017 H   0  0  0  0  0  0  0  0  0  0  0  0
  132.1810   77.1120  227.5260 C   0  0  0  0  0  0  0  0  0  0  0  0
  131.5650   77.8151  228.1058 H   0  0  0  0  0  0  0  0  0  0  0  0
  133.0730   77.5890  226.5690 C   0  0  0  0  0  0  0  0  0  0  0  0
  133.1671   78.6702  226.3895 H   0  0  0  0  0  0  0  0  0  0  0  0
  133.8470   76.6850  225.8390 C   0  0  0  0  0  0  0  0  0  0  0  0
  134.5515   77.0613  225.0827 H   0  0  0  0  0  0  0  0  0  0  0  0
  133.7410   75.3330  226.0520 N   0  0  0  0  0  0  0  0  0  0  0  0
  134.5070   74.4480  225.3300 C   0  0  0  0  0  0  0  0  0  0  0  0
  135.3230   74.8670  224.4610 O   0  0  0  0  0  0  0  0  0  0  0  0
  134.3880   73.0660  225.5600 C   0  0  0  0  0  0  0  0  0  0  0  0
  135.1500   72.1140  224.8660 C   0  0  0  0  0  0  0  0  0  0  0  0
  135.8443   72.4370  224.0763 H   0  0  0  0  0  0  0  0  0  0  0  0
  135.0290   70.7530  225.1760 C   0  0  0  0  0  0  0  0  0  0  0  0
  135.9350   69.7980  224.5070 C   0  0  0  0  0  0  0  0  0  0  0  0
  137.1420   70.1310  224.1410 N   0  0  0  0  0  0  0  0  0  0  0  0
  138.3600   69.3430  224.3630 C   0  0  2  0  0  0  0  0  0  0  0  0
  138.0714   68.3183  224.6398 H   0  0  0  0  0  0  0  0  0  0  0  0
  139.1810   69.9140  225.5020 C   0  0  0  0  0  0  0  0  0  0  0  0
  139.2190   69.2750  226.7550 C   0  0  0  0  0  0  0  0  0  0  0  0
  138.6120   68.3743  226.9290 H   0  0  0  0  0  0  0  0  0  0  0  0
  140.0250   69.7800  227.7800 C   0  0  0  0  0  0  0  0  0  0  0  0
  140.0533   69.2731  228.7559 H   0  0  0  0  0  0  0  0  0  0  0  0
  140.7940   70.9260  227.5680 C   0  0  0  0  0  0  0  0  0  0  0  0
  141.4328   71.3167  228.3738 H   0  0  0  0  0  0  0  0  0  0  0  0
  140.7520   71.5760  226.3330 C   0  0  0  0  0  0  0  0  0  0  0  0
  141.3543   72.4817  226.1686 H   0  0  0  0  0  0  0  0  0  0  0  0
  139.9460   71.0780  225.3050 C   0  0  0  0  0  0  0  0  0  0  0  0
  139.9098   71.5991  224.3369 H   0  0  0  0  0  0  0  0  0  0  0  0
  139.1850   69.3120  223.0770 C   0  0  0  0  0  0  0  0  0  0  0  0
  140.2551   69.2718  223.3287 H   0  0  0  0  0  0  0  0  0  0  0  0
  138.9132   68.4234  222.4883 H   0  0  0  0  0  0  0  0  0  0  0  0
  138.9806   70.2185  222.4883 H   0  0  0  0  0  0  0  0  0  0  0  0
  135.4660   68.5160  224.2350 O   0  0  0  0  0  0  0  0  0  0  0  0
  134.5890   68.1880  224.6220 H   0  0  0  0  0  0  0  0  0  0  0  0
  1  2  1  0
  2  3  2  0
  3  4  1  0
  4  5  1  0
  5  6  1  0
  6  7  2  0
  7  8  1  0
  8  9  1  0
  8 10  2  0
 10 11  1  0
 10 12  1  0
 12 13  1  0
 12 14  2  0
 14 15  1  0
 14 16  1  0
 16 17  1  0
 17 18  2  0
 17 19  1  0
 19 20  1  0
 20 21  1  0
 20 22  2  0
 22 23  1  0
 23 24  2  0
 24 25  1  0
 25 26  1  1
 25 27  1  0
 27 28  2  0
 28 29  1  0
 28 30  1  0
 30 31  1  0
 30 32  2  0
 32 33  1  0
 32 34  1  0
 34 35  1  0
 34 36  2  0
 36 37  1  0
 25 38  1  0
 38 39  1  0
 38 40  1  0
 38 41  1  0
 23 42  1  0
 42 43  1  0
 22  3  1  0
 36 27  1  0
 19  5  2  0
 16  7  1  0
M  CHG  1   4  -1
M  END
>  <UniqueID>  (40) 
32

>  <SMILES>  (40) 
[H]/N=c1/[n-]c2nc3ccccn3c(=O)c2cc1/C(O)=N\[C@@H](C)c1ccccc1

>  <Energy>  (40) 
60.985657862872024

>  <Genealogy>  (40) 
C[C@H](NC(=O)c1cc2c(=O)n3ccccc3nc2[n-]c1=N)c1ccccc1 (protonated)
C[C@H](N=C(O)c1cc2c(=O)n3ccccc3nc2[n-]c1=N)c1ccccc1 (tautomer)
[H]/N=c1/[n-]c2nc3ccccn3c(=O)c2cc1/C(O)=N\[C@@H](C)c1ccccc1 (cis-trans isomerization)
[H]/N=c1/[n-]c2nc3ccccn3c(=O)c2cc1/C(O)=N\[C@@H](C)c1ccccc1 (3D coordinates assigned)
[H]/N=c1/[n-]c2nc3ccccn3c(=O)c2cc1/C(O)=N\[C@@H](C)c1ccccc1 (optimized conformer: 60.985657862872024 kcal/mol)

>  <smiles>  (40) 
C[C@H](NC(=O)c1cc2c(=O)n3ccccc3nc2[nH]c1=N)c1ccccc1

>  <score_type>  (40) 
oracle

>  <origin>  (40) 
autodockgpu

>  <m_score__min__energy>  (40) 
-7.6799999999999997

>  <m_primary>  (40) 
energy

>  <meeko>  (40) 
{"free_energy": -7.55, "intermolecular_energy": -9.34, "internal_energy": -1.64, "cluster_size": 11, "cluster_id": 1, "rank_in_cluster": 9}

>  <energy>  (40) 
-5.89

>  <cluster_rmsd>  (40) 
0.17

>  <rmsd>  (40) 
272.16

>  <cluster>  (40) 
5

$$$$
HDANWICVGDYKAH-XBMCPTRANA-L
     RDKit          3D

 42 45  0  0  0  0  0  0  0  0999 V2000
  134.0920   68.0800  226.0450 H   0  0  0  0  0  0  0  0  0  0  0  0
  133.5860   68.8900  226.4670 N   0  0  0  0  0  0  0  0  0  0  0  0
  133.8520   70.1300  226.1960 C   0  0  0  0  0  0  0  0  0  0  0  0
  133.1540   71.1020  226.8420 N   0  0  0  0  0  0  0  0  0  0  0  0
  133.3670   72.4230  226.6130 C   0  0  0  0  0  0  0  0  0  0  0  0
  132.6540   73.3480  227.2960 N   0  0  0  0  0  0  0  0  0  0  0  0
  132.8380   74.6770  227.0910 C   0  0  0  0  0  0  0  0  0  0  0  0
  132.0750   75.5900  227.8270 C   0  0  0  0  0  0  0  0  0  0  0  0
  131.3371   75.2307  228.5595 H   0  0  0  0  0  0  0  0  0  0  0  0
  132.2550   76.9550  227.6270 C   0  0  0  0  0  0  0  0  0  0  0  0
  131.6599   77.6800  228.2016 H   0  0  0  0  0  0  0  0  0  0  0  0
  133.1900   77.4000  226.6980 C   0  0  0  0  0  0  0  0  0  0  0  0
  133.3368   78.4776  226.5332 H   0  0  0  0  0  0  0  0  0  0  0  0
  133.9410   76.4700  225.9760 C   0  0  0  0  0  0  0  0  0  0  0  0
  134.6818   76.8217  225.2429 H   0  0  0  0  0  0  0  0  0  0  0  0
  133.7660   75.1210  226.1700 N   0  0  0  0  0  0  0  0  0  0  0  0
  134.5080   74.2090  225.4580 C   0  0  0  0  0  0  0  0  0  0  0  0
  135.3630   74.5980  224.6120 O   0  0  0  0  0  0  0  0  0  0  0  0
  134.3210   72.8320  225.6690 C   0  0  0  0  0  0  0  0  0  0  0  0
  135.0500   71.8520  224.9780 C   0  0  0  0  0  0  0  0  0  0  0  0
  135.7818   72.1508  224.2130 H   0  0  0  0  0  0  0  0  0  0  0  0
  134.8490   70.4950  225.2590 C   0  0  0  0  0  0  0  0  0  0  0  0
  135.6490   69.4860  224.5410 C   0  0  0  0  0  0  0  0  0  0  0  0
  135.1030   68.3970  224.2250 O   0  0  0  0  0  0  0  0  0  0  0  0
  137.0400   69.6790  224.2360 N   0  0  0  0  0  0  0  0  0  0  0  0
  138.1770   68.8190  224.5830 C   0  0  2  0  0  0  0  0  0  0  0  0
  137.8154   67.9445  225.1437 H   0  0  0  0  0  0  0  0  0  0  0  0
  139.1300   69.5030  225.5520 C   0  0  0  0  0  0  0  0  0  0  0  0
  139.6530   70.7950  225.3280 C   0  0  0  0  0  0  0  0  0  0  0  0
  139.3920   71.3385  224.4080 H   0  0  0  0  0  0  0  0  0  0  0  0
  140.5010   71.3880  226.2690 C   0  0  0  0  0  0  0  0  0  0  0  0
  140.9019   72.3961  226.0874 H   0  0  0  0  0  0  0  0  0  0  0  0
  140.8400   70.7050  227.4370 C   0  0  0  0  0  0  0  0  0  0  0  0
  141.5067   71.1748  228.1752 H   0  0  0  0  0  0  0  0  0  0  0  0
  140.3330   69.4250  227.6690 C   0  0  0  0  0  0  0  0  0  0  0  0
  140.6019   68.8863  228.5896 H   0  0  0  0  0  0  0  0  0  0  0  0
  139.4840   68.8270  226.7330 C   0  0  0  0  0  0  0  0  0  0  0  0
  139.0891   67.8179  226.9223 H   0  0  0  0  0  0  0  0  0  0  0  0
  138.8260   68.2500  223.3160 C   0  0  0  0  0  0  0  0  0  0  0  0
  139.6257   67.5489  223.5969 H   0  0  0  0  0  0  0  0  0  0  0  0
  138.0669   67.7211  222.7210 H   0  0  0  0  0  0  0  0  0  0  0  0
  139.2511   69.0718  222.7210 H   0  0  0  0  0  0  0  0  0  0  0  0
  1  2  1  0
  2  3  2  0
  3  4  1  0
  4  5  1  0
  5  6  1  0
  6  7  2  0
  7  8  1  0
  8  9  1  0
  8 10  2  0
 10 11  1  0
 10 12  1  0
 12 13  1  0
 12 14  2  0
 14 15  1  0
 14 16  1  0
 16 17  1  0
 17 18  2  0
 17 19  1  0
 19 20  1  0
 20 21  1  0
 20 22  2  0
 22 23  1  0
 23 24  2  0
 23 25  1  0
 25 26  1  0
 26 27  1  1
 26 28  1  0
 28 29  2  0
 29 30  1  0
 29 31  1  0
 31 32  1  0
 31 33  2  0
 33 34  1  0
 33 35  1  0
 35 36  1  0
 35 37  2  0
 37 38  1  0
 26 39  1  0
 39 40  1  0
 39 41  1  0
 39 42  1  0
 22  3  1  0
 37 28  1  0
 19  5  2  0
 16  7  1  0
M  CHG  2   4  -1  25  -1
M  END
>  <UniqueID>  (41) 
33

>  <SMILES>  (41) 
[H]/N=c1/[n-]c2nc3ccccn3c(=O)c2cc1C(=O)[N-][C@@H](C)c1ccccc1

>  <Energy>  (41) 
64.8276068987483

>  <Genealogy>  (41) 
C[C@H]([N-]C(=O)c1cc2c(=O)n3ccccc3nc2[n-]c1=N)c1ccccc1 (protonated)
[H]/N=c1/[n-]c2nc3ccccn3c(=O)c2cc1C(=O)[N-][C@@H](C)c1ccccc1 (cis-trans isomerization)
[H]/N=c1/[n-]c2nc3ccccn3c(=O)c2cc1C(=O)[N-][C@@H](C)c1ccccc1 (3D coordinates assigned)
[H]/N=c1/[n-]c2nc3ccccn3c(=O)c2cc1C(=O)[N-][C@@H](C)c1ccccc1 (optimized conformer: 64.8276068987483 kcal/mol)

>  <smiles>  (41) 
C[C@H](NC(=O)c1cc2c(=O)n3ccccc3nc2[nH]c1=N)c1ccccc1

>  <score_type>  (41) 
oracle

>  <origin>  (41) 
autodockgpu

>  <m_score__min__energy>  (41) 
-8.0099999999999998

>  <m_primary>  (41) 
energy

>  <meeko>  (41) 
{"free_energy": -7.94, "intermolecular_energy": -9.43, "internal_energy": -0.69, "cluster_size": 15, "cluster_id": 1, "rank_in_cluster": 6}

>  <energy>  (41) 
-8.01

>  <cluster_rmsd>  (41) 
0.0

>  <rmsd>  (41) 
270.37

>  <cluster>  (41) 
1

$$$$
HDANWICVGDYKAH-XBMCPTRANA-L
     RDKit          3D

 42 45  0  0  0  0  0  0  0  0999 V2000
  134.5290   68.3230  226.0770 H   0  0  0  0  0  0  0  0  0  0  0  0
  133.9750   69.1170  226.4690 N   0  0  0  0  0  0  0  0  0  0  0  0
  134.1650   70.3600  226.1490 C   0  0  0  0  0  0  0  0  0  0  0  0
  133.4460   71.3160  226.7950 N   0  0  0  0  0  0  0  0  0  0  0  0
  133.5810   72.6380  226.5170 C   0  0  0  0  0  0  0  0  0  0  0  0
  132.8520   73.5480  227.2020 N   0  0  0  0  0  0  0  0  0  0  0  0
  132.9590   74.8770  226.9490 C   0  0  0  0  0  0  0  0  0  0  0  0
  132.1810   75.7740  227.6900 C   0  0  0  0  0  0  0  0  0  0  0  0
  131.4940   75.4020  228.4643 H   0  0  0  0  0  0  0  0  0  0  0  0
  132.2820   77.1400  227.4410 C   0  0  0  0  0  0  0  0  0  0  0  0
  131.6754   77.8531  228.0185 H   0  0  0  0  0  0  0  0  0  0  0  0
  133.1530   77.5990  226.4590 C   0  0  0  0  0  0  0  0  0  0  0  0
  133.2375   78.6766  226.2550 H   0  0  0  0  0  0  0  0  0  0  0  0
  133.9200   76.6850  225.7330 C   0  0  0  0  0  0  0  0  0  0  0  0
  134.6098   77.0493  224.9575 H   0  0  0  0  0  0  0  0  0  0  0  0
  133.8230   75.3370  225.9760 N   0  0  0  0  0  0  0  0  0  0  0  0
  134.5790   74.4400  225.2600 C   0  0  0  0  0  0  0  0  0  0  0  0
  135.3770   74.8440  224.3650 O   0  0  0  0  0  0  0  0  0  0  0  0
  134.4720   73.0630  225.5200 C   0  0  0  0  0  0  0  0  0  0  0  0
  135.2210   72.0990  224.8280 C   0  0  0  0  0  0  0  0  0  0  0  0
  135.9037   72.4091  224.0231 H   0  0  0  0  0  0  0  0  0  0  0  0
  135.1020   70.7430  225.1590 C   0  0  0  0  0  0  0  0  0  0  0  0
  135.9210   69.7520  224.4370 C   0  0  0  0  0  0  0  0  0  0  0  0
  135.8370   68.5420  224.7710 O   0  0  0  0  0  0  0  0  0  0  0  0
  136.8490   70.1240  223.4050 N   0  0  0  0  0  0  0  0  0  0  0  0
  138.3150   70.1280  223.4560 C   0  0  2  0  0  0  0  0  0  0  0  0
  138.7083   69.4413  222.6920 H   0  0  0  0  0  0  0  0  0  0  0  0
  138.8390   69.5530  224.7630 C   0  0  0  0  0  0  0  0  0  0  0  0
  138.8260   68.1720  225.0530 C   0  0  0  0  0  0  0  0  0  0  0  0
  138.4014   67.4651  224.3250 H   0  0  0  0  0  0  0  0  0  0  0  0
  139.3490   67.6960  226.2590 C   0  0  0  0  0  0  0  0  0  0  0  0
  139.3361   66.6175  226.4749 H   0  0  0  0  0  0  0  0  0  0  0  0
  139.8870   68.5850  227.1890 C   0  0  0  0  0  0  0  0  0  0  0  0
  140.2998   68.2069  228.1359 H   0  0  0  0  0  0  0  0  0  0  0  0
  139.9020   69.9540  226.9190 C   0  0  0  0  0  0  0  0  0  0  0  0
  140.3233   70.6546  227.6550 H   0  0  0  0  0  0  0  0  0  0  0  0
  139.3820   70.4360  225.7140 C   0  0  0  0  0  0  0  0  0  0  0  0
  139.3976   71.5163  225.5075 H   0  0  0  0  0  0  0  0  0  0  0  0
  138.8620   71.5110  223.0800 C   0  0  0  0  0  0  0  0  0  0  0  0
  139.0862   72.0779  223.9956 H   0  0  0  0  0  0  0  0  0  0  0  0
  139.7812   71.3931  222.4874 H   0  0  0  0  0  0  0  0  0  0  0  0
  138.1108   72.0537  222.4874 H   0  0  0  0  0  0  0  0  0  0  0  0
  1  2  1  0
  2  3  2  0
  3  4  1  0
  4  5  1  0
  5  6  1  0
  6  7  2  0
  7  8  1  0
  8  9  1  0
  8 10  2  0
 10 11  1  0
 10 12  1  0
 12 13  1  0
 12 14  2  0
 14 15  1  0
 14 16  1  0
 16 17  1  0
 17 18  2  0
 17 19  1  0
 19 20  1  0
 20 21  1  0
 20 22  2  0
 22 23  1  0
 23 24  2  0
 23 25  1  0
 25 26  1  0
 26 27  1  6
 26 28  1  0
 28 29  2  0
 29 30  1  0
 29 31  1  0
 31 32  1  0
 31 33  2  0
 33 34  1  0
 33 35  1  0
 35 36  1  0
 35 37  2  0
 37 38  1  0
 26 39  1  0
 39 40  1  0
 39 41  1  0
 39 42  1  0
 22  3  1  0
 37 28  1  0
 19  5  2  0
 16  7  1  0
M  CHG  2   4  -1  25  -1
M  END
>  <UniqueID>  (42) 
33

>  <SMILES>  (42) 
[H]/N=c1/[n-]c2nc3ccccn3c(=O)c2cc1C(=O)[N-][C@@H](C)c1ccccc1

>  <Energy>  (42) 
64.8276068987483

>  <Genealogy>  (42) 
C[C@H]([N-]C(=O)c1cc2c(=O)n3ccccc3nc2[n-]c1=N)c1ccccc1 (protonated)
[H]/N=c1/[n-]c2nc3ccccn3c(=O)c2cc1C(=O)[N-][C@@H](C)c1ccccc1 (cis-trans isomerization)
[H]/N=c1/[n-]c2nc3ccccn3c(=O)c2cc1C(=O)[N-][C@@H](C)c1ccccc1 (3D coordinates assigned)
[H]/N=c1/[n-]c2nc3ccccn3c(=O)c2cc1C(=O)[N-][C@@H](C)c1ccccc1 (optimized conformer: 64.8276068987483 kcal/mol)

>  <smiles>  (42) 
C[C@H](NC(=O)c1cc2c(=O)n3ccccc3nc2[nH]c1=N)c1ccccc1

>  <score_type>  (42) 
oracle

>  <origin>  (42) 
autodockgpu

>  <m_score__min__energy>  (42) 
-8.0099999999999998

>  <m_primary>  (42) 
energy

>  <meeko>  (42) 
{"free_energy": -6.98, "intermolecular_energy": -8.48, "internal_energy": -0.86, "cluster_size": 15, "cluster_id": 1, "rank_in_cluster": 13}

>  <energy>  (42) 
-8.01

>  <cluster_rmsd>  (42) 
0.03

>  <rmsd>  (42) 
270.36

>  <cluster>  (42) 
1

$$$$
HDANWICVGDYKAH-XBMCPTRANA-L
     RDKit          3D

 42 45  0  0  0  0  0  0  0  0999 V2000
  134.5450   68.3560  225.8940 H   0  0  0  0  0  0  0  0  0  0  0  0
  134.2450   69.1780  226.4650 N   0  0  0  0  0  0  0  0  0  0  0  0
  134.3890   70.4110  226.0890 C   0  0  0  0  0  0  0  0  0  0  0  0
  133.6950   71.3770  226.7480 N   0  0  0  0  0  0  0  0  0  0  0  0
  133.7840   72.6900  226.4150 C   0  0  0  0  0  0  0  0  0  0  0  0
  133.0830   73.6120  227.1140 N   0  0  0  0  0  0  0  0  0  0  0  0
  133.1460   74.9320  226.8080 C   0  0  0  0  0  0  0  0  0  0  0  0
  132.4010   75.8410  227.5670 C   0  0  0  0  0  0  0  0  0  0  0  0
  131.7741   75.4852  228.3979 H   0  0  0  0  0  0  0  0  0  0  0  0
  132.4580   77.1990  227.2640 C   0  0  0  0  0  0  0  0  0  0  0  0
  131.8768   77.9217  227.8556 H   0  0  0  0  0  0  0  0  0  0  0  0
  133.2530   77.6380  226.2100 C   0  0  0  0  0  0  0  0  0  0  0  0
  133.3025   78.7088  225.9632 H   0  0  0  0  0  0  0  0  0  0  0  0
  133.9880   76.7110  225.4670 C   0  0  0  0  0  0  0  0  0  0  0  0
  134.6171   77.0588  224.6344 H   0  0  0  0  0  0  0  0  0  0  0  0
  133.9350   75.3710  225.7630 N   0  0  0  0  0  0  0  0  0  0  0  0
  134.6600   74.4620  225.0300 C   0  0  0  0  0  0  0  0  0  0  0  0
  135.3890   74.8470  224.0710 O   0  0  0  0  0  0  0  0  0  0  0  0
  134.5990   73.0940  225.3460 C   0  0  0  0  0  0  0  0  0  0  0  0
  135.3200   72.1190  224.6400 C   0  0  0  0  0  0  0  0  0  0  0  0
  135.9419   72.4115  223.7811 H   0  0  0  0  0  0  0  0  0  0  0  0
  135.2500   70.7740  225.0260 C   0  0  0  0  0  0  0  0  0  0  0  0
  136.0400   69.7730  224.2860 C   0  0  0  0  0  0  0  0  0  0  0  0
  135.9070   68.5580  224.5870 O   0  0  0  0  0  0  0  0  0  0  0  0
  136.9920   70.1360  223.2740 N   0  0  0  0  0  0  0  0  0  0  0  0
  138.4560   70.1660  223.3680 C   0  0  2  0  0  0  0  0  0  0  0  0
  138.8832   69.4592  222.6414 H   0  0  0  0  0  0  0  0  0  0  0  0
  138.9480   69.6470  224.7110 C   0  0  0  0  0  0  0  0  0  0  0  0
  139.4910   70.4890  225.7050 C   0  0  0  0  0  0  0  0  0  0  0  0
  139.5932   71.5670  225.5117 H   0  0  0  0  0  0  0  0  0  0  0  0
  139.9000   69.9620  226.9340 C   0  0  0  0  0  0  0  0  0  0  0  0
  140.3206   70.6264  227.7032 H   0  0  0  0  0  0  0  0  0  0  0  0
  139.7760   68.5960  227.1870 C   0  0  0  0  0  0  0  0  0  0  0  0
  140.0960   68.1848  228.1558 H   0  0  0  0  0  0  0  0  0  0  0  0
  139.2460   67.7510  226.2110 C   0  0  0  0  0  0  0  0  0  0  0  0
  139.1523   66.6733  226.4103 H   0  0  0  0  0  0  0  0  0  0  0  0
  138.8340   68.2710  224.9810 C   0  0  0  0  0  0  0  0  0  0  0  0
  138.4168   67.5984  224.2171 H   0  0  0  0  0  0  0  0  0  0  0  0
  138.9930   71.5420  222.9580 C   0  0  0  0  0  0  0  0  0  0  0  0
  139.2223   72.1295  223.8592 H   0  0  0  0  0  0  0  0  0  0  0  0
  139.9077   71.4154  222.3603 H   0  0  0  0  0  0  0  0  0  0  0  0
  138.2343   72.0685  222.3603 H   0  0  0  0  0  0  0  0  0  0  0  0
  1  2  1  0
  2  3  2  0
  3  4  1  0
  4  5  1  0
  5  6  1  0
  6  7  2  0
  7  8  1  0
  8  9  1  0
  8 10  2  0
 10 11  1  0
 10 12  1  0
 12 13  1  0
 12 14  2  0
 14 15  1  0
 14 16  1  0
 16 17  1  0
 17 18  2  0
 17 19  1  0
 19 20  1  0
 20 21  1  0
 20 22  2  0
 22 23  1  0
 23 24  2  0
 23 25  1  0
 25 26  1  0
 26 27  1  6
 26 28  1  0
 28 29  2  0
 29 30  1  0
 29 31  1  0
 31 32  1  0
 31 33  2  0
 33 34  1  0
 33 35  1  0
 35 36  1  0
 35 37  2  0
 37 38  1  0
 26 39  1  0
 39 40  1  0
 39 41  1  0
 39 42  1  0
 22  3  1  0
 37 28  1  0
 19  5  2  0
 16  7  1  0
M  CHG  2   4  -1  25  -1
M  END
>  <UniqueID>  (43) 
33

>  <SMILES>  (43) 
[H]/N=c1/[n-]c2nc3ccccn3c(=O)c2cc1C(=O)[N-][C@@H](C)c1ccccc1

>  <Energy>  (43) 
64.8276068987483

>  <Genealogy>  (43) 
C[C@H]([N-]C(=O)c1cc2c(=O)n3ccccc3nc2[n-]c1=N)c1ccccc1 (protonated)
[H]/N=c1/[n-]c2nc3ccccn3c(=O)c2cc1C(=O)[N-][C@@H](C)c1ccccc1 (cis-trans isomerization)
[H]/N=c1/[n-]c2nc3ccccn3c(=O)c2cc1C(=O)[N-][C@@H](C)c1ccccc1 (3D coordinates assigned)
[H]/N=c1/[n-]c2nc3ccccn3c(=O)c2cc1C(=O)[N-][C@@H](C)c1ccccc1 (optimized conformer: 64.8276068987483 kcal/mol)

>  <smiles>  (43) 
C[C@H](NC(=O)c1cc2c(=O)n3ccccc3nc2[nH]c1=N)c1ccccc1

>  <score_type>  (43) 
oracle

>  <origin>  (43) 
autodockgpu

>  <m_score__min__energy>  (43) 
-8.0099999999999998

>  <m_primary>  (43) 
energy

>  <meeko>  (43) 
{"free_energy": -6.87, "intermolecular_energy": -8.36, "internal_energy": -0.86, "cluster_size": 15, "cluster_id": 1, "rank_in_cluster": 14}

>  <energy>  (43) 
-8.0

>  <cluster_rmsd>  (43) 
0.07

>  <rmsd>  (43) 
270.38

>  <cluster>  (43) 
1

$$$$
HDANWICVGDYKAH-XBMCPTRANA-L
     RDKit          3D

 42 45  0  0  0  0  0  0  0  0999 V2000
  133.8750   67.8550  225.8320 H   0  0  0  0  0  0  0  0  0  0  0  0
  133.5810   68.6540  226.4370 N   0  0  0  0  0  0  0  0  0  0  0  0
  133.8520   69.8960  226.1780 C   0  0  0  0  0  0  0  0  0  0  0  0
  133.1260   70.8640  226.7970 N   0  0  0  0  0  0  0  0  0  0  0  0
  133.3420   72.1860  226.5770 C   0  0  0  0  0  0  0  0  0  0  0  0
  132.6000   73.1080  227.2330 N   0  0  0  0  0  0  0  0  0  0  0  0
  132.7860   74.4370  227.0370 C   0  0  0  0  0  0  0  0  0  0  0  0
  131.9910   75.3460  227.7430 C   0  0  0  0  0  0  0  0  0  0  0  0
  131.2262   74.9827  228.4452 H   0  0  0  0  0  0  0  0  0  0  0  0
  132.1730   76.7130  227.5520 C   0  0  0  0  0  0  0  0  0  0  0  0
  131.5534   77.4351  228.1039 H   0  0  0  0  0  0  0  0  0  0  0  0
  133.1420   77.1620  226.6600 C   0  0  0  0  0  0  0  0  0  0  0  0
  133.2913   78.2403  226.5016 H   0  0  0  0  0  0  0  0  0  0  0  0
  133.9240   76.2350  225.9670 C   0  0  0  0  0  0  0  0  0  0  0  0
  134.6909   76.5904  225.2630 H   0  0  0  0  0  0  0  0  0  0  0  0
  133.7480   74.8860  226.1530 N   0  0  0  0  0  0  0  0  0  0  0  0
  134.5200   73.9770  225.4690 C   0  0  0  0  0  0  0  0  0  0  0  0
  135.4050   74.3710  224.6570 O   0  0  0  0  0  0  0  0  0  0  0  0
  134.3300   72.6000  225.6710 C   0  0  0  0  0  0  0  0  0  0  0  0
  135.0900   71.6230  225.0080 C   0  0  0  0  0  0  0  0  0  0  0  0
  135.8498   71.9255  224.2724 H   0  0  0  0  0  0  0  0  0  0  0  0
  134.8840   70.2650  225.2800 C   0  0  0  0  0  0  0  0  0  0  0  0
  135.7150   69.2600  224.5930 C   0  0  0  0  0  0  0  0  0  0  0  0
  135.1700   68.5030  223.7480 O   0  0  0  0  0  0  0  0  0  0  0  0
  137.1090   69.0790  224.8900 N   0  0  0  0  0  0  0  0  0  0  0  0
  138.2580   69.8180  224.3570 C   0  0  2  0  0  0  0  0  0  0  0  0
  138.8449   69.1569  223.7024 H   0  0  0  0  0  0  0  0  0  0  0  0
  139.2390   70.2080  225.4530 C   0  0  0  0  0  0  0  0  0  0  0  0
  140.1610   71.2680  225.3140 C   0  0  0  0  0  0  0  0  0  0  0  0
  140.2046   71.8346  224.3722 H   0  0  0  0  0  0  0  0  0  0  0  0
  141.0190   71.6020  226.3660 C   0  0  0  0  0  0  0  0  0  0  0  0
  141.7334   72.4302  226.2490 H   0  0  0  0  0  0  0  0  0  0  0  0
  140.9720   70.8880  227.5640 C   0  0  0  0  0  0  0  0  0  0  0  0
  141.6467   71.1553  228.3906 H   0  0  0  0  0  0  0  0  0  0  0  0
  140.0690   69.8350  227.7130 C   0  0  0  0  0  0  0  0  0  0  0  0
  140.0349   69.2703  228.6564 H   0  0  0  0  0  0  0  0  0  0  0  0
  139.2070   69.4960  226.6650 C   0  0  0  0  0  0  0  0  0  0  0  0
  138.4975   68.6647  226.7901 H   0  0  0  0  0  0  0  0  0  0  0  0
  137.7880   70.9670  223.4570 C   0  0  0  0  0  0  0  0  0  0  0  0
  137.4451   71.8052  224.0814 H   0  0  0  0  0  0  0  0  0  0  0  0
  138.6221   71.3001  222.8220 H   0  0  0  0  0  0  0  0  0  0  0  0
  136.9595   70.6200  222.8220 H   0  0  0  0  0  0  0  0  0  0  0  0
  1  2  1  0
  2  3  2  0
  3  4  1  0
  4  5  1  0
  5  6  1  0
  6  7  2  0
  7  8  1  0
  8  9  1  0
  8 10  2  0
 10 11  1  0
 10 12  1  0
 12 13  1  0
 12 14  2  0
 14 15  1  0
 14 16  1  0
 16 17  1  0
 17 18  2  0
 17 19  1  0
 19 20  1  0
 20 21  1  0
 20 22  2  0
 22 23  1  0
 23 24  2  0
 23 25  1  0
 25 26  1  0
 26 27  1  6
 26 28  1  0
 28 29  2  0
 29 30  1  0
 29 31  1  0
 31 32  1  0
 31 33  2  0
 33 34  1  0
 33 35  1  0
 35 36  1  0
 35 37  2  0
 37 38  1  0
 26 39  1  0
 39 40  1  0
 39 41  1  0
 39 42  1  0
 22  3  1  0
 37 28  1  0
 19  5  2  0
 16  7  1  0
M  CHG  2   4  -1  25  -1
M  END
>  <UniqueID>  (44) 
33

>  <SMILES>  (44) 
[H]/N=c1/[n-]c2nc3ccccn3c(=O)c2cc1C(=O)[N-][C@@H](C)c1ccccc1

>  <Energy>  (44) 
64.8276068987483

>  <Genealogy>  (44) 
C[C@H]([N-]C(=O)c1cc2c(=O)n3ccccc3nc2[n-]c1=N)c1ccccc1 (protonated)
[H]/N=c1/[n-]c2nc3ccccn3c(=O)c2cc1C(=O)[N-][C@@H](C)c1ccccc1 (cis-trans isomerization)
[H]/N=c1/[n-]c2nc3ccccn3c(=O)c2cc1C(=O)[N-][C@@H](C)c1ccccc1 (3D coordinates assigned)
[H]/N=c1/[n-]c2nc3ccccn3c(=O)c2cc1C(=O)[N-][C@@H](C)c1ccccc1 (optimized conformer: 64.8276068987483 kcal/mol)

>  <smiles>  (44) 
C[C@H](NC(=O)c1cc2c(=O)n3ccccc3nc2[nH]c1=N)c1ccccc1

>  <score_type>  (44) 
oracle

>  <origin>  (44) 
autodockgpu

>  <m_score__min__energy>  (44) 
-8.0099999999999998

>  <m_primary>  (44) 
energy

>  <meeko>  (44) 
{"free_energy": -7.83, "intermolecular_energy": -9.32, "internal_energy": -0.44, "cluster_size": 15, "cluster_id": 1, "rank_in_cluster": 10}

>  <energy>  (44) 
-8.0

>  <cluster_rmsd>  (44) 
0.06

>  <rmsd>  (44) 
270.36

>  <cluster>  (44) 
1

$$$$
HDANWICVGDYKAH-XBMCPTRANA-L
     RDKit          3D

 42 45  0  0  0  0  0  0  0  0999 V2000
  136.1390   68.1930  224.8410 H   0  0  0  0  0  0  0  0  0  0  0  0
  136.0010   68.9410  224.1240 N   0  0  0  0  0  0  0  0  0  0  0  0
  136.9160   69.7940  223.7830 C   0  0  0  0  0  0  0  0  0  0  0  0
  136.5320   70.9710  223.2220 N   0  0  0  0  0  0  0  0  0  0  0  0
  137.4270   71.9150  222.8310 C   0  0  0  0  0  0  0  0  0  0  0  0
  136.9880   73.0760  222.2920 N   0  0  0  0  0  0  0  0  0  0  0  0
  137.8530   74.0400  221.8880 C   0  0  0  0  0  0  0  0  0  0  0  0
  137.3430   75.2220  221.3390 C   0  0  0  0  0  0  0  0  0  0  0  0
  136.2566   75.3614  221.2377 H   0  0  0  0  0  0  0  0  0  0  0  0
  138.2190   76.2200  220.9220 C   0  0  0  0  0  0  0  0  0  0  0  0
  137.8279   77.1529  220.4898 H   0  0  0  0  0  0  0  0  0  0  0  0
  139.5910   76.0330  221.0540 C   0  0  0  0  0  0  0  0  0  0  0  0
  140.2901   76.8165  220.7262 H   0  0  0  0  0  0  0  0  0  0  0  0
  140.0760   74.8450  221.6050 C   0  0  0  0  0  0  0  0  0  0  0  0
  141.1611   74.6980  221.7095 H   0  0  0  0  0  0  0  0  0  0  0  0
  139.2150   73.8580  222.0180 N   0  0  0  0  0  0  0  0  0  0  0  0
  139.6960   72.6900  222.5610 C   0  0  0  0  0  0  0  0  0  0  0  0
  140.9400   72.5070  222.6890 O   0  0  0  0  0  0  0  0  0  0  0  0
  138.8030   71.6890  222.9820 C   0  0  0  0  0  0  0  0  0  0  0  0
  139.2310   70.4790  223.5490 C   0  0  0  0  0  0  0  0  0  0  0  0
  140.3064   70.2706  223.6497 H   0  0  0  0  0  0  0  0  0  0  0  0
  138.2930   69.5360  223.9870 C   0  0  0  0  0  0  0  0  0  0  0  0
  138.7680   68.2850  224.6060 C   0  0  0  0  0  0  0  0  0  0  0  0
  139.0930   67.3270  223.8570 O   0  0  0  0  0  0  0  0  0  0  0  0
  138.8230   68.1020  226.0300 N   0  0  0  0  0  0  0  0  0  0  0  0
  139.9690   68.2810  226.9290 C   0  0  2  0  0  0  0  0  0  0  0  0
  139.6949   67.9491  227.9413 H   0  0  0  0  0  0  0  0  0  0  0  0
  140.3210   69.7500  227.1110 C   0  0  0  0  0  0  0  0  0  0  0  0
  139.9190   70.5010  228.2370 C   0  0  0  0  0  0  0  0  0  0  0  0
  139.3032   70.0290  229.0167 H   0  0  0  0  0  0  0  0  0  0  0  0
  140.2980   71.8400  228.3680 C   0  0  0  0  0  0  0  0  0  0  0  0
  139.9813   72.4160  229.2500 H   0  0  0  0  0  0  0  0  0  0  0  0
  141.0770   72.4480  227.3830 C   0  0  0  0  0  0  0  0  0  0  0  0
  141.3751   73.5014  227.4897 H   0  0  0  0  0  0  0  0  0  0  0  0
  141.4780   71.7190  226.2620 C   0  0  0  0  0  0  0  0  0  0  0  0
  142.0900   72.1996  225.4845 H   0  0  0  0  0  0  0  0  0  0  0  0
  141.1030   70.3790  226.1260 C   0  0  0  0  0  0  0  0  0  0  0  0
  141.4228   69.8112  225.2398 H   0  0  0  0  0  0  0  0  0  0  0  0
  141.1310   67.3740  226.5060 C   0  0  0  0  0  0  0  0  0  0  0  0
  141.6343   66.9811  227.4017 H   0  0  0  0  0  0  0  0  0  0  0  0
  140.7434   66.5371  225.9064 H   0  0  0  0  0  0  0  0  0  0  0  0
  141.8487   67.9531  225.9064 H   0  0  0  0  0  0  0  0  0  0  0  0
  1  2  1  0
  2  3  2  0
  3  4  1  0
  4  5  1  0
  5  6  1  0
  6  7  2  0
  7  8  1  0
  8  9  1  0
  8 10  2  0
 10 11  1  0
 10 12  1  0
 12 13  1  0
 12 14  2  0
 14 15  1  0
 14 16  1  0
 16 17  1  0
 17 18  2  0
 17 19  1  0
 19 20  1  0
 20 21  1  0
 20 22  2  0
 22 23  1  0
 23 24  2  0
 23 25  1  0
 25 26  1  0
 26 27  1  1
 26 28  1  0
 28 29  2  0
 29 30  1  0
 29 31  1  0
 31 32  1  0
 31 33  2  0
 33 34  1  0
 33 35  1  0
 35 36  1  0
 35 37  2  0
 37 38  1  0
 26 39  1  0
 39 40  1  0
 39 41  1  0
 39 42  1  0
 22  3  1  0
 37 28  1  0
 19  5  2  0
 16  7  1  0
M  CHG  2   4  -1  25  -1
M  END
>  <UniqueID>  (45) 
33

>  <SMILES>  (45) 
[H]/N=c1/[n-]c2nc3ccccn3c(=O)c2cc1C(=O)[N-][C@@H](C)c1ccccc1

>  <Energy>  (45) 
64.8276068987483

>  <Genealogy>  (45) 
C[C@H]([N-]C(=O)c1cc2c(=O)n3ccccc3nc2[n-]c1=N)c1ccccc1 (protonated)
[H]/N=c1/[n-]c2nc3ccccn3c(=O)c2cc1C(=O)[N-][C@@H](C)c1ccccc1 (cis-trans isomerization)
[H]/N=c1/[n-]c2nc3ccccn3c(=O)c2cc1C(=O)[N-][C@@H](C)c1ccccc1 (3D coordinates assigned)
[H]/N=c1/[n-]c2nc3ccccn3c(=O)c2cc1C(=O)[N-][C@@H](C)c1ccccc1 (optimized conformer: 64.8276068987483 kcal/mol)

>  <smiles>  (45) 
C[C@H](NC(=O)c1cc2c(=O)n3ccccc3nc2[nH]c1=N)c1ccccc1

>  <score_type>  (45) 
oracle

>  <origin>  (45) 
autodockgpu

>  <m_score__min__energy>  (45) 
-8.0099999999999998

>  <m_primary>  (45) 
energy

>  <meeko>  (45) 
{"free_energy": -7.36, "intermolecular_energy": -8.85, "internal_energy": -0.69, "cluster_size": 3, "cluster_id": 2, "rank_in_cluster": 1}

>  <energy>  (45) 
-7.99

>  <cluster_rmsd>  (45) 
0.05

>  <rmsd>  (45) 
270.38

>  <cluster>  (45) 
1

$$$$
HDANWICVGDYKAH-XBMCPTRANA-L
     RDKit          3D

 42 45  0  0  0  0  0  0  0  0999 V2000
  134.0720   67.7240  225.8470 H   0  0  0  0  0  0  0  0  0  0  0  0
  133.7390   68.5210  226.4340 N   0  0  0  0  0  0  0  0  0  0  0  0
  133.9770   69.7670  226.1640 C   0  0  0  0  0  0  0  0  0  0  0  0
  133.2350   70.7210  226.7880 N   0  0  0  0  0  0  0  0  0  0  0  0
  133.4160   72.0470  226.5570 C   0  0  0  0  0  0  0  0  0  0  0  0
  132.6600   72.9540  227.2170 N   0  0  0  0  0  0  0  0  0  0  0  0
  132.8110   74.2870  227.0110 C   0  0  0  0  0  0  0  0  0  0  0  0
  132.0030   75.1800  227.7230 C   0  0  0  0  0  0  0  0  0  0  0  0
  131.2571   74.8023  228.4379 H   0  0  0  0  0  0  0  0  0  0  0  0
  132.1490   76.5500  227.5210 C   0  0  0  0  0  0  0  0  0  0  0  0
  131.5192   77.2602  228.0768 H   0  0  0  0  0  0  0  0  0  0  0  0
  133.0940   77.0170  226.6140 C   0  0  0  0  0  0  0  0  0  0  0  0
  133.2147   78.0977  226.4480 H   0  0  0  0  0  0  0  0  0  0  0  0
  133.8890   76.1060  225.9150 C   0  0  0  0  0  0  0  0  0  0  0  0
  134.6365   76.4759  225.1978 H   0  0  0  0  0  0  0  0  0  0  0  0
  133.7490   74.7540  226.1120 N   0  0  0  0  0  0  0  0  0  0  0  0
  134.5330   73.8600  225.4220 C   0  0  0  0  0  0  0  0  0  0  0  0
  135.3980   74.2700  224.5960 O   0  0  0  0  0  0  0  0  0  0  0  0
  134.3810   72.4790  225.6350 C   0  0  0  0  0  0  0  0  0  0  0  0
  135.1550   71.5180  224.9680 C   0  0  0  0  0  0  0  0  0  0  0  0
  135.8971   71.8345  224.2203 H   0  0  0  0  0  0  0  0  0  0  0  0
  134.9860   70.1560  225.2510 C   0  0  0  0  0  0  0  0  0  0  0  0
  135.8320   69.1680  224.5580 C   0  0  0  0  0  0  0  0  0  0  0  0
  135.3270   68.4900  223.6260 O   0  0  0  0  0  0  0  0  0  0  0  0
  137.1930   68.9140  224.9410 N   0  0  0  0  0  0  0  0  0  0  0  0
  138.4090   69.6090  224.5030 C   0  0  2  0  0  0  0  0  0  0  0  0
  139.0441   68.9120  223.9366 H   0  0  0  0  0  0  0  0  0  0  0  0
  139.2820   70.0200  225.6790 C   0  0  0  0  0  0  0  0  0  0  0  0
  140.1220   71.1550  225.6500 C   0  0  0  0  0  0  0  0  0  0  0  0
  140.1802   71.7689  224.7391 H   0  0  0  0  0  0  0  0  0  0  0  0
  140.8800   71.5030  226.7720 C   0  0  0  0  0  0  0  0  0  0  0  0
  141.5298   72.3900  226.7409 H   0  0  0  0  0  0  0  0  0  0  0  0
  140.8150   70.7290  227.9310 C   0  0  0  0  0  0  0  0  0  0  0  0
  141.4113   71.0069  228.8126 H   0  0  0  0  0  0  0  0  0  0  0  0
  139.9930   69.6020  227.9710 C   0  0  0  0  0  0  0  0  0  0  0  0
  139.9447   68.9901  228.8838 H   0  0  0  0  0  0  0  0  0  0  0  0
  139.2310   69.2490  226.8540 C   0  0  0  0  0  0  0  0  0  0  0  0
  138.5851   68.3595  226.8942 H   0  0  0  0  0  0  0  0  0  0  0  0
  138.0600   70.7330  223.5190 C   0  0  0  0  0  0  0  0  0  0  0  0
  137.7793   71.6369  224.0795 H   0  0  0  0  0  0  0  0  0  0  0  0
  138.9330   70.9503  222.8860 H   0  0  0  0  0  0  0  0  0  0  0  0
  137.2175   70.4177  222.8860 H   0  0  0  0  0  0  0  0  0  0  0  0
  1  2  1  0
  2  3  2  0
  3  4  1  0
  4  5  1  0
  5  6  1  0
  6  7  2  0
  7  8  1  0
  8  9  1  0
  8 10  2  0
 10 11  1  0
 10 12  1  0
 12 13  1  0
 12 14  2  0
 14 15  1  0
 14 16  1  0
 16 17  1  0
 17 18  2  0
 17 19  1  0
 19 20  1  0
 20 21  1  0
 20 22  2  0
 22 23  1  0
 23 24  2  0
 23 25  1  0
 25 26  1  0
 26 27  1  6
 26 28  1  0
 28 29  2  0
 29 30  1  0
 29 31  1  0
 31 32  1  0
 31 33  2  0
 33 34  1  0
 33 35  1  0
 35 36  1  0
 35 37  2  0
 37 38  1  0
 26 39  1  0
 39 40  1  0
 39 41  1  0
 39 42  1  0
 22  3  1  0
 37 28  1  0
 19  5  2  0
 16  7  1  0
M  CHG  2   4  -1  25  -1
M  END
>  <UniqueID>  (46) 
33

>  <SMILES>  (46) 
[H]/N=c1/[n-]c2nc3ccccn3c(=O)c2cc1C(=O)[N-][C@@H](C)c1ccccc1

>  <Energy>  (46) 
64.8276068987483

>  <Genealogy>  (46) 
C[C@H]([N-]C(=O)c1cc2c(=O)n3ccccc3nc2[n-]c1=N)c1ccccc1 (protonated)
[H]/N=c1/[n-]c2nc3ccccn3c(=O)c2cc1C(=O)[N-][C@@H](C)c1ccccc1 (cis-trans isomerization)
[H]/N=c1/[n-]c2nc3ccccn3c(=O)c2cc1C(=O)[N-][C@@H](C)c1ccccc1 (3D coordinates assigned)
[H]/N=c1/[n-]c2nc3ccccn3c(=O)c2cc1C(=O)[N-][C@@H](C)c1ccccc1 (optimized conformer: 64.8276068987483 kcal/mol)

>  <smiles>  (46) 
C[C@H](NC(=O)c1cc2c(=O)n3ccccc3nc2[nH]c1=N)c1ccccc1

>  <score_type>  (46) 
oracle

>  <origin>  (46) 
autodockgpu

>  <m_score__min__energy>  (46) 
-8.0099999999999998

>  <m_primary>  (46) 
energy

>  <meeko>  (46) 
{"free_energy": -7.87, "intermolecular_energy": -9.37, "internal_energy": -0.4, "cluster_size": 15, "cluster_id": 1, "rank_in_cluster": 7}

>  <energy>  (46) 
-7.94

>  <cluster_rmsd>  (46) 
0.26

>  <rmsd>  (46) 
270.3

>  <cluster>  (46) 
1

$$$$
HDANWICVGDYKAH-XBMCPTRANA-L
     RDKit          3D

 42 45  0  0  0  0  0  0  0  0999 V2000
  136.0110   76.9080  223.3560 H   0  0  0  0  0  0  0  0  0  0  0  0
  136.8210   76.2480  223.3800 N   0  0  0  0  0  0  0  0  0  0  0  0
  137.9120   76.4160  222.6990 C   0  0  0  0  0  0  0  0  0  0  0  0
  138.7350   75.3500  222.5170 N   0  0  0  0  0  0  0  0  0  0  0  0
  139.8980   75.4410  221.8210 C   0  0  0  0  0  0  0  0  0  0  0  0
  140.6720   74.3440  221.6570 N   0  0  0  0  0  0  0  0  0  0  0  0
  141.8410   74.3980  220.9710 C   0  0  0  0  0  0  0  0  0  0  0  0
  142.6010   73.2320  220.8300 C   0  0  0  0  0  0  0  0  0  0  0  0
  142.2514   72.2875  221.2724 H   0  0  0  0  0  0  0  0  0  0  0  0
  143.8020   73.2730  220.1270 C   0  0  0  0  0  0  0  0  0  0  0  0
  144.4056   72.3608  220.0100 H   0  0  0  0  0  0  0  0  0  0  0  0
  144.2350   74.4740  219.5730 C   0  0  0  0  0  0  0  0  0  0  0  0
  145.1830   74.5162  219.0166 H   0  0  0  0  0  0  0  0  0  0  0  0
  143.4600   75.6250  219.7270 C   0  0  0  0  0  0  0  0  0  0  0  0
  143.8033   76.5738  219.2889 H   0  0  0  0  0  0  0  0  0  0  0  0
  142.2740   75.5870  220.4190 N   0  0  0  0  0  0  0  0  0  0  0  0
  141.5130   76.7220  220.5680 C   0  0  0  0  0  0  0  0  0  0  0  0
  141.8940   77.8190  220.0680 O   0  0  0  0  0  0  0  0  0  0  0  0
  140.3010   76.6690  221.2760 C   0  0  0  0  0  0  0  0  0  0  0  0
  139.4770   77.7910  221.4570 C   0  0  0  0  0  0  0  0  0  0  0  0
  139.7889   78.7694  221.0627 H   0  0  0  0  0  0  0  0  0  0  0  0
  138.2590   77.6690  222.1380 C   0  0  0  0  0  0  0  0  0  0  0  0
  137.3980   78.8550  222.2890 C   0  0  0  0  0  0  0  0  0  0  0  0
  136.1620   78.6860  222.4560 O   0  0  0  0  0  0  0  0  0  0  0  0
  137.9090   80.1950  222.1990 N   0  0  0  0  0  0  0  0  0  0  0  0
  138.7170   80.9300  223.1780 C   0  0  2  0  0  0  0  0  0  0  0  0
  138.7448   81.9946  222.9025 H   0  0  0  0  0  0  0  0  0  0  0  0
  140.1780   80.5070  223.1390 C   0  0  0  0  0  0  0  0  0  0  0  0
  140.6760   79.4020  223.8630 C   0  0  0  0  0  0  0  0  0  0  0  0
  139.9996   78.8220  224.5080 H   0  0  0  0  0  0  0  0  0  0  0  0
  142.0220   79.0400  223.7660 C   0  0  0  0  0  0  0  0  0  0  0  0
  142.3999   78.1767  224.3333 H   0  0  0  0  0  0  0  0  0  0  0  0
  142.8880   79.7700  222.9520 C   0  0  0  0  0  0  0  0  0  0  0  0
  143.9465   79.4806  222.8758 H   0  0  0  0  0  0  0  0  0  0  0  0
  142.4110   80.8680  222.2340 C   0  0  0  0  0  0  0  0  0  0  0  0
  143.0952   81.4454  221.5948 H   0  0  0  0  0  0  0  0  0  0  0  0
  141.0650   81.2350  222.3260 C   0  0  0  0  0  0  0  0  0  0  0  0
  140.6964   82.1013  221.7571 H   0  0  0  0  0  0  0  0  0  0  0  0
  138.0570   80.8860  224.5610 C   0  0  0  0  0  0  0  0  0  0  0  0
  138.8327   80.9377  225.3392 H   0  0  0  0  0  0  0  0  0  0  0  0
  137.3727   81.7405  224.6681 H   0  0  0  0  0  0  0  0  0  0  0  0
  137.4921   79.9482  224.6681 H   0  0  0  0  0  0  0  0  0  0  0  0
  1  2  1  0
  2  3  2  0
  3  4  1  0
  4  5  1  0
  5  6  1  0
  6  7  2  0
  7  8  1  0
  8  9  1  0
  8 10  2  0
 10 11  1  0
 10 12  1  0
 12 13  1  0
 12 14  2  0
 14 15  1  0
 14 16  1  0
 16 17  1  0
 17 18  2  0
 17 19  1  0
 19 20  1  0
 20 21  1  0
 20 22  2  0
 22 23  1  0
 23 24  2  0
 23 25  1  0
 25 26  1  0
 26 27  1  6
 26 28  1  0
 28 29  2  0
 29 30  1  0
 29 31  1  0
 31 32  1  0
 31 33  2  0
 33 34  1  0
 33 35  1  0
 35 36  1  0
 35 37  2  0
 37 38  1  0
 26 39  1  0
 39 40  1  0
 39 41  1  0
 39 42  1  0
 22  3  1  0
 37 28  1  0
 19  5  2  0
 16  7  1  0
M  CHG  2   4  -1  25  -1
M  END
>  <UniqueID>  (47) 
33

>  <SMILES>  (47) 
[H]/N=c1/[n-]c2nc3ccccn3c(=O)c2cc1C(=O)[N-][C@@H](C)c1ccccc1

>  <Energy>  (47) 
64.8276068987483

>  <Genealogy>  (47) 
C[C@H]([N-]C(=O)c1cc2c(=O)n3ccccc3nc2[n-]c1=N)c1ccccc1 (protonated)
[H]/N=c1/[n-]c2nc3ccccn3c(=O)c2cc1C(=O)[N-][C@@H](C)c1ccccc1 (cis-trans isomerization)
[H]/N=c1/[n-]c2nc3ccccn3c(=O)c2cc1C(=O)[N-][C@@H](C)c1ccccc1 (3D coordinates assigned)
[H]/N=c1/[n-]c2nc3ccccn3c(=O)c2cc1C(=O)[N-][C@@H](C)c1ccccc1 (optimized conformer: 64.8276068987483 kcal/mol)

>  <smiles>  (47) 
C[C@H](NC(=O)c1cc2c(=O)n3ccccc3nc2[nH]c1=N)c1ccccc1

>  <score_type>  (47) 
oracle

>  <origin>  (47) 
autodockgpu

>  <m_score__min__energy>  (47) 
-8.0099999999999998

>  <m_primary>  (47) 
energy

>  <meeko>  (47) 
{"free_energy": -6.16, "intermolecular_energy": -7.66, "internal_energy": -1.44, "cluster_size": 2, "cluster_id": 3, "rank_in_cluster": 1}

>  <energy>  (47) 
-7.87

>  <cluster_rmsd>  (47) 
0.66

>  <rmsd>  (47) 
270.32

>  <cluster>  (47) 
1

$$$$
HDANWICVGDYKAH-XBMCPTRANA-L
     RDKit          3D

 42 45  0  0  0  0  0  0  0  0999 V2000
  133.9960   68.1490  225.9050 H   0  0  0  0  0  0  0  0  0  0  0  0
  133.6320   68.9520  226.4660 N   0  0  0  0  0  0  0  0  0  0  0  0
  133.8860   70.1950  226.1990 C   0  0  0  0  0  0  0  0  0  0  0  0
  133.1750   71.1580  226.8450 N   0  0  0  0  0  0  0  0  0  0  0  0
  133.3750   72.4820  226.6200 C   0  0  0  0  0  0  0  0  0  0  0  0
  132.6500   73.3980  227.3020 N   0  0  0  0  0  0  0  0  0  0  0  0
  132.8210   74.7290  227.1010 C   0  0  0  0  0  0  0  0  0  0  0  0
  132.0450   75.6320  227.8360 C   0  0  0  0  0  0  0  0  0  0  0  0
  131.3080   75.2629  228.5645 H   0  0  0  0  0  0  0  0  0  0  0  0
  132.2110   77.0000  227.6400 C   0  0  0  0  0  0  0  0  0  0  0  0
  131.6051   77.7175  228.2128 H   0  0  0  0  0  0  0  0  0  0  0  0
  133.1460   77.4560  226.7170 C   0  0  0  0  0  0  0  0  0  0  0  0
  133.2837   78.5355  226.5566 H   0  0  0  0  0  0  0  0  0  0  0  0
  133.9090   76.5360  225.9950 C   0  0  0  0  0  0  0  0  0  0  0  0
  134.6482   76.8975  225.2650 H   0  0  0  0  0  0  0  0  0  0  0  0
  133.7480   75.1850  226.1850 N   0  0  0  0  0  0  0  0  0  0  0  0
  134.5020   74.2820  225.4740 C   0  0  0  0  0  0  0  0  0  0  0  0
  135.3560   74.6830  224.6320 O   0  0  0  0  0  0  0  0  0  0  0  0
  134.3290   72.9030  225.6800 C   0  0  0  0  0  0  0  0  0  0  0  0
  135.0710   71.9330  224.9900 C   0  0  0  0  0  0  0  0  0  0  0  0
  135.8029   72.2414  224.2289 H   0  0  0  0  0  0  0  0  0  0  0  0
  134.8830   70.5730  225.2670 C   0  0  0  0  0  0  0  0  0  0  0  0
  135.6970   69.5740  224.5500 C   0  0  0  0  0  0  0  0  0  0  0  0
  135.1370   68.5260  224.1350 O   0  0  0  0  0  0  0  0  0  0  0  0
  137.1110   69.7290  224.3540 N   0  0  0  0  0  0  0  0  0  0  0  0
  138.2010   68.9080  224.8920 C   0  0  2  0  0  0  0  0  0  0  0  0
  137.7833   68.1390  225.5585 H   0  0  0  0  0  0  0  0  0  0  0  0
  139.1230   69.7120  225.7980 C   0  0  0  0  0  0  0  0  0  0  0  0
  139.3010   69.4160  227.1670 C   0  0  0  0  0  0  0  0  0  0  0  0
  138.7412   68.5868  227.6242 H   0  0  0  0  0  0  0  0  0  0  0  0
  140.1840   70.1700  227.9450 C   0  0  0  0  0  0  0  0  0  0  0  0
  140.3173   69.9311  229.0105 H   0  0  0  0  0  0  0  0  0  0  0  0
  140.8970   71.2250  227.3740 C   0  0  0  0  0  0  0  0  0  0  0  0
  141.5930   71.8147  227.9886 H   0  0  0  0  0  0  0  0  0  0  0  0
  140.7270   71.5320  226.0230 C   0  0  0  0  0  0  0  0  0  0  0  0
  141.2869   72.3659  225.5745 H   0  0  0  0  0  0  0  0  0  0  0  0
  139.8460   70.7810  225.2390 C   0  0  0  0  0  0  0  0  0  0  0  0
  139.7171   71.0286  224.1750 H   0  0  0  0  0  0  0  0  0  0  0  0
  138.8980   68.1350  223.7660 C   0  0  0  0  0  0  0  0  0  0  0  0
  139.5746   67.3846  224.2007 H   0  0  0  0  0  0  0  0  0  0  0  0
  138.1426   67.6315  223.1448 H   0  0  0  0  0  0  0  0  0  0  0  0
  139.4767   68.8344  223.1448 H   0  0  0  0  0  0  0  0  0  0  0  0
  1  2  1  0
  2  3  2  0
  3  4  1  0
  4  5  1  0
  5  6  1  0
  6  7  2  0
  7  8  1  0
  8  9  1  0
  8 10  2  0
 10 11  1  0
 10 12  1  0
 12 13  1  0
 12 14  2  0
 14 15  1  0
 14 16  1  0
 16 17  1  0
 17 18  2  0
 17 19  1  0
 19 20  1  0
 20 21  1  0
 20 22  2  0
 22 23  1  0
 23 24  2  0
 23 25  1  0
 25 26  1  0
 26 27  1  1
 26 28  1  0
 28 29  2  0
 29 30  1  0
 29 31  1  0
 31 32  1  0
 31 33  2  0
 33 34  1  0
 33 35  1  0
 35 36  1  0
 35 37  2  0
 37 38  1  0
 26 39  1  0
 39 40  1  0
 39 41  1  0
 39 42  1  0
 22  3  1  0
 37 28  1  0
 19  5  2  0
 16  7  1  0
M  CHG  2   4  -1  25  -1
M  END
>  <UniqueID>  (48) 
33

>  <SMILES>  (48) 
[H]/N=c1/[n-]c2nc3ccccn3c(=O)c2cc1C(=O)[N-][C@@H](C)c1ccccc1

>  <Energy>  (48) 
64.8276068987483

>  <Genealogy>  (48) 
C[C@H]([N-]C(=O)c1cc2c(=O)n3ccccc3nc2[n-]c1=N)c1ccccc1 (protonated)
[H]/N=c1/[n-]c2nc3ccccn3c(=O)c2cc1C(=O)[N-][C@@H](C)c1ccccc1 (cis-trans isomerization)
[H]/N=c1/[n-]c2nc3ccccn3c(=O)c2cc1C(=O)[N-][C@@H](C)c1ccccc1 (3D coordinates assigned)
[H]/N=c1/[n-]c2nc3ccccn3c(=O)c2cc1C(=O)[N-][C@@H](C)c1ccccc1 (optimized conformer: 64.8276068987483 kcal/mol)

>  <smiles>  (48) 
C[C@H](NC(=O)c1cc2c(=O)n3ccccc3nc2[nH]c1=N)c1ccccc1

>  <score_type>  (48) 
oracle

>  <origin>  (48) 
autodockgpu

>  <m_score__min__energy>  (48) 
-8.0099999999999998

>  <m_primary>  (48) 
energy

>  <meeko>  (48) 
{"free_energy": -7.99, "intermolecular_energy": -9.48, "internal_energy": -0.71, "cluster_size": 15, "cluster_id": 1, "rank_in_cluster": 5}

>  <energy>  (48) 
-7.86

>  <cluster_rmsd>  (48) 
0.61

>  <rmsd>  (48) 
270.33

>  <cluster>  (48) 
1

$$$$
HDANWICVGDYKAH-XBMCPTRANA-L
     RDKit          3D

 42 45  0  0  0  0  0  0  0  0999 V2000
  133.9380   67.8260  225.8700 H   0  0  0  0  0  0  0  0  0  0  0  0
  133.6440   68.6300  226.4690 N   0  0  0  0  0  0  0  0  0  0  0  0
  133.9050   69.8700  226.1950 C   0  0  0  0  0  0  0  0  0  0  0  0
  133.1770   70.8400  226.8090 N   0  0  0  0  0  0  0  0  0  0  0  0
  133.3830   72.1620  226.5740 C   0  0  0  0  0  0  0  0  0  0  0  0
  132.6400   73.0850  227.2260 N   0  0  0  0  0  0  0  0  0  0  0  0
  132.8160   74.4140  227.0140 C   0  0  0  0  0  0  0  0  0  0  0  0
  132.0210   75.3250  227.7170 C   0  0  0  0  0  0  0  0  0  0  0  0
  131.2643   74.9644  228.4293 H   0  0  0  0  0  0  0  0  0  0  0  0
  132.1930   76.6910  227.5100 C   0  0  0  0  0  0  0  0  0  0  0  0
  131.5735   77.4152  228.0594 H   0  0  0  0  0  0  0  0  0  0  0  0
  133.1510   77.1360  226.6060 C   0  0  0  0  0  0  0  0  0  0  0  0
  133.2920   78.2135  226.4354 H   0  0  0  0  0  0  0  0  0  0  0  0
  133.9330   76.2080  225.9160 C   0  0  0  0  0  0  0  0  0  0  0  0
  134.6910   76.5613  225.2014 H   0  0  0  0  0  0  0  0  0  0  0  0
  133.7680   74.8590  226.1180 N   0  0  0  0  0  0  0  0  0  0  0  0
  134.5400   73.9480  225.4370 C   0  0  0  0  0  0  0  0  0  0  0  0
  135.4160   74.3390  224.6140 O   0  0  0  0  0  0  0  0  0  0  0  0
  134.3610   72.5710  225.6550 C   0  0  0  0  0  0  0  0  0  0  0  0
  135.1220   71.5930  224.9970 C   0  0  0  0  0  0  0  0  0  0  0  0
  135.8747   71.8926  224.2529 H   0  0  0  0  0  0  0  0  0  0  0  0
  134.9260   70.2360  225.2850 C   0  0  0  0  0  0  0  0  0  0  0  0
  135.7580   69.2300  224.6010 C   0  0  0  0  0  0  0  0  0  0  0  0
  135.2290   68.5140  223.7110 O   0  0  0  0  0  0  0  0  0  0  0  0
  137.1330   69.0000  224.9490 N   0  0  0  0  0  0  0  0  0  0  0  0
  138.3230   69.7250  224.4910 C   0  0  2  0  0  0  0  0  0  0  0  0
  138.9476   69.0539  223.8832 H   0  0  0  0  0  0  0  0  0  0  0  0
  139.2300   70.1150  225.6490 C   0  0  0  0  0  0  0  0  0  0  0  0
  139.2280   69.4350  226.8870 C   0  0  0  0  0  0  0  0  0  0  0  0
  138.5316   68.5993  227.0502 H   0  0  0  0  0  0  0  0  0  0  0  0
  140.1050   69.8170  227.9060 C   0  0  0  0  0  0  0  0  0  0  0  0
  140.0973   69.2802  228.8661 H   0  0  0  0  0  0  0  0  0  0  0  0
  140.9900   70.8770  227.7090 C   0  0  0  0  0  0  0  0  0  0  0  0
  141.6808   71.1734  228.5121 H   0  0  0  0  0  0  0  0  0  0  0  0
  140.9990   71.5620  226.4920 C   0  0  0  0  0  0  0  0  0  0  0  0
  141.6943   72.4005  226.3391 H   0  0  0  0  0  0  0  0  0  0  0  0
  140.1260   71.1840  225.4680 C   0  0  0  0  0  0  0  0  0  0  0  0
  140.1398   71.7275  224.5118 H   0  0  0  0  0  0  0  0  0  0  0  0
  137.9260   70.8710  223.5530 C   0  0  0  0  0  0  0  0  0  0  0  0
  137.6234   71.7446  224.1490 H   0  0  0  0  0  0  0  0  0  0  0  0
  138.7836   71.1393  222.9185 H   0  0  0  0  0  0  0  0  0  0  0  0
  137.0862   70.5513  222.9185 H   0  0  0  0  0  0  0  0  0  0  0  0
  1  2  1  0
  2  3  2  0
  3  4  1  0
  4  5  1  0
  5  6  1  0
  6  7  2  0
  7  8  1  0
  8  9  1  0
  8 10  2  0
 10 11  1  0
 10 12  1  0
 12 13  1  0
 12 14  2  0
 14 15  1  0
 14 16  1  0
 16 17  1  0
 17 18  2  0
 17 19  1  0
 19 20  1  0
 20 21  1  0
 20 22  2  0
 22 23  1  0
 23 24  2  0
 23 25  1  0
 25 26  1  0
 26 27  1  6
 26 28  1  0
 28 29  2  0
 29 30  1  0
 29 31  1  0
 31 32  1  0
 31 33  2  0
 33 34  1  0
 33 35  1  0
 35 36  1  0
 35 37  2  0
 37 38  1  0
 26 39  1  0
 39 40  1  0
 39 41  1  0
 39 42  1  0
 22  3  1  0
 37 28  1  0
 19  5  2  0
 16  7  1  0
M  CHG  2   4  -1  25  -1
M  END
>  <UniqueID>  (49) 
33

>  <SMILES>  (49) 
[H]/N=c1/[n-]c2nc3ccccn3c(=O)c2cc1C(=O)[N-][C@@H](C)c1ccccc1

>  <Energy>  (49) 
64.8276068987483

>  <Genealogy>  (49) 
C[C@H]([N-]C(=O)c1cc2c(=O)n3ccccc3nc2[n-]c1=N)c1ccccc1 (protonated)
[H]/N=c1/[n-]c2nc3ccccn3c(=O)c2cc1C(=O)[N-][C@@H](C)c1ccccc1 (cis-trans isomerization)
[H]/N=c1/[n-]c2nc3ccccn3c(=O)c2cc1C(=O)[N-][C@@H](C)c1ccccc1 (3D coordinates assigned)
[H]/N=c1/[n-]c2nc3ccccn3c(=O)c2cc1C(=O)[N-][C@@H](C)c1ccccc1 (optimized conformer: 64.8276068987483 kcal/mol)

>  <smiles>  (49) 
C[C@H](NC(=O)c1cc2c(=O)n3ccccc3nc2[nH]c1=N)c1ccccc1

>  <score_type>  (49) 
oracle

>  <origin>  (49) 
autodockgpu

>  <m_score__min__energy>  (49) 
-8.0099999999999998

>  <m_primary>  (49) 
energy

>  <meeko>  (49) 
{"free_energy": -7.86, "intermolecular_energy": -9.35, "internal_energy": -0.41, "cluster_size": 15, "cluster_id": 1, "rank_in_cluster": 8}

>  <energy>  (49) 
-7.85

>  <cluster_rmsd>  (49) 
0.26

>  <rmsd>  (49) 
270.36

>  <cluster>  (49) 
1

$$$$
HDANWICVGDYKAH-XBMCPTRANA-L
     RDKit          3D

 42 45  0  0  0  0  0  0  0  0999 V2000
  133.8110   68.1610  225.8270 H   0  0  0  0  0  0  0  0  0  0  0  0
  133.5970   68.9530  226.4740 N   0  0  0  0  0  0  0  0  0  0  0  0
  133.8620   70.1950  226.2090 C   0  0  0  0  0  0  0  0  0  0  0  0
  133.1550   71.1630  226.8510 N   0  0  0  0  0  0  0  0  0  0  0  0
  133.3650   72.4860  226.6280 C   0  0  0  0  0  0  0  0  0  0  0  0
  132.6430   73.4060  227.3060 N   0  0  0  0  0  0  0  0  0  0  0  0
  132.8250   74.7360  227.1070 C   0  0  0  0  0  0  0  0  0  0  0  0
  132.0510   75.6440  227.8370 C   0  0  0  0  0  0  0  0  0  0  0  0
  131.3061   75.2801  228.5600 H   0  0  0  0  0  0  0  0  0  0  0  0
  132.2290   77.0110  227.6430 C   0  0  0  0  0  0  0  0  0  0  0  0
  131.6264   77.7326  228.2141 H   0  0  0  0  0  0  0  0  0  0  0  0
  133.1710   77.4610  226.7250 C   0  0  0  0  0  0  0  0  0  0  0  0
  133.3161   78.5395  226.5644 H   0  0  0  0  0  0  0  0  0  0  0  0
  133.9320   76.5350  226.0080 C   0  0  0  0  0  0  0  0  0  0  0  0
  134.6784   76.8915  225.2829 H   0  0  0  0  0  0  0  0  0  0  0  0
  133.7610   75.1860  226.1960 N   0  0  0  0  0  0  0  0  0  0  0  0
  134.5120   74.2780  225.4890 C   0  0  0  0  0  0  0  0  0  0  0  0
  135.3740   74.6720  224.6530 O   0  0  0  0  0  0  0  0  0  0  0  0
  134.3270   72.9000  225.6940 C   0  0  0  0  0  0  0  0  0  0  0  0
  135.0670   71.9240  225.0080 C   0  0  0  0  0  0  0  0  0  0  0  0
  135.8063   72.2273  224.2521 H   0  0  0  0  0  0  0  0  0  0  0  0
  134.8670   70.5650  225.2830 C   0  0  0  0  0  0  0  0  0  0  0  0
  135.6770   69.5610  224.5700 C   0  0  0  0  0  0  0  0  0  0  0  0
  135.1240   68.4950  224.1970 O   0  0  0  0  0  0  0  0  0  0  0  0
  137.0840   69.7320  224.3340 N   0  0  0  0  0  0  0  0  0  0  0  0
  138.1950   68.8960  224.8010 C   0  0  2  0  0  0  0  0  0  0  0  0
  137.8049   68.1039  225.4571 H   0  0  0  0  0  0  0  0  0  0  0  0
  139.1500   69.6710  225.6960 C   0  0  0  0  0  0  0  0  0  0  0  0
  139.9110   70.7690  225.2370 C   0  0  0  0  0  0  0  0  0  0  0  0
  139.8427   71.0790  224.1838 H   0  0  0  0  0  0  0  0  0  0  0  0
  140.7500   71.4640  226.1120 C   0  0  0  0  0  0  0  0  0  0  0  0
  141.3368   72.3192  225.7454 H   0  0  0  0  0  0  0  0  0  0  0  0
  140.8460   71.0770  227.4490 C   0  0  0  0  0  0  0  0  0  0  0  0
  141.5058   71.6279  228.1355 H   0  0  0  0  0  0  0  0  0  0  0  0
  140.1040   69.9900  227.9150 C   0  0  0  0  0  0  0  0  0  0  0  0
  140.1821   69.6831  228.9684 H   0  0  0  0  0  0  0  0  0  0  0  0
  139.2620   69.2910  227.0450 C   0  0  0  0  0  0  0  0  0  0  0  0
  138.6813   68.4352  227.4196 H   0  0  0  0  0  0  0  0  0  0  0  0
  138.8480   68.1630  223.6230 C   0  0  0  0  0  0  0  0  0  0  0  0
  139.5341   67.3928  224.0053 H   0  0  0  0  0  0  0  0  0  0  0  0
  138.0685   67.6877  223.0094 H   0  0  0  0  0  0  0  0  0  0  0  0
  139.4098   68.8826  223.0094 H   0  0  0  0  0  0  0  0  0  0  0  0
  1  2  1  0
  2  3  2  0
  3  4  1  0
  4  5  1  0
  5  6  1  0
  6  7  2  0
  7  8  1  0
  8  9  1  0
  8 10  2  0
 10 11  1  0
 10 12  1  0
 12 13  1  0
 12 14  2  0
 14 15  1  0
 14 16  1  0
 16 17  1  0
 17 18  2  0
 17 19  1  0
 19 20  1  0
 20 21  1  0
 20 22  2  0
 22 23  1  0
 23 24  2  0
 23 25  1  0
 25 26  1  0
 26 27  1  1
 26 28  1  0
 28 29  2  0
 29 30  1  0
 29 31  1  0
 31 32  1  0
 31 33  2  0
 33 34  1  0
 33 35  1  0
 35 36  1  0
 35 37  2  0
 37 38  1  0
 26 39  1  0
 39 40  1  0
 39 41  1  0
 39 42  1  0
 22  3  1  0
 37 28  1  0
 19  5  2  0
 16  7  1  0
M  CHG  2   4  -1  25  -1
M  END
>  <UniqueID>  (50) 
33

>  <SMILES>  (50) 
[H]/N=c1/[n-]c2nc3ccccn3c(=O)c2cc1C(=O)[N-][C@@H](C)c1ccccc1

>  <Energy>  (50) 
64.8276068987483

>  <Genealogy>  (50) 
C[C@H]([N-]C(=O)c1cc2c(=O)n3ccccc3nc2[n-]c1=N)c1ccccc1 (protonated)
[H]/N=c1/[n-]c2nc3ccccn3c(=O)c2cc1C(=O)[N-][C@@H](C)c1ccccc1 (cis-trans isomerization)
[H]/N=c1/[n-]c2nc3ccccn3c(=O)c2cc1C(=O)[N-][C@@H](C)c1ccccc1 (3D coordinates assigned)
[H]/N=c1/[n-]c2nc3ccccn3c(=O)c2cc1C(=O)[N-][C@@H](C)c1ccccc1 (optimized conformer: 64.8276068987483 kcal/mol)

>  <smiles>  (50) 
C[C@H](NC(=O)c1cc2c(=O)n3ccccc3nc2[nH]c1=N)c1ccccc1

>  <score_type>  (50) 
oracle

>  <origin>  (50) 
autodockgpu

>  <m_score__min__energy>  (50) 
-8.0099999999999998

>  <m_primary>  (50) 
energy

>  <meeko>  (50) 
{"free_energy": -8.0, "intermolecular_energy": -9.49, "internal_energy": -0.7, "cluster_size": 15, "cluster_id": 1, "rank_in_cluster": 4}

>  <energy>  (50) 
-7.83

>  <cluster_rmsd>  (50) 
0.63

>  <rmsd>  (50) 
270.29

>  <cluster>  (50) 
1

$$$$
HDANWICVGDYKAH-XBMCPTRANA-L
     RDKit          3D

 42 45  0  0  0  0  0  0  0  0999 V2000
  136.0640   77.0340  223.3430 H   0  0  0  0  0  0  0  0  0  0  0  0
  136.8700   76.3690  223.3700 N   0  0  0  0  0  0  0  0  0  0  0  0
  137.9580   76.5230  222.6820 C   0  0  0  0  0  0  0  0  0  0  0  0
  138.7800   75.4540  222.5160 N   0  0  0  0  0  0  0  0  0  0  0  0
  139.9410   75.5310  221.8150 C   0  0  0  0  0  0  0  0  0  0  0  0
  140.7140   74.4310  221.6680 N   0  0  0  0  0  0  0  0  0  0  0  0
  141.8800   74.4720  220.9760 C   0  0  0  0  0  0  0  0  0  0  0  0
  142.6390   73.3030  220.8550 C   0  0  0  0  0  0  0  0  0  0  0  0
  142.2910   72.3672  221.3167 H   0  0  0  0  0  0  0  0  0  0  0  0
  143.8370   73.3310  220.1470 C   0  0  0  0  0  0  0  0  0  0  0  0
  144.4397   72.4165  220.0450 H   0  0  0  0  0  0  0  0  0  0  0  0
  144.2690   74.5200  219.5690 C   0  0  0  0  0  0  0  0  0  0  0  0
  145.2156   74.5512  219.0096 H   0  0  0  0  0  0  0  0  0  0  0  0
  143.4940   75.6740  219.7030 C   0  0  0  0  0  0  0  0  0  0  0  0
  143.8354   76.6138  219.2446 H   0  0  0  0  0  0  0  0  0  0  0  0
  142.3110   75.6500  220.4000 N   0  0  0  0  0  0  0  0  0  0  0  0
  141.5510   76.7880  220.5300 C   0  0  0  0  0  0  0  0  0  0  0  0
  141.9300   77.8750  220.0080 O   0  0  0  0  0  0  0  0  0  0  0  0
  140.3410   76.7490  221.2450 C   0  0  0  0  0  0  0  0  0  0  0  0
  139.5190   77.8740  221.4070 C   0  0  0  0  0  0  0  0  0  0  0  0
  139.8295   78.8445  220.9925 H   0  0  0  0  0  0  0  0  0  0  0  0
  138.3040   77.7650  222.0950 C   0  0  0  0  0  0  0  0  0  0  0  0
  137.4430   78.9550  222.2270 C   0  0  0  0  0  0  0  0  0  0  0  0
  136.1980   78.7920  222.3070 O   0  0  0  0  0  0  0  0  0  0  0  0
  137.9690   80.2920  222.2130 N   0  0  0  0  0  0  0  0  0  0  0  0
  138.7700   80.9670  223.2400 C   0  0  2  0  0  0  0  0  0  0  0  0
  138.8159   82.0432  223.0173 H   0  0  0  0  0  0  0  0  0  0  0  0
  140.2260   80.5250  223.2040 C   0  0  0  0  0  0  0  0  0  0  0  0
  140.7010   79.3930  223.9020 C   0  0  0  0  0  0  0  0  0  0  0  0
  140.0100   78.8049  224.5238 H   0  0  0  0  0  0  0  0  0  0  0  0
  142.0430   79.0150  223.8080 C   0  0  0  0  0  0  0  0  0  0  0  0
  142.4029   78.1304  224.3538 H   0  0  0  0  0  0  0  0  0  0  0  0
  142.9280   79.7560  223.0240 C   0  0  0  0  0  0  0  0  0  0  0  0
  143.9834   79.4548  222.9512 H   0  0  0  0  0  0  0  0  0  0  0  0
  142.4730   80.8800  222.3320 C   0  0  0  0  0  0  0  0  0  0  0  0
  143.1713   81.4653  221.7157 H   0  0  0  0  0  0  0  0  0  0  0  0
  141.1310   81.2630  222.4210 C   0  0  0  0  0  0  0  0  0  0  0  0
  140.7801   82.1500  221.8732 H   0  0  0  0  0  0  0  0  0  0  0  0
  138.0870   80.8650  224.6090 C   0  0  0  0  0  0  0  0  0  0  0  0
  138.8395   80.9774  225.4035 H   0  0  0  0  0  0  0  0  0  0  0  0
  137.3331   81.6605  224.7028 H   0  0  0  0  0  0  0  0  0  0  0  0
  137.5984   79.8839  224.7028 H   0  0  0  0  0  0  0  0  0  0  0  0
  1  2  1  0
  2  3  2  0
  3  4  1  0
  4  5  1  0
  5  6  1  0
  6  7  2  0
  7  8  1  0
  8  9  1  0
  8 10  2  0
 10 11  1  0
 10 12  1  0
 12 13  1  0
 12 14  2  0
 14 15  1  0
 14 16  1  0
 16 17  1  0
 17 18  2  0
 17 19  1  0
 19 20  1  0
 20 21  1  0
 20 22  2  0
 22 23  1  0
 23 24  2  0
 23 25  1  0
 25 26  1  0
 26 27  1  6
 26 28  1  0
 28 29  2  0
 29 30  1  0
 29 31  1  0
 31 32  1  0
 31 33  2  0
 33 34  1  0
 33 35  1  0
 35 36  1  0
 35 37  2  0
 37 38  1  0
 26 39  1  0
 39 40  1  0
 39 41  1  0
 39 42  1  0
 22  3  1  0
 37 28  1  0
 19  5  2  0
 16  7  1  0
M  CHG  2   4  -1  25  -1
M  END
>  <UniqueID>  (51) 
33

>  <SMILES>  (51) 
[H]/N=c1/[n-]c2nc3ccccn3c(=O)c2cc1C(=O)[N-][C@@H](C)c1ccccc1

>  <Energy>  (51) 
64.8276068987483

>  <Genealogy>  (51) 
C[C@H]([N-]C(=O)c1cc2c(=O)n3ccccc3nc2[n-]c1=N)c1ccccc1 (protonated)
[H]/N=c1/[n-]c2nc3ccccn3c(=O)c2cc1C(=O)[N-][C@@H](C)c1ccccc1 (cis-trans isomerization)
[H]/N=c1/[n-]c2nc3ccccn3c(=O)c2cc1C(=O)[N-][C@@H](C)c1ccccc1 (3D coordinates assigned)
[H]/N=c1/[n-]c2nc3ccccn3c(=O)c2cc1C(=O)[N-][C@@H](C)c1ccccc1 (optimized conformer: 64.8276068987483 kcal/mol)

>  <smiles>  (51) 
C[C@H](NC(=O)c1cc2c(=O)n3ccccc3nc2[nH]c1=N)c1ccccc1

>  <score_type>  (51) 
oracle

>  <origin>  (51) 
autodockgpu

>  <m_score__min__energy>  (51) 
-8.0099999999999998

>  <m_primary>  (51) 
energy

>  <meeko>  (51) 
{"free_energy": -6.16, "intermolecular_energy": -7.65, "internal_energy": -1.48, "cluster_size": 2, "cluster_id": 3, "rank_in_cluster": 2}

>  <energy>  (51) 
-7.81

>  <cluster_rmsd>  (51) 
0.32

>  <rmsd>  (51) 
270.32

>  <cluster>  (51) 
1

$$$$
HDANWICVGDYKAH-XBMCPTRANA-L
     RDKit          3D

 42 45  0  0  0  0  0  0  0  0999 V2000
  134.1450   68.1680  225.8960 H   0  0  0  0  0  0  0  0  0  0  0  0
  133.7850   68.9590  226.4750 N   0  0  0  0  0  0  0  0  0  0  0  0
  133.9970   70.2100  226.2020 C   0  0  0  0  0  0  0  0  0  0  0  0
  133.2640   71.1510  226.8540 N   0  0  0  0  0  0  0  0  0  0  0  0
  133.4190   72.4800  226.6230 C   0  0  0  0  0  0  0  0  0  0  0  0
  132.6740   73.3750  227.3120 N   0  0  0  0  0  0  0  0  0  0  0  0
  132.8010   74.7100  227.1060 C   0  0  0  0  0  0  0  0  0  0  0  0
  132.0060   75.5900  227.8480 C   0  0  0  0  0  0  0  0  0  0  0  0
  131.2896   75.1995  228.5858 H   0  0  0  0  0  0  0  0  0  0  0  0
  132.1260   76.9620  227.6480 C   0  0  0  0  0  0  0  0  0  0  0  0
  131.5059   77.6613  228.2280 H   0  0  0  0  0  0  0  0  0  0  0  0
  133.0340   77.4450  226.7110 C   0  0  0  0  0  0  0  0  0  0  0  0
  133.1347   78.5278  226.5453 H   0  0  0  0  0  0  0  0  0  0  0  0
  133.8170   76.5470  225.9820 C   0  0  0  0  0  0  0  0  0  0  0  0
  134.5349   76.9295  225.2415 H   0  0  0  0  0  0  0  0  0  0  0  0
  133.7020   75.1920  226.1780 N   0  0  0  0  0  0  0  0  0  0  0  0
  134.4740   74.3120  225.4590 C   0  0  0  0  0  0  0  0  0  0  0  0
  135.3050   74.7370  224.6060 O   0  0  0  0  0  0  0  0  0  0  0  0
  134.3470   72.9280  225.6710 C   0  0  0  0  0  0  0  0  0  0  0  0
  135.1110   71.9800  224.9740 C   0  0  0  0  0  0  0  0  0  0  0  0
  135.8230   72.3094  224.2029 H   0  0  0  0  0  0  0  0  0  0  0  0
  134.9700   70.6150  225.2570 C   0  0  0  0  0  0  0  0  0  0  0  0
  135.8050   69.6410  224.5320 C   0  0  0  0  0  0  0  0  0  0  0  0
  135.3230   68.5080  224.2730 O   0  0  0  0  0  0  0  0  0  0  0  0
  137.1640   69.9180  224.1570 N   0  0  0  0  0  0  0  0  0  0  0  0
  138.3680   69.1330  224.4480 C   0  0  2  0  0  0  0  0  0  0  0  0
  138.0758   68.1602  224.8702 H   0  0  0  0  0  0  0  0  0  0  0  0
  139.2070   69.7680  225.5470 C   0  0  0  0  0  0  0  0  0  0  0  0
  139.9660   70.9420  225.3510 C   0  0  0  0  0  0  0  0  0  0  0  0
  139.9848   71.4212  224.3610 H   0  0  0  0  0  0  0  0  0  0  0  0
  140.6940   71.5000  226.4060 C   0  0  0  0  0  0  0  0  0  0  0  0
  141.2793   72.4171  226.2440 H   0  0  0  0  0  0  0  0  0  0  0  0
  140.6800   70.8970  227.6630 C   0  0  0  0  0  0  0  0  0  0  0  0
  141.2530   71.3393  228.4913 H   0  0  0  0  0  0  0  0  0  0  0  0
  139.9390   69.7320  227.8710 C   0  0  0  0  0  0  0  0  0  0  0  0
  139.9309   69.2557  228.8625 H   0  0  0  0  0  0  0  0  0  0  0  0
  139.2070   69.1700  226.8200 C   0  0  0  0  0  0  0  0  0  0  0  0
  138.6259   68.2517  226.9906 H   0  0  0  0  0  0  0  0  0  0  0  0
  139.1210   68.8040  223.1540 C   0  0  0  0  0  0  0  0  0  0  0  0
  140.1034   68.3748  223.4004 H   0  0  0  0  0  0  0  0  0  0  0  0
  138.5404   68.0775  222.5665 H   0  0  0  0  0  0  0  0  0  0  0  0
  139.2596   69.7236  222.5665 H   0  0  0  0  0  0  0  0  0  0  0  0
  1  2  1  0
  2  3  2  0
  3  4  1  0
  4  5  1  0
  5  6  1  0
  6  7  2  0
  7  8  1  0
  8  9  1  0
  8 10  2  0
 10 11  1  0
 10 12  1  0
 12 13  1  0
 12 14  2  0
 14 15  1  0
 14 16  1  0
 16 17  1  0
 17 18  2  0
 17 19  1  0
 19 20  1  0
 20 21  1  0
 20 22  2  0
 22 23  1  0
 23 24  2  0
 23 25  1  0
 25 26  1  0
 26 27  1  1
 26 28  1  0
 28 29  2  0
 29 30  1  0
 29 31  1  0
 31 32  1  0
 31 33  2  0
 33 34  1  0
 33 35  1  0
 35 36  1  0
 35 37  2  0
 37 38  1  0
 26 39  1  0
 39 40  1  0
 39 41  1  0
 39 42  1  0
 22  3  1  0
 37 28  1  0
 19  5  2  0
 16  7  1  0
M  CHG  2   4  -1  25  -1
M  END
>  <UniqueID>  (52) 
33

>  <SMILES>  (52) 
[H]/N=c1/[n-]c2nc3ccccn3c(=O)c2cc1C(=O)[N-][C@@H](C)c1ccccc1

>  <Energy>  (52) 
64.8276068987483

>  <Genealogy>  (52) 
C[C@H]([N-]C(=O)c1cc2c(=O)n3ccccc3nc2[n-]c1=N)c1ccccc1 (protonated)
[H]/N=c1/[n-]c2nc3ccccn3c(=O)c2cc1C(=O)[N-][C@@H](C)c1ccccc1 (cis-trans isomerization)
[H]/N=c1/[n-]c2nc3ccccn3c(=O)c2cc1C(=O)[N-][C@@H](C)c1ccccc1 (3D coordinates assigned)
[H]/N=c1/[n-]c2nc3ccccn3c(=O)c2cc1C(=O)[N-][C@@H](C)c1ccccc1 (optimized conformer: 64.8276068987483 kcal/mol)

>  <smiles>  (52) 
C[C@H](NC(=O)c1cc2c(=O)n3ccccc3nc2[nH]c1=N)c1ccccc1

>  <score_type>  (52) 
oracle

>  <origin>  (52) 
autodockgpu

>  <m_score__min__energy>  (52) 
-8.0099999999999998

>  <m_primary>  (52) 
energy

>  <meeko>  (52) 
{"free_energy": -7.85, "intermolecular_energy": -9.34, "internal_energy": -0.71, "cluster_size": 15, "cluster_id": 1, "rank_in_cluster": 9}

>  <energy>  (52) 
-7.79

>  <cluster_rmsd>  (52) 
0.38

>  <rmsd>  (52) 
270.37

>  <cluster>  (52) 
1

$$$$
HDANWICVGDYKAH-XBMCPTRANA-L
     RDKit          3D

 42 45  0  0  0  0  0  0  0  0999 V2000
  134.0780   68.0970  225.8860 H   0  0  0  0  0  0  0  0  0  0  0  0
  133.7180   68.8910  226.4610 N   0  0  0  0  0  0  0  0  0  0  0  0
  133.9490   70.1390  226.1970 C   0  0  0  0  0  0  0  0  0  0  0  0
  133.2290   71.0880  226.8520 N   0  0  0  0  0  0  0  0  0  0  0  0
  133.4060   72.4160  226.6300 C   0  0  0  0  0  0  0  0  0  0  0  0
  132.6720   73.3180  227.3230 N   0  0  0  0  0  0  0  0  0  0  0  0
  132.8200   74.6520  227.1250 C   0  0  0  0  0  0  0  0  0  0  0  0
  132.0360   75.5400  227.8700 C   0  0  0  0  0  0  0  0  0  0  0  0
  131.3109   75.1567  228.6031 H   0  0  0  0  0  0  0  0  0  0  0  0
  132.1790   76.9110  227.6780 C   0  0  0  0  0  0  0  0  0  0  0  0
  131.5688   77.6168  228.2607 H   0  0  0  0  0  0  0  0  0  0  0  0
  133.0960   77.3850  226.7470 C   0  0  0  0  0  0  0  0  0  0  0  0
  133.2135   78.4671  226.5879 H   0  0  0  0  0  0  0  0  0  0  0  0
  133.8670   76.4800  226.0150 C   0  0  0  0  0  0  0  0  0  0  0  0
  134.5933   76.8559  225.2793 H   0  0  0  0  0  0  0  0  0  0  0  0
  133.7300   75.1260  226.2020 N   0  0  0  0  0  0  0  0  0  0  0  0
  134.4910   74.2380  225.4800 C   0  0  0  0  0  0  0  0  0  0  0  0
  135.3310   74.6550  224.6310 O   0  0  0  0  0  0  0  0  0  0  0  0
  134.3420   72.8560  225.6830 C   0  0  0  0  0  0  0  0  0  0  0  0
  135.0940   71.9000  224.9820 C   0  0  0  0  0  0  0  0  0  0  0  0
  135.8135   72.2231  224.2152 H   0  0  0  0  0  0  0  0  0  0  0  0
  134.9310   70.5360  225.2560 C   0  0  0  0  0  0  0  0  0  0  0  0
  135.7530   69.5530  224.5270 C   0  0  0  0  0  0  0  0  0  0  0  0
  135.1980   68.5160  224.0810 O   0  0  0  0  0  0  0  0  0  0  0  0
  137.1700   69.7100  224.3550 N   0  0  0  0  0  0  0  0  0  0  0  0
  138.2520   68.8850  224.9030 C   0  0  2  0  0  0  0  0  0  0  0  0
  137.8308   68.1499  225.6046 H   0  0  0  0  0  0  0  0  0  0  0  0
  139.2080   69.7010  225.7620 C   0  0  0  0  0  0  0  0  0  0  0  0
  139.9430   70.7970  225.2610 C   0  0  0  0  0  0  0  0  0  0  0  0
  139.8544   71.0755  224.2005 H   0  0  0  0  0  0  0  0  0  0  0  0
  140.7830   71.5310  226.1040 C   0  0  0  0  0  0  0  0  0  0  0  0
  141.3493   72.3855  225.7052 H   0  0  0  0  0  0  0  0  0  0  0  0
  140.9050   71.1830  227.4490 C   0  0  0  0  0  0  0  0  0  0  0  0
  141.5660   71.7633  228.1096 H   0  0  0  0  0  0  0  0  0  0  0  0
  140.1880   70.0980  227.9570 C   0  0  0  0  0  0  0  0  0  0  0  0
  140.2862   69.8225  229.0174 H   0  0  0  0  0  0  0  0  0  0  0  0
  139.3450   69.3610  227.1190 C   0  0  0  0  0  0  0  0  0  0  0  0
  138.7837   68.5069  227.5258 H   0  0  0  0  0  0  0  0  0  0  0  0
  138.9110   68.0570  223.7930 C   0  0  0  0  0  0  0  0  0  0  0  0
  139.5360   67.2717  224.2432 H   0  0  0  0  0  0  0  0  0  0  0  0
  138.1321   67.5934  223.1698 H   0  0  0  0  0  0  0  0  0  0  0  0
  139.5376   68.7120  223.1698 H   0  0  0  0  0  0  0  0  0  0  0  0
  1  2  1  0
  2  3  2  0
  3  4  1  0
  4  5  1  0
  5  6  1  0
  6  7  2  0
  7  8  1  0
  8  9  1  0
  8 10  2  0
 10 11  1  0
 10 12  1  0
 12 13  1  0
 12 14  2  0
 14 15  1  0
 14 16  1  0
 16 17  1  0
 17 18  2  0
 17 19  1  0
 19 20  1  0
 20 21  1  0
 20 22  2  0
 22 23  1  0
 23 24  2  0
 23 25  1  0
 25 26  1  0
 26 27  1  1
 26 28  1  0
 28 29  2  0
 29 30  1  0
 29 31  1  0
 31 32  1  0
 31 33  2  0
 33 34  1  0
 33 35  1  0
 35 36  1  0
 35 37  2  0
 37 38  1  0
 26 39  1  0
 39 40  1  0
 39 41  1  0
 39 42  1  0
 22  3  1  0
 37 28  1  0
 19  5  2  0
 16  7  1  0
M  CHG  2   4  -1  25  -1
M  END
>  <UniqueID>  (53) 
33

>  <SMILES>  (53) 
[H]/N=c1/[n-]c2nc3ccccn3c(=O)c2cc1C(=O)[N-][C@@H](C)c1ccccc1

>  <Energy>  (53) 
64.8276068987483

>  <Genealogy>  (53) 
C[C@H]([N-]C(=O)c1cc2c(=O)n3ccccc3nc2[n-]c1=N)c1ccccc1 (protonated)
[H]/N=c1/[n-]c2nc3ccccn3c(=O)c2cc1C(=O)[N-][C@@H](C)c1ccccc1 (cis-trans isomerization)
[H]/N=c1/[n-]c2nc3ccccn3c(=O)c2cc1C(=O)[N-][C@@H](C)c1ccccc1 (3D coordinates assigned)
[H]/N=c1/[n-]c2nc3ccccn3c(=O)c2cc1C(=O)[N-][C@@H](C)c1ccccc1 (optimized conformer: 64.8276068987483 kcal/mol)

>  <smiles>  (53) 
C[C@H](NC(=O)c1cc2c(=O)n3ccccc3nc2[nH]c1=N)c1ccccc1

>  <score_type>  (53) 
oracle

>  <origin>  (53) 
autodockgpu

>  <m_score__min__energy>  (53) 
-8.0099999999999998

>  <m_primary>  (53) 
energy

>  <meeko>  (53) 
{"free_energy": -8.0, "intermolecular_energy": -9.49, "internal_energy": -0.7, "cluster_size": 15, "cluster_id": 1, "rank_in_cluster": 3}

>  <energy>  (53) 
-6.98

>  <cluster_rmsd>  (53) 
0.99

>  <rmsd>  (53) 
270.12

>  <cluster>  (53) 
1

$$$$
HDANWICVGDYKAH-XBMCPTRANA-L
     RDKit          3D

 42 45  0  0  0  0  0  0  0  0999 V2000
  133.9610   68.1410  225.8640 H   0  0  0  0  0  0  0  0  0  0  0  0
  133.6470   68.9380  226.4610 N   0  0  0  0  0  0  0  0  0  0  0  0
  133.8970   70.1830  226.1970 C   0  0  0  0  0  0  0  0  0  0  0  0
  133.1850   71.1420  226.8470 N   0  0  0  0  0  0  0  0  0  0  0  0
  133.3800   72.4670  226.6240 C   0  0  0  0  0  0  0  0  0  0  0  0
  132.6550   73.3790  227.3110 N   0  0  0  0  0  0  0  0  0  0  0  0
  132.8210   74.7110  227.1130 C   0  0  0  0  0  0  0  0  0  0  0  0
  132.0450   75.6100  227.8530 C   0  0  0  0  0  0  0  0  0  0  0  0
  131.3113   75.2371  228.5829 H   0  0  0  0  0  0  0  0  0  0  0  0
  132.2070   76.9790  227.6600 C   0  0  0  0  0  0  0  0  0  0  0  0
  131.6023   77.6934  228.2379 H   0  0  0  0  0  0  0  0  0  0  0  0
  133.1360   77.4400  226.7340 C   0  0  0  0  0  0  0  0  0  0  0  0
  133.2687   78.5203  226.5747 H   0  0  0  0  0  0  0  0  0  0  0  0
  133.9000   76.5240  226.0070 C   0  0  0  0  0  0  0  0  0  0  0  0
  134.6354   76.8896  225.2752 H   0  0  0  0  0  0  0  0  0  0  0  0
  133.7440   75.1720  226.1950 N   0  0  0  0  0  0  0  0  0  0  0  0
  134.4980   74.2730  225.4790 C   0  0  0  0  0  0  0  0  0  0  0  0
  135.3480   74.6780  224.6350 O   0  0  0  0  0  0  0  0  0  0  0  0
  134.3290   72.8930  225.6820 C   0  0  0  0  0  0  0  0  0  0  0  0
  135.0720   71.9260  224.9880 C   0  0  0  0  0  0  0  0  0  0  0  0
  135.8011   72.2382  224.2258 H   0  0  0  0  0  0  0  0  0  0  0  0
  134.8890   70.5650  225.2620 C   0  0  0  0  0  0  0  0  0  0  0  0
  135.7030   69.5710  224.5390 C   0  0  0  0  0  0  0  0  0  0  0  0
  135.1460   68.5200  224.1280 O   0  0  0  0  0  0  0  0  0  0  0  0
  137.1160   69.7320  224.3350 N   0  0  0  0  0  0  0  0  0  0  0  0
  138.2120   68.9050  224.8510 C   0  0  2  0  0  0  0  0  0  0  0  0
  137.8049   68.1417  225.5304 H   0  0  0  0  0  0  0  0  0  0  0  0
  139.1600   69.7050  225.7320 C   0  0  0  0  0  0  0  0  0  0  0  0
  139.9080   70.8030  225.2540 C   0  0  0  0  0  0  0  0  0  0  0  0
  139.8347   71.0946  224.1959 H   0  0  0  0  0  0  0  0  0  0  0  0
  140.7410   71.5220  226.1160 C   0  0  0  0  0  0  0  0  0  0  0  0
  141.3184   72.3770  225.7345 H   0  0  0  0  0  0  0  0  0  0  0  0
  140.8420   71.1580  227.4590 C   0  0  0  0  0  0  0  0  0  0  0  0
  141.4969   71.7269  228.1354 H   0  0  0  0  0  0  0  0  0  0  0  0
  140.1120   70.0720  227.9440 C   0  0  0  0  0  0  0  0  0  0  0  0
  140.1943   69.7840  229.0024 H   0  0  0  0  0  0  0  0  0  0  0  0
  139.2760   69.3490  227.0870 C   0  0  0  0  0  0  0  0  0  0  0  0
  138.7041   68.4940  227.4768 H   0  0  0  0  0  0  0  0  0  0  0  0
  138.8760   68.1230  223.7120 C   0  0  0  0  0  0  0  0  0  0  0  0
  139.5336   67.3485  224.1336 H   0  0  0  0  0  0  0  0  0  0  0  0
  138.1008   67.6483  223.0925 H   0  0  0  0  0  0  0  0  0  0  0  0
  139.4701   68.8110  223.0925 H   0  0  0  0  0  0  0  0  0  0  0  0
  1  2  1  0
  2  3  2  0
  3  4  1  0
  4  5  1  0
  5  6  1  0
  6  7  2  0
  7  8  1  0
  8  9  1  0
  8 10  2  0
 10 11  1  0
 10 12  1  0
 12 13  1  0
 12 14  2  0
 14 15  1  0
 14 16  1  0
 16 17  1  0
 17 18  2  0
 17 19  1  0
 19 20  1  0
 20 21  1  0
 20 22  2  0
 22 23  1  0
 23 24  2  0
 23 25  1  0
 25 26  1  0
 26 27  1  1
 26 28  1  0
 28 29  2  0
 29 30  1  0
 29 31  1  0
 31 32  1  0
 31 33  2  0
 33 34  1  0
 33 35  1  0
 35 36  1  0
 35 37  2  0
 37 38  1  0
 26 39  1  0
 39 40  1  0
 39 41  1  0
 39 42  1  0
 22  3  1  0
 37 28  1  0
 19  5  2  0
 16  7  1  0
M  CHG  2   4  -1  25  -1
M  END
>  <UniqueID>  (54) 
33

>  <SMILES>  (54) 
[H]/N=c1/[n-]c2nc3ccccn3c(=O)c2cc1C(=O)[N-][C@@H](C)c1ccccc1

>  <Energy>  (54) 
64.8276068987483

>  <Genealogy>  (54) 
C[C@H]([N-]C(=O)c1cc2c(=O)n3ccccc3nc2[n-]c1=N)c1ccccc1 (protonated)
[H]/N=c1/[n-]c2nc3ccccn3c(=O)c2cc1C(=O)[N-][C@@H](C)c1ccccc1 (cis-trans isomerization)
[H]/N=c1/[n-]c2nc3ccccn3c(=O)c2cc1C(=O)[N-][C@@H](C)c1ccccc1 (3D coordinates assigned)
[H]/N=c1/[n-]c2nc3ccccn3c(=O)c2cc1C(=O)[N-][C@@H](C)c1ccccc1 (optimized conformer: 64.8276068987483 kcal/mol)

>  <smiles>  (54) 
C[C@H](NC(=O)c1cc2c(=O)n3ccccc3nc2[nH]c1=N)c1ccccc1

>  <score_type>  (54) 
oracle

>  <origin>  (54) 
autodockgpu

>  <m_score__min__energy>  (54) 
-8.0099999999999998

>  <m_primary>  (54) 
energy

>  <meeko>  (54) 
{"free_energy": -8.01, "intermolecular_energy": -9.51, "internal_energy": -0.71, "cluster_size": 15, "cluster_id": 1, "rank_in_cluster": 1}

>  <energy>  (54) 
-6.87

>  <cluster_rmsd>  (54) 
1.06

>  <rmsd>  (54) 
270.08

>  <cluster>  (54) 
1

$$$$
HDANWICVGDYKAH-XBMCPTRANA-L
     RDKit          3D

 42 45  0  0  0  0  0  0  0  0999 V2000
  135.4550   70.3560  224.1380 H   0  0  0  0  0  0  0  0  0  0  0  0
  135.8310   71.2940  223.8750 N   0  0  0  0  0  0  0  0  0  0  0  0
  137.0400   71.4970  223.4510 C   0  0  0  0  0  0  0  0  0  0  0  0
  137.3180   72.6620  222.8080 N   0  0  0  0  0  0  0  0  0  0  0  0
  138.5550   72.9500  222.3280 C   0  0  0  0  0  0  0  0  0  0  0  0
  138.7790   74.1320  221.7100 N   0  0  0  0  0  0  0  0  0  0  0  0
  140.0020   74.4520  221.2160 C   0  0  0  0  0  0  0  0  0  0  0  0
  140.1780   75.6900  220.5880 C   0  0  0  0  0  0  0  0  0  0  0  0
  139.3339   76.3896  220.4980 H   0  0  0  0  0  0  0  0  0  0  0  0
  141.4270   76.0310  220.0780 C   0  0  0  0  0  0  0  0  0  0  0  0
  141.5748   77.0023  219.5834 H   0  0  0  0  0  0  0  0  0  0  0  0
  142.4880   75.1390  220.1960 C   0  0  0  0  0  0  0  0  0  0  0  0
  143.4783   75.4007  219.7949 H   0  0  0  0  0  0  0  0  0  0  0  0
  142.2880   73.9090  220.8270 C   0  0  0  0  0  0  0  0  0  0  0  0
  143.1270   73.2038  220.9206 H   0  0  0  0  0  0  0  0  0  0  0  0
  141.0570   73.5690  221.3320 N   0  0  0  0  0  0  0  0  0  0  0  0
  140.8640   72.3580  221.9530 C   0  0  0  0  0  0  0  0  0  0  0  0
  141.8200   71.5380  222.0700 O   0  0  0  0  0  0  0  0  0  0  0  0
  139.6000   72.0240  222.4680 C   0  0  0  0  0  0  0  0  0  0  0  0
  139.3420   70.8070  223.1180 C   0  0  0  0  0  0  0  0  0  0  0  0
  140.1401   70.0560  223.2131 H   0  0  0  0  0  0  0  0  0  0  0  0
  138.0710   70.5460  223.6460 C   0  0  0  0  0  0  0  0  0  0  0  0
  137.8340   69.2730  224.3500 C   0  0  0  0  0  0  0  0  0  0  0  0
  136.6470   68.8920  224.5240 O   0  0  0  0  0  0  0  0  0  0  0  0
  138.9020   68.4790  224.8900 N   0  0  0  0  0  0  0  0  0  0  0  0
  139.4010   68.4390  226.2690 C   0  0  2  0  0  0  0  0  0  0  0  0
  138.5573   68.2881  226.9585 H   0  0  0  0  0  0  0  0  0  0  0  0
  139.9860   69.7760  226.6990 C   0  0  0  0  0  0  0  0  0  0  0  0
  139.7220   70.3580  227.9580 C   0  0  0  0  0  0  0  0  0  0  0  0
  139.0477   69.8508  228.6637 H   0  0  0  0  0  0  0  0  0  0  0  0
  140.3120   71.5750  228.3140 C   0  0  0  0  0  0  0  0  0  0  0  0
  140.1031   72.0191  229.2985 H   0  0  0  0  0  0  0  0  0  0  0  0
  141.1650   72.2270  227.4230 C   0  0  0  0  0  0  0  0  0  0  0  0
  141.6287   73.1835  227.7059 H   0  0  0  0  0  0  0  0  0  0  0  0
  141.4300   71.6660  226.1730 C   0  0  0  0  0  0  0  0  0  0  0  0
  142.1005   72.1826  225.4705 H   0  0  0  0  0  0  0  0  0  0  0  0
  140.8450   70.4490  225.8120 C   0  0  0  0  0  0  0  0  0  0  0  0
  141.0586   70.0135  224.8247 H   0  0  0  0  0  0  0  0  0  0  0  0
  140.3160   67.2250  226.4740 C   0  0  0  0  0  0  0  0  0  0  0  0
  140.4513   67.0455  227.5508 H   0  0  0  0  0  0  0  0  0  0  0  0
  139.8592   66.3389  226.0091 H   0  0  0  0  0  0  0  0  0  0  0  0
  141.2937   67.4201  226.0091 H   0  0  0  0  0  0  0  0  0  0  0  0
  1  2  1  0
  2  3  2  0
  3  4  1  0
  4  5  1  0
  5  6  1  0
  6  7  2  0
  7  8  1  0
  8  9  1  0
  8 10  2  0
 10 11  1  0
 10 12  1  0
 12 13  1  0
 12 14  2  0
 14 15  1  0
 14 16  1  0
 16 17  1  0
 17 18  2  0
 17 19  1  0
 19 20  1  0
 20 21  1  0
 20 22  2  0
 22 23  1  0
 23 24  2  0
 23 25  1  0
 25 26  1  0
 26 27  1  1
 26 28  1  0
 28 29  2  0
 29 30  1  0
 29 31  1  0
 31 32  1  0
 31 33  2  0
 33 34  1  0
 33 35  1  0
 35 36  1  0
 35 37  2  0
 37 38  1  0
 26 39  1  0
 39 40  1  0
 39 41  1  0
 39 42  1  0
 22  3  1  0
 37 28  1  0
 19  5  2  0
 16  7  1  0
M  CHG  2   4  -1  25  -1
M  END
>  <UniqueID>  (55) 
33

>  <SMILES>  (55) 
[H]/N=c1/[n-]c2nc3ccccn3c(=O)c2cc1C(=O)[N-][C@@H](C)c1ccccc1

>  <Energy>  (55) 
64.8276068987483

>  <Genealogy>  (55) 
C[C@H]([N-]C(=O)c1cc2c(=O)n3ccccc3nc2[n-]c1=N)c1ccccc1 (protonated)
[H]/N=c1/[n-]c2nc3ccccn3c(=O)c2cc1C(=O)[N-][C@@H](C)c1ccccc1 (cis-trans isomerization)
[H]/N=c1/[n-]c2nc3ccccn3c(=O)c2cc1C(=O)[N-][C@@H](C)c1ccccc1 (3D coordinates assigned)
[H]/N=c1/[n-]c2nc3ccccn3c(=O)c2cc1C(=O)[N-][C@@H](C)c1ccccc1 (optimized conformer: 64.8276068987483 kcal/mol)

>  <smiles>  (55) 
C[C@H](NC(=O)c1cc2c(=O)n3ccccc3nc2[nH]c1=N)c1ccccc1

>  <score_type>  (55) 
oracle

>  <origin>  (55) 
autodockgpu

>  <m_score__min__energy>  (55) 
-8.0099999999999998

>  <m_primary>  (55) 
energy

>  <meeko>  (55) 
{"free_energy": -6.64, "intermolecular_energy": -8.13, "internal_energy": -1.08, "cluster_size": 3, "cluster_id": 2, "rank_in_cluster": 3}

>  <energy>  (55) 
-6.84

>  <cluster_rmsd>  (55) 
1.17

>  <rmsd>  (55) 
269.94

>  <cluster>  (55) 
1

$$$$
HDANWICVGDYKAH-XBMCPTRANA-L
     RDKit          3D

 42 45  0  0  0  0  0  0  0  0999 V2000
  136.1930   70.3260  223.8950 H   0  0  0  0  0  0  0  0  0  0  0  0
  136.5850   71.2760  223.7050 N   0  0  0  0  0  0  0  0  0  0  0  0
  137.7690   71.4860  223.2200 C   0  0  0  0  0  0  0  0  0  0  0  0
  138.0580   72.7140  222.7160 N   0  0  0  0  0  0  0  0  0  0  0  0
  139.2710   73.0150  222.1850 C   0  0  0  0  0  0  0  0  0  0  0  0
  139.5090   74.2600  221.7110 N   0  0  0  0  0  0  0  0  0  0  0  0
  140.7080   74.5950  221.1710 C   0  0  0  0  0  0  0  0  0  0  0  0
  140.8990   75.8980  220.6980 C   0  0  0  0  0  0  0  0  0  0  0  0
  140.0855   76.6355  220.7636 H   0  0  0  0  0  0  0  0  0  0  0  0
  142.1250   76.2550  220.1440 C   0  0  0  0  0  0  0  0  0  0  0  0
  142.2857   77.2773  219.7710 H   0  0  0  0  0  0  0  0  0  0  0  0
  143.1460   75.3140  220.0640 C   0  0  0  0  0  0  0  0  0  0  0  0
  144.1168   75.5874  219.6250 H   0  0  0  0  0  0  0  0  0  0  0  0
  142.9320   74.0200  220.5440 C   0  0  0  0  0  0  0  0  0  0  0  0
  143.7408   73.2770  220.4824 H   0  0  0  0  0  0  0  0  0  0  0  0
  141.7240   73.6640  221.0920 N   0  0  0  0  0  0  0  0  0  0  0  0
  141.5170   72.3890  221.5630 C   0  0  0  0  0  0  0  0  0  0  0  0
  142.4370   71.5250  221.4990 O   0  0  0  0  0  0  0  0  0  0  0  0
  140.2770   72.0390  222.1240 C   0  0  0  0  0  0  0  0  0  0  0  0
  140.0060   70.7580  222.6270 C   0  0  0  0  0  0  0  0  0  0  0  0
  140.7712   69.9705  222.5620 H   0  0  0  0  0  0  0  0  0  0  0  0
  138.7640   70.4780  223.2120 C   0  0  0  0  0  0  0  0  0  0  0  0
  138.5150   69.1320  223.7600 C   0  0  0  0  0  0  0  0  0  0  0  0
  137.4090   68.5810  223.5240 O   0  0  0  0  0  0  0  0  0  0  0  0
  139.4650   68.4520  224.5950 N   0  0  0  0  0  0  0  0  0  0  0  0
  139.5890   68.4940  226.0560 C   0  0  2  0  0  0  0  0  0  0  0  0
  138.5864   68.4688  226.5079 H   0  0  0  0  0  0  0  0  0  0  0  0
  140.1700   69.8140  226.5380 C   0  0  0  0  0  0  0  0  0  0  0  0
  140.9480   70.6560  225.7140 C   0  0  0  0  0  0  0  0  0  0  0  0
  141.1750   70.3512  224.6817 H   0  0  0  0  0  0  0  0  0  0  0  0
  141.4320   71.8740  226.2000 C   0  0  0  0  0  0  0  0  0  0  0  0
  142.0355   72.5235  225.5488 H   0  0  0  0  0  0  0  0  0  0  0  0
  141.1520   72.2680  227.5080 C   0  0  0  0  0  0  0  0  0  0  0  0
  141.5320   73.2283  227.8866 H   0  0  0  0  0  0  0  0  0  0  0  0
  140.3890   71.4430  228.3370 C   0  0  0  0  0  0  0  0  0  0  0  0
  140.1718   71.7523  229.3701 H   0  0  0  0  0  0  0  0  0  0  0  0
  139.9010   70.2250  227.8560 C   0  0  0  0  0  0  0  0  0  0  0  0
  139.3002   69.5810  228.5150 H   0  0  0  0  0  0  0  0  0  0  0  0
  140.2980   67.2360  226.5720 C   0  0  0  0  0  0  0  0  0  0  0  0
  140.2962   67.2392  227.6720 H   0  0  0  0  0  0  0  0  0  0  0  0
  139.7708   66.3422  226.2071 H   0  0  0  0  0  0  0  0  0  0  0  0
  141.3356   67.2242  226.2071 H   0  0  0  0  0  0  0  0  0  0  0  0
  1  2  1  0
  2  3  2  0
  3  4  1  0
  4  5  1  0
  5  6  1  0
  6  7  2  0
  7  8  1  0
  8  9  1  0
  8 10  2  0
 10 11  1  0
 10 12  1  0
 12 13  1  0
 12 14  2  0
 14 15  1  0
 14 16  1  0
 16 17  1  0
 17 18  2  0
 17 19  1  0
 19 20  1  0
 20 21  1  0
 20 22  2  0
 22 23  1  0
 23 24  2  0
 23 25  1  0
 25 26  1  0
 26 27  1  1
 26 28  1  0
 28 29  2  0
 29 30  1  0
 29 31  1  0
 31 32  1  0
 31 33  2  0
 33 34  1  0
 33 35  1  0
 35 36  1  0
 35 37  2  0
 37 38  1  0
 26 39  1  0
 39 40  1  0
 39 41  1  0
 39 42  1  0
 22  3  1  0
 37 28  1  0
 19  5  2  0
 16  7  1  0
M  CHG  2   4  -1  25  -1
M  END
>  <UniqueID>  (56) 
33

>  <SMILES>  (56) 
[H]/N=c1/[n-]c2nc3ccccn3c(=O)c2cc1C(=O)[N-][C@@H](C)c1ccccc1

>  <Energy>  (56) 
64.8276068987483

>  <Genealogy>  (56) 
C[C@H]([N-]C(=O)c1cc2c(=O)n3ccccc3nc2[n-]c1=N)c1ccccc1 (protonated)
[H]/N=c1/[n-]c2nc3ccccn3c(=O)c2cc1C(=O)[N-][C@@H](C)c1ccccc1 (cis-trans isomerization)
[H]/N=c1/[n-]c2nc3ccccn3c(=O)c2cc1C(=O)[N-][C@@H](C)c1ccccc1 (3D coordinates assigned)
[H]/N=c1/[n-]c2nc3ccccn3c(=O)c2cc1C(=O)[N-][C@@H](C)c1ccccc1 (optimized conformer: 64.8276068987483 kcal/mol)

>  <smiles>  (56) 
C[C@H](NC(=O)c1cc2c(=O)n3ccccc3nc2[nH]c1=N)c1ccccc1

>  <score_type>  (56) 
oracle

>  <origin>  (56) 
autodockgpu

>  <m_score__min__energy>  (56) 
-8.0099999999999998

>  <m_primary>  (56) 
energy

>  <meeko>  (56) 
{"free_energy": -6.72, "intermolecular_energy": -8.21, "internal_energy": -1.12, "cluster_size": 3, "cluster_id": 2, "rank_in_cluster": 2}

>  <energy>  (56) 
-7.36

>  <cluster_rmsd>  (56) 
0.0

>  <rmsd>  (56) 
270.34

>  <cluster>  (56) 
2

$$$$
HDANWICVGDYKAH-XBMCPTRANA-L
     RDKit          3D

 42 45  0  0  0  0  0  0  0  0999 V2000
  134.4440   68.2090  226.0710 H   0  0  0  0  0  0  0  0  0  0  0  0
  133.8730   68.9840  226.4760 N   0  0  0  0  0  0  0  0  0  0  0  0
  134.0610   70.2390  226.2060 C   0  0  0  0  0  0  0  0  0  0  0  0
  133.3210   71.1660  226.8700 N   0  0  0  0  0  0  0  0  0  0  0  0
  133.4510   72.4980  226.6430 C   0  0  0  0  0  0  0  0  0  0  0  0
  132.6990   73.3770  227.3440 N   0  0  0  0  0  0  0  0  0  0  0  0
  132.8010   74.7150  227.1410 C   0  0  0  0  0  0  0  0  0  0  0  0
  132.0010   75.5790  227.8970 C   0  0  0  0  0  0  0  0  0  0  0  0
  131.3010   75.1741  228.6427 H   0  0  0  0  0  0  0  0  0  0  0  0
  132.0960   76.9540  227.7000 C   0  0  0  0  0  0  0  0  0  0  0  0
  131.4712   77.6411  228.2894 H   0  0  0  0  0  0  0  0  0  0  0  0
  132.9850   77.4550  226.7540 C   0  0  0  0  0  0  0  0  0  0  0  0
  133.0660   78.5399  226.5914 H   0  0  0  0  0  0  0  0  0  0  0  0
  133.7740   76.5730  226.0120 C   0  0  0  0  0  0  0  0  0  0  0  0
  134.4768   76.9700  225.2647 H   0  0  0  0  0  0  0  0  0  0  0  0
  133.6830   75.2160  226.2040 N   0  0  0  0  0  0  0  0  0  0  0  0
  134.4610   74.3510  225.4730 C   0  0  0  0  0  0  0  0  0  0  0  0
  135.2740   74.7930  224.6110 O   0  0  0  0  0  0  0  0  0  0  0  0
  134.3600   72.9650  225.6810 C   0  0  0  0  0  0  0  0  0  0  0  0
  135.1310   72.0320  224.9710 C   0  0  0  0  0  0  0  0  0  0  0  0
  135.8282   72.3754  224.1926 H   0  0  0  0  0  0  0  0  0  0  0  0
  135.0150   70.6640  225.2510 C   0  0  0  0  0  0  0  0  0  0  0  0
  135.8580   69.7060  224.5120 C   0  0  0  0  0  0  0  0  0  0  0  0
  135.4210   68.5420  224.3190 O   0  0  0  0  0  0  0  0  0  0  0  0
  137.1780   70.0360  224.0510 N   0  0  0  0  0  0  0  0  0  0  0  0
  138.4260   69.2920  224.2520 C   0  0  2  0  0  0  0  0  0  0  0  0
  138.1912   68.2673  224.5759 H   0  0  0  0  0  0  0  0  0  0  0  0
  139.2450   69.8580  225.4030 C   0  0  0  0  0  0  0  0  0  0  0  0
  140.0070   71.0410  225.2920 C   0  0  0  0  0  0  0  0  0  0  0  0
  140.0436   71.5795  224.3335 H   0  0  0  0  0  0  0  0  0  0  0  0
  140.7160   71.5330  226.3930 C   0  0  0  0  0  0  0  0  0  0  0  0
  141.3050   72.4571  226.2977 H   0  0  0  0  0  0  0  0  0  0  0  0
  140.6780   70.8550  227.6110 C   0  0  0  0  0  0  0  0  0  0  0  0
  141.2358   71.2451  228.4751 H   0  0  0  0  0  0  0  0  0  0  0  0
  139.9320   69.6810  227.7340 C   0  0  0  0  0  0  0  0  0  0  0  0
  139.9046   69.1458  228.6946 H   0  0  0  0  0  0  0  0  0  0  0  0
  139.2200   69.1850  226.6380 C   0  0  0  0  0  0  0  0  0  0  0  0
  138.6346   68.2596  226.7423 H   0  0  0  0  0  0  0  0  0  0  0  0
  139.1790   69.1370  222.9250 C   0  0  0  0  0  0  0  0  0  0  0  0
  140.2380   68.9190  223.1276 H   0  0  0  0  0  0  0  0  0  0  0  0
  138.7385   68.3107  222.3478 H   0  0  0  0  0  0  0  0  0  0  0  0
  139.1006   70.0701  222.3478 H   0  0  0  0  0  0  0  0  0  0  0  0
  1  2  1  0
  2  3  2  0
  3  4  1  0
  4  5  1  0
  5  6  1  0
  6  7  2  0
  7  8  1  0
  8  9  1  0
  8 10  2  0
 10 11  1  0
 10 12  1  0
 12 13  1  0
 12 14  2  0
 14 15  1  0
 14 16  1  0
 16 17  1  0
 17 18  2  0
 17 19  1  0
 19 20  1  0
 20 21  1  0
 20 22  2  0
 22 23  1  0
 23 24  2  0
 23 25  1  0
 25 26  1  0
 26 27  1  1
 26 28  1  0
 28 29  2  0
 29 30  1  0
 29 31  1  0
 31 32  1  0
 31 33  2  0
 33 34  1  0
 33 35  1  0
 35 36  1  0
 35 37  2  0
 37 38  1  0
 26 39  1  0
 39 40  1  0
 39 41  1  0
 39 42  1  0
 22  3  1  0
 37 28  1  0
 19  5  2  0
 16  7  1  0
M  CHG  2   4  -1  25  -1
M  END
>  <UniqueID>  (57) 
33

>  <SMILES>  (57) 
[H]/N=c1/[n-]c2nc3ccccn3c(=O)c2cc1C(=O)[N-][C@@H](C)c1ccccc1

>  <Energy>  (57) 
64.8276068987483

>  <Genealogy>  (57) 
C[C@H]([N-]C(=O)c1cc2c(=O)n3ccccc3nc2[n-]c1=N)c1ccccc1 (protonated)
[H]/N=c1/[n-]c2nc3ccccn3c(=O)c2cc1C(=O)[N-][C@@H](C)c1ccccc1 (cis-trans isomerization)
[H]/N=c1/[n-]c2nc3ccccn3c(=O)c2cc1C(=O)[N-][C@@H](C)c1ccccc1 (3D coordinates assigned)
[H]/N=c1/[n-]c2nc3ccccn3c(=O)c2cc1C(=O)[N-][C@@H](C)c1ccccc1 (optimized conformer: 64.8276068987483 kcal/mol)

>  <smiles>  (57) 
C[C@H](NC(=O)c1cc2c(=O)n3ccccc3nc2[nH]c1=N)c1ccccc1

>  <score_type>  (57) 
oracle

>  <origin>  (57) 
autodockgpu

>  <m_score__min__energy>  (57) 
-8.0099999999999998

>  <m_primary>  (57) 
energy

>  <meeko>  (57) 
{"free_energy": -7.79, "intermolecular_energy": -9.28, "internal_energy": -0.71, "cluster_size": 15, "cluster_id": 1, "rank_in_cluster": 12}

>  <energy>  (57) 
-6.72

>  <cluster_rmsd>  (57) 
1.67

>  <rmsd>  (57) 
270.45

>  <cluster>  (57) 
2

$$$$
HDANWICVGDYKAH-XBMCPTRANA-L
     RDKit          3D

 42 45  0  0  0  0  0  0  0  0999 V2000
  134.3670   68.1990  225.9870 H   0  0  0  0  0  0  0  0  0  0  0  0
  133.8500   68.9850  226.4420 N   0  0  0  0  0  0  0  0  0  0  0  0
  134.0390   70.2360  226.1580 C   0  0  0  0  0  0  0  0  0  0  0  0
  133.3120   71.1720  226.8250 N   0  0  0  0  0  0  0  0  0  0  0  0
  133.4450   72.5020  226.5840 C   0  0  0  0  0  0  0  0  0  0  0  0
  132.7070   73.3900  227.2880 N   0  0  0  0  0  0  0  0  0  0  0  0
  132.8120   74.7260  227.0730 C   0  0  0  0  0  0  0  0  0  0  0  0
  132.0260   75.6000  227.8320 C   0  0  0  0  0  0  0  0  0  0  0  0
  131.3339   75.2049  228.5902 H   0  0  0  0  0  0  0  0  0  0  0  0
  132.1250   76.9720  227.6220 C   0  0  0  0  0  0  0  0  0  0  0  0
  131.5128   77.6670  228.2154 H   0  0  0  0  0  0  0  0  0  0  0  0
  133.0010   77.4610  226.6590 C   0  0  0  0  0  0  0  0  0  0  0  0
  133.0832   78.5440  226.4849 H   0  0  0  0  0  0  0  0  0  0  0  0
  133.7760   76.5690  225.9140 C   0  0  0  0  0  0  0  0  0  0  0  0
  134.4702   76.9564  225.1537 H   0  0  0  0  0  0  0  0  0  0  0  0
  133.6820   75.2150  226.1190 N   0  0  0  0  0  0  0  0  0  0  0  0
  134.4460   74.3400  225.3830 C   0  0  0  0  0  0  0  0  0  0  0  0
  135.2480   74.7710  224.5070 O   0  0  0  0  0  0  0  0  0  0  0  0
  134.3410   72.9560  225.6050 C   0  0  0  0  0  0  0  0  0  0  0  0
  135.0980   72.0130  224.8920 C   0  0  0  0  0  0  0  0  0  0  0  0
  135.7853   72.3468  224.1006 H   0  0  0  0  0  0  0  0  0  0  0  0
  134.9810   70.6490  225.1850 C   0  0  0  0  0  0  0  0  0  0  0  0
  135.8090   69.6810  224.4420 C   0  0  0  0  0  0  0  0  0  0  0  0
  135.3280   68.5460  224.1890 O   0  0  0  0  0  0  0  0  0  0  0  0
  137.1590   69.9670  224.0450 N   0  0  0  0  0  0  0  0  0  0  0  0
  138.3730   69.1900  224.3180 C   0  0  2  0  0  0  0  0  0  0  0  0
  138.0921   68.1865  224.6702 H   0  0  0  0  0  0  0  0  0  0  0  0
  139.1700   69.7720  225.4770 C   0  0  0  0  0  0  0  0  0  0  0  0
  139.1920   69.1880  226.7620 C   0  0  0  0  0  0  0  0  0  0  0  0
  138.5951   68.2861  226.9625 H   0  0  0  0  0  0  0  0  0  0  0  0
  139.9670   69.7480  227.7810 C   0  0  0  0  0  0  0  0  0  0  0  0
  139.9793   69.2844  228.7785 H   0  0  0  0  0  0  0  0  0  0  0  0
  140.7250   70.8930  227.5370 C   0  0  0  0  0  0  0  0  0  0  0  0
  141.3357   71.3297  228.3409 H   0  0  0  0  0  0  0  0  0  0  0  0
  140.7090   71.4850  226.2730 C   0  0  0  0  0  0  0  0  0  0  0  0
  141.3041   72.3903  226.0824 H   0  0  0  0  0  0  0  0  0  0  0  0
  139.9370   70.9280  225.2490 C   0  0  0  0  0  0  0  0  0  0  0  0
  139.9296   71.3990  224.2549 H   0  0  0  0  0  0  0  0  0  0  0  0
  139.1660   68.9590  223.0260 C   0  0  0  0  0  0  0  0  0  0  0  0
  140.1945   68.6594  223.2757 H   0  0  0  0  0  0  0  0  0  0  0  0
  138.6850   68.1637  222.4378 H   0  0  0  0  0  0  0  0  0  0  0  0
  139.1873   69.8883  222.4378 H   0  0  0  0  0  0  0  0  0  0  0  0
  1  2  1  0
  2  3  2  0
  3  4  1  0
  4  5  1  0
  5  6  1  0
  6  7  2  0
  7  8  1  0
  8  9  1  0
  8 10  2  0
 10 11  1  0
 10 12  1  0
 12 13  1  0
 12 14  2  0
 14 15  1  0
 14 16  1  0
 16 17  1  0
 17 18  2  0
 17 19  1  0
 19 20  1  0
 20 21  1  0
 20 22  2  0
 22 23  1  0
 23 24  2  0
 23 25  1  0
 25 26  1  0
 26 27  1  1
 26 28  1  0
 28 29  2  0
 29 30  1  0
 29 31  1  0
 31 32  1  0
 31 33  2  0
 33 34  1  0
 33 35  1  0
 35 36  1  0
 35 37  2  0
 37 38  1  0
 26 39  1  0
 39 40  1  0
 39 41  1  0
 39 42  1  0
 22  3  1  0
 37 28  1  0
 19  5  2  0
 16  7  1  0
M  CHG  2   4  -1  25  -1
M  END
>  <UniqueID>  (58) 
33

>  <SMILES>  (58) 
[H]/N=c1/[n-]c2nc3ccccn3c(=O)c2cc1C(=O)[N-][C@@H](C)c1ccccc1

>  <Energy>  (58) 
64.8276068987483

>  <Genealogy>  (58) 
C[C@H]([N-]C(=O)c1cc2c(=O)n3ccccc3nc2[n-]c1=N)c1ccccc1 (protonated)
[H]/N=c1/[n-]c2nc3ccccn3c(=O)c2cc1C(=O)[N-][C@@H](C)c1ccccc1 (cis-trans isomerization)
[H]/N=c1/[n-]c2nc3ccccn3c(=O)c2cc1C(=O)[N-][C@@H](C)c1ccccc1 (3D coordinates assigned)
[H]/N=c1/[n-]c2nc3ccccn3c(=O)c2cc1C(=O)[N-][C@@H](C)c1ccccc1 (optimized conformer: 64.8276068987483 kcal/mol)

>  <smiles>  (58) 
C[C@H](NC(=O)c1cc2c(=O)n3ccccc3nc2[nH]c1=N)c1ccccc1

>  <score_type>  (58) 
oracle

>  <origin>  (58) 
autodockgpu

>  <m_score__min__energy>  (58) 
-8.0099999999999998

>  <m_primary>  (58) 
energy

>  <meeko>  (58) 
{"free_energy": -7.81, "intermolecular_energy": -9.31, "internal_energy": -0.72, "cluster_size": 15, "cluster_id": 1, "rank_in_cluster": 11}

>  <energy>  (58) 
-6.64

>  <cluster_rmsd>  (58) 
1.44

>  <rmsd>  (58) 
270.35

>  <cluster>  (58) 
2

$$$$
HDANWICVGDYKAH-XBMCPTRANA-L
     RDKit          3D

 42 45  0  0  0  0  0  0  0  0999 V2000
  133.9190   68.1620  225.8620 H   0  0  0  0  0  0  0  0  0  0  0  0
  133.6100   68.9620  226.4580 N   0  0  0  0  0  0  0  0  0  0  0  0
  133.8680   70.2050  226.1920 C   0  0  0  0  0  0  0  0  0  0  0  0
  133.1590   71.1700  226.8360 N   0  0  0  0  0  0  0  0  0  0  0  0
  133.3630   72.4930  226.6110 C   0  0  0  0  0  0  0  0  0  0  0  0
  132.6390   73.4110  227.2910 N   0  0  0  0  0  0  0  0  0  0  0  0
  132.8140   74.7420  227.0910 C   0  0  0  0  0  0  0  0  0  0  0  0
  132.0390   75.6470  227.8240 C   0  0  0  0  0  0  0  0  0  0  0  0
  131.2988   75.2800  228.5502 H   0  0  0  0  0  0  0  0  0  0  0  0
  132.2100   77.0150  227.6290 C   0  0  0  0  0  0  0  0  0  0  0  0
  131.6064   77.7343  228.2019 H   0  0  0  0  0  0  0  0  0  0  0  0
  133.1470   77.4680  226.7070 C   0  0  0  0  0  0  0  0  0  0  0  0
  133.2869   78.5470  226.5453 H   0  0  0  0  0  0  0  0  0  0  0  0
  133.9100   76.5450  225.9870 C   0  0  0  0  0  0  0  0  0  0  0  0
  134.6521   76.9043  225.2589 H   0  0  0  0  0  0  0  0  0  0  0  0
  133.7450   75.1950  226.1770 N   0  0  0  0  0  0  0  0  0  0  0  0
  134.4970   74.2900  225.4670 C   0  0  0  0  0  0  0  0  0  0  0  0
  135.3540   74.6880  224.6270 O   0  0  0  0  0  0  0  0  0  0  0  0
  134.3190   72.9110  225.6730 C   0  0  0  0  0  0  0  0  0  0  0  0
  135.0610   71.9390  224.9850 C   0  0  0  0  0  0  0  0  0  0  0  0
  135.7961   72.2454  224.2262 H   0  0  0  0  0  0  0  0  0  0  0  0
  134.8680   70.5790  225.2620 C   0  0  0  0  0  0  0  0  0  0  0  0
  135.6800   69.5780  224.5460 C   0  0  0  0  0  0  0  0  0  0  0  0
  135.1220   68.5240  224.1470 O   0  0  0  0  0  0  0  0  0  0  0  0
  137.0920   69.7390  224.3360 N   0  0  0  0  0  0  0  0  0  0  0  0
  138.1900   68.9130  224.8490 C   0  0  2  0  0  0  0  0  0  0  0  0
  137.7837   68.1448  225.5235 H   0  0  0  0  0  0  0  0  0  0  0  0
  139.1340   69.7110  225.7360 C   0  0  0  0  0  0  0  0  0  0  0  0
  139.8820   70.8110  225.2640 C   0  0  0  0  0  0  0  0  0  0  0  0
  139.8122   71.1054  224.2064 H   0  0  0  0  0  0  0  0  0  0  0  0
  140.7110   71.5290  226.1310 C   0  0  0  0  0  0  0  0  0  0  0  0
  141.2888   72.3857  225.7540 H   0  0  0  0  0  0  0  0  0  0  0  0
  140.8070   71.1610  227.4740 C   0  0  0  0  0  0  0  0  0  0  0  0
  141.4579   71.7292  228.1548 H   0  0  0  0  0  0  0  0  0  0  0  0
  140.0770   70.0720  227.9530 C   0  0  0  0  0  0  0  0  0  0  0  0
  140.1561   69.7802  229.0107 H   0  0  0  0  0  0  0  0  0  0  0  0
  139.2460   69.3520  227.0910 C   0  0  0  0  0  0  0  0  0  0  0  0
  138.6734   68.4954  227.4763 H   0  0  0  0  0  0  0  0  0  0  0  0
  138.8590   68.1380  223.7070 C   0  0  0  0  0  0  0  0  0  0  0  0
  139.5235   67.3682  224.1263 H   0  0  0  0  0  0  0  0  0  0  0  0
  138.0868   67.6581  223.0878 H   0  0  0  0  0  0  0  0  0  0  0  0
  139.4465   68.8319  223.0878 H   0  0  0  0  0  0  0  0  0  0  0  0
  1  2  1  0
  2  3  2  0
  3  4  1  0
  4  5  1  0
  5  6  1  0
  6  7  2  0
  7  8  1  0
  8  9  1  0
  8 10  2  0
 10 11  1  0
 10 12  1  0
 12 13  1  0
 12 14  2  0
 14 15  1  0
 14 16  1  0
 16 17  1  0
 17 18  2  0
 17 19  1  0
 19 20  1  0
 20 21  1  0
 20 22  2  0
 22 23  1  0
 23 24  2  0
 23 25  1  0
 25 26  1  0
 26 27  1  1
 26 28  1  0
 28 29  2  0
 29 30  1  0
 29 31  1  0
 31 32  1  0
 31 33  2  0
 33 34  1  0
 33 35  1  0
 35 36  1  0
 35 37  2  0
 37 38  1  0
 26 39  1  0
 39 40  1  0
 39 41  1  0
 39 42  1  0
 22  3  1  0
 37 28  1  0
 19  5  2  0
 16  7  1  0
M  CHG  2   4  -1  25  -1
M  END
>  <UniqueID>  (59) 
33

>  <SMILES>  (59) 
[H]/N=c1/[n-]c2nc3ccccn3c(=O)c2cc1C(=O)[N-][C@@H](C)c1ccccc1

>  <Energy>  (59) 
64.8276068987483

>  <Genealogy>  (59) 
C[C@H]([N-]C(=O)c1cc2c(=O)n3ccccc3nc2[n-]c1=N)c1ccccc1 (protonated)
[H]/N=c1/[n-]c2nc3ccccn3c(=O)c2cc1C(=O)[N-][C@@H](C)c1ccccc1 (cis-trans isomerization)
[H]/N=c1/[n-]c2nc3ccccn3c(=O)c2cc1C(=O)[N-][C@@H](C)c1ccccc1 (3D coordinates assigned)
[H]/N=c1/[n-]c2nc3ccccn3c(=O)c2cc1C(=O)[N-][C@@H](C)c1ccccc1 (optimized conformer: 64.8276068987483 kcal/mol)

>  <smiles>  (59) 
C[C@H](NC(=O)c1cc2c(=O)n3ccccc3nc2[nH]c1=N)c1ccccc1

>  <score_type>  (59) 
oracle

>  <origin>  (59) 
autodockgpu

>  <m_score__min__energy>  (59) 
-8.0099999999999998

>  <m_primary>  (59) 
energy

>  <meeko>  (59) 
{"free_energy": -8.01, "intermolecular_energy": -9.5, "internal_energy": -0.71, "cluster_size": 15, "cluster_id": 1, "rank_in_cluster": 2}

>  <energy>  (59) 
-6.16

>  <cluster_rmsd>  (59) 
0.0

>  <rmsd>  (59) 
270.85

>  <cluster>  (59) 
3

$$$$
HDANWICVGDYKAH-XBMCPTRANA-L
     RDKit          3D

 42 45  0  0  0  0  0  0  0  0999 V2000
  134.3290   68.4570  226.0060 H   0  0  0  0  0  0  0  0  0  0  0  0
  133.9890   69.3230  226.4810 N   0  0  0  0  0  0  0  0  0  0  0  0
  134.2160   70.5240  226.0460 C   0  0  0  0  0  0  0  0  0  0  0  0
  133.5840   71.5650  226.6490 N   0  0  0  0  0  0  0  0  0  0  0  0
  133.7620   72.8520  226.2520 C   0  0  0  0  0  0  0  0  0  0  0  0
  133.1200   73.8510  226.8980 N   0  0  0  0  0  0  0  0  0  0  0  0
  133.2720   75.1480  226.5270 C   0  0  0  0  0  0  0  0  0  0  0  0
  132.5840   76.1410  227.2330 C   0  0  0  0  0  0  0  0  0  0  0  0
  131.9298   75.8696  228.0747 H   0  0  0  0  0  0  0  0  0  0  0  0
  132.7330   77.4750  226.8630 C   0  0  0  0  0  0  0  0  0  0  0  0
  132.1978   78.2634  227.4126 H   0  0  0  0  0  0  0  0  0  0  0  0
  133.5610   77.8070  225.7960 C   0  0  0  0  0  0  0  0  0  0  0  0
  133.6827   78.8584  225.4966 H   0  0  0  0  0  0  0  0  0  0  0  0
  134.2370   76.7980  225.1070 C   0  0  0  0  0  0  0  0  0  0  0  0
  134.8923   77.0613  224.2637 H   0  0  0  0  0  0  0  0  0  0  0  0
  134.0940   75.4810  225.4690 N   0  0  0  0  0  0  0  0  0  0  0  0
  134.7620   74.4900  224.7890 C   0  0  0  0  0  0  0  0  0  0  0  0
  135.5190   74.7780  223.8180 O   0  0  0  0  0  0  0  0  0  0  0  0
  134.6080   73.1470  225.1710 C   0  0  0  0  0  0  0  0  0  0  0  0
  135.2670   72.0920  224.5210 C   0  0  0  0  0  0  0  0  0  0  0  0
  135.9118   72.2993  223.6542 H   0  0  0  0  0  0  0  0  0  0  0  0
  135.1060   70.7750  224.9730 C   0  0  0  0  0  0  0  0  0  0  0  0
  135.8320   69.6890  224.2920 C   0  0  0  0  0  0  0  0  0  0  0  0
  135.7130   68.5160  224.7320 O   0  0  0  0  0  0  0  0  0  0  0  0
  136.7090   69.9260  223.1790 N   0  0  0  0  0  0  0  0  0  0  0  0
  138.1240   70.3120  223.2000 C   0  0  2  0  0  0  0  0  0  0  0  0
  138.6623   69.7662  222.4111 H   0  0  0  0  0  0  0  0  0  0  0  0
  138.8130   69.8700  224.4840 C   0  0  0  0  0  0  0  0  0  0  0  0
  139.4950   70.7670  225.3350 C   0  0  0  0  0  0  0  0  0  0  0  0
  139.5638   71.8311  225.0648 H   0  0  0  0  0  0  0  0  0  0  0  0
  140.0830   70.3120  226.5180 C   0  0  0  0  0  0  0  0  0  0  0  0
  140.6096   71.0189  227.1760 H   0  0  0  0  0  0  0  0  0  0  0  0
  140.0040   68.9630  226.8670 C   0  0  0  0  0  0  0  0  0  0  0  0
  140.4674   68.6078  227.7993 H   0  0  0  0  0  0  0  0  0  0  0  0
  139.3370   68.0650  226.0330 C   0  0  0  0  0  0  0  0  0  0  0  0
  139.2766   67.0017  226.3080 H   0  0  0  0  0  0  0  0  0  0  0  0
  138.7450   68.5140  224.8480 C   0  0  0  0  0  0  0  0  0  0  0  0
  138.2217   67.7998  224.1953 H   0  0  0  0  0  0  0  0  0  0  0  0
  138.2830   71.7950  222.8470 C   0  0  0  0  0  0  0  0  0  0  0  0
  138.3465   72.3873  223.7718 H   0  0  0  0  0  0  0  0  0  0  0  0
  139.2013   71.9353  222.2579 H   0  0  0  0  0  0  0  0  0  0  0  0
  137.4153   72.1268  222.2579 H   0  0  0  0  0  0  0  0  0  0  0  0
  1  2  1  0
  2  3  2  0
  3  4  1  0
  4  5  1  0
  5  6  1  0
  6  7  2  0
  7  8  1  0
  8  9  1  0
  8 10  2  0
 10 11  1  0
 10 12  1  0
 12 13  1  0
 12 14  2  0
 14 15  1  0
 14 16  1  0
 16 17  1  0
 17 18  2  0
 17 19  1  0
 19 20  1  0
 20 21  1  0
 20 22  2  0
 22 23  1  0
 23 24  2  0
 23 25  1  0
 25 26  1  0
 26 27  1  6
 26 28  1  0
 28 29  2  0
 29 30  1  0
 29 31  1  0
 31 32  1  0
 31 33  2  0
 33 34  1  0
 33 35  1  0
 35 36  1  0
 35 37  2  0
 37 38  1  0
 26 39  1  0
 39 40  1  0
 39 41  1  0
 39 42  1  0
 22  3  1  0
 37 28  1  0
 19  5  2  0
 16  7  1  0
M  CHG  2   4  -1  25  -1
M  END
>  <UniqueID>  (60) 
33

>  <SMILES>  (60) 
[H]/N=c1/[n-]c2nc3ccccn3c(=O)c2cc1C(=O)[N-][C@@H](C)c1ccccc1

>  <Energy>  (60) 
64.8276068987483

>  <Genealogy>  (60) 
C[C@H]([N-]C(=O)c1cc2c(=O)n3ccccc3nc2[n-]c1=N)c1ccccc1 (protonated)
[H]/N=c1/[n-]c2nc3ccccn3c(=O)c2cc1C(=O)[N-][C@@H](C)c1ccccc1 (cis-trans isomerization)
[H]/N=c1/[n-]c2nc3ccccn3c(=O)c2cc1C(=O)[N-][C@@H](C)c1ccccc1 (3D coordinates assigned)
[H]/N=c1/[n-]c2nc3ccccn3c(=O)c2cc1C(=O)[N-][C@@H](C)c1ccccc1 (optimized conformer: 64.8276068987483 kcal/mol)

>  <smiles>  (60) 
C[C@H](NC(=O)c1cc2c(=O)n3ccccc3nc2[nH]c1=N)c1ccccc1

>  <score_type>  (60) 
oracle

>  <origin>  (60) 
autodockgpu

>  <m_score__min__energy>  (60) 
-8.0099999999999998

>  <m_primary>  (60) 
energy

>  <meeko>  (60) 
{"free_energy": -6.84, "intermolecular_energy": -8.33, "internal_energy": -0.9, "cluster_size": 15, "cluster_id": 1, "rank_in_cluster": 15}

>  <energy>  (60) 
-6.16

>  <cluster_rmsd>  (60) 
0.1

>  <rmsd>  (60) 
270.89

>  <cluster>  (60) 
3

$$$$
HDANWICVGDYKAH-GWJUIIKNNA-M
     RDKit          3D

 43 46  0  0  0  0  0  0  0  0999 V2000
  134.2640   68.0340  226.1960 H   0  0  0  0  0  0  0  0  0  0  0  0
  133.6020   68.7970  226.4620 N   0  0  0  0  0  0  0  0  0  0  0  0
  133.8430   70.0370  226.1760 C   0  0  0  0  0  0  0  0  0  0  0  0
  133.1430   71.0120  226.8190 N   0  0  0  0  0  0  0  0  0  0  0  0
  133.3570   72.3310  226.5900 C   0  0  0  0  0  0  0  0  0  0  0  0
  132.6280   73.2560  227.2580 N   0  0  0  0  0  0  0  0  0  0  0  0
  132.8160   74.5860  227.0560 C   0  0  0  0  0  0  0  0  0  0  0  0
  132.0350   75.4990  227.7730 C   0  0  0  0  0  0  0  0  0  0  0  0
  131.2810   75.1399  228.4888 H   0  0  0  0  0  0  0  0  0  0  0  0
  132.2180   76.8640  227.5750 C   0  0  0  0  0  0  0  0  0  0  0  0
  131.6090   77.5894  228.1343 H   0  0  0  0  0  0  0  0  0  0  0  0
  133.1740   77.3080  226.6670 C   0  0  0  0  0  0  0  0  0  0  0  0
  133.3246   78.3855  226.5048 H   0  0  0  0  0  0  0  0  0  0  0  0
  133.9410   76.3780  225.9630 C   0  0  0  0  0  0  0  0  0  0  0  0
  134.6969   76.7291  225.2452 H   0  0  0  0  0  0  0  0  0  0  0  0
  133.7630   75.0290  226.1560 N   0  0  0  0  0  0  0  0  0  0  0  0
  134.5210   74.1160  225.4600 C   0  0  0  0  0  0  0  0  0  0  0  0
  135.3930   74.5050  224.6320 O   0  0  0  0  0  0  0  0  0  0  0  0
  134.3280   72.7380  225.6680 C   0  0  0  0  0  0  0  0  0  0  0  0
  135.0680   71.7570  224.9880 C   0  0  0  0  0  0  0  0  0  0  0  0
  135.8379   72.0603  224.2632 H   0  0  0  0  0  0  0  0  0  0  0  0
  134.8340   70.3900  225.2250 C   0  0  0  0  0  0  0  0  0  0  0  0
  135.6380   69.3830  224.4750 C   0  0  0  0  0  0  0  0  0  0  0  0
  136.8590   69.6660  224.1120 N   0  0  0  0  0  0  0  0  0  0  0  0
  138.0940   68.9120  224.3640 C   0  0  2  0  0  0  0  0  0  0  0  0
  137.8628   67.9749  224.8916 H   0  0  0  0  0  0  0  0  0  0  0  0
  139.0090   69.6480  225.3360 C   0  0  0  0  0  0  0  0  0  0  0  0
  139.2250   69.0870  226.6100 C   0  0  0  0  0  0  0  0  0  0  0  0
  138.7248   68.1461  226.8832 H   0  0  0  0  0  0  0  0  0  0  0  0
  140.0690   69.7150  227.5300 C   0  0  0  0  0  0  0  0  0  0  0  0
  140.2238   69.2711  228.5245 H   0  0  0  0  0  0  0  0  0  0  0  0
  140.7160   70.9040  227.1900 C   0  0  0  0  0  0  0  0  0  0  0  0
  141.3768   71.3985  227.9172 H   0  0  0  0  0  0  0  0  0  0  0  0
  140.5240   71.4650  225.9270 C   0  0  0  0  0  0  0  0  0  0  0  0
  141.0367   72.4007  225.6593 H   0  0  0  0  0  0  0  0  0  0  0  0
  139.6820   70.8420  225.0000 C   0  0  0  0  0  0  0  0  0  0  0  0
  139.5436   71.2855  224.0029 H   0  0  0  0  0  0  0  0  0  0  0  0
  138.7300   68.4610  223.0400 C   0  0  0  0  0  0  0  0  0  0  0  0
  139.6107   67.8364  223.2503 H   0  0  0  0  0  0  0  0  0  0  0  0
  137.9978   67.8792  222.4609 H   0  0  0  0  0  0  0  0  0  0  0  0
  139.0368   69.3445  222.4609 H   0  0  0  0  0  0  0  0  0  0  0  0
  135.0500   68.1470  224.1870 O   0  0  0  0  0  0  0  0  0  0  0  0
  134.2080   67.8040  224.6230 H   0  0  0  0  0  0  0  0  0  0  0  0
  1  2  1  0
  2  3  2  0
  3  4  1  0
  4  5  1  0
  5  6  1  0
  6  7  2  0
  7  8  1  0
  8  9  1  0
  8 10  2  0
 10 11  1  0
 10 12  1  0
 12 13  1  0
 12 14  2  0
 14 15  1  0
 14 16  1  0
 16 17  1  0
 17 18  2  0
 17 19  1  0
 19 20  1  0
 20 21  1  0
 20 22  2  0
 22 23  1  0
 23 24  2  0
 24 25  1  0
 25 26  1  1
 25 27  1  0
 27 28  2  0
 28 29  1  0
 28 30  1  0
 30 31  1  0
 30 32  2  0
 32 33  1  0
 32 34  1  0
 34 35  1  0
 34 36  2  0
 36 37  1  0
 25 38  1  0
 38 39  1  0
 38 40  1  0
 38 41  1  0
 23 42  1  0
 42 43  1  0
 22  3  1  0
 36 27  1  0
 19  5  2  0
 16  7  1  0
M  CHG  1   4  -1
M  END
>  <UniqueID>  (61) 
34

>  <SMILES>  (61) 
[H]/N=c1\[n-]c2nc3ccccn3c(=O)c2cc1/C(O)=N/[C@@H](C)c1ccccc1

>  <Energy>  (61) 
65.44549303457782

>  <Genealogy>  (61) 
C[C@H](NC(=O)c1cc2c(=O)n3ccccc3nc2[n-]c1=N)c1ccccc1 (protonated)
C[C@H](N=C(O)c1cc2c(=O)n3ccccc3nc2[n-]c1=N)c1ccccc1 (tautomer)
[H]/N=c1\[n-]c2nc3ccccn3c(=O)c2cc1/C(O)=N/[C@@H](C)c1ccccc1 (cis-trans isomerization)
[H]/N=c1\[n-]c2nc3ccccn3c(=O)c2cc1/C(O)=N/[C@@H](C)c1ccccc1 (3D coordinates assigned)
[H]/N=c1\[n-]c2nc3ccccn3c(=O)c2cc1/C(O)=N/[C@@H](C)c1ccccc1 (optimized conformer: 65.44549303457782 kcal/mol)

>  <smiles>  (61) 
C[C@H](NC(=O)c1cc2c(=O)n3ccccc3nc2[nH]c1=N)c1ccccc1

>  <score_type>  (61) 
oracle

>  <origin>  (61) 
autodockgpu

>  <m_score__min__energy>  (61) 
-7.6100000000000003

>  <m_primary>  (61) 
energy

>  <meeko>  (61) 
{"free_energy": -7.59, "intermolecular_energy": -9.38, "internal_energy": -1.62, "cluster_size": 10, "cluster_id": 1, "rank_in_cluster": 3}

>  <energy>  (61) 
-7.61

>  <cluster_rmsd>  (61) 
0.0

>  <rmsd>  (61) 
270.26

>  <cluster>  (61) 
1

$$$$
HDANWICVGDYKAH-GWJUIIKNNA-M
     RDKit          3D

 43 46  0  0  0  0  0  0  0  0999 V2000
  134.2280   68.0350  226.1150 H   0  0  0  0  0  0  0  0  0  0  0  0
  133.5900   68.8030  226.4250 N   0  0  0  0  0  0  0  0  0  0  0  0
  133.8350   70.0440  226.1490 C   0  0  0  0  0  0  0  0  0  0  0  0
  133.1290   71.0160  226.7900 N   0  0  0  0  0  0  0  0  0  0  0  0
  133.3470   72.3360  226.5710 C   0  0  0  0  0  0  0  0  0  0  0  0
  132.6110   73.2580  227.2370 N   0  0  0  0  0  0  0  0  0  0  0  0
  132.8030   74.5880  227.0450 C   0  0  0  0  0  0  0  0  0  0  0  0
  132.0150   75.4980  227.7590 C   0  0  0  0  0  0  0  0  0  0  0  0
  131.2527   75.1351  228.4642 H   0  0  0  0  0  0  0  0  0  0  0  0
  132.2010   76.8640  227.5720 C   0  0  0  0  0  0  0  0  0  0  0  0
  131.5867   77.5863  228.1296 H   0  0  0  0  0  0  0  0  0  0  0  0
  133.1670   77.3130  226.6770 C   0  0  0  0  0  0  0  0  0  0  0  0
  133.3203   78.3914  226.5232 H   0  0  0  0  0  0  0  0  0  0  0  0
  133.9410   76.3860  225.9750 C   0  0  0  0  0  0  0  0  0  0  0  0
  134.7041   76.7411  225.2668 H   0  0  0  0  0  0  0  0  0  0  0  0
  133.7610   75.0360  226.1580 N   0  0  0  0  0  0  0  0  0  0  0  0
  134.5250   74.1270  225.4650 C   0  0  0  0  0  0  0  0  0  0  0  0
  135.4060   74.5200  224.6490 O   0  0  0  0  0  0  0  0  0  0  0  0
  134.3290   72.7480  225.6630 C   0  0  0  0  0  0  0  0  0  0  0  0
  135.0740   71.7700  224.9850 C   0  0  0  0  0  0  0  0  0  0  0  0
  135.8512   72.0768  224.2696 H   0  0  0  0  0  0  0  0  0  0  0  0
  134.8370   70.4020  225.2110 C   0  0  0  0  0  0  0  0  0  0  0  0
  135.6480   69.3980  224.4640 C   0  0  0  0  0  0  0  0  0  0  0  0
  136.8870   69.6660  224.1540 N   0  0  0  0  0  0  0  0  0  0  0  0
  138.1010   68.9010  224.4680 C   0  0  2  0  0  0  0  0  0  0  0  0
  137.8427   68.0106  225.0600 H   0  0  0  0  0  0  0  0  0  0  0  0
  139.0300   69.6810  225.3910 C   0  0  0  0  0  0  0  0  0  0  0  0
  139.2200   69.2110  226.7050 C   0  0  0  0  0  0  0  0  0  0  0  0
  138.6908   68.3077  227.0426 H   0  0  0  0  0  0  0  0  0  0  0  0
  140.0750   69.8820  227.5840 C   0  0  0  0  0  0  0  0  0  0  0  0
  140.2095   69.5093  228.6102 H   0  0  0  0  0  0  0  0  0  0  0  0
  140.7580   71.0230  227.1630 C   0  0  0  0  0  0  0  0  0  0  0  0
  141.4271   71.5515  227.8579 H   0  0  0  0  0  0  0  0  0  0  0  0
  140.5920   71.4940  225.8590 C   0  0  0  0  0  0  0  0  0  0  0  0
  141.1340   72.3918  225.5271 H   0  0  0  0  0  0  0  0  0  0  0  0
  139.7390   70.8280  224.9740 C   0  0  0  0  0  0  0  0  0  0  0  0
  139.6196   71.2003  223.9458 H   0  0  0  0  0  0  0  0  0  0  0  0
  138.7320   68.3400  223.1840 C   0  0  0  0  0  0  0  0  0  0  0  0
  139.5301   67.6304  223.4475 H   0  0  0  0  0  0  0  0  0  0  0  0
  137.9620   67.8228  222.5927 H   0  0  0  0  0  0  0  0  0  0  0  0
  139.1555   69.1652  222.5927 H   0  0  0  0  0  0  0  0  0  0  0  0
  135.0460   68.1830  224.1210 O   0  0  0  0  0  0  0  0  0  0  0  0
  134.2320   67.8040  224.5790 H   0  0  0  0  0  0  0  0  0  0  0  0
  1  2  1  0
  2  3  2  0
  3  4  1  0
  4  5  1  0
  5  6  1  0
  6  7  2  0
  7  8  1  0
  8  9  1  0
  8 10  2  0
 10 11  1  0
 10 12  1  0
 12 13  1  0
 12 14  2  0
 14 15  1  0
 14 16  1  0
 16 17  1  0
 17 18  2  0
 17 19  1  0
 19 20  1  0
 20 21  1  0
 20 22  2  0
 22 23  1  0
 23 24  2  0
 24 25  1  0
 25 26  1  1
 25 27  1  0
 27 28  2  0
 28 29  1  0
 28 30  1  0
 30 31  1  0
 30 32  2  0
 32 33  1  0
 32 34  1  0
 34 35  1  0
 34 36  2  0
 36 37  1  0
 25 38  1  0
 38 39  1  0
 38 40  1  0
 38 41  1  0
 23 42  1  0
 42 43  1  0
 22  3  1  0
 36 27  1  0
 19  5  2  0
 16  7  1  0
M  CHG  1   4  -1
M  END
>  <UniqueID>  (62) 
34

>  <SMILES>  (62) 
[H]/N=c1\[n-]c2nc3ccccn3c(=O)c2cc1/C(O)=N/[C@@H](C)c1ccccc1

>  <Energy>  (62) 
65.44549303457782

>  <Genealogy>  (62) 
C[C@H](NC(=O)c1cc2c(=O)n3ccccc3nc2[n-]c1=N)c1ccccc1 (protonated)
C[C@H](N=C(O)c1cc2c(=O)n3ccccc3nc2[n-]c1=N)c1ccccc1 (tautomer)
[H]/N=c1\[n-]c2nc3ccccn3c(=O)c2cc1/C(O)=N/[C@@H](C)c1ccccc1 (cis-trans isomerization)
[H]/N=c1\[n-]c2nc3ccccn3c(=O)c2cc1/C(O)=N/[C@@H](C)c1ccccc1 (3D coordinates assigned)
[H]/N=c1\[n-]c2nc3ccccn3c(=O)c2cc1/C(O)=N/[C@@H](C)c1ccccc1 (optimized conformer: 65.44549303457782 kcal/mol)

>  <smiles>  (62) 
C[C@H](NC(=O)c1cc2c(=O)n3ccccc3nc2[nH]c1=N)c1ccccc1

>  <score_type>  (62) 
oracle

>  <origin>  (62) 
autodockgpu

>  <m_score__min__energy>  (62) 
-7.6100000000000003

>  <m_primary>  (62) 
energy

>  <meeko>  (62) 
{"free_energy": -7.61, "intermolecular_energy": -9.4, "internal_energy": -1.62, "cluster_size": 10, "cluster_id": 1, "rank_in_cluster": 1}

>  <energy>  (62) 
-7.6

>  <cluster_rmsd>  (62) 
0.04

>  <rmsd>  (62) 
270.26

>  <cluster>  (62) 
1

$$$$
HDANWICVGDYKAH-GWJUIIKNNA-M
     RDKit          3D

 43 46  0  0  0  0  0  0  0  0999 V2000
  138.9700   71.4360  219.8830 H   0  0  0  0  0  0  0  0  0  0  0  0
  138.7360   70.7690  220.6520 N   0  0  0  0  0  0  0  0  0  0  0  0
  139.1990   70.9240  221.8510 C   0  0  0  0  0  0  0  0  0  0  0  0
  139.1550   69.8760  222.7190 N   0  0  0  0  0  0  0  0  0  0  0  0
  139.6420   69.9560  223.9810 C   0  0  0  0  0  0  0  0  0  0  0  0
  139.5680   68.8800  224.8000 N   0  0  0  0  0  0  0  0  0  0  0  0
  140.0480   68.9240  226.0700 C   0  0  0  0  0  0  0  0  0  0  0  0
  139.9460   67.7830  226.8730 C   0  0  0  0  0  0  0  0  0  0  0  0
  139.4836   66.8669  226.4767 H   0  0  0  0  0  0  0  0  0  0  0  0
  140.4330   67.8140  228.1760 C   0  0  0  0  0  0  0  0  0  0  0  0
  140.3575   66.9218  228.8149 H   0  0  0  0  0  0  0  0  0  0  0  0
  141.0160   68.9780  228.6680 C   0  0  0  0  0  0  0  0  0  0  0  0
  141.4034   69.0108  229.6970 H   0  0  0  0  0  0  0  0  0  0  0  0
  141.1060   70.1040  227.8470 C   0  0  0  0  0  0  0  0  0  0  0  0
  141.5661   71.0243  228.2360 H   0  0  0  0  0  0  0  0  0  0  0  0
  140.6270   70.0770  226.5590 N   0  0  0  0  0  0  0  0  0  0  0  0
  140.7170   71.1880  225.7550 C   0  0  0  0  0  0  0  0  0  0  0  0
  141.2450   72.2520  226.1880 O   0  0  0  0  0  0  0  0  0  0  0  0
  140.2220   71.1460  224.4390 C   0  0  0  0  0  0  0  0  0  0  0  0
  140.2830   72.2450  223.5690 C   0  0  0  0  0  0  0  0  0  0  0  0
  140.7385   73.1857  223.9119 H   0  0  0  0  0  0  0  0  0  0  0  0
  139.7680   72.1570  222.2630 C   0  0  0  0  0  0  0  0  0  0  0  0
  139.8480   73.3520  221.3750 C   0  0  0  0  0  0  0  0  0  0  0  0
  140.8320   74.1980  221.5120 N   0  0  0  0  0  0  0  0  0  0  0  0
  141.7350   74.7350  220.4850 C   0  0  2  0  0  0  0  0  0  0  0  0
  141.3562   74.4870  219.4825 H   0  0  0  0  0  0  0  0  0  0  0  0
  143.0970   74.0520  220.5270 C   0  0  0  0  0  0  0  0  0  0  0  0
  143.1420   72.6460  220.5890 C   0  0  0  0  0  0  0  0  0  0  0  0
  142.2041   72.0721  220.6197 H   0  0  0  0  0  0  0  0  0  0  0  0
  144.3670   71.9720  220.6120 C   0  0  0  0  0  0  0  0  0  0  0  0
  144.3883   70.8736  220.6680 H   0  0  0  0  0  0  0  0  0  0  0  0
  145.5620   72.6900  220.5640 C   0  0  0  0  0  0  0  0  0  0  0  0
  146.5246   72.1581  220.5860 H   0  0  0  0  0  0  0  0  0  0  0  0
  145.5360   74.0840  220.4880 C   0  0  0  0  0  0  0  0  0  0  0  0
  146.4792   74.6486  220.4477 H   0  0  0  0  0  0  0  0  0  0  0  0
  144.3140   74.7650  220.4630 C   0  0  0  0  0  0  0  0  0  0  0  0
  144.3013   75.8627  220.3930 H   0  0  0  0  0  0  0  0  0  0  0  0
  141.7430   76.2710  220.5240 C   0  0  0  0  0  0  0  0  0  0  0  0
  141.7448   76.6112  221.5701 H   0  0  0  0  0  0  0  0  0  0  0  0
  142.6431   76.6460  220.0149 H   0  0  0  0  0  0  0  0  0  0  0  0
  140.8468   76.6554  220.0149 H   0  0  0  0  0  0  0  0  0  0  0  0
  138.8530   73.5270  220.4070 O   0  0  0  0  0  0  0  0  0  0  0  0
  138.2400   72.7940  220.0860 H   0  0  0  0  0  0  0  0  0  0  0  0
  1  2  1  0
  2  3  2  0
  3  4  1  0
  4  5  1  0
  5  6  1  0
  6  7  2  0
  7  8  1  0
  8  9  1  0
  8 10  2  0
 10 11  1  0
 10 12  1  0
 12 13  1  0
 12 14  2  0
 14 15  1  0
 14 16  1  0
 16 17  1  0
 17 18  2  0
 17 19  1  0
 19 20  1  0
 20 21  1  0
 20 22  2  0
 22 23  1  0
 23 24  2  0
 24 25  1  0
 25 26  1  6
 25 27  1  0
 27 28  2  0
 28 29  1  0
 28 30  1  0
 30 31  1  0
 30 32  2  0
 32 33  1  0
 32 34  1  0
 34 35  1  0
 34 36  2  0
 36 37  1  0
 25 38  1  0
 38 39  1  0
 38 40  1  0
 38 41  1  0
 23 42  1  0
 42 43  1  0
 22  3  1  0
 36 27  1  0
 19  5  2  0
 16  7  1  0
M  CHG  1   4  -1
M  END
>  <UniqueID>  (63) 
34

>  <SMILES>  (63) 
[H]/N=c1\[n-]c2nc3ccccn3c(=O)c2cc1/C(O)=N/[C@@H](C)c1ccccc1

>  <Energy>  (63) 
65.44549303457782

>  <Genealogy>  (63) 
C[C@H](NC(=O)c1cc2c(=O)n3ccccc3nc2[n-]c1=N)c1ccccc1 (protonated)
C[C@H](N=C(O)c1cc2c(=O)n3ccccc3nc2[n-]c1=N)c1ccccc1 (tautomer)
[H]/N=c1\[n-]c2nc3ccccn3c(=O)c2cc1/C(O)=N/[C@@H](C)c1ccccc1 (cis-trans isomerization)
[H]/N=c1\[n-]c2nc3ccccn3c(=O)c2cc1/C(O)=N/[C@@H](C)c1ccccc1 (3D coordinates assigned)
[H]/N=c1\[n-]c2nc3ccccn3c(=O)c2cc1/C(O)=N/[C@@H](C)c1ccccc1 (optimized conformer: 65.44549303457782 kcal/mol)

>  <smiles>  (63) 
C[C@H](NC(=O)c1cc2c(=O)n3ccccc3nc2[nH]c1=N)c1ccccc1

>  <score_type>  (63) 
oracle

>  <origin>  (63) 
autodockgpu

>  <m_score__min__energy>  (63) 
-7.6100000000000003

>  <m_primary>  (63) 
energy

>  <meeko>  (63) 
{"free_energy": -6.72, "intermolecular_energy": -8.51, "internal_energy": -1.69, "cluster_size": 2, "cluster_id": 4, "rank_in_cluster": 1}

>  <energy>  (63) 
-7.59

>  <cluster_rmsd>  (63) 
0.08

>  <rmsd>  (63) 
270.25

>  <cluster>  (63) 
1

$$$$
HDANWICVGDYKAH-GWJUIIKNNA-M
     RDKit          3D

 43 46  0  0  0  0  0  0  0  0999 V2000
  134.2540   68.0480  226.1810 H   0  0  0  0  0  0  0  0  0  0  0  0
  133.5990   68.8120  226.4620 N   0  0  0  0  0  0  0  0  0  0  0  0
  133.8400   70.0530  226.1780 C   0  0  0  0  0  0  0  0  0  0  0  0
  133.1390   71.0270  226.8210 N   0  0  0  0  0  0  0  0  0  0  0  0
  133.3520   72.3460  226.5940 C   0  0  0  0  0  0  0  0  0  0  0  0
  132.6220   73.2700  227.2620 N   0  0  0  0  0  0  0  0  0  0  0  0
  132.8100   74.6000  227.0610 C   0  0  0  0  0  0  0  0  0  0  0  0
  132.0280   75.5120  227.7780 C   0  0  0  0  0  0  0  0  0  0  0  0
  131.2732   75.1513  228.4922 H   0  0  0  0  0  0  0  0  0  0  0  0
  132.2100   76.8780  227.5830 C   0  0  0  0  0  0  0  0  0  0  0  0
  131.6004   77.6023  228.1431 H   0  0  0  0  0  0  0  0  0  0  0  0
  133.1670   77.3230  226.6760 C   0  0  0  0  0  0  0  0  0  0  0  0
  133.3176   78.4006  226.5146 H   0  0  0  0  0  0  0  0  0  0  0  0
  133.9350   76.3930  225.9720 C   0  0  0  0  0  0  0  0  0  0  0  0
  134.6910   76.7454  225.2549 H   0  0  0  0  0  0  0  0  0  0  0  0
  133.7590   75.0440  226.1630 N   0  0  0  0  0  0  0  0  0  0  0  0
  134.5170   74.1330  225.4670 C   0  0  0  0  0  0  0  0  0  0  0  0
  135.3910   74.5230  224.6410 O   0  0  0  0  0  0  0  0  0  0  0  0
  134.3250   72.7550  225.6740 C   0  0  0  0  0  0  0  0  0  0  0  0
  135.0660   71.7750  224.9940 C   0  0  0  0  0  0  0  0  0  0  0  0
  135.8368   72.0793  224.2707 H   0  0  0  0  0  0  0  0  0  0  0  0
  134.8320   70.4070  225.2290 C   0  0  0  0  0  0  0  0  0  0  0  0
  135.6370   69.4010  224.4790 C   0  0  0  0  0  0  0  0  0  0  0  0
  136.8640   69.6800  224.1300 N   0  0  0  0  0  0  0  0  0  0  0  0
  138.0940   68.9250  224.4020 C   0  0  2  0  0  0  0  0  0  0  0  0
  137.8562   68.0063  224.9582 H   0  0  0  0  0  0  0  0  0  0  0  0
  139.0170   69.6820  225.3490 C   0  0  0  0  0  0  0  0  0  0  0  0
  139.1990   69.1800  226.6520 C   0  0  0  0  0  0  0  0  0  0  0  0
  138.6685   68.2683  226.9638 H   0  0  0  0  0  0  0  0  0  0  0  0
  140.0480   69.8300  227.5530 C   0  0  0  0  0  0  0  0  0  0  0  0
  140.1759   69.4324  228.5706 H   0  0  0  0  0  0  0  0  0  0  0  0
  140.7330   70.9810  227.1650 C   0  0  0  0  0  0  0  0  0  0  0  0
  141.3974   71.4924  227.8771 H   0  0  0  0  0  0  0  0  0  0  0  0
  140.5750   71.4840  225.8720 C   0  0  0  0  0  0  0  0  0  0  0  0
  141.1187   72.3899  225.5660 H   0  0  0  0  0  0  0  0  0  0  0  0
  139.7280   70.8400  224.9650 C   0  0  0  0  0  0  0  0  0  0  0  0
  139.6148   71.2379  223.9458 H   0  0  0  0  0  0  0  0  0  0  0  0
  138.7240   68.4300  223.0910 C   0  0  0  0  0  0  0  0  0  0  0  0
  139.5702   67.7652  223.3190 H   0  0  0  0  0  0  0  0  0  0  0  0
  137.9715   67.8790  222.5077 H   0  0  0  0  0  0  0  0  0  0  0  0
  139.0813   69.2915  222.5077 H   0  0  0  0  0  0  0  0  0  0  0  0
  135.0450   68.1700  224.1760 O   0  0  0  0  0  0  0  0  0  0  0  0
  134.2110   67.8180  224.6200 H   0  0  0  0  0  0  0  0  0  0  0  0
  1  2  1  0
  2  3  2  0
  3  4  1  0
  4  5  1  0
  5  6  1  0
  6  7  2  0
  7  8  1  0
  8  9  1  0
  8 10  2  0
 10 11  1  0
 10 12  1  0
 12 13  1  0
 12 14  2  0
 14 15  1  0
 14 16  1  0
 16 17  1  0
 17 18  2  0
 17 19  1  0
 19 20  1  0
 20 21  1  0
 20 22  2  0
 22 23  1  0
 23 24  2  0
 24 25  1  0
 25 26  1  1
 25 27  1  0
 27 28  2  0
 28 29  1  0
 28 30  1  0
 30 31  1  0
 30 32  2  0
 32 33  1  0
 32 34  1  0
 34 35  1  0
 34 36  2  0
 36 37  1  0
 25 38  1  0
 38 39  1  0
 38 40  1  0
 38 41  1  0
 23 42  1  0
 42 43  1  0
 22  3  1  0
 36 27  1  0
 19  5  2  0
 16  7  1  0
M  CHG  1   4  -1
M  END
>  <UniqueID>  (64) 
34

>  <SMILES>  (64) 
[H]/N=c1\[n-]c2nc3ccccn3c(=O)c2cc1/C(O)=N/[C@@H](C)c1ccccc1

>  <Energy>  (64) 
65.44549303457782

>  <Genealogy>  (64) 
C[C@H](NC(=O)c1cc2c(=O)n3ccccc3nc2[n-]c1=N)c1ccccc1 (protonated)
C[C@H](N=C(O)c1cc2c(=O)n3ccccc3nc2[n-]c1=N)c1ccccc1 (tautomer)
[H]/N=c1\[n-]c2nc3ccccn3c(=O)c2cc1/C(O)=N/[C@@H](C)c1ccccc1 (cis-trans isomerization)
[H]/N=c1\[n-]c2nc3ccccn3c(=O)c2cc1/C(O)=N/[C@@H](C)c1ccccc1 (3D coordinates assigned)
[H]/N=c1\[n-]c2nc3ccccn3c(=O)c2cc1/C(O)=N/[C@@H](C)c1ccccc1 (optimized conformer: 65.44549303457782 kcal/mol)

>  <smiles>  (64) 
C[C@H](NC(=O)c1cc2c(=O)n3ccccc3nc2[nH]c1=N)c1ccccc1

>  <score_type>  (64) 
oracle

>  <origin>  (64) 
autodockgpu

>  <m_score__min__energy>  (64) 
-7.6100000000000003

>  <m_primary>  (64) 
energy

>  <meeko>  (64) 
{"free_energy": -7.6, "intermolecular_energy": -9.39, "internal_energy": -1.62, "cluster_size": 10, "cluster_id": 1, "rank_in_cluster": 2}

>  <energy>  (64) 
-7.59

>  <cluster_rmsd>  (64) 
0.04

>  <rmsd>  (64) 
270.27

>  <cluster>  (64) 
1

$$$$
HDANWICVGDYKAH-GWJUIIKNNA-M
     RDKit          3D

 43 46  0  0  0  0  0  0  0  0999 V2000
  134.2870   68.0400  226.2170 H   0  0  0  0  0  0  0  0  0  0  0  0
  133.6150   68.8010  226.4680 N   0  0  0  0  0  0  0  0  0  0  0  0
  133.8560   70.0410  226.1840 C   0  0  0  0  0  0  0  0  0  0  0  0
  133.1580   71.0150  226.8300 N   0  0  0  0  0  0  0  0  0  0  0  0
  133.3710   72.3350  226.6030 C   0  0  0  0  0  0  0  0  0  0  0  0
  132.6440   73.2590  227.2740 N   0  0  0  0  0  0  0  0  0  0  0  0
  132.8320   74.5890  227.0740 C   0  0  0  0  0  0  0  0  0  0  0  0
  132.0540   75.5000  227.7950 C   0  0  0  0  0  0  0  0  0  0  0  0
  131.3026   75.1393  228.5128 H   0  0  0  0  0  0  0  0  0  0  0  0
  132.2360   76.8660  227.5990 C   0  0  0  0  0  0  0  0  0  0  0  0
  131.6283   77.5905  228.1610 H   0  0  0  0  0  0  0  0  0  0  0  0
  133.1900   77.3110  226.6890 C   0  0  0  0  0  0  0  0  0  0  0  0
  133.3404   78.3887  226.5278 H   0  0  0  0  0  0  0  0  0  0  0  0
  133.9550   76.3820  225.9820 C   0  0  0  0  0  0  0  0  0  0  0  0
  134.7091   76.7343  225.2628 H   0  0  0  0  0  0  0  0  0  0  0  0
  133.7780   75.0330  226.1730 N   0  0  0  0  0  0  0  0  0  0  0  0
  134.5330   74.1220  225.4730 C   0  0  0  0  0  0  0  0  0  0  0  0
  135.4040   74.5120  224.6440 O   0  0  0  0  0  0  0  0  0  0  0  0
  134.3410   72.7430  225.6790 C   0  0  0  0  0  0  0  0  0  0  0  0
  135.0790   71.7630  224.9960 C   0  0  0  0  0  0  0  0  0  0  0  0
  135.8475   72.0672  224.2702 H   0  0  0  0  0  0  0  0  0  0  0  0
  134.8450   70.3960  225.2310 C   0  0  0  0  0  0  0  0  0  0  0  0
  135.6470   69.3900  224.4780 C   0  0  0  0  0  0  0  0  0  0  0  0
  136.8600   69.6810  224.0940 N   0  0  0  0  0  0  0  0  0  0  0  0
  138.0990   68.9200  224.3000 C   0  0  2  0  0  0  0  0  0  0  0  0
  137.8738   67.9583  224.7841 H   0  0  0  0  0  0  0  0  0  0  0  0
  139.0200   69.6100  225.2990 C   0  0  0  0  0  0  0  0  0  0  0  0
  139.6640   70.8000  224.9060 C   0  0  0  0  0  0  0  0  0  0  0  0
  139.5030   71.1983  223.8934 H   0  0  0  0  0  0  0  0  0  0  0  0
  140.5060   71.4790  225.7920 C   0  0  0  0  0  0  0  0  0  0  0  0
  141.0097   72.4027  225.4711 H   0  0  0  0  0  0  0  0  0  0  0  0
  140.7090   70.9880  227.0820 C   0  0  0  0  0  0  0  0  0  0  0  0
  141.3750   71.5220  227.7757 H   0  0  0  0  0  0  0  0  0  0  0  0
  140.0660   69.8180  227.4920 C   0  0  0  0  0  0  0  0  0  0  0  0
  140.2234   69.4342  228.5108 H   0  0  0  0  0  0  0  0  0  0  0  0
  139.2230   69.1330  226.6120 C   0  0  0  0  0  0  0  0  0  0  0  0
  138.7145   68.2162  226.9449 H   0  0  0  0  0  0  0  0  0  0  0  0
  138.7260   68.5350  222.9510 C   0  0  0  0  0  0  0  0  0  0  0  0
  139.6515   67.9667  223.1257 H   0  0  0  0  0  0  0  0  0  0  0  0
  138.0177   67.9160  222.3808 H   0  0  0  0  0  0  0  0  0  0  0  0
  138.9576   69.4467  222.3808 H   0  0  0  0  0  0  0  0  0  0  0  0
  135.0660   68.1460  224.2080 O   0  0  0  0  0  0  0  0  0  0  0  0
  134.2150   67.8130  224.6350 H   0  0  0  0  0  0  0  0  0  0  0  0
  1  2  1  0
  2  3  2  0
  3  4  1  0
  4  5  1  0
  5  6  1  0
  6  7  2  0
  7  8  1  0
  8  9  1  0
  8 10  2  0
 10 11  1  0
 10 12  1  0
 12 13  1  0
 12 14  2  0
 14 15  1  0
 14 16  1  0
 16 17  1  0
 17 18  2  0
 17 19  1  0
 19 20  1  0
 20 21  1  0
 20 22  2  0
 22 23  1  0
 23 24  2  0
 24 25  1  0
 25 26  1  1
 25 27  1  0
 27 28  2  0
 28 29  1  0
 28 30  1  0
 30 31  1  0
 30 32  2  0
 32 33  1  0
 32 34  1  0
 34 35  1  0
 34 36  2  0
 36 37  1  0
 25 38  1  0
 38 39  1  0
 38 40  1  0
 38 41  1  0
 23 42  1  0
 42 43  1  0
 22  3  1  0
 36 27  1  0
 19  5  2  0
 16  7  1  0
M  CHG  1   4  -1
M  END
>  <UniqueID>  (65) 
34

>  <SMILES>  (65) 
[H]/N=c1\[n-]c2nc3ccccn3c(=O)c2cc1/C(O)=N/[C@@H](C)c1ccccc1

>  <Energy>  (65) 
65.44549303457782

>  <Genealogy>  (65) 
C[C@H](NC(=O)c1cc2c(=O)n3ccccc3nc2[n-]c1=N)c1ccccc1 (protonated)
C[C@H](N=C(O)c1cc2c(=O)n3ccccc3nc2[n-]c1=N)c1ccccc1 (tautomer)
[H]/N=c1\[n-]c2nc3ccccn3c(=O)c2cc1/C(O)=N/[C@@H](C)c1ccccc1 (cis-trans isomerization)
[H]/N=c1\[n-]c2nc3ccccn3c(=O)c2cc1/C(O)=N/[C@@H](C)c1ccccc1 (3D coordinates assigned)
[H]/N=c1\[n-]c2nc3ccccn3c(=O)c2cc1/C(O)=N/[C@@H](C)c1ccccc1 (optimized conformer: 65.44549303457782 kcal/mol)

>  <smiles>  (65) 
C[C@H](NC(=O)c1cc2c(=O)n3ccccc3nc2[nH]c1=N)c1ccccc1

>  <score_type>  (65) 
oracle

>  <origin>  (65) 
autodockgpu

>  <m_score__min__energy>  (65) 
-7.6100000000000003

>  <m_primary>  (65) 
energy

>  <meeko>  (65) 
{"free_energy": -7.56, "intermolecular_energy": -9.35, "internal_energy": -1.64, "cluster_size": 10, "cluster_id": 1, "rank_in_cluster": 8}

>  <energy>  (65) 
-7.59

>  <cluster_rmsd>  (65) 
0.05

>  <rmsd>  (65) 
270.27

>  <cluster>  (65) 
1

$$$$
HDANWICVGDYKAH-GWJUIIKNNA-M
     RDKit          3D

 43 46  0  0  0  0  0  0  0  0999 V2000
  134.2670   68.0440  226.1690 H   0  0  0  0  0  0  0  0  0  0  0  0
  133.6250   68.8110  226.4720 N   0  0  0  0  0  0  0  0  0  0  0  0
  133.8630   70.0510  226.1850 C   0  0  0  0  0  0  0  0  0  0  0  0
  133.1610   71.0250  226.8250 N   0  0  0  0  0  0  0  0  0  0  0  0
  133.3720   72.3440  226.5950 C   0  0  0  0  0  0  0  0  0  0  0  0
  132.6410   73.2690  227.2610 N   0  0  0  0  0  0  0  0  0  0  0  0
  132.8260   74.5980  227.0570 C   0  0  0  0  0  0  0  0  0  0  0  0
  132.0430   75.5110  227.7720 C   0  0  0  0  0  0  0  0  0  0  0  0
  131.2891   75.1513  228.4877 H   0  0  0  0  0  0  0  0  0  0  0  0
  132.2230   76.8760  227.5730 C   0  0  0  0  0  0  0  0  0  0  0  0
  131.6121   77.6007  228.1312 H   0  0  0  0  0  0  0  0  0  0  0  0
  133.1790   77.3210  226.6650 C   0  0  0  0  0  0  0  0  0  0  0  0
  133.3273   78.3986  226.5011 H   0  0  0  0  0  0  0  0  0  0  0  0
  133.9490   76.3910  225.9630 C   0  0  0  0  0  0  0  0  0  0  0  0
  134.7051   76.7429  225.2457 H   0  0  0  0  0  0  0  0  0  0  0  0
  133.7740   75.0420  226.1570 N   0  0  0  0  0  0  0  0  0  0  0  0
  134.5340   74.1300  225.4630 C   0  0  0  0  0  0  0  0  0  0  0  0
  135.4060   74.5200  224.6360 O   0  0  0  0  0  0  0  0  0  0  0  0
  134.3440   72.7520  225.6730 C   0  0  0  0  0  0  0  0  0  0  0  0
  135.0860   71.7720  224.9960 C   0  0  0  0  0  0  0  0  0  0  0  0
  135.8562   72.0760  224.2718 H   0  0  0  0  0  0  0  0  0  0  0  0
  134.8550   70.4040  225.2340 C   0  0  0  0  0  0  0  0  0  0  0  0
  135.6610   69.3980  224.4870 C   0  0  0  0  0  0  0  0  0  0  0  0
  136.8940   69.6690  224.1550 N   0  0  0  0  0  0  0  0  0  0  0  0
  138.1140   68.8980  224.4290 C   0  0  2  0  0  0  0  0  0  0  0  0
  137.8616   67.9721  224.9667 H   0  0  0  0  0  0  0  0  0  0  0  0
  139.0320   69.6310  225.4000 C   0  0  0  0  0  0  0  0  0  0  0  0
  139.7100   70.7790  224.9460 C   0  0  0  0  0  0  0  0  0  0  0  0
  139.5769   71.1155  223.9072 H   0  0  0  0  0  0  0  0  0  0  0  0
  140.5510   71.4950  225.8040 C   0  0  0  0  0  0  0  0  0  0  0  0
  141.0810   72.3858  225.4358 H   0  0  0  0  0  0  0  0  0  0  0  0
  140.7190   71.0820  227.1250 C   0  0  0  0  0  0  0  0  0  0  0  0
  141.3837   71.6451  227.7966 H   0  0  0  0  0  0  0  0  0  0  0  0
  140.0440   69.9540  227.5960 C   0  0  0  0  0  0  0  0  0  0  0  0
  140.1763   69.6310  228.6391 H   0  0  0  0  0  0  0  0  0  0  0  0
  139.2000   69.2340  226.7440 C   0  0  0  0  0  0  0  0  0  0  0  0
  138.6634   68.3522  227.1241 H   0  0  0  0  0  0  0  0  0  0  0  0
  138.7550   68.4190  223.1180 C   0  0  0  0  0  0  0  0  0  0  0  0
  139.6171   67.7748  223.3453 H   0  0  0  0  0  0  0  0  0  0  0  0
  138.0159   67.8501  222.5349 H   0  0  0  0  0  0  0  0  0  0  0  0
  139.0911   69.2891  222.5349 H   0  0  0  0  0  0  0  0  0  0  0  0
  135.0630   68.1740  224.1660 O   0  0  0  0  0  0  0  0  0  0  0  0
  134.2470   67.8040  224.6280 H   0  0  0  0  0  0  0  0  0  0  0  0
  1  2  1  0
  2  3  2  0
  3  4  1  0
  4  5  1  0
  5  6  1  0
  6  7  2  0
  7  8  1  0
  8  9  1  0
  8 10  2  0
 10 11  1  0
 10 12  1  0
 12 13  1  0
 12 14  2  0
 14 15  1  0
 14 16  1  0
 16 17  1  0
 17 18  2  0
 17 19  1  0
 19 20  1  0
 20 21  1  0
 20 22  2  0
 22 23  1  0
 23 24  2  0
 24 25  1  0
 25 26  1  1
 25 27  1  0
 27 28  2  0
 28 29  1  0
 28 30  1  0
 30 31  1  0
 30 32  2  0
 32 33  1  0
 32 34  1  0
 34 35  1  0
 34 36  2  0
 36 37  1  0
 25 38  1  0
 38 39  1  0
 38 40  1  0
 38 41  1  0
 23 42  1  0
 42 43  1  0
 22  3  1  0
 36 27  1  0
 19  5  2  0
 16  7  1  0
M  CHG  1   4  -1
M  END
>  <UniqueID>  (66) 
34

>  <SMILES>  (66) 
[H]/N=c1\[n-]c2nc3ccccn3c(=O)c2cc1/C(O)=N/[C@@H](C)c1ccccc1

>  <Energy>  (66) 
65.44549303457782

>  <Genealogy>  (66) 
C[C@H](NC(=O)c1cc2c(=O)n3ccccc3nc2[n-]c1=N)c1ccccc1 (protonated)
C[C@H](N=C(O)c1cc2c(=O)n3ccccc3nc2[n-]c1=N)c1ccccc1 (tautomer)
[H]/N=c1\[n-]c2nc3ccccn3c(=O)c2cc1/C(O)=N/[C@@H](C)c1ccccc1 (cis-trans isomerization)
[H]/N=c1\[n-]c2nc3ccccn3c(=O)c2cc1/C(O)=N/[C@@H](C)c1ccccc1 (3D coordinates assigned)
[H]/N=c1\[n-]c2nc3ccccn3c(=O)c2cc1/C(O)=N/[C@@H](C)c1ccccc1 (optimized conformer: 65.44549303457782 kcal/mol)

>  <smiles>  (66) 
C[C@H](NC(=O)c1cc2c(=O)n3ccccc3nc2[nH]c1=N)c1ccccc1

>  <score_type>  (66) 
oracle

>  <origin>  (66) 
autodockgpu

>  <m_score__min__energy>  (66) 
-7.6100000000000003

>  <m_primary>  (66) 
energy

>  <meeko>  (66) 
{"free_energy": -7.59, "intermolecular_energy": -9.38, "internal_energy": -1.63, "cluster_size": 10, "cluster_id": 1, "rank_in_cluster": 5}

>  <energy>  (66) 
-7.58

>  <cluster_rmsd>  (66) 
0.07

>  <rmsd>  (66) 
270.27

>  <cluster>  (66) 
1

$$$$
HDANWICVGDYKAH-GWJUIIKNNA-M
     RDKit          3D

 43 46  0  0  0  0  0  0  0  0999 V2000
  139.5280   71.2940  223.3390 H   0  0  0  0  0  0  0  0  0  0  0  0
  138.5720   71.6700  223.1470 N   0  0  0  0  0  0  0  0  0  0  0  0
  137.5400   71.2840  223.8280 C   0  0  0  0  0  0  0  0  0  0  0  0
  136.4670   72.1160  223.9320 N   0  0  0  0  0  0  0  0  0  0  0  0
  135.3430   71.7710  224.6070 C   0  0  0  0  0  0  0  0  0  0  0  0
  134.3080   72.6410  224.6790 N   0  0  0  0  0  0  0  0  0  0  0  0
  133.1670   72.3300  225.3440 C   0  0  0  0  0  0  0  0  0  0  0  0
  132.1280   73.2660  225.3870 C   0  0  0  0  0  0  0  0  0  0  0  0
  132.2398   74.2395  224.8872 H   0  0  0  0  0  0  0  0  0  0  0  0
  130.9530   72.9590  226.0650 C   0  0  0  0  0  0  0  0  0  0  0  0
  130.1306   73.6886  226.1031 H   0  0  0  0  0  0  0  0  0  0  0  0
  130.8220   71.7250  226.6950 C   0  0  0  0  0  0  0  0  0  0  0  0
  129.8964   71.4745  227.2340 H   0  0  0  0  0  0  0  0  0  0  0  0
  131.8720   70.8070  226.6390 C   0  0  0  0  0  0  0  0  0  0  0  0
  131.7679   69.8315  227.1365 H   0  0  0  0  0  0  0  0  0  0  0  0
  133.0340   71.1070  225.9700 N   0  0  0  0  0  0  0  0  0  0  0  0
  134.0660   70.1990  225.9180 C   0  0  0  0  0  0  0  0  0  0  0  0
  133.9600   69.0750  226.4850 O   0  0  0  0  0  0  0  0  0  0  0  0
  135.2490   70.5200  225.2280 C   0  0  0  0  0  0  0  0  0  0  0  0
  136.3390   69.6380  225.1390 C   0  0  0  0  0  0  0  0  0  0  0  0
  136.2800   68.6493  225.6175 H   0  0  0  0  0  0  0  0  0  0  0  0
  137.5050   70.0070  224.4440 C   0  0  0  0  0  0  0  0  0  0  0  0
  138.6400   69.0420  224.3810 C   0  0  0  0  0  0  0  0  0  0  0  0
  138.7800   68.1420  225.3160 N   0  0  0  0  0  0  0  0  0  0  0  0
  139.6430   68.1740  226.5040 C   0  0  2  0  0  0  0  0  0  0  0  0
  139.0598   67.9160  227.4003 H   0  0  0  0  0  0  0  0  0  0  0  0
  140.1360   69.5850  226.7990 C   0  0  0  0  0  0  0  0  0  0  0  0
  140.9690   70.2170  225.8550 C   0  0  0  0  0  0  0  0  0  0  0  0
  141.2563   69.6820  224.9378 H   0  0  0  0  0  0  0  0  0  0  0  0
  141.4340   71.5170  226.0720 C   0  0  0  0  0  0  0  0  0  0  0  0
  142.0895   71.9963  225.3300 H   0  0  0  0  0  0  0  0  0  0  0  0
  141.0690   72.2080  227.2270 C   0  0  0  0  0  0  0  0  0  0  0  0
  141.4394   73.2297  227.3974 H   0  0  0  0  0  0  0  0  0  0  0  0
  140.2330   71.6020  228.1670 C   0  0  0  0  0  0  0  0  0  0  0  0
  139.9431   72.1493  229.0761 H   0  0  0  0  0  0  0  0  0  0  0  0
  139.7630   70.3020  227.9570 C   0  0  0  0  0  0  0  0  0  0  0  0
  139.0984   69.8348  228.6986 H   0  0  0  0  0  0  0  0  0  0  0  0
  140.7200   67.0810  226.4180 C   0  0  0  0  0  0  0  0  0  0  0  0
  141.0177   66.7789  227.4329 H   0  0  0  0  0  0  0  0  0  0  0  0
  140.3168   66.2105  225.8797 H   0  0  0  0  0  0  0  0  0  0  0  0
  141.5963   67.4713  225.8797 H   0  0  0  0  0  0  0  0  0  0  0  0
  139.5270   69.1310  223.3030 O   0  0  0  0  0  0  0  0  0  0  0  0
  139.4740   69.8330  222.5820 H   0  0  0  0  0  0  0  0  0  0  0  0
  1  2  1  0
  2  3  2  0
  3  4  1  0
  4  5  1  0
  5  6  1  0
  6  7  2  0
  7  8  1  0
  8  9  1  0
  8 10  2  0
 10 11  1  0
 10 12  1  0
 12 13  1  0
 12 14  2  0
 14 15  1  0
 14 16  1  0
 16 17  1  0
 17 18  2  0
 17 19  1  0
 19 20  1  0
 20 21  1  0
 20 22  2  0
 22 23  1  0
 23 24  2  0
 24 25  1  0
 25 26  1  1
 25 27  1  0
 27 28  2  0
 28 29  1  0
 28 30  1  0
 30 31  1  0
 30 32  2  0
 32 33  1  0
 32 34  1  0
 34 35  1  0
 34 36  2  0
 36 37  1  0
 25 38  1  0
 38 39  1  0
 38 40  1  0
 38 41  1  0
 23 42  1  0
 42 43  1  0
 22  3  1  0
 36 27  1  0
 19  5  2  0
 16  7  1  0
M  CHG  1   4  -1
M  END
>  <UniqueID>  (67) 
34

>  <SMILES>  (67) 
[H]/N=c1\[n-]c2nc3ccccn3c(=O)c2cc1/C(O)=N/[C@@H](C)c1ccccc1

>  <Energy>  (67) 
65.44549303457782

>  <Genealogy>  (67) 
C[C@H](NC(=O)c1cc2c(=O)n3ccccc3nc2[n-]c1=N)c1ccccc1 (protonated)
C[C@H](N=C(O)c1cc2c(=O)n3ccccc3nc2[n-]c1=N)c1ccccc1 (tautomer)
[H]/N=c1\[n-]c2nc3ccccn3c(=O)c2cc1/C(O)=N/[C@@H](C)c1ccccc1 (cis-trans isomerization)
[H]/N=c1\[n-]c2nc3ccccn3c(=O)c2cc1/C(O)=N/[C@@H](C)c1ccccc1 (3D coordinates assigned)
[H]/N=c1\[n-]c2nc3ccccn3c(=O)c2cc1/C(O)=N/[C@@H](C)c1ccccc1 (optimized conformer: 65.44549303457782 kcal/mol)

>  <smiles>  (67) 
C[C@H](NC(=O)c1cc2c(=O)n3ccccc3nc2[nH]c1=N)c1ccccc1

>  <score_type>  (67) 
oracle

>  <origin>  (67) 
autodockgpu

>  <m_score__min__energy>  (67) 
-7.6100000000000003

>  <m_primary>  (67) 
energy

>  <meeko>  (67) 
{"free_energy": -6.81, "intermolecular_energy": -8.6, "internal_energy": -1.88, "cluster_size": 1, "cluster_id": 3, "rank_in_cluster": 1}

>  <energy>  (67) 
-7.58

>  <cluster_rmsd>  (67) 
0.06

>  <rmsd>  (67) 
270.27

>  <cluster>  (67) 
1

$$$$
HDANWICVGDYKAH-GWJUIIKNNA-M
     RDKit          3D

 43 46  0  0  0  0  0  0  0  0999 V2000
  134.2650   68.0190  226.1410 H   0  0  0  0  0  0  0  0  0  0  0  0
  133.6280   68.7810  226.4650 N   0  0  0  0  0  0  0  0  0  0  0  0
  133.8580   70.0250  226.1870 C   0  0  0  0  0  0  0  0  0  0  0  0
  133.1530   70.9900  226.8380 N   0  0  0  0  0  0  0  0  0  0  0  0
  133.3560   72.3130  226.6160 C   0  0  0  0  0  0  0  0  0  0  0  0
  132.6220   73.2280  227.2930 N   0  0  0  0  0  0  0  0  0  0  0  0
  132.8000   74.5600  227.0990 C   0  0  0  0  0  0  0  0  0  0  0  0
  132.0150   75.4630  227.8240 C   0  0  0  0  0  0  0  0  0  0  0  0
  131.2662   75.0934  228.5400 H   0  0  0  0  0  0  0  0  0  0  0  0
  132.1860   76.8300  227.6350 C   0  0  0  0  0  0  0  0  0  0  0  0
  131.5733   77.5470  228.2012 H   0  0  0  0  0  0  0  0  0  0  0  0
  133.1360   77.2870  226.7260 C   0  0  0  0  0  0  0  0  0  0  0  0
  133.2784   78.3666  226.5704 H   0  0  0  0  0  0  0  0  0  0  0  0
  133.9070   76.3670  226.0130 C   0  0  0  0  0  0  0  0  0  0  0  0
  134.6569   76.7286  225.2940 H   0  0  0  0  0  0  0  0  0  0  0  0
  133.7410   75.0160  226.1980 N   0  0  0  0  0  0  0  0  0  0  0  0
  134.5030   74.1140  225.4940 C   0  0  0  0  0  0  0  0  0  0  0  0
  135.3700   74.5150  224.6660 O   0  0  0  0  0  0  0  0  0  0  0  0
  134.3220   72.7330  225.6940 C   0  0  0  0  0  0  0  0  0  0  0  0
  135.0660   71.7620  225.0060 C   0  0  0  0  0  0  0  0  0  0  0  0
  135.8310   72.0758  224.2806 H   0  0  0  0  0  0  0  0  0  0  0  0
  134.8440   70.3920  225.2340 C   0  0  0  0  0  0  0  0  0  0  0  0
  135.6520   69.3950  224.4760 C   0  0  0  0  0  0  0  0  0  0  0  0
  136.8860   69.6720  224.1510 N   0  0  0  0  0  0  0  0  0  0  0  0
  138.1050   68.8970  224.4180 C   0  0  2  0  0  0  0  0  0  0  0  0
  137.8544   67.9791  224.9700 H   0  0  0  0  0  0  0  0  0  0  0  0
  139.0400   69.6350  225.3680 C   0  0  0  0  0  0  0  0  0  0  0  0
  139.7070   70.7830  224.8960 C   0  0  0  0  0  0  0  0  0  0  0  0
  139.5537   71.1148  223.8585 H   0  0  0  0  0  0  0  0  0  0  0  0
  140.5620   71.5040  225.7350 C   0  0  0  0  0  0  0  0  0  0  0  0
  141.0822   72.3949  225.3533 H   0  0  0  0  0  0  0  0  0  0  0  0
  140.7570   71.0970  227.0540 C   0  0  0  0  0  0  0  0  0  0  0  0
  141.4339   71.6637  227.7102 H   0  0  0  0  0  0  0  0  0  0  0  0
  140.0930   69.9700  227.5420 C   0  0  0  0  0  0  0  0  0  0  0  0
  140.2452   69.6522  228.5840 H   0  0  0  0  0  0  0  0  0  0  0  0
  139.2350   69.2440  226.7100 C   0  0  0  0  0  0  0  0  0  0  0  0
  138.7085   68.3623  227.1041 H   0  0  0  0  0  0  0  0  0  0  0  0
  138.7260   68.3990  223.1030 C   0  0  0  0  0  0  0  0  0  0  0  0
  139.5663   67.7252  223.3264 H   0  0  0  0  0  0  0  0  0  0  0  0
  137.9662   67.8571  222.5208 H   0  0  0  0  0  0  0  0  0  0  0  0
  139.0900   69.2584  222.5208 H   0  0  0  0  0  0  0  0  0  0  0  0
  135.0550   68.1760  224.1370 O   0  0  0  0  0  0  0  0  0  0  0  0
  134.2500   67.7900  224.6060 H   0  0  0  0  0  0  0  0  0  0  0  0
  1  2  1  0
  2  3  2  0
  3  4  1  0
  4  5  1  0
  5  6  1  0
  6  7  2  0
  7  8  1  0
  8  9  1  0
  8 10  2  0
 10 11  1  0
 10 12  1  0
 12 13  1  0
 12 14  2  0
 14 15  1  0
 14 16  1  0
 16 17  1  0
 17 18  2  0
 17 19  1  0
 19 20  1  0
 20 21  1  0
 20 22  2  0
 22 23  1  0
 23 24  2  0
 24 25  1  0
 25 26  1  1
 25 27  1  0
 27 28  2  0
 28 29  1  0
 28 30  1  0
 30 31  1  0
 30 32  2  0
 32 33  1  0
 32 34  1  0
 34 35  1  0
 34 36  2  0
 36 37  1  0
 25 38  1  0
 38 39  1  0
 38 40  1  0
 38 41  1  0
 23 42  1  0
 42 43  1  0
 22  3  1  0
 36 27  1  0
 19  5  2  0
 16  7  1  0
M  CHG  1   4  -1
M  END
>  <UniqueID>  (68) 
34

>  <SMILES>  (68) 
[H]/N=c1\[n-]c2nc3ccccn3c(=O)c2cc1/C(O)=N/[C@@H](C)c1ccccc1

>  <Energy>  (68) 
65.44549303457782

>  <Genealogy>  (68) 
C[C@H](NC(=O)c1cc2c(=O)n3ccccc3nc2[n-]c1=N)c1ccccc1 (protonated)
C[C@H](N=C(O)c1cc2c(=O)n3ccccc3nc2[n-]c1=N)c1ccccc1 (tautomer)
[H]/N=c1\[n-]c2nc3ccccn3c(=O)c2cc1/C(O)=N/[C@@H](C)c1ccccc1 (cis-trans isomerization)
[H]/N=c1\[n-]c2nc3ccccn3c(=O)c2cc1/C(O)=N/[C@@H](C)c1ccccc1 (3D coordinates assigned)
[H]/N=c1\[n-]c2nc3ccccn3c(=O)c2cc1/C(O)=N/[C@@H](C)c1ccccc1 (optimized conformer: 65.44549303457782 kcal/mol)

>  <smiles>  (68) 
C[C@H](NC(=O)c1cc2c(=O)n3ccccc3nc2[nH]c1=N)c1ccccc1

>  <score_type>  (68) 
oracle

>  <origin>  (68) 
autodockgpu

>  <m_score__min__energy>  (68) 
-7.6100000000000003

>  <m_primary>  (68) 
energy

>  <meeko>  (68) 
{"free_energy": -7.58, "intermolecular_energy": -9.37, "internal_energy": -1.61, "cluster_size": 10, "cluster_id": 1, "rank_in_cluster": 7}

>  <energy>  (68) 
-7.56

>  <cluster_rmsd>  (68) 
0.09

>  <rmsd>  (68) 
270.25

>  <cluster>  (68) 
1

$$$$
HDANWICVGDYKAH-GWJUIIKNNA-M
     RDKit          3D

 43 46  0  0  0  0  0  0  0  0999 V2000
  134.2690   68.0360  226.2100 H   0  0  0  0  0  0  0  0  0  0  0  0
  133.6030   68.7990  226.4660 N   0  0  0  0  0  0  0  0  0  0  0  0
  133.8500   70.0390  226.1840 C   0  0  0  0  0  0  0  0  0  0  0  0
  133.1510   71.0150  226.8270 N   0  0  0  0  0  0  0  0  0  0  0  0
  133.3700   72.3340  226.6030 C   0  0  0  0  0  0  0  0  0  0  0  0
  132.6420   73.2600  227.2710 N   0  0  0  0  0  0  0  0  0  0  0  0
  132.8360   74.5890  227.0730 C   0  0  0  0  0  0  0  0  0  0  0  0
  132.0550   75.5030  227.7900 C   0  0  0  0  0  0  0  0  0  0  0  0
  131.2970   75.1442  228.5019 H   0  0  0  0  0  0  0  0  0  0  0  0
  132.2430   76.8680  227.5970 C   0  0  0  0  0  0  0  0  0  0  0  0
  131.6340   77.5939  228.1557 H   0  0  0  0  0  0  0  0  0  0  0  0
  133.2050   77.3110  226.6940 C   0  0  0  0  0  0  0  0  0  0  0  0
  133.3609   78.3884  226.5359 H   0  0  0  0  0  0  0  0  0  0  0  0
  133.9710   76.3800  225.9900 C   0  0  0  0  0  0  0  0  0  0  0  0
  134.7306   76.7307  225.2758 H   0  0  0  0  0  0  0  0  0  0  0  0
  133.7880   75.0310  226.1780 N   0  0  0  0  0  0  0  0  0  0  0  0
  134.5450   74.1180  225.4820 C   0  0  0  0  0  0  0  0  0  0  0  0
  135.4220   74.5060  224.6590 O   0  0  0  0  0  0  0  0  0  0  0  0
  134.3470   72.7400  225.6860 C   0  0  0  0  0  0  0  0  0  0  0  0
  135.0850   71.7590  225.0060 C   0  0  0  0  0  0  0  0  0  0  0  0
  135.8581   72.0618  224.2844 H   0  0  0  0  0  0  0  0  0  0  0  0
  134.8460   70.3920  225.2380 C   0  0  0  0  0  0  0  0  0  0  0  0
  135.6490   69.3840  224.4890 C   0  0  0  0  0  0  0  0  0  0  0  0
  136.8680   69.6680  224.1200 N   0  0  0  0  0  0  0  0  0  0  0  0
  138.1060   68.9200  224.3730 C   0  0  2  0  0  0  0  0  0  0  0  0
  137.8790   67.9873  224.9101 H   0  0  0  0  0  0  0  0  0  0  0  0
  139.0240   69.6680  225.3340 C   0  0  0  0  0  0  0  0  0  0  0  0
  139.2060   69.1470  226.6300 C   0  0  0  0  0  0  0  0  0  0  0  0
  138.6791   68.2282  226.9270 H   0  0  0  0  0  0  0  0  0  0  0  0
  140.0500   69.7870  227.5420 C   0  0  0  0  0  0  0  0  0  0  0  0
  140.1776   69.3750  228.5539 H   0  0  0  0  0  0  0  0  0  0  0  0
  140.7310   70.9470  227.1720 C   0  0  0  0  0  0  0  0  0  0  0  0
  141.3924   71.4507  227.8923 H   0  0  0  0  0  0  0  0  0  0  0  0
  140.5720   71.4680  225.8860 C   0  0  0  0  0  0  0  0  0  0  0  0
  141.1117   72.3811  225.5944 H   0  0  0  0  0  0  0  0  0  0  0  0
  139.7300   70.8340  224.9680 C   0  0  0  0  0  0  0  0  0  0  0  0
  139.6169   71.2462  223.9544 H   0  0  0  0  0  0  0  0  0  0  0  0
  138.7380   68.4580  223.0510 C   0  0  0  0  0  0  0  0  0  0  0  0
  139.6092   67.8211  223.2639 H   0  0  0  0  0  0  0  0  0  0  0  0
  137.9986   67.8860  222.4713 H   0  0  0  0  0  0  0  0  0  0  0  0
  139.0587   69.3361  222.4713 H   0  0  0  0  0  0  0  0  0  0  0  0
  135.0620   68.1450  224.2070 O   0  0  0  0  0  0  0  0  0  0  0  0
  134.2090   67.8120  224.6290 H   0  0  0  0  0  0  0  0  0  0  0  0
  1  2  1  0
  2  3  2  0
  3  4  1  0
  4  5  1  0
  5  6  1  0
  6  7  2  0
  7  8  1  0
  8  9  1  0
  8 10  2  0
 10 11  1  0
 10 12  1  0
 12 13  1  0
 12 14  2  0
 14 15  1  0
 14 16  1  0
 16 17  1  0
 17 18  2  0
 17 19  1  0
 19 20  1  0
 20 21  1  0
 20 22  2  0
 22 23  1  0
 23 24  2  0
 24 25  1  0
 25 26  1  1
 25 27  1  0
 27 28  2  0
 28 29  1  0
 28 30  1  0
 30 31  1  0
 30 32  2  0
 32 33  1  0
 32 34  1  0
 34 35  1  0
 34 36  2  0
 36 37  1  0
 25 38  1  0
 38 39  1  0
 38 40  1  0
 38 41  1  0
 23 42  1  0
 42 43  1  0
 22  3  1  0
 36 27  1  0
 19  5  2  0
 16  7  1  0
M  CHG  1   4  -1
M  END
>  <UniqueID>  (69) 
34

>  <SMILES>  (69) 
[H]/N=c1\[n-]c2nc3ccccn3c(=O)c2cc1/C(O)=N/[C@@H](C)c1ccccc1

>  <Energy>  (69) 
65.44549303457782

>  <Genealogy>  (69) 
C[C@H](NC(=O)c1cc2c(=O)n3ccccc3nc2[n-]c1=N)c1ccccc1 (protonated)
C[C@H](N=C(O)c1cc2c(=O)n3ccccc3nc2[n-]c1=N)c1ccccc1 (tautomer)
[H]/N=c1\[n-]c2nc3ccccn3c(=O)c2cc1/C(O)=N/[C@@H](C)c1ccccc1 (cis-trans isomerization)
[H]/N=c1\[n-]c2nc3ccccn3c(=O)c2cc1/C(O)=N/[C@@H](C)c1ccccc1 (3D coordinates assigned)
[H]/N=c1\[n-]c2nc3ccccn3c(=O)c2cc1/C(O)=N/[C@@H](C)c1ccccc1 (optimized conformer: 65.44549303457782 kcal/mol)

>  <smiles>  (69) 
C[C@H](NC(=O)c1cc2c(=O)n3ccccc3nc2[nH]c1=N)c1ccccc1

>  <score_type>  (69) 
oracle

>  <origin>  (69) 
autodockgpu

>  <m_score__min__energy>  (69) 
-7.6100000000000003

>  <m_primary>  (69) 
energy

>  <meeko>  (69) 
{"free_energy": -7.58, "intermolecular_energy": -9.37, "internal_energy": -1.63, "cluster_size": 10, "cluster_id": 1, "rank_in_cluster": 6}

>  <energy>  (69) 
-7.53

>  <cluster_rmsd>  (69) 
0.18

>  <rmsd>  (69) 
270.24

>  <cluster>  (69) 
1

$$$$
HDANWICVGDYKAH-GWJUIIKNNA-M
     RDKit          3D

 43 46  0  0  0  0  0  0  0  0999 V2000
  136.3350   77.0610  223.7590 H   0  0  0  0  0  0  0  0  0  0  0  0
  136.8070   76.2750  223.2570 N   0  0  0  0  0  0  0  0  0  0  0  0
  137.9240   76.4450  222.6250 C   0  0  0  0  0  0  0  0  0  0  0  0
  138.7540   75.3800  222.4490 N   0  0  0  0  0  0  0  0  0  0  0  0
  139.9270   75.4770  221.7770 C   0  0  0  0  0  0  0  0  0  0  0  0
  140.7130   74.3830  221.6360 N   0  0  0  0  0  0  0  0  0  0  0  0
  141.8930   74.4410  220.9680 C   0  0  0  0  0  0  0  0  0  0  0  0
  142.6660   73.2810  220.8520 C   0  0  0  0  0  0  0  0  0  0  0  0
  142.3180   72.3376  221.2981 H   0  0  0  0  0  0  0  0  0  0  0  0
  143.8780   73.3270  220.1690 C   0  0  0  0  0  0  0  0  0  0  0  0
  144.4920   72.4195  220.0722 H   0  0  0  0  0  0  0  0  0  0  0  0
  144.3100   74.5260  219.6090 C   0  0  0  0  0  0  0  0  0  0  0  0
  145.2668   74.5713  219.0682 H   0  0  0  0  0  0  0  0  0  0  0  0
  143.5210   75.6710  219.7380 C   0  0  0  0  0  0  0  0  0  0  0  0
  143.8624   76.6185  219.2956 H   0  0  0  0  0  0  0  0  0  0  0  0
  142.3230   75.6290  220.4110 N   0  0  0  0  0  0  0  0  0  0  0  0
  141.5500   76.7590  220.5360 C   0  0  0  0  0  0  0  0  0  0  0  0
  141.9290   77.8550  220.0320 O   0  0  0  0  0  0  0  0  0  0  0  0
  140.3260   76.7010  221.2270 C   0  0  0  0  0  0  0  0  0  0  0  0
  139.4930   77.8180  221.3910 C   0  0  0  0  0  0  0  0  0  0  0  0
  139.7910   78.7864  220.9628 H   0  0  0  0  0  0  0  0  0  0  0  0
  138.2810   77.7130  222.0970 C   0  0  0  0  0  0  0  0  0  0  0  0
  137.4300   78.9270  222.2520 C   0  0  0  0  0  0  0  0  0  0  0  0
  137.9730   80.1120  222.1930 N   0  0  0  0  0  0  0  0  0  0  0  0
  138.7290   80.8330  223.2260 C   0  0  2  0  0  0  0  0  0  0  0  0
  138.7014   81.9146  223.0274 H   0  0  0  0  0  0  0  0  0  0  0  0
  140.2150   80.5010  223.1650 C   0  0  0  0  0  0  0  0  0  0  0  0
  140.6850   79.3910  223.8930 C   0  0  0  0  0  0  0  0  0  0  0  0
  139.9821   78.7977  224.4963 H   0  0  0  0  0  0  0  0  0  0  0  0
  142.0370   79.0360  223.8560 C   0  0  0  0  0  0  0  0  0  0  0  0
  142.3932   78.1710  224.4348 H   0  0  0  0  0  0  0  0  0  0  0  0
  142.9350   79.7760  223.0870 C   0  0  0  0  0  0  0  0  0  0  0  0
  143.9988   79.4971  223.0627 H   0  0  0  0  0  0  0  0  0  0  0  0
  142.4830   80.8710  222.3480 C   0  0  0  0  0  0  0  0  0  0  0  0
  143.1916   81.4522  221.7397 H   0  0  0  0  0  0  0  0  0  0  0  0
  141.1320   81.2310  222.3790 C   0  0  0  0  0  0  0  0  0  0  0  0
  140.7817   82.0891  221.7866 H   0  0  0  0  0  0  0  0  0  0  0  0
  138.0530   80.6750  224.5970 C   0  0  0  0  0  0  0  0  0  0  0  0
  138.7927   80.8479  225.3926 H   0  0  0  0  0  0  0  0  0  0  0  0
  137.2368   81.4066  224.6899 H   0  0  0  0  0  0  0  0  0  0  0  0
  137.6456   79.6574  224.6899 H   0  0  0  0  0  0  0  0  0  0  0  0
  136.0560   78.7540  222.4530 O   0  0  0  0  0  0  0  0  0  0  0  0
  135.6090   77.8570  222.5650 H   0  0  0  0  0  0  0  0  0  0  0  0
  1  2  1  0
  2  3  2  0
  3  4  1  0
  4  5  1  0
  5  6  1  0
  6  7  2  0
  7  8  1  0
  8  9  1  0
  8 10  2  0
 10 11  1  0
 10 12  1  0
 12 13  1  0
 12 14  2  0
 14 15  1  0
 14 16  1  0
 16 17  1  0
 17 18  2  0
 17 19  1  0
 19 20  1  0
 20 21  1  0
 20 22  2  0
 22 23  1  0
 23 24  2  0
 24 25  1  0
 25 26  1  6
 25 27  1  0
 27 28  2  0
 28 29  1  0
 28 30  1  0
 30 31  1  0
 30 32  2  0
 32 33  1  0
 32 34  1  0
 34 35  1  0
 34 36  2  0
 36 37  1  0
 25 38  1  0
 38 39  1  0
 38 40  1  0
 38 41  1  0
 23 42  1  0
 42 43  1  0
 22  3  1  0
 36 27  1  0
 19  5  2  0
 16  7  1  0
M  CHG  1   4  -1
M  END
>  <UniqueID>  (70) 
34

>  <SMILES>  (70) 
[H]/N=c1\[n-]c2nc3ccccn3c(=O)c2cc1/C(O)=N/[C@@H](C)c1ccccc1

>  <Energy>  (70) 
65.44549303457782

>  <Genealogy>  (70) 
C[C@H](NC(=O)c1cc2c(=O)n3ccccc3nc2[n-]c1=N)c1ccccc1 (protonated)
C[C@H](N=C(O)c1cc2c(=O)n3ccccc3nc2[n-]c1=N)c1ccccc1 (tautomer)
[H]/N=c1\[n-]c2nc3ccccn3c(=O)c2cc1/C(O)=N/[C@@H](C)c1ccccc1 (cis-trans isomerization)
[H]/N=c1\[n-]c2nc3ccccn3c(=O)c2cc1/C(O)=N/[C@@H](C)c1ccccc1 (3D coordinates assigned)
[H]/N=c1\[n-]c2nc3ccccn3c(=O)c2cc1/C(O)=N/[C@@H](C)c1ccccc1 (optimized conformer: 65.44549303457782 kcal/mol)

>  <smiles>  (70) 
C[C@H](NC(=O)c1cc2c(=O)n3ccccc3nc2[nH]c1=N)c1ccccc1

>  <score_type>  (70) 
oracle

>  <origin>  (70) 
autodockgpu

>  <m_score__min__energy>  (70) 
-7.6100000000000003

>  <m_primary>  (70) 
energy

>  <meeko>  (70) 
{"free_energy": -5.97, "intermolecular_energy": -7.76, "internal_energy": -2.39, "cluster_size": 6, "cluster_id": 5, "rank_in_cluster": 2}

>  <energy>  (70) 
-7.4

>  <cluster_rmsd>  (70) 
0.44

>  <rmsd>  (70) 
270.38

>  <cluster>  (70) 
1

$$$$
HDANWICVGDYKAH-GWJUIIKNNA-M
     RDKit          3D

 43 46  0  0  0  0  0  0  0  0999 V2000
  136.3180   77.2100  223.7260 H   0  0  0  0  0  0  0  0  0  0  0  0
  136.8090   76.4000  223.2850 N   0  0  0  0  0  0  0  0  0  0  0  0
  137.9210   76.5490  222.6380 C   0  0  0  0  0  0  0  0  0  0  0  0
  138.7430   75.4760  222.4800 N   0  0  0  0  0  0  0  0  0  0  0  0
  139.9110   75.5500  221.7950 C   0  0  0  0  0  0  0  0  0  0  0  0
  140.6900   74.4490  221.6720 N   0  0  0  0  0  0  0  0  0  0  0  0
  141.8640   74.4850  220.9920 C   0  0  0  0  0  0  0  0  0  0  0  0
  142.6290   73.3180  220.8950 C   0  0  0  0  0  0  0  0  0  0  0  0
  142.2792   72.3869  221.3648 H   0  0  0  0  0  0  0  0  0  0  0  0
  143.8350   73.3410  220.2010 C   0  0  0  0  0  0  0  0  0  0  0  0
  144.4433   72.4281  220.1200 H   0  0  0  0  0  0  0  0  0  0  0  0
  144.2680   74.5240  219.6100 C   0  0  0  0  0  0  0  0  0  0  0  0
  145.2199   74.5511  219.0593 H   0  0  0  0  0  0  0  0  0  0  0  0
  143.4870   75.6770  219.7200 C   0  0  0  0  0  0  0  0  0  0  0  0
  143.8299   76.6122  219.2532 H   0  0  0  0  0  0  0  0  0  0  0  0
  142.2960   75.6570  220.4040 N   0  0  0  0  0  0  0  0  0  0  0  0
  141.5300   76.7940  220.5100 C   0  0  0  0  0  0  0  0  0  0  0  0
  141.9110   77.8760  219.9780 O   0  0  0  0  0  0  0  0  0  0  0  0
  140.3130   76.7590  221.2140 C   0  0  0  0  0  0  0  0  0  0  0  0
  139.4870   77.8850  221.3590 C   0  0  0  0  0  0  0  0  0  0  0  0
  139.7858   78.8413  220.9049 H   0  0  0  0  0  0  0  0  0  0  0  0
  138.2810   77.8030  222.0790 C   0  0  0  0  0  0  0  0  0  0  0  0
  137.4380   79.0250  222.2140 C   0  0  0  0  0  0  0  0  0  0  0  0
  137.9960   80.2050  222.1810 N   0  0  0  0  0  0  0  0  0  0  0  0
  138.7750   80.8850  223.2240 C   0  0  2  0  0  0  0  0  0  0  0  0
  138.7707   81.9710  223.0490 H   0  0  0  0  0  0  0  0  0  0  0  0
  140.2530   80.5210  223.1450 C   0  0  0  0  0  0  0  0  0  0  0  0
  140.7080   79.4020  223.8690 C   0  0  0  0  0  0  0  0  0  0  0  0
  140.0000   78.8248  224.4819 H   0  0  0  0  0  0  0  0  0  0  0  0
  142.0510   79.0180  223.8160 C   0  0  0  0  0  0  0  0  0  0  0  0
  142.3955   78.1464  224.3919 H   0  0  0  0  0  0  0  0  0  0  0  0
  142.9550   79.7370  223.0350 C   0  0  0  0  0  0  0  0  0  0  0  0
  144.0122   79.4353  222.9988 H   0  0  0  0  0  0  0  0  0  0  0  0
  142.5180   80.8400  222.2990 C   0  0  0  0  0  0  0  0  0  0  0  0
  143.2316   81.4039  221.6803 H   0  0  0  0  0  0  0  0  0  0  0  0
  141.1760   81.2300  222.3460 C   0  0  0  0  0  0  0  0  0  0  0  0
  140.8373   82.0948  221.7566 H   0  0  0  0  0  0  0  0  0  0  0  0
  138.1050   80.7140  224.5960 C   0  0  0  0  0  0  0  0  0  0  0  0
  138.8425   80.9022  225.3902 H   0  0  0  0  0  0  0  0  0  0  0  0
  137.2743   81.4289  224.6900 H   0  0  0  0  0  0  0  0  0  0  0  0
  137.7185   79.6884  224.6900 H   0  0  0  0  0  0  0  0  0  0  0  0
  136.0570   78.8650  222.3670 O   0  0  0  0  0  0  0  0  0  0  0  0
  135.5960   77.9730  222.4590 H   0  0  0  0  0  0  0  0  0  0  0  0
  1  2  1  0
  2  3  2  0
  3  4  1  0
  4  5  1  0
  5  6  1  0
  6  7  2  0
  7  8  1  0
  8  9  1  0
  8 10  2  0
 10 11  1  0
 10 12  1  0
 12 13  1  0
 12 14  2  0
 14 15  1  0
 14 16  1  0
 16 17  1  0
 17 18  2  0
 17 19  1  0
 19 20  1  0
 20 21  1  0
 20 22  2  0
 22 23  1  0
 23 24  2  0
 24 25  1  0
 25 26  1  6
 25 27  1  0
 27 28  2  0
 28 29  1  0
 28 30  1  0
 30 31  1  0
 30 32  2  0
 32 33  1  0
 32 34  1  0
 34 35  1  0
 34 36  2  0
 36 37  1  0
 25 38  1  0
 38 39  1  0
 38 40  1  0
 38 41  1  0
 23 42  1  0
 42 43  1  0
 22  3  1  0
 36 27  1  0
 19  5  2  0
 16  7  1  0
M  CHG  1   4  -1
M  END
>  <UniqueID>  (71) 
34

>  <SMILES>  (71) 
[H]/N=c1\[n-]c2nc3ccccn3c(=O)c2cc1/C(O)=N/[C@@H](C)c1ccccc1

>  <Energy>  (71) 
65.44549303457782

>  <Genealogy>  (71) 
C[C@H](NC(=O)c1cc2c(=O)n3ccccc3nc2[n-]c1=N)c1ccccc1 (protonated)
C[C@H](N=C(O)c1cc2c(=O)n3ccccc3nc2[n-]c1=N)c1ccccc1 (tautomer)
[H]/N=c1\[n-]c2nc3ccccn3c(=O)c2cc1/C(O)=N/[C@@H](C)c1ccccc1 (cis-trans isomerization)
[H]/N=c1\[n-]c2nc3ccccn3c(=O)c2cc1/C(O)=N/[C@@H](C)c1ccccc1 (3D coordinates assigned)
[H]/N=c1\[n-]c2nc3ccccn3c(=O)c2cc1/C(O)=N/[C@@H](C)c1ccccc1 (optimized conformer: 65.44549303457782 kcal/mol)

>  <smiles>  (71) 
C[C@H](NC(=O)c1cc2c(=O)n3ccccc3nc2[nH]c1=N)c1ccccc1

>  <score_type>  (71) 
oracle

>  <origin>  (71) 
autodockgpu

>  <m_score__min__energy>  (71) 
-7.6100000000000003

>  <m_primary>  (71) 
energy

>  <meeko>  (71) 
{"free_energy": -5.93, "intermolecular_energy": -7.72, "internal_energy": -2.42, "cluster_size": 6, "cluster_id": 5, "rank_in_cluster": 4}

>  <energy>  (71) 
-6.97

>  <cluster_rmsd>  (71) 
0.0

>  <rmsd>  (71) 
271.01

>  <cluster>  (71) 
2

$$$$
HDANWICVGDYKAH-GWJUIIKNNA-M
     RDKit          3D

 43 46  0  0  0  0  0  0  0  0999 V2000
  136.3180   77.0730  223.6970 H   0  0  0  0  0  0  0  0  0  0  0  0
  136.8000   76.2830  223.2100 N   0  0  0  0  0  0  0  0  0  0  0  0
  137.9240   76.4510  222.5900 C   0  0  0  0  0  0  0  0  0  0  0  0
  138.7520   75.3840  222.4210 N   0  0  0  0  0  0  0  0  0  0  0  0
  139.9330   75.4780  221.7620 C   0  0  0  0  0  0  0  0  0  0  0  0
  140.7170   74.3820  221.6270 N   0  0  0  0  0  0  0  0  0  0  0  0
  141.9050   74.4390  220.9710 C   0  0  0  0  0  0  0  0  0  0  0  0
  142.6760   73.2760  220.8610 C   0  0  0  0  0  0  0  0  0  0  0  0
  142.3201   72.3327  221.3009 H   0  0  0  0  0  0  0  0  0  0  0  0
  143.8950   73.3200  220.1920 C   0  0  0  0  0  0  0  0  0  0  0  0
  144.5078   72.4111  220.1004 H   0  0  0  0  0  0  0  0  0  0  0  0
  144.3360   74.5190  219.6390 C   0  0  0  0  0  0  0  0  0  0  0  0
  145.2986   74.5627  219.1084 H   0  0  0  0  0  0  0  0  0  0  0  0
  143.5490   75.6660  219.7620 C   0  0  0  0  0  0  0  0  0  0  0  0
  143.8978   76.6134  219.3252 H   0  0  0  0  0  0  0  0  0  0  0  0
  142.3440   75.6260  220.4220 N   0  0  0  0  0  0  0  0  0  0  0  0
  141.5740   76.7580  220.5400 C   0  0  0  0  0  0  0  0  0  0  0  0
  141.9610   77.8540  220.0430 O   0  0  0  0  0  0  0  0  0  0  0  0
  140.3420   76.7020  221.2190 C   0  0  0  0  0  0  0  0  0  0  0  0
  139.5100   77.8220  221.3750 C   0  0  0  0  0  0  0  0  0  0  0  0
  139.8148   78.7899  220.9505 H   0  0  0  0  0  0  0  0  0  0  0  0
  138.2900   77.7190  222.0690 C   0  0  0  0  0  0  0  0  0  0  0  0
  137.4420   78.9350  222.2170 C   0  0  0  0  0  0  0  0  0  0  0  0
  137.9910   80.1190  222.1810 N   0  0  0  0  0  0  0  0  0  0  0  0
  138.7500   80.8150  223.2290 C   0  0  2  0  0  0  0  0  0  0  0  0
  138.7210   81.9010  223.0566 H   0  0  0  0  0  0  0  0  0  0  0  0
  140.2360   80.4850  223.1550 C   0  0  0  0  0  0  0  0  0  0  0  0
  140.7170   79.3850  223.8910 C   0  0  0  0  0  0  0  0  0  0  0  0
  140.0225   78.7972  224.5093 H   0  0  0  0  0  0  0  0  0  0  0  0
  142.0700   79.0330  223.8430 C   0  0  0  0  0  0  0  0  0  0  0  0
  142.4350   78.1763  224.4286 H   0  0  0  0  0  0  0  0  0  0  0  0
  142.9570   79.7650  223.0550 C   0  0  0  0  0  0  0  0  0  0  0  0
  144.0212   79.4886  223.0226 H   0  0  0  0  0  0  0  0  0  0  0  0
  142.4940   80.8490  222.3070 C   0  0  0  0  0  0  0  0  0  0  0  0
  143.1942   81.4233  221.6826 H   0  0  0  0  0  0  0  0  0  0  0  0
  141.1430   81.2070  222.3490 C   0  0  0  0  0  0  0  0  0  0  0  0
  140.7843   82.0570  221.7500 H   0  0  0  0  0  0  0  0  0  0  0  0
  138.0790   80.6250  224.5980 C   0  0  0  0  0  0  0  0  0  0  0  0
  138.8080   80.8314  225.3955 H   0  0  0  0  0  0  0  0  0  0  0  0
  137.2296   81.3179  224.6894 H   0  0  0  0  0  0  0  0  0  0  0  0
  137.7190   79.5896  224.6894 H   0  0  0  0  0  0  0  0  0  0  0  0
  136.0630   78.7660  222.3860 O   0  0  0  0  0  0  0  0  0  0  0  0
  135.6050   77.8700  222.4440 H   0  0  0  0  0  0  0  0  0  0  0  0
  1  2  1  0
  2  3  2  0
  3  4  1  0
  4  5  1  0
  5  6  1  0
  6  7  2  0
  7  8  1  0
  8  9  1  0
  8 10  2  0
 10 11  1  0
 10 12  1  0
 12 13  1  0
 12 14  2  0
 14 15  1  0
 14 16  1  0
 16 17  1  0
 17 18  2  0
 17 19  1  0
 19 20  1  0
 20 21  1  0
 20 22  2  0
 22 23  1  0
 23 24  2  0
 24 25  1  0
 25 26  1  6
 25 27  1  0
 27 28  2  0
 28 29  1  0
 28 30  1  0
 30 31  1  0
 30 32  2  0
 32 33  1  0
 32 34  1  0
 34 35  1  0
 34 36  2  0
 36 37  1  0
 25 38  1  0
 38 39  1  0
 38 40  1  0
 38 41  1  0
 23 42  1  0
 42 43  1  0
 22  3  1  0
 36 27  1  0
 19  5  2  0
 16  7  1  0
M  CHG  1   4  -1
M  END
>  <UniqueID>  (72) 
34

>  <SMILES>  (72) 
[H]/N=c1\[n-]c2nc3ccccn3c(=O)c2cc1/C(O)=N/[C@@H](C)c1ccccc1

>  <Energy>  (72) 
65.44549303457782

>  <Genealogy>  (72) 
C[C@H](NC(=O)c1cc2c(=O)n3ccccc3nc2[n-]c1=N)c1ccccc1 (protonated)
C[C@H](N=C(O)c1cc2c(=O)n3ccccc3nc2[n-]c1=N)c1ccccc1 (tautomer)
[H]/N=c1\[n-]c2nc3ccccn3c(=O)c2cc1/C(O)=N/[C@@H](C)c1ccccc1 (cis-trans isomerization)
[H]/N=c1\[n-]c2nc3ccccn3c(=O)c2cc1/C(O)=N/[C@@H](C)c1ccccc1 (3D coordinates assigned)
[H]/N=c1\[n-]c2nc3ccccn3c(=O)c2cc1/C(O)=N/[C@@H](C)c1ccccc1 (optimized conformer: 65.44549303457782 kcal/mol)

>  <smiles>  (72) 
C[C@H](NC(=O)c1cc2c(=O)n3ccccc3nc2[nH]c1=N)c1ccccc1

>  <score_type>  (72) 
oracle

>  <origin>  (72) 
autodockgpu

>  <m_score__min__energy>  (72) 
-7.6100000000000003

>  <m_primary>  (72) 
energy

>  <meeko>  (72) 
{"free_energy": -5.95, "intermolecular_energy": -7.74, "internal_energy": -2.4, "cluster_size": 6, "cluster_id": 5, "rank_in_cluster": 3}

>  <energy>  (72) 
-6.81

>  <cluster_rmsd>  (72) 
0.0

>  <rmsd>  (72) 
270.39

>  <cluster>  (72) 
3

$$$$
HDANWICVGDYKAH-GWJUIIKNNA-M
     RDKit          3D

 43 46  0  0  0  0  0  0  0  0999 V2000
  133.5120   68.1020  225.6900 H   0  0  0  0  0  0  0  0  0  0  0  0
  133.6130   68.8220  226.4410 N   0  0  0  0  0  0  0  0  0  0  0  0
  133.8550   70.0630  226.1640 C   0  0  0  0  0  0  0  0  0  0  0  0
  133.1540   71.0340  226.8120 N   0  0  0  0  0  0  0  0  0  0  0  0
  133.3690   72.3550  226.5920 C   0  0  0  0  0  0  0  0  0  0  0  0
  132.6390   73.2760  227.2650 N   0  0  0  0  0  0  0  0  0  0  0  0
  132.8290   74.6070  227.0720 C   0  0  0  0  0  0  0  0  0  0  0  0
  132.0470   75.5150  227.7940 C   0  0  0  0  0  0  0  0  0  0  0  0
  131.2919   75.1507  228.5061 H   0  0  0  0  0  0  0  0  0  0  0  0
  132.2300   76.8820  227.6060 C   0  0  0  0  0  0  0  0  0  0  0  0
  131.6200   77.6039  228.1688 H   0  0  0  0  0  0  0  0  0  0  0  0
  133.1890   77.3310  226.7020 C   0  0  0  0  0  0  0  0  0  0  0  0
  133.3409   78.4094  226.5471 H   0  0  0  0  0  0  0  0  0  0  0  0
  133.9570   76.4050  225.9930 C   0  0  0  0  0  0  0  0  0  0  0  0
  134.7143   76.7604  225.2787 H   0  0  0  0  0  0  0  0  0  0  0  0
  133.7780   75.0550  226.1770 N   0  0  0  0  0  0  0  0  0  0  0  0
  134.5370   74.1470  225.4760 C   0  0  0  0  0  0  0  0  0  0  0  0
  135.4110   74.5410  224.6530 O   0  0  0  0  0  0  0  0  0  0  0  0
  134.3430   72.7680  225.6750 C   0  0  0  0  0  0  0  0  0  0  0  0
  135.0840   71.7910  224.9900 C   0  0  0  0  0  0  0  0  0  0  0  0
  135.8556   72.0989  224.2690 H   0  0  0  0  0  0  0  0  0  0  0  0
  134.8490   70.4220  225.2170 C   0  0  0  0  0  0  0  0  0  0  0  0
  135.6530   69.4200  224.4630 C   0  0  0  0  0  0  0  0  0  0  0  0
  136.8710   69.7090  224.0930 N   0  0  0  0  0  0  0  0  0  0  0  0
  138.1060   68.9450  224.3100 C   0  0  2  0  0  0  0  0  0  0  0  0
  137.8749   67.9882  224.8010 H   0  0  0  0  0  0  0  0  0  0  0  0
  139.0260   69.6390  225.3070 C   0  0  0  0  0  0  0  0  0  0  0  0
  139.6920   70.8120  224.9020 C   0  0  0  0  0  0  0  0  0  0  0  0
  139.5485   71.1952  223.8809 H   0  0  0  0  0  0  0  0  0  0  0  0
  140.5340   71.4940  225.7860 C   0  0  0  0  0  0  0  0  0  0  0  0
  141.0548   72.4048  225.4554 H   0  0  0  0  0  0  0  0  0  0  0  0
  140.7150   71.0220  227.0860 C   0  0  0  0  0  0  0  0  0  0  0  0
  141.3807   71.5582  227.7784 H   0  0  0  0  0  0  0  0  0  0  0  0
  140.0510   69.8690  227.5080 C   0  0  0  0  0  0  0  0  0  0  0  0
  140.1920   69.5001  228.5347 H   0  0  0  0  0  0  0  0  0  0  0  0
  139.2070   69.1810  226.6300 C   0  0  0  0  0  0  0  0  0  0  0  0
  138.6811   68.2776  226.9725 H   0  0  0  0  0  0  0  0  0  0  0  0
  138.7370   68.5470  222.9660 C   0  0  0  0  0  0  0  0  0  0  0  0
  139.6545   67.9683  223.1487 H   0  0  0  0  0  0  0  0  0  0  0  0
  138.0249   67.9343  222.3937 H   0  0  0  0  0  0  0  0  0  0  0  0
  138.9832   69.4536  222.3937 H   0  0  0  0  0  0  0  0  0  0  0  0
  135.0700   68.1810  224.1760 O   0  0  0  0  0  0  0  0  0  0  0  0
  134.4260   67.7030  224.7880 H   0  0  0  0  0  0  0  0  0  0  0  0
  1  2  1  0
  2  3  2  0
  3  4  1  0
  4  5  1  0
  5  6  1  0
  6  7  2  0
  7  8  1  0
  8  9  1  0
  8 10  2  0
 10 11  1  0
 10 12  1  0
 12 13  1  0
 12 14  2  0
 14 15  1  0
 14 16  1  0
 16 17  1  0
 17 18  2  0
 17 19  1  0
 19 20  1  0
 20 21  1  0
 20 22  2  0
 22 23  1  0
 23 24  2  0
 24 25  1  0
 25 26  1  1
 25 27  1  0
 27 28  2  0
 28 29  1  0
 28 30  1  0
 30 31  1  0
 30 32  2  0
 32 33  1  0
 32 34  1  0
 34 35  1  0
 34 36  2  0
 36 37  1  0
 25 38  1  0
 38 39  1  0
 38 40  1  0
 38 41  1  0
 23 42  1  0
 42 43  1  0
 22  3  1  0
 36 27  1  0
 19  5  2  0
 16  7  1  0
M  CHG  1   4  -1
M  END
>  <UniqueID>  (73) 
34

>  <SMILES>  (73) 
[H]/N=c1\[n-]c2nc3ccccn3c(=O)c2cc1/C(O)=N/[C@@H](C)c1ccccc1

>  <Energy>  (73) 
65.44549303457782

>  <Genealogy>  (73) 
C[C@H](NC(=O)c1cc2c(=O)n3ccccc3nc2[n-]c1=N)c1ccccc1 (protonated)
C[C@H](N=C(O)c1cc2c(=O)n3ccccc3nc2[n-]c1=N)c1ccccc1 (tautomer)
[H]/N=c1\[n-]c2nc3ccccn3c(=O)c2cc1/C(O)=N/[C@@H](C)c1ccccc1 (cis-trans isomerization)
[H]/N=c1\[n-]c2nc3ccccn3c(=O)c2cc1/C(O)=N/[C@@H](C)c1ccccc1 (3D coordinates assigned)
[H]/N=c1\[n-]c2nc3ccccn3c(=O)c2cc1/C(O)=N/[C@@H](C)c1ccccc1 (optimized conformer: 65.44549303457782 kcal/mol)

>  <smiles>  (73) 
C[C@H](NC(=O)c1cc2c(=O)n3ccccc3nc2[nH]c1=N)c1ccccc1

>  <score_type>  (73) 
oracle

>  <origin>  (73) 
autodockgpu

>  <m_score__min__energy>  (73) 
-7.6100000000000003

>  <m_primary>  (73) 
energy

>  <meeko>  (73) 
{"free_energy": -7.53, "intermolecular_energy": -9.32, "internal_energy": -1.57, "cluster_size": 10, "cluster_id": 1, "rank_in_cluster": 9}

>  <energy>  (73) 
-6.72

>  <cluster_rmsd>  (73) 
0.0

>  <rmsd>  (73) 
270.74

>  <cluster>  (73) 
4

$$$$
HDANWICVGDYKAH-GWJUIIKNNA-M
     RDKit          3D

 43 46  0  0  0  0  0  0  0  0999 V2000
  138.4600   71.6570  220.1230 H   0  0  0  0  0  0  0  0  0  0  0  0
  138.7600   70.8350  220.6940 N   0  0  0  0  0  0  0  0  0  0  0  0
  139.2260   70.9730  221.8940 C   0  0  0  0  0  0  0  0  0  0  0  0
  139.1680   69.9180  222.7520 N   0  0  0  0  0  0  0  0  0  0  0  0
  139.6570   69.9800  224.0140 C   0  0  0  0  0  0  0  0  0  0  0  0
  139.5690   68.8980  224.8240 N   0  0  0  0  0  0  0  0  0  0  0  0
  140.0500   68.9230  226.0940 C   0  0  0  0  0  0  0  0  0  0  0  0
  139.9330   67.7770  226.8870 C   0  0  0  0  0  0  0  0  0  0  0  0
  139.4574   66.8709  226.4834 H   0  0  0  0  0  0  0  0  0  0  0  0
  140.4220   67.7900  228.1900 C   0  0  0  0  0  0  0  0  0  0  0  0
  140.3344   66.8935  228.8214 H   0  0  0  0  0  0  0  0  0  0  0  0
  141.0220   68.9410  228.6910 C   0  0  0  0  0  0  0  0  0  0  0  0
  141.4113   68.9592  229.7196 H   0  0  0  0  0  0  0  0  0  0  0  0
  141.1270   70.0730  227.8800 C   0  0  0  0  0  0  0  0  0  0  0  0
  141.6007   70.9832  228.2765 H   0  0  0  0  0  0  0  0  0  0  0  0
  140.6460   70.0640  226.5930 N   0  0  0  0  0  0  0  0  0  0  0  0
  140.7520   71.1810  225.7980 C   0  0  0  0  0  0  0  0  0  0  0  0
  141.2950   72.2330  226.2400 O   0  0  0  0  0  0  0  0  0  0  0  0
  140.2550   71.1570  224.4820 C   0  0  0  0  0  0  0  0  0  0  0  0
  140.3310   72.2630  223.6210 C   0  0  0  0  0  0  0  0  0  0  0  0
  140.8008   73.1939  223.9714 H   0  0  0  0  0  0  0  0  0  0  0  0
  139.8130   72.1940  222.3150 C   0  0  0  0  0  0  0  0  0  0  0  0
  139.9090   73.3950  221.4380 C   0  0  0  0  0  0  0  0  0  0  0  0
  139.9480   74.5860  221.9700 N   0  0  0  0  0  0  0  0  0  0  0  0
  141.0130   75.5950  221.8940 C   0  0  2  0  0  0  0  0  0  0  0  0
  141.8402   75.3205  222.5651 H   0  0  0  0  0  0  0  0  0  0  0  0
  140.5480   76.9410  222.4390 C   0  0  0  0  0  0  0  0  0  0  0  0
  139.1740   77.2470  222.3890 C   0  0  0  0  0  0  0  0  0  0  0  0
  138.4704   76.5235  221.9514 H   0  0  0  0  0  0  0  0  0  0  0  0
  138.6960   78.4610  222.8900 C   0  0  0  0  0  0  0  0  0  0  0  0
  137.6217   78.6913  222.8377 H   0  0  0  0  0  0  0  0  0  0  0  0
  139.5780   79.3810  223.4560 C   0  0  0  0  0  0  0  0  0  0  0  0
  139.1998   80.3373  223.8464 H   0  0  0  0  0  0  0  0  0  0  0  0
  140.9410   79.0880  223.5270 C   0  0  0  0  0  0  0  0  0  0  0  0
  141.6350   79.8133  223.9768 H   0  0  0  0  0  0  0  0  0  0  0  0
  141.4270   77.8750  223.0280 C   0  0  0  0  0  0  0  0  0  0  0  0
  142.5011   77.6476  223.0951 H   0  0  0  0  0  0  0  0  0  0  0  0
  141.6430   75.6100  220.4930 C   0  0  0  0  0  0  0  0  0  0  0  0
  142.7389   75.6361  220.5840 H   0  0  0  0  0  0  0  0  0  0  0  0
  141.3420   74.7044  219.9459 H   0  0  0  0  0  0  0  0  0  0  0  0
  141.2992   76.5002  219.9459 H   0  0  0  0  0  0  0  0  0  0  0  0
  139.9610   73.2040  220.0530 O   0  0  0  0  0  0  0  0  0  0  0  0
  139.7680   72.3260  219.5950 H   0  0  0  0  0  0  0  0  0  0  0  0
  1  2  1  0
  2  3  2  0
  3  4  1  0
  4  5  1  0
  5  6  1  0
  6  7  2  0
  7  8  1  0
  8  9  1  0
  8 10  2  0
 10 11  1  0
 10 12  1  0
 12 13  1  0
 12 14  2  0
 14 15  1  0
 14 16  1  0
 16 17  1  0
 17 18  2  0
 17 19  1  0
 19 20  1  0
 20 21  1  0
 20 22  2  0
 22 23  1  0
 23 24  2  0
 24 25  1  0
 25 26  1  1
 25 27  1  0
 27 28  2  0
 28 29  1  0
 28 30  1  0
 30 31  1  0
 30 32  2  0
 32 33  1  0
 32 34  1  0
 34 35  1  0
 34 36  2  0
 36 37  1  0
 25 38  1  0
 38 39  1  0
 38 40  1  0
 38 41  1  0
 23 42  1  0
 42 43  1  0
 22  3  1  0
 36 27  1  0
 19  5  2  0
 16  7  1  0
M  CHG  1   4  -1
M  END
>  <UniqueID>  (74) 
34

>  <SMILES>  (74) 
[H]/N=c1\[n-]c2nc3ccccn3c(=O)c2cc1/C(O)=N/[C@@H](C)c1ccccc1

>  <Energy>  (74) 
65.44549303457782

>  <Genealogy>  (74) 
C[C@H](NC(=O)c1cc2c(=O)n3ccccc3nc2[n-]c1=N)c1ccccc1 (protonated)
C[C@H](N=C(O)c1cc2c(=O)n3ccccc3nc2[n-]c1=N)c1ccccc1 (tautomer)
[H]/N=c1\[n-]c2nc3ccccn3c(=O)c2cc1/C(O)=N/[C@@H](C)c1ccccc1 (cis-trans isomerization)
[H]/N=c1\[n-]c2nc3ccccn3c(=O)c2cc1/C(O)=N/[C@@H](C)c1ccccc1 (3D coordinates assigned)
[H]/N=c1\[n-]c2nc3ccccn3c(=O)c2cc1/C(O)=N/[C@@H](C)c1ccccc1 (optimized conformer: 65.44549303457782 kcal/mol)

>  <smiles>  (74) 
C[C@H](NC(=O)c1cc2c(=O)n3ccccc3nc2[nH]c1=N)c1ccccc1

>  <score_type>  (74) 
oracle

>  <origin>  (74) 
autodockgpu

>  <m_score__min__energy>  (74) 
-7.6100000000000003

>  <m_primary>  (74) 
energy

>  <meeko>  (74) 
{"free_energy": -6.97, "intermolecular_energy": -8.76, "internal_energy": -1.49, "cluster_size": 1, "cluster_id": 2, "rank_in_cluster": 1}

>  <energy>  (74) 
-6.67

>  <cluster_rmsd>  (74) 
0.27

>  <rmsd>  (74) 
270.69

>  <cluster>  (74) 
4

$$$$
HDANWICVGDYKAH-GWJUIIKNNA-M
     RDKit          3D

 43 46  0  0  0  0  0  0  0  0999 V2000
  136.2730   77.2340  223.7130 H   0  0  0  0  0  0  0  0  0  0  0  0
  136.7750   76.4180  223.2940 N   0  0  0  0  0  0  0  0  0  0  0  0
  137.8860   76.5620  222.6450 C   0  0  0  0  0  0  0  0  0  0  0  0
  138.7090   75.4890  222.4960 N   0  0  0  0  0  0  0  0  0  0  0  0
  139.8760   75.5570  221.8090 C   0  0  0  0  0  0  0  0  0  0  0  0
  140.6550   74.4560  221.6950 N   0  0  0  0  0  0  0  0  0  0  0  0
  141.8290   74.4870  221.0130 C   0  0  0  0  0  0  0  0  0  0  0  0
  142.5950   73.3200  220.9270 C   0  0  0  0  0  0  0  0  0  0  0  0
  142.2470   72.3933  221.4067 H   0  0  0  0  0  0  0  0  0  0  0  0
  143.8000   73.3380  220.2310 C   0  0  0  0  0  0  0  0  0  0  0  0
  144.4086   72.4247  220.1570 H   0  0  0  0  0  0  0  0  0  0  0  0
  144.2320   74.5160  219.6290 C   0  0  0  0  0  0  0  0  0  0  0  0
  145.1837   74.5392  219.0778 H   0  0  0  0  0  0  0  0  0  0  0  0
  143.4500   75.6680  219.7290 C   0  0  0  0  0  0  0  0  0  0  0  0
  143.7913   76.5989  219.2527 H   0  0  0  0  0  0  0  0  0  0  0  0
  142.2590   75.6540  220.4150 N   0  0  0  0  0  0  0  0  0  0  0  0
  141.4930   76.7910  220.5110 C   0  0  0  0  0  0  0  0  0  0  0  0
  141.8720   77.8680  219.9690 O   0  0  0  0  0  0  0  0  0  0  0  0
  140.2750   76.7610  221.2160 C   0  0  0  0  0  0  0  0  0  0  0  0
  139.4490   77.8880  221.3520 C   0  0  0  0  0  0  0  0  0  0  0  0
  139.7471   78.8406  220.8898 H   0  0  0  0  0  0  0  0  0  0  0  0
  138.2430   77.8110  222.0740 C   0  0  0  0  0  0  0  0  0  0  0  0
  137.4000   79.0340  222.1990 C   0  0  0  0  0  0  0  0  0  0  0  0
  137.9580   80.2130  222.1700 N   0  0  0  0  0  0  0  0  0  0  0  0
  138.7490   80.8840  223.2110 C   0  0  2  0  0  0  0  0  0  0  0  0
  138.7717   81.9682  223.0265 H   0  0  0  0  0  0  0  0  0  0  0  0
  140.2180   80.4840  223.1420 C   0  0  0  0  0  0  0  0  0  0  0  0
  140.6450   79.3680  223.8860 C   0  0  0  0  0  0  0  0  0  0  0  0
  139.9220   78.8184  224.5067 H   0  0  0  0  0  0  0  0  0  0  0  0
  141.9790   78.9510  223.8440 C   0  0  0  0  0  0  0  0  0  0  0  0
  142.3019   78.0819  224.4360 H   0  0  0  0  0  0  0  0  0  0  0  0
  142.9010   79.6360  223.0520 C   0  0  0  0  0  0  0  0  0  0  0  0
  143.9510   79.3095  223.0232 H   0  0  0  0  0  0  0  0  0  0  0  0
  142.4910   80.7360  222.2960 C   0  0  0  0  0  0  0  0  0  0  0  0
  143.2187   81.2723  221.6692 H   0  0  0  0  0  0  0  0  0  0  0  0
  141.1590   81.1580  222.3330 C   0  0  0  0  0  0  0  0  0  0  0  0
  140.8418   82.0204  221.7283 H   0  0  0  0  0  0  0  0  0  0  0  0
  138.0690   80.7410  224.5810 C   0  0  0  0  0  0  0  0  0  0  0  0
  138.8118   80.8972  225.3771 H   0  0  0  0  0  0  0  0  0  0  0  0
  137.2693   81.4906  224.6734 H   0  0  0  0  0  0  0  0  0  0  0  0
  137.6390   79.7328  224.6734 H   0  0  0  0  0  0  0  0  0  0  0  0
  136.0170   78.8750  222.3380 O   0  0  0  0  0  0  0  0  0  0  0  0
  135.5590   77.9850  222.4590 H   0  0  0  0  0  0  0  0  0  0  0  0
  1  2  1  0
  2  3  2  0
  3  4  1  0
  4  5  1  0
  5  6  1  0
  6  7  2  0
  7  8  1  0
  8  9  1  0
  8 10  2  0
 10 11  1  0
 10 12  1  0
 12 13  1  0
 12 14  2  0
 14 15  1  0
 14 16  1  0
 16 17  1  0
 17 18  2  0
 17 19  1  0
 19 20  1  0
 20 21  1  0
 20 22  2  0
 22 23  1  0
 23 24  2  0
 24 25  1  0
 25 26  1  6
 25 27  1  0
 27 28  2  0
 28 29  1  0
 28 30  1  0
 30 31  1  0
 30 32  2  0
 32 33  1  0
 32 34  1  0
 34 35  1  0
 34 36  2  0
 36 37  1  0
 25 38  1  0
 38 39  1  0
 38 40  1  0
 38 41  1  0
 23 42  1  0
 42 43  1  0
 22  3  1  0
 36 27  1  0
 19  5  2  0
 16  7  1  0
M  CHG  1   4  -1
M  END
>  <UniqueID>  (75) 
34

>  <SMILES>  (75) 
[H]/N=c1\[n-]c2nc3ccccn3c(=O)c2cc1/C(O)=N/[C@@H](C)c1ccccc1

>  <Energy>  (75) 
65.44549303457782

>  <Genealogy>  (75) 
C[C@H](NC(=O)c1cc2c(=O)n3ccccc3nc2[n-]c1=N)c1ccccc1 (protonated)
C[C@H](N=C(O)c1cc2c(=O)n3ccccc3nc2[n-]c1=N)c1ccccc1 (tautomer)
[H]/N=c1\[n-]c2nc3ccccn3c(=O)c2cc1/C(O)=N/[C@@H](C)c1ccccc1 (cis-trans isomerization)
[H]/N=c1\[n-]c2nc3ccccn3c(=O)c2cc1/C(O)=N/[C@@H](C)c1ccccc1 (3D coordinates assigned)
[H]/N=c1\[n-]c2nc3ccccn3c(=O)c2cc1/C(O)=N/[C@@H](C)c1ccccc1 (optimized conformer: 65.44549303457782 kcal/mol)

>  <smiles>  (75) 
C[C@H](NC(=O)c1cc2c(=O)n3ccccc3nc2[nH]c1=N)c1ccccc1

>  <score_type>  (75) 
oracle

>  <origin>  (75) 
autodockgpu

>  <m_score__min__energy>  (75) 
-7.6100000000000003

>  <m_primary>  (75) 
energy

>  <meeko>  (75) 
{"free_energy": -5.89, "intermolecular_energy": -7.68, "internal_energy": -2.43, "cluster_size": 6, "cluster_id": 5, "rank_in_cluster": 6}

>  <energy>  (75) 
-5.97

>  <cluster_rmsd>  (75) 
0.0

>  <rmsd>  (75) 
270.98

>  <cluster>  (75) 
5

$$$$
HDANWICVGDYKAH-GWJUIIKNNA-M
     RDKit          3D

 43 46  0  0  0  0  0  0  0  0999 V2000
  136.2700   77.2790  223.5170 H   0  0  0  0  0  0  0  0  0  0  0  0
  136.7980   76.4580  223.1420 N   0  0  0  0  0  0  0  0  0  0  0  0
  137.9260   76.6000  222.5220 C   0  0  0  0  0  0  0  0  0  0  0  0
  138.7420   75.5200  222.3800 N   0  0  0  0  0  0  0  0  0  0  0  0
  139.9260   75.5860  221.7220 C   0  0  0  0  0  0  0  0  0  0  0  0
  140.6980   74.4790  221.6140 N   0  0  0  0  0  0  0  0  0  0  0  0
  141.8890   74.5080  220.9610 C   0  0  0  0  0  0  0  0  0  0  0  0
  142.6460   73.3350  220.8790 C   0  0  0  0  0  0  0  0  0  0  0  0
  142.2777   72.4058  221.3383 H   0  0  0  0  0  0  0  0  0  0  0  0
  143.8680   73.3500  220.2130 C   0  0  0  0  0  0  0  0  0  0  0  0
  144.4705   72.4323  220.1431 H   0  0  0  0  0  0  0  0  0  0  0  0
  144.3240   74.5310  219.6360 C   0  0  0  0  0  0  0  0  0  0  0  0
  145.2883   74.5519  219.1072 H   0  0  0  0  0  0  0  0  0  0  0  0
  143.5510   75.6890  219.7320 C   0  0  0  0  0  0  0  0  0  0  0  0
  143.9128   76.6226  219.2765 H   0  0  0  0  0  0  0  0  0  0  0  0
  142.3440   75.6780  220.3880 N   0  0  0  0  0  0  0  0  0  0  0  0
  141.5860   76.8210  220.4800 C   0  0  0  0  0  0  0  0  0  0  0  0
  141.9880   77.9010  219.9600 O   0  0  0  0  0  0  0  0  0  0  0  0
  140.3510   76.7940  221.1550 C   0  0  0  0  0  0  0  0  0  0  0  0
  139.5320   77.9260  221.2850 C   0  0  0  0  0  0  0  0  0  0  0  0
  139.8497   78.8813  220.8419 H   0  0  0  0  0  0  0  0  0  0  0  0
  138.3090   77.8520  221.9760 C   0  0  0  0  0  0  0  0  0  0  0  0
  137.4740   79.0810  222.0950 C   0  0  0  0  0  0  0  0  0  0  0  0
  138.0460   80.2530  222.1450 N   0  0  0  0  0  0  0  0  0  0  0  0
  138.7990   80.8640  223.2480 C   0  0  2  0  0  0  0  0  0  0  0  0
  138.7903   81.9594  223.1475 H   0  0  0  0  0  0  0  0  0  0  0  0
  140.2810   80.5150  223.1750 C   0  0  0  0  0  0  0  0  0  0  0  0
  140.7360   79.3750  223.8660 C   0  0  0  0  0  0  0  0  0  0  0  0
  140.0253   78.7720  224.4502 H   0  0  0  0  0  0  0  0  0  0  0  0
  142.0830   79.0030  223.8160 C   0  0  0  0  0  0  0  0  0  0  0  0
  142.4276   78.1145  224.3654 H   0  0  0  0  0  0  0  0  0  0  0  0
  142.9910   79.7560  223.0710 C   0  0  0  0  0  0  0  0  0  0  0  0
  144.0509   79.4638  223.0366 H   0  0  0  0  0  0  0  0  0  0  0  0
  142.5530   80.8810  222.3690 C   0  0  0  0  0  0  0  0  0  0  0  0
  143.2692   81.4719  221.7792 H   0  0  0  0  0  0  0  0  0  0  0  0
  141.2080   81.2590  222.4130 C   0  0  0  0  0  0  0  0  0  0  0  0
  140.8696   82.1416  221.8504 H   0  0  0  0  0  0  0  0  0  0  0  0
  138.1030   80.5950  224.5910 C   0  0  0  0  0  0  0  0  0  0  0  0
  138.7825   80.8576  225.4152 H   0  0  0  0  0  0  0  0  0  0  0  0
  137.1903   81.2051  224.6597 H   0  0  0  0  0  0  0  0  0  0  0  0
  137.8379   79.5296  224.6597 H   0  0  0  0  0  0  0  0  0  0  0  0
  136.0830   78.9360  222.1440 O   0  0  0  0  0  0  0  0  0  0  0  0
  135.6100   78.0620  222.3150 H   0  0  0  0  0  0  0  0  0  0  0  0
  1  2  1  0
  2  3  2  0
  3  4  1  0
  4  5  1  0
  5  6  1  0
  6  7  2  0
  7  8  1  0
  8  9  1  0
  8 10  2  0
 10 11  1  0
 10 12  1  0
 12 13  1  0
 12 14  2  0
 14 15  1  0
 14 16  1  0
 16 17  1  0
 17 18  2  0
 17 19  1  0
 19 20  1  0
 20 21  1  0
 20 22  2  0
 22 23  1  0
 23 24  2  0
 24 25  1  0
 25 26  1  6
 25 27  1  0
 27 28  2  0
 28 29  1  0
 28 30  1  0
 30 31  1  0
 30 32  2  0
 32 33  1  0
 32 34  1  0
 34 35  1  0
 34 36  2  0
 36 37  1  0
 25 38  1  0
 38 39  1  0
 38 40  1  0
 38 41  1  0
 23 42  1  0
 42 43  1  0
 22  3  1  0
 36 27  1  0
 19  5  2  0
 16  7  1  0
M  CHG  1   4  -1
M  END
>  <UniqueID>  (76) 
34

>  <SMILES>  (76) 
[H]/N=c1\[n-]c2nc3ccccn3c(=O)c2cc1/C(O)=N/[C@@H](C)c1ccccc1

>  <Energy>  (76) 
65.44549303457782

>  <Genealogy>  (76) 
C[C@H](NC(=O)c1cc2c(=O)n3ccccc3nc2[n-]c1=N)c1ccccc1 (protonated)
C[C@H](N=C(O)c1cc2c(=O)n3ccccc3nc2[n-]c1=N)c1ccccc1 (tautomer)
[H]/N=c1\[n-]c2nc3ccccn3c(=O)c2cc1/C(O)=N/[C@@H](C)c1ccccc1 (cis-trans isomerization)
[H]/N=c1\[n-]c2nc3ccccn3c(=O)c2cc1/C(O)=N/[C@@H](C)c1ccccc1 (3D coordinates assigned)
[H]/N=c1\[n-]c2nc3ccccn3c(=O)c2cc1/C(O)=N/[C@@H](C)c1ccccc1 (optimized conformer: 65.44549303457782 kcal/mol)

>  <smiles>  (76) 
C[C@H](NC(=O)c1cc2c(=O)n3ccccc3nc2[nH]c1=N)c1ccccc1

>  <score_type>  (76) 
oracle

>  <origin>  (76) 
autodockgpu

>  <m_score__min__energy>  (76) 
-7.6100000000000003

>  <m_primary>  (76) 
energy

>  <meeko>  (76) 
{"free_energy": -5.91, "intermolecular_energy": -7.7, "internal_energy": -2.43, "cluster_size": 6, "cluster_id": 5, "rank_in_cluster": 5}

>  <energy>  (76) 
-5.97

>  <cluster_rmsd>  (76) 
0.04

>  <rmsd>  (76) 
270.97

>  <cluster>  (76) 
5

$$$$
HDANWICVGDYKAH-GWJUIIKNNA-M
     RDKit          3D

 43 46  0  0  0  0  0  0  0  0999 V2000
  134.6670   68.3890  226.2230 H   0  0  0  0  0  0  0  0  0  0  0  0
  133.9640   69.1160  226.4870 N   0  0  0  0  0  0  0  0  0  0  0  0
  134.1240   70.3630  226.1740 C   0  0  0  0  0  0  0  0  0  0  0  0
  133.3900   71.3070  226.8230 N   0  0  0  0  0  0  0  0  0  0  0  0
  133.5200   72.6320  226.5660 C   0  0  0  0  0  0  0  0  0  0  0  0
  132.7600   73.5260  227.2430 N   0  0  0  0  0  0  0  0  0  0  0  0
  132.8660   74.8600  227.0130 C   0  0  0  0  0  0  0  0  0  0  0  0
  132.0560   75.7400  227.7400 C   0  0  0  0  0  0  0  0  0  0  0  0
  131.3461   75.3511  228.4849 H   0  0  0  0  0  0  0  0  0  0  0  0
  132.1540   77.1100  227.5150 C   0  0  0  0  0  0  0  0  0  0  0  0
  131.5219   77.8095  228.0818 H   0  0  0  0  0  0  0  0  0  0  0  0
  133.0550   77.5910  226.5700 C   0  0  0  0  0  0  0  0  0  0  0  0
  133.1387   78.6722  226.3859 H   0  0  0  0  0  0  0  0  0  0  0  0
  133.8520   76.6940  225.8570 C   0  0  0  0  0  0  0  0  0  0  0  0
  134.5640   77.0749  225.1100 H   0  0  0  0  0  0  0  0  0  0  0  0
  133.7580   75.3410  226.0770 N   0  0  0  0  0  0  0  0  0  0  0  0
  134.5450   74.4610  225.3720 C   0  0  0  0  0  0  0  0  0  0  0  0
  135.3680   74.8840  224.5110 O   0  0  0  0  0  0  0  0  0  0  0  0
  134.4390   73.0780  225.6080 C   0  0  0  0  0  0  0  0  0  0  0  0
  135.2120   72.1290  224.9210 C   0  0  0  0  0  0  0  0  0  0  0  0
  135.9401   72.4627  224.1670 H   0  0  0  0  0  0  0  0  0  0  0  0
  135.0650   70.7550  225.1870 C   0  0  0  0  0  0  0  0  0  0  0  0
  135.9010   69.7820  224.4280 C   0  0  0  0  0  0  0  0  0  0  0  0
  137.0860   70.1330  224.0080 N   0  0  0  0  0  0  0  0  0  0  0  0
  138.3540   69.3980  224.1060 C   0  0  2  0  0  0  0  0  0  0  0  0
  138.1596   68.3401  224.3364 H   0  0  0  0  0  0  0  0  0  0  0  0
  139.1840   69.8720  225.2940 C   0  0  0  0  0  0  0  0  0  0  0  0
  139.9540   71.0420  225.1500 C   0  0  0  0  0  0  0  0  0  0  0  0
  139.9538   71.5801  224.1906 H   0  0  0  0  0  0  0  0  0  0  0  0
  140.7190   71.5260  226.2160 C   0  0  0  0  0  0  0  0  0  0  0  0
  141.3215   72.4376  226.0894 H   0  0  0  0  0  0  0  0  0  0  0  0
  140.7200   70.8560  227.4390 C   0  0  0  0  0  0  0  0  0  0  0  0
  141.3267   71.2361  228.2741 H   0  0  0  0  0  0  0  0  0  0  0  0
  139.9510   69.7030  227.6030 C   0  0  0  0  0  0  0  0  0  0  0  0
  139.9495   69.1778  228.5695 H   0  0  0  0  0  0  0  0  0  0  0  0
  139.1820   69.2130  226.5420 C   0  0  0  0  0  0  0  0  0  0  0  0
  138.5719   68.3083  226.6814 H   0  0  0  0  0  0  0  0  0  0  0  0
  139.0680   69.3710  222.7460 C   0  0  0  0  0  0  0  0  0  0  0  0
  140.1558   69.3299  222.9037 H   0  0  0  0  0  0  0  0  0  0  0  0
  138.7457   68.4844  222.1802 H   0  0  0  0  0  0  0  0  0  0  0  0
  138.8136   70.2794  222.1802 H   0  0  0  0  0  0  0  0  0  0  0  0
  135.3840   68.5030  224.1940 O   0  0  0  0  0  0  0  0  0  0  0  0
  134.5590   68.1350  224.6420 H   0  0  0  0  0  0  0  0  0  0  0  0
  1  2  1  0
  2  3  2  0
  3  4  1  0
  4  5  1  0
  5  6  1  0
  6  7  2  0
  7  8  1  0
  8  9  1  0
  8 10  2  0
 10 11  1  0
 10 12  1  0
 12 13  1  0
 12 14  2  0
 14 15  1  0
 14 16  1  0
 16 17  1  0
 17 18  2  0
 17 19  1  0
 19 20  1  0
 20 21  1  0
 20 22  2  0
 22 23  1  0
 23 24  2  0
 24 25  1  0
 25 26  1  1
 25 27  1  0
 27 28  2  0
 28 29  1  0
 28 30  1  0
 30 31  1  0
 30 32  2  0
 32 33  1  0
 32 34  1  0
 34 35  1  0
 34 36  2  0
 36 37  1  0
 25 38  1  0
 38 39  1  0
 38 40  1  0
 38 41  1  0
 23 42  1  0
 42 43  1  0
 22  3  1  0
 36 27  1  0
 19  5  2  0
 16  7  1  0
M  CHG  1   4  -1
M  END
>  <UniqueID>  (77) 
34

>  <SMILES>  (77) 
[H]/N=c1\[n-]c2nc3ccccn3c(=O)c2cc1/C(O)=N/[C@@H](C)c1ccccc1

>  <Energy>  (77) 
65.44549303457782

>  <Genealogy>  (77) 
C[C@H](NC(=O)c1cc2c(=O)n3ccccc3nc2[n-]c1=N)c1ccccc1 (protonated)
C[C@H](N=C(O)c1cc2c(=O)n3ccccc3nc2[n-]c1=N)c1ccccc1 (tautomer)
[H]/N=c1\[n-]c2nc3ccccn3c(=O)c2cc1/C(O)=N/[C@@H](C)c1ccccc1 (cis-trans isomerization)
[H]/N=c1\[n-]c2nc3ccccn3c(=O)c2cc1/C(O)=N/[C@@H](C)c1ccccc1 (3D coordinates assigned)
[H]/N=c1\[n-]c2nc3ccccn3c(=O)c2cc1/C(O)=N/[C@@H](C)c1ccccc1 (optimized conformer: 65.44549303457782 kcal/mol)

>  <smiles>  (77) 
C[C@H](NC(=O)c1cc2c(=O)n3ccccc3nc2[nH]c1=N)c1ccccc1

>  <score_type>  (77) 
oracle

>  <origin>  (77) 
autodockgpu

>  <m_score__min__energy>  (77) 
-7.6100000000000003

>  <m_primary>  (77) 
energy

>  <meeko>  (77) 
{"free_energy": -7.4, "intermolecular_energy": -9.19, "internal_energy": -1.65, "cluster_size": 10, "cluster_id": 1, "rank_in_cluster": 10}

>  <energy>  (77) 
-5.95

>  <cluster_rmsd>  (77) 
0.05

>  <rmsd>  (77) 
270.96

>  <cluster>  (77) 
5

$$$$
HDANWICVGDYKAH-GWJUIIKNNA-M
     RDKit          3D

 43 46  0  0  0  0  0  0  0  0999 V2000
  134.2720   68.0250  226.1580 H   0  0  0  0  0  0  0  0  0  0  0  0
  133.6220   68.7910  226.4480 N   0  0  0  0  0  0  0  0  0  0  0  0
  133.8640   70.0320  226.1670 C   0  0  0  0  0  0  0  0  0  0  0  0
  133.1630   71.0040  226.8120 N   0  0  0  0  0  0  0  0  0  0  0  0
  133.3780   72.3240  226.5880 C   0  0  0  0  0  0  0  0  0  0  0  0
  132.6480   73.2470  227.2580 N   0  0  0  0  0  0  0  0  0  0  0  0
  132.8370   74.5770  227.0610 C   0  0  0  0  0  0  0  0  0  0  0  0
  132.0550   75.4880  227.7800 C   0  0  0  0  0  0  0  0  0  0  0  0
  131.2992   75.1264  228.4928 H   0  0  0  0  0  0  0  0  0  0  0  0
  132.2390   76.8540  227.5880 C   0  0  0  0  0  0  0  0  0  0  0  0
  131.6296   77.5775  228.1494 H   0  0  0  0  0  0  0  0  0  0  0  0
  133.1970   77.3010  226.6830 C   0  0  0  0  0  0  0  0  0  0  0  0
  133.3483   78.3790  226.5248 H   0  0  0  0  0  0  0  0  0  0  0  0
  133.9650   76.3730  225.9770 C   0  0  0  0  0  0  0  0  0  0  0  0
  134.7223   76.7269  225.2619 H   0  0  0  0  0  0  0  0  0  0  0  0
  133.7870   75.0230  226.1640 N   0  0  0  0  0  0  0  0  0  0  0  0
  134.5450   74.1130  225.4660 C   0  0  0  0  0  0  0  0  0  0  0  0
  135.4190   74.5050  224.6420 O   0  0  0  0  0  0  0  0  0  0  0  0
  134.3520   72.7340  225.6690 C   0  0  0  0  0  0  0  0  0  0  0  0
  135.0920   71.7550  224.9880 C   0  0  0  0  0  0  0  0  0  0  0  0
  135.8638   72.0602  224.2661 H   0  0  0  0  0  0  0  0  0  0  0  0
  134.8570   70.3880  225.2190 C   0  0  0  0  0  0  0  0  0  0  0  0
  135.6620   69.3830  224.4670 C   0  0  0  0  0  0  0  0  0  0  0  0
  136.8900   69.6590  224.1250 N   0  0  0  0  0  0  0  0  0  0  0  0
  138.1180   68.9060  224.4120 C   0  0  2  0  0  0  0  0  0  0  0  0
  137.8760   67.9929  224.9757 H   0  0  0  0  0  0  0  0  0  0  0  0
  139.0360   69.6710  225.3580 C   0  0  0  0  0  0  0  0  0  0  0  0
  139.2400   69.1610  226.6550 C   0  0  0  0  0  0  0  0  0  0  0  0
  138.7294   68.2368  226.9634 H   0  0  0  0  0  0  0  0  0  0  0  0
  140.0850   69.8180  227.5540 C   0  0  0  0  0  0  0  0  0  0  0  0
  140.2301   69.4138  228.5667 H   0  0  0  0  0  0  0  0  0  0  0  0
  140.7450   70.9860  227.1690 C   0  0  0  0  0  0  0  0  0  0  0  0
  141.4061   71.5039  227.8794 H   0  0  0  0  0  0  0  0  0  0  0  0
  140.5660   71.4970  225.8820 C   0  0  0  0  0  0  0  0  0  0  0  0
  141.0904   72.4152  225.5788 H   0  0  0  0  0  0  0  0  0  0  0  0
  139.7220   70.8450  224.9770 C   0  0  0  0  0  0  0  0  0  0  0  0
  139.5918   71.2492  223.9623 H   0  0  0  0  0  0  0  0  0  0  0  0
  138.7560   68.3980  223.1090 C   0  0  0  0  0  0  0  0  0  0  0  0
  139.5959   67.7292  223.3484 H   0  0  0  0  0  0  0  0  0  0  0  0
  138.0049   67.8480  222.5231 H   0  0  0  0  0  0  0  0  0  0  0  0
  139.1238   69.2532  222.5231 H   0  0  0  0  0  0  0  0  0  0  0  0
  135.0660   68.1560  224.1540 O   0  0  0  0  0  0  0  0  0  0  0  0
  134.2440   67.7920  224.6110 H   0  0  0  0  0  0  0  0  0  0  0  0
  1  2  1  0
  2  3  2  0
  3  4  1  0
  4  5  1  0
  5  6  1  0
  6  7  2  0
  7  8  1  0
  8  9  1  0
  8 10  2  0
 10 11  1  0
 10 12  1  0
 12 13  1  0
 12 14  2  0
 14 15  1  0
 14 16  1  0
 16 17  1  0
 17 18  2  0
 17 19  1  0
 19 20  1  0
 20 21  1  0
 20 22  2  0
 22 23  1  0
 23 24  2  0
 24 25  1  0
 25 26  1  1
 25 27  1  0
 27 28  2  0
 28 29  1  0
 28 30  1  0
 30 31  1  0
 30 32  2  0
 32 33  1  0
 32 34  1  0
 34 35  1  0
 34 36  2  0
 36 37  1  0
 25 38  1  0
 38 39  1  0
 38 40  1  0
 38 41  1  0
 23 42  1  0
 42 43  1  0
 22  3  1  0
 36 27  1  0
 19  5  2  0
 16  7  1  0
M  CHG  1   4  -1
M  END
>  <UniqueID>  (78) 
34

>  <SMILES>  (78) 
[H]/N=c1\[n-]c2nc3ccccn3c(=O)c2cc1/C(O)=N/[C@@H](C)c1ccccc1

>  <Energy>  (78) 
65.44549303457782

>  <Genealogy>  (78) 
C[C@H](NC(=O)c1cc2c(=O)n3ccccc3nc2[n-]c1=N)c1ccccc1 (protonated)
C[C@H](N=C(O)c1cc2c(=O)n3ccccc3nc2[n-]c1=N)c1ccccc1 (tautomer)
[H]/N=c1\[n-]c2nc3ccccn3c(=O)c2cc1/C(O)=N/[C@@H](C)c1ccccc1 (cis-trans isomerization)
[H]/N=c1\[n-]c2nc3ccccn3c(=O)c2cc1/C(O)=N/[C@@H](C)c1ccccc1 (3D coordinates assigned)
[H]/N=c1\[n-]c2nc3ccccn3c(=O)c2cc1/C(O)=N/[C@@H](C)c1ccccc1 (optimized conformer: 65.44549303457782 kcal/mol)

>  <smiles>  (78) 
C[C@H](NC(=O)c1cc2c(=O)n3ccccc3nc2[nH]c1=N)c1ccccc1

>  <score_type>  (78) 
oracle

>  <origin>  (78) 
autodockgpu

>  <m_score__min__energy>  (78) 
-7.6100000000000003

>  <m_primary>  (78) 
energy

>  <meeko>  (78) 
{"free_energy": -7.59, "intermolecular_energy": -9.38, "internal_energy": -1.62, "cluster_size": 10, "cluster_id": 1, "rank_in_cluster": 4}

>  <energy>  (78) 
-5.93

>  <cluster_rmsd>  (78) 
0.09

>  <rmsd>  (78) 
270.97

>  <cluster>  (78) 
5

$$$$
HDANWICVGDYKAH-GWJUIIKNNA-M
     RDKit          3D

 43 46  0  0  0  0  0  0  0  0999 V2000
  138.8700   71.1830  219.8890 H   0  0  0  0  0  0  0  0  0  0  0  0
  138.5460   70.6240  220.7100 N   0  0  0  0  0  0  0  0  0  0  0  0
  139.0330   70.8100  221.8960 C   0  0  0  0  0  0  0  0  0  0  0  0
  139.0490   69.7720  222.7760 N   0  0  0  0  0  0  0  0  0  0  0  0
  139.5650   69.8860  224.0250 C   0  0  0  0  0  0  0  0  0  0  0  0
  139.5510   68.8180  224.8570 N   0  0  0  0  0  0  0  0  0  0  0  0
  140.0600   68.8940  226.1140 C   0  0  0  0  0  0  0  0  0  0  0  0
  140.0200   67.7610  226.9330 C   0  0  0  0  0  0  0  0  0  0  0  0
  139.5811   66.8241  226.5595 H   0  0  0  0  0  0  0  0  0  0  0  0
  140.5380   67.8250  228.2220 C   0  0  0  0  0  0  0  0  0  0  0  0
  140.5110   66.9387  228.8729 H   0  0  0  0  0  0  0  0  0  0  0  0
  141.0910   69.0160  228.6850 C   0  0  0  0  0  0  0  0  0  0  0  0
  141.5035   69.0754  229.7030 H   0  0  0  0  0  0  0  0  0  0  0  0
  141.1190   70.1340  227.8500 C   0  0  0  0  0  0  0  0  0  0  0  0
  141.5553   71.0749  228.2166 H   0  0  0  0  0  0  0  0  0  0  0  0
  140.6080   70.0740  226.5750 N   0  0  0  0  0  0  0  0  0  0  0  0
  140.6380   71.1770  225.7560 C   0  0  0  0  0  0  0  0  0  0  0  0
  141.1370   72.2650  226.1630 O   0  0  0  0  0  0  0  0  0  0  0  0
  140.1120   71.1010  224.4540 C   0  0  0  0  0  0  0  0  0  0  0  0
  140.1110   72.1910  223.5700 C   0  0  0  0  0  0  0  0  0  0  0  0
  140.5407   73.1517  223.8902 H   0  0  0  0  0  0  0  0  0  0  0  0
  139.5660   72.0680  222.2780 C   0  0  0  0  0  0  0  0  0  0  0  0
  139.5800   73.2540  221.3760 C   0  0  0  0  0  0  0  0  0  0  0  0
  140.4290   74.2230  221.5880 N   0  0  0  0  0  0  0  0  0  0  0  0
  141.3810   74.8350  220.6530 C   0  0  2  0  0  0  0  0  0  0  0  0
  141.0178   74.7227  219.6208 H   0  0  0  0  0  0  0  0  0  0  0  0
  142.7120   74.0920  220.6420 C   0  0  0  0  0  0  0  0  0  0  0  0
  143.8950   74.8350  220.4660 C   0  0  0  0  0  0  0  0  0  0  0  0
  143.8383   75.9248  220.3280 H   0  0  0  0  0  0  0  0  0  0  0  0
  145.1410   74.2010  220.4650 C   0  0  0  0  0  0  0  0  0  0  0  0
  146.0575   74.7917  220.3196 H   0  0  0  0  0  0  0  0  0  0  0  0
  145.2240   72.8210  220.6480 C   0  0  0  0  0  0  0  0  0  0  0  0
  146.2050   72.3235  220.6426 H   0  0  0  0  0  0  0  0  0  0  0  0
  144.0620   72.0710  220.8380 C   0  0  0  0  0  0  0  0  0  0  0  0
  144.1297   70.9831  220.9858 H   0  0  0  0  0  0  0  0  0  0  0  0
  142.8130   72.6980  220.8410 C   0  0  0  0  0  0  0  0  0  0  0  0
  141.9026   72.1014  220.9995 H   0  0  0  0  0  0  0  0  0  0  0  0
  141.4540   76.3540  220.8740 C   0  0  0  0  0  0  0  0  0  0  0  0
  141.4643   76.5675  221.9530 H   0  0  0  0  0  0  0  0  0  0  0  0
  142.3721   76.7478  220.4136 H   0  0  0  0  0  0  0  0  0  0  0  0
  140.5779   76.8340  220.4136 H   0  0  0  0  0  0  0  0  0  0  0  0
  138.6730   73.2890  220.3110 O   0  0  0  0  0  0  0  0  0  0  0  0
  137.9950   72.5670  220.1210 H   0  0  0  0  0  0  0  0  0  0  0  0
  1  2  1  0
  2  3  2  0
  3  4  1  0
  4  5  1  0
  5  6  1  0
  6  7  2  0
  7  8  1  0
  8  9  1  0
  8 10  2  0
 10 11  1  0
 10 12  1  0
 12 13  1  0
 12 14  2  0
 14 15  1  0
 14 16  1  0
 16 17  1  0
 17 18  2  0
 17 19  1  0
 19 20  1  0
 20 21  1  0
 20 22  2  0
 22 23  1  0
 23 24  2  0
 24 25  1  0
 25 26  1  6
 25 27  1  0
 27 28  2  0
 28 29  1  0
 28 30  1  0
 30 31  1  0
 30 32  2  0
 32 33  1  0
 32 34  1  0
 34 35  1  0
 34 36  2  0
 36 37  1  0
 25 38  1  0
 38 39  1  0
 38 40  1  0
 38 41  1  0
 23 42  1  0
 42 43  1  0
 22  3  1  0
 36 27  1  0
 19  5  2  0
 16  7  1  0
M  CHG  1   4  -1
M  END
>  <UniqueID>  (79) 
34

>  <SMILES>  (79) 
[H]/N=c1\[n-]c2nc3ccccn3c(=O)c2cc1/C(O)=N/[C@@H](C)c1ccccc1

>  <Energy>  (79) 
65.44549303457782

>  <Genealogy>  (79) 
C[C@H](NC(=O)c1cc2c(=O)n3ccccc3nc2[n-]c1=N)c1ccccc1 (protonated)
C[C@H](N=C(O)c1cc2c(=O)n3ccccc3nc2[n-]c1=N)c1ccccc1 (tautomer)
[H]/N=c1\[n-]c2nc3ccccn3c(=O)c2cc1/C(O)=N/[C@@H](C)c1ccccc1 (cis-trans isomerization)
[H]/N=c1\[n-]c2nc3ccccn3c(=O)c2cc1/C(O)=N/[C@@H](C)c1ccccc1 (3D coordinates assigned)
[H]/N=c1\[n-]c2nc3ccccn3c(=O)c2cc1/C(O)=N/[C@@H](C)c1ccccc1 (optimized conformer: 65.44549303457782 kcal/mol)

>  <smiles>  (79) 
C[C@H](NC(=O)c1cc2c(=O)n3ccccc3nc2[nH]c1=N)c1ccccc1

>  <score_type>  (79) 
oracle

>  <origin>  (79) 
autodockgpu

>  <m_score__min__energy>  (79) 
-7.6100000000000003

>  <m_primary>  (79) 
energy

>  <meeko>  (79) 
{"free_energy": -6.67, "intermolecular_energy": -8.46, "internal_energy": -1.73, "cluster_size": 2, "cluster_id": 4, "rank_in_cluster": 2}

>  <energy>  (79) 
-5.91

>  <cluster_rmsd>  (79) 
0.17

>  <rmsd>  (79) 
270.95

>  <cluster>  (79) 
5

$$$$
HDANWICVGDYKAH-GWJUIIKNNA-M
     RDKit          3D

 43 46  0  0  0  0  0  0  0  0999 V2000
  136.3690   77.0520  223.8020 H   0  0  0  0  0  0  0  0  0  0  0  0
  136.8300   76.2700  223.2830 N   0  0  0  0  0  0  0  0  0  0  0  0
  137.9450   76.4400  222.6480 C   0  0  0  0  0  0  0  0  0  0  0  0
  138.7730   75.3740  222.4700 N   0  0  0  0  0  0  0  0  0  0  0  0
  139.9450   75.4690  221.7950 C   0  0  0  0  0  0  0  0  0  0  0  0
  140.7290   74.3740  221.6510 N   0  0  0  0  0  0  0  0  0  0  0  0
  141.9080   74.4320  220.9800 C   0  0  0  0  0  0  0  0  0  0  0  0
  142.6790   73.2710  220.8620 C   0  0  0  0  0  0  0  0  0  0  0  0
  142.3308   72.3279  221.3085 H   0  0  0  0  0  0  0  0  0  0  0  0
  143.8900   73.3160  220.1760 C   0  0  0  0  0  0  0  0  0  0  0  0
  144.5029   72.4079  220.0768 H   0  0  0  0  0  0  0  0  0  0  0  0
  144.3210   74.5140  219.6170 C   0  0  0  0  0  0  0  0  0  0  0  0
  145.2767   74.5584  219.0742 H   0  0  0  0  0  0  0  0  0  0  0  0
  143.5350   75.6600  219.7480 C   0  0  0  0  0  0  0  0  0  0  0  0
  143.8768   76.6071  219.3050 H   0  0  0  0  0  0  0  0  0  0  0  0
  142.3390   75.6190  220.4240 N   0  0  0  0  0  0  0  0  0  0  0  0
  141.5680   76.7500  220.5510 C   0  0  0  0  0  0  0  0  0  0  0  0
  141.9470   77.8460  220.0480 O   0  0  0  0  0  0  0  0  0  0  0  0
  140.3450   76.6930  221.2460 C   0  0  0  0  0  0  0  0  0  0  0  0
  139.5140   77.8120  221.4120 C   0  0  0  0  0  0  0  0  0  0  0  0
  139.8123   78.7803  220.9838 H   0  0  0  0  0  0  0  0  0  0  0  0
  138.3030   77.7070  222.1210 C   0  0  0  0  0  0  0  0  0  0  0  0
  137.4540   78.9230  222.2790 C   0  0  0  0  0  0  0  0  0  0  0  0
  137.9950   80.1080  222.1970 N   0  0  0  0  0  0  0  0  0  0  0  0
  138.7640   80.8420  223.2100 C   0  0  2  0  0  0  0  0  0  0  0  0
  138.7446   81.9193  222.9887 H   0  0  0  0  0  0  0  0  0  0  0  0
  140.2470   80.4960  223.1470 C   0  0  0  0  0  0  0  0  0  0  0  0
  140.7090   79.3860  223.8800 C   0  0  0  0  0  0  0  0  0  0  0  0
  140.0025   78.8030  224.4890 H   0  0  0  0  0  0  0  0  0  0  0  0
  142.0570   79.0180  223.8410 C   0  0  0  0  0  0  0  0  0  0  0  0
  142.4068   78.1527  224.4232 H   0  0  0  0  0  0  0  0  0  0  0  0
  142.9600   79.7460  223.0650 C   0  0  0  0  0  0  0  0  0  0  0  0
  144.0212   79.4576  223.0398 H   0  0  0  0  0  0  0  0  0  0  0  0
  142.5160   80.8400  222.3210 C   0  0  0  0  0  0  0  0  0  0  0  0
  143.2282   81.4103  221.7065 H   0  0  0  0  0  0  0  0  0  0  0  0
  141.1680   81.2140  222.3540 C   0  0  0  0  0  0  0  0  0  0  0  0
  140.8240   82.0725  221.7585 H   0  0  0  0  0  0  0  0  0  0  0  0
  138.0960   80.7190  224.5880 C   0  0  0  0  0  0  0  0  0  0  0  0
  138.8514   80.8581  225.3754 H   0  0  0  0  0  0  0  0  0  0  0  0
  137.3165   81.4887  224.6876 H   0  0  0  0  0  0  0  0  0  0  0  0
  137.6418   79.7221  224.6876 H   0  0  0  0  0  0  0  0  0  0  0  0
  136.0850   78.7510  222.5080 O   0  0  0  0  0  0  0  0  0  0  0  0
  135.6190   77.8560  222.5120 H   0  0  0  0  0  0  0  0  0  0  0  0
  1  2  1  0
  2  3  2  0
  3  4  1  0
  4  5  1  0
  5  6  1  0
  6  7  2  0
  7  8  1  0
  8  9  1  0
  8 10  2  0
 10 11  1  0
 10 12  1  0
 12 13  1  0
 12 14  2  0
 14 15  1  0
 14 16  1  0
 16 17  1  0
 17 18  2  0
 17 19  1  0
 19 20  1  0
 20 21  1  0
 20 22  2  0
 22 23  1  0
 23 24  2  0
 24 25  1  0
 25 26  1  6
 25 27  1  0
 27 28  2  0
 28 29  1  0
 28 30  1  0
 30 31  1  0
 30 32  2  0
 32 33  1  0
 32 34  1  0
 34 35  1  0
 34 36  2  0
 36 37  1  0
 25 38  1  0
 38 39  1  0
 38 40  1  0
 38 41  1  0
 23 42  1  0
 42 43  1  0
 22  3  1  0
 36 27  1  0
 19  5  2  0
 16  7  1  0
M  CHG  1   4  -1
M  END
>  <UniqueID>  (80) 
34

>  <SMILES>  (80) 
[H]/N=c1\[n-]c2nc3ccccn3c(=O)c2cc1/C(O)=N/[C@@H](C)c1ccccc1

>  <Energy>  (80) 
65.44549303457782

>  <Genealogy>  (80) 
C[C@H](NC(=O)c1cc2c(=O)n3ccccc3nc2[n-]c1=N)c1ccccc1 (protonated)
C[C@H](N=C(O)c1cc2c(=O)n3ccccc3nc2[n-]c1=N)c1ccccc1 (tautomer)
[H]/N=c1\[n-]c2nc3ccccn3c(=O)c2cc1/C(O)=N/[C@@H](C)c1ccccc1 (cis-trans isomerization)
[H]/N=c1\[n-]c2nc3ccccn3c(=O)c2cc1/C(O)=N/[C@@H](C)c1ccccc1 (3D coordinates assigned)
[H]/N=c1\[n-]c2nc3ccccn3c(=O)c2cc1/C(O)=N/[C@@H](C)c1ccccc1 (optimized conformer: 65.44549303457782 kcal/mol)

>  <smiles>  (80) 
C[C@H](NC(=O)c1cc2c(=O)n3ccccc3nc2[nH]c1=N)c1ccccc1

>  <score_type>  (80) 
oracle

>  <origin>  (80) 
autodockgpu

>  <m_score__min__energy>  (80) 
-7.6100000000000003

>  <m_primary>  (80) 
energy

>  <meeko>  (80) 
{"free_energy": -5.97, "intermolecular_energy": -7.76, "internal_energy": -2.38, "cluster_size": 6, "cluster_id": 5, "rank_in_cluster": 1}

>  <energy>  (80) 
-5.89

>  <cluster_rmsd>  (80) 
0.12

>  <rmsd>  (80) 
270.95

>  <cluster>  (80) 
5

$$$$
