JBHRSOAXAGIKHA-SRRPOTTFNA-N
     RDKit          3D

 41 42  0  0  0  0  0  0  0  0999 V2000
  142.1460   76.1830  222.1090 H   0  0  0  0  0  0  0  0  0  0  0  0
  141.2130   75.8760  222.3550 O   0  0  0  0  0  0  0  0  0  0  0  0
  140.5510   74.8810  221.6370 C   0  0  0  0  0  0  0  0  0  0  0  0
  139.9090   73.8000  222.3200 N   0  0  0  0  0  0  0  0  0  0  0  0
  140.6400   72.6970  222.7810 N   0  0  0  0  0  0  0  0  0  0  0  0
  140.1160   71.5300  223.0160 C   0  0  0  0  0  0  0  0  0  0  0  0
  139.6245   71.0136  222.1783 H   0  0  0  0  0  0  0  0  0  0  0  0
  140.1330   70.8450  224.3310 C   0  0  0  0  0  0  0  0  0  0  0  0
  139.6010   69.5570  224.5210 C   0  0  0  0  0  0  0  0  0  0  0  0
  139.2079   68.9953  223.6608 H   0  0  0  0  0  0  0  0  0  0  0  0
  139.5690   68.9870  225.7960 C   0  0  0  0  0  0  0  0  0  0  0  0
  139.1734   67.9694  225.9303 H   0  0  0  0  0  0  0  0  0  0  0  0
  140.0360   69.7010  226.9000 C   0  0  0  0  0  0  0  0  0  0  0  0
  139.9965   69.2488  227.9020 H   0  0  0  0  0  0  0  0  0  0  0  0
  140.5570   70.9970  226.7360 C   0  0  0  0  0  0  0  0  0  0  0  0
  141.0180   71.8170  227.9150 C   0  0  0  0  0  0  0  0  0  0  0  0
  139.9210   72.2810  228.6180 F   0  0  0  0  0  0  0  0  0  0  0  0
  141.7750   72.9050  227.5140 F   0  0  0  0  0  0  0  0  0  0  0  0
  141.7860   71.0250  228.7490 F   0  0  0  0  0  0  0  0  0  0  0  0
  140.5910   71.5620  225.4490 C   0  0  0  0  0  0  0  0  0  0  0  0
  140.9823   72.5813  225.3154 H   0  0  0  0  0  0  0  0  0  0  0  0
  140.5150   74.9670  220.3050 C   0  0  0  0  0  0  0  0  0  0  0  0
  141.3524   74.5391  219.7344 H   0  0  0  0  0  0  0  0  0  0  0  0
  139.3940   75.6160  219.5410 C   0  0  0  0  0  0  0  0  0  0  0  0
  139.7808   75.9894  218.5813 H   0  0  0  0  0  0  0  0  0  0  0  0
  138.6046   74.8688  219.3720 H   0  0  0  0  0  0  0  0  0  0  0  0
  138.8000   76.7860  220.3320 C   0  0  0  0  0  0  0  0  0  0  0  0
  137.7510   76.9269  220.0323 H   0  0  0  0  0  0  0  0  0  0  0  0
  138.8668   76.5529  221.4050 H   0  0  0  0  0  0  0  0  0  0  0  0
  139.5230   77.9930  220.0830 O   0  0  0  0  0  0  0  0  0  0  0  0
  140.2610   78.7130  221.0400 C   0  0  0  0  0  0  0  0  0  0  0  0
  139.9270   78.7120  222.4100 C   0  0  0  0  0  0  0  0  0  0  0  0
  139.0251   78.1841  222.7533 H   0  0  0  0  0  0  0  0  0  0  0  0
  140.7370   79.3790  223.3340 C   0  0  0  0  0  0  0  0  0  0  0  0
  140.4740   79.3682  224.4021 H   0  0  0  0  0  0  0  0  0  0  0  0
  141.8790   80.0590  222.9050 C   0  0  0  0  0  0  0  0  0  0  0  0
  142.9130   80.8590  224.0720 Cl  0  0  0  0  0  0  0  0  0  0  0  0
  142.1940   80.1010  221.5440 C   0  0  0  0  0  0  0  0  0  0  0  0
  143.0795   80.6575  221.2031 H   0  0  0  0  0  0  0  0  0  0  0  0
  141.3860   79.4370  220.6130 C   0  0  0  0  0  0  0  0  0  0  0  0
  141.8070   79.5050  218.9090 Cl  0  0  0  0  0  0  0  0  0  0  0  0
  1  2  1  0
  2  3  1  0
  3  4  1  0
  4  5  1  0
  5  6  2  0
  6  7  1  0
  6  8  1  0
  8  9  2  0
  9 10  1  0
  9 11  1  0
 11 12  1  0
 11 13  2  0
 13 14  1  0
 13 15  1  0
 15 16  1  0
 16 17  1  0
 16 18  1  0
 16 19  1  0
 15 20  2  0
 20 21  1  0
  3 22  2  0
 22 23  1  0
 22 24  1  0
 24 25  1  0
 24 26  1  0
 24 27  1  0
 27 28  1  0
 27 29  1  0
 27 30  1  0
 30 31  1  0
 31 32  2  0
 32 33  1  0
 32 34  1  0
 34 35  1  0
 34 36  2  0
 36 37  1  0
 36 38  1  0
 38 39  1  0
 38 40  2  0
 40 41  1  0
 20  8  1  0
 40 31  1  0
M  CHG  1   4  -1
M  END
>  <UniqueID>  (1) 
17

>  <SMILES>  (1) 
O/C(=C/CCOc1ccc(Cl)cc1Cl)[N-]/N=C\c1cccc(C(F)(F)F)c1

>  <Energy>  (1) 
35.54338924362351

>  <Genealogy>  (1) 
O=C(CCCOc1ccc(Cl)cc1Cl)[N-]N=Cc1cccc(C(F)(F)F)c1 (protonated)
OC(=CCCOc1ccc(Cl)cc1Cl)[N-]N=Cc1cccc(C(F)(F)F)c1 (tautomer)
O/C(=C/CCOc1ccc(Cl)cc1Cl)[N-]/N=C\c1cccc(C(F)(F)F)c1 (cis-trans isomerization)
O/C(=C/CCOc1ccc(Cl)cc1Cl)[N-]/N=C\c1cccc(C(F)(F)F)c1 (3D coordinates assigned)
O/C(=C/CCOc1ccc(Cl)cc1Cl)[N-]/N=C\c1cccc(C(F)(F)F)c1 (optimized conformer: 35.54338924362351 kcal/mol)

>  <smiles>  (1) 
O=C(CCCOc1ccc(Cl)cc1Cl)NN=Cc1cccc(C(F)(F)F)c1

>  <score_type>  (1) 
oracle

>  <origin>  (1) 
autodockgpu

>  <m_score__min__energy>  (1) 
-6.9199999999999999

>  <m_primary>  (1) 
energy

>  <meeko>  (1) 
{"free_energy": -6.63, "intermolecular_energy": -9.91, "internal_energy": -0.93, "cluster_size": 5, "cluster_id": 3, "rank_in_cluster": 1}

>  <energy>  (1) 
-6.92

>  <cluster_rmsd>  (1) 
0.0

>  <rmsd>  (1) 
272.65

>  <cluster>  (1) 
1

$$$$
JBHRSOAXAGIKHA-SRRPOTTFNA-N
     RDKit          3D

 41 42  0  0  0  0  0  0  0  0999 V2000
  138.3770   74.8210  223.0790 H   0  0  0  0  0  0  0  0  0  0  0  0
  138.9060   75.4730  222.5130 O   0  0  0  0  0  0  0  0  0  0  0  0
  140.0260   75.0740  221.7840 C   0  0  0  0  0  0  0  0  0  0  0  0
  140.6110   73.7860  221.9990 N   0  0  0  0  0  0  0  0  0  0  0  0
  139.9420   72.8000  222.7370 N   0  0  0  0  0  0  0  0  0  0  0  0
  140.4510   71.6380  223.0170 C   0  0  0  0  0  0  0  0  0  0  0  0
  141.0200   71.1268  222.2265 H   0  0  0  0  0  0  0  0  0  0  0  0
  140.3210   70.9500  224.3250 C   0  0  0  0  0  0  0  0  0  0  0  0
  139.6790   69.7060  224.4650 C   0  0  0  0  0  0  0  0  0  0  0  0
  139.3070   69.1783  223.5744 H   0  0  0  0  0  0  0  0  0  0  0  0
  139.5120   69.1380  225.7310 C   0  0  0  0  0  0  0  0  0  0  0  0
  139.0292   68.1546  225.8298 H   0  0  0  0  0  0  0  0  0  0  0  0
  139.9540   69.8110  226.8700 C   0  0  0  0  0  0  0  0  0  0  0  0
  139.8089   69.3608  227.8631 H   0  0  0  0  0  0  0  0  0  0  0  0
  140.5840   71.0620  226.7540 C   0  0  0  0  0  0  0  0  0  0  0  0
  141.0220   71.8410  227.9690 C   0  0  0  0  0  0  0  0  0  0  0  0
  141.7340   72.9600  227.5750 F   0  0  0  0  0  0  0  0  0  0  0  0
  141.8250   71.0800  228.8010 F   0  0  0  0  0  0  0  0  0  0  0  0
  139.9050   72.2450  228.6790 F   0  0  0  0  0  0  0  0  0  0  0  0
  140.7520   71.6260  225.4780 C   0  0  0  0  0  0  0  0  0  0  0  0
  141.2286   72.6126  225.3807 H   0  0  0  0  0  0  0  0  0  0  0  0
  140.5280   75.9100  220.8710 C   0  0  0  0  0  0  0  0  0  0  0  0
  141.1659   76.7357  221.2193 H   0  0  0  0  0  0  0  0  0  0  0  0
  140.2710   75.7870  219.3940 C   0  0  0  0  0  0  0  0  0  0  0  0
  139.2500   76.1331  219.1757 H   0  0  0  0  0  0  0  0  0  0  0  0
  141.0074   76.4019  218.8559 H   0  0  0  0  0  0  0  0  0  0  0  0
  140.4170   74.3330  218.9350 C   0  0  0  0  0  0  0  0  0  0  0  0
  140.1466   73.6649  219.7660 H   0  0  0  0  0  0  0  0  0  0  0  0
  139.7507   74.1689  218.0752 H   0  0  0  0  0  0  0  0  0  0  0  0
  141.7580   74.0550  218.5300 O   0  0  0  0  0  0  0  0  0  0  0  0
  142.8500   73.8780  219.3980 C   0  0  0  0  0  0  0  0  0  0  0  0
  143.1480   72.6370  219.9960 C   0  0  0  0  0  0  0  0  0  0  0  0
  142.4779   71.7789  219.8388 H   0  0  0  0  0  0  0  0  0  0  0  0
  144.2910   72.4910  220.7880 C   0  0  0  0  0  0  0  0  0  0  0  0
  144.5215   71.5171  221.2444 H   0  0  0  0  0  0  0  0  0  0  0  0
  145.1410   73.5790  221.0010 C   0  0  0  0  0  0  0  0  0  0  0  0
  146.5940   73.3810  221.9620 Cl  0  0  0  0  0  0  0  0  0  0  0  0
  144.8310   74.8240  220.4480 C   0  0  0  0  0  0  0  0  0  0  0  0
  145.4872   75.6865  220.6364 H   0  0  0  0  0  0  0  0  0  0  0  0
  143.6880   74.9770  219.6550 C   0  0  0  0  0  0  0  0  0  0  0  0
  143.3230   76.5530  218.9700 Cl  0  0  0  0  0  0  0  0  0  0  0  0
  1  2  1  0
  2  3  1  0
  3  4  1  0
  4  5  1  0
  5  6  2  0
  6  7  1  0
  6  8  1  0
  8  9  2  0
  9 10  1  0
  9 11  1  0
 11 12  1  0
 11 13  2  0
 13 14  1  0
 13 15  1  0
 15 16  1  0
 16 17  1  0
 16 18  1  0
 16 19  1  0
 15 20  2  0
 20 21  1  0
  3 22  2  0
 22 23  1  0
 22 24  1  0
 24 25  1  0
 24 26  1  0
 24 27  1  0
 27 28  1  0
 27 29  1  0
 27 30  1  0
 30 31  1  0
 31 32  2  0
 32 33  1  0
 32 34  1  0
 34 35  1  0
 34 36  2  0
 36 37  1  0
 36 38  1  0
 38 39  1  0
 38 40  2  0
 40 41  1  0
 20  8  1  0
 40 31  1  0
M  CHG  1   4  -1
M  END
>  <UniqueID>  (2) 
17

>  <SMILES>  (2) 
O/C(=C/CCOc1ccc(Cl)cc1Cl)[N-]/N=C\c1cccc(C(F)(F)F)c1

>  <Energy>  (2) 
35.54338924362351

>  <Genealogy>  (2) 
O=C(CCCOc1ccc(Cl)cc1Cl)[N-]N=Cc1cccc(C(F)(F)F)c1 (protonated)
OC(=CCCOc1ccc(Cl)cc1Cl)[N-]N=Cc1cccc(C(F)(F)F)c1 (tautomer)
O/C(=C/CCOc1ccc(Cl)cc1Cl)[N-]/N=C\c1cccc(C(F)(F)F)c1 (cis-trans isomerization)
O/C(=C/CCOc1ccc(Cl)cc1Cl)[N-]/N=C\c1cccc(C(F)(F)F)c1 (3D coordinates assigned)
O/C(=C/CCOc1ccc(Cl)cc1Cl)[N-]/N=C\c1cccc(C(F)(F)F)c1 (optimized conformer: 35.54338924362351 kcal/mol)

>  <smiles>  (2) 
O=C(CCCOc1ccc(Cl)cc1Cl)NN=Cc1cccc(C(F)(F)F)c1

>  <score_type>  (2) 
oracle

>  <origin>  (2) 
autodockgpu

>  <m_score__min__energy>  (2) 
-6.9199999999999999

>  <m_primary>  (2) 
energy

>  <meeko>  (2) 
{"free_energy": -6.66, "intermolecular_energy": -9.94, "internal_energy": -1.33, "cluster_size": 4, "cluster_id": 2, "rank_in_cluster": 1}

>  <energy>  (2) 
-6.53

>  <cluster_rmsd>  (2) 
1.17

>  <rmsd>  (2) 
272.62

>  <cluster>  (2) 
1

$$$$
JBHRSOAXAGIKHA-SRRPOTTFNA-N
     RDKit          3D

 41 42  0  0  0  0  0  0  0  0999 V2000
  139.9200   73.0530  219.5270 H   0  0  0  0  0  0  0  0  0  0  0  0
  139.3450   72.9560  220.3540 O   0  0  0  0  0  0  0  0  0  0  0  0
  139.5680   74.8970  221.6590 C   0  0  0  0  0  0  0  0  0  0  0  0
  140.1540   72.7900  222.6630 N   0  0  0  0  0  0  0  0  0  0  0  0
  139.3110   71.8920  223.3320 N   0  0  0  0  0  0  0  0  0  0  0  0
  139.6800   73.5700  221.5610 C   0  0  0  0  0  0  0  0  0  0  0  0
  138.8893   75.3054  222.4223 H   0  0  0  0  0  0  0  0  0  0  0  0
  140.0530   70.2150  224.9820 C   0  0  0  0  0  0  0  0  0  0  0  0
  139.9690   68.8680  225.3820 C   0  0  0  0  0  0  0  0  0  0  0  0
  139.6500   68.1013  224.6606 H   0  0  0  0  0  0  0  0  0  0  0  0
  140.2890   68.5010  226.6910 C   0  0  0  0  0  0  0  0  0  0  0  0
  140.2436   67.4430  226.9885 H   0  0  0  0  0  0  0  0  0  0  0  0
  140.6660   69.4680  227.6240 C   0  0  0  0  0  0  0  0  0  0  0  0
  140.9053   69.1704  228.6556 H   0  0  0  0  0  0  0  0  0  0  0  0
  140.7410   70.8210  227.2500 C   0  0  0  0  0  0  0  0  0  0  0  0
  141.0900   71.8970  228.2480 C   0  0  0  0  0  0  0  0  0  0  0  0
  141.5420   73.0220  227.5810 F   0  0  0  0  0  0  0  0  0  0  0  0
  142.0760   71.4790  229.1250 F   0  0  0  0  0  0  0  0  0  0  0  0
  139.9610   72.2280  228.9750 F   0  0  0  0  0  0  0  0  0  0  0  0
  140.4220   71.1840  225.9300 C   0  0  0  0  0  0  0  0  0  0  0  0
  140.4619   72.2429  225.6348 H   0  0  0  0  0  0  0  0  0  0  0  0
  139.6460   70.6730  223.6310 C   0  0  0  0  0  0  0  0  0  0  0  0
  139.6264   69.9261  222.8237 H   0  0  0  0  0  0  0  0  0  0  0  0
  140.3170   75.8650  220.7850 C   0  0  0  0  0  0  0  0  0  0  0  0
  139.9302   76.8801  220.9580 H   0  0  0  0  0  0  0  0  0  0  0  0
  141.3861   75.8129  221.0386 H   0  0  0  0  0  0  0  0  0  0  0  0
  140.1470   75.5090  219.3050 C   0  0  0  0  0  0  0  0  0  0  0  0
  139.1618   75.0424  219.1581 H   0  0  0  0  0  0  0  0  0  0  0  0
  140.2290   76.4312  218.7111 H   0  0  0  0  0  0  0  0  0  0  0  0
  141.1630   74.6000  218.8770 O   0  0  0  0  0  0  0  0  0  0  0  0
  142.3420   74.3040  219.5830 C   0  0  0  0  0  0  0  0  0  0  0  0
  142.5670   73.0510  220.1890 C   0  0  0  0  0  0  0  0  0  0  0  0
  141.7778   72.2850  220.1723 H   0  0  0  0  0  0  0  0  0  0  0  0
  143.7890   72.7780  220.8110 C   0  0  0  0  0  0  0  0  0  0  0  0
  143.9610   71.7949  221.2736 H   0  0  0  0  0  0  0  0  0  0  0  0
  144.7920   73.7490  220.8470 C   0  0  0  0  0  0  0  0  0  0  0  0
  146.3360   73.3880  221.5940 Cl  0  0  0  0  0  0  0  0  0  0  0  0
  144.5620   75.0090  220.2870 C   0  0  0  0  0  0  0  0  0  0  0  0
  145.3427   75.7824  220.3369 H   0  0  0  0  0  0  0  0  0  0  0  0
  143.3410   75.2890  219.6630 C   0  0  0  0  0  0  0  0  0  0  0  0
  143.0790   76.8810  218.9660 Cl  0  0  0  0  0  0  0  0  0  0  0  0
  1  2  1  0
  2  3  1  0
  3  4  1  0
  4  5  1  0
  5  6  2  0
  6  7  1  0
  6  8  1  0
  8  9  2  0
  9 10  1  0
  9 11  1  0
 11 12  1  0
 11 13  2  0
 13 14  1  0
 13 15  1  0
 15 16  1  0
 16 17  1  0
 16 18  1  0
 16 19  1  0
 15 20  2  0
 20 21  1  0
  3 22  2  0
 22 23  1  0
 22 24  1  0
 24 25  1  0
 24 26  1  0
 24 27  1  0
 27 28  1  0
 27 29  1  0
 27 30  1  0
 30 31  1  0
 31 32  2  0
 32 33  1  0
 32 34  1  0
 34 35  1  0
 34 36  2  0
 36 37  1  0
 36 38  1  0
 38 39  1  0
 38 40  2  0
 40 41  1  0
 20  8  1  0
 40 31  1  0
M  CHG  1   4  -1
M  END
>  <UniqueID>  (3) 
17

>  <SMILES>  (3) 
O/C(=C/CCOc1ccc(Cl)cc1Cl)[N-]/N=C\c1cccc(C(F)(F)F)c1

>  <Energy>  (3) 
35.54338924362351

>  <Genealogy>  (3) 
O=C(CCCOc1ccc(Cl)cc1Cl)[N-]N=Cc1cccc(C(F)(F)F)c1 (protonated)
OC(=CCCOc1ccc(Cl)cc1Cl)[N-]N=Cc1cccc(C(F)(F)F)c1 (tautomer)
O/C(=C/CCOc1ccc(Cl)cc1Cl)[N-]/N=C\c1cccc(C(F)(F)F)c1 (cis-trans isomerization)
O/C(=C/CCOc1ccc(Cl)cc1Cl)[N-]/N=C\c1cccc(C(F)(F)F)c1 (3D coordinates assigned)
O/C(=C/CCOc1ccc(Cl)cc1Cl)[N-]/N=C\c1cccc(C(F)(F)F)c1 (optimized conformer: 35.54338924362351 kcal/mol)

>  <smiles>  (3) 
O=C(CCCOc1ccc(Cl)cc1Cl)NN=Cc1cccc(C(F)(F)F)c1

>  <score_type>  (3) 
oracle

>  <origin>  (3) 
autodockgpu

>  <m_score__min__energy>  (3) 
-6.9199999999999999

>  <m_primary>  (3) 
energy

>  <meeko>  (3) 
{"free_energy": -5.49, "intermolecular_energy": -8.77, "internal_energy": -1.51, "cluster_size": 4, "cluster_id": 2, "rank_in_cluster": 4}

>  <energy>  (3) 
-6.47

>  <cluster_rmsd>  (3) 
1.83

>  <rmsd>  (3) 
272.59

>  <cluster>  (3) 
1

$$$$
JBHRSOAXAGIKHA-SRRPOTTFNA-N
     RDKit          3D

 41 42  0  0  0  0  0  0  0  0999 V2000
  138.0730   73.4180  222.8990 H   0  0  0  0  0  0  0  0  0  0  0  0
  138.4950   72.5590  222.5720 O   0  0  0  0  0  0  0  0  0  0  0  0
  139.8380   72.4930  222.2000 C   0  0  0  0  0  0  0  0  0  0  0  0
  140.6650   73.6590  222.2630 N   0  0  0  0  0  0  0  0  0  0  0  0
  140.1450   74.9330  221.9950 N   0  0  0  0  0  0  0  0  0  0  0  0
  140.8710   76.0090  221.9230 C   0  0  0  0  0  0  0  0  0  0  0  0
  141.8597   75.9264  221.4479 H   0  0  0  0  0  0  0  0  0  0  0  0
  140.4630   77.3400  222.4350 C   0  0  0  0  0  0  0  0  0  0  0  0
  139.1180   77.6820  222.6660 C   0  0  0  0  0  0  0  0  0  0  0  0
  138.3293   76.9280  222.5265 H   0  0  0  0  0  0  0  0  0  0  0  0
  138.7800   78.9760  223.0720 C   0  0  0  0  0  0  0  0  0  0  0  0
  137.7286   79.2286  223.2737 H   0  0  0  0  0  0  0  0  0  0  0  0
  139.7680   79.9490  223.2230 C   0  0  0  0  0  0  0  0  0  0  0  0
  139.4911   80.9675  223.5327 H   0  0  0  0  0  0  0  0  0  0  0  0
  141.1160   79.6330  222.9810 C   0  0  0  0  0  0  0  0  0  0  0  0
  142.2010   80.6760  223.0800 C   0  0  0  0  0  0  0  0  0  0  0  0
  142.0990   81.5580  222.0190 F   0  0  0  0  0  0  0  0  0  0  0  0
  143.4620   80.1050  223.0560 F   0  0  0  0  0  0  0  0  0  0  0  0
  142.0540   81.3770  224.2640 F   0  0  0  0  0  0  0  0  0  0  0  0
  141.4500   78.3290  222.5770 C   0  0  0  0  0  0  0  0  0  0  0  0
  142.5008   78.0791  222.3688 H   0  0  0  0  0  0  0  0  0  0  0  0
  140.3370   71.3200  221.8030 C   0  0  0  0  0  0  0  0  0  0  0  0
  140.1163   70.4298  222.4104 H   0  0  0  0  0  0  0  0  0  0  0  0
  141.1840   71.1470  220.5720 C   0  0  0  0  0  0  0  0  0  0  0  0
  141.2251   70.0795  220.3099 H   0  0  0  0  0  0  0  0  0  0  0  0
  140.7353   71.7264  219.7517 H   0  0  0  0  0  0  0  0  0  0  0  0
  142.6080   71.6600  220.8130 C   0  0  0  0  0  0  0  0  0  0  0  0
  142.6073   72.3242  221.6898 H   0  0  0  0  0  0  0  0  0  0  0  0
  143.2671   70.7961  220.9840 H   0  0  0  0  0  0  0  0  0  0  0  0
  143.0910   72.3830  219.6800 O   0  0  0  0  0  0  0  0  0  0  0  0
  142.8740   73.7490  219.4320 C   0  0  0  0  0  0  0  0  0  0  0  0
  141.7150   74.2260  218.7850 C   0  0  0  0  0  0  0  0  0  0  0  0
  140.9714   73.5136  218.3983 H   0  0  0  0  0  0  0  0  0  0  0  0
  141.5070   75.6000  218.6330 C   0  0  0  0  0  0  0  0  0  0  0  0
  140.5972   75.9649  218.1339 H   0  0  0  0  0  0  0  0  0  0  0  0
  142.4510   76.5110  219.1130 C   0  0  0  0  0  0  0  0  0  0  0  0
  142.1660   78.2340  218.9550 Cl  0  0  0  0  0  0  0  0  0  0  0  0
  143.6230   76.0470  219.7170 C   0  0  0  0  0  0  0  0  0  0  0  0
  144.3782   76.7637  220.0721 H   0  0  0  0  0  0  0  0  0  0  0  0
  143.8380   74.6720  219.8710 C   0  0  0  0  0  0  0  0  0  0  0  0
  145.3180   74.1160  220.6370 Cl  0  0  0  0  0  0  0  0  0  0  0  0
  1  2  1  0
  2  3  1  0
  3  4  1  0
  4  5  1  0
  5  6  2  0
  6  7  1  0
  6  8  1  0
  8  9  2  0
  9 10  1  0
  9 11  1  0
 11 12  1  0
 11 13  2  0
 13 14  1  0
 13 15  1  0
 15 16  1  0
 16 17  1  0
 16 18  1  0
 16 19  1  0
 15 20  2  0
 20 21  1  0
  3 22  2  0
 22 23  1  0
 22 24  1  0
 24 25  1  0
 24 26  1  0
 24 27  1  0
 27 28  1  0
 27 29  1  0
 27 30  1  0
 30 31  1  0
 31 32  2  0
 32 33  1  0
 32 34  1  0
 34 35  1  0
 34 36  2  0
 36 37  1  0
 36 38  1  0
 38 39  1  0
 38 40  2  0
 40 41  1  0
 20  8  1  0
 40 31  1  0
M  CHG  1   4  -1
M  END
>  <UniqueID>  (4) 
17

>  <SMILES>  (4) 
O/C(=C/CCOc1ccc(Cl)cc1Cl)[N-]/N=C\c1cccc(C(F)(F)F)c1

>  <Energy>  (4) 
35.54338924362351

>  <Genealogy>  (4) 
O=C(CCCOc1ccc(Cl)cc1Cl)[N-]N=Cc1cccc(C(F)(F)F)c1 (protonated)
OC(=CCCOc1ccc(Cl)cc1Cl)[N-]N=Cc1cccc(C(F)(F)F)c1 (tautomer)
O/C(=C/CCOc1ccc(Cl)cc1Cl)[N-]/N=C\c1cccc(C(F)(F)F)c1 (cis-trans isomerization)
O/C(=C/CCOc1ccc(Cl)cc1Cl)[N-]/N=C\c1cccc(C(F)(F)F)c1 (3D coordinates assigned)
O/C(=C/CCOc1ccc(Cl)cc1Cl)[N-]/N=C\c1cccc(C(F)(F)F)c1 (optimized conformer: 35.54338924362351 kcal/mol)

>  <smiles>  (4) 
O=C(CCCOc1ccc(Cl)cc1Cl)NN=Cc1cccc(C(F)(F)F)c1

>  <score_type>  (4) 
oracle

>  <origin>  (4) 
autodockgpu

>  <m_score__min__energy>  (4) 
-6.9199999999999999

>  <m_primary>  (4) 
energy

>  <meeko>  (4) 
{"free_energy": -5.25, "intermolecular_energy": -8.53, "internal_energy": -1.89, "cluster_size": 3, "cluster_id": 5, "rank_in_cluster": 1}

>  <energy>  (4) 
-6.05

>  <cluster_rmsd>  (4) 
1.83

>  <rmsd>  (4) 
272.13

>  <cluster>  (4) 
1

$$$$
JBHRSOAXAGIKHA-SRRPOTTFNA-N
     RDKit          3D

 41 42  0  0  0  0  0  0  0  0999 V2000
  137.9610   72.9800  223.3990 H   0  0  0  0  0  0  0  0  0  0  0  0
  138.3190   72.3060  222.7350 O   0  0  0  0  0  0  0  0  0  0  0  0
  139.4770   72.5430  221.9960 C   0  0  0  0  0  0  0  0  0  0  0  0
  140.3250   73.6520  222.3120 N   0  0  0  0  0  0  0  0  0  0  0  0
  139.9480   74.9650  221.9980 N   0  0  0  0  0  0  0  0  0  0  0  0
  140.7670   75.9740  222.0110 C   0  0  0  0  0  0  0  0  0  0  0  0
  141.7917   75.8040  221.6489 H   0  0  0  0  0  0  0  0  0  0  0  0
  140.4200   77.3390  222.4790 C   0  0  0  0  0  0  0  0  0  0  0  0
  139.0920   77.7500  222.6960 C   0  0  0  0  0  0  0  0  0  0  0  0
  138.2697   77.0288  222.5793 H   0  0  0  0  0  0  0  0  0  0  0  0
  138.8130   79.0700  223.0590 C   0  0  0  0  0  0  0  0  0  0  0  0
  137.7740   79.3769  223.2497 H   0  0  0  0  0  0  0  0  0  0  0  0
  139.8450   80.0010  223.1810 C   0  0  0  0  0  0  0  0  0  0  0  0
  139.6151   81.0405  223.4575 H   0  0  0  0  0  0  0  0  0  0  0  0
  141.1770   79.6160  222.9520 C   0  0  0  0  0  0  0  0  0  0  0  0
  142.3090   80.6110  223.0190 C   0  0  0  0  0  0  0  0  0  0  0  0
  143.5120   79.9660  222.7920 F   0  0  0  0  0  0  0  0  0  0  0  0
  142.3700   81.2320  224.2550 F   0  0  0  0  0  0  0  0  0  0  0  0
  142.1250   81.5770  222.0460 F   0  0  0  0  0  0  0  0  0  0  0  0
  141.4520   78.2860  222.5910 C   0  0  0  0  0  0  0  0  0  0  0  0
  142.4904   77.9818  222.3932 H   0  0  0  0  0  0  0  0  0  0  0  0
  139.7880   71.7060  221.0020 C   0  0  0  0  0  0  0  0  0  0  0  0
  139.0178   71.4880  220.2475 H   0  0  0  0  0  0  0  0  0  0  0  0
  141.1310   71.0450  220.8560 C   0  0  0  0  0  0  0  0  0  0  0  0
  141.7575   71.3066  221.7215 H   0  0  0  0  0  0  0  0  0  0  0  0
  140.9839   69.9561  220.8044 H   0  0  0  0  0  0  0  0  0  0  0  0
  141.8290   71.5070  219.5730 C   0  0  0  0  0  0  0  0  0  0  0  0
  142.3299   70.6461  219.1061 H   0  0  0  0  0  0  0  0  0  0  0  0
  141.0721   71.9274  218.8944 H   0  0  0  0  0  0  0  0  0  0  0  0
  142.8000   72.5170  219.8530 O   0  0  0  0  0  0  0  0  0  0  0  0
  142.6560   73.8860  219.5690 C   0  0  0  0  0  0  0  0  0  0  0  0
  141.4930   74.4170  218.9740 C   0  0  0  0  0  0  0  0  0  0  0  0
  140.6836   73.7429  218.6571 H   0  0  0  0  0  0  0  0  0  0  0  0
  141.3640   75.7960  218.7850 C   0  0  0  0  0  0  0  0  0  0  0  0
  140.4503   76.2037  218.3278 H   0  0  0  0  0  0  0  0  0  0  0  0
  142.3920   76.6580  219.1750 C   0  0  0  0  0  0  0  0  0  0  0  0
  142.2090   78.3890  218.9710 Cl  0  0  0  0  0  0  0  0  0  0  0  0
  143.5660   76.1370  219.7250 C   0  0  0  0  0  0  0  0  0  0  0  0
  144.3860   76.8133  220.0081 H   0  0  0  0  0  0  0  0  0  0  0  0
  143.7020   74.7570  219.9170 C   0  0  0  0  0  0  0  0  0  0  0  0
  145.1880   74.1300  220.6130 Cl  0  0  0  0  0  0  0  0  0  0  0  0
  1  2  1  0
  2  3  1  0
  3  4  1  0
  4  5  1  0
  5  6  2  0
  6  7  1  0
  6  8  1  0
  8  9  2  0
  9 10  1  0
  9 11  1  0
 11 12  1  0
 11 13  2  0
 13 14  1  0
 13 15  1  0
 15 16  1  0
 16 17  1  0
 16 18  1  0
 16 19  1  0
 15 20  2  0
 20 21  1  0
  3 22  2  0
 22 23  1  0
 22 24  1  0
 24 25  1  0
 24 26  1  0
 24 27  1  0
 27 28  1  0
 27 29  1  0
 27 30  1  0
 30 31  1  0
 31 32  2  0
 32 33  1  0
 32 34  1  0
 34 35  1  0
 34 36  2  0
 36 37  1  0
 36 38  1  0
 38 39  1  0
 38 40  2  0
 40 41  1  0
 20  8  1  0
 40 31  1  0
M  CHG  1   4  -1
M  END
>  <UniqueID>  (5) 
17

>  <SMILES>  (5) 
O/C(=C/CCOc1ccc(Cl)cc1Cl)[N-]/N=C\c1cccc(C(F)(F)F)c1

>  <Energy>  (5) 
35.54338924362351

>  <Genealogy>  (5) 
O=C(CCCOc1ccc(Cl)cc1Cl)[N-]N=Cc1cccc(C(F)(F)F)c1 (protonated)
OC(=CCCOc1ccc(Cl)cc1Cl)[N-]N=Cc1cccc(C(F)(F)F)c1 (tautomer)
O/C(=C/CCOc1ccc(Cl)cc1Cl)[N-]/N=C\c1cccc(C(F)(F)F)c1 (cis-trans isomerization)
O/C(=C/CCOc1ccc(Cl)cc1Cl)[N-]/N=C\c1cccc(C(F)(F)F)c1 (3D coordinates assigned)
O/C(=C/CCOc1ccc(Cl)cc1Cl)[N-]/N=C\c1cccc(C(F)(F)F)c1 (optimized conformer: 35.54338924362351 kcal/mol)

>  <smiles>  (5) 
O=C(CCCOc1ccc(Cl)cc1Cl)NN=Cc1cccc(C(F)(F)F)c1

>  <score_type>  (5) 
oracle

>  <origin>  (5) 
autodockgpu

>  <m_score__min__energy>  (5) 
-6.9199999999999999

>  <m_primary>  (5) 
energy

>  <meeko>  (5) 
{"free_energy": -5.07, "intermolecular_energy": -8.35, "internal_energy": -1.78, "cluster_size": 3, "cluster_id": 5, "rank_in_cluster": 3}

>  <energy>  (5) 
-6.66

>  <cluster_rmsd>  (5) 
0.0

>  <rmsd>  (5) 
271.89

>  <cluster>  (5) 
2

$$$$
JBHRSOAXAGIKHA-SRRPOTTFNA-N
     RDKit          3D

 41 42  0  0  0  0  0  0  0  0999 V2000
  138.4750   72.9750  223.4180 H   0  0  0  0  0  0  0  0  0  0  0  0
  139.0090   72.1750  223.1040 O   0  0  0  0  0  0  0  0  0  0  0  0
  140.0070   72.2890  222.1360 C   0  0  0  0  0  0  0  0  0  0  0  0
  140.7380   73.5100  221.9890 N   0  0  0  0  0  0  0  0  0  0  0  0
  140.1100   74.7530  222.1390 N   0  0  0  0  0  0  0  0  0  0  0  0
  140.6190   75.8750  221.7240 C   0  0  0  0  0  0  0  0  0  0  0  0
  141.2927   75.8385  220.8552 H   0  0  0  0  0  0  0  0  0  0  0  0
  140.3580   77.2010  222.3360 C   0  0  0  0  0  0  0  0  0  0  0  0
  139.0690   77.6200  222.7120 C   0  0  0  0  0  0  0  0  0  0  0  0
  138.2184   76.9295  222.6135 H   0  0  0  0  0  0  0  0  0  0  0  0
  138.8640   78.9090  223.2100 C   0  0  0  0  0  0  0  0  0  0  0  0
  137.8566   79.2203  223.5235 H   0  0  0  0  0  0  0  0  0  0  0  0
  139.9300   79.8040  223.3120 C   0  0  0  0  0  0  0  0  0  0  0  0
  139.7574   80.8206  223.6951 H   0  0  0  0  0  0  0  0  0  0  0  0
  141.2230   79.4110  222.9270 C   0  0  0  0  0  0  0  0  0  0  0  0
  142.3860   80.3720  222.9710 C   0  0  0  0  0  0  0  0  0  0  0  0
  142.2230   81.3470  222.0030 F   0  0  0  0  0  0  0  0  0  0  0  0
  143.5890   79.7260  222.7460 F   0  0  0  0  0  0  0  0  0  0  0  0
  142.4320   80.9750  224.2150 F   0  0  0  0  0  0  0  0  0  0  0  0
  141.4230   78.1120  222.4300 C   0  0  0  0  0  0  0  0  0  0  0  0
  142.4291   77.8038  222.1096 H   0  0  0  0  0  0  0  0  0  0  0  0
  140.2760   71.2320  221.3640 C   0  0  0  0  0  0  0  0  0  0  0  0
  139.8133   70.2684  221.6235 H   0  0  0  0  0  0  0  0  0  0  0  0
  141.1760   71.2860  220.1600 C   0  0  0  0  0  0  0  0  0  0  0  0
  141.1071   70.3326  219.6157 H   0  0  0  0  0  0  0  0  0  0  0  0
  140.8544   72.1190  219.5176 H   0  0  0  0  0  0  0  0  0  0  0  0
  142.6310   71.5220  220.5760 C   0  0  0  0  0  0  0  0  0  0  0  0
  142.6481   72.0352  221.5488 H   0  0  0  0  0  0  0  0  0  0  0  0
  143.1378   70.5481  220.6446 H   0  0  0  0  0  0  0  0  0  0  0  0
  143.3160   72.3240  219.6130 O   0  0  0  0  0  0  0  0  0  0  0  0
  143.0690   73.6860  219.3640 C   0  0  0  0  0  0  0  0  0  0  0  0
  141.9520   74.1290  218.6280 C   0  0  0  0  0  0  0  0  0  0  0  0
  141.2705   73.3955  218.1726 H   0  0  0  0  0  0  0  0  0  0  0  0
  141.7060   75.4970  218.4740 C   0  0  0  0  0  0  0  0  0  0  0  0
  140.8276   75.8357  217.9050 H   0  0  0  0  0  0  0  0  0  0  0  0
  142.5730   76.4350  219.0410 C   0  0  0  0  0  0  0  0  0  0  0  0
  142.2380   78.1480  218.8790 Cl  0  0  0  0  0  0  0  0  0  0  0  0
  143.7070   76.0040  219.7350 C   0  0  0  0  0  0  0  0  0  0  0  0
  144.4037   76.7421  220.1592 H   0  0  0  0  0  0  0  0  0  0  0  0
  143.9590   74.6360  219.8920 C   0  0  0  0  0  0  0  0  0  0  0  0
  145.3910   74.1230  220.7710 Cl  0  0  0  0  0  0  0  0  0  0  0  0
  1  2  1  0
  2  3  1  0
  3  4  1  0
  4  5  1  0
  5  6  2  0
  6  7  1  0
  6  8  1  0
  8  9  2  0
  9 10  1  0
  9 11  1  0
 11 12  1  0
 11 13  2  0
 13 14  1  0
 13 15  1  0
 15 16  1  0
 16 17  1  0
 16 18  1  0
 16 19  1  0
 15 20  2  0
 20 21  1  0
  3 22  2  0
 22 23  1  0
 22 24  1  0
 24 25  1  0
 24 26  1  0
 24 27  1  0
 27 28  1  0
 27 29  1  0
 27 30  1  0
 30 31  1  0
 31 32  2  0
 32 33  1  0
 32 34  1  0
 34 35  1  0
 34 36  2  0
 36 37  1  0
 36 38  1  0
 38 39  1  0
 38 40  2  0
 40 41  1  0
 20  8  1  0
 40 31  1  0
M  CHG  1   4  -1
M  END
>  <UniqueID>  (6) 
17

>  <SMILES>  (6) 
O/C(=C/CCOc1ccc(Cl)cc1Cl)[N-]/N=C\c1cccc(C(F)(F)F)c1

>  <Energy>  (6) 
35.54338924362351

>  <Genealogy>  (6) 
O=C(CCCOc1ccc(Cl)cc1Cl)[N-]N=Cc1cccc(C(F)(F)F)c1 (protonated)
OC(=CCCOc1ccc(Cl)cc1Cl)[N-]N=Cc1cccc(C(F)(F)F)c1 (tautomer)
O/C(=C/CCOc1ccc(Cl)cc1Cl)[N-]/N=C\c1cccc(C(F)(F)F)c1 (cis-trans isomerization)
O/C(=C/CCOc1ccc(Cl)cc1Cl)[N-]/N=C\c1cccc(C(F)(F)F)c1 (3D coordinates assigned)
O/C(=C/CCOc1ccc(Cl)cc1Cl)[N-]/N=C\c1cccc(C(F)(F)F)c1 (optimized conformer: 35.54338924362351 kcal/mol)

>  <smiles>  (6) 
O=C(CCCOc1ccc(Cl)cc1Cl)NN=Cc1cccc(C(F)(F)F)c1

>  <score_type>  (6) 
oracle

>  <origin>  (6) 
autodockgpu

>  <m_score__min__energy>  (6) 
-6.9199999999999999

>  <m_primary>  (6) 
energy

>  <meeko>  (6) 
{"free_energy": -5.17, "intermolecular_energy": -8.45, "internal_energy": -1.88, "cluster_size": 3, "cluster_id": 5, "rank_in_cluster": 2}

>  <energy>  (6) 
-6.46

>  <cluster_rmsd>  (6) 
0.96

>  <rmsd>  (6) 
271.81

>  <cluster>  (6) 
2

$$$$
JBHRSOAXAGIKHA-SRRPOTTFNA-N
     RDKit          3D

 41 42  0  0  0  0  0  0  0  0999 V2000
  142.2400   75.6620  221.5920 H   0  0  0  0  0  0  0  0  0  0  0  0
  142.1300   74.7600  221.1450 O   0  0  0  0  0  0  0  0  0  0  0  0
  141.1420   73.8590  221.5400 C   0  0  0  0  0  0  0  0  0  0  0  0
  139.8820   74.3310  222.0280 N   0  0  0  0  0  0  0  0  0  0  0  0
  139.7760   75.5610  222.6900 N   0  0  0  0  0  0  0  0  0  0  0  0
  139.3520   76.6520  222.1250 C   0  0  0  0  0  0  0  0  0  0  0  0
  138.8384   76.5582  221.1568 H   0  0  0  0  0  0  0  0  0  0  0  0
  139.5100   78.0140  222.6900 C   0  0  0  0  0  0  0  0  0  0  0  0
  138.4120   78.8030  223.0810 C   0  0  0  0  0  0  0  0  0  0  0  0
  137.3944   78.3883  223.0314 H   0  0  0  0  0  0  0  0  0  0  0  0
  138.6090   80.1110  223.5320 C   0  0  0  0  0  0  0  0  0  0  0  0
  137.7476   80.7128  223.8573 H   0  0  0  0  0  0  0  0  0  0  0  0
  139.8920   80.6580  223.5720 C   0  0  0  0  0  0  0  0  0  0  0  0
  140.0362   81.6919  223.9187 H   0  0  0  0  0  0  0  0  0  0  0  0
  141.0010   79.8930  223.1710 C   0  0  0  0  0  0  0  0  0  0  0  0
  142.3940   80.4730  223.1480 C   0  0  0  0  0  0  0  0  0  0  0  0
  142.6030   81.2280  224.2870 F   0  0  0  0  0  0  0  0  0  0  0  0
  142.5910   81.2810  222.0410 F   0  0  0  0  0  0  0  0  0  0  0  0
  143.3160   79.4420  223.1140 F   0  0  0  0  0  0  0  0  0  0  0  0
  140.7960   78.5770  222.7210 C   0  0  0  0  0  0  0  0  0  0  0  0
  141.6568   77.9787  222.3878 H   0  0  0  0  0  0  0  0  0  0  0  0
  141.3890   72.5500  221.4370 C   0  0  0  0  0  0  0  0  0  0  0  0
  141.9195   72.1909  220.5428 H   0  0  0  0  0  0  0  0  0  0  0  0
  140.9830   71.5400  222.4740 C   0  0  0  0  0  0  0  0  0  0  0  0
  141.4116   70.5616  222.2112 H   0  0  0  0  0  0  0  0  0  0  0  0
  141.3567   71.8723  223.4537 H   0  0  0  0  0  0  0  0  0  0  0  0
  139.4580   71.4160  222.5480 C   0  0  0  0  0  0  0  0  0  0  0  0
  139.0024   72.2342  221.9710 H   0  0  0  0  0  0  0  0  0  0  0  0
  139.1658   70.4406  222.1318 H   0  0  0  0  0  0  0  0  0  0  0  0
  139.0020   71.4880  223.9000 O   0  0  0  0  0  0  0  0  0  0  0  0
  139.5610   70.7900  224.9860 C   0  0  0  0  0  0  0  0  0  0  0  0
  140.3310   71.4280  225.9800 C   0  0  0  0  0  0  0  0  0  0  0  0
  140.5659   72.4987  225.8876 H   0  0  0  0  0  0  0  0  0  0  0  0
  140.7970   70.7060  227.0820 C   0  0  0  0  0  0  0  0  0  0  0  0
  141.3904   71.2122  227.8577 H   0  0  0  0  0  0  0  0  0  0  0  0
  140.5120   69.3440  227.2020 C   0  0  0  0  0  0  0  0  0  0  0  0
  141.0660   68.4530  228.6060 Cl  0  0  0  0  0  0  0  0  0  0  0  0
  139.7860   68.6940  226.2000 C   0  0  0  0  0  0  0  0  0  0  0  0
  139.5826   67.6160  226.2815 H   0  0  0  0  0  0  0  0  0  0  0  0
  139.3170   69.4110  225.0930 C   0  0  0  0  0  0  0  0  0  0  0  0
  138.4050   68.5690  223.8500 Cl  0  0  0  0  0  0  0  0  0  0  0  0
  1  2  1  0
  2  3  1  0
  3  4  1  0
  4  5  1  0
  5  6  2  0
  6  7  1  0
  6  8  1  0
  8  9  2  0
  9 10  1  0
  9 11  1  0
 11 12  1  0
 11 13  2  0
 13 14  1  0
 13 15  1  0
 15 16  1  0
 16 17  1  0
 16 18  1  0
 16 19  1  0
 15 20  2  0
 20 21  1  0
  3 22  2  0
 22 23  1  0
 22 24  1  0
 24 25  1  0
 24 26  1  0
 24 27  1  0
 27 28  1  0
 27 29  1  0
 27 30  1  0
 30 31  1  0
 31 32  2  0
 32 33  1  0
 32 34  1  0
 34 35  1  0
 34 36  2  0
 36 37  1  0
 36 38  1  0
 38 39  1  0
 38 40  2  0
 40 41  1  0
 20  8  1  0
 40 31  1  0
M  CHG  1   4  -1
M  END
>  <UniqueID>  (7) 
17

>  <SMILES>  (7) 
O/C(=C/CCOc1ccc(Cl)cc1Cl)[N-]/N=C\c1cccc(C(F)(F)F)c1

>  <Energy>  (7) 
35.54338924362351

>  <Genealogy>  (7) 
O=C(CCCOc1ccc(Cl)cc1Cl)[N-]N=Cc1cccc(C(F)(F)F)c1 (protonated)
OC(=CCCOc1ccc(Cl)cc1Cl)[N-]N=Cc1cccc(C(F)(F)F)c1 (tautomer)
O/C(=C/CCOc1ccc(Cl)cc1Cl)[N-]/N=C\c1cccc(C(F)(F)F)c1 (cis-trans isomerization)
O/C(=C/CCOc1ccc(Cl)cc1Cl)[N-]/N=C\c1cccc(C(F)(F)F)c1 (3D coordinates assigned)
O/C(=C/CCOc1ccc(Cl)cc1Cl)[N-]/N=C\c1cccc(C(F)(F)F)c1 (optimized conformer: 35.54338924362351 kcal/mol)

>  <smiles>  (7) 
O=C(CCCOc1ccc(Cl)cc1Cl)NN=Cc1cccc(C(F)(F)F)c1

>  <score_type>  (7) 
oracle

>  <origin>  (7) 
autodockgpu

>  <m_score__min__energy>  (7) 
-6.9199999999999999

>  <m_primary>  (7) 
energy

>  <meeko>  (7) 
{"free_energy": -6.5, "intermolecular_energy": -9.78, "internal_energy": -0.77, "cluster_size": 3, "cluster_id": 4, "rank_in_cluster": 1}

>  <energy>  (7) 
-5.85

>  <cluster_rmsd>  (7) 
0.95

>  <rmsd>  (7) 
271.55

>  <cluster>  (7) 
2

$$$$
JBHRSOAXAGIKHA-SRRPOTTFNA-N
     RDKit          3D

 41 42  0  0  0  0  0  0  0  0999 V2000
  139.4230   71.8920  220.4690 H   0  0  0  0  0  0  0  0  0  0  0  0
  138.8340   72.7050  220.5940 O   0  0  0  0  0  0  0  0  0  0  0  0
  137.9550   74.4020  221.9590 C   0  0  0  0  0  0  0  0  0  0  0  0
  140.0440   73.4020  222.6100 N   0  0  0  0  0  0  0  0  0  0  0  0
  140.6180   72.1570  222.8990 N   0  0  0  0  0  0  0  0  0  0  0  0
  138.9240   73.5130  221.7260 C   0  0  0  0  0  0  0  0  0  0  0  0
  137.5740   74.4968  222.9866 H   0  0  0  0  0  0  0  0  0  0  0  0
  140.3070   70.9530  225.0300 C   0  0  0  0  0  0  0  0  0  0  0  0
  140.7500   71.9440  225.9250 C   0  0  0  0  0  0  0  0  0  0  0  0
  140.8411   72.9865  225.5861 H   0  0  0  0  0  0  0  0  0  0  0  0
  141.0750   71.6100  227.2430 C   0  0  0  0  0  0  0  0  0  0  0  0
  141.3980   72.3952  227.9424 H   0  0  0  0  0  0  0  0  0  0  0  0
  140.9920   70.2870  227.6760 C   0  0  0  0  0  0  0  0  0  0  0  0
  141.2595   70.0320  228.7121 H   0  0  0  0  0  0  0  0  0  0  0  0
  140.5680   69.2780  226.7940 C   0  0  0  0  0  0  0  0  0  0  0  0
  140.5220   67.8290  227.2140 C   0  0  0  0  0  0  0  0  0  0  0  0
  141.0480   67.6960  228.4870 F   0  0  0  0  0  0  0  0  0  0  0  0
  141.2470   67.0250  226.3520 F   0  0  0  0  0  0  0  0  0  0  0  0
  139.2080   67.3980  227.2230 F   0  0  0  0  0  0  0  0  0  0  0  0
  140.2390   69.6210  225.4710 C   0  0  0  0  0  0  0  0  0  0  0  0
  139.9234   68.8341  224.7702 H   0  0  0  0  0  0  0  0  0  0  0  0
  140.0290   71.2350  223.6010 C   0  0  0  0  0  0  0  0  0  0  0  0
  139.2689   70.6190  223.0983 H   0  0  0  0  0  0  0  0  0  0  0  0
  137.3550   75.2810  220.8960 C   0  0  0  0  0  0  0  0  0  0  0  0
  137.6840   74.9272  219.9078 H   0  0  0  0  0  0  0  0  0  0  0  0
  136.2590   75.2317  220.9757 H   0  0  0  0  0  0  0  0  0  0  0  0
  137.7950   76.7370  221.0800 C   0  0  0  0  0  0  0  0  0  0  0  0
  138.5312   76.9910  220.3032 H   0  0  0  0  0  0  0  0  0  0  0  0
  136.9088   77.3834  220.9980 H   0  0  0  0  0  0  0  0  0  0  0  0
  138.3850   76.9360  222.3650 O   0  0  0  0  0  0  0  0  0  0  0  0
  139.3650   77.8970  222.6720 C   0  0  0  0  0  0  0  0  0  0  0  0
  139.0710   79.0760  223.3860 C   0  0  0  0  0  0  0  0  0  0  0  0
  138.0319   79.2996  223.6694 H   0  0  0  0  0  0  0  0  0  0  0  0
  140.0940   79.9630  223.7360 C   0  0  0  0  0  0  0  0  0  0  0  0
  139.8579   80.8776  224.2997 H   0  0  0  0  0  0  0  0  0  0  0  0
  141.4140   79.6910  223.3720 C   0  0  0  0  0  0  0  0  0  0  0  0
  142.6980   80.7850  223.8470 Cl  0  0  0  0  0  0  0  0  0  0  0  0
  141.7090   78.5460  222.6260 C   0  0  0  0  0  0  0  0  0  0  0  0
  142.7452   78.3450  222.3165 H   0  0  0  0  0  0  0  0  0  0  0  0
  140.6900   77.6550  222.2720 C   0  0  0  0  0  0  0  0  0  0  0  0
  141.0890   76.2220  221.3360 Cl  0  0  0  0  0  0  0  0  0  0  0  0
  1  2  1  0
  2  3  1  0
  3  4  1  0
  4  5  1  0
  5  6  2  0
  6  7  1  0
  6  8  1  0
  8  9  2  0
  9 10  1  0
  9 11  1  0
 11 12  1  0
 11 13  2  0
 13 14  1  0
 13 15  1  0
 15 16  1  0
 16 17  1  0
 16 18  1  0
 16 19  1  0
 15 20  2  0
 20 21  1  0
  3 22  2  0
 22 23  1  0
 22 24  1  0
 24 25  1  0
 24 26  1  0
 24 27  1  0
 27 28  1  0
 27 29  1  0
 27 30  1  0
 30 31  1  0
 31 32  2  0
 32 33  1  0
 32 34  1  0
 34 35  1  0
 34 36  2  0
 36 37  1  0
 36 38  1  0
 38 39  1  0
 38 40  2  0
 40 41  1  0
 20  8  1  0
 40 31  1  0
M  CHG  1   4  -1
M  END
>  <UniqueID>  (8) 
17

>  <SMILES>  (8) 
O/C(=C/CCOc1ccc(Cl)cc1Cl)[N-]/N=C\c1cccc(C(F)(F)F)c1

>  <Energy>  (8) 
35.54338924362351

>  <Genealogy>  (8) 
O=C(CCCOc1ccc(Cl)cc1Cl)[N-]N=Cc1cccc(C(F)(F)F)c1 (protonated)
OC(=CCCOc1ccc(Cl)cc1Cl)[N-]N=Cc1cccc(C(F)(F)F)c1 (tautomer)
O/C(=C/CCOc1ccc(Cl)cc1Cl)[N-]/N=C\c1cccc(C(F)(F)F)c1 (cis-trans isomerization)
O/C(=C/CCOc1ccc(Cl)cc1Cl)[N-]/N=C\c1cccc(C(F)(F)F)c1 (3D coordinates assigned)
O/C(=C/CCOc1ccc(Cl)cc1Cl)[N-]/N=C\c1cccc(C(F)(F)F)c1 (optimized conformer: 35.54338924362351 kcal/mol)

>  <smiles>  (8) 
O=C(CCCOc1ccc(Cl)cc1Cl)NN=Cc1cccc(C(F)(F)F)c1

>  <score_type>  (8) 
oracle

>  <origin>  (8) 
autodockgpu

>  <m_score__min__energy>  (8) 
-6.9199999999999999

>  <m_primary>  (8) 
energy

>  <meeko>  (8) 
{"free_energy": -6.05, "intermolecular_energy": -9.33, "internal_energy": -0.82, "cluster_size": 4, "cluster_id": 1, "rank_in_cluster": 4}

>  <energy>  (8) 
-5.49

>  <cluster_rmsd>  (8) 
1.25

>  <rmsd>  (8) 
271.86

>  <cluster>  (8) 
2

$$$$
JBHRSOAXAGIKHA-SRRPOTTFNA-N
     RDKit          3D

 41 42  0  0  0  0  0  0  0  0999 V2000
  142.0560   76.3750  222.2310 H   0  0  0  0  0  0  0  0  0  0  0  0
  141.0710   76.1820  222.3650 O   0  0  0  0  0  0  0  0  0  0  0  0
  140.4330   75.1270  221.7150 C   0  0  0  0  0  0  0  0  0  0  0  0
  140.8280   73.7750  221.9660 N   0  0  0  0  0  0  0  0  0  0  0  0
  140.0540   72.9310  222.7740 N   0  0  0  0  0  0  0  0  0  0  0  0
  140.3130   71.6710  222.9600 C   0  0  0  0  0  0  0  0  0  0  0  0
  140.6303   71.0815  222.0872 H   0  0  0  0  0  0  0  0  0  0  0  0
  140.2120   70.9700  224.2630 C   0  0  0  0  0  0  0  0  0  0  0  0
  139.5680   69.7270  224.4060 C   0  0  0  0  0  0  0  0  0  0  0  0
  139.1721   69.2105  223.5191 H   0  0  0  0  0  0  0  0  0  0  0  0
  139.4290   69.1460  225.6680 C   0  0  0  0  0  0  0  0  0  0  0  0
  138.9447   68.1633  225.7674 H   0  0  0  0  0  0  0  0  0  0  0  0
  139.9010   69.8050  226.8040 C   0  0  0  0  0  0  0  0  0  0  0  0
  139.7780   69.3446  227.7954 H   0  0  0  0  0  0  0  0  0  0  0  0
  140.5330   71.0550  226.6860 C   0  0  0  0  0  0  0  0  0  0  0  0
  141.0030   71.8190  227.8990 C   0  0  0  0  0  0  0  0  0  0  0  0
  141.7780   70.9970  228.6970 F   0  0  0  0  0  0  0  0  0  0  0  0
  139.9390   72.2860  228.6520 F   0  0  0  0  0  0  0  0  0  0  0  0
  141.7650   72.8990  227.4910 F   0  0  0  0  0  0  0  0  0  0  0  0
  140.6730   71.6320  225.4130 C   0  0  0  0  0  0  0  0  0  0  0  0
  141.1512   72.6178  225.3151 H   0  0  0  0  0  0  0  0  0  0  0  0
  139.4360   75.4030  220.8690 C   0  0  0  0  0  0  0  0  0  0  0  0
  138.4259   75.5368  221.2834 H   0  0  0  0  0  0  0  0  0  0  0  0
  139.6170   75.5410  219.3820 C   0  0  0  0  0  0  0  0  0  0  0  0
  138.6710   75.8786  218.9334 H   0  0  0  0  0  0  0  0  0  0  0  0
  140.4147   76.2738  219.1906 H   0  0  0  0  0  0  0  0  0  0  0  0
  140.0200   74.2020  218.7560 C   0  0  0  0  0  0  0  0  0  0  0  0
  139.8847   73.4024  219.4991 H   0  0  0  0  0  0  0  0  0  0  0  0
  139.3854   74.0218  217.8757 H   0  0  0  0  0  0  0  0  0  0  0  0
  141.3850   74.2230  218.3360 O   0  0  0  0  0  0  0  0  0  0  0  0
  142.4970   73.9990  219.1670 C   0  0  0  0  0  0  0  0  0  0  0  0
  142.8290   72.7200  219.6580 C   0  0  0  0  0  0  0  0  0  0  0  0
  142.1725   71.8638  219.4438 H   0  0  0  0  0  0  0  0  0  0  0  0
  143.9890   72.5350  220.4160 C   0  0  0  0  0  0  0  0  0  0  0  0
  144.2455   71.5328  220.7899 H   0  0  0  0  0  0  0  0  0  0  0  0
  144.8230   73.6180  220.7000 C   0  0  0  0  0  0  0  0  0  0  0  0
  146.2970   73.3730  221.6170 Cl  0  0  0  0  0  0  0  0  0  0  0  0
  144.4790   74.8980  220.2540 C   0  0  0  0  0  0  0  0  0  0  0  0
  145.1221   75.7559  220.4998 H   0  0  0  0  0  0  0  0  0  0  0  0
  143.3190   75.0900  219.4960 C   0  0  0  0  0  0  0  0  0  0  0  0
  142.9120   76.7090  218.9460 Cl  0  0  0  0  0  0  0  0  0  0  0  0
  1  2  1  0
  2  3  1  0
  3  4  1  0
  4  5  1  0
  5  6  2  0
  6  7  1  0
  6  8  1  0
  8  9  2  0
  9 10  1  0
  9 11  1  0
 11 12  1  0
 11 13  2  0
 13 14  1  0
 13 15  1  0
 15 16  1  0
 16 17  1  0
 16 18  1  0
 16 19  1  0
 15 20  2  0
 20 21  1  0
  3 22  2  0
 22 23  1  0
 22 24  1  0
 24 25  1  0
 24 26  1  0
 24 27  1  0
 27 28  1  0
 27 29  1  0
 27 30  1  0
 30 31  1  0
 31 32  2  0
 32 33  1  0
 32 34  1  0
 34 35  1  0
 34 36  2  0
 36 37  1  0
 36 38  1  0
 38 39  1  0
 38 40  2  0
 40 41  1  0
 20  8  1  0
 40 31  1  0
M  CHG  1   4  -1
M  END
>  <UniqueID>  (9) 
17

>  <SMILES>  (9) 
O/C(=C/CCOc1ccc(Cl)cc1Cl)[N-]/N=C\c1cccc(C(F)(F)F)c1

>  <Energy>  (9) 
35.54338924362351

>  <Genealogy>  (9) 
O=C(CCCOc1ccc(Cl)cc1Cl)[N-]N=Cc1cccc(C(F)(F)F)c1 (protonated)
OC(=CCCOc1ccc(Cl)cc1Cl)[N-]N=Cc1cccc(C(F)(F)F)c1 (tautomer)
O/C(=C/CCOc1ccc(Cl)cc1Cl)[N-]/N=C\c1cccc(C(F)(F)F)c1 (cis-trans isomerization)
O/C(=C/CCOc1ccc(Cl)cc1Cl)[N-]/N=C\c1cccc(C(F)(F)F)c1 (3D coordinates assigned)
O/C(=C/CCOc1ccc(Cl)cc1Cl)[N-]/N=C\c1cccc(C(F)(F)F)c1 (optimized conformer: 35.54338924362351 kcal/mol)

>  <smiles>  (9) 
O=C(CCCOc1ccc(Cl)cc1Cl)NN=Cc1cccc(C(F)(F)F)c1

>  <score_type>  (9) 
oracle

>  <origin>  (9) 
autodockgpu

>  <m_score__min__energy>  (9) 
-6.9199999999999999

>  <m_primary>  (9) 
energy

>  <meeko>  (9) 
{"free_energy": -6.46, "intermolecular_energy": -9.74, "internal_energy": -1.36, "cluster_size": 4, "cluster_id": 2, "rank_in_cluster": 2}

>  <energy>  (9) 
-6.63

>  <cluster_rmsd>  (9) 
0.0

>  <rmsd>  (9) 
272.41

>  <cluster>  (9) 
3

$$$$
JBHRSOAXAGIKHA-SRRPOTTFNA-N
     RDKit          3D

 41 42  0  0  0  0  0  0  0  0999 V2000
  141.7610   71.2110  221.6740 H   0  0  0  0  0  0  0  0  0  0  0  0
  142.2130   71.9010  221.0880 O   0  0  0  0  0  0  0  0  0  0  0  0
  141.8450   73.2450  221.1160 C   0  0  0  0  0  0  0  0  0  0  0  0
  140.6720   73.6610  221.8220 N   0  0  0  0  0  0  0  0  0  0  0  0
  140.2630   73.0130  222.9950 N   0  0  0  0  0  0  0  0  0  0  0  0
  139.9690   71.7480  223.0560 C   0  0  0  0  0  0  0  0  0  0  0  0
  139.6296   71.2582  222.1314 H   0  0  0  0  0  0  0  0  0  0  0  0
  140.0580   70.9170  224.2820 C   0  0  0  0  0  0  0  0  0  0  0  0
  139.5720   69.5980  224.3390 C   0  0  0  0  0  0  0  0  0  0  0  0
  139.1626   69.1258  223.4338 H   0  0  0  0  0  0  0  0  0  0  0  0
  139.6070   68.8850  225.5400 C   0  0  0  0  0  0  0  0  0  0  0  0
  139.2469   67.8460  225.5697 H   0  0  0  0  0  0  0  0  0  0  0  0
  140.0960   69.4830  226.7020 C   0  0  0  0  0  0  0  0  0  0  0  0
  140.1099   68.9175  227.6454 H   0  0  0  0  0  0  0  0  0  0  0  0
  140.5710   70.8060  226.6710 C   0  0  0  0  0  0  0  0  0  0  0  0
  141.0530   71.5010  227.9200 C   0  0  0  0  0  0  0  0  0  0  0  0
  141.8150   72.6040  227.5770 F   0  0  0  0  0  0  0  0  0  0  0  0
  141.8250   70.6610  228.7050 F   0  0  0  0  0  0  0  0  0  0  0  0
  139.9620   71.9200  228.6590 F   0  0  0  0  0  0  0  0  0  0  0  0
  140.5370   71.5160  225.4590 C   0  0  0  0  0  0  0  0  0  0  0  0
  140.8910   72.5571  225.4313 H   0  0  0  0  0  0  0  0  0  0  0  0
  142.6170   74.1360  220.4870 C   0  0  0  0  0  0  0  0  0  0  0  0
  143.5355   73.7753  220.0010 H   0  0  0  0  0  0  0  0  0  0  0  0
  142.3010   75.6040  220.4060 C   0  0  0  0  0  0  0  0  0  0  0  0
  142.2627   76.0209  221.4232 H   0  0  0  0  0  0  0  0  0  0  0  0
  143.0859   76.1007  219.8168 H   0  0  0  0  0  0  0  0  0  0  0  0
  140.9520   75.8350  219.7180 C   0  0  0  0  0  0  0  0  0  0  0  0
  141.1237   76.0474  218.6524 H   0  0  0  0  0  0  0  0  0  0  0  0
  140.3389   74.9296  219.8374 H   0  0  0  0  0  0  0  0  0  0  0  0
  140.2570   76.9350  220.3070 O   0  0  0  0  0  0  0  0  0  0  0  0
  140.8190   77.8760  221.1880 C   0  0  0  0  0  0  0  0  0  0  0  0
  140.7610   77.7300  222.5890 C   0  0  0  0  0  0  0  0  0  0  0  0
  140.2073   76.8877  223.0293 H   0  0  0  0  0  0  0  0  0  0  0  0
  141.4040   78.6510  223.4210 C   0  0  0  0  0  0  0  0  0  0  0  0
  141.3610   78.5265  224.5131 H   0  0  0  0  0  0  0  0  0  0  0  0
  142.1010   79.7290  222.8700 C   0  0  0  0  0  0  0  0  0  0  0  0
  142.9390   80.8580  223.9170 Cl  0  0  0  0  0  0  0  0  0  0  0  0
  142.1280   79.9050  221.4840 C   0  0  0  0  0  0  0  0  0  0  0  0
  142.6555   80.7677  221.0510 H   0  0  0  0  0  0  0  0  0  0  0  0
  141.4860   78.9870  220.6450 C   0  0  0  0  0  0  0  0  0  0  0  0
  141.5370   79.2320  218.9060 Cl  0  0  0  0  0  0  0  0  0  0  0  0
  1  2  1  0
  2  3  1  0
  3  4  1  0
  4  5  1  0
  5  6  2  0
  6  7  1  0
  6  8  1  0
  8  9  2  0
  9 10  1  0
  9 11  1  0
 11 12  1  0
 11 13  2  0
 13 14  1  0
 13 15  1  0
 15 16  1  0
 16 17  1  0
 16 18  1  0
 16 19  1  0
 15 20  2  0
 20 21  1  0
  3 22  2  0
 22 23  1  0
 22 24  1  0
 24 25  1  0
 24 26  1  0
 24 27  1  0
 27 28  1  0
 27 29  1  0
 27 30  1  0
 30 31  1  0
 31 32  2  0
 32 33  1  0
 32 34  1  0
 34 35  1  0
 34 36  2  0
 36 37  1  0
 36 38  1  0
 38 39  1  0
 38 40  2  0
 40 41  1  0
 20  8  1  0
 40 31  1  0
M  CHG  1   4  -1
M  END
>  <UniqueID>  (10) 
17

>  <SMILES>  (10) 
O/C(=C/CCOc1ccc(Cl)cc1Cl)[N-]/N=C\c1cccc(C(F)(F)F)c1

>  <Energy>  (10) 
35.54338924362351

>  <Genealogy>  (10) 
O=C(CCCOc1ccc(Cl)cc1Cl)[N-]N=Cc1cccc(C(F)(F)F)c1 (protonated)
OC(=CCCOc1ccc(Cl)cc1Cl)[N-]N=Cc1cccc(C(F)(F)F)c1 (tautomer)
O/C(=C/CCOc1ccc(Cl)cc1Cl)[N-]/N=C\c1cccc(C(F)(F)F)c1 (cis-trans isomerization)
O/C(=C/CCOc1ccc(Cl)cc1Cl)[N-]/N=C\c1cccc(C(F)(F)F)c1 (3D coordinates assigned)
O/C(=C/CCOc1ccc(Cl)cc1Cl)[N-]/N=C\c1cccc(C(F)(F)F)c1 (optimized conformer: 35.54338924362351 kcal/mol)

>  <smiles>  (10) 
O=C(CCCOc1ccc(Cl)cc1Cl)NN=Cc1cccc(C(F)(F)F)c1

>  <score_type>  (10) 
oracle

>  <origin>  (10) 
autodockgpu

>  <m_score__min__energy>  (10) 
-6.9199999999999999

>  <m_primary>  (10) 
energy

>  <meeko>  (10) 
{"free_energy": -6.16, "intermolecular_energy": -9.44, "internal_energy": -0.85, "cluster_size": 5, "cluster_id": 3, "rank_in_cluster": 3}

>  <energy>  (10) 
-6.39

>  <cluster_rmsd>  (10) 
0.79

>  <rmsd>  (10) 
272.43

>  <cluster>  (10) 
3

$$$$
JBHRSOAXAGIKHA-SRRPOTTFNA-N
     RDKit          3D

 41 42  0  0  0  0  0  0  0  0999 V2000
  142.2500   75.8670  221.4840 H   0  0  0  0  0  0  0  0  0  0  0  0
  142.1830   74.9080  221.1700 O   0  0  0  0  0  0  0  0  0  0  0  0
  139.9780   74.3300  220.6020 C   0  0  0  0  0  0  0  0  0  0  0  0
  141.0030   73.1800  222.4510 N   0  0  0  0  0  0  0  0  0  0  0  0
  139.8040   72.5590  222.8250 N   0  0  0  0  0  0  0  0  0  0  0  0
  141.0400   74.1390  221.3890 C   0  0  0  0  0  0  0  0  0  0  0  0
  139.7633   73.5769  219.8295 H   0  0  0  0  0  0  0  0  0  0  0  0
  139.8190   70.6370  224.3730 C   0  0  0  0  0  0  0  0  0  0  0  0
  139.3280   69.3460  224.6380 C   0  0  0  0  0  0  0  0  0  0  0  0
  138.8829   68.7523  223.8260 H   0  0  0  0  0  0  0  0  0  0  0  0
  139.4030   68.8140  225.9280 C   0  0  0  0  0  0  0  0  0  0  0  0
  139.0366   67.7950  226.1215 H   0  0  0  0  0  0  0  0  0  0  0  0
  139.9400   69.5680  226.9720 C   0  0  0  0  0  0  0  0  0  0  0  0
  139.9865   69.1448  227.9863 H   0  0  0  0  0  0  0  0  0  0  0  0
  140.4220   70.8670  226.7320 C   0  0  0  0  0  0  0  0  0  0  0  0
  140.9550   71.7300  227.8490 C   0  0  0  0  0  0  0  0  0  0  0  0
  141.7370   72.7430  227.3230 F   0  0  0  0  0  0  0  0  0  0  0  0
  141.7240   70.9970  228.7370 F   0  0  0  0  0  0  0  0  0  0  0  0
  139.8950   72.2900  228.5390 F   0  0  0  0  0  0  0  0  0  0  0  0
  140.3470   71.3940  225.4320 C   0  0  0  0  0  0  0  0  0  0  0  0
  140.7074   72.4155  225.2403 H   0  0  0  0  0  0  0  0  0  0  0  0
  139.6900   71.2830  223.0440 C   0  0  0  0  0  0  0  0  0  0  0  0
  139.4826   70.6343  222.1802 H   0  0  0  0  0  0  0  0  0  0  0  0
  139.0590   75.5150  220.7110 C   0  0  0  0  0  0  0  0  0  0  0  0
  138.0613   75.2321  220.3443 H   0  0  0  0  0  0  0  0  0  0  0  0
  139.0069   75.8240  221.7654 H   0  0  0  0  0  0  0  0  0  0  0  0
  139.5840   76.6910  219.8810 C   0  0  0  0  0  0  0  0  0  0  0  0
  139.5970   76.4041  218.8191 H   0  0  0  0  0  0  0  0  0  0  0  0
  138.9213   77.5545  220.0394 H   0  0  0  0  0  0  0  0  0  0  0  0
  140.9060   77.0530  220.2830 O   0  0  0  0  0  0  0  0  0  0  0  0
  141.2270   78.0460  221.2240 C   0  0  0  0  0  0  0  0  0  0  0  0
  141.0930   77.8440  222.6130 C   0  0  0  0  0  0  0  0  0  0  0  0
  140.6653   76.9035  222.9904 H   0  0  0  0  0  0  0  0  0  0  0  0
  141.5010   78.8330  223.5130 C   0  0  0  0  0  0  0  0  0  0  0  0
  141.4003   78.6647  224.5954 H   0  0  0  0  0  0  0  0  0  0  0  0
  142.0360   80.0340  223.0420 C   0  0  0  0  0  0  0  0  0  0  0  0
  142.5820   81.2550  224.1750 Cl  0  0  0  0  0  0  0  0  0  0  0  0
  142.1320   80.2610  221.6660 C   0  0  0  0  0  0  0  0  0  0  0  0
  142.5286   81.2173  221.2943 H   0  0  0  0  0  0  0  0  0  0  0  0
  141.7250   79.2750  220.7600 C   0  0  0  0  0  0  0  0  0  0  0  0
  141.8600   79.5860  219.0360 Cl  0  0  0  0  0  0  0  0  0  0  0  0
  1  2  1  0
  2  3  1  0
  3  4  1  0
  4  5  1  0
  5  6  2  0
  6  7  1  0
  6  8  1  0
  8  9  2  0
  9 10  1  0
  9 11  1  0
 11 12  1  0
 11 13  2  0
 13 14  1  0
 13 15  1  0
 15 16  1  0
 16 17  1  0
 16 18  1  0
 16 19  1  0
 15 20  2  0
 20 21  1  0
  3 22  2  0
 22 23  1  0
 22 24  1  0
 24 25  1  0
 24 26  1  0
 24 27  1  0
 27 28  1  0
 27 29  1  0
 27 30  1  0
 30 31  1  0
 31 32  2  0
 32 33  1  0
 32 34  1  0
 34 35  1  0
 34 36  2  0
 36 37  1  0
 36 38  1  0
 38 39  1  0
 38 40  2  0
 40 41  1  0
 20  8  1  0
 40 31  1  0
M  CHG  1   4  -1
M  END
>  <UniqueID>  (11) 
17

>  <SMILES>  (11) 
O/C(=C/CCOc1ccc(Cl)cc1Cl)[N-]/N=C\c1cccc(C(F)(F)F)c1

>  <Energy>  (11) 
35.54338924362351

>  <Genealogy>  (11) 
O=C(CCCOc1ccc(Cl)cc1Cl)[N-]N=Cc1cccc(C(F)(F)F)c1 (protonated)
OC(=CCCOc1ccc(Cl)cc1Cl)[N-]N=Cc1cccc(C(F)(F)F)c1 (tautomer)
O/C(=C/CCOc1ccc(Cl)cc1Cl)[N-]/N=C\c1cccc(C(F)(F)F)c1 (cis-trans isomerization)
O/C(=C/CCOc1ccc(Cl)cc1Cl)[N-]/N=C\c1cccc(C(F)(F)F)c1 (3D coordinates assigned)
O/C(=C/CCOc1ccc(Cl)cc1Cl)[N-]/N=C\c1cccc(C(F)(F)F)c1 (optimized conformer: 35.54338924362351 kcal/mol)

>  <smiles>  (11) 
O=C(CCCOc1ccc(Cl)cc1Cl)NN=Cc1cccc(C(F)(F)F)c1

>  <score_type>  (11) 
oracle

>  <origin>  (11) 
autodockgpu

>  <m_score__min__energy>  (11) 
-6.9199999999999999

>  <m_primary>  (11) 
energy

>  <meeko>  (11) 
{"free_energy": -6.39, "intermolecular_energy": -9.67, "internal_energy": -1.22, "cluster_size": 5, "cluster_id": 3, "rank_in_cluster": 2}

>  <energy>  (11) 
-6.16

>  <cluster_rmsd>  (11) 
1.54

>  <rmsd>  (11) 
272.39

>  <cluster>  (11) 
3

$$$$
JBHRSOAXAGIKHA-SRRPOTTFNA-N
     RDKit          3D

 41 42  0  0  0  0  0  0  0  0999 V2000
  137.9870   75.1840  222.9970 H   0  0  0  0  0  0  0  0  0  0  0  0
  138.1360   74.4370  222.3310 O   0  0  0  0  0  0  0  0  0  0  0  0
  139.7410   74.4970  220.6170 C   0  0  0  0  0  0  0  0  0  0  0  0
  140.3270   73.3870  222.6700 N   0  0  0  0  0  0  0  0  0  0  0  0
  139.9080   72.2800  223.4190 N   0  0  0  0  0  0  0  0  0  0  0  0
  139.4080   74.1200  221.8540 C   0  0  0  0  0  0  0  0  0  0  0  0
  139.9775   73.7137  219.8818 H   0  0  0  0  0  0  0  0  0  0  0  0
  140.7580   71.2100  225.4740 C   0  0  0  0  0  0  0  0  0  0  0  0
  141.0570   72.2210  226.4070 C   0  0  0  0  0  0  0  0  0  0  0  0
  141.2134   73.2542  226.0635 H   0  0  0  0  0  0  0  0  0  0  0  0
  141.1560   71.9180  227.7670 C   0  0  0  0  0  0  0  0  0  0  0  0
  141.3653   72.7185  228.4919 H   0  0  0  0  0  0  0  0  0  0  0  0
  140.9910   70.6060  228.2110 C   0  0  0  0  0  0  0  0  0  0  0  0
  141.0827   70.3748  229.2825 H   0  0  0  0  0  0  0  0  0  0  0  0
  140.7080   69.5780  227.2950 C   0  0  0  0  0  0  0  0  0  0  0  0
  140.5800   68.1400  227.7360 C   0  0  0  0  0  0  0  0  0  0  0  0
  141.2680   67.9520  228.9210 F   0  0  0  0  0  0  0  0  0  0  0  0
  141.0890   67.2690  226.7880 F   0  0  0  0  0  0  0  0  0  0  0  0
  139.2440   67.8430  227.9390 F   0  0  0  0  0  0  0  0  0  0  0  0
  140.6050   69.8900  225.9290 C   0  0  0  0  0  0  0  0  0  0  0  0
  140.4013   69.0878  225.2044 H   0  0  0  0  0  0  0  0  0  0  0  0
  140.7220   71.4590  224.0120 C   0  0  0  0  0  0  0  0  0  0  0  0
  141.4372   70.9079  223.3836 H   0  0  0  0  0  0  0  0  0  0  0  0
  139.8110   75.9320  220.1720 C   0  0  0  0  0  0  0  0  0  0  0  0
  140.7496   76.3764  220.5346 H   0  0  0  0  0  0  0  0  0  0  0  0
  139.7719   75.9622  219.0731 H   0  0  0  0  0  0  0  0  0  0  0  0
  138.6290   76.7330  220.7270 C   0  0  0  0  0  0  0  0  0  0  0  0
  138.5482   77.6823  220.1772 H   0  0  0  0  0  0  0  0  0  0  0  0
  137.7131   76.1364  220.6036 H   0  0  0  0  0  0  0  0  0  0  0  0
  138.8060   77.0120  222.1170 O   0  0  0  0  0  0  0  0  0  0  0  0
  139.7010   77.9550  222.6510 C   0  0  0  0  0  0  0  0  0  0  0  0
  141.0880   77.7190  222.7350 C   0  0  0  0  0  0  0  0  0  0  0  0
  141.4964   76.7430  222.4339 H   0  0  0  0  0  0  0  0  0  0  0  0
  141.9470   78.7190  223.1990 C   0  0  0  0  0  0  0  0  0  0  0  0
  143.0293   78.5303  223.2535 H   0  0  0  0  0  0  0  0  0  0  0  0
  141.4350   79.9580  223.5940 C   0  0  0  0  0  0  0  0  0  0  0  0
  142.5210   81.2220  224.1380 Cl  0  0  0  0  0  0  0  0  0  0  0  0
  140.0570   80.1860  223.5550 C   0  0  0  0  0  0  0  0  0  0  0  0
  139.6514   81.1524  223.8890 H   0  0  0  0  0  0  0  0  0  0  0  0
  139.1910   79.1880  223.0920 C   0  0  0  0  0  0  0  0  0  0  0  0
  137.4630   79.5020  223.0520 Cl  0  0  0  0  0  0  0  0  0  0  0  0
  1  2  1  0
  2  3  1  0
  3  4  1  0
  4  5  1  0
  5  6  2  0
  6  7  1  0
  6  8  1  0
  8  9  2  0
  9 10  1  0
  9 11  1  0
 11 12  1  0
 11 13  2  0
 13 14  1  0
 13 15  1  0
 15 16  1  0
 16 17  1  0
 16 18  1  0
 16 19  1  0
 15 20  2  0
 20 21  1  0
  3 22  2  0
 22 23  1  0
 22 24  1  0
 24 25  1  0
 24 26  1  0
 24 27  1  0
 27 28  1  0
 27 29  1  0
 27 30  1  0
 30 31  1  0
 31 32  2  0
 32 33  1  0
 32 34  1  0
 34 35  1  0
 34 36  2  0
 36 37  1  0
 36 38  1  0
 38 39  1  0
 38 40  2  0
 40 41  1  0
 20  8  1  0
 40 31  1  0
M  CHG  1   4  -1
M  END
>  <UniqueID>  (12) 
17

>  <SMILES>  (12) 
O/C(=C/CCOc1ccc(Cl)cc1Cl)[N-]/N=C\c1cccc(C(F)(F)F)c1

>  <Energy>  (12) 
35.54338924362351

>  <Genealogy>  (12) 
O=C(CCCOc1ccc(Cl)cc1Cl)[N-]N=Cc1cccc(C(F)(F)F)c1 (protonated)
OC(=CCCOc1ccc(Cl)cc1Cl)[N-]N=Cc1cccc(C(F)(F)F)c1 (tautomer)
O/C(=C/CCOc1ccc(Cl)cc1Cl)[N-]/N=C\c1cccc(C(F)(F)F)c1 (cis-trans isomerization)
O/C(=C/CCOc1ccc(Cl)cc1Cl)[N-]/N=C\c1cccc(C(F)(F)F)c1 (3D coordinates assigned)
O/C(=C/CCOc1ccc(Cl)cc1Cl)[N-]/N=C\c1cccc(C(F)(F)F)c1 (optimized conformer: 35.54338924362351 kcal/mol)

>  <smiles>  (12) 
O=C(CCCOc1ccc(Cl)cc1Cl)NN=Cc1cccc(C(F)(F)F)c1

>  <score_type>  (12) 
oracle

>  <origin>  (12) 
autodockgpu

>  <m_score__min__energy>  (12) 
-6.9199999999999999

>  <m_primary>  (12) 
energy

>  <meeko>  (12) 
{"free_energy": -6.53, "intermolecular_energy": -9.81, "internal_energy": -1.18, "cluster_size": 4, "cluster_id": 1, "rank_in_cluster": 2}

>  <energy>  (12) 
-6.15

>  <cluster_rmsd>  (12) 
1.66

>  <rmsd>  (12) 
272.51

>  <cluster>  (12) 
3

$$$$
JBHRSOAXAGIKHA-SRRPOTTFNA-N
     RDKit          3D

 41 42  0  0  0  0  0  0  0  0999 V2000
  141.4140   73.0530  220.2470 H   0  0  0  0  0  0  0  0  0  0  0  0
  141.2160   74.0430  220.1930 O   0  0  0  0  0  0  0  0  0  0  0  0
  140.3010   74.6590  221.0460 C   0  0  0  0  0  0  0  0  0  0  0  0
  140.0170   74.0990  222.3320 N   0  0  0  0  0  0  0  0  0  0  0  0
  139.7810   72.7270  222.4880 N   0  0  0  0  0  0  0  0  0  0  0  0
  140.6220   71.9070  223.0450 C   0  0  0  0  0  0  0  0  0  0  0  0
  141.6125   71.7983  222.5790 H   0  0  0  0  0  0  0  0  0  0  0  0
  140.3440   71.1070  224.2630 C   0  0  0  0  0  0  0  0  0  0  0  0
  139.5470   69.9480  224.2410 C   0  0  0  0  0  0  0  0  0  0  0  0
  139.1558   69.5707  223.2846 H   0  0  0  0  0  0  0  0  0  0  0  0
  139.2500   69.2740  225.4280 C   0  0  0  0  0  0  0  0  0  0  0  0
  138.6471   68.3544  225.3987 H   0  0  0  0  0  0  0  0  0  0  0  0
  139.7140   69.7610  226.6510 C   0  0  0  0  0  0  0  0  0  0  0  0
  139.4650   69.2308  227.5821 H   0  0  0  0  0  0  0  0  0  0  0  0
  140.4980   70.9260  226.6970 C   0  0  0  0  0  0  0  0  0  0  0  0
  140.9680   71.5100  228.0070 C   0  0  0  0  0  0  0  0  0  0  0  0
  139.8780   71.9340  228.7460 F   0  0  0  0  0  0  0  0  0  0  0  0
  141.8120   72.5890  227.8100 F   0  0  0  0  0  0  0  0  0  0  0  0
  141.6470   70.5400  228.7210 F   0  0  0  0  0  0  0  0  0  0  0  0
  140.7970   71.5970  225.4990 C   0  0  0  0  0  0  0  0  0  0  0  0
  141.3948   72.5199  225.5296 H   0  0  0  0  0  0  0  0  0  0  0  0
  139.7110   75.7890  220.6470 C   0  0  0  0  0  0  0  0  0  0  0  0
  140.3198   76.5298  220.1080 H   0  0  0  0  0  0  0  0  0  0  0  0
  138.2610   76.1060  220.8930 C   0  0  0  0  0  0  0  0  0  0  0  0
  137.9811   76.9926  220.3051 H   0  0  0  0  0  0  0  0  0  0  0  0
  137.6550   75.2389  220.5915 H   0  0  0  0  0  0  0  0  0  0  0  0
  138.0090   76.3880  222.3770 C   0  0  0  0  0  0  0  0  0  0  0  0
  136.9961   76.0492  222.6403 H   0  0  0  0  0  0  0  0  0  0  0  0
  138.7629   75.8479  222.9686 H   0  0  0  0  0  0  0  0  0  0  0  0
  138.1230   77.7830  222.6610 O   0  0  0  0  0  0  0  0  0  0  0  0
  139.3140   78.4520  222.9940 C   0  0  0  0  0  0  0  0  0  0  0  0
  140.5860   77.8760  222.7980 C   0  0  0  0  0  0  0  0  0  0  0  0
  140.6684   76.8431  222.4287 H   0  0  0  0  0  0  0  0  0  0  0  0
  141.7430   78.6120  223.0710 C   0  0  0  0  0  0  0  0  0  0  0  0
  142.7321   78.1591  222.9079 H   0  0  0  0  0  0  0  0  0  0  0  0
  141.6470   79.9200  223.5500 C   0  0  0  0  0  0  0  0  0  0  0  0
  143.1010   80.8510  223.8540 Cl  0  0  0  0  0  0  0  0  0  0  0  0
  140.3910   80.4840  223.7890 C   0  0  0  0  0  0  0  0  0  0  0  0
  140.3159   81.5054  224.1905 H   0  0  0  0  0  0  0  0  0  0  0  0
  139.2280   79.7530  223.5190 C   0  0  0  0  0  0  0  0  0  0  0  0
  137.6620   80.4870  223.8260 Cl  0  0  0  0  0  0  0  0  0  0  0  0
  1  2  1  0
  2  3  1  0
  3  4  1  0
  4  5  1  0
  5  6  2  0
  6  7  1  0
  6  8  1  0
  8  9  2  0
  9 10  1  0
  9 11  1  0
 11 12  1  0
 11 13  2  0
 13 14  1  0
 13 15  1  0
 15 16  1  0
 16 17  1  0
 16 18  1  0
 16 19  1  0
 15 20  2  0
 20 21  1  0
  3 22  2  0
 22 23  1  0
 22 24  1  0
 24 25  1  0
 24 26  1  0
 24 27  1  0
 27 28  1  0
 27 29  1  0
 27 30  1  0
 30 31  1  0
 31 32  2  0
 32 33  1  0
 32 34  1  0
 34 35  1  0
 34 36  2  0
 36 37  1  0
 36 38  1  0
 38 39  1  0
 38 40  2  0
 40 41  1  0
 20  8  1  0
 40 31  1  0
M  CHG  1   4  -1
M  END
>  <UniqueID>  (13) 
17

>  <SMILES>  (13) 
O/C(=C/CCOc1ccc(Cl)cc1Cl)[N-]/N=C\c1cccc(C(F)(F)F)c1

>  <Energy>  (13) 
35.54338924362351

>  <Genealogy>  (13) 
O=C(CCCOc1ccc(Cl)cc1Cl)[N-]N=Cc1cccc(C(F)(F)F)c1 (protonated)
OC(=CCCOc1ccc(Cl)cc1Cl)[N-]N=Cc1cccc(C(F)(F)F)c1 (tautomer)
O/C(=C/CCOc1ccc(Cl)cc1Cl)[N-]/N=C\c1cccc(C(F)(F)F)c1 (cis-trans isomerization)
O/C(=C/CCOc1ccc(Cl)cc1Cl)[N-]/N=C\c1cccc(C(F)(F)F)c1 (3D coordinates assigned)
O/C(=C/CCOc1ccc(Cl)cc1Cl)[N-]/N=C\c1cccc(C(F)(F)F)c1 (optimized conformer: 35.54338924362351 kcal/mol)

>  <smiles>  (13) 
O=C(CCCOc1ccc(Cl)cc1Cl)NN=Cc1cccc(C(F)(F)F)c1

>  <score_type>  (13) 
oracle

>  <origin>  (13) 
autodockgpu

>  <m_score__min__energy>  (13) 
-6.9199999999999999

>  <m_primary>  (13) 
energy

>  <meeko>  (13) 
{"free_energy": -6.15, "intermolecular_energy": -9.43, "internal_energy": -0.88, "cluster_size": 5, "cluster_id": 3, "rank_in_cluster": 4}

>  <energy>  (13) 
-6.13

>  <cluster_rmsd>  (13) 
1.24

>  <rmsd>  (13) 
272.39

>  <cluster>  (13) 
3

$$$$
JBHRSOAXAGIKHA-SRRPOTTFNA-N
     RDKit          3D

 41 42  0  0  0  0  0  0  0  0999 V2000
  141.8280   75.6770  222.3220 H   0  0  0  0  0  0  0  0  0  0  0  0
  140.8740   75.9920  222.4390 O   0  0  0  0  0  0  0  0  0  0  0  0
  139.7920   75.2590  221.9530 C   0  0  0  0  0  0  0  0  0  0  0  0
  139.6310   73.8820  222.3080 N   0  0  0  0  0  0  0  0  0  0  0  0
  140.7380   73.0740  222.5970 N   0  0  0  0  0  0  0  0  0  0  0  0
  140.6720   71.7840  222.7470 C   0  0  0  0  0  0  0  0  0  0  0  0
  140.9086   71.1568  221.8749 H   0  0  0  0  0  0  0  0  0  0  0  0
  140.3010   71.0960  224.0080 C   0  0  0  0  0  0  0  0  0  0  0  0
  139.3810   70.0330  224.0480 C   0  0  0  0  0  0  0  0  0  0  0  0
  138.9554   69.6422  223.1120 H   0  0  0  0  0  0  0  0  0  0  0  0
  139.0050   69.4710  225.2700 C   0  0  0  0  0  0  0  0  0  0  0  0
  138.3032   68.6242  225.2899 H   0  0  0  0  0  0  0  0  0  0  0  0
  139.5150   69.9780  226.4660 C   0  0  0  0  0  0  0  0  0  0  0  0
  139.2053   69.5364  227.4247 H   0  0  0  0  0  0  0  0  0  0  0  0
  140.4230   71.0510  226.4500 C   0  0  0  0  0  0  0  0  0  0  0  0
  140.9500   71.6590  227.7270 C   0  0  0  0  0  0  0  0  0  0  0  0
  139.9080   72.2310  228.4350 F   0  0  0  0  0  0  0  0  0  0  0  0
  141.8980   72.6350  227.4740 F   0  0  0  0  0  0  0  0  0  0  0  0
  141.5280   70.6670  228.4990 F   0  0  0  0  0  0  0  0  0  0  0  0
  140.8010   71.6080  225.2170 C   0  0  0  0  0  0  0  0  0  0  0  0
  141.4990   72.4579  225.1978 H   0  0  0  0  0  0  0  0  0  0  0  0
  138.9030   75.8720  221.1670 C   0  0  0  0  0  0  0  0  0  0  0  0
  137.8886   76.0351  221.5600 H   0  0  0  0  0  0  0  0  0  0  0  0
  139.2100   76.3520  219.7750 C   0  0  0  0  0  0  0  0  0  0  0  0
  140.2988   76.3338  219.6196 H   0  0  0  0  0  0  0  0  0  0  0  0
  138.7082   75.6882  219.0555 H   0  0  0  0  0  0  0  0  0  0  0  0
  138.6970   77.7800  219.5640 C   0  0  0  0  0  0  0  0  0  0  0  0
  139.3994   78.3222  218.9139 H   0  0  0  0  0  0  0  0  0  0  0  0
  137.7016   77.7295  219.0986 H   0  0  0  0  0  0  0  0  0  0  0  0
  138.5830   78.4720  220.8080 O   0  0  0  0  0  0  0  0  0  0  0  0
  139.6590   78.9670  221.5670 C   0  0  0  0  0  0  0  0  0  0  0  0
  141.0010   78.8190  221.1620 C   0  0  0  0  0  0  0  0  0  0  0  0
  141.2388   78.2453  220.2541 H   0  0  0  0  0  0  0  0  0  0  0  0
  142.0310   79.3980  221.9090 C   0  0  0  0  0  0  0  0  0  0  0  0
  143.0754   79.2855  221.5824 H   0  0  0  0  0  0  0  0  0  0  0  0
  141.7380   80.1190  223.0690 C   0  0  0  0  0  0  0  0  0  0  0  0
  143.0300   80.8770  223.9800 Cl  0  0  0  0  0  0  0  0  0  0  0  0
  140.4140   80.2340  223.5020 C   0  0  0  0  0  0  0  0  0  0  0  0
  140.1855   80.7802  224.4291 H   0  0  0  0  0  0  0  0  0  0  0  0
  139.3780   79.6560  222.7590 C   0  0  0  0  0  0  0  0  0  0  0  0
  137.7230   79.8180  223.3240 Cl  0  0  0  0  0  0  0  0  0  0  0  0
  1  2  1  0
  2  3  1  0
  3  4  1  0
  4  5  1  0
  5  6  2  0
  6  7  1  0
  6  8  1  0
  8  9  2  0
  9 10  1  0
  9 11  1  0
 11 12  1  0
 11 13  2  0
 13 14  1  0
 13 15  1  0
 15 16  1  0
 16 17  1  0
 16 18  1  0
 16 19  1  0
 15 20  2  0
 20 21  1  0
  3 22  2  0
 22 23  1  0
 22 24  1  0
 24 25  1  0
 24 26  1  0
 24 27  1  0
 27 28  1  0
 27 29  1  0
 27 30  1  0
 30 31  1  0
 31 32  2  0
 32 33  1  0
 32 34  1  0
 34 35  1  0
 34 36  2  0
 36 37  1  0
 36 38  1  0
 38 39  1  0
 38 40  2  0
 40 41  1  0
 20  8  1  0
 40 31  1  0
M  CHG  1   4  -1
M  END
>  <UniqueID>  (14) 
17

>  <SMILES>  (14) 
O/C(=C/CCOc1ccc(Cl)cc1Cl)[N-]/N=C\c1cccc(C(F)(F)F)c1

>  <Energy>  (14) 
35.54338924362351

>  <Genealogy>  (14) 
O=C(CCCOc1ccc(Cl)cc1Cl)[N-]N=Cc1cccc(C(F)(F)F)c1 (protonated)
OC(=CCCOc1ccc(Cl)cc1Cl)[N-]N=Cc1cccc(C(F)(F)F)c1 (tautomer)
O/C(=C/CCOc1ccc(Cl)cc1Cl)[N-]/N=C\c1cccc(C(F)(F)F)c1 (cis-trans isomerization)
O/C(=C/CCOc1ccc(Cl)cc1Cl)[N-]/N=C\c1cccc(C(F)(F)F)c1 (3D coordinates assigned)
O/C(=C/CCOc1ccc(Cl)cc1Cl)[N-]/N=C\c1cccc(C(F)(F)F)c1 (optimized conformer: 35.54338924362351 kcal/mol)

>  <smiles>  (14) 
O=C(CCCOc1ccc(Cl)cc1Cl)NN=Cc1cccc(C(F)(F)F)c1

>  <score_type>  (14) 
oracle

>  <origin>  (14) 
autodockgpu

>  <m_score__min__energy>  (14) 
-6.9199999999999999

>  <m_primary>  (14) 
energy

>  <meeko>  (14) 
{"free_energy": -6.13, "intermolecular_energy": -9.41, "internal_energy": -0.93, "cluster_size": 5, "cluster_id": 3, "rank_in_cluster": 5}

>  <energy>  (14) 
-6.5

>  <cluster_rmsd>  (14) 
0.0

>  <rmsd>  (14) 
272.47

>  <cluster>  (14) 
4

$$$$
JBHRSOAXAGIKHA-SRRPOTTFNA-N
     RDKit          3D

 41 42  0  0  0  0  0  0  0  0999 V2000
  138.5520   74.5200  223.0200 H   0  0  0  0  0  0  0  0  0  0  0  0
  139.1000   75.0570  222.3610 O   0  0  0  0  0  0  0  0  0  0  0  0
  140.9240   75.2910  220.8990 C   0  0  0  0  0  0  0  0  0  0  0  0
  140.8630   73.3530  222.3230 N   0  0  0  0  0  0  0  0  0  0  0  0
  140.1480   72.5250  223.1990 N   0  0  0  0  0  0  0  0  0  0  0  0
  140.3080   74.5840  221.8500 C   0  0  0  0  0  0  0  0  0  0  0  0
  141.7119   74.7960  220.3124 H   0  0  0  0  0  0  0  0  0  0  0  0
  140.6910   71.2290  225.2280 C   0  0  0  0  0  0  0  0  0  0  0  0
  141.0540   72.2290  226.1480 C   0  0  0  0  0  0  0  0  0  0  0  0
  141.2601   73.2498  225.7939 H   0  0  0  0  0  0  0  0  0  0  0  0
  141.1540   71.9320  227.5090 C   0  0  0  0  0  0  0  0  0  0  0  0
  141.4149   72.7261  228.2242 H   0  0  0  0  0  0  0  0  0  0  0  0
  140.9250   70.6340  227.9670 C   0  0  0  0  0  0  0  0  0  0  0  0
  141.0165   70.4070  229.0394 H   0  0  0  0  0  0  0  0  0  0  0  0
  140.5780   69.6160  227.0630 C   0  0  0  0  0  0  0  0  0  0  0  0
  140.3790   68.1900  227.5180 C   0  0  0  0  0  0  0  0  0  0  0  0
  139.1860   67.7020  227.0150 F   0  0  0  0  0  0  0  0  0  0  0  0
  140.3470   68.0950  228.8980 F   0  0  0  0  0  0  0  0  0  0  0  0
  141.4200   67.4120  227.0440 F   0  0  0  0  0  0  0  0  0  0  0  0
  140.4740   69.9220  225.6960 C   0  0  0  0  0  0  0  0  0  0  0  0
  140.2187   69.1261  224.9808 H   0  0  0  0  0  0  0  0  0  0  0  0
  140.6500   71.4670  223.7640 C   0  0  0  0  0  0  0  0  0  0  0  0
  141.0751   70.6921  223.1091 H   0  0  0  0  0  0  0  0  0  0  0  0
  140.6010   76.7260  220.5850 C   0  0  0  0  0  0  0  0  0  0  0  0
  140.0694   76.7735  219.6232 H   0  0  0  0  0  0  0  0  0  0  0  0
  139.9715   77.1295  221.3918 H   0  0  0  0  0  0  0  0  0  0  0  0
  141.8790   77.5660  220.4940 C   0  0  0  0  0  0  0  0  0  0  0  0
  142.5894   77.2241  221.2611 H   0  0  0  0  0  0  0  0  0  0  0  0
  142.3080   77.4429  219.4886 H   0  0  0  0  0  0  0  0  0  0  0  0
  141.5980   78.9510  220.7020 O   0  0  0  0  0  0  0  0  0  0  0  0
  140.6690   79.4650  221.6230 C   0  0  0  0  0  0  0  0  0  0  0  0
  139.2770   79.4190  221.4010 C   0  0  0  0  0  0  0  0  0  0  0  0
  138.8874   79.0259  220.4504 H   0  0  0  0  0  0  0  0  0  0  0  0
  138.3900   79.8700  222.3820 C   0  0  0  0  0  0  0  0  0  0  0  0
  137.3055   79.8234  222.2042 H   0  0  0  0  0  0  0  0  0  0  0  0
  138.8770   80.3800  223.5880 C   0  0  0  0  0  0  0  0  0  0  0  0
  137.7600   80.9080  224.8310 Cl  0  0  0  0  0  0  0  0  0  0  0  0
  140.2560   80.4710  223.8000 C   0  0  0  0  0  0  0  0  0  0  0  0
  140.6399   80.8973  224.7386 H   0  0  0  0  0  0  0  0  0  0  0  0
  141.1490   80.0210  222.8210 C   0  0  0  0  0  0  0  0  0  0  0  0
  142.8770   80.1440  223.1140 Cl  0  0  0  0  0  0  0  0  0  0  0  0
  1  2  1  0
  2  3  1  0
  3  4  1  0
  4  5  1  0
  5  6  2  0
  6  7  1  0
  6  8  1  0
  8  9  2  0
  9 10  1  0
  9 11  1  0
 11 12  1  0
 11 13  2  0
 13 14  1  0
 13 15  1  0
 15 16  1  0
 16 17  1  0
 16 18  1  0
 16 19  1  0
 15 20  2  0
 20 21  1  0
  3 22  2  0
 22 23  1  0
 22 24  1  0
 24 25  1  0
 24 26  1  0
 24 27  1  0
 27 28  1  0
 27 29  1  0
 27 30  1  0
 30 31  1  0
 31 32  2  0
 32 33  1  0
 32 34  1  0
 34 35  1  0
 34 36  2  0
 36 37  1  0
 36 38  1  0
 38 39  1  0
 38 40  2  0
 40 41  1  0
 20  8  1  0
 40 31  1  0
M  CHG  1   4  -1
M  END
>  <UniqueID>  (15) 
17

>  <SMILES>  (15) 
O/C(=C/CCOc1ccc(Cl)cc1Cl)[N-]/N=C\c1cccc(C(F)(F)F)c1

>  <Energy>  (15) 
35.54338924362351

>  <Genealogy>  (15) 
O=C(CCCOc1ccc(Cl)cc1Cl)[N-]N=Cc1cccc(C(F)(F)F)c1 (protonated)
OC(=CCCOc1ccc(Cl)cc1Cl)[N-]N=Cc1cccc(C(F)(F)F)c1 (tautomer)
O/C(=C/CCOc1ccc(Cl)cc1Cl)[N-]/N=C\c1cccc(C(F)(F)F)c1 (cis-trans isomerization)
O/C(=C/CCOc1ccc(Cl)cc1Cl)[N-]/N=C\c1cccc(C(F)(F)F)c1 (3D coordinates assigned)
O/C(=C/CCOc1ccc(Cl)cc1Cl)[N-]/N=C\c1cccc(C(F)(F)F)c1 (optimized conformer: 35.54338924362351 kcal/mol)

>  <smiles>  (15) 
O=C(CCCOc1ccc(Cl)cc1Cl)NN=Cc1cccc(C(F)(F)F)c1

>  <score_type>  (15) 
oracle

>  <origin>  (15) 
autodockgpu

>  <m_score__min__energy>  (15) 
-6.9199999999999999

>  <m_primary>  (15) 
energy

>  <meeko>  (15) 
{"free_energy": -6.92, "intermolecular_energy": -10.2, "internal_energy": -0.84, "cluster_size": 4, "cluster_id": 1, "rank_in_cluster": 1}

>  <energy>  (15) 
-6.26

>  <cluster_rmsd>  (15) 
1.82

>  <rmsd>  (15) 
272.23

>  <cluster>  (15) 
4

$$$$
JBHRSOAXAGIKHA-SRRPOTTFNA-N
     RDKit          3D

 41 42  0  0  0  0  0  0  0  0999 V2000
  139.1850   73.7070  223.0590 H   0  0  0  0  0  0  0  0  0  0  0  0
  139.2840   74.4340  222.3630 O   0  0  0  0  0  0  0  0  0  0  0  0
  139.9530   73.0940  220.5540 C   0  0  0  0  0  0  0  0  0  0  0  0
  140.9300   75.2840  220.7550 N   0  0  0  0  0  0  0  0  0  0  0  0
  141.3830   76.2850  221.6240 N   0  0  0  0  0  0  0  0  0  0  0  0
  140.0480   74.2530  221.2110 C   0  0  0  0  0  0  0  0  0  0  0  0
  139.9367   73.1206  219.4544 H   0  0  0  0  0  0  0  0  0  0  0  0
  141.2730   78.6530  222.3090 C   0  0  0  0  0  0  0  0  0  0  0  0
  141.9940   78.8470  223.5020 C   0  0  0  0  0  0  0  0  0  0  0  0
  142.1978   77.9918  224.1631 H   0  0  0  0  0  0  0  0  0  0  0  0
  142.4520   80.1190  223.8510 C   0  0  0  0  0  0  0  0  0  0  0  0
  143.0349   80.2566  224.7737 H   0  0  0  0  0  0  0  0  0  0  0  0
  142.1740   81.2170  223.0350 C   0  0  0  0  0  0  0  0  0  0  0  0
  142.5295   82.2175  223.3226 H   0  0  0  0  0  0  0  0  0  0  0  0
  141.4420   81.0490  221.8480 C   0  0  0  0  0  0  0  0  0  0  0  0
  141.0760   82.2240  220.9730 C   0  0  0  0  0  0  0  0  0  0  0  0
  139.7110   82.2290  220.7460 F   0  0  0  0  0  0  0  0  0  0  0  0
  141.7250   82.1720  219.7520 F   0  0  0  0  0  0  0  0  0  0  0  0
  141.4300   83.3970  221.6140 F   0  0  0  0  0  0  0  0  0  0  0  0
  140.9870   79.7660  221.5010 C   0  0  0  0  0  0  0  0  0  0  0  0
  140.3975   79.6308  220.5822 H   0  0  0  0  0  0  0  0  0  0  0  0
  140.6920   77.3420  221.9320 C   0  0  0  0  0  0  0  0  0  0  0  0
  139.5954   77.2577  221.9115 H   0  0  0  0  0  0  0  0  0  0  0  0
  139.8670   71.7540  221.2330 C   0  0  0  0  0  0  0  0  0  0  0  0
  138.8305   71.5804  221.5577 H   0  0  0  0  0  0  0  0  0  0  0  0
  140.1808   70.9773  220.5201 H   0  0  0  0  0  0  0  0  0  0  0  0
  140.7910   71.7010  222.4540 C   0  0  0  0  0  0  0  0  0  0  0  0
  141.3338   70.7443  222.4528 H   0  0  0  0  0  0  0  0  0  0  0  0
  141.4951   72.5442  222.3970 H   0  0  0  0  0  0  0  0  0  0  0  0
  140.0450   71.8130  223.6670 O   0  0  0  0  0  0  0  0  0  0  0  0
  140.2460   71.0370  224.8220 C   0  0  0  0  0  0  0  0  0  0  0  0
  140.9690   71.5120  225.9350 C   0  0  0  0  0  0  0  0  0  0  0  0
  141.4525   72.4992  225.8935 H   0  0  0  0  0  0  0  0  0  0  0  0
  141.0740   70.7330  227.0920 C   0  0  0  0  0  0  0  0  0  0  0  0
  141.6323   71.1131  227.9602 H   0  0  0  0  0  0  0  0  0  0  0  0
  140.4720   69.4740  227.1480 C   0  0  0  0  0  0  0  0  0  0  0  0
  140.5740   68.5190  228.6150 Cl  0  0  0  0  0  0  0  0  0  0  0  0
  139.7900   68.9780  226.0340 C   0  0  0  0  0  0  0  0  0  0  0  0
  139.3365   67.9765  226.0700 H   0  0  0  0  0  0  0  0  0  0  0  0
  139.6820   69.7510  224.8730 C   0  0  0  0  0  0  0  0  0  0  0  0
  138.8170   69.1040  223.4870 Cl  0  0  0  0  0  0  0  0  0  0  0  0
  1  2  1  0
  2  3  1  0
  3  4  1  0
  4  5  1  0
  5  6  2  0
  6  7  1  0
  6  8  1  0
  8  9  2  0
  9 10  1  0
  9 11  1  0
 11 12  1  0
 11 13  2  0
 13 14  1  0
 13 15  1  0
 15 16  1  0
 16 17  1  0
 16 18  1  0
 16 19  1  0
 15 20  2  0
 20 21  1  0
  3 22  2  0
 22 23  1  0
 22 24  1  0
 24 25  1  0
 24 26  1  0
 24 27  1  0
 27 28  1  0
 27 29  1  0
 27 30  1  0
 30 31  1  0
 31 32  2  0
 32 33  1  0
 32 34  1  0
 34 35  1  0
 34 36  2  0
 36 37  1  0
 36 38  1  0
 38 39  1  0
 38 40  2  0
 40 41  1  0
 20  8  1  0
 40 31  1  0
M  CHG  1   4  -1
M  END
>  <UniqueID>  (16) 
17

>  <SMILES>  (16) 
O/C(=C/CCOc1ccc(Cl)cc1Cl)[N-]/N=C\c1cccc(C(F)(F)F)c1

>  <Energy>  (16) 
35.54338924362351

>  <Genealogy>  (16) 
O=C(CCCOc1ccc(Cl)cc1Cl)[N-]N=Cc1cccc(C(F)(F)F)c1 (protonated)
OC(=CCCOc1ccc(Cl)cc1Cl)[N-]N=Cc1cccc(C(F)(F)F)c1 (tautomer)
O/C(=C/CCOc1ccc(Cl)cc1Cl)[N-]/N=C\c1cccc(C(F)(F)F)c1 (cis-trans isomerization)
O/C(=C/CCOc1ccc(Cl)cc1Cl)[N-]/N=C\c1cccc(C(F)(F)F)c1 (3D coordinates assigned)
O/C(=C/CCOc1ccc(Cl)cc1Cl)[N-]/N=C\c1cccc(C(F)(F)F)c1 (optimized conformer: 35.54338924362351 kcal/mol)

>  <smiles>  (16) 
O=C(CCCOc1ccc(Cl)cc1Cl)NN=Cc1cccc(C(F)(F)F)c1

>  <score_type>  (16) 
oracle

>  <origin>  (16) 
autodockgpu

>  <m_score__min__energy>  (16) 
-6.9199999999999999

>  <m_primary>  (16) 
energy

>  <meeko>  (16) 
{"free_energy": -6.26, "intermolecular_energy": -9.54, "internal_energy": -1.16, "cluster_size": 3, "cluster_id": 4, "rank_in_cluster": 2}

>  <energy>  (16) 
-6.07

>  <cluster_rmsd>  (16) 
1.89

>  <rmsd>  (16) 
272.16

>  <cluster>  (16) 
4

$$$$
JBHRSOAXAGIKHA-SRRPOTTFNA-N
     RDKit          3D

 41 42  0  0  0  0  0  0  0  0999 V2000
  139.2210   73.9370  223.0400 H   0  0  0  0  0  0  0  0  0  0  0  0
  139.9600   73.8450  222.3560 O   0  0  0  0  0  0  0  0  0  0  0  0
  140.3410   74.9070  221.5360 C   0  0  0  0  0  0  0  0  0  0  0  0
  139.6150   76.1400  221.5620 N   0  0  0  0  0  0  0  0  0  0  0  0
  138.7140   76.4280  222.5950 N   0  0  0  0  0  0  0  0  0  0  0  0
  137.9010   77.4430  222.5830 C   0  0  0  0  0  0  0  0  0  0  0  0
  136.8220   77.2318  222.5488 H   0  0  0  0  0  0  0  0  0  0  0  0
  138.3230   78.8650  222.6120 C   0  0  0  0  0  0  0  0  0  0  0  0
  138.5320   79.5680  223.8130 C   0  0  0  0  0  0  0  0  0  0  0  0
  138.4438   79.0445  224.7764 H   0  0  0  0  0  0  0  0  0  0  0  0
  138.8510   80.9280  223.7870 C   0  0  0  0  0  0  0  0  0  0  0  0
  139.0362   81.4642  224.7294 H   0  0  0  0  0  0  0  0  0  0  0  0
  138.9360   81.6100  222.5730 C   0  0  0  0  0  0  0  0  0  0  0  0
  139.1769   82.6833  222.5633 H   0  0  0  0  0  0  0  0  0  0  0  0
  138.7150   80.9310  221.3620 C   0  0  0  0  0  0  0  0  0  0  0  0
  138.7440   81.6500  220.0360 C   0  0  0  0  0  0  0  0  0  0  0  0
  137.5510   82.3230  219.8450 F   0  0  0  0  0  0  0  0  0  0  0  0
  138.9270   80.7710  218.9830 F   0  0  0  0  0  0  0  0  0  0  0  0
  139.7820   82.5650  220.0360 F   0  0  0  0  0  0  0  0  0  0  0  0
  138.3990   79.5620  221.3950 C   0  0  0  0  0  0  0  0  0  0  0  0
  138.2081   79.0278  220.4526 H   0  0  0  0  0  0  0  0  0  0  0  0
  141.4040   74.7560  220.7420 C   0  0  0  0  0  0  0  0  0  0  0  0
  142.2234   74.1098  221.0899 H   0  0  0  0  0  0  0  0  0  0  0  0
  141.5450   75.4190  219.3990 C   0  0  0  0  0  0  0  0  0  0  0  0
  141.9646   74.6972  218.6829 H   0  0  0  0  0  0  0  0  0  0  0  0
  140.5521   75.7557  219.0663 H   0  0  0  0  0  0  0  0  0  0  0  0
  142.4720   76.6360  219.4870 C   0  0  0  0  0  0  0  0  0  0  0  0
  143.1458   76.5133  220.3478 H   0  0  0  0  0  0  0  0  0  0  0  0
  143.0485   76.7053  218.5527 H   0  0  0  0  0  0  0  0  0  0  0  0
  141.7220   77.8410  219.6490 O   0  0  0  0  0  0  0  0  0  0  0  0
  141.8080   78.7120  220.7490 C   0  0  0  0  0  0  0  0  0  0  0  0
  141.7180   78.2600  222.0810 C   0  0  0  0  0  0  0  0  0  0  0  0
  141.5115   77.1992  222.2863 H   0  0  0  0  0  0  0  0  0  0  0  0
  141.8900   79.1540  223.1430 C   0  0  0  0  0  0  0  0  0  0  0  0
  141.8266   78.7927  224.1800 H   0  0  0  0  0  0  0  0  0  0  0  0
  142.1420   80.5040  222.8900 C   0  0  0  0  0  0  0  0  0  0  0  0
  142.3960   81.6130  224.2250 Cl  0  0  0  0  0  0  0  0  0  0  0  0
  142.1900   80.9690  221.5730 C   0  0  0  0  0  0  0  0  0  0  0  0
  142.3635   82.0369  221.3745 H   0  0  0  0  0  0  0  0  0  0  0  0
  142.0180   80.0800  220.5060 C   0  0  0  0  0  0  0  0  0  0  0  0
  142.0850   80.6920  218.8600 Cl  0  0  0  0  0  0  0  0  0  0  0  0
  1  2  1  0
  2  3  1  0
  3  4  1  0
  4  5  1  0
  5  6  2  0
  6  7  1  0
  6  8  1  0
  8  9  2  0
  9 10  1  0
  9 11  1  0
 11 12  1  0
 11 13  2  0
 13 14  1  0
 13 15  1  0
 15 16  1  0
 16 17  1  0
 16 18  1  0
 16 19  1  0
 15 20  2  0
 20 21  1  0
  3 22  2  0
 22 23  1  0
 22 24  1  0
 24 25  1  0
 24 26  1  0
 24 27  1  0
 27 28  1  0
 27 29  1  0
 27 30  1  0
 30 31  1  0
 31 32  2  0
 32 33  1  0
 32 34  1  0
 34 35  1  0
 34 36  2  0
 36 37  1  0
 36 38  1  0
 38 39  1  0
 38 40  2  0
 40 41  1  0
 20  8  1  0
 40 31  1  0
M  CHG  1   4  -1
M  END
>  <UniqueID>  (17) 
17

>  <SMILES>  (17) 
O/C(=C/CCOc1ccc(Cl)cc1Cl)[N-]/N=C\c1cccc(C(F)(F)F)c1

>  <Energy>  (17) 
35.54338924362351

>  <Genealogy>  (17) 
O=C(CCCOc1ccc(Cl)cc1Cl)[N-]N=Cc1cccc(C(F)(F)F)c1 (protonated)
OC(=CCCOc1ccc(Cl)cc1Cl)[N-]N=Cc1cccc(C(F)(F)F)c1 (tautomer)
O/C(=C/CCOc1ccc(Cl)cc1Cl)[N-]/N=C\c1cccc(C(F)(F)F)c1 (cis-trans isomerization)
O/C(=C/CCOc1ccc(Cl)cc1Cl)[N-]/N=C\c1cccc(C(F)(F)F)c1 (3D coordinates assigned)
O/C(=C/CCOc1ccc(Cl)cc1Cl)[N-]/N=C\c1cccc(C(F)(F)F)c1 (optimized conformer: 35.54338924362351 kcal/mol)

>  <smiles>  (17) 
O=C(CCCOc1ccc(Cl)cc1Cl)NN=Cc1cccc(C(F)(F)F)c1

>  <score_type>  (17) 
oracle

>  <origin>  (17) 
autodockgpu

>  <m_score__min__energy>  (17) 
-6.9199999999999999

>  <m_primary>  (17) 
energy

>  <meeko>  (17) 
{"free_energy": -4.03, "intermolecular_energy": -7.31, "internal_energy": -2.61, "cluster_size": 1, "cluster_id": 6, "rank_in_cluster": 1}

>  <energy>  (17) 
-5.25

>  <cluster_rmsd>  (17) 
0.0

>  <rmsd>  (17) 
271.5

>  <cluster>  (17) 
5

$$$$
JBHRSOAXAGIKHA-SRRPOTTFNA-N
     RDKit          3D

 41 42  0  0  0  0  0  0  0  0999 V2000
  138.4360   73.4870  223.0160 H   0  0  0  0  0  0  0  0  0  0  0  0
  138.3280   73.8380  222.0730 O   0  0  0  0  0  0  0  0  0  0  0  0
  140.3260   74.0370  220.8530 C   0  0  0  0  0  0  0  0  0  0  0  0
  139.2080   76.0600  221.5210 N   0  0  0  0  0  0  0  0  0  0  0  0
  139.7370   76.7800  222.6000 N   0  0  0  0  0  0  0  0  0  0  0  0
  139.3010   74.6330  221.4670 C   0  0  0  0  0  0  0  0  0  0  0  0
  140.4450   74.1942  219.7708 H   0  0  0  0  0  0  0  0  0  0  0  0
  141.4570   78.5450  222.7360 C   0  0  0  0  0  0  0  0  0  0  0  0
  142.1330   79.0780  223.8480 C   0  0  0  0  0  0  0  0  0  0  0  0
  142.3844   78.4276  224.6988 H   0  0  0  0  0  0  0  0  0  0  0  0
  142.4870   80.4290  223.8780 C   0  0  0  0  0  0  0  0  0  0  0  0
  143.0361   80.8314  224.7421 H   0  0  0  0  0  0  0  0  0  0  0  0
  142.1480   81.2710  222.8180 C   0  0  0  0  0  0  0  0  0  0  0  0
  142.4217   82.3358  222.8545 H   0  0  0  0  0  0  0  0  0  0  0  0
  141.4580   80.7630  221.7040 C   0  0  0  0  0  0  0  0  0  0  0  0
  141.0270   81.6580  220.5680 C   0  0  0  0  0  0  0  0  0  0  0  0
  139.7290   81.3510  220.1990 F   0  0  0  0  0  0  0  0  0  0  0  0
  141.8450   81.5080  219.4620 F   0  0  0  0  0  0  0  0  0  0  0  0
  141.0770   82.9770  220.9810 F   0  0  0  0  0  0  0  0  0  0  0  0
  141.1080   79.4020  221.6780 C   0  0  0  0  0  0  0  0  0  0  0  0
  140.5528   79.0016  220.8169 H   0  0  0  0  0  0  0  0  0  0  0  0
  140.9830   77.1410  222.6870 C   0  0  0  0  0  0  0  0  0  0  0  0
  141.7419   76.3457  222.7272 H   0  0  0  0  0  0  0  0  0  0  0  0
  141.3270   73.1630  221.5570 C   0  0  0  0  0  0  0  0  0  0  0  0
  142.0747   72.8137  220.8297 H   0  0  0  0  0  0  0  0  0  0  0  0
  141.8096   73.7508  222.3517 H   0  0  0  0  0  0  0  0  0  0  0  0
  140.6410   71.9500  222.1930 C   0  0  0  0  0  0  0  0  0  0  0  0
  139.8051   71.6328  221.5522 H   0  0  0  0  0  0  0  0  0  0  0  0
  141.3804   71.1416  222.2914 H   0  0  0  0  0  0  0  0  0  0  0  0
  140.1390   72.2670  223.4920 O   0  0  0  0  0  0  0  0  0  0  0  0
  140.2340   71.4400  224.6260 C   0  0  0  0  0  0  0  0  0  0  0  0
  141.0560   71.7570  225.7270 C   0  0  0  0  0  0  0  0  0  0  0  0
  141.7006   72.6476  225.6910 H   0  0  0  0  0  0  0  0  0  0  0  0
  141.0550   70.9440  226.8640 C   0  0  0  0  0  0  0  0  0  0  0  0
  141.6932   71.2010  227.7222 H   0  0  0  0  0  0  0  0  0  0  0  0
  140.2460   69.8060  226.9140 C   0  0  0  0  0  0  0  0  0  0  0  0
  140.2190   68.8130  228.3580 Cl  0  0  0  0  0  0  0  0  0  0  0  0
  139.4610   69.4610  225.8100 C   0  0  0  0  0  0  0  0  0  0  0  0
  138.8436   68.5511  225.8393 H   0  0  0  0  0  0  0  0  0  0  0  0
  139.4580   70.2690  224.6680 C   0  0  0  0  0  0  0  0  0  0  0  0
  138.4600   69.8130  223.2960 Cl  0  0  0  0  0  0  0  0  0  0  0  0
  1  2  1  0
  2  3  1  0
  3  4  1  0
  4  5  1  0
  5  6  2  0
  6  7  1  0
  6  8  1  0
  8  9  2  0
  9 10  1  0
  9 11  1  0
 11 12  1  0
 11 13  2  0
 13 14  1  0
 13 15  1  0
 15 16  1  0
 16 17  1  0
 16 18  1  0
 16 19  1  0
 15 20  2  0
 20 21  1  0
  3 22  2  0
 22 23  1  0
 22 24  1  0
 24 25  1  0
 24 26  1  0
 24 27  1  0
 27 28  1  0
 27 29  1  0
 27 30  1  0
 30 31  1  0
 31 32  2  0
 32 33  1  0
 32 34  1  0
 34 35  1  0
 34 36  2  0
 36 37  1  0
 36 38  1  0
 38 39  1  0
 38 40  2  0
 40 41  1  0
 20  8  1  0
 40 31  1  0
M  CHG  1   4  -1
M  END
>  <UniqueID>  (18) 
17

>  <SMILES>  (18) 
O/C(=C/CCOc1ccc(Cl)cc1Cl)[N-]/N=C\c1cccc(C(F)(F)F)c1

>  <Energy>  (18) 
35.54338924362351

>  <Genealogy>  (18) 
O=C(CCCOc1ccc(Cl)cc1Cl)[N-]N=Cc1cccc(C(F)(F)F)c1 (protonated)
OC(=CCCOc1ccc(Cl)cc1Cl)[N-]N=Cc1cccc(C(F)(F)F)c1 (tautomer)
O/C(=C/CCOc1ccc(Cl)cc1Cl)[N-]/N=C\c1cccc(C(F)(F)F)c1 (cis-trans isomerization)
O/C(=C/CCOc1ccc(Cl)cc1Cl)[N-]/N=C\c1cccc(C(F)(F)F)c1 (3D coordinates assigned)
O/C(=C/CCOc1ccc(Cl)cc1Cl)[N-]/N=C\c1cccc(C(F)(F)F)c1 (optimized conformer: 35.54338924362351 kcal/mol)

>  <smiles>  (18) 
O=C(CCCOc1ccc(Cl)cc1Cl)NN=Cc1cccc(C(F)(F)F)c1

>  <score_type>  (18) 
oracle

>  <origin>  (18) 
autodockgpu

>  <m_score__min__energy>  (18) 
-6.9199999999999999

>  <m_primary>  (18) 
energy

>  <meeko>  (18) 
{"free_energy": -6.07, "intermolecular_energy": -9.35, "internal_energy": -1.27, "cluster_size": 3, "cluster_id": 4, "rank_in_cluster": 3}

>  <energy>  (18) 
-5.17

>  <cluster_rmsd>  (18) 
0.36

>  <rmsd>  (18) 
271.48

>  <cluster>  (18) 
5

$$$$
JBHRSOAXAGIKHA-SRRPOTTFNA-N
     RDKit          3D

 41 42  0  0  0  0  0  0  0  0999 V2000
  137.8060   72.9980  223.2940 H   0  0  0  0  0  0  0  0  0  0  0  0
  137.5980   73.3640  222.3730 O   0  0  0  0  0  0  0  0  0  0  0  0
  138.5770   73.9580  221.5780 C   0  0  0  0  0  0  0  0  0  0  0  0
  139.9650   73.7660  221.8720 N   0  0  0  0  0  0  0  0  0  0  0  0
  140.3730   73.0010  222.9720 N   0  0  0  0  0  0  0  0  0  0  0  0
  140.2590   71.7070  223.0350 C   0  0  0  0  0  0  0  0  0  0  0  0
  140.2286   71.1510  222.0863 H   0  0  0  0  0  0  0  0  0  0  0  0
  140.1670   70.9260  224.2930 C   0  0  0  0  0  0  0  0  0  0  0  0
  139.4920   69.6940  224.3710 C   0  0  0  0  0  0  0  0  0  0  0  0
  139.0625   69.2463  223.4626 H   0  0  0  0  0  0  0  0  0  0  0  0
  139.3650   69.0370  225.5970 C   0  0  0  0  0  0  0  0  0  0  0  0
  138.8567   68.0627  225.6450 H   0  0  0  0  0  0  0  0  0  0  0  0
  139.8790   69.6090  226.7610 C   0  0  0  0  0  0  0  0  0  0  0  0
  139.7643   69.0894  227.7238 H   0  0  0  0  0  0  0  0  0  0  0  0
  140.5430   70.8470  226.7080 C   0  0  0  0  0  0  0  0  0  0  0  0
  141.0600   71.5190  227.9560 C   0  0  0  0  0  0  0  0  0  0  0  0
  139.9960   71.9550  228.7270 F   0  0  0  0  0  0  0  0  0  0  0  0
  141.8590   72.6080  227.6540 F   0  0  0  0  0  0  0  0  0  0  0  0
  141.8040   70.6120  228.6880 F   0  0  0  0  0  0  0  0  0  0  0  0
  140.6710   71.5010  225.4710 C   0  0  0  0  0  0  0  0  0  0  0  0
  141.1737   72.4783  225.4245 H   0  0  0  0  0  0  0  0  0  0  0  0
  138.1950   74.6920  220.5290 C   0  0  0  0  0  0  0  0  0  0  0  0
  137.4087   75.4459  220.6820 H   0  0  0  0  0  0  0  0  0  0  0  0
  138.7790   74.5460  219.1510 C   0  0  0  0  0  0  0  0  0  0  0  0
  138.9214   73.4776  218.9313 H   0  0  0  0  0  0  0  0  0  0  0  0
  138.0865   74.9978  218.4256 H   0  0  0  0  0  0  0  0  0  0  0  0
  140.1290   75.2630  219.0520 C   0  0  0  0  0  0  0  0  0  0  0  0
  140.0605   76.0550  218.2917 H   0  0  0  0  0  0  0  0  0  0  0  0
  140.3702   75.6921  220.0357 H   0  0  0  0  0  0  0  0  0  0  0  0
  141.1680   74.3530  218.6860 O   0  0  0  0  0  0  0  0  0  0  0  0
  142.3380   74.1120  219.4270 C   0  0  0  0  0  0  0  0  0  0  0  0
  142.6060   72.8690  220.0360 C   0  0  0  0  0  0  0  0  0  0  0  0
  141.8561   72.0654  219.9931 H   0  0  0  0  0  0  0  0  0  0  0  0
  143.8200   72.6530  220.6940 C   0  0  0  0  0  0  0  0  0  0  0  0
  144.0258   71.6773  221.1583 H   0  0  0  0  0  0  0  0  0  0  0  0
  144.7730   73.6720  220.7640 C   0  0  0  0  0  0  0  0  0  0  0  0
  146.3090   73.3840  221.5570 Cl  0  0  0  0  0  0  0  0  0  0  0  0
  144.4980   74.9220  220.2010 C   0  0  0  0  0  0  0  0  0  0  0  0
  145.2379   75.7324  220.2770 H   0  0  0  0  0  0  0  0  0  0  0  0
  143.2840   75.1450  219.5410 C   0  0  0  0  0  0  0  0  0  0  0  0
  142.9660   76.7250  218.8410 Cl  0  0  0  0  0  0  0  0  0  0  0  0
  1  2  1  0
  2  3  1  0
  3  4  1  0
  4  5  1  0
  5  6  2  0
  6  7  1  0
  6  8  1  0
  8  9  2  0
  9 10  1  0
  9 11  1  0
 11 12  1  0
 11 13  2  0
 13 14  1  0
 13 15  1  0
 15 16  1  0
 16 17  1  0
 16 18  1  0
 16 19  1  0
 15 20  2  0
 20 21  1  0
  3 22  2  0
 22 23  1  0
 22 24  1  0
 24 25  1  0
 24 26  1  0
 24 27  1  0
 27 28  1  0
 27 29  1  0
 27 30  1  0
 30 31  1  0
 31 32  2  0
 32 33  1  0
 32 34  1  0
 34 35  1  0
 34 36  2  0
 36 37  1  0
 36 38  1  0
 38 39  1  0
 38 40  2  0
 40 41  1  0
 20  8  1  0
 40 31  1  0
M  CHG  1   4  -1
M  END
>  <UniqueID>  (19) 
17

>  <SMILES>  (19) 
O/C(=C/CCOc1ccc(Cl)cc1Cl)[N-]/N=C\c1cccc(C(F)(F)F)c1

>  <Energy>  (19) 
35.54338924362351

>  <Genealogy>  (19) 
O=C(CCCOc1ccc(Cl)cc1Cl)[N-]N=Cc1cccc(C(F)(F)F)c1 (protonated)
OC(=CCCOc1ccc(Cl)cc1Cl)[N-]N=Cc1cccc(C(F)(F)F)c1 (tautomer)
O/C(=C/CCOc1ccc(Cl)cc1Cl)[N-]/N=C\c1cccc(C(F)(F)F)c1 (cis-trans isomerization)
O/C(=C/CCOc1ccc(Cl)cc1Cl)[N-]/N=C\c1cccc(C(F)(F)F)c1 (3D coordinates assigned)
O/C(=C/CCOc1ccc(Cl)cc1Cl)[N-]/N=C\c1cccc(C(F)(F)F)c1 (optimized conformer: 35.54338924362351 kcal/mol)

>  <smiles>  (19) 
O=C(CCCOc1ccc(Cl)cc1Cl)NN=Cc1cccc(C(F)(F)F)c1

>  <score_type>  (19) 
oracle

>  <origin>  (19) 
autodockgpu

>  <m_score__min__energy>  (19) 
-6.9199999999999999

>  <m_primary>  (19) 
energy

>  <meeko>  (19) 
{"free_energy": -5.85, "intermolecular_energy": -9.14, "internal_energy": -1.16, "cluster_size": 4, "cluster_id": 2, "rank_in_cluster": 3}

>  <energy>  (19) 
-5.07

>  <cluster_rmsd>  (19) 
0.4

>  <rmsd>  (19) 
271.42

>  <cluster>  (19) 
5

$$$$
JBHRSOAXAGIKHA-SRRPOTTFNA-N
     RDKit          3D

 41 42  0  0  0  0  0  0  0  0999 V2000
  138.8870   74.4720  223.0850 H   0  0  0  0  0  0  0  0  0  0  0  0
  139.4960   74.8120  222.3510 O   0  0  0  0  0  0  0  0  0  0  0  0
  140.8500   74.4680  220.4630 C   0  0  0  0  0  0  0  0  0  0  0  0
  139.5930   72.5960  221.3030 N   0  0  0  0  0  0  0  0  0  0  0  0
  139.4050   71.8450  222.4720 N   0  0  0  0  0  0  0  0  0  0  0  0
  139.9980   73.9670  221.3620 C   0  0  0  0  0  0  0  0  0  0  0  0
  140.8158   74.0699  219.4381 H   0  0  0  0  0  0  0  0  0  0  0  0
  140.2420   70.7070  224.4950 C   0  0  0  0  0  0  0  0  0  0  0  0
  139.5940   69.4810  224.7330 C   0  0  0  0  0  0  0  0  0  0  0  0
  139.2179   68.8875  223.8867 H   0  0  0  0  0  0  0  0  0  0  0  0
  139.4260   69.0140  226.0380 C   0  0  0  0  0  0  0  0  0  0  0  0
  138.9394   68.0431  226.2129 H   0  0  0  0  0  0  0  0  0  0  0  0
  139.8720   69.7720  227.1220 C   0  0  0  0  0  0  0  0  0  0  0  0
  139.7258   69.4012  228.1472 H   0  0  0  0  0  0  0  0  0  0  0  0
  140.5070   71.0070  226.9080 C   0  0  0  0  0  0  0  0  0  0  0  0
  140.9500   71.8770  228.0590 C   0  0  0  0  0  0  0  0  0  0  0  0
  141.8300   71.1750  228.8620 F   0  0  0  0  0  0  0  0  0  0  0  0
  139.8770   72.2840  228.8320 F   0  0  0  0  0  0  0  0  0  0  0  0
  141.5890   72.9990  227.5620 F   0  0  0  0  0  0  0  0  0  0  0  0
  140.6770   71.4700  225.5920 C   0  0  0  0  0  0  0  0  0  0  0  0
  141.1577   72.4440  225.4181 H   0  0  0  0  0  0  0  0  0  0  0  0
  140.3740   71.2900  223.1370 C   0  0  0  0  0  0  0  0  0  0  0  0
  141.3636   71.2496  222.6584 H   0  0  0  0  0  0  0  0  0  0  0  0
  141.8530   75.5450  220.7720 C   0  0  0  0  0  0  0  0  0  0  0  0
  142.1964   75.4305  221.8107 H   0  0  0  0  0  0  0  0  0  0  0  0
  142.6991   75.4486  220.0757 H   0  0  0  0  0  0  0  0  0  0  0  0
  141.2310   76.9350  220.5990 C   0  0  0  0  0  0  0  0  0  0  0  0
  141.6497   77.4066  219.6977 H   0  0  0  0  0  0  0  0  0  0  0  0
  140.1410   76.8214  220.5042 H   0  0  0  0  0  0  0  0  0  0  0  0
  141.5050   77.7640  221.7300 O   0  0  0  0  0  0  0  0  0  0  0  0
  140.5690   78.5810  222.3870 C   0  0  0  0  0  0  0  0  0  0  0  0
  139.1850   78.3100  222.3710 C   0  0  0  0  0  0  0  0  0  0  0  0
  138.7986   77.4681  221.7778 H   0  0  0  0  0  0  0  0  0  0  0  0
  138.3020   79.1070  223.1060 C   0  0  0  0  0  0  0  0  0  0  0  0
  137.2249   78.8841  223.0965 H   0  0  0  0  0  0  0  0  0  0  0  0
  138.7830   80.1850  223.8520 C   0  0  0  0  0  0  0  0  0  0  0  0
  137.6760   81.1570  224.8020 Cl  0  0  0  0  0  0  0  0  0  0  0  0
  140.1480   80.4880  223.8380 C   0  0  0  0  0  0  0  0  0  0  0  0
  140.5239   81.3521  224.4055 H   0  0  0  0  0  0  0  0  0  0  0  0
  141.0370   79.6950  223.1040 C   0  0  0  0  0  0  0  0  0  0  0  0
  142.7480   80.0960  223.1070 Cl  0  0  0  0  0  0  0  0  0  0  0  0
  1  2  1  0
  2  3  1  0
  3  4  1  0
  4  5  1  0
  5  6  2  0
  6  7  1  0
  6  8  1  0
  8  9  2  0
  9 10  1  0
  9 11  1  0
 11 12  1  0
 11 13  2  0
 13 14  1  0
 13 15  1  0
 15 16  1  0
 16 17  1  0
 16 18  1  0
 16 19  1  0
 15 20  2  0
 20 21  1  0
  3 22  2  0
 22 23  1  0
 22 24  1  0
 24 25  1  0
 24 26  1  0
 24 27  1  0
 27 28  1  0
 27 29  1  0
 27 30  1  0
 30 31  1  0
 31 32  2  0
 32 33  1  0
 32 34  1  0
 34 35  1  0
 34 36  2  0
 36 37  1  0
 36 38  1  0
 38 39  1  0
 38 40  2  0
 40 41  1  0
 20  8  1  0
 40 31  1  0
M  CHG  1   4  -1
M  END
>  <UniqueID>  (20) 
17

>  <SMILES>  (20) 
O/C(=C/CCOc1ccc(Cl)cc1Cl)[N-]/N=C\c1cccc(C(F)(F)F)c1

>  <Energy>  (20) 
35.54338924362351

>  <Genealogy>  (20) 
O=C(CCCOc1ccc(Cl)cc1Cl)[N-]N=Cc1cccc(C(F)(F)F)c1 (protonated)
OC(=CCCOc1ccc(Cl)cc1Cl)[N-]N=Cc1cccc(C(F)(F)F)c1 (tautomer)
O/C(=C/CCOc1ccc(Cl)cc1Cl)[N-]/N=C\c1cccc(C(F)(F)F)c1 (cis-trans isomerization)
O/C(=C/CCOc1ccc(Cl)cc1Cl)[N-]/N=C\c1cccc(C(F)(F)F)c1 (3D coordinates assigned)
O/C(=C/CCOc1ccc(Cl)cc1Cl)[N-]/N=C\c1cccc(C(F)(F)F)c1 (optimized conformer: 35.54338924362351 kcal/mol)

>  <smiles>  (20) 
O=C(CCCOc1ccc(Cl)cc1Cl)NN=Cc1cccc(C(F)(F)F)c1

>  <score_type>  (20) 
oracle

>  <origin>  (20) 
autodockgpu

>  <m_score__min__energy>  (20) 
-6.9199999999999999

>  <m_primary>  (20) 
energy

>  <meeko>  (20) 
{"free_energy": -6.47, "intermolecular_energy": -9.75, "internal_energy": -0.76, "cluster_size": 4, "cluster_id": 1, "rank_in_cluster": 3}

>  <energy>  (20) 
-4.03

>  <cluster_rmsd>  (20) 
0.0

>  <rmsd>  (20) 
271.66

>  <cluster>  (20) 
6

$$$$
VHXSVHVNRGGTDL-UPLQUKELNA-M
     RDKit          3D

 41 42  0  0  0  0  0  0  0  0999 V2000
  138.5687   71.2682  222.8151 H   0  0  0  0  0  0  0  0  0  0  0  0
  139.5780   71.3370  223.2470 C   0  0  0  0  0  0  0  0  0  0  0  0
  140.4900   71.9760  222.5760 N   0  0  0  0  0  0  0  0  0  0  0  0
  140.6440   73.3700  222.6320 N   0  0  0  0  0  0  0  0  0  0  0  0
  140.6030   74.1810  221.4570 C   0  0  0  0  0  0  0  0  0  0  0  0
  141.6850   74.5850  220.9560 O   0  0  0  0  0  0  0  0  0  0  0  0
  139.2990   74.5940  220.8290 C   0  0  0  0  0  0  0  0  0  0  0  0
  139.5092   75.2853  219.9996 H   0  0  0  0  0  0  0  0  0  0  0  0
  138.7929   73.6837  220.4752 H   0  0  0  0  0  0  0  0  0  0  0  0
  138.3650   75.2920  221.8290 C   0  0  0  0  0  0  0  0  0  0  0  0
  137.4554   74.6844  221.9444 H   0  0  0  0  0  0  0  0  0  0  0  0
  138.9099   75.3921  222.7793 H   0  0  0  0  0  0  0  0  0  0  0  0
  137.9600   76.7020  221.3750 C   0  0  0  0  0  0  0  0  0  0  0  0
  137.1915   76.6236  220.5919 H   0  0  0  0  0  0  0  0  0  0  0  0
  137.5644   77.2547  222.2399 H   0  0  0  0  0  0  0  0  0  0  0  0
  139.0900   77.4030  220.8560 O   0  0  0  0  0  0  0  0  0  0  0  0
  139.9830   78.1810  221.6160 C   0  0  0  0  0  0  0  0  0  0  0  0
  139.6060   78.7980  222.8260 C   0  0  0  0  0  0  0  0  0  0  0  0
  138.5823   78.6722  223.2083 H   0  0  0  0  0  0  0  0  0  0  0  0
  140.5260   79.5690  223.5430 C   0  0  0  0  0  0  0  0  0  0  0  0
  140.2231   80.0505  224.4845 H   0  0  0  0  0  0  0  0  0  0  0  0
  141.8290   79.7290  223.0660 C   0  0  0  0  0  0  0  0  0  0  0  0
  142.9830   80.6940  223.9700 Cl  0  0  0  0  0  0  0  0  0  0  0  0
  142.2160   79.1150  221.8720 C   0  0  0  0  0  0  0  0  0  0  0  0
  143.2432   79.2393  221.4986 H   0  0  0  0  0  0  0  0  0  0  0  0
  141.2990   78.3420  221.1500 C   0  0  0  0  0  0  0  0  0  0  0  0
  141.8100   77.5870  219.6480 Cl  0  0  0  0  0  0  0  0  0  0  0  0
  139.8210   70.6970  224.5590 C   0  0  0  0  0  0  0  0  0  0  0  0
  139.6390   69.3160  224.7520 C   0  0  0  0  0  0  0  0  0  0  0  0
  139.2988   68.6858  223.9171 H   0  0  0  0  0  0  0  0  0  0  0  0
  139.8890   68.7420  226.0010 C   0  0  0  0  0  0  0  0  0  0  0  0
  139.7246   67.6649  226.1519 H   0  0  0  0  0  0  0  0  0  0  0  0
  140.3470   69.5310  227.0590 C   0  0  0  0  0  0  0  0  0  0  0  0
  140.5200   69.0761  228.0455 H   0  0  0  0  0  0  0  0  0  0  0  0
  140.5880   70.9030  226.8700 C   0  0  0  0  0  0  0  0  0  0  0  0
  141.0510   71.7670  228.0160 C   0  0  0  0  0  0  0  0  0  0  0  0
  141.7840   72.8480  227.5580 F   0  0  0  0  0  0  0  0  0  0  0  0
  139.9650   72.2510  228.7260 F   0  0  0  0  0  0  0  0  0  0  0  0
  141.8430   71.0140  228.8630 F   0  0  0  0  0  0  0  0  0  0  0  0
  140.3080   71.4790  225.6170 C   0  0  0  0  0  0  0  0  0  0  0  0
  140.4730   72.5559  225.4652 H   0  0  0  0  0  0  0  0  0  0  0  0
  1  2  1  0
  2  3  2  0
  3  4  1  0
  4  5  1  0
  5  6  2  0
  5  7  1  0
  7  8  1  0
  7  9  1  0
  7 10  1  0
 10 11  1  0
 10 12  1  0
 10 13  1  0
 13 14  1  0
 13 15  1  0
 13 16  1  0
 16 17  1  0
 17 18  2  0
 18 19  1  0
 18 20  1  0
 20 21  1  0
 20 22  2  0
 22 23  1  0
 22 24  1  0
 24 25  1  0
 24 26  2  0
 26 27  1  0
  2 28  1  0
 28 29  2  0
 29 30  1  0
 29 31  1  0
 31 32  1  0
 31 33  2  0
 33 34  1  0
 33 35  1  0
 35 36  1  0
 36 37  1  0
 36 38  1  0
 36 39  1  0
 35 40  2  0
 40 41  1  0
 26 17  1  0
 40 28  1  0
M  CHG  1   4  -1
M  END
>  <UniqueID>  (21) 
18

>  <SMILES>  (21) 
O=C(CCCOc1ccc(Cl)cc1Cl)[N-]/N=C\c1cccc(C(F)(F)F)c1

>  <Energy>  (21) 
40.06540969997561

>  <Genealogy>  (21) 
O=C(CCCOc1ccc(Cl)cc1Cl)[N-]N=Cc1cccc(C(F)(F)F)c1 (protonated)
O=C(CCCOc1ccc(Cl)cc1Cl)[N-]/N=C\c1cccc(C(F)(F)F)c1 (cis-trans isomerization)
O=C(CCCOc1ccc(Cl)cc1Cl)[N-]/N=C\c1cccc(C(F)(F)F)c1 (3D coordinates assigned)
O=C(CCCOc1ccc(Cl)cc1Cl)[N-]/N=C\c1cccc(C(F)(F)F)c1 (optimized conformer: 40.06540969997561 kcal/mol)

>  <smiles>  (21) 
O=C(CCCOc1ccc(Cl)cc1Cl)NN=Cc1cccc(C(F)(F)F)c1

>  <score_type>  (21) 
oracle

>  <origin>  (21) 
autodockgpu

>  <m_score__min__energy>  (21) 
-6.71

>  <m_primary>  (21) 
energy

>  <meeko>  (21) 
{"free_energy": -6.19, "intermolecular_energy": -9.18, "internal_energy": -1.01, "cluster_size": 8, "cluster_id": 1, "rank_in_cluster": 6}

>  <energy>  (21) 
-6.71

>  <cluster_rmsd>  (21) 
0.0

>  <rmsd>  (21) 
272.21

>  <cluster>  (21) 
1

$$$$
VHXSVHVNRGGTDL-UPLQUKELNA-M
     RDKit          3D

 41 42  0  0  0  0  0  0  0  0999 V2000
  140.7103   71.0116  221.9975 H   0  0  0  0  0  0  0  0  0  0  0  0
  140.5820   71.6570  222.8790 C   0  0  0  0  0  0  0  0  0  0  0  0
  140.7060   72.9420  222.7220 N   0  0  0  0  0  0  0  0  0  0  0  0
  139.6500   73.7680  222.3110 N   0  0  0  0  0  0  0  0  0  0  0  0
  139.8730   75.0880  221.8130 C   0  0  0  0  0  0  0  0  0  0  0  0
  140.7060   75.8280  222.3990 O   0  0  0  0  0  0  0  0  0  0  0  0
  139.1090   75.6250  220.6320 C   0  0  0  0  0  0  0  0  0  0  0  0
  138.0874   75.2179  220.6568 H   0  0  0  0  0  0  0  0  0  0  0  0
  139.1058   76.7226  220.7041 H   0  0  0  0  0  0  0  0  0  0  0  0
  139.7600   75.2440  219.2950 C   0  0  0  0  0  0  0  0  0  0  0  0
  139.0189   75.3752  218.4927 H   0  0  0  0  0  0  0  0  0  0  0  0
  140.6335   75.8972  219.1527 H   0  0  0  0  0  0  0  0  0  0  0  0
  140.2580   73.7920  219.2710 C   0  0  0  0  0  0  0  0  0  0  0  0
  140.2629   73.3941  220.2965 H   0  0  0  0  0  0  0  0  0  0  0  0
  139.5860   73.1961  218.6360 H   0  0  0  0  0  0  0  0  0  0  0  0
  141.5790   73.7250  218.7350 O   0  0  0  0  0  0  0  0  0  0  0  0
  142.7590   73.6100  219.4920 C   0  0  0  0  0  0  0  0  0  0  0  0
  143.1860   72.3840  220.0430 C   0  0  0  0  0  0  0  0  0  0  0  0
  142.5900   71.4741  219.8792 H   0  0  0  0  0  0  0  0  0  0  0  0
  144.3620   72.3180  220.7960 C   0  0  0  0  0  0  0  0  0  0  0  0
  144.6862   71.3585  221.2253 H   0  0  0  0  0  0  0  0  0  0  0  0
  145.1260   73.4690  221.0040 C   0  0  0  0  0  0  0  0  0  0  0  0
  146.6030   73.3830  221.9460 Cl  0  0  0  0  0  0  0  0  0  0  0  0
  144.7170   74.6870  220.4550 C   0  0  0  0  0  0  0  0  0  0  0  0
  145.3216   75.5917  220.6158 H   0  0  0  0  0  0  0  0  0  0  0  0
  143.5400   74.7590  219.7010 C   0  0  0  0  0  0  0  0  0  0  0  0
  143.0470   76.3050  219.0280 Cl  0  0  0  0  0  0  0  0  0  0  0  0
  140.2780   71.0140  224.1770 C   0  0  0  0  0  0  0  0  0  0  0  0
  139.5730   69.8000  224.2530 C   0  0  0  0  0  0  0  0  0  0  0  0
  139.2251   69.3094  223.3320 H   0  0  0  0  0  0  0  0  0  0  0  0
  139.3130   69.2150  225.4940 C   0  0  0  0  0  0  0  0  0  0  0  0
  138.7427   68.2760  225.5480 H   0  0  0  0  0  0  0  0  0  0  0  0
  139.7740   69.8170  226.6670 C   0  0  0  0  0  0  0  0  0  0  0  0
  139.5459   69.3615  227.6420 H   0  0  0  0  0  0  0  0  0  0  0  0
  140.5280   71.0020  226.6080 C   0  0  0  0  0  0  0  0  0  0  0  0
  141.0000   71.6770  227.8720 C   0  0  0  0  0  0  0  0  0  0  0  0
  141.8700   72.7130  227.5850 F   0  0  0  0  0  0  0  0  0  0  0  0
  139.9260   72.1960  228.5730 F   0  0  0  0  0  0  0  0  0  0  0  0
  141.6510   70.7500  228.6650 F   0  0  0  0  0  0  0  0  0  0  0  0
  140.7630   71.6010  225.3560 C   0  0  0  0  0  0  0  0  0  0  0  0
  141.3333   72.5400  225.3011 H   0  0  0  0  0  0  0  0  0  0  0  0
  1  2  1  0
  2  3  2  0
  3  4  1  0
  4  5  1  0
  5  6  2  0
  5  7  1  0
  7  8  1  0
  7  9  1  0
  7 10  1  0
 10 11  1  0
 10 12  1  0
 10 13  1  0
 13 14  1  0
 13 15  1  0
 13 16  1  0
 16 17  1  0
 17 18  2  0
 18 19  1  0
 18 20  1  0
 20 21  1  0
 20 22  2  0
 22 23  1  0
 22 24  1  0
 24 25  1  0
 24 26  2  0
 26 27  1  0
  2 28  1  0
 28 29  2  0
 29 30  1  0
 29 31  1  0
 31 32  1  0
 31 33  2  0
 33 34  1  0
 33 35  1  0
 35 36  1  0
 36 37  1  0
 36 38  1  0
 36 39  1  0
 35 40  2  0
 40 41  1  0
 26 17  1  0
 40 28  1  0
M  CHG  1   4  -1
M  END
>  <UniqueID>  (22) 
18

>  <SMILES>  (22) 
O=C(CCCOc1ccc(Cl)cc1Cl)[N-]/N=C\c1cccc(C(F)(F)F)c1

>  <Energy>  (22) 
40.06540969997561

>  <Genealogy>  (22) 
O=C(CCCOc1ccc(Cl)cc1Cl)[N-]N=Cc1cccc(C(F)(F)F)c1 (protonated)
O=C(CCCOc1ccc(Cl)cc1Cl)[N-]/N=C\c1cccc(C(F)(F)F)c1 (cis-trans isomerization)
O=C(CCCOc1ccc(Cl)cc1Cl)[N-]/N=C\c1cccc(C(F)(F)F)c1 (3D coordinates assigned)
O=C(CCCOc1ccc(Cl)cc1Cl)[N-]/N=C\c1cccc(C(F)(F)F)c1 (optimized conformer: 40.06540969997561 kcal/mol)

>  <smiles>  (22) 
O=C(CCCOc1ccc(Cl)cc1Cl)NN=Cc1cccc(C(F)(F)F)c1

>  <score_type>  (22) 
oracle

>  <origin>  (22) 
autodockgpu

>  <m_score__min__energy>  (22) 
-6.71

>  <m_primary>  (22) 
energy

>  <meeko>  (22) 
{"free_energy": -6.28, "intermolecular_energy": -9.26, "internal_energy": -1.42, "cluster_size": 4, "cluster_id": 4, "rank_in_cluster": 1}

>  <energy>  (22) 
-6.55

>  <cluster_rmsd>  (22) 
1.87

>  <rmsd>  (22) 
272.07

>  <cluster>  (22) 
1

$$$$
VHXSVHVNRGGTDL-UPLQUKELNA-M
     RDKit          3D

 41 42  0  0  0  0  0  0  0  0999 V2000
  137.5115   68.2165  224.7109 H   0  0  0  0  0  0  0  0  0  0  0  0
  138.3780   68.8900  224.6370 C   0  0  0  0  0  0  0  0  0  0  0  0
  138.5370   69.5660  223.5390 N   0  0  0  0  0  0  0  0  0  0  0  0
  138.7240   70.9570  223.5170 N   0  0  0  0  0  0  0  0  0  0  0  0
  139.9930   71.5430  223.2260 C   0  0  0  0  0  0  0  0  0  0  0  0
  140.6450   72.0820  224.1580 O   0  0  0  0  0  0  0  0  0  0  0  0
  140.5490   71.5660  221.8270 C   0  0  0  0  0  0  0  0  0  0  0  0
  141.6472   71.5377  221.8824 H   0  0  0  0  0  0  0  0  0  0  0  0
  140.1508   70.6910  221.2924 H   0  0  0  0  0  0  0  0  0  0  0  0
  140.1260   72.8220  221.0520 C   0  0  0  0  0  0  0  0  0  0  0  0
  140.9125   73.0674  220.3232 H   0  0  0  0  0  0  0  0  0  0  0  0
  139.1685   72.6009  220.5578 H   0  0  0  0  0  0  0  0  0  0  0  0
  139.9070   74.0360  221.9660 C   0  0  0  0  0  0  0  0  0  0  0  0
  138.9632   73.9091  222.5166 H   0  0  0  0  0  0  0  0  0  0  0  0
  140.7494   74.1084  222.6696 H   0  0  0  0  0  0  0  0  0  0  0  0
  139.8440   75.2360  221.1960 O   0  0  0  0  0  0  0  0  0  0  0  0
  140.2780   76.5020  221.6270 C   0  0  0  0  0  0  0  0  0  0  0  0
  139.6290   77.2140  222.6570 C   0  0  0  0  0  0  0  0  0  0  0  0
  138.7529   76.7750  223.1567 H   0  0  0  0  0  0  0  0  0  0  0  0
  140.0920   78.4740  223.0470 C   0  0  0  0  0  0  0  0  0  0  0  0
  139.5779   79.0237  223.8492 H   0  0  0  0  0  0  0  0  0  0  0  0
  141.2060   79.0360  222.4200 C   0  0  0  0  0  0  0  0  0  0  0  0
  141.7880   80.6160  222.9140 Cl  0  0  0  0  0  0  0  0  0  0  0  0
  141.8630   78.3370  221.4050 C   0  0  0  0  0  0  0  0  0  0  0  0
  142.7436   78.7786  220.9156 H   0  0  0  0  0  0  0  0  0  0  0  0
  141.4030   77.0750  221.0090 C   0  0  0  0  0  0  0  0  0  0  0  0
  142.2430   76.2210  219.7240 Cl  0  0  0  0  0  0  0  0  0  0  0  0
  139.2970   68.9750  225.7940 C   0  0  0  0  0  0  0  0  0  0  0  0
  139.9280   67.8360  226.3230 C   0  0  0  0  0  0  0  0  0  0  0  0
  139.7358   66.8477  225.8799 H   0  0  0  0  0  0  0  0  0  0  0  0
  140.7980   67.9540  227.4090 C   0  0  0  0  0  0  0  0  0  0  0  0
  141.2716   67.0558  227.8321 H   0  0  0  0  0  0  0  0  0  0  0  0
  141.0690   69.2090  227.9600 C   0  0  0  0  0  0  0  0  0  0  0  0
  141.7388   69.2920  228.8286 H   0  0  0  0  0  0  0  0  0  0  0  0
  140.4900   70.3670  227.4100 C   0  0  0  0  0  0  0  0  0  0  0  0
  140.7510   71.7210  228.0210 C   0  0  0  0  0  0  0  0  0  0  0  0
  139.6340   72.1840  228.6940 F   0  0  0  0  0  0  0  0  0  0  0  0
  141.8000   71.6510  228.9220 F   0  0  0  0  0  0  0  0  0  0  0  0
  141.0750   72.6170  227.0190 F   0  0  0  0  0  0  0  0  0  0  0  0
  139.5940   70.2370  226.3340 C   0  0  0  0  0  0  0  0  0  0  0  0
  139.1200   71.1346  225.9101 H   0  0  0  0  0  0  0  0  0  0  0  0
  1  2  1  0
  2  3  2  0
  3  4  1  0
  4  5  1  0
  5  6  2  0
  5  7  1  0
  7  8  1  0
  7  9  1  0
  7 10  1  0
 10 11  1  0
 10 12  1  0
 10 13  1  0
 13 14  1  0
 13 15  1  0
 13 16  1  0
 16 17  1  0
 17 18  2  0
 18 19  1  0
 18 20  1  0
 20 21  1  0
 20 22  2  0
 22 23  1  0
 22 24  1  0
 24 25  1  0
 24 26  2  0
 26 27  1  0
  2 28  1  0
 28 29  2  0
 29 30  1  0
 29 31  1  0
 31 32  1  0
 31 33  2  0
 33 34  1  0
 33 35  1  0
 35 36  1  0
 36 37  1  0
 36 38  1  0
 36 39  1  0
 35 40  2  0
 40 41  1  0
 26 17  1  0
 40 28  1  0
M  CHG  1   4  -1
M  END
>  <UniqueID>  (23) 
18

>  <SMILES>  (23) 
O=C(CCCOc1ccc(Cl)cc1Cl)[N-]/N=C\c1cccc(C(F)(F)F)c1

>  <Energy>  (23) 
40.06540969997561

>  <Genealogy>  (23) 
O=C(CCCOc1ccc(Cl)cc1Cl)[N-]N=Cc1cccc(C(F)(F)F)c1 (protonated)
O=C(CCCOc1ccc(Cl)cc1Cl)[N-]/N=C\c1cccc(C(F)(F)F)c1 (cis-trans isomerization)
O=C(CCCOc1ccc(Cl)cc1Cl)[N-]/N=C\c1cccc(C(F)(F)F)c1 (3D coordinates assigned)
O=C(CCCOc1ccc(Cl)cc1Cl)[N-]/N=C\c1cccc(C(F)(F)F)c1 (optimized conformer: 40.06540969997561 kcal/mol)

>  <smiles>  (23) 
O=C(CCCOc1ccc(Cl)cc1Cl)NN=Cc1cccc(C(F)(F)F)c1

>  <score_type>  (23) 
oracle

>  <origin>  (23) 
autodockgpu

>  <m_score__min__energy>  (23) 
-6.71

>  <m_primary>  (23) 
energy

>  <meeko>  (23) 
{"free_energy": -6.07, "intermolecular_energy": -9.05, "internal_energy": -0.99, "cluster_size": 1, "cluster_id": 5, "rank_in_cluster": 1}

>  <energy>  (23) 
-6.43

>  <cluster_rmsd>  (23) 
1.76

>  <rmsd>  (23) 
272.22

>  <cluster>  (23) 
1

$$$$
VHXSVHVNRGGTDL-UPLQUKELNA-M
     RDKit          3D

 41 42  0  0  0  0  0  0  0  0999 V2000
  141.1222   71.0488  222.0869 H   0  0  0  0  0  0  0  0  0  0  0  0
  140.7200   71.7060  222.8720 C   0  0  0  0  0  0  0  0  0  0  0  0
  140.6370   72.9790  222.6230 N   0  0  0  0  0  0  0  0  0  0  0  0
  139.4230   73.6300  222.3540 N   0  0  0  0  0  0  0  0  0  0  0  0
  139.3760   74.9840  221.9030 C   0  0  0  0  0  0  0  0  0  0  0  0
  139.3040   75.9090  222.7550 O   0  0  0  0  0  0  0  0  0  0  0  0
  139.3730   75.3270  220.4380 C   0  0  0  0  0  0  0  0  0  0  0  0
  140.3402   75.0332  220.0041 H   0  0  0  0  0  0  0  0  0  0  0  0
  138.5397   74.7846  219.9675 H   0  0  0  0  0  0  0  0  0  0  0  0
  139.1560   76.8270  220.1900 C   0  0  0  0  0  0  0  0  0  0  0  0
  138.0890   76.9991  219.9855 H   0  0  0  0  0  0  0  0  0  0  0  0
  139.4895   77.3643  221.0901 H   0  0  0  0  0  0  0  0  0  0  0  0
  139.9750   77.3560  219.0040 C   0  0  0  0  0  0  0  0  0  0  0  0
  140.0906   76.5557  218.2582 H   0  0  0  0  0  0  0  0  0  0  0  0
  139.4471   78.2134  218.5612 H   0  0  0  0  0  0  0  0  0  0  0  0
  141.2660   77.7830  219.4390 O   0  0  0  0  0  0  0  0  0  0  0  0
  141.5180   78.5910  220.5630 C   0  0  0  0  0  0  0  0  0  0  0  0
  141.4660   78.0920  221.8810 C   0  0  0  0  0  0  0  0  0  0  0  0
  141.2262   77.0327  222.0550 H   0  0  0  0  0  0  0  0  0  0  0  0
  141.7170   78.9340  222.9670 C   0  0  0  0  0  0  0  0  0  0  0  0
  141.6713   78.5367  223.9917 H   0  0  0  0  0  0  0  0  0  0  0  0
  142.0260   80.2800  222.7540 C   0  0  0  0  0  0  0  0  0  0  0  0
  142.3440   81.3340  224.1190 Cl  0  0  0  0  0  0  0  0  0  0  0  0
  142.0890   80.7840  221.4530 C   0  0  0  0  0  0  0  0  0  0  0  0
  142.3364   81.8428  221.2863 H   0  0  0  0  0  0  0  0  0  0  0  0
  141.8380   79.9450  220.3600 C   0  0  0  0  0  0  0  0  0  0  0  0
  141.9170   80.6070  218.7350 Cl  0  0  0  0  0  0  0  0  0  0  0  0
  140.3040   71.0910  224.1520 C   0  0  0  0  0  0  0  0  0  0  0  0
  139.4950   69.9420  224.1910 C   0  0  0  0  0  0  0  0  0  0  0  0
  139.1475   69.4840  223.2532 H   0  0  0  0  0  0  0  0  0  0  0  0
  139.1310   69.3800  225.4170 C   0  0  0  0  0  0  0  0  0  0  0  0
  138.4797   68.4939  225.4417 H   0  0  0  0  0  0  0  0  0  0  0  0
  139.5910   69.9390  226.6120 C   0  0  0  0  0  0  0  0  0  0  0  0
  139.2827   69.5038  227.5741 H   0  0  0  0  0  0  0  0  0  0  0  0
  140.4460   71.0550  226.5910 C   0  0  0  0  0  0  0  0  0  0  0  0
  140.9180   71.6850  227.8780 C   0  0  0  0  0  0  0  0  0  0  0  0
  141.8290   72.6960  227.6290 F   0  0  0  0  0  0  0  0  0  0  0  0
  139.8500   72.2270  228.5720 F   0  0  0  0  0  0  0  0  0  0  0  0
  141.5220   70.7200  228.6610 F   0  0  0  0  0  0  0  0  0  0  0  0
  140.7860   71.6320  225.3540 C   0  0  0  0  0  0  0  0  0  0  0  0
  141.4375   72.5179  225.3284 H   0  0  0  0  0  0  0  0  0  0  0  0
  1  2  1  0
  2  3  2  0
  3  4  1  0
  4  5  1  0
  5  6  2  0
  5  7  1  0
  7  8  1  0
  7  9  1  0
  7 10  1  0
 10 11  1  0
 10 12  1  0
 10 13  1  0
 13 14  1  0
 13 15  1  0
 13 16  1  0
 16 17  1  0
 17 18  2  0
 18 19  1  0
 18 20  1  0
 20 21  1  0
 20 22  2  0
 22 23  1  0
 22 24  1  0
 24 25  1  0
 24 26  2  0
 26 27  1  0
  2 28  1  0
 28 29  2  0
 29 30  1  0
 29 31  1  0
 31 32  1  0
 31 33  2  0
 33 34  1  0
 33 35  1  0
 35 36  1  0
 36 37  1  0
 36 38  1  0
 36 39  1  0
 35 40  2  0
 40 41  1  0
 26 17  1  0
 40 28  1  0
M  CHG  1   4  -1
M  END
>  <UniqueID>  (24) 
18

>  <SMILES>  (24) 
O=C(CCCOc1ccc(Cl)cc1Cl)[N-]/N=C\c1cccc(C(F)(F)F)c1

>  <Energy>  (24) 
40.06540969997561

>  <Genealogy>  (24) 
O=C(CCCOc1ccc(Cl)cc1Cl)[N-]N=Cc1cccc(C(F)(F)F)c1 (protonated)
O=C(CCCOc1ccc(Cl)cc1Cl)[N-]/N=C\c1cccc(C(F)(F)F)c1 (cis-trans isomerization)
O=C(CCCOc1ccc(Cl)cc1Cl)[N-]/N=C\c1cccc(C(F)(F)F)c1 (3D coordinates assigned)
O=C(CCCOc1ccc(Cl)cc1Cl)[N-]/N=C\c1cccc(C(F)(F)F)c1 (optimized conformer: 40.06540969997561 kcal/mol)

>  <smiles>  (24) 
O=C(CCCOc1ccc(Cl)cc1Cl)NN=Cc1cccc(C(F)(F)F)c1

>  <score_type>  (24) 
oracle

>  <origin>  (24) 
autodockgpu

>  <m_score__min__energy>  (24) 
-6.71

>  <m_primary>  (24) 
energy

>  <meeko>  (24) 
{"free_energy": -6.18, "intermolecular_energy": -9.16, "internal_energy": -0.85, "cluster_size": 8, "cluster_id": 1, "rank_in_cluster": 7}

>  <energy>  (24) 
-6.4

>  <cluster_rmsd>  (24) 
1.91

>  <rmsd>  (24) 
272.05

>  <cluster>  (24) 
1

$$$$
VHXSVHVNRGGTDL-UPLQUKELNA-M
     RDKit          3D

 41 42  0  0  0  0  0  0  0  0999 V2000
  139.4252   76.1406  222.9649 H   0  0  0  0  0  0  0  0  0  0  0  0
  140.3060   76.1400  222.3060 C   0  0  0  0  0  0  0  0  0  0  0  0
  140.8380   74.9960  221.9950 N   0  0  0  0  0  0  0  0  0  0  0  0
  140.2520   73.7640  222.3250 N   0  0  0  0  0  0  0  0  0  0  0  0
  139.8650   72.8200  221.3260 C   0  0  0  0  0  0  0  0  0  0  0  0
  140.4610   71.7130  221.2690 O   0  0  0  0  0  0  0  0  0  0  0  0
  138.7900   73.1340  220.3200 C   0  0  0  0  0  0  0  0  0  0  0  0
  138.1293   72.2598  220.2239 H   0  0  0  0  0  0  0  0  0  0  0  0
  138.2399   74.0160  220.6799 H   0  0  0  0  0  0  0  0  0  0  0  0
  139.3660   73.4720  218.9370 C   0  0  0  0  0  0  0  0  0  0  0  0
  139.8739   72.5809  218.5396 H   0  0  0  0  0  0  0  0  0  0  0  0
  138.5289   73.7825  218.2945 H   0  0  0  0  0  0  0  0  0  0  0  0
  140.3720   74.6320  218.9830 C   0  0  0  0  0  0  0  0  0  0  0  0
  140.0108   75.4501  218.3425 H   0  0  0  0  0  0  0  0  0  0  0  0
  140.4682   74.9787  220.0225 H   0  0  0  0  0  0  0  0  0  0  0  0
  141.6520   74.2020  218.5190 O   0  0  0  0  0  0  0  0  0  0  0  0
  142.7760   73.9750  219.3330 C   0  0  0  0  0  0  0  0  0  0  0  0
  143.0840   72.7040  219.8590 C   0  0  0  0  0  0  0  0  0  0  0  0
  142.4350   71.8459  219.6299 H   0  0  0  0  0  0  0  0  0  0  0  0
  144.2090   72.5270  220.6700 C   0  0  0  0  0  0  0  0  0  0  0  0
  144.4399   71.5325  221.0794 H   0  0  0  0  0  0  0  0  0  0  0  0
  145.0400   73.6110  220.9610 C   0  0  0  0  0  0  0  0  0  0  0  0
  146.4540   73.3850  221.9760 Cl  0  0  0  0  0  0  0  0  0  0  0  0
  144.7510   74.8730  220.4380 C   0  0  0  0  0  0  0  0  0  0  0  0
  145.4091   75.7249  220.6643 H   0  0  0  0  0  0  0  0  0  0  0  0
  143.6250   75.0560  219.6260 C   0  0  0  0  0  0  0  0  0  0  0  0
  143.2800   76.6570  218.9870 Cl  0  0  0  0  0  0  0  0  0  0  0  0
  140.8180   77.4420  221.8240 C   0  0  0  0  0  0  0  0  0  0  0  0
  140.6300   77.8650  220.4970 C   0  0  0  0  0  0  0  0  0  0  0  0
  140.0978   77.2165  219.7856 H   0  0  0  0  0  0  0  0  0  0  0  0
  141.1160   79.1050  220.0780 C   0  0  0  0  0  0  0  0  0  0  0  0
  140.9842   79.4207  219.0325 H   0  0  0  0  0  0  0  0  0  0  0  0
  141.7690   79.9460  220.9820 C   0  0  0  0  0  0  0  0  0  0  0  0
  142.1683   80.9121  220.6396 H   0  0  0  0  0  0  0  0  0  0  0  0
  141.9190   79.5650  222.3270 C   0  0  0  0  0  0  0  0  0  0  0  0
  142.6540   80.4520  223.3000 C   0  0  0  0  0  0  0  0  0  0  0  0
  142.5390   79.9720  224.5930 F   0  0  0  0  0  0  0  0  0  0  0  0
  143.9990   80.5130  222.9800 F   0  0  0  0  0  0  0  0  0  0  0  0
  142.1200   81.7270  223.2460 F   0  0  0  0  0  0  0  0  0  0  0  0
  141.4510   78.3020  222.7350 C   0  0  0  0  0  0  0  0  0  0  0  0
  141.5828   77.9851  223.7801 H   0  0  0  0  0  0  0  0  0  0  0  0
  1  2  1  0
  2  3  2  0
  3  4  1  0
  4  5  1  0
  5  6  2  0
  5  7  1  0
  7  8  1  0
  7  9  1  0
  7 10  1  0
 10 11  1  0
 10 12  1  0
 10 13  1  0
 13 14  1  0
 13 15  1  0
 13 16  1  0
 16 17  1  0
 17 18  2  0
 18 19  1  0
 18 20  1  0
 20 21  1  0
 20 22  2  0
 22 23  1  0
 22 24  1  0
 24 25  1  0
 24 26  2  0
 26 27  1  0
  2 28  1  0
 28 29  2  0
 29 30  1  0
 29 31  1  0
 31 32  1  0
 31 33  2  0
 33 34  1  0
 33 35  1  0
 35 36  1  0
 36 37  1  0
 36 38  1  0
 36 39  1  0
 35 40  2  0
 40 41  1  0
 26 17  1  0
 40 28  1  0
M  CHG  1   4  -1
M  END
>  <UniqueID>  (25) 
18

>  <SMILES>  (25) 
O=C(CCCOc1ccc(Cl)cc1Cl)[N-]/N=C\c1cccc(C(F)(F)F)c1

>  <Energy>  (25) 
40.06540969997561

>  <Genealogy>  (25) 
O=C(CCCOc1ccc(Cl)cc1Cl)[N-]N=Cc1cccc(C(F)(F)F)c1 (protonated)
O=C(CCCOc1ccc(Cl)cc1Cl)[N-]/N=C\c1cccc(C(F)(F)F)c1 (cis-trans isomerization)
O=C(CCCOc1ccc(Cl)cc1Cl)[N-]/N=C\c1cccc(C(F)(F)F)c1 (3D coordinates assigned)
O=C(CCCOc1ccc(Cl)cc1Cl)[N-]/N=C\c1cccc(C(F)(F)F)c1 (optimized conformer: 40.06540969997561 kcal/mol)

>  <smiles>  (25) 
O=C(CCCOc1ccc(Cl)cc1Cl)NN=Cc1cccc(C(F)(F)F)c1

>  <score_type>  (25) 
oracle

>  <origin>  (25) 
autodockgpu

>  <m_score__min__energy>  (25) 
-6.71

>  <m_primary>  (25) 
energy

>  <meeko>  (25) 
{"free_energy": -4.97, "intermolecular_energy": -7.95, "internal_energy": -2.0, "cluster_size": 1, "cluster_id": 8, "rank_in_cluster": 1}

>  <energy>  (25) 
-6.4

>  <cluster_rmsd>  (25) 
1.39

>  <rmsd>  (25) 
272.01

>  <cluster>  (25) 
1

$$$$
VHXSVHVNRGGTDL-UPLQUKELNA-M
     RDKit          3D

 41 42  0  0  0  0  0  0  0  0999 V2000
  137.8577   69.1458  223.9814 H   0  0  0  0  0  0  0  0  0  0  0  0
  138.7910   69.7150  224.1040 C   0  0  0  0  0  0  0  0  0  0  0  0
  139.1640   70.4970  223.1350 N   0  0  0  0  0  0  0  0  0  0  0  0
  138.8640   71.8680  223.1000 N   0  0  0  0  0  0  0  0  0  0  0  0
  139.6250   72.7870  222.3150 C   0  0  0  0  0  0  0  0  0  0  0  0
  140.7610   73.1440  222.7230 O   0  0  0  0  0  0  0  0  0  0  0  0
  139.0850   73.3640  221.0340 C   0  0  0  0  0  0  0  0  0  0  0  0
  139.8985   73.8887  220.5116 H   0  0  0  0  0  0  0  0  0  0  0  0
  138.6905   72.5333  220.4304 H   0  0  0  0  0  0  0  0  0  0  0  0
  137.9360   74.3540  221.2800 C   0  0  0  0  0  0  0  0  0  0  0  0
  137.6739   74.8333  220.3252 H   0  0  0  0  0  0  0  0  0  0  0  0
  137.0907   73.7856  221.6952 H   0  0  0  0  0  0  0  0  0  0  0  0
  138.3030   75.4470  222.2940 C   0  0  0  0  0  0  0  0  0  0  0  0
  137.4238   75.6752  222.9144 H   0  0  0  0  0  0  0  0  0  0  0  0
  139.1283   75.0848  222.9247 H   0  0  0  0  0  0  0  0  0  0  0  0
  138.7230   76.6330  221.6200 O   0  0  0  0  0  0  0  0  0  0  0  0
  139.5960   77.6010  222.1470 C   0  0  0  0  0  0  0  0  0  0  0  0
  139.1820   78.5530  223.1020 C   0  0  0  0  0  0  0  0  0  0  0  0
  138.1431   78.5486  223.4634 H   0  0  0  0  0  0  0  0  0  0  0  0
  140.0840   79.5020  223.5920 C   0  0  0  0  0  0  0  0  0  0  0  0
  139.7524   80.2422  224.3350 H   0  0  0  0  0  0  0  0  0  0  0  0
  141.4050   79.5120  223.1400 C   0  0  0  0  0  0  0  0  0  0  0  0
  142.5360   80.7030  223.7600 Cl  0  0  0  0  0  0  0  0  0  0  0  0
  141.8290   78.5690  222.2010 C   0  0  0  0  0  0  0  0  0  0  0  0
  142.8711   78.5754  221.8489 H   0  0  0  0  0  0  0  0  0  0  0  0
  140.9310   77.6160  221.7070 C   0  0  0  0  0  0  0  0  0  0  0  0
  141.4900   76.4470  220.5200 Cl  0  0  0  0  0  0  0  0  0  0  0  0
  139.5510   69.5470  225.3630 C   0  0  0  0  0  0  0  0  0  0  0  0
  139.9670   68.2820  225.8130 C   0  0  0  0  0  0  0  0  0  0  0  0
  139.7194   67.3838  225.2282 H   0  0  0  0  0  0  0  0  0  0  0  0
  140.6930   68.1610  226.9990 C   0  0  0  0  0  0  0  0  0  0  0  0
  140.9970   67.1661  227.3563 H   0  0  0  0  0  0  0  0  0  0  0  0
  141.0350   69.2990  227.7340 C   0  0  0  0  0  0  0  0  0  0  0  0
  141.5874   69.1938  228.6794 H   0  0  0  0  0  0  0  0  0  0  0  0
  140.6770   70.5780  227.2720 C   0  0  0  0  0  0  0  0  0  0  0  0
  141.0130   71.8080  228.0770 C   0  0  0  0  0  0  0  0  0  0  0  0
  141.9730   71.5270  229.0330 F   0  0  0  0  0  0  0  0  0  0  0  0
  141.5020   72.8070  227.2540 F   0  0  0  0  0  0  0  0  0  0  0  0
  139.8700   72.2640  228.7090 F   0  0  0  0  0  0  0  0  0  0  0  0
  139.9210   70.6900  226.0900 C   0  0  0  0  0  0  0  0  0  0  0  0
  139.6165   71.6844  225.7316 H   0  0  0  0  0  0  0  0  0  0  0  0
  1  2  1  0
  2  3  2  0
  3  4  1  0
  4  5  1  0
  5  6  2  0
  5  7  1  0
  7  8  1  0
  7  9  1  0
  7 10  1  0
 10 11  1  0
 10 12  1  0
 10 13  1  0
 13 14  1  0
 13 15  1  0
 13 16  1  0
 16 17  1  0
 17 18  2  0
 18 19  1  0
 18 20  1  0
 20 21  1  0
 20 22  2  0
 22 23  1  0
 22 24  1  0
 24 25  1  0
 24 26  2  0
 26 27  1  0
  2 28  1  0
 28 29  2  0
 29 30  1  0
 29 31  1  0
 31 32  1  0
 31 33  2  0
 33 34  1  0
 33 35  1  0
 35 36  1  0
 36 37  1  0
 36 38  1  0
 36 39  1  0
 35 40  2  0
 40 41  1  0
 26 17  1  0
 40 28  1  0
M  CHG  1   4  -1
M  END
>  <UniqueID>  (26) 
18

>  <SMILES>  (26) 
O=C(CCCOc1ccc(Cl)cc1Cl)[N-]/N=C\c1cccc(C(F)(F)F)c1

>  <Energy>  (26) 
40.06540969997561

>  <Genealogy>  (26) 
O=C(CCCOc1ccc(Cl)cc1Cl)[N-]N=Cc1cccc(C(F)(F)F)c1 (protonated)
O=C(CCCOc1ccc(Cl)cc1Cl)[N-]/N=C\c1cccc(C(F)(F)F)c1 (cis-trans isomerization)
O=C(CCCOc1ccc(Cl)cc1Cl)[N-]/N=C\c1cccc(C(F)(F)F)c1 (3D coordinates assigned)
O=C(CCCOc1ccc(Cl)cc1Cl)[N-]/N=C\c1cccc(C(F)(F)F)c1 (optimized conformer: 40.06540969997561 kcal/mol)

>  <smiles>  (26) 
O=C(CCCOc1ccc(Cl)cc1Cl)NN=Cc1cccc(C(F)(F)F)c1

>  <score_type>  (26) 
oracle

>  <origin>  (26) 
autodockgpu

>  <m_score__min__energy>  (26) 
-6.71

>  <m_primary>  (26) 
energy

>  <meeko>  (26) 
{"free_energy": -6.4, "intermolecular_energy": -9.38, "internal_energy": -0.95, "cluster_size": 8, "cluster_id": 1, "rank_in_cluster": 4}

>  <energy>  (26) 
-6.19

>  <cluster_rmsd>  (26) 
1.47

>  <rmsd>  (26) 
272.01

>  <cluster>  (26) 
1

$$$$
VHXSVHVNRGGTDL-UPLQUKELNA-M
     RDKit          3D

 41 42  0  0  0  0  0  0  0  0999 V2000
  140.6334   70.6982  222.8477 H   0  0  0  0  0  0  0  0  0  0  0  0
  140.4390   71.4550  223.6220 C   0  0  0  0  0  0  0  0  0  0  0  0
  140.0320   72.6290  223.2430 N   0  0  0  0  0  0  0  0  0  0  0  0
  140.7340   73.4220  222.3230 N   0  0  0  0  0  0  0  0  0  0  0  0
  140.1870   73.7620  221.0480 C   0  0  0  0  0  0  0  0  0  0  0  0
  140.3760   72.9850  220.0760 O   0  0  0  0  0  0  0  0  0  0  0  0
  139.4260   75.0430  220.8330 C   0  0  0  0  0  0  0  0  0  0  0  0
  140.0460   75.8845  221.1757 H   0  0  0  0  0  0  0  0  0  0  0  0
  139.1980   75.1228  219.7598 H   0  0  0  0  0  0  0  0  0  0  0  0
  138.0950   75.0660  221.5990 C   0  0  0  0  0  0  0  0  0  0  0  0
  137.2970   75.3772  220.9089 H   0  0  0  0  0  0  0  0  0  0  0  0
  137.9202   74.0538  221.9925 H   0  0  0  0  0  0  0  0  0  0  0  0
  138.1160   76.0310  222.7930 C   0  0  0  0  0  0  0  0  0  0  0  0
  137.1490   75.9822  223.3150 H   0  0  0  0  0  0  0  0  0  0  0  0
  138.9291   75.7379  223.4734 H   0  0  0  0  0  0  0  0  0  0  0  0
  138.3440   77.3690  222.3500 O   0  0  0  0  0  0  0  0  0  0  0  0
  139.4490   78.1640  222.7020 C   0  0  0  0  0  0  0  0  0  0  0  0
  140.7790   77.7130  222.5690 C   0  0  0  0  0  0  0  0  0  0  0  0
  140.9778   76.7068  222.1714 H   0  0  0  0  0  0  0  0  0  0  0  0
  141.8450   78.5360  222.9390 C   0  0  0  0  0  0  0  0  0  0  0  0
  142.8789   78.1752  222.8348 H   0  0  0  0  0  0  0  0  0  0  0  0
  141.6010   79.8160  223.4410 C   0  0  0  0  0  0  0  0  0  0  0  0
  142.9430   80.8490  223.9010 Cl  0  0  0  0  0  0  0  0  0  0  0  0
  140.2890   80.2780  223.5690 C   0  0  0  0  0  0  0  0  0  0  0  0
  140.0983   81.2882  223.9602 H   0  0  0  0  0  0  0  0  0  0  0  0
  139.2160   79.4570  223.2000 C   0  0  0  0  0  0  0  0  0  0  0  0
  137.5760   80.0610  223.3790 Cl  0  0  0  0  0  0  0  0  0  0  0  0
  140.6560   71.0780  225.0370 C   0  0  0  0  0  0  0  0  0  0  0  0
  140.9130   72.0410  226.0280 C   0  0  0  0  0  0  0  0  0  0  0  0
  140.9663   73.1057  225.7568 H   0  0  0  0  0  0  0  0  0  0  0  0
  141.1010   71.6510  227.3560 C   0  0  0  0  0  0  0  0  0  0  0  0
  141.3239   72.4075  228.1229 H   0  0  0  0  0  0  0  0  0  0  0  0
  141.0070   70.3040  227.7140 C   0  0  0  0  0  0  0  0  0  0  0  0
  141.1772   70.0022  228.7580 H   0  0  0  0  0  0  0  0  0  0  0  0
  140.6960   69.3320  226.7470 C   0  0  0  0  0  0  0  0  0  0  0  0
  140.6270   67.8720  227.1190 C   0  0  0  0  0  0  0  0  0  0  0  0
  141.1970   67.6500  228.3600 F   0  0  0  0  0  0  0  0  0  0  0  0
  139.3110   67.4460  227.1660 F   0  0  0  0  0  0  0  0  0  0  0  0
  141.3090   67.1290  226.1730 F   0  0  0  0  0  0  0  0  0  0  0  0
  140.5350   69.7290  225.4060 C   0  0  0  0  0  0  0  0  0  0  0  0
  140.3118   68.9734  224.6384 H   0  0  0  0  0  0  0  0  0  0  0  0
  1  2  1  0
  2  3  2  0
  3  4  1  0
  4  5  1  0
  5  6  2  0
  5  7  1  0
  7  8  1  0
  7  9  1  0
  7 10  1  0
 10 11  1  0
 10 12  1  0
 10 13  1  0
 13 14  1  0
 13 15  1  0
 13 16  1  0
 16 17  1  0
 17 18  2  0
 18 19  1  0
 18 20  1  0
 20 21  1  0
 20 22  2  0
 22 23  1  0
 22 24  1  0
 24 25  1  0
 24 26  2  0
 26 27  1  0
  2 28  1  0
 28 29  2  0
 29 30  1  0
 29 31  1  0
 31 32  1  0
 31 33  2  0
 33 34  1  0
 33 35  1  0
 35 36  1  0
 36 37  1  0
 36 38  1  0
 36 39  1  0
 35 40  2  0
 40 41  1  0
 26 17  1  0
 40 28  1  0
M  CHG  1   4  -1
M  END
>  <UniqueID>  (27) 
18

>  <SMILES>  (27) 
O=C(CCCOc1ccc(Cl)cc1Cl)[N-]/N=C\c1cccc(C(F)(F)F)c1

>  <Energy>  (27) 
40.06540969997561

>  <Genealogy>  (27) 
O=C(CCCOc1ccc(Cl)cc1Cl)[N-]N=Cc1cccc(C(F)(F)F)c1 (protonated)
O=C(CCCOc1ccc(Cl)cc1Cl)[N-]/N=C\c1cccc(C(F)(F)F)c1 (cis-trans isomerization)
O=C(CCCOc1ccc(Cl)cc1Cl)[N-]/N=C\c1cccc(C(F)(F)F)c1 (3D coordinates assigned)
O=C(CCCOc1ccc(Cl)cc1Cl)[N-]/N=C\c1cccc(C(F)(F)F)c1 (optimized conformer: 40.06540969997561 kcal/mol)

>  <smiles>  (27) 
O=C(CCCOc1ccc(Cl)cc1Cl)NN=Cc1cccc(C(F)(F)F)c1

>  <score_type>  (27) 
oracle

>  <origin>  (27) 
autodockgpu

>  <m_score__min__energy>  (27) 
-6.71

>  <m_primary>  (27) 
energy

>  <meeko>  (27) 
{"free_energy": -6.58, "intermolecular_energy": -9.57, "internal_energy": -0.86, "cluster_size": 2, "cluster_id": 2, "rank_in_cluster": 2}

>  <energy>  (27) 
-6.18

>  <cluster_rmsd>  (27) 
1.63

>  <rmsd>  (27) 
271.9

>  <cluster>  (27) 
1

$$$$
VHXSVHVNRGGTDL-UPLQUKELNA-M
     RDKit          3D

 41 42  0  0  0  0  0  0  0  0999 V2000
  138.8619   70.4157  222.9476 H   0  0  0  0  0  0  0  0  0  0  0  0
  139.7510   70.9710  223.2810 C   0  0  0  0  0  0  0  0  0  0  0  0
  140.3540   71.7350  222.4210 N   0  0  0  0  0  0  0  0  0  0  0  0
  140.6560   73.0820  222.6730 N   0  0  0  0  0  0  0  0  0  0  0  0
  140.3090   74.1180  221.7540 C   0  0  0  0  0  0  0  0  0  0  0  0
  140.6850   75.2960  221.9920 O   0  0  0  0  0  0  0  0  0  0  0  0
  139.4750   73.8420  220.5320 C   0  0  0  0  0  0  0  0  0  0  0  0
  138.6018   73.2421  220.8279 H   0  0  0  0  0  0  0  0  0  0  0  0
  139.1722   74.8099  220.1060 H   0  0  0  0  0  0  0  0  0  0  0  0
  140.2560   73.0780  219.4530 C   0  0  0  0  0  0  0  0  0  0  0  0
  141.1817   72.6859  219.8995 H   0  0  0  0  0  0  0  0  0  0  0  0
  139.6088   72.2688  219.0838 H   0  0  0  0  0  0  0  0  0  0  0  0
  140.6250   73.9620  218.2530 C   0  0  0  0  0  0  0  0  0  0  0  0
  140.0267   73.6576  217.3816 H   0  0  0  0  0  0  0  0  0  0  0  0
  140.4175   75.0119  218.5074 H   0  0  0  0  0  0  0  0  0  0  0  0
  142.0110   73.8280  217.9410 O   0  0  0  0  0  0  0  0  0  0  0  0
  143.0470   73.6930  218.8820 C   0  0  0  0  0  0  0  0  0  0  0  0
  143.6130   72.4430  219.2100 C   0  0  0  0  0  0  0  0  0  0  0  0
  143.2468   71.5306  218.7165 H   0  0  0  0  0  0  0  0  0  0  0  0
  144.6360   72.3570  220.1580 C   0  0  0  0  0  0  0  0  0  0  0  0
  145.0704   71.3782  220.4094 H   0  0  0  0  0  0  0  0  0  0  0  0
  145.1080   73.5110  220.7870 C   0  0  0  0  0  0  0  0  0  0  0  0
  146.3950   73.3990  221.9750 Cl  0  0  0  0  0  0  0  0  0  0  0  0
  144.5610   74.7550  220.4650 C   0  0  0  0  0  0  0  0  0  0  0  0
  144.9364   75.6638  220.9581 H   0  0  0  0  0  0  0  0  0  0  0  0
  143.5360   74.8480  219.5160 C   0  0  0  0  0  0  0  0  0  0  0  0
  142.8610   76.4250  219.1350 Cl  0  0  0  0  0  0  0  0  0  0  0  0
  140.1920   70.8050  224.6840 C   0  0  0  0  0  0  0  0  0  0  0  0
  140.6790   71.8870  225.4380 C   0  0  0  0  0  0  0  0  0  0  0  0
  140.7477   72.8858  224.9823 H   0  0  0  0  0  0  0  0  0  0  0  0
  141.0760   71.6980  226.7640 C   0  0  0  0  0  0  0  0  0  0  0  0
  141.4759   72.5440  227.3422 H   0  0  0  0  0  0  0  0  0  0  0  0
  140.9670   70.4390  227.3580 C   0  0  0  0  0  0  0  0  0  0  0  0
  141.3025   70.2930  228.3954 H   0  0  0  0  0  0  0  0  0  0  0  0
  140.4310   69.3570  226.6380 C   0  0  0  0  0  0  0  0  0  0  0  0
  140.3420   67.9870  227.2620 C   0  0  0  0  0  0  0  0  0  0  0  0
  139.1930   67.3320  226.8580 F   0  0  0  0  0  0  0  0  0  0  0  0
  141.4310   67.2160  226.8940 F   0  0  0  0  0  0  0  0  0  0  0  0
  140.3260   68.1150  228.6390 F   0  0  0  0  0  0  0  0  0  0  0  0
  140.0590   69.5490  225.2950 C   0  0  0  0  0  0  0  0  0  0  0  0
  139.6587   68.7035  224.7164 H   0  0  0  0  0  0  0  0  0  0  0  0
  1  2  1  0
  2  3  2  0
  3  4  1  0
  4  5  1  0
  5  6  2  0
  5  7  1  0
  7  8  1  0
  7  9  1  0
  7 10  1  0
 10 11  1  0
 10 12  1  0
 10 13  1  0
 13 14  1  0
 13 15  1  0
 13 16  1  0
 16 17  1  0
 17 18  2  0
 18 19  1  0
 18 20  1  0
 20 21  1  0
 20 22  2  0
 22 23  1  0
 22 24  1  0
 24 25  1  0
 24 26  2  0
 26 27  1  0
  2 28  1  0
 28 29  2  0
 29 30  1  0
 29 31  1  0
 31 32  1  0
 31 33  2  0
 33 34  1  0
 33 35  1  0
 35 36  1  0
 36 37  1  0
 36 38  1  0
 36 39  1  0
 35 40  2  0
 40 41  1  0
 26 17  1  0
 40 28  1  0
M  CHG  1   4  -1
M  END
>  <UniqueID>  (28) 
18

>  <SMILES>  (28) 
O=C(CCCOc1ccc(Cl)cc1Cl)[N-]/N=C\c1cccc(C(F)(F)F)c1

>  <Energy>  (28) 
40.06540969997561

>  <Genealogy>  (28) 
O=C(CCCOc1ccc(Cl)cc1Cl)[N-]N=Cc1cccc(C(F)(F)F)c1 (protonated)
O=C(CCCOc1ccc(Cl)cc1Cl)[N-]/N=C\c1cccc(C(F)(F)F)c1 (cis-trans isomerization)
O=C(CCCOc1ccc(Cl)cc1Cl)[N-]/N=C\c1cccc(C(F)(F)F)c1 (3D coordinates assigned)
O=C(CCCOc1ccc(Cl)cc1Cl)[N-]/N=C\c1cccc(C(F)(F)F)c1 (optimized conformer: 40.06540969997561 kcal/mol)

>  <smiles>  (28) 
O=C(CCCOc1ccc(Cl)cc1Cl)NN=Cc1cccc(C(F)(F)F)c1

>  <score_type>  (28) 
oracle

>  <origin>  (28) 
autodockgpu

>  <m_score__min__energy>  (28) 
-6.71

>  <m_primary>  (28) 
energy

>  <meeko>  (28) 
{"free_energy": -5.94, "intermolecular_energy": -8.92, "internal_energy": -1.27, "cluster_size": 4, "cluster_id": 4, "rank_in_cluster": 3}

>  <energy>  (28) 
-6.17

>  <cluster_rmsd>  (28) 
1.05

>  <rmsd>  (28) 
272.01

>  <cluster>  (28) 
1

$$$$
VHXSVHVNRGGTDL-UPLQUKELNA-M
     RDKit          3D

 41 42  0  0  0  0  0  0  0  0999 V2000
  141.9314   76.3253  222.2118 H   0  0  0  0  0  0  0  0  0  0  0  0
  140.9520   76.8210  222.2830 C   0  0  0  0  0  0  0  0  0  0  0  0
  139.9030   76.1670  221.8820 N   0  0  0  0  0  0  0  0  0  0  0  0
  139.5730   74.8880  222.3550 N   0  0  0  0  0  0  0  0  0  0  0  0
  140.0950   73.7020  221.7540 C   0  0  0  0  0  0  0  0  0  0  0  0
  141.2890   73.3770  221.9840 O   0  0  0  0  0  0  0  0  0  0  0  0
  139.2650   72.8570  220.8250 C   0  0  0  0  0  0  0  0  0  0  0  0
  138.6391   73.5191  220.2087 H   0  0  0  0  0  0  0  0  0  0  0  0
  139.9528   72.2631  220.2052 H   0  0  0  0  0  0  0  0  0  0  0  0
  138.3540   71.8810  221.5830 C   0  0  0  0  0  0  0  0  0  0  0  0
  137.3073   72.1752  221.4164 H   0  0  0  0  0  0  0  0  0  0  0  0
  138.5585   70.8703  221.2000 H   0  0  0  0  0  0  0  0  0  0  0  0
  138.6260   71.8680  223.0940 C   0  0  0  0  0  0  0  0  0  0  0  0
  138.8220   72.8951  223.4356 H   0  0  0  0  0  0  0  0  0  0  0  0
  137.7456   71.4586  223.6110 H   0  0  0  0  0  0  0  0  0  0  0  0
  139.7580   71.0500  223.3900 O   0  0  0  0  0  0  0  0  0  0  0  0
  140.0430   70.4810  224.6450 C   0  0  0  0  0  0  0  0  0  0  0  0
  140.7290   71.1860  225.6560 C   0  0  0  0  0  0  0  0  0  0  0  0
  141.0542   72.2213  225.4761 H   0  0  0  0  0  0  0  0  0  0  0  0
  140.9980   70.5770  226.8850 C   0  0  0  0  0  0  0  0  0  0  0  0
  141.5366   71.1325  227.6669 H   0  0  0  0  0  0  0  0  0  0  0  0
  140.5840   69.2640  227.1220 C   0  0  0  0  0  0  0  0  0  0  0  0
  140.9190   68.5030  228.6670 Cl  0  0  0  0  0  0  0  0  0  0  0  0
  139.8960   68.5590  226.1310 C   0  0  0  0  0  0  0  0  0  0  0  0
  139.5667   67.5266  226.3201 H   0  0  0  0  0  0  0  0  0  0  0  0
  139.6250   69.1640  224.8980 C   0  0  0  0  0  0  0  0  0  0  0  0
  138.7640   68.2520  223.6670 Cl  0  0  0  0  0  0  0  0  0  0  0  0
  140.9030   78.1950  222.8300 C   0  0  0  0  0  0  0  0  0  0  0  0
  142.0720   78.9420  223.0590 C   0  0  0  0  0  0  0  0  0  0  0  0
  143.0556   78.5020  222.8378 H   0  0  0  0  0  0  0  0  0  0  0  0
  141.9890   80.2400  223.5660 C   0  0  0  0  0  0  0  0  0  0  0  0
  142.9084   80.8109  223.7632 H   0  0  0  0  0  0  0  0  0  0  0  0
  140.7430   80.8170  223.8240 C   0  0  0  0  0  0  0  0  0  0  0  0
  140.6863   81.8323  224.2435 H   0  0  0  0  0  0  0  0  0  0  0  0
  139.5610   80.1060  223.5500 C   0  0  0  0  0  0  0  0  0  0  0  0
  138.2130   80.7090  223.8580 C   0  0  0  0  0  0  0  0  0  0  0  0
  138.0570   80.9040  225.2190 F   0  0  0  0  0  0  0  0  0  0  0  0
  138.0750   81.9330  223.2270 F   0  0  0  0  0  0  0  0  0  0  0  0
  137.2210   79.8570  223.4100 F   0  0  0  0  0  0  0  0  0  0  0  0
  139.6530   78.7890  223.0650 C   0  0  0  0  0  0  0  0  0  0  0  0
  138.7342   78.2174  222.8674 H   0  0  0  0  0  0  0  0  0  0  0  0
  1  2  1  0
  2  3  2  0
  3  4  1  0
  4  5  1  0
  5  6  2  0
  5  7  1  0
  7  8  1  0
  7  9  1  0
  7 10  1  0
 10 11  1  0
 10 12  1  0
 10 13  1  0
 13 14  1  0
 13 15  1  0
 13 16  1  0
 16 17  1  0
 17 18  2  0
 18 19  1  0
 18 20  1  0
 20 21  1  0
 20 22  2  0
 22 23  1  0
 22 24  1  0
 24 25  1  0
 24 26  2  0
 26 27  1  0
  2 28  1  0
 28 29  2  0
 29 30  1  0
 29 31  1  0
 31 32  1  0
 31 33  2  0
 33 34  1  0
 33 35  1  0
 35 36  1  0
 36 37  1  0
 36 38  1  0
 36 39  1  0
 35 40  2  0
 40 41  1  0
 26 17  1  0
 40 28  1  0
M  CHG  1   4  -1
M  END
>  <UniqueID>  (29) 
18

>  <SMILES>  (29) 
O=C(CCCOc1ccc(Cl)cc1Cl)[N-]/N=C\c1cccc(C(F)(F)F)c1

>  <Energy>  (29) 
40.06540969997561

>  <Genealogy>  (29) 
O=C(CCCOc1ccc(Cl)cc1Cl)[N-]N=Cc1cccc(C(F)(F)F)c1 (protonated)
O=C(CCCOc1ccc(Cl)cc1Cl)[N-]/N=C\c1cccc(C(F)(F)F)c1 (cis-trans isomerization)
O=C(CCCOc1ccc(Cl)cc1Cl)[N-]/N=C\c1cccc(C(F)(F)F)c1 (3D coordinates assigned)
O=C(CCCOc1ccc(Cl)cc1Cl)[N-]/N=C\c1cccc(C(F)(F)F)c1 (optimized conformer: 40.06540969997561 kcal/mol)

>  <smiles>  (29) 
O=C(CCCOc1ccc(Cl)cc1Cl)NN=Cc1cccc(C(F)(F)F)c1

>  <score_type>  (29) 
oracle

>  <origin>  (29) 
autodockgpu

>  <m_score__min__energy>  (29) 
-6.71

>  <m_primary>  (29) 
energy

>  <meeko>  (29) 
{"free_energy": -6.37, "intermolecular_energy": -9.35, "internal_energy": -0.75, "cluster_size": 2, "cluster_id": 3, "rank_in_cluster": 1}

>  <energy>  (29) 
-6.61

>  <cluster_rmsd>  (29) 
0.0

>  <rmsd>  (29) 
271.87

>  <cluster>  (29) 
2

$$$$
VHXSVHVNRGGTDL-UPLQUKELNA-M
     RDKit          3D

 41 42  0  0  0  0  0  0  0  0999 V2000
  138.3765   68.8303  223.6853 H   0  0  0  0  0  0  0  0  0  0  0  0
  139.1650   69.5350  223.9880 C   0  0  0  0  0  0  0  0  0  0  0  0
  139.5510   70.4290  223.1280 N   0  0  0  0  0  0  0  0  0  0  0  0
  139.1180   71.7630  223.1640 N   0  0  0  0  0  0  0  0  0  0  0  0
  139.6640   72.7580  222.2970 C   0  0  0  0  0  0  0  0  0  0  0  0
  140.7300   73.3390  222.6300 O   0  0  0  0  0  0  0  0  0  0  0  0
  138.9750   73.1540  221.0190 C   0  0  0  0  0  0  0  0  0  0  0  0
  139.7377   73.4462  220.2822 H   0  0  0  0  0  0  0  0  0  0  0  0
  138.3896   72.2899  220.6716 H   0  0  0  0  0  0  0  0  0  0  0  0
  138.0050   74.3280  221.2170 C   0  0  0  0  0  0  0  0  0  0  0  0
  137.8640   74.8352  220.2512 H   0  0  0  0  0  0  0  0  0  0  0  0
  137.0596   73.9178  221.6017 H   0  0  0  0  0  0  0  0  0  0  0  0
  138.5180   75.3520  222.2400 C   0  0  0  0  0  0  0  0  0  0  0  0
  137.7285   75.5523  222.9793 H   0  0  0  0  0  0  0  0  0  0  0  0
  139.4085   74.9420  222.7390 H   0  0  0  0  0  0  0  0  0  0  0  0
  138.8730   76.5720  221.5890 O   0  0  0  0  0  0  0  0  0  0  0  0
  139.7080   77.5680  222.1270 C   0  0  0  0  0  0  0  0  0  0  0  0
  139.2620   78.4810  223.1050 C   0  0  0  0  0  0  0  0  0  0  0  0
  138.2280   78.4232  223.4758 H   0  0  0  0  0  0  0  0  0  0  0  0
  140.1260   79.4590  223.6060 C   0  0  0  0  0  0  0  0  0  0  0  0
  139.7696   80.1690  224.3669 H   0  0  0  0  0  0  0  0  0  0  0  0
  141.4410   79.5360  223.1420 C   0  0  0  0  0  0  0  0  0  0  0  0
  142.5250   80.7630  223.7750 Cl  0  0  0  0  0  0  0  0  0  0  0  0
  141.8970   78.6310  222.1810 C   0  0  0  0  0  0  0  0  0  0  0  0
  142.9348   78.6891  221.8210 H   0  0  0  0  0  0  0  0  0  0  0  0
  141.0360   77.6500  221.6750 C   0  0  0  0  0  0  0  0  0  0  0  0
  141.6330   76.5290  220.4610 Cl  0  0  0  0  0  0  0  0  0  0  0  0
  139.7260   69.4110  225.3520 C   0  0  0  0  0  0  0  0  0  0  0  0
  139.9680   68.1570  225.9410 C   0  0  0  0  0  0  0  0  0  0  0  0
  139.7295   67.2364  225.3882 H   0  0  0  0  0  0  0  0  0  0  0  0
  140.5100   68.0770  227.2250 C   0  0  0  0  0  0  0  0  0  0  0  0
  140.6772   67.0936  227.6886 H   0  0  0  0  0  0  0  0  0  0  0  0
  140.8410   69.2410  227.9240 C   0  0  0  0  0  0  0  0  0  0  0  0
  141.2467   69.1702  228.9440 H   0  0  0  0  0  0  0  0  0  0  0  0
  140.6580   70.5020  227.3300 C   0  0  0  0  0  0  0  0  0  0  0  0
  140.9810   71.7640  228.0910 C   0  0  0  0  0  0  0  0  0  0  0  0
  139.8560   72.2620  228.7240 F   0  0  0  0  0  0  0  0  0  0  0  0
  141.9430   71.5150  229.0540 F   0  0  0  0  0  0  0  0  0  0  0  0
  141.4590   72.7160  227.2100 F   0  0  0  0  0  0  0  0  0  0  0  0
  140.0860   70.5760  226.0470 C   0  0  0  0  0  0  0  0  0  0  0  0
  139.9188   71.5591  225.5827 H   0  0  0  0  0  0  0  0  0  0  0  0
  1  2  1  0
  2  3  2  0
  3  4  1  0
  4  5  1  0
  5  6  2  0
  5  7  1  0
  7  8  1  0
  7  9  1  0
  7 10  1  0
 10 11  1  0
 10 12  1  0
 10 13  1  0
 13 14  1  0
 13 15  1  0
 13 16  1  0
 16 17  1  0
 17 18  2  0
 18 19  1  0
 18 20  1  0
 20 21  1  0
 20 22  2  0
 22 23  1  0
 22 24  1  0
 24 25  1  0
 24 26  2  0
 26 27  1  0
  2 28  1  0
 28 29  2  0
 29 30  1  0
 29 31  1  0
 31 32  1  0
 31 33  2  0
 33 34  1  0
 33 35  1  0
 35 36  1  0
 36 37  1  0
 36 38  1  0
 36 39  1  0
 35 40  2  0
 40 41  1  0
 26 17  1  0
 40 28  1  0
M  CHG  1   4  -1
M  END
>  <UniqueID>  (30) 
18

>  <SMILES>  (30) 
O=C(CCCOc1ccc(Cl)cc1Cl)[N-]/N=C\c1cccc(C(F)(F)F)c1

>  <Energy>  (30) 
40.06540969997561

>  <Genealogy>  (30) 
O=C(CCCOc1ccc(Cl)cc1Cl)[N-]N=Cc1cccc(C(F)(F)F)c1 (protonated)
O=C(CCCOc1ccc(Cl)cc1Cl)[N-]/N=C\c1cccc(C(F)(F)F)c1 (cis-trans isomerization)
O=C(CCCOc1ccc(Cl)cc1Cl)[N-]/N=C\c1cccc(C(F)(F)F)c1 (3D coordinates assigned)
O=C(CCCOc1ccc(Cl)cc1Cl)[N-]/N=C\c1cccc(C(F)(F)F)c1 (optimized conformer: 40.06540969997561 kcal/mol)

>  <smiles>  (30) 
O=C(CCCOc1ccc(Cl)cc1Cl)NN=Cc1cccc(C(F)(F)F)c1

>  <score_type>  (30) 
oracle

>  <origin>  (30) 
autodockgpu

>  <m_score__min__energy>  (30) 
-6.71

>  <m_primary>  (30) 
energy

>  <meeko>  (30) 
{"free_energy": -6.55, "intermolecular_energy": -9.54, "internal_energy": -0.92, "cluster_size": 8, "cluster_id": 1, "rank_in_cluster": 2}

>  <energy>  (30) 
-6.58

>  <cluster_rmsd>  (30) 
1.41

>  <rmsd>  (30) 
272.06

>  <cluster>  (30) 
2

$$$$
VHXSVHVNRGGTDL-UPLQUKELNA-M
     RDKit          3D

 41 42  0  0  0  0  0  0  0  0999 V2000
  137.4780   68.8461  224.3749 H   0  0  0  0  0  0  0  0  0  0  0  0
  138.4730   69.3130  224.3300 C   0  0  0  0  0  0  0  0  0  0  0  0
  138.8280   69.8940  223.2230 N   0  0  0  0  0  0  0  0  0  0  0  0
  138.6440   71.2650  222.9860 N   0  0  0  0  0  0  0  0  0  0  0  0
  139.7400   72.1350  222.6990 C   0  0  0  0  0  0  0  0  0  0  0  0
  140.7490   72.1140  223.4510 O   0  0  0  0  0  0  0  0  0  0  0  0
  139.6990   73.1010  221.5450 C   0  0  0  0  0  0  0  0  0  0  0  0
  140.4056   72.7606  220.7738 H   0  0  0  0  0  0  0  0  0  0  0  0
  138.6676   73.1249  221.1633 H   0  0  0  0  0  0  0  0  0  0  0  0
  140.0770   74.5290  221.9650 C   0  0  0  0  0  0  0  0  0  0  0  0
  140.0483   74.5923  223.0628 H   0  0  0  0  0  0  0  0  0  0  0  0
  141.0834   74.7357  221.5721 H   0  0  0  0  0  0  0  0  0  0  0  0
  139.1270   75.5870  221.3870 C   0  0  0  0  0  0  0  0  0  0  0  0
  139.6056   76.0693  220.5219 H   0  0  0  0  0  0  0  0  0  0  0  0
  138.1926   75.0955  221.0781 H   0  0  0  0  0  0  0  0  0  0  0  0
  138.8250   76.5770  222.3690 O   0  0  0  0  0  0  0  0  0  0  0  0
  139.6480   77.6670  222.7060 C   0  0  0  0  0  0  0  0  0  0  0  0
  141.0540   77.5620  222.7670 C   0  0  0  0  0  0  0  0  0  0  0  0
  141.5410   76.6021  222.5400 H   0  0  0  0  0  0  0  0  0  0  0  0
  141.8310   78.6700  223.1140 C   0  0  0  0  0  0  0  0  0  0  0  0
  142.9261   78.5789  223.1628 H   0  0  0  0  0  0  0  0  0  0  0  0
  141.2200   79.8930  223.3990 C   0  0  0  0  0  0  0  0  0  0  0  0
  142.2000   81.2840  223.8300 Cl  0  0  0  0  0  0  0  0  0  0  0  0
  139.8300   80.0120  223.3320 C   0  0  0  0  0  0  0  0  0  0  0  0
  139.3504   80.9773  223.5515 H   0  0  0  0  0  0  0  0  0  0  0  0
  139.0460   78.9050  222.9860 C   0  0  0  0  0  0  0  0  0  0  0  0
  137.2990   79.0810  222.9180 Cl  0  0  0  0  0  0  0  0  0  0  0  0
  139.3310   69.2440  225.5330 C   0  0  0  0  0  0  0  0  0  0  0  0
  139.8180   68.0210  226.0260 C   0  0  0  0  0  0  0  0  0  0  0  0
  139.5544   67.0816  225.5180 H   0  0  0  0  0  0  0  0  0  0  0  0
  140.6350   67.9940  227.1580 C   0  0  0  0  0  0  0  0  0  0  0  0
  140.9949   67.0317  227.5511 H   0  0  0  0  0  0  0  0  0  0  0  0
  140.9970   69.1840  227.7930 C   0  0  0  0  0  0  0  0  0  0  0  0
  141.6233   69.1532  228.6968 H   0  0  0  0  0  0  0  0  0  0  0  0
  140.5650   70.4220  227.2830 C   0  0  0  0  0  0  0  0  0  0  0  0
  140.9230   71.7090  227.9840 C   0  0  0  0  0  0  0  0  0  0  0  0
  139.8130   72.2680  228.5900 F   0  0  0  0  0  0  0  0  0  0  0  0
  141.8780   71.4790  228.9590 F   0  0  0  0  0  0  0  0  0  0  0  0
  141.4290   72.6040  227.0590 F   0  0  0  0  0  0  0  0  0  0  0  0
  139.7200   70.4390  226.1590 C   0  0  0  0  0  0  0  0  0  0  0  0
  139.3593   71.4007  225.7653 H   0  0  0  0  0  0  0  0  0  0  0  0
  1  2  1  0
  2  3  2  0
  3  4  1  0
  4  5  1  0
  5  6  2  0
  5  7  1  0
  7  8  1  0
  7  9  1  0
  7 10  1  0
 10 11  1  0
 10 12  1  0
 10 13  1  0
 13 14  1  0
 13 15  1  0
 13 16  1  0
 16 17  1  0
 17 18  2  0
 18 19  1  0
 18 20  1  0
 20 21  1  0
 20 22  2  0
 22 23  1  0
 22 24  1  0
 24 25  1  0
 24 26  2  0
 26 27  1  0
  2 28  1  0
 28 29  2  0
 29 30  1  0
 29 31  1  0
 31 32  1  0
 31 33  2  0
 33 34  1  0
 33 35  1  0
 35 36  1  0
 36 37  1  0
 36 38  1  0
 36 39  1  0
 35 40  2  0
 40 41  1  0
 26 17  1  0
 40 28  1  0
M  CHG  1   4  -1
M  END
>  <UniqueID>  (31) 
18

>  <SMILES>  (31) 
O=C(CCCOc1ccc(Cl)cc1Cl)[N-]/N=C\c1cccc(C(F)(F)F)c1

>  <Energy>  (31) 
40.06540969997561

>  <Genealogy>  (31) 
O=C(CCCOc1ccc(Cl)cc1Cl)[N-]N=Cc1cccc(C(F)(F)F)c1 (protonated)
O=C(CCCOc1ccc(Cl)cc1Cl)[N-]/N=C\c1cccc(C(F)(F)F)c1 (cis-trans isomerization)
O=C(CCCOc1ccc(Cl)cc1Cl)[N-]/N=C\c1cccc(C(F)(F)F)c1 (3D coordinates assigned)
O=C(CCCOc1ccc(Cl)cc1Cl)[N-]/N=C\c1cccc(C(F)(F)F)c1 (optimized conformer: 40.06540969997561 kcal/mol)

>  <smiles>  (31) 
O=C(CCCOc1ccc(Cl)cc1Cl)NN=Cc1cccc(C(F)(F)F)c1

>  <score_type>  (31) 
oracle

>  <origin>  (31) 
autodockgpu

>  <m_score__min__energy>  (31) 
-6.71

>  <m_primary>  (31) 
energy

>  <meeko>  (31) 
{"free_energy": -6.43, "intermolecular_energy": -9.42, "internal_energy": -0.77, "cluster_size": 8, "cluster_id": 1, "rank_in_cluster": 3}

>  <energy>  (31) 
-6.37

>  <cluster_rmsd>  (31) 
0.0

>  <rmsd>  (31) 
271.78

>  <cluster>  (31) 
3

$$$$
VHXSVHVNRGGTDL-UPLQUKELNA-M
     RDKit          3D

 41 42  0  0  0  0  0  0  0  0999 V2000
  141.8965   76.6712  221.3596 H   0  0  0  0  0  0  0  0  0  0  0  0
  141.0790   76.8560  222.0720 C   0  0  0  0  0  0  0  0  0  0  0  0
  140.2610   75.8800  222.3330 N   0  0  0  0  0  0  0  0  0  0  0  0
  139.3160   75.4070  221.4110 N   0  0  0  0  0  0  0  0  0  0  0  0
  138.2080   74.5990  221.8110 C   0  0  0  0  0  0  0  0  0  0  0  0
  137.1060   75.1550  222.0580 O   0  0  0  0  0  0  0  0  0  0  0  0
  138.3400   73.1100  221.9810 C   0  0  0  0  0  0  0  0  0  0  0  0
  138.1532   72.8565  223.0350 H   0  0  0  0  0  0  0  0  0  0  0  0
  137.6074   72.6295  221.3158 H   0  0  0  0  0  0  0  0  0  0  0  0
  139.7350   72.5990  221.5900 C   0  0  0  0  0  0  0  0  0  0  0  0
  139.6228   71.8300  220.8115 H   0  0  0  0  0  0  0  0  0  0  0  0
  140.3158   73.4608  221.2294 H   0  0  0  0  0  0  0  0  0  0  0  0
  140.4960   71.9900  222.7760 C   0  0  0  0  0  0  0  0  0  0  0  0
  141.0875   71.1318  222.4243 H   0  0  0  0  0  0  0  0  0  0  0  0
  141.1580   72.7565  223.2053 H   0  0  0  0  0  0  0  0  0  0  0  0
  139.5840   71.5510  223.7830 O   0  0  0  0  0  0  0  0  0  0  0  0
  139.9390   70.8590  224.9550 C   0  0  0  0  0  0  0  0  0  0  0  0
  140.6770   71.4620  225.9940 C   0  0  0  0  0  0  0  0  0  0  0  0
  140.9896   72.5128  225.9038 H   0  0  0  0  0  0  0  0  0  0  0  0
  141.0140   70.7330  227.1380 C   0  0  0  0  0  0  0  0  0  0  0  0
  141.5932   71.2099  227.9425 H   0  0  0  0  0  0  0  0  0  0  0  0
  140.6160   69.3990  227.2610 C   0  0  0  0  0  0  0  0  0  0  0  0
  141.0370   68.4880  228.7000 Cl  0  0  0  0  0  0  0  0  0  0  0  0
  139.8770   68.7940  226.2430 C   0  0  0  0  0  0  0  0  0  0  0  0
  139.5603   67.7453  226.3432 H   0  0  0  0  0  0  0  0  0  0  0  0
  139.5380   69.5200  225.0940 C   0  0  0  0  0  0  0  0  0  0  0  0
  138.6130   68.7310  223.8250 Cl  0  0  0  0  0  0  0  0  0  0  0  0
  140.9730   78.2020  222.6790 C   0  0  0  0  0  0  0  0  0  0  0  0
  142.1060   79.0030  222.9060 C   0  0  0  0  0  0  0  0  0  0  0  0
  143.1050   78.6282  222.6385 H   0  0  0  0  0  0  0  0  0  0  0  0
  141.9670   80.2730  223.4700 C   0  0  0  0  0  0  0  0  0  0  0  0
  142.8591   80.8861  223.6654 H   0  0  0  0  0  0  0  0  0  0  0  0
  140.7000   80.7680  223.7870 C   0  0  0  0  0  0  0  0  0  0  0  0
  140.6006   81.7607  224.2503 H   0  0  0  0  0  0  0  0  0  0  0  0
  139.5510   80.0040  223.5170 C   0  0  0  0  0  0  0  0  0  0  0  0
  138.1820   80.5180  223.8880 C   0  0  0  0  0  0  0  0  0  0  0  0
  137.1940   79.6530  223.4540 F   0  0  0  0  0  0  0  0  0  0  0  0
  138.0710   80.6480  225.2610 F   0  0  0  0  0  0  0  0  0  0  0  0
  137.9860   81.7540  223.3010 F   0  0  0  0  0  0  0  0  0  0  0  0
  139.7000   78.7150  222.9740 C   0  0  0  0  0  0  0  0  0  0  0  0
  138.8082   78.1015  222.7781 H   0  0  0  0  0  0  0  0  0  0  0  0
  1  2  1  0
  2  3  2  0
  3  4  1  0
  4  5  1  0
  5  6  2  0
  5  7  1  0
  7  8  1  0
  7  9  1  0
  7 10  1  0
 10 11  1  0
 10 12  1  0
 10 13  1  0
 13 14  1  0
 13 15  1  0
 13 16  1  0
 16 17  1  0
 17 18  2  0
 18 19  1  0
 18 20  1  0
 20 21  1  0
 20 22  2  0
 22 23  1  0
 22 24  1  0
 24 25  1  0
 24 26  2  0
 26 27  1  0
  2 28  1  0
 28 29  2  0
 29 30  1  0
 29 31  1  0
 31 32  1  0
 31 33  2  0
 33 34  1  0
 33 35  1  0
 35 36  1  0
 36 37  1  0
 36 38  1  0
 36 39  1  0
 35 40  2  0
 40 41  1  0
 26 17  1  0
 40 28  1  0
M  CHG  1   4  -1
M  END
>  <UniqueID>  (32) 
18

>  <SMILES>  (32) 
O=C(CCCOc1ccc(Cl)cc1Cl)[N-]/N=C\c1cccc(C(F)(F)F)c1

>  <Energy>  (32) 
40.06540969997561

>  <Genealogy>  (32) 
O=C(CCCOc1ccc(Cl)cc1Cl)[N-]N=Cc1cccc(C(F)(F)F)c1 (protonated)
O=C(CCCOc1ccc(Cl)cc1Cl)[N-]/N=C\c1cccc(C(F)(F)F)c1 (cis-trans isomerization)
O=C(CCCOc1ccc(Cl)cc1Cl)[N-]/N=C\c1cccc(C(F)(F)F)c1 (3D coordinates assigned)
O=C(CCCOc1ccc(Cl)cc1Cl)[N-]/N=C\c1cccc(C(F)(F)F)c1 (optimized conformer: 40.06540969997561 kcal/mol)

>  <smiles>  (32) 
O=C(CCCOc1ccc(Cl)cc1Cl)NN=Cc1cccc(C(F)(F)F)c1

>  <score_type>  (32) 
oracle

>  <origin>  (32) 
autodockgpu

>  <m_score__min__energy>  (32) 
-6.71

>  <m_primary>  (32) 
energy

>  <meeko>  (32) 
{"free_energy": -5.99, "intermolecular_energy": -8.97, "internal_energy": -0.8, "cluster_size": 2, "cluster_id": 3, "rank_in_cluster": 2}

>  <energy>  (32) 
-5.99

>  <cluster_rmsd>  (32) 
1.13

>  <rmsd>  (32) 
271.82

>  <cluster>  (32) 
3

$$$$
VHXSVHVNRGGTDL-UPLQUKELNA-M
     RDKit          3D

 41 42  0  0  0  0  0  0  0  0999 V2000
  142.0085   76.3424  222.3992 H   0  0  0  0  0  0  0  0  0  0  0  0
  141.0560   76.8900  222.3450 C   0  0  0  0  0  0  0  0  0  0  0  0
  140.0220   76.2740  221.8560 N   0  0  0  0  0  0  0  0  0  0  0  0
  139.4710   75.1220  222.4380 N   0  0  0  0  0  0  0  0  0  0  0  0
  139.7370   73.8160  221.9240 C   0  0  0  0  0  0  0  0  0  0  0  0
  140.7200   73.1710  222.3740 O   0  0  0  0  0  0  0  0  0  0  0  0
  138.8930   73.2110  220.8340 C   0  0  0  0  0  0  0  0  0  0  0  0
  138.0656   72.6526  221.2960 H   0  0  0  0  0  0  0  0  0  0  0  0
  138.5208   74.0309  220.2022 H   0  0  0  0  0  0  0  0  0  0  0  0
  139.6950   72.2550  219.9390 C   0  0  0  0  0  0  0  0  0  0  0  0
  140.5189   71.8279  220.5295 H   0  0  0  0  0  0  0  0  0  0  0  0
  139.0050   71.4764  219.5816 H   0  0  0  0  0  0  0  0  0  0  0  0
  140.2850   72.9540  218.7060 C   0  0  0  0  0  0  0  0  0  0  0  0
  140.8428   72.2199  218.1060 H   0  0  0  0  0  0  0  0  0  0  0  0
  139.4637   73.3828  218.1130 H   0  0  0  0  0  0  0  0  0  0  0  0
  141.1660   74.0040  219.1010 O   0  0  0  0  0  0  0  0  0  0  0  0
  142.4260   73.8260  219.7010 C   0  0  0  0  0  0  0  0  0  0  0  0
  142.8820   72.5660  220.1410 C   0  0  0  0  0  0  0  0  0  0  0  0
  142.2447   71.6787  220.0128 H   0  0  0  0  0  0  0  0  0  0  0  0
  144.1390   72.4380  220.7390 C   0  0  0  0  0  0  0  0  0  0  0  0
  144.4862   71.4521  221.0818 H   0  0  0  0  0  0  0  0  0  0  0  0
  144.9550   73.5600  220.9020 C   0  0  0  0  0  0  0  0  0  0  0  0
  146.5340   73.3960  221.6500 Cl  0  0  0  0  0  0  0  0  0  0  0  0
  144.5170   74.8120  220.4620 C   0  0  0  0  0  0  0  0  0  0  0  0
  145.1622   75.6941  220.5867 H   0  0  0  0  0  0  0  0  0  0  0  0
  143.2590   74.9460  219.8630 C   0  0  0  0  0  0  0  0  0  0  0  0
  142.7310   76.5330  219.3260 Cl  0  0  0  0  0  0  0  0  0  0  0  0
  141.0250   78.2860  222.8330 C   0  0  0  0  0  0  0  0  0  0  0  0
  142.2040   79.0230  223.0430 C   0  0  0  0  0  0  0  0  0  0  0  0
  143.1822   78.5577  222.8520 H   0  0  0  0  0  0  0  0  0  0  0  0
  142.1380   80.3430  223.4930 C   0  0  0  0  0  0  0  0  0  0  0  0
  143.0647   80.9070  223.6750 H   0  0  0  0  0  0  0  0  0  0  0  0
  140.8990   80.9500  223.7130 C   0  0  0  0  0  0  0  0  0  0  0  0
  140.8552   81.9826  224.0896 H   0  0  0  0  0  0  0  0  0  0  0  0
  139.7080   80.2490  223.4560 C   0  0  0  0  0  0  0  0  0  0  0  0
  138.3680   80.8860  223.7240 C   0  0  0  0  0  0  0  0  0  0  0  0
  138.1810   82.0010  222.9260 F   0  0  0  0  0  0  0  0  0  0  0  0
  137.3450   79.9920  223.4610 F   0  0  0  0  0  0  0  0  0  0  0  0
  138.3030   81.2680  225.0510 F   0  0  0  0  0  0  0  0  0  0  0  0
  139.7830   78.9100  223.0290 C   0  0  0  0  0  0  0  0  0  0  0  0
  138.8567   78.3454  222.8466 H   0  0  0  0  0  0  0  0  0  0  0  0
  1  2  1  0
  2  3  2  0
  3  4  1  0
  4  5  1  0
  5  6  2  0
  5  7  1  0
  7  8  1  0
  7  9  1  0
  7 10  1  0
 10 11  1  0
 10 12  1  0
 10 13  1  0
 13 14  1  0
 13 15  1  0
 13 16  1  0
 16 17  1  0
 17 18  2  0
 18 19  1  0
 18 20  1  0
 20 21  1  0
 20 22  2  0
 22 23  1  0
 22 24  1  0
 24 25  1  0
 24 26  2  0
 26 27  1  0
  2 28  1  0
 28 29  2  0
 29 30  1  0
 29 31  1  0
 31 32  1  0
 31 33  2  0
 33 34  1  0
 33 35  1  0
 35 36  1  0
 36 37  1  0
 36 38  1  0
 36 39  1  0
 35 40  2  0
 40 41  1  0
 26 17  1  0
 40 28  1  0
M  CHG  1   4  -1
M  END
>  <UniqueID>  (33) 
18

>  <SMILES>  (33) 
O=C(CCCOc1ccc(Cl)cc1Cl)[N-]/N=C\c1cccc(C(F)(F)F)c1

>  <Energy>  (33) 
40.06540969997561

>  <Genealogy>  (33) 
O=C(CCCOc1ccc(Cl)cc1Cl)[N-]N=Cc1cccc(C(F)(F)F)c1 (protonated)
O=C(CCCOc1ccc(Cl)cc1Cl)[N-]/N=C\c1cccc(C(F)(F)F)c1 (cis-trans isomerization)
O=C(CCCOc1ccc(Cl)cc1Cl)[N-]/N=C\c1cccc(C(F)(F)F)c1 (3D coordinates assigned)
O=C(CCCOc1ccc(Cl)cc1Cl)[N-]/N=C\c1cccc(C(F)(F)F)c1 (optimized conformer: 40.06540969997561 kcal/mol)

>  <smiles>  (33) 
O=C(CCCOc1ccc(Cl)cc1Cl)NN=Cc1cccc(C(F)(F)F)c1

>  <score_type>  (33) 
oracle

>  <origin>  (33) 
autodockgpu

>  <m_score__min__energy>  (33) 
-6.71

>  <m_primary>  (33) 
energy

>  <meeko>  (33) 
{"free_energy": -5.44, "intermolecular_energy": -8.42, "internal_energy": -1.41, "cluster_size": 1, "cluster_id": 7, "rank_in_cluster": 1}

>  <energy>  (33) 
-6.28

>  <cluster_rmsd>  (33) 
0.0

>  <rmsd>  (33) 
271.4

>  <cluster>  (33) 
4

$$$$
VHXSVHVNRGGTDL-UPLQUKELNA-M
     RDKit          3D

 41 42  0  0  0  0  0  0  0  0999 V2000
  139.8130   71.0460  222.0978 H   0  0  0  0  0  0  0  0  0  0  0  0
  140.1470   71.5690  223.0060 C   0  0  0  0  0  0  0  0  0  0  0  0
  140.6730   72.7500  222.8750 N   0  0  0  0  0  0  0  0  0  0  0  0
  140.1270   73.7440  222.0480 N   0  0  0  0  0  0  0  0  0  0  0  0
  140.9290   74.4840  221.1270 C   0  0  0  0  0  0  0  0  0  0  0  0
  142.0710   74.0500  220.8270 O   0  0  0  0  0  0  0  0  0  0  0  0
  140.4550   75.7870  220.5400 C   0  0  0  0  0  0  0  0  0  0  0  0
  139.6010   75.5861  219.8765 H   0  0  0  0  0  0  0  0  0  0  0  0
  140.1705   76.4473  221.3725 H   0  0  0  0  0  0  0  0  0  0  0  0
  141.5520   76.4960  219.7320 C   0  0  0  0  0  0  0  0  0  0  0  0
  142.4736   75.8981  219.7893 H   0  0  0  0  0  0  0  0  0  0  0  0
  141.1933   76.5915  218.6965 H   0  0  0  0  0  0  0  0  0  0  0  0
  141.8500   77.9090  220.2520 C   0  0  0  0  0  0  0  0  0  0  0  0
  142.8708   78.1948  219.9584 H   0  0  0  0  0  0  0  0  0  0  0  0
  141.1205   78.6087  219.8182 H   0  0  0  0  0  0  0  0  0  0  0  0
  141.7410   77.9520  221.6750 O   0  0  0  0  0  0  0  0  0  0  0  0
  140.7530   78.6470  222.3940 C   0  0  0  0  0  0  0  0  0  0  0  0
  139.4020   78.2410  222.4100 C   0  0  0  0  0  0  0  0  0  0  0  0
  139.0936   77.3459  221.8500 H   0  0  0  0  0  0  0  0  0  0  0  0
  138.4530   78.9690  223.1330 C   0  0  0  0  0  0  0  0  0  0  0  0
  137.4010   78.6475  223.1373 H   0  0  0  0  0  0  0  0  0  0  0  0
  138.8380   80.1040  223.8500 C   0  0  0  0  0  0  0  0  0  0  0  0
  137.6450   81.0130  224.7610 Cl  0  0  0  0  0  0  0  0  0  0  0  0
  140.1750   80.5100  223.8500 C   0  0  0  0  0  0  0  0  0  0  0  0
  140.4781   81.4008  224.4197 H   0  0  0  0  0  0  0  0  0  0  0  0
  141.1290   79.7860  223.1270 C   0  0  0  0  0  0  0  0  0  0  0  0
  142.8020   80.3240  223.1370 Cl  0  0  0  0  0  0  0  0  0  0  0  0
  139.9720   70.8880  224.3080 C   0  0  0  0  0  0  0  0  0  0  0  0
  139.3220   69.6450  224.4110 C   0  0  0  0  0  0  0  0  0  0  0  0
  138.9201   69.1603  223.5090 H   0  0  0  0  0  0  0  0  0  0  0  0
  139.1850   69.0240  225.6540 C   0  0  0  0  0  0  0  0  0  0  0  0
  138.6571   68.0620  225.7307 H   0  0  0  0  0  0  0  0  0  0  0  0
  139.7160   69.6200  226.8010 C   0  0  0  0  0  0  0  0  0  0  0  0
  139.5851   69.1357  227.7799 H   0  0  0  0  0  0  0  0  0  0  0  0
  140.4170   70.8360  226.7100 C   0  0  0  0  0  0  0  0  0  0  0  0
  140.9630   71.5020  227.9490 C   0  0  0  0  0  0  0  0  0  0  0  0
  141.8020   72.5510  227.6180 F   0  0  0  0  0  0  0  0  0  0  0  0
  139.9310   72.0010  228.7240 F   0  0  0  0  0  0  0  0  0  0  0  0
  141.6740   70.5740  228.6870 F   0  0  0  0  0  0  0  0  0  0  0  0
  140.5280   71.4680  225.4590 C   0  0  0  0  0  0  0  0  0  0  0  0
  141.0573   72.4292  225.3812 H   0  0  0  0  0  0  0  0  0  0  0  0
  1  2  1  0
  2  3  2  0
  3  4  1  0
  4  5  1  0
  5  6  2  0
  5  7  1  0
  7  8  1  0
  7  9  1  0
  7 10  1  0
 10 11  1  0
 10 12  1  0
 10 13  1  0
 13 14  1  0
 13 15  1  0
 13 16  1  0
 16 17  1  0
 17 18  2  0
 18 19  1  0
 18 20  1  0
 20 21  1  0
 20 22  2  0
 22 23  1  0
 22 24  1  0
 24 25  1  0
 24 26  2  0
 26 27  1  0
  2 28  1  0
 28 29  2  0
 29 30  1  0
 29 31  1  0
 31 32  1  0
 31 33  2  0
 33 34  1  0
 33 35  1  0
 35 36  1  0
 36 37  1  0
 36 38  1  0
 36 39  1  0
 35 40  2  0
 40 41  1  0
 26 17  1  0
 40 28  1  0
M  CHG  1   4  -1
M  END
>  <UniqueID>  (34) 
18

>  <SMILES>  (34) 
O=C(CCCOc1ccc(Cl)cc1Cl)[N-]/N=C\c1cccc(C(F)(F)F)c1

>  <Energy>  (34) 
40.06540969997561

>  <Genealogy>  (34) 
O=C(CCCOc1ccc(Cl)cc1Cl)[N-]N=Cc1cccc(C(F)(F)F)c1 (protonated)
O=C(CCCOc1ccc(Cl)cc1Cl)[N-]/N=C\c1cccc(C(F)(F)F)c1 (cis-trans isomerization)
O=C(CCCOc1ccc(Cl)cc1Cl)[N-]/N=C\c1cccc(C(F)(F)F)c1 (3D coordinates assigned)
O=C(CCCOc1ccc(Cl)cc1Cl)[N-]/N=C\c1cccc(C(F)(F)F)c1 (optimized conformer: 40.06540969997561 kcal/mol)

>  <smiles>  (34) 
O=C(CCCOc1ccc(Cl)cc1Cl)NN=Cc1cccc(C(F)(F)F)c1

>  <score_type>  (34) 
oracle

>  <origin>  (34) 
autodockgpu

>  <m_score__min__energy>  (34) 
-6.71

>  <m_primary>  (34) 
energy

>  <meeko>  (34) 
{"free_energy": -6.71, "intermolecular_energy": -9.69, "internal_energy": -0.62, "cluster_size": 8, "cluster_id": 1, "rank_in_cluster": 1}

>  <energy>  (34) 
-6.12

>  <cluster_rmsd>  (34) 
1.14

>  <rmsd>  (34) 
271.46

>  <cluster>  (34) 
4

$$$$
VHXSVHVNRGGTDL-UPLQUKELNA-M
     RDKit          3D

 41 42  0  0  0  0  0  0  0  0999 V2000
  140.6442   71.0665  222.0038 H   0  0  0  0  0  0  0  0  0  0  0  0
  140.5670   71.7150  222.8890 C   0  0  0  0  0  0  0  0  0  0  0  0
  140.7180   72.9950  222.7260 N   0  0  0  0  0  0  0  0  0  0  0  0
  139.8170   73.7860  221.9970 N   0  0  0  0  0  0  0  0  0  0  0  0
  139.8820   75.2130  222.0100 C   0  0  0  0  0  0  0  0  0  0  0  0
  139.1400   75.8500  222.8020 O   0  0  0  0  0  0  0  0  0  0  0  0
  140.7870   75.9690  221.0750 C   0  0  0  0  0  0  0  0  0  0  0  0
  140.6955   77.0446  221.2866 H   0  0  0  0  0  0  0  0  0  0  0  0
  141.8148   75.6134  221.2402 H   0  0  0  0  0  0  0  0  0  0  0  0
  140.4360   75.7240  219.6000 C   0  0  0  0  0  0  0  0  0  0  0  0
  139.4524   76.1709  219.3934 H   0  0  0  0  0  0  0  0  0  0  0  0
  141.2276   76.1829  218.9894 H   0  0  0  0  0  0  0  0  0  0  0  0
  140.3820   74.2320  219.2440 C   0  0  0  0  0  0  0  0  0  0  0  0
  140.1211   73.6546  220.1432 H   0  0  0  0  0  0  0  0  0  0  0  0
  139.6232   74.0803  218.4622 H   0  0  0  0  0  0  0  0  0  0  0  0
  141.6460   73.7890  218.7520 O   0  0  0  0  0  0  0  0  0  0  0  0
  142.8350   73.7290  219.5020 C   0  0  0  0  0  0  0  0  0  0  0  0
  143.6680   74.8520  219.6890 C   0  0  0  0  0  0  0  0  0  0  0  0
  143.3903   75.8190  219.2443 H   0  0  0  0  0  0  0  0  0  0  0  0
  144.8440   74.7430  220.4360 C   0  0  0  0  0  0  0  0  0  0  0  0
  145.4891   75.6230  220.5755 H   0  0  0  0  0  0  0  0  0  0  0  0
  145.2020   73.5190  221.0060 C   0  0  0  0  0  0  0  0  0  0  0  0
  146.6770   73.3870  221.9470 Cl  0  0  0  0  0  0  0  0  0  0  0  0
  144.3800   72.4030  220.8350 C   0  0  0  0  0  0  0  0  0  0  0  0
  144.6597   71.4411  221.2894 H   0  0  0  0  0  0  0  0  0  0  0  0
  143.2010   72.5050  220.0870 C   0  0  0  0  0  0  0  0  0  0  0  0
  142.1900   71.0830  219.8820 Cl  0  0  0  0  0  0  0  0  0  0  0  0
  140.2970   71.0800  224.1980 C   0  0  0  0  0  0  0  0  0  0  0  0
  139.6800   69.8210  224.2960 C   0  0  0  0  0  0  0  0  0  0  0  0
  139.3769   69.2870  223.3833 H   0  0  0  0  0  0  0  0  0  0  0  0
  139.4500   69.2450  225.5480 C   0  0  0  0  0  0  0  0  0  0  0  0
  138.9462   68.2697  225.6188 H   0  0  0  0  0  0  0  0  0  0  0  0
  139.8580   69.9040  226.7100 C   0  0  0  0  0  0  0  0  0  0  0  0
  139.6557   69.4544  227.6933 H   0  0  0  0  0  0  0  0  0  0  0  0
  140.5260   71.1390  226.6300 C   0  0  0  0  0  0  0  0  0  0  0  0
  140.9380   71.8720  227.8830 C   0  0  0  0  0  0  0  0  0  0  0  0
  139.8300   72.2700  228.6100 F   0  0  0  0  0  0  0  0  0  0  0  0
  141.7130   71.0560  228.6880 F   0  0  0  0  0  0  0  0  0  0  0  0
  141.6720   72.9900  227.5340 F   0  0  0  0  0  0  0  0  0  0  0  0
  140.7290   71.7250  225.3680 C   0  0  0  0  0  0  0  0  0  0  0  0
  141.2323   72.7005  225.2965 H   0  0  0  0  0  0  0  0  0  0  0  0
  1  2  1  0
  2  3  2  0
  3  4  1  0
  4  5  1  0
  5  6  2  0
  5  7  1  0
  7  8  1  0
  7  9  1  0
  7 10  1  0
 10 11  1  0
 10 12  1  0
 10 13  1  0
 13 14  1  0
 13 15  1  0
 13 16  1  0
 16 17  1  0
 17 18  2  0
 18 19  1  0
 18 20  1  0
 20 21  1  0
 20 22  2  0
 22 23  1  0
 22 24  1  0
 24 25  1  0
 24 26  2  0
 26 27  1  0
  2 28  1  0
 28 29  2  0
 29 30  1  0
 29 31  1  0
 31 32  1  0
 31 33  2  0
 33 34  1  0
 33 35  1  0
 35 36  1  0
 36 37  1  0
 36 38  1  0
 36 39  1  0
 35 40  2  0
 40 41  1  0
 26 17  1  0
 40 28  1  0
M  CHG  1   4  -1
M  END
>  <UniqueID>  (35) 
18

>  <SMILES>  (35) 
O=C(CCCOc1ccc(Cl)cc1Cl)[N-]/N=C\c1cccc(C(F)(F)F)c1

>  <Energy>  (35) 
40.06540969997561

>  <Genealogy>  (35) 
O=C(CCCOc1ccc(Cl)cc1Cl)[N-]N=Cc1cccc(C(F)(F)F)c1 (protonated)
O=C(CCCOc1ccc(Cl)cc1Cl)[N-]/N=C\c1cccc(C(F)(F)F)c1 (cis-trans isomerization)
O=C(CCCOc1ccc(Cl)cc1Cl)[N-]/N=C\c1cccc(C(F)(F)F)c1 (3D coordinates assigned)
O=C(CCCOc1ccc(Cl)cc1Cl)[N-]/N=C\c1cccc(C(F)(F)F)c1 (optimized conformer: 40.06540969997561 kcal/mol)

>  <smiles>  (35) 
O=C(CCCOc1ccc(Cl)cc1Cl)NN=Cc1cccc(C(F)(F)F)c1

>  <score_type>  (35) 
oracle

>  <origin>  (35) 
autodockgpu

>  <m_score__min__energy>  (35) 
-6.71

>  <m_primary>  (35) 
energy

>  <meeko>  (35) 
{"free_energy": -6.12, "intermolecular_energy": -9.1, "internal_energy": -1.36, "cluster_size": 4, "cluster_id": 4, "rank_in_cluster": 2}

>  <energy>  (35) 
-5.94

>  <cluster_rmsd>  (35) 
1.67

>  <rmsd>  (35) 
271.13

>  <cluster>  (35) 
4

$$$$
VHXSVHVNRGGTDL-UPLQUKELNA-M
     RDKit          3D

 41 42  0  0  0  0  0  0  0  0999 V2000
  141.0745   70.9674  222.2621 H   0  0  0  0  0  0  0  0  0  0  0  0
  140.2510   71.3210  222.9000 C   0  0  0  0  0  0  0  0  0  0  0  0
  139.4330   72.2040  222.4110 N   0  0  0  0  0  0  0  0  0  0  0  0
  139.5770   73.5830  222.6260 N   0  0  0  0  0  0  0  0  0  0  0  0
  140.2630   74.4240  221.6980 C   0  0  0  0  0  0  0  0  0  0  0  0
  141.4610   74.7360  221.9280 O   0  0  0  0  0  0  0  0  0  0  0  0
  139.5770   74.9750  220.4770 C   0  0  0  0  0  0  0  0  0  0  0  0
  138.6929   75.5467  220.7957 H   0  0  0  0  0  0  0  0  0  0  0  0
  140.2980   75.6133  219.9452 H   0  0  0  0  0  0  0  0  0  0  0  0
  139.1280   73.8690  219.5120 C   0  0  0  0  0  0  0  0  0  0  0  0
  138.4639   73.1785  220.0526 H   0  0  0  0  0  0  0  0  0  0  0  0
  138.6128   74.3527  218.6690 H   0  0  0  0  0  0  0  0  0  0  0  0
  140.3060   73.0690  218.9380 C   0  0  0  0  0  0  0  0  0  0  0  0
  140.5413   72.2347  219.6152 H   0  0  0  0  0  0  0  0  0  0  0  0
  140.0257   72.6845  217.9462 H   0  0  0  0  0  0  0  0  0  0  0  0
  141.4570   73.9030  218.8020 O   0  0  0  0  0  0  0  0  0  0  0  0
  142.6610   73.7480  219.5110 C   0  0  0  0  0  0  0  0  0  0  0  0
  143.0870   72.5010  220.0160 C   0  0  0  0  0  0  0  0  0  0  0  0
  142.4695   71.6054  219.8531 H   0  0  0  0  0  0  0  0  0  0  0  0
  144.2890   72.3970  220.7220 C   0  0  0  0  0  0  0  0  0  0  0  0
  144.6125   71.4216  221.1145 H   0  0  0  0  0  0  0  0  0  0  0  0
  145.0800   73.5290  220.9300 C   0  0  0  0  0  0  0  0  0  0  0  0
  146.5900   73.3940  221.8130 Cl  0  0  0  0  0  0  0  0  0  0  0  0
  144.6730   74.7670  220.4270 C   0  0  0  0  0  0  0  0  0  0  0  0
  145.2995   75.6569  220.5869 H   0  0  0  0  0  0  0  0  0  0  0  0
  143.4700   74.8780  219.7200 C   0  0  0  0  0  0  0  0  0  0  0  0
  142.9790   76.4490  219.1060 Cl  0  0  0  0  0  0  0  0  0  0  0  0
  140.1380   70.7640  224.2660 C   0  0  0  0  0  0  0  0  0  0  0  0
  139.6240   69.4760  224.4990 C   0  0  0  0  0  0  0  0  0  0  0  0
  139.2861   68.8594  223.6531 H   0  0  0  0  0  0  0  0  0  0  0  0
  139.5410   68.9770  225.8010 C   0  0  0  0  0  0  0  0  0  0  0  0
  139.1162   67.9780  225.9786 H   0  0  0  0  0  0  0  0  0  0  0  0
  139.9950   69.7410  226.8780 C   0  0  0  0  0  0  0  0  0  0  0  0
  139.9079   69.3491  227.9021 H   0  0  0  0  0  0  0  0  0  0  0  0
  140.5630   71.0090  226.6600 C   0  0  0  0  0  0  0  0  0  0  0  0
  141.0220   71.8550  227.8210 C   0  0  0  0  0  0  0  0  0  0  0  0
  139.9430   72.3700  228.5170 F   0  0  0  0  0  0  0  0  0  0  0  0
  141.7820   71.1010  228.6990 F   0  0  0  0  0  0  0  0  0  0  0  0
  141.7900   72.9020  227.3450 F   0  0  0  0  0  0  0  0  0  0  0  0
  140.6170   71.5170  225.3490 C   0  0  0  0  0  0  0  0  0  0  0  0
  141.0399   72.5167  225.1708 H   0  0  0  0  0  0  0  0  0  0  0  0
  1  2  1  0
  2  3  2  0
  3  4  1  0
  4  5  1  0
  5  6  2  0
  5  7  1  0
  7  8  1  0
  7  9  1  0
  7 10  1  0
 10 11  1  0
 10 12  1  0
 10 13  1  0
 13 14  1  0
 13 15  1  0
 13 16  1  0
 16 17  1  0
 17 18  2  0
 18 19  1  0
 18 20  1  0
 20 21  1  0
 20 22  2  0
 22 23  1  0
 22 24  1  0
 24 25  1  0
 24 26  2  0
 26 27  1  0
  2 28  1  0
 28 29  2  0
 29 30  1  0
 29 31  1  0
 31 32  1  0
 31 33  2  0
 33 34  1  0
 33 35  1  0
 35 36  1  0
 36 37  1  0
 36 38  1  0
 36 39  1  0
 35 40  2  0
 40 41  1  0
 26 17  1  0
 40 28  1  0
M  CHG  1   4  -1
M  END
>  <UniqueID>  (36) 
18

>  <SMILES>  (36) 
O=C(CCCOc1ccc(Cl)cc1Cl)[N-]/N=C\c1cccc(C(F)(F)F)c1

>  <Energy>  (36) 
40.06540969997561

>  <Genealogy>  (36) 
O=C(CCCOc1ccc(Cl)cc1Cl)[N-]N=Cc1cccc(C(F)(F)F)c1 (protonated)
O=C(CCCOc1ccc(Cl)cc1Cl)[N-]/N=C\c1cccc(C(F)(F)F)c1 (cis-trans isomerization)
O=C(CCCOc1ccc(Cl)cc1Cl)[N-]/N=C\c1cccc(C(F)(F)F)c1 (3D coordinates assigned)
O=C(CCCOc1ccc(Cl)cc1Cl)[N-]/N=C\c1cccc(C(F)(F)F)c1 (optimized conformer: 40.06540969997561 kcal/mol)

>  <smiles>  (36) 
O=C(CCCOc1ccc(Cl)cc1Cl)NN=Cc1cccc(C(F)(F)F)c1

>  <score_type>  (36) 
oracle

>  <origin>  (36) 
autodockgpu

>  <m_score__min__energy>  (36) 
-6.71

>  <m_primary>  (36) 
energy

>  <meeko>  (36) 
{"free_energy": -5.68, "intermolecular_energy": -8.66, "internal_energy": -1.42, "cluster_size": 4, "cluster_id": 4, "rank_in_cluster": 4}

>  <energy>  (36) 
-5.68

>  <cluster_rmsd>  (36) 
0.58

>  <rmsd>  (36) 
271.32

>  <cluster>  (36) 
4

$$$$
VHXSVHVNRGGTDL-UPLQUKELNA-M
     RDKit          3D

 41 42  0  0  0  0  0  0  0  0999 V2000
  136.2052   70.5047  223.6809 H   0  0  0  0  0  0  0  0  0  0  0  0
  136.7260   69.6990  224.2190 C   0  0  0  0  0  0  0  0  0  0  0  0
  136.0770   68.5980  224.4520 N   0  0  0  0  0  0  0  0  0  0  0  0
  134.6760   68.5320  224.5010 N   0  0  0  0  0  0  0  0  0  0  0  0
  133.9460   68.8570  225.6850 C   0  0  0  0  0  0  0  0  0  0  0  0
  133.1020   68.0340  226.1270 O   0  0  0  0  0  0  0  0  0  0  0  0
  134.1350   70.1730  226.3910 C   0  0  0  0  0  0  0  0  0  0  0  0
  133.9013   70.0390  227.4575 H   0  0  0  0  0  0  0  0  0  0  0  0
  135.1792   70.4863  226.2447 H   0  0  0  0  0  0  0  0  0  0  0  0
  133.2300   71.2750  225.8220 C   0  0  0  0  0  0  0  0  0  0  0  0
  133.6422   71.6057  224.8573 H   0  0  0  0  0  0  0  0  0  0  0  0
  132.2211   70.8513  225.7095 H   0  0  0  0  0  0  0  0  0  0  0  0
  133.1210   72.4920  226.7530 C   0  0  0  0  0  0  0  0  0  0  0  0
  132.1787   73.0214  226.5484 H   0  0  0  0  0  0  0  0  0  0  0  0
  133.1413   72.1453  227.7967 H   0  0  0  0  0  0  0  0  0  0  0  0
  134.2160   73.3820  226.5400 O   0  0  0  0  0  0  0  0  0  0  0  0
  134.1120   74.6950  226.0470 C   0  0  0  0  0  0  0  0  0  0  0  0
  133.4900   75.7300  226.7770 C   0  0  0  0  0  0  0  0  0  0  0  0
  133.0711   75.5215  227.7725 H   0  0  0  0  0  0  0  0  0  0  0  0
  133.4030   77.0180  226.2430 C   0  0  0  0  0  0  0  0  0  0  0  0
  132.9137   77.8183  226.8175 H   0  0  0  0  0  0  0  0  0  0  0  0
  133.9360   77.2920  224.9810 C   0  0  0  0  0  0  0  0  0  0  0  0
  133.8290   78.9120  224.3150 Cl  0  0  0  0  0  0  0  0  0  0  0  0
  134.5630   76.2780  224.2530 C   0  0  0  0  0  0  0  0  0  0  0  0
  134.9868   76.4956  223.2615 H   0  0  0  0  0  0  0  0  0  0  0  0
  134.6530   74.9850  224.7830 C   0  0  0  0  0  0  0  0  0  0  0  0
  135.4400   73.7270  223.8420 Cl  0  0  0  0  0  0  0  0  0  0  0  0
  138.1270   69.9300  224.6370 C   0  0  0  0  0  0  0  0  0  0  0  0
  138.8230   71.0980  224.2770 C   0  0  0  0  0  0  0  0  0  0  0  0
  138.3278   71.8635  223.6616 H   0  0  0  0  0  0  0  0  0  0  0  0
  140.1400   71.2890  224.6980 C   0  0  0  0  0  0  0  0  0  0  0  0
  140.6863   72.1943  224.3947 H   0  0  0  0  0  0  0  0  0  0  0  0
  140.7670   70.3350  225.5030 C   0  0  0  0  0  0  0  0  0  0  0  0
  141.8122   70.4826  225.8126 H   0  0  0  0  0  0  0  0  0  0  0  0
  140.0700   69.1870  225.9200 C   0  0  0  0  0  0  0  0  0  0  0  0
  140.7510   68.1370  226.7600 C   0  0  0  0  0  0  0  0  0  0  0  0
  141.9790   67.7930  226.2230 F   0  0  0  0  0  0  0  0  0  0  0  0
  140.9580   68.6050  228.0460 F   0  0  0  0  0  0  0  0  0  0  0  0
  139.9530   67.0090  226.8130 F   0  0  0  0  0  0  0  0  0  0  0  0
  138.7520   68.9880  225.4680 C   0  0  0  0  0  0  0  0  0  0  0  0
  138.2051   68.0826  225.7700 H   0  0  0  0  0  0  0  0  0  0  0  0
  1  2  1  0
  2  3  2  0
  3  4  1  0
  4  5  1  0
  5  6  2  0
  5  7  1  0
  7  8  1  0
  7  9  1  0
  7 10  1  0
 10 11  1  0
 10 12  1  0
 10 13  1  0
 13 14  1  0
 13 15  1  0
 13 16  1  0
 16 17  1  0
 17 18  2  0
 18 19  1  0
 18 20  1  0
 20 21  1  0
 20 22  2  0
 22 23  1  0
 22 24  1  0
 24 25  1  0
 24 26  2  0
 26 27  1  0
  2 28  1  0
 28 29  2  0
 29 30  1  0
 29 31  1  0
 31 32  1  0
 31 33  2  0
 33 34  1  0
 33 35  1  0
 35 36  1  0
 36 37  1  0
 36 38  1  0
 36 39  1  0
 35 40  2  0
 40 41  1  0
 26 17  1  0
 40 28  1  0
M  CHG  1   4  -1
M  END
>  <UniqueID>  (37) 
18

>  <SMILES>  (37) 
O=C(CCCOc1ccc(Cl)cc1Cl)[N-]/N=C\c1cccc(C(F)(F)F)c1

>  <Energy>  (37) 
40.06540969997561

>  <Genealogy>  (37) 
O=C(CCCOc1ccc(Cl)cc1Cl)[N-]N=Cc1cccc(C(F)(F)F)c1 (protonated)
O=C(CCCOc1ccc(Cl)cc1Cl)[N-]/N=C\c1cccc(C(F)(F)F)c1 (cis-trans isomerization)
O=C(CCCOc1ccc(Cl)cc1Cl)[N-]/N=C\c1cccc(C(F)(F)F)c1 (3D coordinates assigned)
O=C(CCCOc1ccc(Cl)cc1Cl)[N-]/N=C\c1cccc(C(F)(F)F)c1 (optimized conformer: 40.06540969997561 kcal/mol)

>  <smiles>  (37) 
O=C(CCCOc1ccc(Cl)cc1Cl)NN=Cc1cccc(C(F)(F)F)c1

>  <score_type>  (37) 
oracle

>  <origin>  (37) 
autodockgpu

>  <m_score__min__energy>  (37) 
-6.71

>  <m_primary>  (37) 
energy

>  <meeko>  (37) 
{"free_energy": -5.81, "intermolecular_energy": -8.79, "internal_energy": -0.94, "cluster_size": 1, "cluster_id": 6, "rank_in_cluster": 1}

>  <energy>  (37) 
-6.07

>  <cluster_rmsd>  (37) 
0.0

>  <rmsd>  (37) 
271.96

>  <cluster>  (37) 
5

$$$$
VHXSVHVNRGGTDL-UPLQUKELNA-M
     RDKit          3D

 41 42  0  0  0  0  0  0  0  0999 V2000
  138.0911   71.0096  222.5059 H   0  0  0  0  0  0  0  0  0  0  0  0
  139.0890   71.1880  222.9330 C   0  0  0  0  0  0  0  0  0  0  0  0
  139.9100   71.9530  222.2760 N   0  0  0  0  0  0  0  0  0  0  0  0
  140.2750   73.2360  222.7110 N   0  0  0  0  0  0  0  0  0  0  0  0
  140.3440   74.3460  221.8150 C   0  0  0  0  0  0  0  0  0  0  0  0
  141.4490   74.9230  221.6430 O   0  0  0  0  0  0  0  0  0  0  0  0
  139.1220   74.8620  221.1030 C   0  0  0  0  0  0  0  0  0  0  0  0
  139.4132   75.7166  220.4745 H   0  0  0  0  0  0  0  0  0  0  0  0
  138.7125   74.0396  220.4980 H   0  0  0  0  0  0  0  0  0  0  0  0
  138.0280   75.3170  222.0790 C   0  0  0  0  0  0  0  0  0  0  0  0
  137.1824   74.6167  222.0113 H   0  0  0  0  0  0  0  0  0  0  0  0
  138.4663   75.3287  223.0878 H   0  0  0  0  0  0  0  0  0  0  0  0
  137.5180   76.7340  221.7780 C   0  0  0  0  0  0  0  0  0  0  0  0
  137.9731   77.0915  220.8425 H   0  0  0  0  0  0  0  0  0  0  0  0
  136.4228   76.7047  221.6797 H   0  0  0  0  0  0  0  0  0  0  0  0
  137.8630   77.6250  222.8390 O   0  0  0  0  0  0  0  0  0  0  0  0
  139.1000   78.2780  222.9820 C   0  0  0  0  0  0  0  0  0  0  0  0
  140.3250   77.6560  222.6600 C   0  0  0  0  0  0  0  0  0  0  0  0
  140.3306   76.6252  222.2761 H   0  0  0  0  0  0  0  0  0  0  0  0
  141.5310   78.3420  222.8260 C   0  0  0  0  0  0  0  0  0  0  0  0
  142.4818   77.8487  222.5758 H   0  0  0  0  0  0  0  0  0  0  0  0
  141.5320   79.6530  223.3090 C   0  0  0  0  0  0  0  0  0  0  0  0
  143.0480   80.5120  223.5120 Cl  0  0  0  0  0  0  0  0  0  0  0  0
  140.3250   80.2820  223.6220 C   0  0  0  0  0  0  0  0  0  0  0  0
  140.3264   81.3156  223.9983 H   0  0  0  0  0  0  0  0  0  0  0  0
  139.1130   79.6000  223.4580 C   0  0  0  0  0  0  0  0  0  0  0  0
  137.6100   80.4130  223.8670 Cl  0  0  0  0  0  0  0  0  0  0  0  0
  139.4220   70.5440  224.2230 C   0  0  0  0  0  0  0  0  0  0  0  0
  139.2360   69.1660  224.4310 C   0  0  0  0  0  0  0  0  0  0  0  0
  138.8253   68.5404  223.6248 H   0  0  0  0  0  0  0  0  0  0  0  0
  139.5710   68.5890  225.6580 C   0  0  0  0  0  0  0  0  0  0  0  0
  139.4016   67.5146  225.8223 H   0  0  0  0  0  0  0  0  0  0  0  0
  140.1200   69.3700  226.6770 C   0  0  0  0  0  0  0  0  0  0  0  0
  140.3614   68.9121  227.6476 H   0  0  0  0  0  0  0  0  0  0  0  0
  140.3660   70.7390  226.4690 C   0  0  0  0  0  0  0  0  0  0  0  0
  140.9260   71.5960  227.5770 C   0  0  0  0  0  0  0  0  0  0  0  0
  139.9190   72.2860  228.2270 F   0  0  0  0  0  0  0  0  0  0  0  0
  141.5840   70.8130  228.5090 F   0  0  0  0  0  0  0  0  0  0  0  0
  141.8200   72.5050  227.0400 F   0  0  0  0  0  0  0  0  0  0  0  0
  140.0000   71.3190  225.2410 C   0  0  0  0  0  0  0  0  0  0  0  0
  140.1688   72.3934  225.0762 H   0  0  0  0  0  0  0  0  0  0  0  0
  1  2  1  0
  2  3  2  0
  3  4  1  0
  4  5  1  0
  5  6  2  0
  5  7  1  0
  7  8  1  0
  7  9  1  0
  7 10  1  0
 10 11  1  0
 10 12  1  0
 10 13  1  0
 13 14  1  0
 13 15  1  0
 13 16  1  0
 16 17  1  0
 17 18  2  0
 18 19  1  0
 18 20  1  0
 20 21  1  0
 20 22  2  0
 22 23  1  0
 22 24  1  0
 24 25  1  0
 24 26  2  0
 26 27  1  0
  2 28  1  0
 28 29  2  0
 29 30  1  0
 29 31  1  0
 31 32  1  0
 31 33  2  0
 33 34  1  0
 33 35  1  0
 35 36  1  0
 36 37  1  0
 36 38  1  0
 36 39  1  0
 35 40  2  0
 40 41  1  0
 26 17  1  0
 40 28  1  0
M  CHG  1   4  -1
M  END
>  <UniqueID>  (38) 
18

>  <SMILES>  (38) 
O=C(CCCOc1ccc(Cl)cc1Cl)[N-]/N=C\c1cccc(C(F)(F)F)c1

>  <Energy>  (38) 
40.06540969997561

>  <Genealogy>  (38) 
O=C(CCCOc1ccc(Cl)cc1Cl)[N-]N=Cc1cccc(C(F)(F)F)c1 (protonated)
O=C(CCCOc1ccc(Cl)cc1Cl)[N-]/N=C\c1cccc(C(F)(F)F)c1 (cis-trans isomerization)
O=C(CCCOc1ccc(Cl)cc1Cl)[N-]/N=C\c1cccc(C(F)(F)F)c1 (3D coordinates assigned)
O=C(CCCOc1ccc(Cl)cc1Cl)[N-]/N=C\c1cccc(C(F)(F)F)c1 (optimized conformer: 40.06540969997561 kcal/mol)

>  <smiles>  (38) 
O=C(CCCOc1ccc(Cl)cc1Cl)NN=Cc1cccc(C(F)(F)F)c1

>  <score_type>  (38) 
oracle

>  <origin>  (38) 
autodockgpu

>  <m_score__min__energy>  (38) 
-6.71

>  <m_primary>  (38) 
energy

>  <meeko>  (38) 
{"free_energy": -6.4, "intermolecular_energy": -9.38, "internal_energy": -0.95, "cluster_size": 8, "cluster_id": 1, "rank_in_cluster": 5}

>  <energy>  (38) 
-5.81

>  <cluster_rmsd>  (38) 
0.0

>  <rmsd>  (38) 
270.68

>  <cluster>  (38) 
6

$$$$
VHXSVHVNRGGTDL-UPLQUKELNA-M
     RDKit          3D

 41 42  0  0  0  0  0  0  0  0999 V2000
  139.6364   70.9153  222.0949 H   0  0  0  0  0  0  0  0  0  0  0  0
  140.0210   71.4860  222.9530 C   0  0  0  0  0  0  0  0  0  0  0  0
  140.4670   72.6890  222.7400 N   0  0  0  0  0  0  0  0  0  0  0  0
  139.6340   73.7620  222.3880 N   0  0  0  0  0  0  0  0  0  0  0  0
  139.4230   74.1380  221.0260 C   0  0  0  0  0  0  0  0  0  0  0  0
  138.3250   73.8560  220.4790 O   0  0  0  0  0  0  0  0  0  0  0  0
  140.4940   74.8260  220.2230 C   0  0  0  0  0  0  0  0  0  0  0  0
  140.9447   74.0954  219.5351 H   0  0  0  0  0  0  0  0  0  0  0  0
  140.0233   75.6559  219.6756 H   0  0  0  0  0  0  0  0  0  0  0  0
  141.6000   75.4160  221.1110 C   0  0  0  0  0  0  0  0  0  0  0  0
  142.1707   74.5891  221.5589 H   0  0  0  0  0  0  0  0  0  0  0  0
  142.2351   76.0498  220.4747 H   0  0  0  0  0  0  0  0  0  0  0  0
  141.0450   76.2980  222.2390 C   0  0  0  0  0  0  0  0  0  0  0  0
  140.2356   75.7601  222.7542 H   0  0  0  0  0  0  0  0  0  0  0  0
  141.8574   76.5265  222.9445 H   0  0  0  0  0  0  0  0  0  0  0  0
  140.5340   77.5220  221.7110 O   0  0  0  0  0  0  0  0  0  0  0  0
  139.7540   78.4510  222.4210 C   0  0  0  0  0  0  0  0  0  0  0  0
  138.3460   78.3860  222.4570 C   0  0  0  0  0  0  0  0  0  0  0  0
  137.8225   77.5818  221.9192 H   0  0  0  0  0  0  0  0  0  0  0  0
  137.6110   79.3360  223.1710 C   0  0  0  0  0  0  0  0  0  0  0  0
  136.5127   79.2782  223.1922 H   0  0  0  0  0  0  0  0  0  0  0  0
  138.2690   80.3590  223.8580 C   0  0  0  0  0  0  0  0  0  0  0  0
  137.3440   81.5490  224.7570 Cl  0  0  0  0  0  0  0  0  0  0  0  0
  139.6640   80.4290  223.8380 C   0  0  0  0  0  0  0  0  0  0  0  0
  140.1812   81.2314  224.3844 H   0  0  0  0  0  0  0  0  0  0  0  0
  140.4050   79.4800  223.1240 C   0  0  0  0  0  0  0  0  0  0  0  0
  142.1580   79.5960  223.1090 Cl  0  0  0  0  0  0  0  0  0  0  0  0
  140.0020   70.8420  224.2850 C   0  0  0  0  0  0  0  0  0  0  0  0
  139.5570   69.5200  224.4600 C   0  0  0  0  0  0  0  0  0  0  0  0
  139.2028   68.9418  223.5939 H   0  0  0  0  0  0  0  0  0  0  0  0
  139.5630   68.9380  225.7300 C   0  0  0  0  0  0  0  0  0  0  0  0
  139.1932   67.9107  225.8637 H   0  0  0  0  0  0  0  0  0  0  0  0
  140.0370   69.6560  226.8310 C   0  0  0  0  0  0  0  0  0  0  0  0
  140.0182   69.1990  227.8314 H   0  0  0  0  0  0  0  0  0  0  0  0
  140.5380   70.9600  226.6670 C   0  0  0  0  0  0  0  0  0  0  0  0
  141.0190   71.7540  227.8550 C   0  0  0  0  0  0  0  0  0  0  0  0
  139.9530   72.2540  228.5810 F   0  0  0  0  0  0  0  0  0  0  0  0
  141.7770   70.9560  228.6950 F   0  0  0  0  0  0  0  0  0  0  0  0
  141.7960   72.8090  227.4130 F   0  0  0  0  0  0  0  0  0  0  0  0
  140.5030   71.5490  225.3890 C   0  0  0  0  0  0  0  0  0  0  0  0
  140.8729   72.5761  225.2539 H   0  0  0  0  0  0  0  0  0  0  0  0
  1  2  1  0
  2  3  2  0
  3  4  1  0
  4  5  1  0
  5  6  2  0
  5  7  1  0
  7  8  1  0
  7  9  1  0
  7 10  1  0
 10 11  1  0
 10 12  1  0
 10 13  1  0
 13 14  1  0
 13 15  1  0
 13 16  1  0
 16 17  1  0
 17 18  2  0
 18 19  1  0
 18 20  1  0
 20 21  1  0
 20 22  2  0
 22 23  1  0
 22 24  1  0
 24 25  1  0
 24 26  2  0
 26 27  1  0
  2 28  1  0
 28 29  2  0
 29 30  1  0
 29 31  1  0
 31 32  1  0
 31 33  2  0
 33 34  1  0
 33 35  1  0
 35 36  1  0
 36 37  1  0
 36 38  1  0
 36 39  1  0
 35 40  2  0
 40 41  1  0
 26 17  1  0
 40 28  1  0
M  CHG  1   4  -1
M  END
>  <UniqueID>  (39) 
18

>  <SMILES>  (39) 
O=C(CCCOc1ccc(Cl)cc1Cl)[N-]/N=C\c1cccc(C(F)(F)F)c1

>  <Energy>  (39) 
40.06540969997561

>  <Genealogy>  (39) 
O=C(CCCOc1ccc(Cl)cc1Cl)[N-]N=Cc1cccc(C(F)(F)F)c1 (protonated)
O=C(CCCOc1ccc(Cl)cc1Cl)[N-]/N=C\c1cccc(C(F)(F)F)c1 (cis-trans isomerization)
O=C(CCCOc1ccc(Cl)cc1Cl)[N-]/N=C\c1cccc(C(F)(F)F)c1 (3D coordinates assigned)
O=C(CCCOc1ccc(Cl)cc1Cl)[N-]/N=C\c1cccc(C(F)(F)F)c1 (optimized conformer: 40.06540969997561 kcal/mol)

>  <smiles>  (39) 
O=C(CCCOc1ccc(Cl)cc1Cl)NN=Cc1cccc(C(F)(F)F)c1

>  <score_type>  (39) 
oracle

>  <origin>  (39) 
autodockgpu

>  <m_score__min__energy>  (39) 
-6.71

>  <m_primary>  (39) 
energy

>  <meeko>  (39) 
{"free_energy": -6.17, "intermolecular_energy": -9.16, "internal_energy": -0.81, "cluster_size": 8, "cluster_id": 1, "rank_in_cluster": 8}

>  <energy>  (39) 
-5.44

>  <cluster_rmsd>  (39) 
0.0

>  <rmsd>  (39) 
271.19

>  <cluster>  (39) 
7

$$$$
VHXSVHVNRGGTDL-UPLQUKELNA-M
     RDKit          3D

 41 42  0  0  0  0  0  0  0  0999 V2000
  139.6651   70.5238  222.8938 H   0  0  0  0  0  0  0  0  0  0  0  0
  139.9330   71.3270  223.5960 C   0  0  0  0  0  0  0  0  0  0  0  0
  139.9350   72.5500  223.1570 N   0  0  0  0  0  0  0  0  0  0  0  0
  140.9420   73.0630  222.3250 N   0  0  0  0  0  0  0  0  0  0  0  0
  140.7690   74.2740  221.5880 C   0  0  0  0  0  0  0  0  0  0  0  0
  141.4120   75.2980  221.9360 O   0  0  0  0  0  0  0  0  0  0  0  0
  139.8080   74.3620  220.4320 C   0  0  0  0  0  0  0  0  0  0  0  0
  140.1907   75.0977  219.7093 H   0  0  0  0  0  0  0  0  0  0  0  0
  139.7294   73.3608  219.9833 H   0  0  0  0  0  0  0  0  0  0  0  0
  138.4010   74.7900  220.8740 C   0  0  0  0  0  0  0  0  0  0  0  0
  137.8158   75.0527  219.9804 H   0  0  0  0  0  0  0  0  0  0  0  0
  137.9525   73.9467  221.4196 H   0  0  0  0  0  0  0  0  0  0  0  0
  138.4210   75.9980  221.8210 C   0  0  0  0  0  0  0  0  0  0  0  0
  137.3871   76.2861  222.0618 H   0  0  0  0  0  0  0  0  0  0  0  0
  138.9615   75.7216  222.7383 H   0  0  0  0  0  0  0  0  0  0  0  0
  139.0860   77.1030  221.2090 O   0  0  0  0  0  0  0  0  0  0  0  0
  139.9730   77.9790  221.8590 C   0  0  0  0  0  0  0  0  0  0  0  0
  139.6590   78.6000  223.0860 C   0  0  0  0  0  0  0  0  0  0  0  0
  138.6919   78.3978  223.5696 H   0  0  0  0  0  0  0  0  0  0  0  0
  140.5700   79.4710  223.6910 C   0  0  0  0  0  0  0  0  0  0  0  0
  140.3164   79.9533  224.6465 H   0  0  0  0  0  0  0  0  0  0  0  0
  141.8010   79.7300  223.0850 C   0  0  0  0  0  0  0  0  0  0  0  0
  142.9440   80.8200  223.8490 Cl  0  0  0  0  0  0  0  0  0  0  0  0
  142.1270   79.1130  221.8740 C   0  0  0  0  0  0  0  0  0  0  0  0
  143.0993   79.3133  221.4002 H   0  0  0  0  0  0  0  0  0  0  0  0
  141.2190   78.2410  221.2630 C   0  0  0  0  0  0  0  0  0  0  0  0
  141.6520   77.4850  219.7370 Cl  0  0  0  0  0  0  0  0  0  0  0  0
  140.2710   70.9540  224.9880 C   0  0  0  0  0  0  0  0  0  0  0  0
  140.7850   71.8910  225.9010 C   0  0  0  0  0  0  0  0  0  0  0  0
  140.9531   72.9306  225.5831 H   0  0  0  0  0  0  0  0  0  0  0  0
  141.0830   71.5070  227.2100 C   0  0  0  0  0  0  0  0  0  0  0  0
  141.5060   72.2396  227.9131 H   0  0  0  0  0  0  0  0  0  0  0  0
  140.8460   70.1960  227.6300 C   0  0  0  0  0  0  0  0  0  0  0  0
  141.1035   69.8955  228.6564 H   0  0  0  0  0  0  0  0  0  0  0  0
  140.2800   69.2580  226.7480 C   0  0  0  0  0  0  0  0  0  0  0  0
  140.0540   67.8320  227.1840 C   0  0  0  0  0  0  0  0  0  0  0  0
  138.8560   67.3470  226.6890 F   0  0  0  0  0  0  0  0  0  0  0  0
  141.0730   67.0180  226.7240 F   0  0  0  0  0  0  0  0  0  0  0  0
  140.0220   67.7790  228.5660 F   0  0  0  0  0  0  0  0  0  0  0  0
  140.0090   69.6450  225.4230 C   0  0  0  0  0  0  0  0  0  0  0  0
  139.5866   68.9130  224.7189 H   0  0  0  0  0  0  0  0  0  0  0  0
  1  2  1  0
  2  3  2  0
  3  4  1  0
  4  5  1  0
  5  6  2  0
  5  7  1  0
  7  8  1  0
  7  9  1  0
  7 10  1  0
 10 11  1  0
 10 12  1  0
 10 13  1  0
 13 14  1  0
 13 15  1  0
 13 16  1  0
 16 17  1  0
 17 18  2  0
 18 19  1  0
 18 20  1  0
 20 21  1  0
 20 22  2  0
 22 23  1  0
 22 24  1  0
 24 25  1  0
 24 26  2  0
 26 27  1  0
  2 28  1  0
 28 29  2  0
 29 30  1  0
 29 31  1  0
 31 32  1  0
 31 33  2  0
 33 34  1  0
 33 35  1  0
 35 36  1  0
 36 37  1  0
 36 38  1  0
 36 39  1  0
 35 40  2  0
 40 41  1  0
 26 17  1  0
 40 28  1  0
M  CHG  1   4  -1
M  END
>  <UniqueID>  (40) 
18

>  <SMILES>  (40) 
O=C(CCCOc1ccc(Cl)cc1Cl)[N-]/N=C\c1cccc(C(F)(F)F)c1

>  <Energy>  (40) 
40.06540969997561

>  <Genealogy>  (40) 
O=C(CCCOc1ccc(Cl)cc1Cl)[N-]N=Cc1cccc(C(F)(F)F)c1 (protonated)
O=C(CCCOc1ccc(Cl)cc1Cl)[N-]/N=C\c1cccc(C(F)(F)F)c1 (cis-trans isomerization)
O=C(CCCOc1ccc(Cl)cc1Cl)[N-]/N=C\c1cccc(C(F)(F)F)c1 (3D coordinates assigned)
O=C(CCCOc1ccc(Cl)cc1Cl)[N-]/N=C\c1cccc(C(F)(F)F)c1 (optimized conformer: 40.06540969997561 kcal/mol)

>  <smiles>  (40) 
O=C(CCCOc1ccc(Cl)cc1Cl)NN=Cc1cccc(C(F)(F)F)c1

>  <score_type>  (40) 
oracle

>  <origin>  (40) 
autodockgpu

>  <m_score__min__energy>  (40) 
-6.71

>  <m_primary>  (40) 
energy

>  <meeko>  (40) 
{"free_energy": -6.61, "intermolecular_energy": -9.6, "internal_energy": -1.08, "cluster_size": 2, "cluster_id": 2, "rank_in_cluster": 1}

>  <energy>  (40) 
-4.97

>  <cluster_rmsd>  (40) 
0.0

>  <rmsd>  (40) 
271.04

>  <cluster>  (40) 
8

$$$$
VHXSVHVNRGGTDL-PKHXXGQGNA-M
     RDKit          3D

 41 42  0  0  0  0  0  0  0  0999 V2000
  140.9299   71.3937  222.0337 H   0  0  0  0  0  0  0  0  0  0  0  0
  140.4180   71.8680  222.8840 C   0  0  0  0  0  0  0  0  0  0  0  0
  139.9800   73.0840  222.7670 N   0  0  0  0  0  0  0  0  0  0  0  0
  140.6580   74.0920  222.0560 N   0  0  0  0  0  0  0  0  0  0  0  0
  140.2240   74.6420  220.8060 C   0  0  0  0  0  0  0  0  0  0  0  0
  140.9370   74.5290  219.7720 O   0  0  0  0  0  0  0  0  0  0  0  0
  138.9110   75.3600  220.7250 C   0  0  0  0  0  0  0  0  0  0  0  0
  139.0980   76.4341  220.5788 H   0  0  0  0  0  0  0  0  0  0  0  0
  138.3400   74.9468  219.8805 H   0  0  0  0  0  0  0  0  0  0  0  0
  138.0910   75.1650  222.0070 C   0  0  0  0  0  0  0  0  0  0  0  0
  137.1736   74.6107  221.7599 H   0  0  0  0  0  0  0  0  0  0  0  0
  138.7130   74.6099  222.7247 H   0  0  0  0  0  0  0  0  0  0  0  0
  137.7020   76.5010  222.6550 C   0  0  0  0  0  0  0  0  0  0  0  0
  136.6086   76.6159  222.6191 H   0  0  0  0  0  0  0  0  0  0  0  0
  138.0497   76.5048  223.6986 H   0  0  0  0  0  0  0  0  0  0  0  0
  138.3120   77.5900  221.9610 O   0  0  0  0  0  0  0  0  0  0  0  0
  139.4250   78.3210  222.4090 C   0  0  0  0  0  0  0  0  0  0  0  0
  140.7510   77.8910  222.1880 C   0  0  0  0  0  0  0  0  0  0  0  0
  140.9379   76.9502  221.6495 H   0  0  0  0  0  0  0  0  0  0  0  0
  141.8280   78.6530  222.6490 C   0  0  0  0  0  0  0  0  0  0  0  0
  142.8582   78.3087  222.4752 H   0  0  0  0  0  0  0  0  0  0  0  0
  141.5990   79.8510  223.3300 C   0  0  0  0  0  0  0  0  0  0  0  0
  142.9530   80.8060  223.9060 Cl  0  0  0  0  0  0  0  0  0  0  0  0
  140.2900   80.2880  223.5520 C   0  0  0  0  0  0  0  0  0  0  0  0
  140.1103   81.2311  224.0890 H   0  0  0  0  0  0  0  0  0  0  0  0
  139.2070   79.5290  223.0930 C   0  0  0  0  0  0  0  0  0  0  0  0
  137.5720   80.1080  223.3780 Cl  0  0  0  0  0  0  0  0  0  0  0  0
  140.2410   71.1100  224.1390 C   0  0  0  0  0  0  0  0  0  0  0  0
  139.6330   69.8420  224.1510 C   0  0  0  0  0  0  0  0  0  0  0  0
  139.2892   69.3906  223.2086 H   0  0  0  0  0  0  0  0  0  0  0  0
  139.4640   69.1540  225.3530 C   0  0  0  0  0  0  0  0  0  0  0  0
  138.9820   68.1652  225.3557 H   0  0  0  0  0  0  0  0  0  0  0  0
  139.9050   69.7170  226.5530 C   0  0  0  0  0  0  0  0  0  0  0  0
  139.7527   69.1762  227.4987 H   0  0  0  0  0  0  0  0  0  0  0  0
  140.5420   70.9700  226.5600 C   0  0  0  0  0  0  0  0  0  0  0  0
  140.9780   71.6040  227.8570 C   0  0  0  0  0  0  0  0  0  0  0  0
  139.8830   72.0940  228.5470 F   0  0  0  0  0  0  0  0  0  0  0  0
  141.8490   72.6540  227.6260 F   0  0  0  0  0  0  0  0  0  0  0  0
  141.6140   70.6550  228.6360 F   0  0  0  0  0  0  0  0  0  0  0  0
  140.6840   71.6690  225.3490 C   0  0  0  0  0  0  0  0  0  0  0  0
  141.1479   72.6664  225.3488 H   0  0  0  0  0  0  0  0  0  0  0  0
  1  2  1  0
  2  3  2  0
  3  4  1  0
  4  5  1  0
  5  6  2  0
  5  7  1  0
  7  8  1  0
  7  9  1  0
  7 10  1  0
 10 11  1  0
 10 12  1  0
 10 13  1  0
 13 14  1  0
 13 15  1  0
 13 16  1  0
 16 17  1  0
 17 18  2  0
 18 19  1  0
 18 20  1  0
 20 21  1  0
 20 22  2  0
 22 23  1  0
 22 24  1  0
 24 25  1  0
 24 26  2  0
 26 27  1  0
  2 28  1  0
 28 29  2  0
 29 30  1  0
 29 31  1  0
 31 32  1  0
 31 33  2  0
 33 34  1  0
 33 35  1  0
 35 36  1  0
 36 37  1  0
 36 38  1  0
 36 39  1  0
 35 40  2  0
 40 41  1  0
 26 17  1  0
 40 28  1  0
M  CHG  1   4  -1
M  END
>  <UniqueID>  (41) 
19

>  <SMILES>  (41) 
O=C(CCCOc1ccc(Cl)cc1Cl)[N-]/N=C/c1cccc(C(F)(F)F)c1

>  <Energy>  (41) 
40.89313893023224

>  <Genealogy>  (41) 
O=C(CCCOc1ccc(Cl)cc1Cl)[N-]N=Cc1cccc(C(F)(F)F)c1 (protonated)
O=C(CCCOc1ccc(Cl)cc1Cl)[N-]/N=C/c1cccc(C(F)(F)F)c1 (cis-trans isomerization)
O=C(CCCOc1ccc(Cl)cc1Cl)[N-]/N=C/c1cccc(C(F)(F)F)c1 (3D coordinates assigned)
O=C(CCCOc1ccc(Cl)cc1Cl)[N-]/N=C/c1cccc(C(F)(F)F)c1 (optimized conformer: 40.89313893023224 kcal/mol)

>  <smiles>  (41) 
O=C(CCCOc1ccc(Cl)cc1Cl)NN=Cc1cccc(C(F)(F)F)c1

>  <score_type>  (41) 
oracle

>  <origin>  (41) 
autodockgpu

>  <m_score__min__energy>  (41) 
-6.8700000000000001

>  <m_primary>  (41) 
energy

>  <meeko>  (41) 
{"free_energy": -6.59, "intermolecular_energy": -9.58, "internal_energy": -0.9, "cluster_size": 12, "cluster_id": 1, "rank_in_cluster": 3}

>  <energy>  (41) 
-6.87

>  <cluster_rmsd>  (41) 
0.0

>  <rmsd>  (41) 
272.74

>  <cluster>  (41) 
1

$$$$
VHXSVHVNRGGTDL-PKHXXGQGNA-M
     RDKit          3D

 41 42  0  0  0  0  0  0  0  0999 V2000
  141.6381   71.8204  222.4877 H   0  0  0  0  0  0  0  0  0  0  0  0
  140.6960   72.0610  223.0020 C   0  0  0  0  0  0  0  0  0  0  0  0
  139.9330   72.9990  222.5290 N   0  0  0  0  0  0  0  0  0  0  0  0
  139.5090   73.0570  221.1880 N   0  0  0  0  0  0  0  0  0  0  0  0
  138.2570   73.6040  220.7510 C   0  0  0  0  0  0  0  0  0  0  0  0
  137.3870   72.8660  220.2130 O   0  0  0  0  0  0  0  0  0  0  0  0
  137.9800   75.0650  220.9320 C   0  0  0  0  0  0  0  0  0  0  0  0
  138.9345   75.5991  221.0488 H   0  0  0  0  0  0  0  0  0  0  0  0
  137.4373   75.4283  220.0469 H   0  0  0  0  0  0  0  0  0  0  0  0
  137.1110   75.3170  222.1710 C   0  0  0  0  0  0  0  0  0  0  0  0
  136.1012   75.6046  221.8429 H   0  0  0  0  0  0  0  0  0  0  0  0
  137.0908   74.3903  222.7634 H   0  0  0  0  0  0  0  0  0  0  0  0
  137.6780   76.4320  223.0600 C   0  0  0  0  0  0  0  0  0  0  0  0
  136.8671   76.8559  223.6706 H   0  0  0  0  0  0  0  0  0  0  0  0
  138.4587   76.0078  223.7085 H   0  0  0  0  0  0  0  0  0  0  0  0
  138.2530   77.4650  222.2600 O   0  0  0  0  0  0  0  0  0  0  0  0
  139.3180   78.2970  222.6460 C   0  0  0  0  0  0  0  0  0  0  0  0
  139.1150   79.5830  223.1890 C   0  0  0  0  0  0  0  0  0  0  0  0
  138.0921   79.9659  223.3198 H   0  0  0  0  0  0  0  0  0  0  0  0
  140.2060   80.3740  223.5620 C   0  0  0  0  0  0  0  0  0  0  0  0
  140.0388   81.3770  223.9815 H   0  0  0  0  0  0  0  0  0  0  0  0
  141.5080   79.8930  223.4030 C   0  0  0  0  0  0  0  0  0  0  0  0
  142.8750   80.8870  223.8740 Cl  0  0  0  0  0  0  0  0  0  0  0  0
  141.7200   78.6190  222.8690 C   0  0  0  0  0  0  0  0  0  0  0  0
  142.7454   78.2410  222.7437 H   0  0  0  0  0  0  0  0  0  0  0  0
  140.6320   77.8220  222.4930 C   0  0  0  0  0  0  0  0  0  0  0  0
  140.9300   76.2210  221.8330 Cl  0  0  0  0  0  0  0  0  0  0  0  0
  140.3220   71.3120  224.2170 C   0  0  0  0  0  0  0  0  0  0  0  0
  139.5120   70.1650  224.1520 C   0  0  0  0  0  0  0  0  0  0  0  0
  139.1538   69.8023  223.1773 H   0  0  0  0  0  0  0  0  0  0  0  0
  139.1600   69.4840  225.3190 C   0  0  0  0  0  0  0  0  0  0  0  0
  138.5210   68.5905  225.2610 H   0  0  0  0  0  0  0  0  0  0  0  0
  139.6170   69.9340  226.5600 C   0  0  0  0  0  0  0  0  0  0  0  0
  139.3231   69.4014  227.4765 H   0  0  0  0  0  0  0  0  0  0  0  0
  140.4500   71.0630  226.6450 C   0  0  0  0  0  0  0  0  0  0  0  0
  140.9070   71.5820  227.9850 C   0  0  0  0  0  0  0  0  0  0  0  0
  141.7930   72.6330  227.8200 F   0  0  0  0  0  0  0  0  0  0  0  0
  141.5440   70.5890  228.7090 F   0  0  0  0  0  0  0  0  0  0  0  0
  139.8100   72.0250  228.6990 F   0  0  0  0  0  0  0  0  0  0  0  0
  140.7790   71.7590  225.4690 C   0  0  0  0  0  0  0  0  0  0  0  0
  141.4014   72.6640  225.5290 H   0  0  0  0  0  0  0  0  0  0  0  0
  1  2  1  0
  2  3  2  0
  3  4  1  0
  4  5  1  0
  5  6  2  0
  5  7  1  0
  7  8  1  0
  7  9  1  0
  7 10  1  0
 10 11  1  0
 10 12  1  0
 10 13  1  0
 13 14  1  0
 13 15  1  0
 13 16  1  0
 16 17  1  0
 17 18  2  0
 18 19  1  0
 18 20  1  0
 20 21  1  0
 20 22  2  0
 22 23  1  0
 22 24  1  0
 24 25  1  0
 24 26  2  0
 26 27  1  0
  2 28  1  0
 28 29  2  0
 29 30  1  0
 29 31  1  0
 31 32  1  0
 31 33  2  0
 33 34  1  0
 33 35  1  0
 35 36  1  0
 36 37  1  0
 36 38  1  0
 36 39  1  0
 35 40  2  0
 40 41  1  0
 26 17  1  0
 40 28  1  0
M  CHG  1   4  -1
M  END
>  <UniqueID>  (42) 
19

>  <SMILES>  (42) 
O=C(CCCOc1ccc(Cl)cc1Cl)[N-]/N=C/c1cccc(C(F)(F)F)c1

>  <Energy>  (42) 
40.89313893023224

>  <Genealogy>  (42) 
O=C(CCCOc1ccc(Cl)cc1Cl)[N-]N=Cc1cccc(C(F)(F)F)c1 (protonated)
O=C(CCCOc1ccc(Cl)cc1Cl)[N-]/N=C/c1cccc(C(F)(F)F)c1 (cis-trans isomerization)
O=C(CCCOc1ccc(Cl)cc1Cl)[N-]/N=C/c1cccc(C(F)(F)F)c1 (3D coordinates assigned)
O=C(CCCOc1ccc(Cl)cc1Cl)[N-]/N=C/c1cccc(C(F)(F)F)c1 (optimized conformer: 40.89313893023224 kcal/mol)

>  <smiles>  (42) 
O=C(CCCOc1ccc(Cl)cc1Cl)NN=Cc1cccc(C(F)(F)F)c1

>  <score_type>  (42) 
oracle

>  <origin>  (42) 
autodockgpu

>  <m_score__min__energy>  (42) 
-6.8700000000000001

>  <m_primary>  (42) 
energy

>  <meeko>  (42) 
{"free_energy": -5.79, "intermolecular_energy": -8.78, "internal_energy": -0.92, "cluster_size": 12, "cluster_id": 1, "rank_in_cluster": 12}

>  <energy>  (42) 
-6.72

>  <cluster_rmsd>  (42) 
1.39

>  <rmsd>  (42) 
272.84

>  <cluster>  (42) 
1

$$$$
VHXSVHVNRGGTDL-PKHXXGQGNA-M
     RDKit          3D

 41 42  0  0  0  0  0  0  0  0999 V2000
  141.2228   70.9291  223.1484 H   0  0  0  0  0  0  0  0  0  0  0  0
  140.7140   71.5830  223.8720 C   0  0  0  0  0  0  0  0  0  0  0  0
  140.0720   72.6280  223.4460 N   0  0  0  0  0  0  0  0  0  0  0  0
  140.4920   73.4080  222.3520 N   0  0  0  0  0  0  0  0  0  0  0  0
  140.4600   72.9790  220.9840 C   0  0  0  0  0  0  0  0  0  0  0  0
  139.6550   72.0830  220.6110 O   0  0  0  0  0  0  0  0  0  0  0  0
  141.3910   73.6000  219.9880 C   0  0  0  0  0  0  0  0  0  0  0  0
  142.4283   73.3857  220.2850 H   0  0  0  0  0  0  0  0  0  0  0  0
  141.1739   73.1741  218.9973 H   0  0  0  0  0  0  0  0  0  0  0  0
  141.1960   75.1200  219.9150 C   0  0  0  0  0  0  0  0  0  0  0  0
  141.5086   75.5639  220.8717 H   0  0  0  0  0  0  0  0  0  0  0  0
  141.8043   75.4996  219.0808 H   0  0  0  0  0  0  0  0  0  0  0  0
  139.7340   75.5030  219.6460 C   0  0  0  0  0  0  0  0  0  0  0  0
  139.4824   75.2606  218.6029 H   0  0  0  0  0  0  0  0  0  0  0  0
  139.0865   74.9389  220.3334 H   0  0  0  0  0  0  0  0  0  0  0  0
  139.5340   76.8990  219.8650 O   0  0  0  0  0  0  0  0  0  0  0  0
  140.2550   77.6930  220.7740 C   0  0  0  0  0  0  0  0  0  0  0  0
  141.2310   78.6230  220.3570 C   0  0  0  0  0  0  0  0  0  0  0  0
  141.4502   78.7420  219.2856 H   0  0  0  0  0  0  0  0  0  0  0  0
  141.9210   79.3940  221.2970 C   0  0  0  0  0  0  0  0  0  0  0  0
  142.6836   80.1132  220.9636 H   0  0  0  0  0  0  0  0  0  0  0  0
  141.6440   79.2530  222.6590 C   0  0  0  0  0  0  0  0  0  0  0  0
  142.5100   80.2230  223.8360 Cl  0  0  0  0  0  0  0  0  0  0  0  0
  140.6760   78.3370  223.0820 C   0  0  0  0  0  0  0  0  0  0  0  0
  140.4583   78.2259  224.1545 H   0  0  0  0  0  0  0  0  0  0  0  0
  139.9830   77.5610  222.1460 C   0  0  0  0  0  0  0  0  0  0  0  0
  138.7650   76.4260  222.7080 Cl  0  0  0  0  0  0  0  0  0  0  0  0
  140.7730   71.2570  225.3110 C   0  0  0  0  0  0  0  0  0  0  0  0
  141.0640   72.2380  226.2750 C   0  0  0  0  0  0  0  0  0  0  0  0
  141.2420   73.2774  225.9621 H   0  0  0  0  0  0  0  0  0  0  0  0
  141.1280   71.8990  227.6270 C   0  0  0  0  0  0  0  0  0  0  0  0
  141.3620   72.6708  228.3750 H   0  0  0  0  0  0  0  0  0  0  0  0
  140.8960   70.5830  228.0340 C   0  0  0  0  0  0  0  0  0  0  0  0
  140.9643   70.3203  229.1000 H   0  0  0  0  0  0  0  0  0  0  0  0
  140.5760   69.5930  227.0900 C   0  0  0  0  0  0  0  0  0  0  0  0
  140.3710   68.1610  227.5170 C   0  0  0  0  0  0  0  0  0  0  0  0
  141.4240   67.3730  227.0850 F   0  0  0  0  0  0  0  0  0  0  0  0
  139.2010   67.6490  226.9850 F   0  0  0  0  0  0  0  0  0  0  0  0
  140.3010   68.1030  228.8960 F   0  0  0  0  0  0  0  0  0  0  0  0
  140.5390   69.9350  225.7270 C   0  0  0  0  0  0  0  0  0  0  0  0
  140.3245   69.1591  224.9774 H   0  0  0  0  0  0  0  0  0  0  0  0
  1  2  1  0
  2  3  2  0
  3  4  1  0
  4  5  1  0
  5  6  2  0
  5  7  1  0
  7  8  1  0
  7  9  1  0
  7 10  1  0
 10 11  1  0
 10 12  1  0
 10 13  1  0
 13 14  1  0
 13 15  1  0
 13 16  1  0
 16 17  1  0
 17 18  2  0
 18 19  1  0
 18 20  1  0
 20 21  1  0
 20 22  2  0
 22 23  1  0
 22 24  1  0
 24 25  1  0
 24 26  2  0
 26 27  1  0
  2 28  1  0
 28 29  2  0
 29 30  1  0
 29 31  1  0
 31 32  1  0
 31 33  2  0
 33 34  1  0
 33 35  1  0
 35 36  1  0
 36 37  1  0
 36 38  1  0
 36 39  1  0
 35 40  2  0
 40 41  1  0
 26 17  1  0
 40 28  1  0
M  CHG  1   4  -1
M  END
>  <UniqueID>  (43) 
19

>  <SMILES>  (43) 
O=C(CCCOc1ccc(Cl)cc1Cl)[N-]/N=C/c1cccc(C(F)(F)F)c1

>  <Energy>  (43) 
40.89313893023224

>  <Genealogy>  (43) 
O=C(CCCOc1ccc(Cl)cc1Cl)[N-]N=Cc1cccc(C(F)(F)F)c1 (protonated)
O=C(CCCOc1ccc(Cl)cc1Cl)[N-]/N=C/c1cccc(C(F)(F)F)c1 (cis-trans isomerization)
O=C(CCCOc1ccc(Cl)cc1Cl)[N-]/N=C/c1cccc(C(F)(F)F)c1 (3D coordinates assigned)
O=C(CCCOc1ccc(Cl)cc1Cl)[N-]/N=C/c1cccc(C(F)(F)F)c1 (optimized conformer: 40.89313893023224 kcal/mol)

>  <smiles>  (43) 
O=C(CCCOc1ccc(Cl)cc1Cl)NN=Cc1cccc(C(F)(F)F)c1

>  <score_type>  (43) 
oracle

>  <origin>  (43) 
autodockgpu

>  <m_score__min__energy>  (43) 
-6.8700000000000001

>  <m_primary>  (43) 
energy

>  <meeko>  (43) 
{"free_energy": -5.97, "intermolecular_energy": -8.95, "internal_energy": -0.94, "cluster_size": 3, "cluster_id": 3, "rank_in_cluster": 2}

>  <energy>  (43) 
-6.59

>  <cluster_rmsd>  (43) 
1.51

>  <rmsd>  (43) 
272.51

>  <cluster>  (43) 
1

$$$$
VHXSVHVNRGGTDL-PKHXXGQGNA-M
     RDKit          3D

 41 42  0  0  0  0  0  0  0  0999 V2000
  139.1405   71.1801  222.3740 H   0  0  0  0  0  0  0  0  0  0  0  0
  139.7450   71.5910  223.1960 C   0  0  0  0  0  0  0  0  0  0  0  0
  140.3520   72.7280  223.0360 N   0  0  0  0  0  0  0  0  0  0  0  0
  140.3930   73.4240  221.8130 N   0  0  0  0  0  0  0  0  0  0  0  0
  139.8450   74.7320  221.5990 C   0  0  0  0  0  0  0  0  0  0  0  0
  140.0490   75.6570  222.4320 O   0  0  0  0  0  0  0  0  0  0  0  0
  139.0230   75.0040  220.3770 C   0  0  0  0  0  0  0  0  0  0  0  0
  139.2501   74.2433  219.6156 H   0  0  0  0  0  0  0  0  0  0  0  0
  137.9601   74.9676  220.6579 H   0  0  0  0  0  0  0  0  0  0  0  0
  139.3250   76.3940  219.8010 C   0  0  0  0  0  0  0  0  0  0  0  0
  138.7245   76.5385  218.8907 H   0  0  0  0  0  0  0  0  0  0  0  0
  139.0731   77.1402  220.5689 H   0  0  0  0  0  0  0  0  0  0  0  0
  140.8080   76.5640  219.4470 C   0  0  0  0  0  0  0  0  0  0  0  0
  141.4201   76.0263  220.1861 H   0  0  0  0  0  0  0  0  0  0  0  0
  140.9817   76.1559  218.4404 H   0  0  0  0  0  0  0  0  0  0  0  0
  141.1700   77.9440  219.4530 O   0  0  0  0  0  0  0  0  0  0  0  0
  141.4910   78.6980  220.5950 C   0  0  0  0  0  0  0  0  0  0  0  0
  141.4760   78.1470  221.8940 C   0  0  0  0  0  0  0  0  0  0  0  0
  141.2020   77.0913  222.0368 H   0  0  0  0  0  0  0  0  0  0  0  0
  141.8070   78.9340  223.0000 C   0  0  0  0  0  0  0  0  0  0  0  0
  141.7895   78.4967  224.0092 H   0  0  0  0  0  0  0  0  0  0  0  0
  142.1600   80.2740  222.8280 C   0  0  0  0  0  0  0  0  0  0  0  0
  142.5760   81.2590  224.2180 Cl  0  0  0  0  0  0  0  0  0  0  0  0
  142.1810   80.8300  221.5450 C   0  0  0  0  0  0  0  0  0  0  0  0
  142.4584   81.8858  221.4095 H   0  0  0  0  0  0  0  0  0  0  0  0
  141.8500   80.0470  220.4320 C   0  0  0  0  0  0  0  0  0  0  0  0
  141.8950   80.7700  218.8310 Cl  0  0  0  0  0  0  0  0  0  0  0  0
  139.8530   70.8410  224.4630 C   0  0  0  0  0  0  0  0  0  0  0  0
  139.4390   69.5010  224.5600 C   0  0  0  0  0  0  0  0  0  0  0  0
  139.0353   68.9871  223.6752 H   0  0  0  0  0  0  0  0  0  0  0  0
  139.5380   68.8200  225.7740 C   0  0  0  0  0  0  0  0  0  0  0  0
  139.2077   67.7731  225.8436 H   0  0  0  0  0  0  0  0  0  0  0  0
  140.0550   69.4630  226.9010 C   0  0  0  0  0  0  0  0  0  0  0  0
  140.1134   68.9249  227.8586 H   0  0  0  0  0  0  0  0  0  0  0  0
  140.5010   70.7930  226.8190 C   0  0  0  0  0  0  0  0  0  0  0  0
  141.0160   71.5080  228.0430 C   0  0  0  0  0  0  0  0  0  0  0  0
  141.7810   72.6020  227.6780 F   0  0  0  0  0  0  0  0  0  0  0  0
  141.8010   70.6680  228.8130 F   0  0  0  0  0  0  0  0  0  0  0  0
  139.9440   71.9410  228.8010 F   0  0  0  0  0  0  0  0  0  0  0  0
  140.3740   71.4820  225.6000 C   0  0  0  0  0  0  0  0  0  0  0  0
  140.6860   72.5349  225.5355 H   0  0  0  0  0  0  0  0  0  0  0  0
  1  2  1  0
  2  3  2  0
  3  4  1  0
  4  5  1  0
  5  6  2  0
  5  7  1  0
  7  8  1  0
  7  9  1  0
  7 10  1  0
 10 11  1  0
 10 12  1  0
 10 13  1  0
 13 14  1  0
 13 15  1  0
 13 16  1  0
 16 17  1  0
 17 18  2  0
 18 19  1  0
 18 20  1  0
 20 21  1  0
 20 22  2  0
 22 23  1  0
 22 24  1  0
 24 25  1  0
 24 26  2  0
 26 27  1  0
  2 28  1  0
 28 29  2  0
 29 30  1  0
 29 31  1  0
 31 32  1  0
 31 33  2  0
 33 34  1  0
 33 35  1  0
 35 36  1  0
 36 37  1  0
 36 38  1  0
 36 39  1  0
 35 40  2  0
 40 41  1  0
 26 17  1  0
 40 28  1  0
M  CHG  1   4  -1
M  END
>  <UniqueID>  (44) 
19

>  <SMILES>  (44) 
O=C(CCCOc1ccc(Cl)cc1Cl)[N-]/N=C/c1cccc(C(F)(F)F)c1

>  <Energy>  (44) 
40.89313893023224

>  <Genealogy>  (44) 
O=C(CCCOc1ccc(Cl)cc1Cl)[N-]N=Cc1cccc(C(F)(F)F)c1 (protonated)
O=C(CCCOc1ccc(Cl)cc1Cl)[N-]/N=C/c1cccc(C(F)(F)F)c1 (cis-trans isomerization)
O=C(CCCOc1ccc(Cl)cc1Cl)[N-]/N=C/c1cccc(C(F)(F)F)c1 (3D coordinates assigned)
O=C(CCCOc1ccc(Cl)cc1Cl)[N-]/N=C/c1cccc(C(F)(F)F)c1 (optimized conformer: 40.89313893023224 kcal/mol)

>  <smiles>  (44) 
O=C(CCCOc1ccc(Cl)cc1Cl)NN=Cc1cccc(C(F)(F)F)c1

>  <score_type>  (44) 
oracle

>  <origin>  (44) 
autodockgpu

>  <m_score__min__energy>  (44) 
-6.8700000000000001

>  <m_primary>  (44) 
energy

>  <meeko>  (44) 
{"free_energy": -6.48, "intermolecular_energy": -9.46, "internal_energy": -0.86, "cluster_size": 12, "cluster_id": 1, "rank_in_cluster": 7}

>  <energy>  (44) 
-6.57

>  <cluster_rmsd>  (44) 
1.62

>  <rmsd>  (44) 
272.65

>  <cluster>  (44) 
1

$$$$
VHXSVHVNRGGTDL-PKHXXGQGNA-M
     RDKit          3D

 41 42  0  0  0  0  0  0  0  0999 V2000
  139.4112   71.0681  222.2322 H   0  0  0  0  0  0  0  0  0  0  0  0
  139.9820   71.4950  223.0700 C   0  0  0  0  0  0  0  0  0  0  0  0
  140.6830   72.5710  222.8810 N   0  0  0  0  0  0  0  0  0  0  0  0
  140.2080   73.6980  222.1820 N   0  0  0  0  0  0  0  0  0  0  0  0
  141.0400   74.6340  221.4830 C   0  0  0  0  0  0  0  0  0  0  0  0
  141.7740   74.2540  220.5310 O   0  0  0  0  0  0  0  0  0  0  0  0
  141.0380   76.0760  221.8880 C   0  0  0  0  0  0  0  0  0  0  0  0
  140.2770   76.2284  222.6675 H   0  0  0  0  0  0  0  0  0  0  0  0
  142.0386   76.3322  222.2663 H   0  0  0  0  0  0  0  0  0  0  0  0
  140.7220   76.9890  220.6950 C   0  0  0  0  0  0  0  0  0  0  0  0
  140.6323   76.3708  219.7896 H   0  0  0  0  0  0  0  0  0  0  0  0
  139.7821   77.5173  220.9131 H   0  0  0  0  0  0  0  0  0  0  0  0
  141.8140   78.0430  220.4680 C   0  0  0  0  0  0  0  0  0  0  0  0
  142.6050   77.9127  221.2213 H   0  0  0  0  0  0  0  0  0  0  0  0
  142.2279   77.9141  219.4570 H   0  0  0  0  0  0  0  0  0  0  0  0
  141.2710   79.3580  220.5800 O   0  0  0  0  0  0  0  0  0  0  0  0
  140.3870   79.7920  221.5830 C   0  0  0  0  0  0  0  0  0  0  0  0
  138.9890   79.8230  221.3970 C   0  0  0  0  0  0  0  0  0  0  0  0
  138.5580   79.5021  220.4372 H   0  0  0  0  0  0  0  0  0  0  0  0
  138.1480   80.2590  222.4250 C   0  0  0  0  0  0  0  0  0  0  0  0
  137.0592   80.2824  222.2704 H   0  0  0  0  0  0  0  0  0  0  0  0
  138.6870   80.6650  223.6480 C   0  0  0  0  0  0  0  0  0  0  0  0
  137.6290   81.2100  224.9370 Cl  0  0  0  0  0  0  0  0  0  0  0  0
  140.0710   80.6350  223.8440 C   0  0  0  0  0  0  0  0  0  0  0  0
  140.4952   80.9542  224.8074 H   0  0  0  0  0  0  0  0  0  0  0  0
  140.9190   80.2000  222.8180 C   0  0  0  0  0  0  0  0  0  0  0  0
  142.6530   80.1640  223.0970 Cl  0  0  0  0  0  0  0  0  0  0  0  0
  139.9370   70.8340  224.3890 C   0  0  0  0  0  0  0  0  0  0  0  0
  139.3480   69.5690  224.5570 C   0  0  0  0  0  0  0  0  0  0  0  0
  138.9183   69.0456  223.6902 H   0  0  0  0  0  0  0  0  0  0  0  0
  139.3060   68.9740  225.8190 C   0  0  0  0  0  0  0  0  0  0  0  0
  138.8380   67.9864  225.9438 H   0  0  0  0  0  0  0  0  0  0  0  0
  139.8560   69.6280  226.9240 C   0  0  0  0  0  0  0  0  0  0  0  0
  139.8051   69.1595  227.9180 H   0  0  0  0  0  0  0  0  0  0  0  0
  140.4740   70.8810  226.7730 C   0  0  0  0  0  0  0  0  0  0  0  0
  141.0270   71.6150  227.9690 C   0  0  0  0  0  0  0  0  0  0  0  0
  139.9970   72.1120  228.7500 F   0  0  0  0  0  0  0  0  0  0  0  0
  141.8210   72.6770  227.5740 F   0  0  0  0  0  0  0  0  0  0  0  0
  141.7860   70.7430  228.7260 F   0  0  0  0  0  0  0  0  0  0  0  0
  140.4890   71.4870  225.5040 C   0  0  0  0  0  0  0  0  0  0  0  0
  140.9381   72.4838  225.3829 H   0  0  0  0  0  0  0  0  0  0  0  0
  1  2  1  0
  2  3  2  0
  3  4  1  0
  4  5  1  0
  5  6  2  0
  5  7  1  0
  7  8  1  0
  7  9  1  0
  7 10  1  0
 10 11  1  0
 10 12  1  0
 10 13  1  0
 13 14  1  0
 13 15  1  0
 13 16  1  0
 16 17  1  0
 17 18  2  0
 18 19  1  0
 18 20  1  0
 20 21  1  0
 20 22  2  0
 22 23  1  0
 22 24  1  0
 24 25  1  0
 24 26  2  0
 26 27  1  0
  2 28  1  0
 28 29  2  0
 29 30  1  0
 29 31  1  0
 31 32  1  0
 31 33  2  0
 33 34  1  0
 33 35  1  0
 35 36  1  0
 36 37  1  0
 36 38  1  0
 36 39  1  0
 35 40  2  0
 40 41  1  0
 26 17  1  0
 40 28  1  0
M  CHG  1   4  -1
M  END
>  <UniqueID>  (45) 
19

>  <SMILES>  (45) 
O=C(CCCOc1ccc(Cl)cc1Cl)[N-]/N=C/c1cccc(C(F)(F)F)c1

>  <Energy>  (45) 
40.89313893023224

>  <Genealogy>  (45) 
O=C(CCCOc1ccc(Cl)cc1Cl)[N-]N=Cc1cccc(C(F)(F)F)c1 (protonated)
O=C(CCCOc1ccc(Cl)cc1Cl)[N-]/N=C/c1cccc(C(F)(F)F)c1 (cis-trans isomerization)
O=C(CCCOc1ccc(Cl)cc1Cl)[N-]/N=C/c1cccc(C(F)(F)F)c1 (3D coordinates assigned)
O=C(CCCOc1ccc(Cl)cc1Cl)[N-]/N=C/c1cccc(C(F)(F)F)c1 (optimized conformer: 40.89313893023224 kcal/mol)

>  <smiles>  (45) 
O=C(CCCOc1ccc(Cl)cc1Cl)NN=Cc1cccc(C(F)(F)F)c1

>  <score_type>  (45) 
oracle

>  <origin>  (45) 
autodockgpu

>  <m_score__min__energy>  (45) 
-6.8700000000000001

>  <m_primary>  (45) 
energy

>  <meeko>  (45) 
{"free_energy": -6.47, "intermolecular_energy": -9.45, "internal_energy": -0.76, "cluster_size": 1, "cluster_id": 2, "rank_in_cluster": 1}

>  <energy>  (45) 
-6.53

>  <cluster_rmsd>  (45) 
1.72

>  <rmsd>  (45) 
272.47

>  <cluster>  (45) 
1

$$$$
VHXSVHVNRGGTDL-PKHXXGQGNA-M
     RDKit          3D

 41 42  0  0  0  0  0  0  0  0999 V2000
  139.1364   70.9055  222.3438 H   0  0  0  0  0  0  0  0  0  0  0  0
  139.6030   71.4560  223.1740 C   0  0  0  0  0  0  0  0  0  0  0  0
  139.9440   72.6970  223.0050 N   0  0  0  0  0  0  0  0  0  0  0  0
  141.0510   73.1030  222.2350 N   0  0  0  0  0  0  0  0  0  0  0  0
  140.9670   73.6860  220.9280 C   0  0  0  0  0  0  0  0  0  0  0  0
  140.0980   73.2900  220.1040 O   0  0  0  0  0  0  0  0  0  0  0  0
  141.9200   74.7730  220.5350 C   0  0  0  0  0  0  0  0  0  0  0  0
  142.8246   74.6988  221.1564 H   0  0  0  0  0  0  0  0  0  0  0  0
  142.1688   74.6495  219.4706 H   0  0  0  0  0  0  0  0  0  0  0  0
  141.2920   76.1600  220.7290 C   0  0  0  0  0  0  0  0  0  0  0  0
  142.0653   76.9251  220.5661 H   0  0  0  0  0  0  0  0  0  0  0  0
  140.4693   76.2628  220.0061 H   0  0  0  0  0  0  0  0  0  0  0  0
  140.7080   76.3390  222.1370 C   0  0  0  0  0  0  0  0  0  0  0  0
  139.6125   76.2521  222.0880 H   0  0  0  0  0  0  0  0  0  0  0  0
  141.1218   75.5605  222.7947 H   0  0  0  0  0  0  0  0  0  0  0  0
  141.0540   77.6190  222.6640 O   0  0  0  0  0  0  0  0  0  0  0  0
  140.1420   78.6190  223.0430 C   0  0  0  0  0  0  0  0  0  0  0  0
  138.7460   78.4090  223.0430 C   0  0  0  0  0  0  0  0  0  0  0  0
  138.3398   77.4343  222.7349 H   0  0  0  0  0  0  0  0  0  0  0  0
  137.8770   79.4320  223.4320 C   0  0  0  0  0  0  0  0  0  0  0  0
  136.7904   79.2607  223.4254 H   0  0  0  0  0  0  0  0  0  0  0  0
  138.3840   80.6710  223.8290 C   0  0  0  0  0  0  0  0  0  0  0  0
  137.2900   81.9520  224.3180 Cl  0  0  0  0  0  0  0  0  0  0  0  0
  139.7650   80.8880  223.8360 C   0  0  0  0  0  0  0  0  0  0  0  0
  140.1642   81.8641  224.1487 H   0  0  0  0  0  0  0  0  0  0  0  0
  140.6420   79.8690  223.4470 C   0  0  0  0  0  0  0  0  0  0  0  0
  142.3730   80.1680  223.4750 Cl  0  0  0  0  0  0  0  0  0  0  0  0
  139.8310   70.7710  224.4620 C   0  0  0  0  0  0  0  0  0  0  0  0
  139.5670   69.3990  224.6200 C   0  0  0  0  0  0  0  0  0  0  0  0
  139.1937   68.8111  223.7685 H   0  0  0  0  0  0  0  0  0  0  0  0
  139.7770   68.7800  225.8540 C   0  0  0  0  0  0  0  0  0  0  0  0
  139.5629   67.7076  225.9728 H   0  0  0  0  0  0  0  0  0  0  0  0
  140.2580   69.5180  226.9380 C   0  0  0  0  0  0  0  0  0  0  0  0
  140.4053   69.0270  227.9112 H   0  0  0  0  0  0  0  0  0  0  0  0
  140.5550   70.8840  226.7930 C   0  0  0  0  0  0  0  0  0  0  0  0
  141.0290   71.6960  227.9720 C   0  0  0  0  0  0  0  0  0  0  0  0
  141.8170   70.9240  228.8070 F   0  0  0  0  0  0  0  0  0  0  0  0
  139.9580   72.1730  228.7070 F   0  0  0  0  0  0  0  0  0  0  0  0
  141.7730   72.7690  227.5160 F   0  0  0  0  0  0  0  0  0  0  0  0
  140.3160   71.5070  225.5560 C   0  0  0  0  0  0  0  0  0  0  0  0
  140.5110   72.5837  225.4431 H   0  0  0  0  0  0  0  0  0  0  0  0
  1  2  1  0
  2  3  2  0
  3  4  1  0
  4  5  1  0
  5  6  2  0
  5  7  1  0
  7  8  1  0
  7  9  1  0
  7 10  1  0
 10 11  1  0
 10 12  1  0
 10 13  1  0
 13 14  1  0
 13 15  1  0
 13 16  1  0
 16 17  1  0
 17 18  2  0
 18 19  1  0
 18 20  1  0
 20 21  1  0
 20 22  2  0
 22 23  1  0
 22 24  1  0
 24 25  1  0
 24 26  2  0
 26 27  1  0
  2 28  1  0
 28 29  2  0
 29 30  1  0
 29 31  1  0
 31 32  1  0
 31 33  2  0
 33 34  1  0
 33 35  1  0
 35 36  1  0
 36 37  1  0
 36 38  1  0
 36 39  1  0
 35 40  2  0
 40 41  1  0
 26 17  1  0
 40 28  1  0
M  CHG  1   4  -1
M  END
>  <UniqueID>  (46) 
19

>  <SMILES>  (46) 
O=C(CCCOc1ccc(Cl)cc1Cl)[N-]/N=C/c1cccc(C(F)(F)F)c1

>  <Energy>  (46) 
40.89313893023224

>  <Genealogy>  (46) 
O=C(CCCOc1ccc(Cl)cc1Cl)[N-]N=Cc1cccc(C(F)(F)F)c1 (protonated)
O=C(CCCOc1ccc(Cl)cc1Cl)[N-]/N=C/c1cccc(C(F)(F)F)c1 (cis-trans isomerization)
O=C(CCCOc1ccc(Cl)cc1Cl)[N-]/N=C/c1cccc(C(F)(F)F)c1 (3D coordinates assigned)
O=C(CCCOc1ccc(Cl)cc1Cl)[N-]/N=C/c1cccc(C(F)(F)F)c1 (optimized conformer: 40.89313893023224 kcal/mol)

>  <smiles>  (46) 
O=C(CCCOc1ccc(Cl)cc1Cl)NN=Cc1cccc(C(F)(F)F)c1

>  <score_type>  (46) 
oracle

>  <origin>  (46) 
autodockgpu

>  <m_score__min__energy>  (46) 
-6.8700000000000001

>  <m_primary>  (46) 
energy

>  <meeko>  (46) 
{"free_energy": -6.34, "intermolecular_energy": -9.32, "internal_energy": -0.72, "cluster_size": 12, "cluster_id": 1, "rank_in_cluster": 9}

>  <energy>  (46) 
-6.52

>  <cluster_rmsd>  (46) 
1.03

>  <rmsd>  (46) 
272.62

>  <cluster>  (46) 
1

$$$$
VHXSVHVNRGGTDL-PKHXXGQGNA-M
     RDKit          3D

 41 42  0  0  0  0  0  0  0  0999 V2000
  139.9738   70.7236  222.2979 H   0  0  0  0  0  0  0  0  0  0  0  0
  140.0130   71.3590  223.1950 C   0  0  0  0  0  0  0  0  0  0  0  0
  139.9160   72.6480  223.0690 N   0  0  0  0  0  0  0  0  0  0  0  0
  140.6380   73.3950  222.1190 N   0  0  0  0  0  0  0  0  0  0  0  0
  140.2220   74.6610  221.5890 C   0  0  0  0  0  0  0  0  0  0  0  0
  140.8190   75.1710  220.6030 O   0  0  0  0  0  0  0  0  0  0  0  0
  139.0690   75.3860  222.2140 C   0  0  0  0  0  0  0  0  0  0  0  0
  138.5161   74.6897  222.8616 H   0  0  0  0  0  0  0  0  0  0  0  0
  139.4642   76.2296  222.7990 H   0  0  0  0  0  0  0  0  0  0  0  0
  138.1160   75.9400  221.1460 C   0  0  0  0  0  0  0  0  0  0  0  0
  138.5954   75.8464  220.1604 H   0  0  0  0  0  0  0  0  0  0  0  0
  137.1820   75.3608  221.1930 H   0  0  0  0  0  0  0  0  0  0  0  0
  137.7690   77.4150  221.3890 C   0  0  0  0  0  0  0  0  0  0  0  0
  138.2641   78.0338  220.6262 H   0  0  0  0  0  0  0  0  0  0  0  0
  136.6777   77.5386  221.3276 H   0  0  0  0  0  0  0  0  0  0  0  0
  138.2080   77.8250  222.6840 O   0  0  0  0  0  0  0  0  0  0  0  0
  139.4020   78.5140  222.9600 C   0  0  0  0  0  0  0  0  0  0  0  0
  140.6730   77.9650  222.6860 C   0  0  0  0  0  0  0  0  0  0  0  0
  140.7510   76.9611  222.2431 H   0  0  0  0  0  0  0  0  0  0  0  0
  141.8330   78.6890  222.9740 C   0  0  0  0  0  0  0  0  0  0  0  0
  142.8196   78.2519  222.7606 H   0  0  0  0  0  0  0  0  0  0  0  0
  141.7430   79.9660  223.5320 C   0  0  0  0  0  0  0  0  0  0  0  0
  143.2010   80.8730  223.8900 Cl  0  0  0  0  0  0  0  0  0  0  0  0
  140.4890   80.5210  223.8030 C   0  0  0  0  0  0  0  0  0  0  0  0
  140.4183   81.5272  224.2418 H   0  0  0  0  0  0  0  0  0  0  0  0
  139.3230   79.8010  223.5180 C   0  0  0  0  0  0  0  0  0  0  0  0
  137.7600   80.5290  223.8620 Cl  0  0  0  0  0  0  0  0  0  0  0  0
  140.1750   70.7320  224.5220 C   0  0  0  0  0  0  0  0  0  0  0  0
  139.9430   69.3590  224.7180 C   0  0  0  0  0  0  0  0  0  0  0  0
  139.6459   68.7269  223.8681 H   0  0  0  0  0  0  0  0  0  0  0  0
  140.0880   68.7950  225.9860 C   0  0  0  0  0  0  0  0  0  0  0  0
  139.8985   67.7215  226.1333 H   0  0  0  0  0  0  0  0  0  0  0  0
  140.4730   69.5890  227.0690 C   0  0  0  0  0  0  0  0  0  0  0  0
  140.5693   69.1404  228.0688 H   0  0  0  0  0  0  0  0  0  0  0  0
  140.7380   70.9570  226.8890 C   0  0  0  0  0  0  0  0  0  0  0  0
  141.1080   71.8290  228.0620 C   0  0  0  0  0  0  0  0  0  0  0  0
  141.8920   71.1260  228.9600 F   0  0  0  0  0  0  0  0  0  0  0  0
  139.9770   72.2680  228.7280 F   0  0  0  0  0  0  0  0  0  0  0  0
  141.8150   72.9260  227.6090 F   0  0  0  0  0  0  0  0  0  0  0  0
  140.5640   71.5250  225.6150 C   0  0  0  0  0  0  0  0  0  0  0  0
  140.7342   72.6023  225.4720 H   0  0  0  0  0  0  0  0  0  0  0  0
  1  2  1  0
  2  3  2  0
  3  4  1  0
  4  5  1  0
  5  6  2  0
  5  7  1  0
  7  8  1  0
  7  9  1  0
  7 10  1  0
 10 11  1  0
 10 12  1  0
 10 13  1  0
 13 14  1  0
 13 15  1  0
 13 16  1  0
 16 17  1  0
 17 18  2  0
 18 19  1  0
 18 20  1  0
 20 21  1  0
 20 22  2  0
 22 23  1  0
 22 24  1  0
 24 25  1  0
 24 26  2  0
 26 27  1  0
  2 28  1  0
 28 29  2  0
 29 30  1  0
 29 31  1  0
 31 32  1  0
 31 33  2  0
 33 34  1  0
 33 35  1  0
 35 36  1  0
 36 37  1  0
 36 38  1  0
 36 39  1  0
 35 40  2  0
 40 41  1  0
 26 17  1  0
 40 28  1  0
M  CHG  1   4  -1
M  END
>  <UniqueID>  (47) 
19

>  <SMILES>  (47) 
O=C(CCCOc1ccc(Cl)cc1Cl)[N-]/N=C/c1cccc(C(F)(F)F)c1

>  <Energy>  (47) 
40.89313893023224

>  <Genealogy>  (47) 
O=C(CCCOc1ccc(Cl)cc1Cl)[N-]N=Cc1cccc(C(F)(F)F)c1 (protonated)
O=C(CCCOc1ccc(Cl)cc1Cl)[N-]/N=C/c1cccc(C(F)(F)F)c1 (cis-trans isomerization)
O=C(CCCOc1ccc(Cl)cc1Cl)[N-]/N=C/c1cccc(C(F)(F)F)c1 (3D coordinates assigned)
O=C(CCCOc1ccc(Cl)cc1Cl)[N-]/N=C/c1cccc(C(F)(F)F)c1 (optimized conformer: 40.89313893023224 kcal/mol)

>  <smiles>  (47) 
O=C(CCCOc1ccc(Cl)cc1Cl)NN=Cc1cccc(C(F)(F)F)c1

>  <score_type>  (47) 
oracle

>  <origin>  (47) 
autodockgpu

>  <m_score__min__energy>  (47) 
-6.8700000000000001

>  <m_primary>  (47) 
energy

>  <meeko>  (47) 
{"free_energy": -6.72, "intermolecular_energy": -9.7, "internal_energy": -0.73, "cluster_size": 12, "cluster_id": 1, "rank_in_cluster": 2}

>  <energy>  (47) 
-6.48

>  <cluster_rmsd>  (47) 
1.74

>  <rmsd>  (47) 
272.47

>  <cluster>  (47) 
1

$$$$
VHXSVHVNRGGTDL-PKHXXGQGNA-M
     RDKit          3D

 41 42  0  0  0  0  0  0  0  0999 V2000
  138.0217   67.7280  224.5784 H   0  0  0  0  0  0  0  0  0  0  0  0
  138.5240   68.6920  224.7470 C   0  0  0  0  0  0  0  0  0  0  0  0
  138.3240   69.6700  223.9160 N   0  0  0  0  0  0  0  0  0  0  0  0
  139.2700   70.0870  222.9610 N   0  0  0  0  0  0  0  0  0  0  0  0
  139.8780   71.3850  222.9270 C   0  0  0  0  0  0  0  0  0  0  0  0
  140.3650   71.8930  223.9740 O   0  0  0  0  0  0  0  0  0  0  0  0
  139.9350   72.1460  221.6380 C   0  0  0  0  0  0  0  0  0  0  0  0
  139.7995   71.4447  220.8014 H   0  0  0  0  0  0  0  0  0  0  0  0
  139.1358   72.9018  221.6450 H   0  0  0  0  0  0  0  0  0  0  0  0
  141.2810   72.8650  221.4750 C   0  0  0  0  0  0  0  0  0  0  0  0
  141.8656   72.7358  222.3978 H   0  0  0  0  0  0  0  0  0  0  0  0
  141.7966   72.4240  220.6092 H   0  0  0  0  0  0  0  0  0  0  0  0
  141.1080   74.3650  221.2060 C   0  0  0  0  0  0  0  0  0  0  0  0
  142.0604   74.8798  221.4008 H   0  0  0  0  0  0  0  0  0  0  0  0
  140.8081   74.5057  220.1571 H   0  0  0  0  0  0  0  0  0  0  0  0
  140.0970   74.9120  222.0520 O   0  0  0  0  0  0  0  0  0  0  0  0
  139.9640   76.2690  222.3920 C   0  0  0  0  0  0  0  0  0  0  0  0
  141.0780   77.1150  222.5770 C   0  0  0  0  0  0  0  0  0  0  0  0
  142.0951   76.7134  222.4578 H   0  0  0  0  0  0  0  0  0  0  0  0
  140.8970   78.4610  222.9110 C   0  0  0  0  0  0  0  0  0  0  0  0
  141.7710   79.1127  223.0573 H   0  0  0  0  0  0  0  0  0  0  0  0
  139.6090   78.9790  223.0590 C   0  0  0  0  0  0  0  0  0  0  0  0
  139.3860   80.6690  223.4760 Cl  0  0  0  0  0  0  0  0  0  0  0  0
  138.4990   78.1510  222.8750 C   0  0  0  0  0  0  0  0  0  0  0  0
  137.4848   78.5602  222.9931 H   0  0  0  0  0  0  0  0  0  0  0  0
  138.6720   76.8030  222.5410 C   0  0  0  0  0  0  0  0  0  0  0  0
  137.2570   75.7880  222.3060 Cl  0  0  0  0  0  0  0  0  0  0  0  0
  139.4140   68.8520  225.9140 C   0  0  0  0  0  0  0  0  0  0  0  0
  139.9850   67.7420  226.5590 C   0  0  0  0  0  0  0  0  0  0  0  0
  139.7802   66.7273  226.1868 H   0  0  0  0  0  0  0  0  0  0  0  0
  140.8110   67.9210  227.6700 C   0  0  0  0  0  0  0  0  0  0  0  0
  141.2497   67.0470  228.1736 H   0  0  0  0  0  0  0  0  0  0  0  0
  141.0820   69.2060  228.1440 C   0  0  0  0  0  0  0  0  0  0  0  0
  141.7208   69.3381  229.0297 H   0  0  0  0  0  0  0  0  0  0  0  0
  140.5440   70.3320  227.4970 C   0  0  0  0  0  0  0  0  0  0  0  0
  140.7930   71.7190  228.0330 C   0  0  0  0  0  0  0  0  0  0  0  0
  141.8700   71.7160  228.9020 F   0  0  0  0  0  0  0  0  0  0  0  0
  139.6870   72.1910  228.7170 F   0  0  0  0  0  0  0  0  0  0  0  0
  141.0670   72.5710  226.9790 F   0  0  0  0  0  0  0  0  0  0  0  0
  139.6910   70.1430  226.3950 C   0  0  0  0  0  0  0  0  0  0  0  0
  139.2355   71.0156  225.9040 H   0  0  0  0  0  0  0  0  0  0  0  0
  1  2  1  0
  2  3  2  0
  3  4  1  0
  4  5  1  0
  5  6  2  0
  5  7  1  0
  7  8  1  0
  7  9  1  0
  7 10  1  0
 10 11  1  0
 10 12  1  0
 10 13  1  0
 13 14  1  0
 13 15  1  0
 13 16  1  0
 16 17  1  0
 17 18  2  0
 18 19  1  0
 18 20  1  0
 20 21  1  0
 20 22  2  0
 22 23  1  0
 22 24  1  0
 24 25  1  0
 24 26  2  0
 26 27  1  0
  2 28  1  0
 28 29  2  0
 29 30  1  0
 29 31  1  0
 31 32  1  0
 31 33  2  0
 33 34  1  0
 33 35  1  0
 35 36  1  0
 36 37  1  0
 36 38  1  0
 36 39  1  0
 35 40  2  0
 40 41  1  0
 26 17  1  0
 40 28  1  0
M  CHG  1   4  -1
M  END
>  <UniqueID>  (48) 
19

>  <SMILES>  (48) 
O=C(CCCOc1ccc(Cl)cc1Cl)[N-]/N=C/c1cccc(C(F)(F)F)c1

>  <Energy>  (48) 
40.89313893023224

>  <Genealogy>  (48) 
O=C(CCCOc1ccc(Cl)cc1Cl)[N-]N=Cc1cccc(C(F)(F)F)c1 (protonated)
O=C(CCCOc1ccc(Cl)cc1Cl)[N-]/N=C/c1cccc(C(F)(F)F)c1 (cis-trans isomerization)
O=C(CCCOc1ccc(Cl)cc1Cl)[N-]/N=C/c1cccc(C(F)(F)F)c1 (3D coordinates assigned)
O=C(CCCOc1ccc(Cl)cc1Cl)[N-]/N=C/c1cccc(C(F)(F)F)c1 (optimized conformer: 40.89313893023224 kcal/mol)

>  <smiles>  (48) 
O=C(CCCOc1ccc(Cl)cc1Cl)NN=Cc1cccc(C(F)(F)F)c1

>  <score_type>  (48) 
oracle

>  <origin>  (48) 
autodockgpu

>  <m_score__min__energy>  (48) 
-6.8700000000000001

>  <m_primary>  (48) 
energy

>  <meeko>  (48) 
{"free_energy": -6.53, "intermolecular_energy": -9.51, "internal_energy": -0.89, "cluster_size": 12, "cluster_id": 1, "rank_in_cluster": 5}

>  <energy>  (48) 
-6.43

>  <cluster_rmsd>  (48) 
1.65

>  <rmsd>  (48) 
272.73

>  <cluster>  (48) 
1

$$$$
VHXSVHVNRGGTDL-PKHXXGQGNA-M
     RDKit          3D

 41 42  0  0  0  0  0  0  0  0999 V2000
  138.5133   70.5997  223.1130 H   0  0  0  0  0  0  0  0  0  0  0  0
  139.5330   70.7280  223.5050 C   0  0  0  0  0  0  0  0  0  0  0  0
  140.4420   71.2680  222.7520 N   0  0  0  0  0  0  0  0  0  0  0  0
  140.7270   72.6470  222.7410 N   0  0  0  0  0  0  0  0  0  0  0  0
  140.0220   73.6190  221.9560 C   0  0  0  0  0  0  0  0  0  0  0  0
  140.2140   74.8520  222.1390 O   0  0  0  0  0  0  0  0  0  0  0  0
  139.0480   73.1670  220.9110 C   0  0  0  0  0  0  0  0  0  0  0  0
  138.5611   72.2411  221.2511 H   0  0  0  0  0  0  0  0  0  0  0  0
  138.3048   73.9638  220.7602 H   0  0  0  0  0  0  0  0  0  0  0  0
  139.7520   72.9000  219.5730 C   0  0  0  0  0  0  0  0  0  0  0  0
  140.5394   72.1482  219.7304 H   0  0  0  0  0  0  0  0  0  0  0  0
  138.9960   72.5430  218.8581 H   0  0  0  0  0  0  0  0  0  0  0  0
  140.3890   74.1690  218.9920 C   0  0  0  0  0  0  0  0  0  0  0  0
  139.7713   74.5352  218.1587 H   0  0  0  0  0  0  0  0  0  0  0  0
  140.4491   74.9311  219.7830 H   0  0  0  0  0  0  0  0  0  0  0  0
  141.7060   73.8940  218.5150 O   0  0  0  0  0  0  0  0  0  0  0  0
  142.8500   73.7440  219.3180 C   0  0  0  0  0  0  0  0  0  0  0  0
  143.2970   72.4840  219.7700 C   0  0  0  0  0  0  0  0  0  0  0  0
  142.7407   71.5756  219.4956 H   0  0  0  0  0  0  0  0  0  0  0  0
  144.4420   72.3840  220.5640 C   0  0  0  0  0  0  0  0  0  0  0  0
  144.7815   71.3982  220.9147 H   0  0  0  0  0  0  0  0  0  0  0  0
  145.1570   73.5310  220.9140 C   0  0  0  0  0  0  0  0  0  0  0  0
  146.5950   73.4010  221.9100 Cl  0  0  0  0  0  0  0  0  0  0  0  0
  144.7250   74.7840  220.4690 C   0  0  0  0  0  0  0  0  0  0  0  0
  145.2879   75.6879  220.7450 H   0  0  0  0  0  0  0  0  0  0  0  0
  143.5780   74.8920  219.6730 C   0  0  0  0  0  0  0  0  0  0  0  0
  143.0640   76.4790  219.1210 Cl  0  0  0  0  0  0  0  0  0  0  0  0
  139.8430   70.2830  224.8780 C   0  0  0  0  0  0  0  0  0  0  0  0
  139.7130   68.9370  225.2610 C   0  0  0  0  0  0  0  0  0  0  0  0
  139.3851   68.1877  224.5255 H   0  0  0  0  0  0  0  0  0  0  0  0
  139.9980   68.5470  226.5700 C   0  0  0  0  0  0  0  0  0  0  0  0
  139.8868   67.4929  226.8643 H   0  0  0  0  0  0  0  0  0  0  0  0
  140.4240   69.4900  227.5080 C   0  0  0  0  0  0  0  0  0  0  0  0
  140.6324   69.1772  228.5418 H   0  0  0  0  0  0  0  0  0  0  0  0
  140.5880   70.8360  227.1390 C   0  0  0  0  0  0  0  0  0  0  0  0
  141.0000   71.8680  228.1590 C   0  0  0  0  0  0  0  0  0  0  0  0
  141.9440   71.3430  229.0240 F   0  0  0  0  0  0  0  0  0  0  0  0
  139.9130   72.2860  228.9070 F   0  0  0  0  0  0  0  0  0  0  0  0
  141.5430   72.9600  227.5070 F   0  0  0  0  0  0  0  0  0  0  0  0
  140.2730   71.2270  225.8260 C   0  0  0  0  0  0  0  0  0  0  0  0
  140.3642   72.2845  225.5372 H   0  0  0  0  0  0  0  0  0  0  0  0
  1  2  1  0
  2  3  2  0
  3  4  1  0
  4  5  1  0
  5  6  2  0
  5  7  1  0
  7  8  1  0
  7  9  1  0
  7 10  1  0
 10 11  1  0
 10 12  1  0
 10 13  1  0
 13 14  1  0
 13 15  1  0
 13 16  1  0
 16 17  1  0
 17 18  2  0
 18 19  1  0
 18 20  1  0
 20 21  1  0
 20 22  2  0
 22 23  1  0
 22 24  1  0
 24 25  1  0
 24 26  2  0
 26 27  1  0
  2 28  1  0
 28 29  2  0
 29 30  1  0
 29 31  1  0
 31 32  1  0
 31 33  2  0
 33 34  1  0
 33 35  1  0
 35 36  1  0
 36 37  1  0
 36 38  1  0
 36 39  1  0
 35 40  2  0
 40 41  1  0
 26 17  1  0
 40 28  1  0
M  CHG  1   4  -1
M  END
>  <UniqueID>  (49) 
19

>  <SMILES>  (49) 
O=C(CCCOc1ccc(Cl)cc1Cl)[N-]/N=C/c1cccc(C(F)(F)F)c1

>  <Energy>  (49) 
40.89313893023224

>  <Genealogy>  (49) 
O=C(CCCOc1ccc(Cl)cc1Cl)[N-]N=Cc1cccc(C(F)(F)F)c1 (protonated)
O=C(CCCOc1ccc(Cl)cc1Cl)[N-]/N=C/c1cccc(C(F)(F)F)c1 (cis-trans isomerization)
O=C(CCCOc1ccc(Cl)cc1Cl)[N-]/N=C/c1cccc(C(F)(F)F)c1 (3D coordinates assigned)
O=C(CCCOc1ccc(Cl)cc1Cl)[N-]/N=C/c1cccc(C(F)(F)F)c1 (optimized conformer: 40.89313893023224 kcal/mol)

>  <smiles>  (49) 
O=C(CCCOc1ccc(Cl)cc1Cl)NN=Cc1cccc(C(F)(F)F)c1

>  <score_type>  (49) 
oracle

>  <origin>  (49) 
autodockgpu

>  <m_score__min__energy>  (49) 
-6.8700000000000001

>  <m_primary>  (49) 
energy

>  <meeko>  (49) 
{"free_energy": -6.25, "intermolecular_energy": -9.24, "internal_energy": -1.24, "cluster_size": 2, "cluster_id": 4, "rank_in_cluster": 1}

>  <energy>  (49) 
-6.34

>  <cluster_rmsd>  (49) 
1.86

>  <rmsd>  (49) 
272.77

>  <cluster>  (49) 
1

$$$$
VHXSVHVNRGGTDL-PKHXXGQGNA-M
     RDKit          3D

 41 42  0  0  0  0  0  0  0  0999 V2000
  132.4430   71.4960  227.9778 H   0  0  0  0  0  0  0  0  0  0  0  0
  133.2750   71.4450  227.2600 C   0  0  0  0  0  0  0  0  0  0  0  0
  133.9270   70.3310  227.1170 N   0  0  0  0  0  0  0  0  0  0  0  0
  133.6630   69.3990  226.0950 N   0  0  0  0  0  0  0  0  0  0  0  0
  134.6430   68.8940  225.1790 C   0  0  0  0  0  0  0  0  0  0  0  0
  134.3630   67.9430  224.3990 O   0  0  0  0  0  0  0  0  0  0  0  0
  136.0130   69.5000  225.1460 C   0  0  0  0  0  0  0  0  0  0  0  0
  135.9909   70.4650  225.6735 H   0  0  0  0  0  0  0  0  0  0  0  0
  136.7121   68.8056  225.6349 H   0  0  0  0  0  0  0  0  0  0  0  0
  136.4860   69.7290  223.7040 C   0  0  0  0  0  0  0  0  0  0  0  0
  135.6050   69.8618  223.0588 H   0  0  0  0  0  0  0  0  0  0  0  0
  137.1258   70.6237  223.6959 H   0  0  0  0  0  0  0  0  0  0  0  0
  137.3150   68.5510  223.1730 C   0  0  0  0  0  0  0  0  0  0  0  0
  137.0081   67.6301  223.6904 H   0  0  0  0  0  0  0  0  0  0  0  0
  137.1423   68.4536  222.0910 H   0  0  0  0  0  0  0  0  0  0  0  0
  138.7060   68.7760  223.4000 O   0  0  0  0  0  0  0  0  0  0  0  0
  139.2520   69.4770  224.4880 C   0  0  0  0  0  0  0  0  0  0  0  0
  139.3570   68.9120  225.7770 C   0  0  0  0  0  0  0  0  0  0  0  0
  139.0006   67.8867  225.9549 H   0  0  0  0  0  0  0  0  0  0  0  0
  139.9110   69.6470  226.8290 C   0  0  0  0  0  0  0  0  0  0  0  0
  139.9857   69.2000  227.8313 H   0  0  0  0  0  0  0  0  0  0  0  0
  140.3700   70.9480  226.6100 C   0  0  0  0  0  0  0  0  0  0  0  0
  141.0660   71.8670  227.9320 Cl  0  0  0  0  0  0  0  0  0  0  0  0
  140.2740   71.5170  225.3370 C   0  0  0  0  0  0  0  0  0  0  0  0
  140.6353   72.5417  225.1656 H   0  0  0  0  0  0  0  0  0  0  0  0
  139.7190   70.7860  224.2790 C   0  0  0  0  0  0  0  0  0  0  0  0
  139.6200   71.5240  222.6870 Cl  0  0  0  0  0  0  0  0  0  0  0  0
  133.6310   72.6440  226.4760 C   0  0  0  0  0  0  0  0  0  0  0  0
  133.1450   73.9170  226.8200 C   0  0  0  0  0  0  0  0  0  0  0  0
  132.4940   74.0356  227.6987 H   0  0  0  0  0  0  0  0  0  0  0  0
  133.4850   75.0320  226.0510 C   0  0  0  0  0  0  0  0  0  0  0  0
  133.0958   76.0244  226.3223 H   0  0  0  0  0  0  0  0  0  0  0  0
  134.3180   74.8910  224.9380 C   0  0  0  0  0  0  0  0  0  0  0  0
  134.5691   75.7713  224.3281 H   0  0  0  0  0  0  0  0  0  0  0  0
  134.8370   73.6310  224.5930 C   0  0  0  0  0  0  0  0  0  0  0  0
  135.6970   73.4640  223.3650 C   0  0  0  0  0  0  0  0  0  0  0  0
  136.6740   72.5090  223.5860 F   0  0  0  0  0  0  0  0  0  0  0  0
  136.3210   74.6530  223.0340 F   0  0  0  0  0  0  0  0  0  0  0  0
  134.9040   73.0620  222.3070 F   0  0  0  0  0  0  0  0  0  0  0  0
  134.4690   72.5090  225.3550 C   0  0  0  0  0  0  0  0  0  0  0  0
  134.8409   71.5135  225.0711 H   0  0  0  0  0  0  0  0  0  0  0  0
  1  2  1  0
  2  3  2  0
  3  4  1  0
  4  5  1  0
  5  6  2  0
  5  7  1  0
  7  8  1  0
  7  9  1  0
  7 10  1  0
 10 11  1  0
 10 12  1  0
 10 13  1  0
 13 14  1  0
 13 15  1  0
 13 16  1  0
 16 17  1  0
 17 18  2  0
 18 19  1  0
 18 20  1  0
 20 21  1  0
 20 22  2  0
 22 23  1  0
 22 24  1  0
 24 25  1  0
 24 26  2  0
 26 27  1  0
  2 28  1  0
 28 29  2  0
 29 30  1  0
 29 31  1  0
 31 32  1  0
 31 33  2  0
 33 34  1  0
 33 35  1  0
 35 36  1  0
 36 37  1  0
 36 38  1  0
 36 39  1  0
 35 40  2  0
 40 41  1  0
 26 17  1  0
 40 28  1  0
M  CHG  1   4  -1
M  END
>  <UniqueID>  (50) 
19

>  <SMILES>  (50) 
O=C(CCCOc1ccc(Cl)cc1Cl)[N-]/N=C/c1cccc(C(F)(F)F)c1

>  <Energy>  (50) 
40.89313893023224

>  <Genealogy>  (50) 
O=C(CCCOc1ccc(Cl)cc1Cl)[N-]N=Cc1cccc(C(F)(F)F)c1 (protonated)
O=C(CCCOc1ccc(Cl)cc1Cl)[N-]/N=C/c1cccc(C(F)(F)F)c1 (cis-trans isomerization)
O=C(CCCOc1ccc(Cl)cc1Cl)[N-]/N=C/c1cccc(C(F)(F)F)c1 (3D coordinates assigned)
O=C(CCCOc1ccc(Cl)cc1Cl)[N-]/N=C/c1cccc(C(F)(F)F)c1 (optimized conformer: 40.89313893023224 kcal/mol)

>  <smiles>  (50) 
O=C(CCCOc1ccc(Cl)cc1Cl)NN=Cc1cccc(C(F)(F)F)c1

>  <score_type>  (50) 
oracle

>  <origin>  (50) 
autodockgpu

>  <m_score__min__energy>  (50) 
-6.8700000000000001

>  <m_primary>  (50) 
energy

>  <meeko>  (50) 
{"free_energy": -5.69, "intermolecular_energy": -8.67, "internal_energy": -1.54, "cluster_size": 1, "cluster_id": 6, "rank_in_cluster": 1}

>  <energy>  (50) 
-6.23

>  <cluster_rmsd>  (50) 
2.0

>  <rmsd>  (50) 
272.36

>  <cluster>  (50) 
1

$$$$
VHXSVHVNRGGTDL-PKHXXGQGNA-M
     RDKit          3D

 41 42  0  0  0  0  0  0  0  0999 V2000
  138.5248   69.5533  223.4255 H   0  0  0  0  0  0  0  0  0  0  0  0
  139.4120   70.0800  223.8070 C   0  0  0  0  0  0  0  0  0  0  0  0
  140.0400   70.9150  223.0350 N   0  0  0  0  0  0  0  0  0  0  0  0
  140.0950   72.3020  223.2700 N   0  0  0  0  0  0  0  0  0  0  0  0
  139.8980   73.3080  222.2680 C   0  0  0  0  0  0  0  0  0  0  0  0
  140.8100   74.1360  222.0010 O   0  0  0  0  0  0  0  0  0  0  0  0
  138.5950   73.3770  221.5300 C   0  0  0  0  0  0  0  0  0  0  0  0
  138.6775   72.7935  220.6012 H   0  0  0  0  0  0  0  0  0  0  0  0
  137.8061   72.9666  222.1774 H   0  0  0  0  0  0  0  0  0  0  0  0
  138.2310   74.8260  221.1800 C   0  0  0  0  0  0  0  0  0  0  0  0
  138.8208   75.1381  220.3055 H   0  0  0  0  0  0  0  0  0  0  0  0
  137.1521   74.8615  220.9686 H   0  0  0  0  0  0  0  0  0  0  0  0
  138.5160   75.7910  222.3380 C   0  0  0  0  0  0  0  0  0  0  0  0
  137.6569   75.7953  223.0250 H   0  0  0  0  0  0  0  0  0  0  0  0
  139.4219   75.4561  222.8645 H   0  0  0  0  0  0  0  0  0  0  0  0
  138.7310   77.1140  221.8470 O   0  0  0  0  0  0  0  0  0  0  0  0
  139.6880   78.0190  222.3370 C   0  0  0  0  0  0  0  0  0  0  0  0
  139.4010   78.9390  223.3690 C   0  0  0  0  0  0  0  0  0  0  0  0
  138.3961   78.9637  223.8157 H   0  0  0  0  0  0  0  0  0  0  0  0
  140.3860   79.8180  223.8260 C   0  0  0  0  0  0  0  0  0  0  0  0
  140.1530   80.5335  224.6284 H   0  0  0  0  0  0  0  0  0  0  0  0
  141.6660   79.7910  223.2670 C   0  0  0  0  0  0  0  0  0  0  0  0
  142.9000   80.8950  223.8450 Cl  0  0  0  0  0  0  0  0  0  0  0  0
  141.9620   78.8820  222.2470 C   0  0  0  0  0  0  0  0  0  0  0  0
  142.9702   78.8606  221.8075 H   0  0  0  0  0  0  0  0  0  0  0  0
  140.9800   77.9990  221.7830 C   0  0  0  0  0  0  0  0  0  0  0  0
  141.3830   76.8610  220.5060 Cl  0  0  0  0  0  0  0  0  0  0  0  0
  139.8690   69.8260  225.1880 C   0  0  0  0  0  0  0  0  0  0  0  0
  139.9300   68.5230  225.7130 C   0  0  0  0  0  0  0  0  0  0  0  0
  139.6447   67.6657  225.0855 H   0  0  0  0  0  0  0  0  0  0  0  0
  140.3510   68.3130  227.0270 C   0  0  0  0  0  0  0  0  0  0  0  0
  140.3900   67.2915  227.4333 H   0  0  0  0  0  0  0  0  0  0  0  0
  140.7230   69.3950  227.8280 C   0  0  0  0  0  0  0  0  0  0  0  0
  141.0390   69.2225  228.8674 H   0  0  0  0  0  0  0  0  0  0  0  0
  140.6960   70.7030  227.3140 C   0  0  0  0  0  0  0  0  0  0  0  0
  141.0500   71.8800  228.1880 C   0  0  0  0  0  0  0  0  0  0  0  0
  141.5040   72.9360  227.4170 F   0  0  0  0  0  0  0  0  0  0  0  0
  142.0440   71.5450  229.0900 F   0  0  0  0  0  0  0  0  0  0  0  0
  139.9270   72.2820  228.8860 F   0  0  0  0  0  0  0  0  0  0  0  0
  140.2460   70.9100  225.9980 C   0  0  0  0  0  0  0  0  0  0  0  0
  140.1885   71.9331  225.5980 H   0  0  0  0  0  0  0  0  0  0  0  0
  1  2  1  0
  2  3  2  0
  3  4  1  0
  4  5  1  0
  5  6  2  0
  5  7  1  0
  7  8  1  0
  7  9  1  0
  7 10  1  0
 10 11  1  0
 10 12  1  0
 10 13  1  0
 13 14  1  0
 13 15  1  0
 13 16  1  0
 16 17  1  0
 17 18  2  0
 18 19  1  0
 18 20  1  0
 20 21  1  0
 20 22  2  0
 22 23  1  0
 22 24  1  0
 24 25  1  0
 24 26  2  0
 26 27  1  0
  2 28  1  0
 28 29  2  0
 29 30  1  0
 29 31  1  0
 31 32  1  0
 31 33  2  0
 33 34  1  0
 33 35  1  0
 35 36  1  0
 36 37  1  0
 36 38  1  0
 36 39  1  0
 35 40  2  0
 40 41  1  0
 26 17  1  0
 40 28  1  0
M  CHG  1   4  -1
M  END
>  <UniqueID>  (51) 
19

>  <SMILES>  (51) 
O=C(CCCOc1ccc(Cl)cc1Cl)[N-]/N=C/c1cccc(C(F)(F)F)c1

>  <Energy>  (51) 
40.89313893023224

>  <Genealogy>  (51) 
O=C(CCCOc1ccc(Cl)cc1Cl)[N-]N=Cc1cccc(C(F)(F)F)c1 (protonated)
O=C(CCCOc1ccc(Cl)cc1Cl)[N-]/N=C/c1cccc(C(F)(F)F)c1 (cis-trans isomerization)
O=C(CCCOc1ccc(Cl)cc1Cl)[N-]/N=C/c1cccc(C(F)(F)F)c1 (3D coordinates assigned)
O=C(CCCOc1ccc(Cl)cc1Cl)[N-]/N=C/c1cccc(C(F)(F)F)c1 (optimized conformer: 40.89313893023224 kcal/mol)

>  <smiles>  (51) 
O=C(CCCOc1ccc(Cl)cc1Cl)NN=Cc1cccc(C(F)(F)F)c1

>  <score_type>  (51) 
oracle

>  <origin>  (51) 
autodockgpu

>  <m_score__min__energy>  (51) 
-6.8700000000000001

>  <m_primary>  (51) 
energy

>  <meeko>  (51) 
{"free_energy": -6.87, "intermolecular_energy": -9.86, "internal_energy": -0.87, "cluster_size": 12, "cluster_id": 1, "rank_in_cluster": 1}

>  <energy>  (51) 
-6.07

>  <cluster_rmsd>  (51) 
1.66

>  <rmsd>  (51) 
272.69

>  <cluster>  (51) 
1

$$$$
VHXSVHVNRGGTDL-PKHXXGQGNA-M
     RDKit          3D

 41 42  0  0  0  0  0  0  0  0999 V2000
  140.9438   71.0551  222.1734 H   0  0  0  0  0  0  0  0  0  0  0  0
  140.4030   71.6060  222.9570 C   0  0  0  0  0  0  0  0  0  0  0  0
  139.9530   72.7970  222.7040 N   0  0  0  0  0  0  0  0  0  0  0  0
  140.7480   73.8370  222.1860 N   0  0  0  0  0  0  0  0  0  0  0  0
  140.6110   74.3910  220.8700 C   0  0  0  0  0  0  0  0  0  0  0  0
  140.6780   73.6500  219.8520 O   0  0  0  0  0  0  0  0  0  0  0  0
  140.3870   75.8630  220.7020 C   0  0  0  0  0  0  0  0  0  0  0  0
  140.9059   76.3991  221.5103 H   0  0  0  0  0  0  0  0  0  0  0  0
  140.7806   76.1646  219.7201 H   0  0  0  0  0  0  0  0  0  0  0  0
  138.8930   76.2080  220.7520 C   0  0  0  0  0  0  0  0  0  0  0  0
  138.7527   77.2312  220.3733 H   0  0  0  0  0  0  0  0  0  0  0  0
  138.3559   75.4750  220.1322 H   0  0  0  0  0  0  0  0  0  0  0  0
  138.3270   76.1260  222.1770 C   0  0  0  0  0  0  0  0  0  0  0  0
  137.3365   75.6486  222.1462 H   0  0  0  0  0  0  0  0  0  0  0  0
  139.0142   75.5338  222.7992 H   0  0  0  0  0  0  0  0  0  0  0  0
  138.2020   77.4310  222.7410 O   0  0  0  0  0  0  0  0  0  0  0  0
  139.2660   78.3070  223.0150 C   0  0  0  0  0  0  0  0  0  0  0  0
  140.6160   77.9010  222.9500 C   0  0  0  0  0  0  0  0  0  0  0  0
  140.8623   76.8634  222.6804 H   0  0  0  0  0  0  0  0  0  0  0  0
  141.6420   78.8090  223.2260 C   0  0  0  0  0  0  0  0  0  0  0  0
  142.6914   78.4832  223.1753 H   0  0  0  0  0  0  0  0  0  0  0  0
  141.3380   80.1290  223.5660 C   0  0  0  0  0  0  0  0  0  0  0  0
  142.6290   81.2660  223.9120 Cl  0  0  0  0  0  0  0  0  0  0  0  0
  140.0050   80.5430  223.6310 C   0  0  0  0  0  0  0  0  0  0  0  0
  139.7664   81.5826  223.8999 H   0  0  0  0  0  0  0  0  0  0  0  0
  138.9720   79.6390  223.3550 C   0  0  0  0  0  0  0  0  0  0  0  0
  137.3050   80.1900  223.4340 Cl  0  0  0  0  0  0  0  0  0  0  0  0
  140.2020   70.9780  224.2770 C   0  0  0  0  0  0  0  0  0  0  0  0
  139.5140   69.7600  224.4130 C   0  0  0  0  0  0  0  0  0  0  0  0
  139.1236   69.2489  223.5206 H   0  0  0  0  0  0  0  0  0  0  0  0
  139.3240   69.1960  225.6760 C   0  0  0  0  0  0  0  0  0  0  0  0
  138.7792   68.2455  225.7753 H   0  0  0  0  0  0  0  0  0  0  0  0
  139.8230   69.8340  226.8140 C   0  0  0  0  0  0  0  0  0  0  0  0
  139.6548   69.3919  227.8071 H   0  0  0  0  0  0  0  0  0  0  0  0
  140.5390   71.0380  226.6970 C   0  0  0  0  0  0  0  0  0  0  0  0
  141.0390   71.7570  227.9250 C   0  0  0  0  0  0  0  0  0  0  0  0
  141.7940   70.9040  228.7110 F   0  0  0  0  0  0  0  0  0  0  0  0
  139.9840   72.2270  228.6870 F   0  0  0  0  0  0  0  0  0  0  0  0
  141.8240   72.8270  227.5370 F   0  0  0  0  0  0  0  0  0  0  0  0
  140.7030   71.6150  225.4250 C   0  0  0  0  0  0  0  0  0  0  0  0
  141.2295   72.5759  225.3276 H   0  0  0  0  0  0  0  0  0  0  0  0
  1  2  1  0
  2  3  2  0
  3  4  1  0
  4  5  1  0
  5  6  2  0
  5  7  1  0
  7  8  1  0
  7  9  1  0
  7 10  1  0
 10 11  1  0
 10 12  1  0
 10 13  1  0
 13 14  1  0
 13 15  1  0
 13 16  1  0
 16 17  1  0
 17 18  2  0
 18 19  1  0
 18 20  1  0
 20 21  1  0
 20 22  2  0
 22 23  1  0
 22 24  1  0
 24 25  1  0
 24 26  2  0
 26 27  1  0
  2 28  1  0
 28 29  2  0
 29 30  1  0
 29 31  1  0
 31 32  1  0
 31 33  2  0
 33 34  1  0
 33 35  1  0
 35 36  1  0
 36 37  1  0
 36 38  1  0
 36 39  1  0
 35 40  2  0
 40 41  1  0
 26 17  1  0
 40 28  1  0
M  CHG  1   4  -1
M  END
>  <UniqueID>  (52) 
19

>  <SMILES>  (52) 
O=C(CCCOc1ccc(Cl)cc1Cl)[N-]/N=C/c1cccc(C(F)(F)F)c1

>  <Energy>  (52) 
40.89313893023224

>  <Genealogy>  (52) 
O=C(CCCOc1ccc(Cl)cc1Cl)[N-]N=Cc1cccc(C(F)(F)F)c1 (protonated)
O=C(CCCOc1ccc(Cl)cc1Cl)[N-]/N=C/c1cccc(C(F)(F)F)c1 (cis-trans isomerization)
O=C(CCCOc1ccc(Cl)cc1Cl)[N-]/N=C/c1cccc(C(F)(F)F)c1 (3D coordinates assigned)
O=C(CCCOc1ccc(Cl)cc1Cl)[N-]/N=C/c1cccc(C(F)(F)F)c1 (optimized conformer: 40.89313893023224 kcal/mol)

>  <smiles>  (52) 
O=C(CCCOc1ccc(Cl)cc1Cl)NN=Cc1cccc(C(F)(F)F)c1

>  <score_type>  (52) 
oracle

>  <origin>  (52) 
autodockgpu

>  <m_score__min__energy>  (52) 
-6.8700000000000001

>  <m_primary>  (52) 
energy

>  <meeko>  (52) 
{"free_energy": -6.57, "intermolecular_energy": -9.55, "internal_energy": -0.78, "cluster_size": 12, "cluster_id": 1, "rank_in_cluster": 4}

>  <energy>  (52) 
-5.79

>  <cluster_rmsd>  (52) 
1.31

>  <rmsd>  (52) 
272.34

>  <cluster>  (52) 
1

$$$$
VHXSVHVNRGGTDL-PKHXXGQGNA-M
     RDKit          3D

 41 42  0  0  0  0  0  0  0  0999 V2000
  139.7434   71.1319  222.0680 H   0  0  0  0  0  0  0  0  0  0  0  0
  139.9820   71.5840  223.0420 C   0  0  0  0  0  0  0  0  0  0  0  0
  140.3250   72.8360  223.0980 N   0  0  0  0  0  0  0  0  0  0  0  0
  140.4280   73.6670  221.9660 N   0  0  0  0  0  0  0  0  0  0  0  0
  139.8330   74.9660  221.8520 C   0  0  0  0  0  0  0  0  0  0  0  0
  140.4430   75.9910  222.2610 O   0  0  0  0  0  0  0  0  0  0  0  0
  138.4720   75.1100  221.2410 C   0  0  0  0  0  0  0  0  0  0  0  0
  137.8196   74.3127  221.6266 H   0  0  0  0  0  0  0  0  0  0  0  0
  138.0740   76.1003  221.5074 H   0  0  0  0  0  0  0  0  0  0  0  0
  138.5360   75.0080  219.7110 C   0  0  0  0  0  0  0  0  0  0  0  0
  138.6614   73.9516  219.4312 H   0  0  0  0  0  0  0  0  0  0  0  0
  137.6006   75.4210  219.3054 H   0  0  0  0  0  0  0  0  0  0  0  0
  139.7010   75.8160  219.1250 C   0  0  0  0  0  0  0  0  0  0  0  0
  139.3181   76.4873  218.3422 H   0  0  0  0  0  0  0  0  0  0  0  0
  140.1689   76.4005  219.9309 H   0  0  0  0  0  0  0  0  0  0  0  0
  140.6800   74.9450  218.5590 O   0  0  0  0  0  0  0  0  0  0  0  0
  141.8770   74.5510  219.1820 C   0  0  0  0  0  0  0  0  0  0  0  0
  142.1250   73.2160  219.5670 C   0  0  0  0  0  0  0  0  0  0  0  0
  141.3637   72.4435  219.3834 H   0  0  0  0  0  0  0  0  0  0  0  0
  143.3320   72.8700  220.1800 C   0  0  0  0  0  0  0  0  0  0  0  0
  143.5155   71.8277  220.4800 H   0  0  0  0  0  0  0  0  0  0  0  0
  144.3060   73.8430  220.4130 C   0  0  0  0  0  0  0  0  0  0  0  0
  145.8210   73.4050  221.1810 Cl  0  0  0  0  0  0  0  0  0  0  0  0
  144.0720   75.1680  220.0320 C   0  0  0  0  0  0  0  0  0  0  0  0
  144.8392   75.9347  220.2155 H   0  0  0  0  0  0  0  0  0  0  0  0
  142.8650   75.5220  219.4180 C   0  0  0  0  0  0  0  0  0  0  0  0
  142.6030   77.1930  218.9420 Cl  0  0  0  0  0  0  0  0  0  0  0  0
  139.9070   70.7580  224.2630 C   0  0  0  0  0  0  0  0  0  0  0  0
  139.3950   69.4490  224.2330 C   0  0  0  0  0  0  0  0  0  0  0  0
  139.0512   69.0172  223.2815 H   0  0  0  0  0  0  0  0  0  0  0  0
  139.3210   68.6950  225.4050 C   0  0  0  0  0  0  0  0  0  0  0  0
  138.9133   67.6738  225.3751 H   0  0  0  0  0  0  0  0  0  0  0  0
  139.7630   69.2330  226.6160 C   0  0  0  0  0  0  0  0  0  0  0  0
  139.6857   68.6390  227.5386 H   0  0  0  0  0  0  0  0  0  0  0  0
  140.3060   70.5290  226.6630 C   0  0  0  0  0  0  0  0  0  0  0  0
  140.7410   71.1330  227.9740 C   0  0  0  0  0  0  0  0  0  0  0  0
  141.4930   72.2740  227.7550 F   0  0  0  0  0  0  0  0  0  0  0  0
  141.5100   70.2400  228.6990 F   0  0  0  0  0  0  0  0  0  0  0  0
  139.6220   71.4660  228.7150 F   0  0  0  0  0  0  0  0  0  0  0  0
  140.3520   71.2930  225.4840 C   0  0  0  0  0  0  0  0  0  0  0  0
  140.7408   72.3215  225.5174 H   0  0  0  0  0  0  0  0  0  0  0  0
  1  2  1  0
  2  3  2  0
  3  4  1  0
  4  5  1  0
  5  6  2  0
  5  7  1  0
  7  8  1  0
  7  9  1  0
  7 10  1  0
 10 11  1  0
 10 12  1  0
 10 13  1  0
 13 14  1  0
 13 15  1  0
 13 16  1  0
 16 17  1  0
 17 18  2  0
 18 19  1  0
 18 20  1  0
 20 21  1  0
 20 22  2  0
 22 23  1  0
 22 24  1  0
 24 25  1  0
 24 26  2  0
 26 27  1  0
  2 28  1  0
 28 29  2  0
 29 30  1  0
 29 31  1  0
 31 32  1  0
 31 33  2  0
 33 34  1  0
 33 35  1  0
 35 36  1  0
 36 37  1  0
 36 38  1  0
 36 39  1  0
 35 40  2  0
 40 41  1  0
 26 17  1  0
 40 28  1  0
M  CHG  1   4  -1
M  END
>  <UniqueID>  (53) 
19

>  <SMILES>  (53) 
O=C(CCCOc1ccc(Cl)cc1Cl)[N-]/N=C/c1cccc(C(F)(F)F)c1

>  <Energy>  (53) 
40.89313893023224

>  <Genealogy>  (53) 
O=C(CCCOc1ccc(Cl)cc1Cl)[N-]N=Cc1cccc(C(F)(F)F)c1 (protonated)
O=C(CCCOc1ccc(Cl)cc1Cl)[N-]/N=C/c1cccc(C(F)(F)F)c1 (cis-trans isomerization)
O=C(CCCOc1ccc(Cl)cc1Cl)[N-]/N=C/c1cccc(C(F)(F)F)c1 (3D coordinates assigned)
O=C(CCCOc1ccc(Cl)cc1Cl)[N-]/N=C/c1cccc(C(F)(F)F)c1 (optimized conformer: 40.89313893023224 kcal/mol)

>  <smiles>  (53) 
O=C(CCCOc1ccc(Cl)cc1Cl)NN=Cc1cccc(C(F)(F)F)c1

>  <score_type>  (53) 
oracle

>  <origin>  (53) 
autodockgpu

>  <m_score__min__energy>  (53) 
-6.8700000000000001

>  <m_primary>  (53) 
energy

>  <meeko>  (53) 
{"free_energy": -5.9, "intermolecular_energy": -8.88, "internal_energy": -1.31, "cluster_size": 2, "cluster_id": 4, "rank_in_cluster": 2}

>  <energy>  (53) 
-6.47

>  <cluster_rmsd>  (53) 
0.0

>  <rmsd>  (53) 
272.74

>  <cluster>  (53) 
2

$$$$
VHXSVHVNRGGTDL-PKHXXGQGNA-M
     RDKit          3D

 41 42  0  0  0  0  0  0  0  0999 V2000
  140.0882   70.1728  222.9396 H   0  0  0  0  0  0  0  0  0  0  0  0
  140.0610   71.0460  223.6080 C   0  0  0  0  0  0  0  0  0  0  0  0
  139.7460   72.2100  223.1250 N   0  0  0  0  0  0  0  0  0  0  0  0
  140.6910   73.1340  222.6390 N   0  0  0  0  0  0  0  0  0  0  0  0
  141.2130   73.1410  221.3040 C   0  0  0  0  0  0  0  0  0  0  0  0
  142.3890   72.7470  221.0720 O   0  0  0  0  0  0  0  0  0  0  0  0
  140.3560   73.6230  220.1730 C   0  0  0  0  0  0  0  0  0  0  0  0
  140.8680   73.4163  219.2216 H   0  0  0  0  0  0  0  0  0  0  0  0
  139.3918   73.0954  220.2175 H   0  0  0  0  0  0  0  0  0  0  0  0
  140.0900   75.1310  220.2810 C   0  0  0  0  0  0  0  0  0  0  0  0
  139.2897   75.4009  219.5762 H   0  0  0  0  0  0  0  0  0  0  0  0
  139.7995   75.3491  221.3193 H   0  0  0  0  0  0  0  0  0  0  0  0
  141.3360   75.9640  219.9560 C   0  0  0  0  0  0  0  0  0  0  0  0
  142.1135   75.7599  220.7069 H   0  0  0  0  0  0  0  0  0  0  0  0
  141.6950   75.6896  218.9531 H   0  0  0  0  0  0  0  0  0  0  0  0
  141.0250   77.3570  219.9690 O   0  0  0  0  0  0  0  0  0  0  0  0
  141.3710   78.2600  220.9900 C   0  0  0  0  0  0  0  0  0  0  0  0
  141.2860   77.9240  222.3580 C   0  0  0  0  0  0  0  0  0  0  0  0
  140.9349   76.9246  222.6546 H   0  0  0  0  0  0  0  0  0  0  0  0
  141.6450   78.8530  223.3380 C   0  0  0  0  0  0  0  0  0  0  0  0
  141.5739   78.5836  224.4021 H   0  0  0  0  0  0  0  0  0  0  0  0
  142.0940   80.1230  222.9690 C   0  0  0  0  0  0  0  0  0  0  0  0
  142.5440   81.2870  224.2030 Cl  0  0  0  0  0  0  0  0  0  0  0  0
  142.1840   80.4660  221.6170 C   0  0  0  0  0  0  0  0  0  0  0  0
  142.5373   81.4667  221.3276 H   0  0  0  0  0  0  0  0  0  0  0  0
  141.8260   79.5400  220.6300 C   0  0  0  0  0  0  0  0  0  0  0  0
  141.9600   79.9950  218.9380 Cl  0  0  0  0  0  0  0  0  0  0  0  0
  140.3830   70.8750  225.0380 C   0  0  0  0  0  0  0  0  0  0  0  0
  140.8300   71.9510  225.8240 C   0  0  0  0  0  0  0  0  0  0  0  0
  140.9336   72.9504  225.3762 H   0  0  0  0  0  0  0  0  0  0  0  0
  141.1430   71.7570  227.1700 C   0  0  0  0  0  0  0  0  0  0  0  0
  141.4989   72.6023  227.7773 H   0  0  0  0  0  0  0  0  0  0  0  0
  141.0060   70.4930  227.7490 C   0  0  0  0  0  0  0  0  0  0  0  0
  141.2694   70.3449  228.8067 H   0  0  0  0  0  0  0  0  0  0  0  0
  140.5340   69.4100  226.9890 C   0  0  0  0  0  0  0  0  0  0  0  0
  140.4300   68.0330  227.5940 C   0  0  0  0  0  0  0  0  0  0  0  0
  140.5090   68.1040  228.9740 F   0  0  0  0  0  0  0  0  0  0  0  0
  141.4530   67.2160  227.1450 F   0  0  0  0  0  0  0  0  0  0  0  0
  139.2180   67.4700  227.2400 F   0  0  0  0  0  0  0  0  0  0  0  0
  140.2470   69.6060  225.6260 C   0  0  0  0  0  0  0  0  0  0  0  0
  139.9122   68.7560  225.0133 H   0  0  0  0  0  0  0  0  0  0  0  0
  1  2  1  0
  2  3  2  0
  3  4  1  0
  4  5  1  0
  5  6  2  0
  5  7  1  0
  7  8  1  0
  7  9  1  0
  7 10  1  0
 10 11  1  0
 10 12  1  0
 10 13  1  0
 13 14  1  0
 13 15  1  0
 13 16  1  0
 16 17  1  0
 17 18  2  0
 18 19  1  0
 18 20  1  0
 20 21  1  0
 20 22  2  0
 22 23  1  0
 22 24  1  0
 24 25  1  0
 24 26  2  0
 26 27  1  0
  2 28  1  0
 28 29  2  0
 29 30  1  0
 29 31  1  0
 31 32  1  0
 31 33  2  0
 33 34  1  0
 33 35  1  0
 35 36  1  0
 36 37  1  0
 36 38  1  0
 36 39  1  0
 35 40  2  0
 40 41  1  0
 26 17  1  0
 40 28  1  0
M  CHG  1   4  -1
M  END
>  <UniqueID>  (54) 
19

>  <SMILES>  (54) 
O=C(CCCOc1ccc(Cl)cc1Cl)[N-]/N=C/c1cccc(C(F)(F)F)c1

>  <Energy>  (54) 
40.89313893023224

>  <Genealogy>  (54) 
O=C(CCCOc1ccc(Cl)cc1Cl)[N-]N=Cc1cccc(C(F)(F)F)c1 (protonated)
O=C(CCCOc1ccc(Cl)cc1Cl)[N-]/N=C/c1cccc(C(F)(F)F)c1 (cis-trans isomerization)
O=C(CCCOc1ccc(Cl)cc1Cl)[N-]/N=C/c1cccc(C(F)(F)F)c1 (3D coordinates assigned)
O=C(CCCOc1ccc(Cl)cc1Cl)[N-]/N=C/c1cccc(C(F)(F)F)c1 (optimized conformer: 40.89313893023224 kcal/mol)

>  <smiles>  (54) 
O=C(CCCOc1ccc(Cl)cc1Cl)NN=Cc1cccc(C(F)(F)F)c1

>  <score_type>  (54) 
oracle

>  <origin>  (54) 
autodockgpu

>  <m_score__min__energy>  (54) 
-6.8700000000000001

>  <m_primary>  (54) 
energy

>  <meeko>  (54) 
{"free_energy": -6.28, "intermolecular_energy": -9.26, "internal_energy": -0.79, "cluster_size": 3, "cluster_id": 3, "rank_in_cluster": 1}

>  <energy>  (54) 
-6.28

>  <cluster_rmsd>  (54) 
0.0

>  <rmsd>  (54) 
272.49

>  <cluster>  (54) 
3

$$$$
VHXSVHVNRGGTDL-PKHXXGQGNA-M
     RDKit          3D

 41 42  0  0  0  0  0  0  0  0999 V2000
  138.9053   71.3759  222.4901 H   0  0  0  0  0  0  0  0  0  0  0  0
  139.7360   71.6160  223.1700 C   0  0  0  0  0  0  0  0  0  0  0  0
  140.5640   72.5660  222.8550 N   0  0  0  0  0  0  0  0  0  0  0  0
  140.3410   73.4790  221.8070 N   0  0  0  0  0  0  0  0  0  0  0  0
  139.8130   74.8010  221.9750 C   0  0  0  0  0  0  0  0  0  0  0  0
  140.5860   75.7850  222.1340 O   0  0  0  0  0  0  0  0  0  0  0  0
  138.3300   75.0170  221.9650 C   0  0  0  0  0  0  0  0  0  0  0  0
  137.9809   75.0602  220.9227 H   0  0  0  0  0  0  0  0  0  0  0  0
  137.8533   74.1824  222.5000 H   0  0  0  0  0  0  0  0  0  0  0  0
  137.9540   76.3250  222.6730 C   0  0  0  0  0  0  0  0  0  0  0  0
  137.0968   76.1353  223.3358 H   0  0  0  0  0  0  0  0  0  0  0  0
  138.8319   76.6657  223.2415 H   0  0  0  0  0  0  0  0  0  0  0  0
  137.5760   77.4330  221.6810 C   0  0  0  0  0  0  0  0  0  0  0  0
  136.9803   76.9996  220.8641 H   0  0  0  0  0  0  0  0  0  0  0  0
  136.9923   78.2003  222.2107 H   0  0  0  0  0  0  0  0  0  0  0  0
  138.7480   78.0390  221.1370 O   0  0  0  0  0  0  0  0  0  0  0  0
  139.7310   78.7210  221.8750 C   0  0  0  0  0  0  0  0  0  0  0  0
  139.4460   79.3730  223.0930 C   0  0  0  0  0  0  0  0  0  0  0  0
  138.4216   79.3598  223.4937 H   0  0  0  0  0  0  0  0  0  0  0  0
  140.4580   80.0360  223.7940 C   0  0  0  0  0  0  0  0  0  0  0  0
  140.2260   80.5463  224.7404 H   0  0  0  0  0  0  0  0  0  0  0  0
  141.7620   80.0520  223.2960 C   0  0  0  0  0  0  0  0  0  0  0  0
  143.0290   80.8830  224.1800 Cl  0  0  0  0  0  0  0  0  0  0  0  0
  142.0560   79.4060  222.0920 C   0  0  0  0  0  0  0  0  0  0  0  0
  143.0835   79.4196  221.6995 H   0  0  0  0  0  0  0  0  0  0  0  0
  141.0480   78.7420  221.3840 C   0  0  0  0  0  0  0  0  0  0  0  0
  141.4500   77.9300  219.8780 Cl  0  0  0  0  0  0  0  0  0  0  0  0
  139.8900   70.8530  224.4240 C   0  0  0  0  0  0  0  0  0  0  0  0
  139.5380   69.4940  224.5040 C   0  0  0  0  0  0  0  0  0  0  0  0
  139.1492   68.9756  223.6151 H   0  0  0  0  0  0  0  0  0  0  0  0
  139.6800   68.8000  225.7070 C   0  0  0  0  0  0  0  0  0  0  0  0
  139.3971   67.7385  225.7642 H   0  0  0  0  0  0  0  0  0  0  0  0
  140.1800   69.4490  226.8380 C   0  0  0  0  0  0  0  0  0  0  0  0
  140.2738   68.8999  227.7865 H   0  0  0  0  0  0  0  0  0  0  0  0
  140.5640   70.7990  226.7720 C   0  0  0  0  0  0  0  0  0  0  0  0
  141.0590   71.5190  228.0010 C   0  0  0  0  0  0  0  0  0  0  0  0
  141.8280   70.6720  228.7810 F   0  0  0  0  0  0  0  0  0  0  0  0
  140.0010   71.9720  228.7690 F   0  0  0  0  0  0  0  0  0  0  0  0
  141.8300   72.6000  227.6170 F   0  0  0  0  0  0  0  0  0  0  0  0
  140.3940   71.4990  225.5650 C   0  0  0  0  0  0  0  0  0  0  0  0
  140.6588   72.5654  225.5133 H   0  0  0  0  0  0  0  0  0  0  0  0
  1  2  1  0
  2  3  2  0
  3  4  1  0
  4  5  1  0
  5  6  2  0
  5  7  1  0
  7  8  1  0
  7  9  1  0
  7 10  1  0
 10 11  1  0
 10 12  1  0
 10 13  1  0
 13 14  1  0
 13 15  1  0
 13 16  1  0
 16 17  1  0
 17 18  2  0
 18 19  1  0
 18 20  1  0
 20 21  1  0
 20 22  2  0
 22 23  1  0
 22 24  1  0
 24 25  1  0
 24 26  2  0
 26 27  1  0
  2 28  1  0
 28 29  2  0
 29 30  1  0
 29 31  1  0
 31 32  1  0
 31 33  2  0
 33 34  1  0
 33 35  1  0
 35 36  1  0
 36 37  1  0
 36 38  1  0
 36 39  1  0
 35 40  2  0
 40 41  1  0
 26 17  1  0
 40 28  1  0
M  CHG  1   4  -1
M  END
>  <UniqueID>  (55) 
19

>  <SMILES>  (55) 
O=C(CCCOc1ccc(Cl)cc1Cl)[N-]/N=C/c1cccc(C(F)(F)F)c1

>  <Energy>  (55) 
40.89313893023224

>  <Genealogy>  (55) 
O=C(CCCOc1ccc(Cl)cc1Cl)[N-]N=Cc1cccc(C(F)(F)F)c1 (protonated)
O=C(CCCOc1ccc(Cl)cc1Cl)[N-]/N=C/c1cccc(C(F)(F)F)c1 (cis-trans isomerization)
O=C(CCCOc1ccc(Cl)cc1Cl)[N-]/N=C/c1cccc(C(F)(F)F)c1 (3D coordinates assigned)
O=C(CCCOc1ccc(Cl)cc1Cl)[N-]/N=C/c1cccc(C(F)(F)F)c1 (optimized conformer: 40.89313893023224 kcal/mol)

>  <smiles>  (55) 
O=C(CCCOc1ccc(Cl)cc1Cl)NN=Cc1cccc(C(F)(F)F)c1

>  <score_type>  (55) 
oracle

>  <origin>  (55) 
autodockgpu

>  <m_score__min__energy>  (55) 
-6.8700000000000001

>  <m_primary>  (55) 
energy

>  <meeko>  (55) 
{"free_energy": -6.52, "intermolecular_energy": -9.5, "internal_energy": -1.0, "cluster_size": 12, "cluster_id": 1, "rank_in_cluster": 6}

>  <energy>  (55) 
-5.97

>  <cluster_rmsd>  (55) 
1.51

>  <rmsd>  (55) 
272.25

>  <cluster>  (55) 
3

$$$$
VHXSVHVNRGGTDL-PKHXXGQGNA-M
     RDKit          3D

 41 42  0  0  0  0  0  0  0  0999 V2000
  141.2645   71.5373  222.2399 H   0  0  0  0  0  0  0  0  0  0  0  0
  140.5260   71.8980  222.9710 C   0  0  0  0  0  0  0  0  0  0  0  0
  139.8770   72.9970  222.7330 N   0  0  0  0  0  0  0  0  0  0  0  0
  140.4660   74.1410  222.1620 N   0  0  0  0  0  0  0  0  0  0  0  0
  139.8470   74.9680  221.1670 C   0  0  0  0  0  0  0  0  0  0  0  0
  139.1030   75.9290  221.5040 O   0  0  0  0  0  0  0  0  0  0  0  0
  140.0830   74.6870  219.7150 C   0  0  0  0  0  0  0  0  0  0  0  0
  141.0105   74.1053  219.6086 H   0  0  0  0  0  0  0  0  0  0  0  0
  139.2229   74.1221  219.3262 H   0  0  0  0  0  0  0  0  0  0  0  0
  140.2130   75.9870  218.9100 C   0  0  0  0  0  0  0  0  0  0  0  0
  140.1137   75.7528  217.8398 H   0  0  0  0  0  0  0  0  0  0  0  0
  139.4204   76.6727  219.2441 H   0  0  0  0  0  0  0  0  0  0  0  0
  141.5640   76.6780  219.1420 C   0  0  0  0  0  0  0  0  0  0  0  0
  142.0209   76.2800  220.0600 H   0  0  0  0  0  0  0  0  0  0  0  0
  142.2158   76.4828  218.2777 H   0  0  0  0  0  0  0  0  0  0  0  0
  141.3890   78.0880  219.2780 O   0  0  0  0  0  0  0  0  0  0  0  0
  141.5940   78.8250  220.4570 C   0  0  0  0  0  0  0  0  0  0  0  0
  141.5810   78.2270  221.7350 C   0  0  0  0  0  0  0  0  0  0  0  0
  141.4021   77.1459  221.8308 H   0  0  0  0  0  0  0  0  0  0  0  0
  141.7940   79.0000  222.8800 C   0  0  0  0  0  0  0  0  0  0  0  0
  141.7796   78.5263  223.8727 H   0  0  0  0  0  0  0  0  0  0  0  0
  142.0250   80.3720  222.7660 C   0  0  0  0  0  0  0  0  0  0  0  0
  142.2940   81.3390  224.2060 Cl  0  0  0  0  0  0  0  0  0  0  0  0
  142.0430   80.9740  221.5050 C   0  0  0  0  0  0  0  0  0  0  0  0
  142.2253   82.0552  221.4168 H   0  0  0  0  0  0  0  0  0  0  0  0
  141.8300   80.2070  220.3540 C   0  0  0  0  0  0  0  0  0  0  0  0
  141.8690   80.9900  218.7820 Cl  0  0  0  0  0  0  0  0  0  0  0  0
  140.2900   71.1240  224.2060 C   0  0  0  0  0  0  0  0  0  0  0  0
  139.6220   69.8880  224.1820 C   0  0  0  0  0  0  0  0  0  0  0  0
  139.2732   69.4726  223.2250 H   0  0  0  0  0  0  0  0  0  0  0  0
  139.3990   69.1850  225.3670 C   0  0  0  0  0  0  0  0  0  0  0  0
  138.8694   68.2212  225.3411 H   0  0  0  0  0  0  0  0  0  0  0  0
  139.8460   69.7010  226.5860 C   0  0  0  0  0  0  0  0  0  0  0  0
  139.6523   69.1489  227.5175 H   0  0  0  0  0  0  0  0  0  0  0  0
  140.5420   70.9220  226.6290 C   0  0  0  0  0  0  0  0  0  0  0  0
  140.9850   71.5080  227.9450 C   0  0  0  0  0  0  0  0  0  0  0  0
  139.8910   71.9440  228.6730 F   0  0  0  0  0  0  0  0  0  0  0  0
  141.8290   72.5870  227.7470 F   0  0  0  0  0  0  0  0  0  0  0  0
  141.6540   70.5410  228.6720 F   0  0  0  0  0  0  0  0  0  0  0  0
  140.7390   71.6380  225.4350 C   0  0  0  0  0  0  0  0  0  0  0  0
  141.2503   72.6115  225.4629 H   0  0  0  0  0  0  0  0  0  0  0  0
  1  2  1  0
  2  3  2  0
  3  4  1  0
  4  5  1  0
  5  6  2  0
  5  7  1  0
  7  8  1  0
  7  9  1  0
  7 10  1  0
 10 11  1  0
 10 12  1  0
 10 13  1  0
 13 14  1  0
 13 15  1  0
 13 16  1  0
 16 17  1  0
 17 18  2  0
 18 19  1  0
 18 20  1  0
 20 21  1  0
 20 22  2  0
 22 23  1  0
 22 24  1  0
 24 25  1  0
 24 26  2  0
 26 27  1  0
  2 28  1  0
 28 29  2  0
 29 30  1  0
 29 31  1  0
 31 32  1  0
 31 33  2  0
 33 34  1  0
 33 35  1  0
 35 36  1  0
 36 37  1  0
 36 38  1  0
 36 39  1  0
 35 40  2  0
 40 41  1  0
 26 17  1  0
 40 28  1  0
M  CHG  1   4  -1
M  END
>  <UniqueID>  (56) 
19

>  <SMILES>  (56) 
O=C(CCCOc1ccc(Cl)cc1Cl)[N-]/N=C/c1cccc(C(F)(F)F)c1

>  <Energy>  (56) 
40.89313893023224

>  <Genealogy>  (56) 
O=C(CCCOc1ccc(Cl)cc1Cl)[N-]N=Cc1cccc(C(F)(F)F)c1 (protonated)
O=C(CCCOc1ccc(Cl)cc1Cl)[N-]/N=C/c1cccc(C(F)(F)F)c1 (cis-trans isomerization)
O=C(CCCOc1ccc(Cl)cc1Cl)[N-]/N=C/c1cccc(C(F)(F)F)c1 (3D coordinates assigned)
O=C(CCCOc1ccc(Cl)cc1Cl)[N-]/N=C/c1cccc(C(F)(F)F)c1 (optimized conformer: 40.89313893023224 kcal/mol)

>  <smiles>  (56) 
O=C(CCCOc1ccc(Cl)cc1Cl)NN=Cc1cccc(C(F)(F)F)c1

>  <score_type>  (56) 
oracle

>  <origin>  (56) 
autodockgpu

>  <m_score__min__energy>  (56) 
-6.8700000000000001

>  <m_primary>  (56) 
energy

>  <meeko>  (56) 
{"free_energy": -6.23, "intermolecular_energy": -9.22, "internal_energy": -0.88, "cluster_size": 12, "cluster_id": 1, "rank_in_cluster": 10}

>  <energy>  (56) 
-5.89

>  <cluster_rmsd>  (56) 
1.95

>  <rmsd>  (56) 
271.82

>  <cluster>  (56) 
3

$$$$
VHXSVHVNRGGTDL-PKHXXGQGNA-M
     RDKit          3D

 41 42  0  0  0  0  0  0  0  0999 V2000
  139.3536   69.9046  222.6431 H   0  0  0  0  0  0  0  0  0  0  0  0
  139.5470   70.6630  223.4160 C   0  0  0  0  0  0  0  0  0  0  0  0
  139.4820   71.9220  223.1050 N   0  0  0  0  0  0  0  0  0  0  0  0
  140.6140   72.7290  222.8820 N   0  0  0  0  0  0  0  0  0  0  0  0
  141.1340   73.0650  221.5890 C   0  0  0  0  0  0  0  0  0  0  0  0
  142.2530   72.6210  221.2120 O   0  0  0  0  0  0  0  0  0  0  0  0
  140.3440   73.9530  220.6770 C   0  0  0  0  0  0  0  0  0  0  0  0
  140.2226   73.4519  219.7053 H   0  0  0  0  0  0  0  0  0  0  0  0
  139.3650   74.1445  221.1406 H   0  0  0  0  0  0  0  0  0  0  0  0
  141.0500   75.2990  220.4610 C   0  0  0  0  0  0  0  0  0  0  0  0
  142.0993   75.1096  220.1907 H   0  0  0  0  0  0  0  0  0  0  0  0
  140.5210   75.8337  219.6583 H   0  0  0  0  0  0  0  0  0  0  0  0
  141.0140   76.1790  221.7180 C   0  0  0  0  0  0  0  0  0  0  0  0
  140.2861   75.7630  222.4302 H   0  0  0  0  0  0  0  0  0  0  0  0
  142.0176   76.1972  222.1680 H   0  0  0  0  0  0  0  0  0  0  0  0
  140.6340   77.5140  221.3840 O   0  0  0  0  0  0  0  0  0  0  0  0
  139.8790   78.3750  222.1990 C   0  0  0  0  0  0  0  0  0  0  0  0
  138.4710   78.3110  222.2660 C   0  0  0  0  0  0  0  0  0  0  0  0
  137.9278   77.5683  221.6632 H   0  0  0  0  0  0  0  0  0  0  0  0
  137.7630   79.1860  223.0940 C   0  0  0  0  0  0  0  0  0  0  0  0
  136.6652   79.1319  223.1379 H   0  0  0  0  0  0  0  0  0  0  0  0
  138.4450   80.1290  223.8660 C   0  0  0  0  0  0  0  0  0  0  0  0
  137.5520   81.2240  224.9060 Cl  0  0  0  0  0  0  0  0  0  0  0  0
  139.8400   80.1990  223.8090 C   0  0  0  0  0  0  0  0  0  0  0  0
  140.3769   80.9423  224.4166 H   0  0  0  0  0  0  0  0  0  0  0  0
  140.5560   79.3260  222.9810 C   0  0  0  0  0  0  0  0  0  0  0  0
  142.3100   79.4310  222.9380 Cl  0  0  0  0  0  0  0  0  0  0  0  0
  139.8760   70.2320  224.7890 C   0  0  0  0  0  0  0  0  0  0  0  0
  139.8010   68.8810  225.1720 C   0  0  0  0  0  0  0  0  0  0  0  0
  139.5030   68.1190  224.4368 H   0  0  0  0  0  0  0  0  0  0  0  0
  140.1030   68.5030  226.4810 C   0  0  0  0  0  0  0  0  0  0  0  0
  140.0370   67.4452  226.7753 H   0  0  0  0  0  0  0  0  0  0  0  0
  140.4890   69.4640  227.4190 C   0  0  0  0  0  0  0  0  0  0  0  0
  140.7089   69.1610  228.4533 H   0  0  0  0  0  0  0  0  0  0  0  0
  140.5980   70.8150  227.0490 C   0  0  0  0  0  0  0  0  0  0  0  0
  140.9680   71.8640  228.0690 C   0  0  0  0  0  0  0  0  0  0  0  0
  141.5400   72.9600  227.4480 F   0  0  0  0  0  0  0  0  0  0  0  0
  141.8750   71.3630  228.9860 F   0  0  0  0  0  0  0  0  0  0  0  0
  139.8290   72.2690  228.7390 F   0  0  0  0  0  0  0  0  0  0  0  0
  140.2660   71.1930  225.7370 C   0  0  0  0  0  0  0  0  0  0  0  0
  140.3120   72.2536  225.4487 H   0  0  0  0  0  0  0  0  0  0  0  0
  1  2  1  0
  2  3  2  0
  3  4  1  0
  4  5  1  0
  5  6  2  0
  5  7  1  0
  7  8  1  0
  7  9  1  0
  7 10  1  0
 10 11  1  0
 10 12  1  0
 10 13  1  0
 13 14  1  0
 13 15  1  0
 13 16  1  0
 16 17  1  0
 17 18  2  0
 18 19  1  0
 18 20  1  0
 20 21  1  0
 20 22  2  0
 22 23  1  0
 22 24  1  0
 24 25  1  0
 24 26  2  0
 26 27  1  0
  2 28  1  0
 28 29  2  0
 29 30  1  0
 29 31  1  0
 31 32  1  0
 31 33  2  0
 33 34  1  0
 33 35  1  0
 35 36  1  0
 36 37  1  0
 36 38  1  0
 36 39  1  0
 35 40  2  0
 40 41  1  0
 26 17  1  0
 40 28  1  0
M  CHG  1   4  -1
M  END
>  <UniqueID>  (57) 
19

>  <SMILES>  (57) 
O=C(CCCOc1ccc(Cl)cc1Cl)[N-]/N=C/c1cccc(C(F)(F)F)c1

>  <Energy>  (57) 
40.89313893023224

>  <Genealogy>  (57) 
O=C(CCCOc1ccc(Cl)cc1Cl)[N-]N=Cc1cccc(C(F)(F)F)c1 (protonated)
O=C(CCCOc1ccc(Cl)cc1Cl)[N-]/N=C/c1cccc(C(F)(F)F)c1 (cis-trans isomerization)
O=C(CCCOc1ccc(Cl)cc1Cl)[N-]/N=C/c1cccc(C(F)(F)F)c1 (3D coordinates assigned)
O=C(CCCOc1ccc(Cl)cc1Cl)[N-]/N=C/c1cccc(C(F)(F)F)c1 (optimized conformer: 40.89313893023224 kcal/mol)

>  <smiles>  (57) 
O=C(CCCOc1ccc(Cl)cc1Cl)NN=Cc1cccc(C(F)(F)F)c1

>  <score_type>  (57) 
oracle

>  <origin>  (57) 
autodockgpu

>  <m_score__min__energy>  (57) 
-6.8700000000000001

>  <m_primary>  (57) 
energy

>  <meeko>  (57) 
{"free_energy": -6.07, "intermolecular_energy": -9.05, "internal_energy": -0.75, "cluster_size": 12, "cluster_id": 1, "rank_in_cluster": 11}

>  <energy>  (57) 
-6.25

>  <cluster_rmsd>  (57) 
0.0

>  <rmsd>  (57) 
271.95

>  <cluster>  (57) 
4

$$$$
VHXSVHVNRGGTDL-PKHXXGQGNA-M
     RDKit          3D

 41 42  0  0  0  0  0  0  0  0999 V2000
  139.4101   70.9026  223.2123 H   0  0  0  0  0  0  0  0  0  0  0  0
  140.0940   71.4980  223.8350 C   0  0  0  0  0  0  0  0  0  0  0  0
  140.6450   72.5630  223.3380 N   0  0  0  0  0  0  0  0  0  0  0  0
  140.0490   73.3550  222.3370 N   0  0  0  0  0  0  0  0  0  0  0  0
  140.6520   73.6610  221.0730 C   0  0  0  0  0  0  0  0  0  0  0  0
  140.7760   72.7710  220.1880 O   0  0  0  0  0  0  0  0  0  0  0  0
  141.1400   75.0510  220.7990 C   0  0  0  0  0  0  0  0  0  0  0  0
  141.7390   75.3959  221.6547 H   0  0  0  0  0  0  0  0  0  0  0  0
  141.7474   75.0318  219.8821 H   0  0  0  0  0  0  0  0  0  0  0  0
  139.9690   76.0200  220.5850 C   0  0  0  0  0  0  0  0  0  0  0  0
  140.3703   77.0022  220.2948 H   0  0  0  0  0  0  0  0  0  0  0  0
  139.3245   75.6027  219.7973 H   0  0  0  0  0  0  0  0  0  0  0  0
  139.1180   76.1880  221.8510 C   0  0  0  0  0  0  0  0  0  0  0  0
  138.0873   76.4422  221.5630 H   0  0  0  0  0  0  0  0  0  0  0  0
  139.1325   75.2447  222.4167 H   0  0  0  0  0  0  0  0  0  0  0  0
  139.6450   77.2270  222.6740 O   0  0  0  0  0  0  0  0  0  0  0  0
  138.9460   78.3750  223.0870 C   0  0  0  0  0  0  0  0  0  0  0  0
  137.5390   78.4670  223.0240 C   0  0  0  0  0  0  0  0  0  0  0  0
  136.9523   77.6203  222.6383 H   0  0  0  0  0  0  0  0  0  0  0  0
  136.8870   79.6280  223.4490 C   0  0  0  0  0  0  0  0  0  0  0  0
  135.7903   79.6931  223.3932 H   0  0  0  0  0  0  0  0  0  0  0  0
  137.6240   80.7050  223.9440 C   0  0  0  0  0  0  0  0  0  0  0  0
  136.8020   82.1600  224.4790 Cl  0  0  0  0  0  0  0  0  0  0  0  0
  139.0180   80.6240  224.0140 C   0  0  0  0  0  0  0  0  0  0  0  0
  139.5978   81.4735  224.4042 H   0  0  0  0  0  0  0  0  0  0  0  0
  139.6780   79.4650  223.5890 C   0  0  0  0  0  0  0  0  0  0  0  0
  141.4300   79.3870  223.6970 Cl  0  0  0  0  0  0  0  0  0  0  0  0
  140.3690   71.0720  225.2210 C   0  0  0  0  0  0  0  0  0  0  0  0
  140.7130   71.9990  226.2190 C   0  0  0  0  0  0  0  0  0  0  0  0
  140.7699   73.0701  225.9751 H   0  0  0  0  0  0  0  0  0  0  0  0
  140.9830   71.5670  227.5190 C   0  0  0  0  0  0  0  0  0  0  0  0
  141.2580   72.2979  228.2937 H   0  0  0  0  0  0  0  0  0  0  0  0
  140.9050   70.2090  227.8390 C   0  0  0  0  0  0  0  0  0  0  0  0
  141.1344   69.8742  228.8614 H   0  0  0  0  0  0  0  0  0  0  0  0
  140.5350   69.2680  226.8620 C   0  0  0  0  0  0  0  0  0  0  0  0
  140.4950   67.7970  227.1890 C   0  0  0  0  0  0  0  0  0  0  0  0
  139.1870   67.3500  227.2540 F   0  0  0  0  0  0  0  0  0  0  0  0
  141.0990   67.5440  228.4080 F   0  0  0  0  0  0  0  0  0  0  0  0
  141.1620   67.0940  226.2030 F   0  0  0  0  0  0  0  0  0  0  0  0
  140.2900   69.7070  225.5490 C   0  0  0  0  0  0  0  0  0  0  0  0
  140.0336   68.9744  224.7696 H   0  0  0  0  0  0  0  0  0  0  0  0
  1  2  1  0
  2  3  2  0
  3  4  1  0
  4  5  1  0
  5  6  2  0
  5  7  1  0
  7  8  1  0
  7  9  1  0
  7 10  1  0
 10 11  1  0
 10 12  1  0
 10 13  1  0
 13 14  1  0
 13 15  1  0
 13 16  1  0
 16 17  1  0
 17 18  2  0
 18 19  1  0
 18 20  1  0
 20 21  1  0
 20 22  2  0
 22 23  1  0
 22 24  1  0
 24 25  1  0
 24 26  2  0
 26 27  1  0
  2 28  1  0
 28 29  2  0
 29 30  1  0
 29 31  1  0
 31 32  1  0
 31 33  2  0
 33 34  1  0
 33 35  1  0
 35 36  1  0
 36 37  1  0
 36 38  1  0
 36 39  1  0
 35 40  2  0
 40 41  1  0
 26 17  1  0
 40 28  1  0
M  CHG  1   4  -1
M  END
>  <UniqueID>  (58) 
19

>  <SMILES>  (58) 
O=C(CCCOc1ccc(Cl)cc1Cl)[N-]/N=C/c1cccc(C(F)(F)F)c1

>  <Energy>  (58) 
40.89313893023224

>  <Genealogy>  (58) 
O=C(CCCOc1ccc(Cl)cc1Cl)[N-]N=Cc1cccc(C(F)(F)F)c1 (protonated)
O=C(CCCOc1ccc(Cl)cc1Cl)[N-]/N=C/c1cccc(C(F)(F)F)c1 (cis-trans isomerization)
O=C(CCCOc1ccc(Cl)cc1Cl)[N-]/N=C/c1cccc(C(F)(F)F)c1 (3D coordinates assigned)
O=C(CCCOc1ccc(Cl)cc1Cl)[N-]/N=C/c1cccc(C(F)(F)F)c1 (optimized conformer: 40.89313893023224 kcal/mol)

>  <smiles>  (58) 
O=C(CCCOc1ccc(Cl)cc1Cl)NN=Cc1cccc(C(F)(F)F)c1

>  <score_type>  (58) 
oracle

>  <origin>  (58) 
autodockgpu

>  <m_score__min__energy>  (58) 
-6.8700000000000001

>  <m_primary>  (58) 
energy

>  <meeko>  (58) 
{"free_energy": -5.97, "intermolecular_energy": -8.96, "internal_energy": -0.67, "cluster_size": 1, "cluster_id": 5, "rank_in_cluster": 1}

>  <energy>  (58) 
-5.9

>  <cluster_rmsd>  (58) 
1.13

>  <rmsd>  (58) 
271.6

>  <cluster>  (58) 
4

$$$$
VHXSVHVNRGGTDL-PKHXXGQGNA-M
     RDKit          3D

 41 42  0  0  0  0  0  0  0  0999 V2000
  141.6210   71.9676  222.5314 H   0  0  0  0  0  0  0  0  0  0  0  0
  140.6550   72.1300  223.0320 C   0  0  0  0  0  0  0  0  0  0  0  0
  139.8380   73.0240  222.5660 N   0  0  0  0  0  0  0  0  0  0  0  0
  140.2580   74.2290  221.9700 N   0  0  0  0  0  0  0  0  0  0  0  0
  139.7390   75.5250  222.2960 C   0  0  0  0  0  0  0  0  0  0  0  0
  140.5180   76.4760  222.5790 O   0  0  0  0  0  0  0  0  0  0  0  0
  138.2580   75.7530  222.3030 C   0  0  0  0  0  0  0  0  0  0  0  0
  137.8630   75.5762  221.2917 H   0  0  0  0  0  0  0  0  0  0  0  0
  137.8023   75.0588  223.0244 H   0  0  0  0  0  0  0  0  0  0  0  0
  137.9190   77.1880  222.7290 C   0  0  0  0  0  0  0  0  0  0  0  0
  137.2019   77.1503  223.5622 H   0  0  0  0  0  0  0  0  0  0  0  0
  138.8552   77.6816  223.0290 H   0  0  0  0  0  0  0  0  0  0  0  0
  137.3030   78.0020  221.5830 C   0  0  0  0  0  0  0  0  0  0  0  0
  137.3299   77.4048  220.6596 H   0  0  0  0  0  0  0  0  0  0  0  0
  136.2638   78.2520  221.8429 H   0  0  0  0  0  0  0  0  0  0  0  0
  138.0320   79.2120  221.3810 O   0  0  0  0  0  0  0  0  0  0  0  0
  139.2890   79.5100  221.9360 C   0  0  0  0  0  0  0  0  0  0  0  0
  140.4980   79.2020  221.2770 C   0  0  0  0  0  0  0  0  0  0  0  0
  140.4749   78.7082  220.2944 H   0  0  0  0  0  0  0  0  0  0  0  0
  141.7250   79.5210  221.8660 C   0  0  0  0  0  0  0  0  0  0  0  0
  142.6631   79.2758  221.3465 H   0  0  0  0  0  0  0  0  0  0  0  0
  141.7630   80.1500  223.1120 C   0  0  0  0  0  0  0  0  0  0  0  0
  143.3050   80.5500  223.8480 Cl  0  0  0  0  0  0  0  0  0  0  0  0
  140.5710   80.4620  223.7720 C   0  0  0  0  0  0  0  0  0  0  0  0
  140.6014   80.9581  224.7533 H   0  0  0  0  0  0  0  0  0  0  0  0
  139.3380   80.1450  223.1880 C   0  0  0  0  0  0  0  0  0  0  0  0
  137.8560   80.5580  224.0370 Cl  0  0  0  0  0  0  0  0  0  0  0  0
  140.3110   71.3270  224.2220 C   0  0  0  0  0  0  0  0  0  0  0  0
  139.5300   70.1630  224.1210 C   0  0  0  0  0  0  0  0  0  0  0  0
  139.1724   69.8272  223.1364 H   0  0  0  0  0  0  0  0  0  0  0  0
  139.2060   69.4310  225.2650 C   0  0  0  0  0  0  0  0  0  0  0  0
  138.5897   68.5239  225.1792 H   0  0  0  0  0  0  0  0  0  0  0  0
  139.6620   69.8470  226.5180 C   0  0  0  0  0  0  0  0  0  0  0  0
  139.3885   69.2747  227.4167 H   0  0  0  0  0  0  0  0  0  0  0  0
  140.4680   70.9920  226.6380 C   0  0  0  0  0  0  0  0  0  0  0  0
  140.9240   71.4730  227.9930 C   0  0  0  0  0  0  0  0  0  0  0  0
  139.8450   71.9190  228.7360 F   0  0  0  0  0  0  0  0  0  0  0  0
  141.8260   72.5160  227.8690 F   0  0  0  0  0  0  0  0  0  0  0  0
  141.5330   70.4300  228.6640 F   0  0  0  0  0  0  0  0  0  0  0  0
  140.7680   71.7390  225.4860 C   0  0  0  0  0  0  0  0  0  0  0  0
  141.3676   72.6570  225.5744 H   0  0  0  0  0  0  0  0  0  0  0  0
  1  2  1  0
  2  3  2  0
  3  4  1  0
  4  5  1  0
  5  6  2  0
  5  7  1  0
  7  8  1  0
  7  9  1  0
  7 10  1  0
 10 11  1  0
 10 12  1  0
 10 13  1  0
 13 14  1  0
 13 15  1  0
 13 16  1  0
 16 17  1  0
 17 18  2  0
 18 19  1  0
 18 20  1  0
 20 21  1  0
 20 22  2  0
 22 23  1  0
 22 24  1  0
 24 25  1  0
 24 26  2  0
 26 27  1  0
  2 28  1  0
 28 29  2  0
 29 30  1  0
 29 31  1  0
 31 32  1  0
 31 33  2  0
 33 34  1  0
 33 35  1  0
 35 36  1  0
 36 37  1  0
 36 38  1  0
 36 39  1  0
 35 40  2  0
 40 41  1  0
 26 17  1  0
 40 28  1  0
M  CHG  1   4  -1
M  END
>  <UniqueID>  (59) 
19

>  <SMILES>  (59) 
O=C(CCCOc1ccc(Cl)cc1Cl)[N-]/N=C/c1cccc(C(F)(F)F)c1

>  <Energy>  (59) 
40.89313893023224

>  <Genealogy>  (59) 
O=C(CCCOc1ccc(Cl)cc1Cl)[N-]N=Cc1cccc(C(F)(F)F)c1 (protonated)
O=C(CCCOc1ccc(Cl)cc1Cl)[N-]/N=C/c1cccc(C(F)(F)F)c1 (cis-trans isomerization)
O=C(CCCOc1ccc(Cl)cc1Cl)[N-]/N=C/c1cccc(C(F)(F)F)c1 (3D coordinates assigned)
O=C(CCCOc1ccc(Cl)cc1Cl)[N-]/N=C/c1cccc(C(F)(F)F)c1 (optimized conformer: 40.89313893023224 kcal/mol)

>  <smiles>  (59) 
O=C(CCCOc1ccc(Cl)cc1Cl)NN=Cc1cccc(C(F)(F)F)c1

>  <score_type>  (59) 
oracle

>  <origin>  (59) 
autodockgpu

>  <m_score__min__energy>  (59) 
-6.8700000000000001

>  <m_primary>  (59) 
energy

>  <meeko>  (59) 
{"free_energy": -6.43, "intermolecular_energy": -9.41, "internal_energy": -1.11, "cluster_size": 12, "cluster_id": 1, "rank_in_cluster": 8}

>  <energy>  (59) 
-5.97

>  <cluster_rmsd>  (59) 
0.0

>  <rmsd>  (59) 
272.49

>  <cluster>  (59) 
5

$$$$
VHXSVHVNRGGTDL-PKHXXGQGNA-M
     RDKit          3D

 41 42  0  0  0  0  0  0  0  0999 V2000
  139.3656   70.7373  223.3384 H   0  0  0  0  0  0  0  0  0  0  0  0
  140.0920   71.3850  223.8510 C   0  0  0  0  0  0  0  0  0  0  0  0
  140.6460   72.3620  223.2000 N   0  0  0  0  0  0  0  0  0  0  0  0
  140.0250   73.0390  222.1330 N   0  0  0  0  0  0  0  0  0  0  0  0
  140.0750   74.4570  221.9260 C   0  0  0  0  0  0  0  0  0  0  0  0
  139.4120   75.2360  222.6640 O   0  0  0  0  0  0  0  0  0  0  0  0
  140.9200   75.0190  220.8240 C   0  0  0  0  0  0  0  0  0  0  0  0
  140.3032   75.1296  219.9199 H   0  0  0  0  0  0  0  0  0  0  0  0
  141.3115   75.9944  221.1486 H   0  0  0  0  0  0  0  0  0  0  0  0
  142.1080   74.0990  220.5100 C   0  0  0  0  0  0  0  0  0  0  0  0
  142.3343   73.4956  221.4014 H   0  0  0  0  0  0  0  0  0  0  0  0
  141.8272   73.4630  219.6575 H   0  0  0  0  0  0  0  0  0  0  0  0
  143.3630   74.8890  220.1160 C   0  0  0  0  0  0  0  0  0  0  0  0
  143.6036   75.6074  220.9135 H   0  0  0  0  0  0  0  0  0  0  0  0
  144.1965   74.1852  219.9752 H   0  0  0  0  0  0  0  0  0  0  0  0
  143.1460   75.5970  218.8960 O   0  0  0  0  0  0  0  0  0  0  0  0
  142.7420   76.9390  218.7930 C   0  0  0  0  0  0  0  0  0  0  0  0
  142.2140   77.6560  219.8880 C   0  0  0  0  0  0  0  0  0  0  0  0
  142.1049   77.1607  220.8641 H   0  0  0  0  0  0  0  0  0  0  0  0
  141.8290   78.9910  219.7400 C   0  0  0  0  0  0  0  0  0  0  0  0
  141.4164   79.5416  220.5982 H   0  0  0  0  0  0  0  0  0  0  0  0
  141.9670   79.6280  218.5040 C   0  0  0  0  0  0  0  0  0  0  0  0
  141.4830   81.3050  218.3220 Cl  0  0  0  0  0  0  0  0  0  0  0  0
  142.4910   78.9280  217.4140 C   0  0  0  0  0  0  0  0  0  0  0  0
  142.5989   79.4297  216.4410 H   0  0  0  0  0  0  0  0  0  0  0  0
  142.8790   77.5910  217.5560 C   0  0  0  0  0  0  0  0  0  0  0  0
  143.5440   76.7390  216.1700 Cl  0  0  0  0  0  0  0  0  0  0  0  0
  140.4200   71.1280  225.2680 C   0  0  0  0  0  0  0  0  0  0  0  0
  140.9230   72.1430  226.1000 C   0  0  0  0  0  0  0  0  0  0  0  0
  141.0683   73.1574  225.7001 H   0  0  0  0  0  0  0  0  0  0  0  0
  141.2390   71.8690  227.4320 C   0  0  0  0  0  0  0  0  0  0  0  0
  141.6367   72.6670  228.0763 H   0  0  0  0  0  0  0  0  0  0  0  0
  141.0520   70.5860  227.9490 C   0  0  0  0  0  0  0  0  0  0  0  0
  141.3195   70.3739  228.9947 H   0  0  0  0  0  0  0  0  0  0  0  0
  140.5240   69.5630  227.1420 C   0  0  0  0  0  0  0  0  0  0  0  0
  140.3640   68.1640  227.6800 C   0  0  0  0  0  0  0  0  0  0  0  0
  139.2050   67.5870  227.1910 F   0  0  0  0  0  0  0  0  0  0  0  0
  140.2940   68.1700  229.0620 F   0  0  0  0  0  0  0  0  0  0  0  0
  141.4480   67.4000  227.2890 F   0  0  0  0  0  0  0  0  0  0  0  0
  140.2330   69.8390  225.7940 C   0  0  0  0  0  0  0  0  0  0  0  0
  139.8546   69.0362  225.1441 H   0  0  0  0  0  0  0  0  0  0  0  0
  1  2  1  0
  2  3  2  0
  3  4  1  0
  4  5  1  0
  5  6  2  0
  5  7  1  0
  7  8  1  0
  7  9  1  0
  7 10  1  0
 10 11  1  0
 10 12  1  0
 10 13  1  0
 13 14  1  0
 13 15  1  0
 13 16  1  0
 16 17  1  0
 17 18  2  0
 18 19  1  0
 18 20  1  0
 20 21  1  0
 20 22  2  0
 22 23  1  0
 22 24  1  0
 24 25  1  0
 24 26  2  0
 26 27  1  0
  2 28  1  0
 28 29  2  0
 29 30  1  0
 29 31  1  0
 31 32  1  0
 31 33  2  0
 33 34  1  0
 33 35  1  0
 35 36  1  0
 36 37  1  0
 36 38  1  0
 36 39  1  0
 35 40  2  0
 40 41  1  0
 26 17  1  0
 40 28  1  0
M  CHG  1   4  -1
M  END
>  <UniqueID>  (60) 
19

>  <SMILES>  (60) 
O=C(CCCOc1ccc(Cl)cc1Cl)[N-]/N=C/c1cccc(C(F)(F)F)c1

>  <Energy>  (60) 
40.89313893023224

>  <Genealogy>  (60) 
O=C(CCCOc1ccc(Cl)cc1Cl)[N-]N=Cc1cccc(C(F)(F)F)c1 (protonated)
O=C(CCCOc1ccc(Cl)cc1Cl)[N-]/N=C/c1cccc(C(F)(F)F)c1 (cis-trans isomerization)
O=C(CCCOc1ccc(Cl)cc1Cl)[N-]/N=C/c1cccc(C(F)(F)F)c1 (3D coordinates assigned)
O=C(CCCOc1ccc(Cl)cc1Cl)[N-]/N=C/c1cccc(C(F)(F)F)c1 (optimized conformer: 40.89313893023224 kcal/mol)

>  <smiles>  (60) 
O=C(CCCOc1ccc(Cl)cc1Cl)NN=Cc1cccc(C(F)(F)F)c1

>  <score_type>  (60) 
oracle

>  <origin>  (60) 
autodockgpu

>  <m_score__min__energy>  (60) 
-6.8700000000000001

>  <m_primary>  (60) 
energy

>  <meeko>  (60) 
{"free_energy": -5.89, "intermolecular_energy": -8.87, "internal_energy": -0.72, "cluster_size": 3, "cluster_id": 3, "rank_in_cluster": 3}

>  <energy>  (60) 
-5.69

>  <cluster_rmsd>  (60) 
0.0

>  <rmsd>  (60) 
270.7

>  <cluster>  (60) 
6

$$$$
JBHRSOAXAGIKHA-MUXIEFDRNA-N
     RDKit          3D

 41 42  0  0  0  0  0  0  0  0999 V2000
  141.8360   76.4770  222.4220 H   0  0  0  0  0  0  0  0  0  0  0  0
  141.0650   75.8230  222.3490 O   0  0  0  0  0  0  0  0  0  0  0  0
  141.8900   74.9190  220.3230 C   0  0  0  0  0  0  0  0  0  0  0  0
  140.1650   73.7240  221.5190 N   0  0  0  0  0  0  0  0  0  0  0  0
  139.9630   73.0620  222.7390 N   0  0  0  0  0  0  0  0  0  0  0  0
  141.0690   74.8260  221.3790 C   0  0  0  0  0  0  0  0  0  0  0  0
  142.0836   74.0173  219.7235 H   0  0  0  0  0  0  0  0  0  0  0  0
  140.1550   71.1330  224.2380 C   0  0  0  0  0  0  0  0  0  0  0  0
  139.5740   69.8540  224.2590 C   0  0  0  0  0  0  0  0  0  0  0  0
  139.2391   69.3889  223.3201 H   0  0  0  0  0  0  0  0  0  0  0  0
  139.4200   69.1710  225.4670 C   0  0  0  0  0  0  0  0  0  0  0  0
  138.9631   68.1704  225.4768 H   0  0  0  0  0  0  0  0  0  0  0  0
  139.8440   69.7540  226.6620 C   0  0  0  0  0  0  0  0  0  0  0  0
  139.7192   69.2097  227.6097 H   0  0  0  0  0  0  0  0  0  0  0  0
  140.4290   71.0310  226.6630 C   0  0  0  0  0  0  0  0  0  0  0  0
  140.9290   71.6210  227.9580 C   0  0  0  0  0  0  0  0  0  0  0  0
  139.8870   72.1300  228.7160 F   0  0  0  0  0  0  0  0  0  0  0  0
  141.5730   70.6490  228.7020 F   0  0  0  0  0  0  0  0  0  0  0  0
  141.8200   72.6410  227.6800 F   0  0  0  0  0  0  0  0  0  0  0  0
  140.6080   71.7010  225.4390 C   0  0  0  0  0  0  0  0  0  0  0  0
  141.1083   72.6805  225.4230 H   0  0  0  0  0  0  0  0  0  0  0  0
  140.3840   71.8540  222.9670 C   0  0  0  0  0  0  0  0  0  0  0  0
  140.9415   71.3391  222.1707 H   0  0  0  0  0  0  0  0  0  0  0  0
  142.5560   76.2060  219.9260 C   0  0  0  0  0  0  0  0  0  0  0  0
  143.4081   76.3853  220.5981 H   0  0  0  0  0  0  0  0  0  0  0  0
  142.8829   76.1071  218.8804 H   0  0  0  0  0  0  0  0  0  0  0  0
  141.6020   77.4050  220.0080 C   0  0  0  0  0  0  0  0  0  0  0  0
  141.7366   78.0331  219.1150 H   0  0  0  0  0  0  0  0  0  0  0  0
  140.5702   77.0278  220.0630 H   0  0  0  0  0  0  0  0  0  0  0  0
  141.8620   78.1900  221.1750 O   0  0  0  0  0  0  0  0  0  0  0  0
  140.8880   78.7870  221.9950 C   0  0  0  0  0  0  0  0  0  0  0  0
  139.5250   78.4350  221.9280 C   0  0  0  0  0  0  0  0  0  0  0  0
  139.1978   77.6461  221.2347 H   0  0  0  0  0  0  0  0  0  0  0  0
  138.5860   79.0820  222.7370 C   0  0  0  0  0  0  0  0  0  0  0  0
  137.5229   78.8073  222.6713 H   0  0  0  0  0  0  0  0  0  0  0  0
  138.9950   80.0760  223.6280 C   0  0  0  0  0  0  0  0  0  0  0  0
  137.8120   80.8960  224.6290 Cl  0  0  0  0  0  0  0  0  0  0  0  0
  140.3490   80.4120  223.7230 C   0  0  0  0  0  0  0  0  0  0  0  0
  140.6728   81.1867  224.4336 H   0  0  0  0  0  0  0  0  0  0  0  0
  141.2940   79.7660  222.9170 C   0  0  0  0  0  0  0  0  0  0  0  0
  142.9860   80.2210  223.0450 Cl  0  0  0  0  0  0  0  0  0  0  0  0
  1  2  1  0
  2  3  1  0
  3  4  1  0
  4  5  1  0
  5  6  2  0
  6  7  1  0
  6  8  1  0
  8  9  2  0
  9 10  1  0
  9 11  1  0
 11 12  1  0
 11 13  2  0
 13 14  1  0
 13 15  1  0
 15 16  1  0
 16 17  1  0
 16 18  1  0
 16 19  1  0
 15 20  2  0
 20 21  1  0
  3 22  2  0
 22 23  1  0
 22 24  1  0
 24 25  1  0
 24 26  1  0
 24 27  1  0
 27 28  1  0
 27 29  1  0
 27 30  1  0
 30 31  1  0
 31 32  2  0
 32 33  1  0
 32 34  1  0
 34 35  1  0
 34 36  2  0
 36 37  1  0
 36 38  1  0
 38 39  1  0
 38 40  2  0
 40 41  1  0
 20  8  1  0
 40 31  1  0
M  CHG  1   4  -1
M  END
>  <UniqueID>  (61) 
20

>  <SMILES>  (61) 
O/C(=C\CCOc1ccc(Cl)cc1Cl)[N-]/N=C\c1cccc(C(F)(F)F)c1

>  <Energy>  (61) 
42.0150430469495

>  <Genealogy>  (61) 
O=C(CCCOc1ccc(Cl)cc1Cl)[N-]N=Cc1cccc(C(F)(F)F)c1 (protonated)
OC(=CCCOc1ccc(Cl)cc1Cl)[N-]N=Cc1cccc(C(F)(F)F)c1 (tautomer)
O/C(=C\CCOc1ccc(Cl)cc1Cl)[N-]/N=C\c1cccc(C(F)(F)F)c1 (cis-trans isomerization)
O/C(=C\CCOc1ccc(Cl)cc1Cl)[N-]/N=C\c1cccc(C(F)(F)F)c1 (3D coordinates assigned)
O/C(=C\CCOc1ccc(Cl)cc1Cl)[N-]/N=C\c1cccc(C(F)(F)F)c1 (optimized conformer: 42.0150430469495 kcal/mol)

>  <smiles>  (61) 
O=C(CCCOc1ccc(Cl)cc1Cl)NN=Cc1cccc(C(F)(F)F)c1

>  <score_type>  (61) 
oracle

>  <origin>  (61) 
autodockgpu

>  <m_score__min__energy>  (61) 
-7.2000000000000002

>  <m_primary>  (61) 
energy

>  <meeko>  (61) 
{"free_energy": -6.8, "intermolecular_energy": -10.08, "internal_energy": -1.27, "cluster_size": 9, "cluster_id": 1, "rank_in_cluster": 6}

>  <energy>  (61) 
-7.2

>  <cluster_rmsd>  (61) 
0.0

>  <rmsd>  (61) 
271.15

>  <cluster>  (61) 
1

$$$$
JBHRSOAXAGIKHA-MUXIEFDRNA-N
     RDKit          3D

 41 42  0  0  0  0  0  0  0  0999 V2000
  142.1390   76.0680  221.9680 H   0  0  0  0  0  0  0  0  0  0  0  0
  141.2260   75.7770  222.2960 O   0  0  0  0  0  0  0  0  0  0  0  0
  140.4780   74.8430  221.5860 C   0  0  0  0  0  0  0  0  0  0  0  0
  140.6360   73.4540  221.8950 N   0  0  0  0  0  0  0  0  0  0  0  0
  140.0000   72.8450  222.9880 N   0  0  0  0  0  0  0  0  0  0  0  0
  139.8630   71.5580  223.0990 C   0  0  0  0  0  0  0  0  0  0  0  0
  139.6955   70.9721  222.1832 H   0  0  0  0  0  0  0  0  0  0  0  0
  139.9200   70.8370  224.3900 C   0  0  0  0  0  0  0  0  0  0  0  0
  139.5940   69.4730  224.4810 C   0  0  0  0  0  0  0  0  0  0  0  0
  139.2463   68.9317  223.5888 H   0  0  0  0  0  0  0  0  0  0  0  0
  139.7100   68.8030  225.7000 C   0  0  0  0  0  0  0  0  0  0  0  0
  139.4513   67.7359  225.7655 H   0  0  0  0  0  0  0  0  0  0  0  0
  140.1530   69.4820  226.8360 C   0  0  0  0  0  0  0  0  0  0  0  0
  140.2427   68.9466  227.7927 H   0  0  0  0  0  0  0  0  0  0  0  0
  140.4850   70.8450  226.7650 C   0  0  0  0  0  0  0  0  0  0  0  0
  141.0130   71.5480  227.9920 C   0  0  0  0  0  0  0  0  0  0  0  0
  139.9810   72.0120  228.7900 F   0  0  0  0  0  0  0  0  0  0  0  0
  141.7830   70.6760  228.7400 F   0  0  0  0  0  0  0  0  0  0  0  0
  141.7950   72.6200  227.6020 F   0  0  0  0  0  0  0  0  0  0  0  0
  140.3950   71.5080  225.5280 C   0  0  0  0  0  0  0  0  0  0  0  0
  140.6996   72.5622  225.4514 H   0  0  0  0  0  0  0  0  0  0  0  0
  139.6100   75.2510  220.6500 C   0  0  0  0  0  0  0  0  0  0  0  0
  139.9791   75.4276  219.6289 H   0  0  0  0  0  0  0  0  0  0  0  0
  138.1530   75.4770  220.9390 C   0  0  0  0  0  0  0  0  0  0  0  0
  137.5872   75.3817  220.0005 H   0  0  0  0  0  0  0  0  0  0  0  0
  137.8356   74.7258  221.6772 H   0  0  0  0  0  0  0  0  0  0  0  0
  137.8870   76.8650  221.5370 C   0  0  0  0  0  0  0  0  0  0  0  0
  136.8623   77.1748  221.2842 H   0  0  0  0  0  0  0  0  0  0  0  0
  138.0147   76.8059  222.6280 H   0  0  0  0  0  0  0  0  0  0  0  0
  138.8080   77.8320  221.0230 O   0  0  0  0  0  0  0  0  0  0  0  0
  139.7700   78.5290  221.7750 C   0  0  0  0  0  0  0  0  0  0  0  0
  139.5010   79.0310  223.0650 C   0  0  0  0  0  0  0  0  0  0  0  0
  138.5180   78.8549  223.5262 H   0  0  0  0  0  0  0  0  0  0  0  0
  140.4760   79.7510  223.7610 C   0  0  0  0  0  0  0  0  0  0  0  0
  140.2545   80.1476  224.7628 H   0  0  0  0  0  0  0  0  0  0  0  0
  141.7300   79.9680  223.1880 C   0  0  0  0  0  0  0  0  0  0  0  0
  142.9450   80.8850  224.0580 Cl  0  0  0  0  0  0  0  0  0  0  0  0
  142.0160   79.4490  221.9210 C   0  0  0  0  0  0  0  0  0  0  0  0
  143.0082   79.6096  221.4740 H   0  0  0  0  0  0  0  0  0  0  0  0
  141.0440   78.7260  221.2200 C   0  0  0  0  0  0  0  0  0  0  0  0
  141.4260   78.1010  219.6230 Cl  0  0  0  0  0  0  0  0  0  0  0  0
  1  2  1  0
  2  3  1  0
  3  4  1  0
  4  5  1  0
  5  6  2  0
  6  7  1  0
  6  8  1  0
  8  9  2  0
  9 10  1  0
  9 11  1  0
 11 12  1  0
 11 13  2  0
 13 14  1  0
 13 15  1  0
 15 16  1  0
 16 17  1  0
 16 18  1  0
 16 19  1  0
 15 20  2  0
 20 21  1  0
  3 22  2  0
 22 23  1  0
 22 24  1  0
 24 25  1  0
 24 26  1  0
 24 27  1  0
 27 28  1  0
 27 29  1  0
 27 30  1  0
 30 31  1  0
 31 32  2  0
 32 33  1  0
 32 34  1  0
 34 35  1  0
 34 36  2  0
 36 37  1  0
 36 38  1  0
 38 39  1  0
 38 40  2  0
 40 41  1  0
 20  8  1  0
 40 31  1  0
M  CHG  1   4  -1
M  END
>  <UniqueID>  (62) 
20

>  <SMILES>  (62) 
O/C(=C\CCOc1ccc(Cl)cc1Cl)[N-]/N=C\c1cccc(C(F)(F)F)c1

>  <Energy>  (62) 
42.0150430469495

>  <Genealogy>  (62) 
O=C(CCCOc1ccc(Cl)cc1Cl)[N-]N=Cc1cccc(C(F)(F)F)c1 (protonated)
OC(=CCCOc1ccc(Cl)cc1Cl)[N-]N=Cc1cccc(C(F)(F)F)c1 (tautomer)
O/C(=C\CCOc1ccc(Cl)cc1Cl)[N-]/N=C\c1cccc(C(F)(F)F)c1 (cis-trans isomerization)
O/C(=C\CCOc1ccc(Cl)cc1Cl)[N-]/N=C\c1cccc(C(F)(F)F)c1 (3D coordinates assigned)
O/C(=C\CCOc1ccc(Cl)cc1Cl)[N-]/N=C\c1cccc(C(F)(F)F)c1 (optimized conformer: 42.0150430469495 kcal/mol)

>  <smiles>  (62) 
O=C(CCCOc1ccc(Cl)cc1Cl)NN=Cc1cccc(C(F)(F)F)c1

>  <score_type>  (62) 
oracle

>  <origin>  (62) 
autodockgpu

>  <m_score__min__energy>  (62) 
-7.2000000000000002

>  <m_primary>  (62) 
energy

>  <meeko>  (62) 
{"free_energy": -6.6, "intermolecular_energy": -9.88, "internal_energy": -0.95, "cluster_size": 7, "cluster_id": 2, "rank_in_cluster": 3}

>  <energy>  (62) 
-6.98

>  <cluster_rmsd>  (62) 
1.32

>  <rmsd>  (62) 
270.85

>  <cluster>  (62) 
1

$$$$
JBHRSOAXAGIKHA-MUXIEFDRNA-N
     RDKit          3D

 41 42  0  0  0  0  0  0  0  0999 V2000
  138.5380   74.5980  222.9660 H   0  0  0  0  0  0  0  0  0  0  0  0
  139.1370   75.2580  222.4850 O   0  0  0  0  0  0  0  0  0  0  0  0
  141.1960   75.7670  221.4360 C   0  0  0  0  0  0  0  0  0  0  0  0
  140.7080   73.4680  221.9960 N   0  0  0  0  0  0  0  0  0  0  0  0
  139.9110   72.5070  222.6360 N   0  0  0  0  0  0  0  0  0  0  0  0
  140.3660   74.8590  221.9690 C   0  0  0  0  0  0  0  0  0  0  0  0
  142.2053   75.8725  221.8605 H   0  0  0  0  0  0  0  0  0  0  0  0
  140.1620   70.8000  224.3770 C   0  0  0  0  0  0  0  0  0  0  0  0
  139.5650   69.5440  224.5720 C   0  0  0  0  0  0  0  0  0  0  0  0
  139.2002   68.9703  223.7073 H   0  0  0  0  0  0  0  0  0  0  0  0
  139.4330   69.0210  225.8600 C   0  0  0  0  0  0  0  0  0  0  0  0
  138.9626   68.0376  226.0070 H   0  0  0  0  0  0  0  0  0  0  0  0
  139.8960   69.7420  226.9610 C   0  0  0  0  0  0  0  0  0  0  0  0
  139.7888   69.3231  227.9724 H   0  0  0  0  0  0  0  0  0  0  0  0
  140.4980   70.9990  226.7870 C   0  0  0  0  0  0  0  0  0  0  0  0
  141.0400   71.7390  227.9850 C   0  0  0  0  0  0  0  0  0  0  0  0
  141.8030   70.9080  228.7880 F   0  0  0  0  0  0  0  0  0  0  0  0
  141.8360   72.7910  227.5690 F   0  0  0  0  0  0  0  0  0  0  0  0
  139.9870   72.2370  228.7290 F   0  0  0  0  0  0  0  0  0  0  0  0
  140.6550   71.5070  225.4850 C   0  0  0  0  0  0  0  0  0  0  0  0
  141.1691   72.4676  225.3334 H   0  0  0  0  0  0  0  0  0  0  0  0
  140.3680   71.3520  223.0190 C   0  0  0  0  0  0  0  0  0  0  0  0
  140.9387   70.7522  222.2947 H   0  0  0  0  0  0  0  0  0  0  0  0
  140.8040   76.6460  220.2830 C   0  0  0  0  0  0  0  0  0  0  0  0
  140.8155   76.0462  219.3610 H   0  0  0  0  0  0  0  0  0  0  0  0
  139.8000   77.0450  220.4900 H   0  0  0  0  0  0  0  0  0  0  0  0
  141.7560   77.8370  220.1090 C   0  0  0  0  0  0  0  0  0  0  0  0
  142.7305   77.4696  219.7548 H   0  0  0  0  0  0  0  0  0  0  0  0
  141.3169   78.5322  219.3783 H   0  0  0  0  0  0  0  0  0  0  0  0
  141.9400   78.5330  221.3460 O   0  0  0  0  0  0  0  0  0  0  0  0
  140.9180   79.0890  222.1340 C   0  0  0  0  0  0  0  0  0  0  0  0
  139.5650   78.7230  221.9840 C   0  0  0  0  0  0  0  0  0  0  0  0
  139.2848   77.9559  221.2471 H   0  0  0  0  0  0  0  0  0  0  0  0
  138.5770   79.3290  222.7660 C   0  0  0  0  0  0  0  0  0  0  0  0
  137.5225   79.0442  222.6357 H   0  0  0  0  0  0  0  0  0  0  0  0
  138.9260   80.2950  223.7120 C   0  0  0  0  0  0  0  0  0  0  0  0
  137.6820   81.0650  224.6780 Cl  0  0  0  0  0  0  0  0  0  0  0  0
  140.2680   80.6430  223.8880 C   0  0  0  0  0  0  0  0  0  0  0  0
  140.5442   81.3952  224.6416 H   0  0  0  0  0  0  0  0  0  0  0  0
  141.2620   80.0390  223.1100 C   0  0  0  0  0  0  0  0  0  0  0  0
  142.9390   80.5090  223.3420 Cl  0  0  0  0  0  0  0  0  0  0  0  0
  1  2  1  0
  2  3  1  0
  3  4  1  0
  4  5  1  0
  5  6  2  0
  6  7  1  0
  6  8  1  0
  8  9  2  0
  9 10  1  0
  9 11  1  0
 11 12  1  0
 11 13  2  0
 13 14  1  0
 13 15  1  0
 15 16  1  0
 16 17  1  0
 16 18  1  0
 16 19  1  0
 15 20  2  0
 20 21  1  0
  3 22  2  0
 22 23  1  0
 22 24  1  0
 24 25  1  0
 24 26  1  0
 24 27  1  0
 27 28  1  0
 27 29  1  0
 27 30  1  0
 30 31  1  0
 31 32  2  0
 32 33  1  0
 32 34  1  0
 34 35  1  0
 34 36  2  0
 36 37  1  0
 36 38  1  0
 38 39  1  0
 38 40  2  0
 40 41  1  0
 20  8  1  0
 40 31  1  0
M  CHG  1   4  -1
M  END
>  <UniqueID>  (63) 
20

>  <SMILES>  (63) 
O/C(=C\CCOc1ccc(Cl)cc1Cl)[N-]/N=C\c1cccc(C(F)(F)F)c1

>  <Energy>  (63) 
42.0150430469495

>  <Genealogy>  (63) 
O=C(CCCOc1ccc(Cl)cc1Cl)[N-]N=Cc1cccc(C(F)(F)F)c1 (protonated)
OC(=CCCOc1ccc(Cl)cc1Cl)[N-]N=Cc1cccc(C(F)(F)F)c1 (tautomer)
O/C(=C\CCOc1ccc(Cl)cc1Cl)[N-]/N=C\c1cccc(C(F)(F)F)c1 (cis-trans isomerization)
O/C(=C\CCOc1ccc(Cl)cc1Cl)[N-]/N=C\c1cccc(C(F)(F)F)c1 (3D coordinates assigned)
O/C(=C\CCOc1ccc(Cl)cc1Cl)[N-]/N=C\c1cccc(C(F)(F)F)c1 (optimized conformer: 42.0150430469495 kcal/mol)

>  <smiles>  (63) 
O=C(CCCOc1ccc(Cl)cc1Cl)NN=Cc1cccc(C(F)(F)F)c1

>  <score_type>  (63) 
oracle

>  <origin>  (63) 
autodockgpu

>  <m_score__min__energy>  (63) 
-7.2000000000000002

>  <m_primary>  (63) 
energy

>  <meeko>  (63) 
{"free_energy": -6.89, "intermolecular_energy": -10.17, "internal_energy": -0.81, "cluster_size": 9, "cluster_id": 1, "rank_in_cluster": 5}

>  <energy>  (63) 
-6.92

>  <cluster_rmsd>  (63) 
1.42

>  <rmsd>  (63) 
270.88

>  <cluster>  (63) 
1

$$$$
JBHRSOAXAGIKHA-MUXIEFDRNA-N
     RDKit          3D

 41 42  0  0  0  0  0  0  0  0999 V2000
  142.2000   75.7390  221.5980 H   0  0  0  0  0  0  0  0  0  0  0  0
  142.2750   74.8180  221.1810 O   0  0  0  0  0  0  0  0  0  0  0  0
  140.2900   73.9370  220.2410 C   0  0  0  0  0  0  0  0  0  0  0  0
  141.0910   73.0360  222.3340 N   0  0  0  0  0  0  0  0  0  0  0  0
  139.8550   72.6850  222.8980 N   0  0  0  0  0  0  0  0  0  0  0  0
  141.2050   73.9300  221.2210 C   0  0  0  0  0  0  0  0  0  0  0  0
  140.4117   73.2382  219.4002 H   0  0  0  0  0  0  0  0  0  0  0  0
  139.6970   70.7860  224.4390 C   0  0  0  0  0  0  0  0  0  0  0  0
  139.4540   69.4120  224.5990 C   0  0  0  0  0  0  0  0  0  0  0  0
  139.0747   68.8205  223.7527 H   0  0  0  0  0  0  0  0  0  0  0  0
  139.6920   68.7940  225.8280 C   0  0  0  0  0  0  0  0  0  0  0  0
  139.4970   67.7181  225.9477 H   0  0  0  0  0  0  0  0  0  0  0  0
  140.1770   69.5380  226.9060 C   0  0  0  0  0  0  0  0  0  0  0  0
  140.3629   69.0440  227.8711 H   0  0  0  0  0  0  0  0  0  0  0  0
  140.4290   70.9130  226.7660 C   0  0  0  0  0  0  0  0  0  0  0  0
  141.0030   71.6880  227.9260 C   0  0  0  0  0  0  0  0  0  0  0  0
  141.7830   70.8790  228.7360 F   0  0  0  0  0  0  0  0  0  0  0  0
  141.7910   72.7230  227.4580 F   0  0  0  0  0  0  0  0  0  0  0  0
  139.9700   72.2130  228.6800 F   0  0  0  0  0  0  0  0  0  0  0  0
  140.2140   71.5230  225.5170 C   0  0  0  0  0  0  0  0  0  0  0  0
  140.4533   72.5883  225.3831 H   0  0  0  0  0  0  0  0  0  0  0  0
  139.5090   71.4550  223.1330 C   0  0  0  0  0  0  0  0  0  0  0  0
  139.0508   70.8790  222.3155 H   0  0  0  0  0  0  0  0  0  0  0  0
  139.1050   74.8610  220.2450 C   0  0  0  0  0  0  0  0  0  0  0  0
  138.9586   75.2530  219.2277 H   0  0  0  0  0  0  0  0  0  0  0  0
  138.2306   74.2857  220.5834 H   0  0  0  0  0  0  0  0  0  0  0  0
  139.2910   76.0420  221.2070 C   0  0  0  0  0  0  0  0  0  0  0  0
  138.4124   76.7006  221.1418 H   0  0  0  0  0  0  0  0  0  0  0  0
  139.4028   75.6476  222.2278 H   0  0  0  0  0  0  0  0  0  0  0  0
  140.4640   76.7930  220.8780 O   0  0  0  0  0  0  0  0  0  0  0  0
  141.0450   77.7960  221.6730 C   0  0  0  0  0  0  0  0  0  0  0  0
  141.0620   77.7290  223.0810 C   0  0  0  0  0  0  0  0  0  0  0  0
  140.6349   76.8532  223.5914 H   0  0  0  0  0  0  0  0  0  0  0  0
  141.6180   78.7680  223.8330 C   0  0  0  0  0  0  0  0  0  0  0  0
  141.6175   78.7119  224.9316 H   0  0  0  0  0  0  0  0  0  0  0  0
  142.1740   79.8770  223.1920 C   0  0  0  0  0  0  0  0  0  0  0  0
  142.8560   81.1860  224.1380 Cl  0  0  0  0  0  0  0  0  0  0  0  0
  142.1880   79.9400  221.7950 C   0  0  0  0  0  0  0  0  0  0  0  0
  142.6357   80.8086  221.2899 H   0  0  0  0  0  0  0  0  0  0  0  0
  141.6340   78.9010  221.0370 C   0  0  0  0  0  0  0  0  0  0  0  0
  141.6510   79.0140  219.2840 Cl  0  0  0  0  0  0  0  0  0  0  0  0
  1  2  1  0
  2  3  1  0
  3  4  1  0
  4  5  1  0
  5  6  2  0
  6  7  1  0
  6  8  1  0
  8  9  2  0
  9 10  1  0
  9 11  1  0
 11 12  1  0
 11 13  2  0
 13 14  1  0
 13 15  1  0
 15 16  1  0
 16 17  1  0
 16 18  1  0
 16 19  1  0
 15 20  2  0
 20 21  1  0
  3 22  2  0
 22 23  1  0
 22 24  1  0
 24 25  1  0
 24 26  1  0
 24 27  1  0
 27 28  1  0
 27 29  1  0
 27 30  1  0
 30 31  1  0
 31 32  2  0
 32 33  1  0
 32 34  1  0
 34 35  1  0
 34 36  2  0
 36 37  1  0
 36 38  1  0
 38 39  1  0
 38 40  2  0
 40 41  1  0
 20  8  1  0
 40 31  1  0
M  CHG  1   4  -1
M  END
>  <UniqueID>  (64) 
20

>  <SMILES>  (64) 
O/C(=C\CCOc1ccc(Cl)cc1Cl)[N-]/N=C\c1cccc(C(F)(F)F)c1

>  <Energy>  (64) 
42.0150430469495

>  <Genealogy>  (64) 
O=C(CCCOc1ccc(Cl)cc1Cl)[N-]N=Cc1cccc(C(F)(F)F)c1 (protonated)
OC(=CCCOc1ccc(Cl)cc1Cl)[N-]N=Cc1cccc(C(F)(F)F)c1 (tautomer)
O/C(=C\CCOc1ccc(Cl)cc1Cl)[N-]/N=C\c1cccc(C(F)(F)F)c1 (cis-trans isomerization)
O/C(=C\CCOc1ccc(Cl)cc1Cl)[N-]/N=C\c1cccc(C(F)(F)F)c1 (3D coordinates assigned)
O/C(=C\CCOc1ccc(Cl)cc1Cl)[N-]/N=C\c1cccc(C(F)(F)F)c1 (optimized conformer: 42.0150430469495 kcal/mol)

>  <smiles>  (64) 
O=C(CCCOc1ccc(Cl)cc1Cl)NN=Cc1cccc(C(F)(F)F)c1

>  <score_type>  (64) 
oracle

>  <origin>  (64) 
autodockgpu

>  <m_score__min__energy>  (64) 
-7.2000000000000002

>  <m_primary>  (64) 
energy

>  <meeko>  (64) 
{"free_energy": -6.4, "intermolecular_energy": -9.68, "internal_energy": -1.37, "cluster_size": 7, "cluster_id": 2, "rank_in_cluster": 5}

>  <energy>  (64) 
-6.89

>  <cluster_rmsd>  (64) 
1.64

>  <rmsd>  (64) 
271.07

>  <cluster>  (64) 
1

$$$$
JBHRSOAXAGIKHA-MUXIEFDRNA-N
     RDKit          3D

 41 42  0  0  0  0  0  0  0  0999 V2000
  140.1490   75.3760  221.6830 H   0  0  0  0  0  0  0  0  0  0  0  0
  140.3320   74.4780  222.1150 O   0  0  0  0  0  0  0  0  0  0  0  0
  138.1210   73.6500  221.9610 C   0  0  0  0  0  0  0  0  0  0  0  0
  139.9620   72.0920  221.8340 N   0  0  0  0  0  0  0  0  0  0  0  0
  140.4430   71.3600  222.9290 N   0  0  0  0  0  0  0  0  0  0  0  0
  139.4410   73.4200  221.9620 C   0  0  0  0  0  0  0  0  0  0  0  0
  137.4467   72.8546  222.3113 H   0  0  0  0  0  0  0  0  0  0  0  0
  139.9230   70.0870  224.9580 C   0  0  0  0  0  0  0  0  0  0  0  0
  139.8180   68.7550  225.3920 C   0  0  0  0  0  0  0  0  0  0  0  0
  139.5521   67.9641  224.6752 H   0  0  0  0  0  0  0  0  0  0  0  0
  140.0500   68.4320  226.7300 C   0  0  0  0  0  0  0  0  0  0  0  0
  139.9645   67.3875  227.0643 H   0  0  0  0  0  0  0  0  0  0  0  0
  140.3900   69.4290  227.6450 C   0  0  0  0  0  0  0  0  0  0  0  0
  140.5708   69.1658  228.6976 H   0  0  0  0  0  0  0  0  0  0  0  0
  140.5030   70.7670  227.2310 C   0  0  0  0  0  0  0  0  0  0  0  0
  140.9240   71.8220  228.2240 C   0  0  0  0  0  0  0  0  0  0  0  0
  141.4330   72.9400  227.5850 F   0  0  0  0  0  0  0  0  0  0  0  0
  139.8370   72.2130  228.9850 F   0  0  0  0  0  0  0  0  0  0  0  0
  141.8950   71.3010  229.0590 F   0  0  0  0  0  0  0  0  0  0  0  0
  140.2970   71.0820  225.8750 C   0  0  0  0  0  0  0  0  0  0  0  0
  140.4303   72.1180  225.5302 H   0  0  0  0  0  0  0  0  0  0  0  0
  139.7400   70.4500  223.5350 C   0  0  0  0  0  0  0  0  0  0  0  0
  138.9668   69.9208  222.9587 H   0  0  0  0  0  0  0  0  0  0  0  0
  137.5240   74.9500  221.5010 C   0  0  0  0  0  0  0  0  0  0  0  0
  137.8031   75.1151  220.4499 H   0  0  0  0  0  0  0  0  0  0  0  0
  136.4328   74.8801  221.6208 H   0  0  0  0  0  0  0  0  0  0  0  0
  138.0120   76.1420  222.3340 C   0  0  0  0  0  0  0  0  0  0  0  0
  137.1727   76.8342  222.4968 H   0  0  0  0  0  0  0  0  0  0  0  0
  138.3935   75.7645  223.2942 H   0  0  0  0  0  0  0  0  0  0  0  0
  139.0690   76.8380  221.6670 O   0  0  0  0  0  0  0  0  0  0  0  0
  139.8800   77.8360  222.2330 C   0  0  0  0  0  0  0  0  0  0  0  0
  139.4330   78.6690  223.2800 C   0  0  0  0  0  0  0  0  0  0  0  0
  138.4259   78.5275  223.6991 H   0  0  0  0  0  0  0  0  0  0  0  0
  140.2620   79.6730  223.7880 C   0  0  0  0  0  0  0  0  0  0  0  0
  139.9018   80.3240  224.5982 H   0  0  0  0  0  0  0  0  0  0  0  0
  141.5460   79.8520  223.2700 C   0  0  0  0  0  0  0  0  0  0  0  0
  142.5760   81.1230  223.8990 Cl  0  0  0  0  0  0  0  0  0  0  0  0
  142.0090   79.0120  222.2530 C   0  0  0  0  0  0  0  0  0  0  0  0
  143.0255   79.1440  221.8539 H   0  0  0  0  0  0  0  0  0  0  0  0
  141.1840   78.0030  221.7400 C   0  0  0  0  0  0  0  0  0  0  0  0
  141.7870   76.9740  220.4500 Cl  0  0  0  0  0  0  0  0  0  0  0  0
  1  2  1  0
  2  3  1  0
  3  4  1  0
  4  5  1  0
  5  6  2  0
  6  7  1  0
  6  8  1  0
  8  9  2  0
  9 10  1  0
  9 11  1  0
 11 12  1  0
 11 13  2  0
 13 14  1  0
 13 15  1  0
 15 16  1  0
 16 17  1  0
 16 18  1  0
 16 19  1  0
 15 20  2  0
 20 21  1  0
  3 22  2  0
 22 23  1  0
 22 24  1  0
 24 25  1  0
 24 26  1  0
 24 27  1  0
 27 28  1  0
 27 29  1  0
 27 30  1  0
 30 31  1  0
 31 32  2  0
 32 33  1  0
 32 34  1  0
 34 35  1  0
 34 36  2  0
 36 37  1  0
 36 38  1  0
 38 39  1  0
 38 40  2  0
 40 41  1  0
 20  8  1  0
 40 31  1  0
M  CHG  1   4  -1
M  END
>  <UniqueID>  (65) 
20

>  <SMILES>  (65) 
O/C(=C\CCOc1ccc(Cl)cc1Cl)[N-]/N=C\c1cccc(C(F)(F)F)c1

>  <Energy>  (65) 
42.0150430469495

>  <Genealogy>  (65) 
O=C(CCCOc1ccc(Cl)cc1Cl)[N-]N=Cc1cccc(C(F)(F)F)c1 (protonated)
OC(=CCCOc1ccc(Cl)cc1Cl)[N-]N=Cc1cccc(C(F)(F)F)c1 (tautomer)
O/C(=C\CCOc1ccc(Cl)cc1Cl)[N-]/N=C\c1cccc(C(F)(F)F)c1 (cis-trans isomerization)
O/C(=C\CCOc1ccc(Cl)cc1Cl)[N-]/N=C\c1cccc(C(F)(F)F)c1 (3D coordinates assigned)
O/C(=C\CCOc1ccc(Cl)cc1Cl)[N-]/N=C\c1cccc(C(F)(F)F)c1 (optimized conformer: 42.0150430469495 kcal/mol)

>  <smiles>  (65) 
O=C(CCCOc1ccc(Cl)cc1Cl)NN=Cc1cccc(C(F)(F)F)c1

>  <score_type>  (65) 
oracle

>  <origin>  (65) 
autodockgpu

>  <m_score__min__energy>  (65) 
-7.2000000000000002

>  <m_primary>  (65) 
energy

>  <meeko>  (65) 
{"free_energy": -6.16, "intermolecular_energy": -9.44, "internal_energy": -1.33, "cluster_size": 7, "cluster_id": 2, "rank_in_cluster": 7}

>  <energy>  (65) 
-6.89

>  <cluster_rmsd>  (65) 
1.71

>  <rmsd>  (65) 
271.1

>  <cluster>  (65) 
1

$$$$
JBHRSOAXAGIKHA-MUXIEFDRNA-N
     RDKit          3D

 41 42  0  0  0  0  0  0  0  0999 V2000
  142.3800   76.4430  221.1560 H   0  0  0  0  0  0  0  0  0  0  0  0
  141.7940   75.6970  220.8020 O   0  0  0  0  0  0  0  0  0  0  0  0
  139.6850   75.8160  221.8680 C   0  0  0  0  0  0  0  0  0  0  0  0
  141.0180   73.8200  222.1380 N   0  0  0  0  0  0  0  0  0  0  0  0
  139.9830   73.0530  222.6930 N   0  0  0  0  0  0  0  0  0  0  0  0
  140.8040   75.1290  221.5980 C   0  0  0  0  0  0  0  0  0  0  0  0
  138.7134   75.3241  221.7129 H   0  0  0  0  0  0  0  0  0  0  0  0
  139.9670   71.0510  224.1070 C   0  0  0  0  0  0  0  0  0  0  0  0
  139.4810   69.7360  224.1930 C   0  0  0  0  0  0  0  0  0  0  0  0
  139.1086   69.2292  223.2905 H   0  0  0  0  0  0  0  0  0  0  0  0
  139.4690   69.0700  225.4200 C   0  0  0  0  0  0  0  0  0  0  0  0
  139.0846   68.0412  225.4814 H   0  0  0  0  0  0  0  0  0  0  0  0
  139.9430   69.7050  226.5690 C   0  0  0  0  0  0  0  0  0  0  0  0
  139.9305   69.1731  227.5318 H   0  0  0  0  0  0  0  0  0  0  0  0
  140.4360   71.0190  226.5040 C   0  0  0  0  0  0  0  0  0  0  0  0
  140.9930   71.6690  227.7460 C   0  0  0  0  0  0  0  0  0  0  0  0
  139.9930   72.2750  228.4900 F   0  0  0  0  0  0  0  0  0  0  0  0
  141.6090   70.7180  228.5400 F   0  0  0  0  0  0  0  0  0  0  0  0
  141.9230   72.6250  227.3830 F   0  0  0  0  0  0  0  0  0  0  0  0
  140.4720   71.6750  225.2590 C   0  0  0  0  0  0  0  0  0  0  0  0
  140.8998   72.6859  225.1880 H   0  0  0  0  0  0  0  0  0  0  0  0
  140.0470   71.7600  222.8110 C   0  0  0  0  0  0  0  0  0  0  0  0
  140.1673   71.1600  221.8969 H   0  0  0  0  0  0  0  0  0  0  0  0
  139.7040   77.2310  222.3740 C   0  0  0  0  0  0  0  0  0  0  0  0
  139.4629   77.9080  221.5412 H   0  0  0  0  0  0  0  0  0  0  0  0
  138.9623   77.3098  223.1825 H   0  0  0  0  0  0  0  0  0  0  0  0
  141.0710   77.6240  222.9500 C   0  0  0  0  0  0  0  0  0  0  0  0
  140.9188   78.2386  223.8495 H   0  0  0  0  0  0  0  0  0  0  0  0
  141.6229   76.7055  223.1986 H   0  0  0  0  0  0  0  0  0  0  0  0
  141.8350   78.3700  221.9980 O   0  0  0  0  0  0  0  0  0  0  0  0
  141.5150   79.6500  221.5120 C   0  0  0  0  0  0  0  0  0  0  0  0
  140.8680   79.8480  220.2750 C   0  0  0  0  0  0  0  0  0  0  0  0
  140.5699   78.9798  219.6689 H   0  0  0  0  0  0  0  0  0  0  0  0
  140.6030   81.1410  219.8140 C   0  0  0  0  0  0  0  0  0  0  0  0
  140.1066   81.2865  218.8432 H   0  0  0  0  0  0  0  0  0  0  0  0
  140.9670   82.2480  220.5830 C   0  0  0  0  0  0  0  0  0  0  0  0
  140.6480   83.8680  219.9940 Cl  0  0  0  0  0  0  0  0  0  0  0  0
  141.5830   82.0610  221.8240 C   0  0  0  0  0  0  0  0  0  0  0  0
  141.8590   82.9328  222.4353 H   0  0  0  0  0  0  0  0  0  0  0  0
  141.8500   80.7690  222.2920 C   0  0  0  0  0  0  0  0  0  0  0  0
  142.6400   80.5650  223.8480 Cl  0  0  0  0  0  0  0  0  0  0  0  0
  1  2  1  0
  2  3  1  0
  3  4  1  0
  4  5  1  0
  5  6  2  0
  6  7  1  0
  6  8  1  0
  8  9  2  0
  9 10  1  0
  9 11  1  0
 11 12  1  0
 11 13  2  0
 13 14  1  0
 13 15  1  0
 15 16  1  0
 16 17  1  0
 16 18  1  0
 16 19  1  0
 15 20  2  0
 20 21  1  0
  3 22  2  0
 22 23  1  0
 22 24  1  0
 24 25  1  0
 24 26  1  0
 24 27  1  0
 27 28  1  0
 27 29  1  0
 27 30  1  0
 30 31  1  0
 31 32  2  0
 32 33  1  0
 32 34  1  0
 34 35  1  0
 34 36  2  0
 36 37  1  0
 36 38  1  0
 38 39  1  0
 38 40  2  0
 40 41  1  0
 20  8  1  0
 40 31  1  0
M  CHG  1   4  -1
M  END
>  <UniqueID>  (66) 
20

>  <SMILES>  (66) 
O/C(=C\CCOc1ccc(Cl)cc1Cl)[N-]/N=C\c1cccc(C(F)(F)F)c1

>  <Energy>  (66) 
42.0150430469495

>  <Genealogy>  (66) 
O=C(CCCOc1ccc(Cl)cc1Cl)[N-]N=Cc1cccc(C(F)(F)F)c1 (protonated)
OC(=CCCOc1ccc(Cl)cc1Cl)[N-]N=Cc1cccc(C(F)(F)F)c1 (tautomer)
O/C(=C\CCOc1ccc(Cl)cc1Cl)[N-]/N=C\c1cccc(C(F)(F)F)c1 (cis-trans isomerization)
O/C(=C\CCOc1ccc(Cl)cc1Cl)[N-]/N=C\c1cccc(C(F)(F)F)c1 (3D coordinates assigned)
O/C(=C\CCOc1ccc(Cl)cc1Cl)[N-]/N=C\c1cccc(C(F)(F)F)c1 (optimized conformer: 42.0150430469495 kcal/mol)

>  <smiles>  (66) 
O=C(CCCOc1ccc(Cl)cc1Cl)NN=Cc1cccc(C(F)(F)F)c1

>  <score_type>  (66) 
oracle

>  <origin>  (66) 
autodockgpu

>  <m_score__min__energy>  (66) 
-7.2000000000000002

>  <m_primary>  (66) 
energy

>  <meeko>  (66) 
{"free_energy": -6.38, "intermolecular_energy": -9.66, "internal_energy": -1.26, "cluster_size": 7, "cluster_id": 2, "rank_in_cluster": 6}

>  <energy>  (66) 
-6.8

>  <cluster_rmsd>  (66) 
1.85

>  <rmsd>  (66) 
271.06

>  <cluster>  (66) 
1

$$$$
JBHRSOAXAGIKHA-MUXIEFDRNA-N
     RDKit          3D

 41 42  0  0  0  0  0  0  0  0999 V2000
  139.0010   74.7860  223.0910 H   0  0  0  0  0  0  0  0  0  0  0  0
  139.5420   75.2100  222.3470 O   0  0  0  0  0  0  0  0  0  0  0  0
  141.0370   74.9690  220.5290 C   0  0  0  0  0  0  0  0  0  0  0  0
  140.8480   73.1710  222.1310 N   0  0  0  0  0  0  0  0  0  0  0  0
  140.3220   72.6350  223.3160 N   0  0  0  0  0  0  0  0  0  0  0  0
  140.4920   74.4710  221.6480 C   0  0  0  0  0  0  0  0  0  0  0  0
  142.1321   75.0539  220.4685 H   0  0  0  0  0  0  0  0  0  0  0  0
  140.8070   71.1870  225.2320 C   0  0  0  0  0  0  0  0  0  0  0  0
  141.0530   72.2080  226.1650 C   0  0  0  0  0  0  0  0  0  0  0  0
  141.1981   73.2423  225.8198 H   0  0  0  0  0  0  0  0  0  0  0  0
  141.1140   71.9150  227.5290 C   0  0  0  0  0  0  0  0  0  0  0  0
  141.3091   72.7184  228.2546 H   0  0  0  0  0  0  0  0  0  0  0  0
  140.9280   70.6050  227.9740 C   0  0  0  0  0  0  0  0  0  0  0  0
  140.9768   70.3818  229.0500 H   0  0  0  0  0  0  0  0  0  0  0  0
  140.6790   69.5700  227.0580 C   0  0  0  0  0  0  0  0  0  0  0  0
  140.4280   68.1710  227.5640 C   0  0  0  0  0  0  0  0  0  0  0  0
  139.2500   67.6530  227.0510 F   0  0  0  0  0  0  0  0  0  0  0  0
  141.4680   67.3400  227.1880 F   0  0  0  0  0  0  0  0  0  0  0  0
  140.3440   68.1930  228.9440 F   0  0  0  0  0  0  0  0  0  0  0  0
  140.5890   69.8770  225.6880 C   0  0  0  0  0  0  0  0  0  0  0  0
  140.3454   69.0829  224.9669 H   0  0  0  0  0  0  0  0  0  0  0  0
  140.6790   71.4780  223.7870 C   0  0  0  0  0  0  0  0  0  0  0  0
  140.8980   70.6708  223.0726 H   0  0  0  0  0  0  0  0  0  0  0  0
  140.2140   75.4160  219.3540 C   0  0  0  0  0  0  0  0  0  0  0  0
  140.7834   75.2293  218.4316 H   0  0  0  0  0  0  0  0  0  0  0  0
  139.2724   74.8474  219.3664 H   0  0  0  0  0  0  0  0  0  0  0  0
  139.8630   76.9080  219.4240 C   0  0  0  0  0  0  0  0  0  0  0  0
  139.3111   77.1904  218.5154 H   0  0  0  0  0  0  0  0  0  0  0  0
  139.2474   77.0809  220.3191 H   0  0  0  0  0  0  0  0  0  0  0  0
  141.0440   77.7100  219.5220 O   0  0  0  0  0  0  0  0  0  0  0  0
  141.4090   78.5020  220.6250 C   0  0  0  0  0  0  0  0  0  0  0  0
  141.3620   78.0200  221.9490 C   0  0  0  0  0  0  0  0  0  0  0  0
  141.0583   76.9805  222.1419 H   0  0  0  0  0  0  0  0  0  0  0  0
  141.6990   78.8550  223.0180 C   0  0  0  0  0  0  0  0  0  0  0  0
  141.6505   78.4735  224.0486 H   0  0  0  0  0  0  0  0  0  0  0  0
  142.0970   80.1720  222.7810 C   0  0  0  0  0  0  0  0  0  0  0  0
  142.5020   81.2210  224.1260 Cl  0  0  0  0  0  0  0  0  0  0  0  0
  142.1740   80.6510  221.4700 C   0  0  0  0  0  0  0  0  0  0  0  0
  142.4989   81.6851  221.2824 H   0  0  0  0  0  0  0  0  0  0  0  0
  141.8390   79.8190  220.3950 C   0  0  0  0  0  0  0  0  0  0  0  0
  141.9290   80.4520  218.7580 Cl  0  0  0  0  0  0  0  0  0  0  0  0
  1  2  1  0
  2  3  1  0
  3  4  1  0
  4  5  1  0
  5  6  2  0
  6  7  1  0
  6  8  1  0
  8  9  2  0
  9 10  1  0
  9 11  1  0
 11 12  1  0
 11 13  2  0
 13 14  1  0
 13 15  1  0
 15 16  1  0
 16 17  1  0
 16 18  1  0
 16 19  1  0
 15 20  2  0
 20 21  1  0
  3 22  2  0
 22 23  1  0
 22 24  1  0
 24 25  1  0
 24 26  1  0
 24 27  1  0
 27 28  1  0
 27 29  1  0
 27 30  1  0
 30 31  1  0
 31 32  2  0
 32 33  1  0
 32 34  1  0
 34 35  1  0
 34 36  2  0
 36 37  1  0
 36 38  1  0
 38 39  1  0
 38 40  2  0
 40 41  1  0
 20  8  1  0
 40 31  1  0
M  CHG  1   4  -1
M  END
>  <UniqueID>  (67) 
20

>  <SMILES>  (67) 
O/C(=C\CCOc1ccc(Cl)cc1Cl)[N-]/N=C\c1cccc(C(F)(F)F)c1

>  <Energy>  (67) 
42.0150430469495

>  <Genealogy>  (67) 
O=C(CCCOc1ccc(Cl)cc1Cl)[N-]N=Cc1cccc(C(F)(F)F)c1 (protonated)
OC(=CCCOc1ccc(Cl)cc1Cl)[N-]N=Cc1cccc(C(F)(F)F)c1 (tautomer)
O/C(=C\CCOc1ccc(Cl)cc1Cl)[N-]/N=C\c1cccc(C(F)(F)F)c1 (cis-trans isomerization)
O/C(=C\CCOc1ccc(Cl)cc1Cl)[N-]/N=C\c1cccc(C(F)(F)F)c1 (3D coordinates assigned)
O/C(=C\CCOc1ccc(Cl)cc1Cl)[N-]/N=C\c1cccc(C(F)(F)F)c1 (optimized conformer: 42.0150430469495 kcal/mol)

>  <smiles>  (67) 
O=C(CCCOc1ccc(Cl)cc1Cl)NN=Cc1cccc(C(F)(F)F)c1

>  <score_type>  (67) 
oracle

>  <origin>  (67) 
autodockgpu

>  <m_score__min__energy>  (67) 
-7.2000000000000002

>  <m_primary>  (67) 
energy

>  <meeko>  (67) 
{"free_energy": -6.98, "intermolecular_energy": -10.26, "internal_energy": -0.99, "cluster_size": 9, "cluster_id": 1, "rank_in_cluster": 2}

>  <energy>  (67) 
-6.71

>  <cluster_rmsd>  (67) 
1.85

>  <rmsd>  (67) 
270.94

>  <cluster>  (67) 
1

$$$$
JBHRSOAXAGIKHA-MUXIEFDRNA-N
     RDKit          3D

 41 42  0  0  0  0  0  0  0  0999 V2000
  138.8500   74.5100  223.0650 H   0  0  0  0  0  0  0  0  0  0  0  0
  139.2540   75.1190  222.3640 O   0  0  0  0  0  0  0  0  0  0  0  0
  140.1990   74.6380  221.4630 C   0  0  0  0  0  0  0  0  0  0  0  0
  140.7200   73.3170  221.6490 N   0  0  0  0  0  0  0  0  0  0  0  0
  140.6870   72.6590  222.8870 N   0  0  0  0  0  0  0  0  0  0  0  0
  140.0700   71.5300  223.0720 C   0  0  0  0  0  0  0  0  0  0  0  0
  139.5606   71.0693  222.2128 H   0  0  0  0  0  0  0  0  0  0  0  0
  140.0150   70.8300  224.3750 C   0  0  0  0  0  0  0  0  0  0  0  0
  139.5690   69.5020  224.4730 C   0  0  0  0  0  0  0  0  0  0  0  0
  139.2098   68.9767  223.5758 H   0  0  0  0  0  0  0  0  0  0  0  0
  139.5800   68.8460  225.7060 C   0  0  0  0  0  0  0  0  0  0  0  0
  139.2276   67.8064  225.7774 H   0  0  0  0  0  0  0  0  0  0  0  0
  140.0370   69.5060  226.8480 C   0  0  0  0  0  0  0  0  0  0  0  0
  140.0437   68.9827  227.8155 H   0  0  0  0  0  0  0  0  0  0  0  0
  140.4880   70.8330  226.7700 C   0  0  0  0  0  0  0  0  0  0  0  0
  141.0280   71.5110  228.0060 C   0  0  0  0  0  0  0  0  0  0  0  0
  141.8250   72.5950  227.6790 F   0  0  0  0  0  0  0  0  0  0  0  0
  139.9820   71.9610  228.7910 F   0  0  0  0  0  0  0  0  0  0  0  0
  141.7790   70.6050  228.7320 F   0  0  0  0  0  0  0  0  0  0  0  0
  140.5030   71.4790  225.5200 C   0  0  0  0  0  0  0  0  0  0  0  0
  140.9006   72.5015  225.4394 H   0  0  0  0  0  0  0  0  0  0  0  0
  140.5870   75.3970  220.4290 C   0  0  0  0  0  0  0  0  0  0  0  0
  139.9122   75.4978  219.5661 H   0  0  0  0  0  0  0  0  0  0  0  0
  141.9060   76.1160  220.4000 C   0  0  0  0  0  0  0  0  0  0  0  0
  142.5561   75.6943  221.1807 H   0  0  0  0  0  0  0  0  0  0  0  0
  142.3412   75.9808  219.3988 H   0  0  0  0  0  0  0  0  0  0  0  0
  141.7530   77.6230  220.6460 C   0  0  0  0  0  0  0  0  0  0  0  0
  142.6271   78.1456  220.2303 H   0  0  0  0  0  0  0  0  0  0  0  0
  140.8294   77.9653  220.1563 H   0  0  0  0  0  0  0  0  0  0  0  0
  141.6590   77.9090  222.0450 O   0  0  0  0  0  0  0  0  0  0  0  0
  140.6480   78.6670  222.6610 C   0  0  0  0  0  0  0  0  0  0  0  0
  139.3060   78.2390  222.7080 C   0  0  0  0  0  0  0  0  0  0  0  0
  139.0272   77.2666  222.2759 H   0  0  0  0  0  0  0  0  0  0  0  0
  138.3270   79.0420  223.3000 C   0  0  0  0  0  0  0  0  0  0  0  0
  137.2804   78.7041  223.3239 H   0  0  0  0  0  0  0  0  0  0  0  0
  138.6750   80.2720  223.8610 C   0  0  0  0  0  0  0  0  0  0  0  0
  137.4420   81.2850  224.5880 Cl  0  0  0  0  0  0  0  0  0  0  0  0
  140.0090   80.6920  223.8460 C   0  0  0  0  0  0  0  0  0  0  0  0
  140.2853   81.6553  224.2995 H   0  0  0  0  0  0  0  0  0  0  0  0
  140.9940   79.8910  223.2560 C   0  0  0  0  0  0  0  0  0  0  0  0
  142.6590   80.4520  223.2360 Cl  0  0  0  0  0  0  0  0  0  0  0  0
  1  2  1  0
  2  3  1  0
  3  4  1  0
  4  5  1  0
  5  6  2  0
  6  7  1  0
  6  8  1  0
  8  9  2  0
  9 10  1  0
  9 11  1  0
 11 12  1  0
 11 13  2  0
 13 14  1  0
 13 15  1  0
 15 16  1  0
 16 17  1  0
 16 18  1  0
 16 19  1  0
 15 20  2  0
 20 21  1  0
  3 22  2  0
 22 23  1  0
 22 24  1  0
 24 25  1  0
 24 26  1  0
 24 27  1  0
 27 28  1  0
 27 29  1  0
 27 30  1  0
 30 31  1  0
 31 32  2  0
 32 33  1  0
 32 34  1  0
 34 35  1  0
 34 36  2  0
 36 37  1  0
 36 38  1  0
 38 39  1  0
 38 40  2  0
 40 41  1  0
 20  8  1  0
 40 31  1  0
M  CHG  1   4  -1
M  END
>  <UniqueID>  (68) 
20

>  <SMILES>  (68) 
O/C(=C\CCOc1ccc(Cl)cc1Cl)[N-]/N=C\c1cccc(C(F)(F)F)c1

>  <Energy>  (68) 
42.0150430469495

>  <Genealogy>  (68) 
O=C(CCCOc1ccc(Cl)cc1Cl)[N-]N=Cc1cccc(C(F)(F)F)c1 (protonated)
OC(=CCCOc1ccc(Cl)cc1Cl)[N-]N=Cc1cccc(C(F)(F)F)c1 (tautomer)
O/C(=C\CCOc1ccc(Cl)cc1Cl)[N-]/N=C\c1cccc(C(F)(F)F)c1 (cis-trans isomerization)
O/C(=C\CCOc1ccc(Cl)cc1Cl)[N-]/N=C\c1cccc(C(F)(F)F)c1 (3D coordinates assigned)
O/C(=C\CCOc1ccc(Cl)cc1Cl)[N-]/N=C\c1cccc(C(F)(F)F)c1 (optimized conformer: 42.0150430469495 kcal/mol)

>  <smiles>  (68) 
O=C(CCCOc1ccc(Cl)cc1Cl)NN=Cc1cccc(C(F)(F)F)c1

>  <score_type>  (68) 
oracle

>  <origin>  (68) 
autodockgpu

>  <m_score__min__energy>  (68) 
-7.2000000000000002

>  <m_primary>  (68) 
energy

>  <meeko>  (68) 
{"free_energy": -6.89, "intermolecular_energy": -10.18, "internal_energy": -0.87, "cluster_size": 9, "cluster_id": 1, "rank_in_cluster": 4}

>  <energy>  (68) 
-6.51

>  <cluster_rmsd>  (68) 
0.95

>  <rmsd>  (68) 
271.02

>  <cluster>  (68) 
1

$$$$
JBHRSOAXAGIKHA-MUXIEFDRNA-N
     RDKit          3D

 41 42  0  0  0  0  0  0  0  0999 V2000
  142.0010   76.4400  222.0140 H   0  0  0  0  0  0  0  0  0  0  0  0
  141.4490   75.6590  222.3480 O   0  0  0  0  0  0  0  0  0  0  0  0
  140.6730   75.1970  220.1600 C   0  0  0  0  0  0  0  0  0  0  0  0
  139.9650   73.7690  221.9760 N   0  0  0  0  0  0  0  0  0  0  0  0
  140.5600   72.7500  222.7350 N   0  0  0  0  0  0  0  0  0  0  0  0
  140.7060   74.8830  221.4630 C   0  0  0  0  0  0  0  0  0  0  0  0
  140.8966   74.4124  219.4222 H   0  0  0  0  0  0  0  0  0  0  0  0
  139.9680   70.8820  224.2060 C   0  0  0  0  0  0  0  0  0  0  0  0
  139.5370   69.5480  224.3030 C   0  0  0  0  0  0  0  0  0  0  0  0
  139.1826   69.0198  223.4055 H   0  0  0  0  0  0  0  0  0  0  0  0
  139.5570   68.8910  225.5340 C   0  0  0  0  0  0  0  0  0  0  0  0
  139.2157   67.8477  225.6043 H   0  0  0  0  0  0  0  0  0  0  0  0
  140.0090   69.5540  226.6770 C   0  0  0  0  0  0  0  0  0  0  0  0
  140.0227   69.0293  227.6437 H   0  0  0  0  0  0  0  0  0  0  0  0
  140.4460   70.8860  226.6000 C   0  0  0  0  0  0  0  0  0  0  0  0
  140.9800   71.5670  227.8360 C   0  0  0  0  0  0  0  0  0  0  0  0
  141.8350   72.6070  227.5090 F   0  0  0  0  0  0  0  0  0  0  0  0
  139.9340   72.0820  228.5800 F   0  0  0  0  0  0  0  0  0  0  0  0
  141.6690   70.6460  228.6040 F   0  0  0  0  0  0  0  0  0  0  0  0
  140.4510   71.5330  225.3510 C   0  0  0  0  0  0  0  0  0  0  0  0
  140.8375   72.5598  225.2713 H   0  0  0  0  0  0  0  0  0  0  0  0
  140.0140   71.5840  222.9040 C   0  0  0  0  0  0  0  0  0  0  0  0
  139.5608   71.0909  222.0314 H   0  0  0  0  0  0  0  0  0  0  0  0
  140.3430   76.5770  219.6670 C   0  0  0  0  0  0  0  0  0  0  0  0
  140.1113   76.5231  218.5930 H   0  0  0  0  0  0  0  0  0  0  0  0
  139.4825   76.9444  220.2454 H   0  0  0  0  0  0  0  0  0  0  0  0
  141.5020   77.5610  219.8730 C   0  0  0  0  0  0  0  0  0  0  0  0
  142.4277   77.1124  219.4835 H   0  0  0  0  0  0  0  0  0  0  0  0
  141.2687   78.4928  219.3370 H   0  0  0  0  0  0  0  0  0  0  0  0
  141.6780   77.8660  221.2590 O   0  0  0  0  0  0  0  0  0  0  0  0
  140.7510   78.5350  222.0770 C   0  0  0  0  0  0  0  0  0  0  0  0
  139.3940   78.1570  222.1450 C   0  0  0  0  0  0  0  0  0  0  0  0
  139.0377   77.2925  221.5656 H   0  0  0  0  0  0  0  0  0  0  0  0
  138.4990   78.8740  222.9440 C   0  0  0  0  0  0  0  0  0  0  0  0
  137.4405   78.5776  222.9845 H   0  0  0  0  0  0  0  0  0  0  0  0
  138.9460   79.9660  223.6910 C   0  0  0  0  0  0  0  0  0  0  0  0
  137.8170   80.8730  224.6780 Cl  0  0  0  0  0  0  0  0  0  0  0  0
  140.2950   80.3310  223.6520 C   0  0  0  0  0  0  0  0  0  0  0  0
  140.6491   81.1842  224.2492 H   0  0  0  0  0  0  0  0  0  0  0  0
  141.1970   79.6150  222.8560 C   0  0  0  0  0  0  0  0  0  0  0  0
  142.8830   80.1060  222.8140 Cl  0  0  0  0  0  0  0  0  0  0  0  0
  1  2  1  0
  2  3  1  0
  3  4  1  0
  4  5  1  0
  5  6  2  0
  6  7  1  0
  6  8  1  0
  8  9  2  0
  9 10  1  0
  9 11  1  0
 11 12  1  0
 11 13  2  0
 13 14  1  0
 13 15  1  0
 15 16  1  0
 16 17  1  0
 16 18  1  0
 16 19  1  0
 15 20  2  0
 20 21  1  0
  3 22  2  0
 22 23  1  0
 22 24  1  0
 24 25  1  0
 24 26  1  0
 24 27  1  0
 27 28  1  0
 27 29  1  0
 27 30  1  0
 30 31  1  0
 31 32  2  0
 32 33  1  0
 32 34  1  0
 34 35  1  0
 34 36  2  0
 36 37  1  0
 36 38  1  0
 38 39  1  0
 38 40  2  0
 40 41  1  0
 20  8  1  0
 40 31  1  0
M  CHG  1   4  -1
M  END
>  <UniqueID>  (69) 
20

>  <SMILES>  (69) 
O/C(=C\CCOc1ccc(Cl)cc1Cl)[N-]/N=C\c1cccc(C(F)(F)F)c1

>  <Energy>  (69) 
42.0150430469495

>  <Genealogy>  (69) 
O=C(CCCOc1ccc(Cl)cc1Cl)[N-]N=Cc1cccc(C(F)(F)F)c1 (protonated)
OC(=CCCOc1ccc(Cl)cc1Cl)[N-]N=Cc1cccc(C(F)(F)F)c1 (tautomer)
O/C(=C\CCOc1ccc(Cl)cc1Cl)[N-]/N=C\c1cccc(C(F)(F)F)c1 (cis-trans isomerization)
O/C(=C\CCOc1ccc(Cl)cc1Cl)[N-]/N=C\c1cccc(C(F)(F)F)c1 (3D coordinates assigned)
O/C(=C\CCOc1ccc(Cl)cc1Cl)[N-]/N=C\c1cccc(C(F)(F)F)c1 (optimized conformer: 42.0150430469495 kcal/mol)

>  <smiles>  (69) 
O=C(CCCOc1ccc(Cl)cc1Cl)NN=Cc1cccc(C(F)(F)F)c1

>  <score_type>  (69) 
oracle

>  <origin>  (69) 
autodockgpu

>  <m_score__min__energy>  (69) 
-7.2000000000000002

>  <m_primary>  (69) 
energy

>  <meeko>  (69) 
{"free_energy": -6.71, "intermolecular_energy": -9.99, "internal_energy": -1.26, "cluster_size": 9, "cluster_id": 1, "rank_in_cluster": 7}

>  <energy>  (69) 
-6.07

>  <cluster_rmsd>  (69) 
0.99

>  <rmsd>  (69) 
270.84

>  <cluster>  (69) 
1

$$$$
JBHRSOAXAGIKHA-MUXIEFDRNA-N
     RDKit          3D

 41 42  0  0  0  0  0  0  0  0999 V2000
  138.7820   75.0610  223.1380 H   0  0  0  0  0  0  0  0  0  0  0  0
  139.1640   75.5660  222.3470 O   0  0  0  0  0  0  0  0  0  0  0  0
  140.1610   75.0030  221.5570 C   0  0  0  0  0  0  0  0  0  0  0  0
  140.6920   73.7240  221.9240 N   0  0  0  0  0  0  0  0  0  0  0  0
  140.2470   73.0160  223.0500 N   0  0  0  0  0  0  0  0  0  0  0  0
  140.1920   71.7180  223.0920 C   0  0  0  0  0  0  0  0  0  0  0  0
  140.1711   71.1676  222.1398 H   0  0  0  0  0  0  0  0  0  0  0  0
  140.1560   70.9400  224.3500 C   0  0  0  0  0  0  0  0  0  0  0  0
  139.7950   69.5830  224.3610 C   0  0  0  0  0  0  0  0  0  0  0  0
  139.4889   69.0901  223.4265 H   0  0  0  0  0  0  0  0  0  0  0  0
  139.8230   68.8570  225.5530 C   0  0  0  0  0  0  0  0  0  0  0  0
  139.5371   67.7948  225.5554 H   0  0  0  0  0  0  0  0  0  0  0  0
  140.2130   69.4760  226.7420 C   0  0  0  0  0  0  0  0  0  0  0  0
  140.2338   68.8974  227.6773 H   0  0  0  0  0  0  0  0  0  0  0  0
  140.5790   70.8320  226.7530 C   0  0  0  0  0  0  0  0  0  0  0  0
  141.0480   71.4680  228.0380 C   0  0  0  0  0  0  0  0  0  0  0  0
  139.9780   71.8690  228.8210 F   0  0  0  0  0  0  0  0  0  0  0  0
  141.8030   70.5640  228.7630 F   0  0  0  0  0  0  0  0  0  0  0  0
  141.8260   72.5720  227.7430 F   0  0  0  0  0  0  0  0  0  0  0  0
  140.5770   71.5490  225.5430 C   0  0  0  0  0  0  0  0  0  0  0  0
  140.9087   72.5977  225.5312 H   0  0  0  0  0  0  0  0  0  0  0  0
  140.5910   75.6440  220.4610 C   0  0  0  0  0  0  0  0  0  0  0  0
  140.0601   75.4800  219.5117 H   0  0  0  0  0  0  0  0  0  0  0  0
  141.7680   76.5770  220.4760 C   0  0  0  0  0  0  0  0  0  0  0  0
  141.4610   77.5409  220.0440 H   0  0  0  0  0  0  0  0  0  0  0  0
  142.0943   76.6910  221.5203 H   0  0  0  0  0  0  0  0  0  0  0  0
  142.9540   76.0300  219.6700 C   0  0  0  0  0  0  0  0  0  0  0  0
  142.5797   75.5878  218.7349 H   0  0  0  0  0  0  0  0  0  0  0  0
  143.6437   76.8597  219.4557 H   0  0  0  0  0  0  0  0  0  0  0  0
  143.6610   75.0300  220.4100 O   0  0  0  0  0  0  0  0  0  0  0  0
  143.6800   73.6540  220.1200 C   0  0  0  0  0  0  0  0  0  0  0  0
  142.5420   72.9660  219.6520 C   0  0  0  0  0  0  0  0  0  0  0  0
  141.6053   73.5150  219.4754 H   0  0  0  0  0  0  0  0  0  0  0  0
  142.5970   71.5900  219.4110 C   0  0  0  0  0  0  0  0  0  0  0  0
  141.7018   71.0590  219.0552 H   0  0  0  0  0  0  0  0  0  0  0  0
  143.7860   70.8880  219.6210 C   0  0  0  0  0  0  0  0  0  0  0  0
  143.8450   69.1600  219.3330 Cl  0  0  0  0  0  0  0  0  0  0  0  0
  144.9270   71.5670  220.0560 C   0  0  0  0  0  0  0  0  0  0  0  0
  145.8669   71.0165  220.2091 H   0  0  0  0  0  0  0  0  0  0  0  0
  144.8790   72.9460  220.2980 C   0  0  0  0  0  0  0  0  0  0  0  0
  146.3250   73.7700  220.8610 Cl  0  0  0  0  0  0  0  0  0  0  0  0
  1  2  1  0
  2  3  1  0
  3  4  1  0
  4  5  1  0
  5  6  2  0
  6  7  1  0
  6  8  1  0
  8  9  2  0
  9 10  1  0
  9 11  1  0
 11 12  1  0
 11 13  2  0
 13 14  1  0
 13 15  1  0
 15 16  1  0
 16 17  1  0
 16 18  1  0
 16 19  1  0
 15 20  2  0
 20 21  1  0
  3 22  2  0
 22 23  1  0
 22 24  1  0
 24 25  1  0
 24 26  1  0
 24 27  1  0
 27 28  1  0
 27 29  1  0
 27 30  1  0
 30 31  1  0
 31 32  2  0
 32 33  1  0
 32 34  1  0
 34 35  1  0
 34 36  2  0
 36 37  1  0
 36 38  1  0
 38 39  1  0
 38 40  2  0
 40 41  1  0
 20  8  1  0
 40 31  1  0
M  CHG  1   4  -1
M  END
>  <UniqueID>  (70) 
20

>  <SMILES>  (70) 
O/C(=C\CCOc1ccc(Cl)cc1Cl)[N-]/N=C\c1cccc(C(F)(F)F)c1

>  <Energy>  (70) 
42.0150430469495

>  <Genealogy>  (70) 
O=C(CCCOc1ccc(Cl)cc1Cl)[N-]N=Cc1cccc(C(F)(F)F)c1 (protonated)
OC(=CCCOc1ccc(Cl)cc1Cl)[N-]N=Cc1cccc(C(F)(F)F)c1 (tautomer)
O/C(=C\CCOc1ccc(Cl)cc1Cl)[N-]/N=C\c1cccc(C(F)(F)F)c1 (cis-trans isomerization)
O/C(=C\CCOc1ccc(Cl)cc1Cl)[N-]/N=C\c1cccc(C(F)(F)F)c1 (3D coordinates assigned)
O/C(=C\CCOc1ccc(Cl)cc1Cl)[N-]/N=C\c1cccc(C(F)(F)F)c1 (optimized conformer: 42.0150430469495 kcal/mol)

>  <smiles>  (70) 
O=C(CCCOc1ccc(Cl)cc1Cl)NN=Cc1cccc(C(F)(F)F)c1

>  <score_type>  (70) 
oracle

>  <origin>  (70) 
autodockgpu

>  <m_score__min__energy>  (70) 
-7.2000000000000002

>  <m_primary>  (70) 
energy

>  <meeko>  (70) 
{"free_energy": -6.22, "intermolecular_energy": -9.5, "internal_energy": -1.2, "cluster_size": 1, "cluster_id": 3, "rank_in_cluster": 1}

>  <energy>  (70) 
-6.87

>  <cluster_rmsd>  (70) 
0.0

>  <rmsd>  (70) 
270.89

>  <cluster>  (70) 
2

$$$$
JBHRSOAXAGIKHA-MUXIEFDRNA-N
     RDKit          3D

 41 42  0  0  0  0  0  0  0  0999 V2000
  139.0100   74.0820  222.9730 H   0  0  0  0  0  0  0  0  0  0  0  0
  139.7620   74.3460  222.3480 O   0  0  0  0  0  0  0  0  0  0  0  0
  140.5040   73.3780  221.6780 C   0  0  0  0  0  0  0  0  0  0  0  0
  140.3270   72.0020  222.0360 N   0  0  0  0  0  0  0  0  0  0  0  0
  139.2110   71.5460  222.7540 N   0  0  0  0  0  0  0  0  0  0  0  0
  139.2740   70.5740  223.6150 C   0  0  0  0  0  0  0  0  0  0  0  0
  138.8117   69.6123  223.3478 H   0  0  0  0  0  0  0  0  0  0  0  0
  139.9330   70.6900  224.9340 C   0  0  0  0  0  0  0  0  0  0  0  0
  140.7080   71.8130  225.2680 C   0  0  0  0  0  0  0  0  0  0  0  0
  140.8697   72.6079  224.5250 H   0  0  0  0  0  0  0  0  0  0  0  0
  141.2740   71.9240  226.5400 C   0  0  0  0  0  0  0  0  0  0  0  0
  141.8820   72.8045  226.7950 H   0  0  0  0  0  0  0  0  0  0  0  0
  141.0700   70.9200  227.4890 C   0  0  0  0  0  0  0  0  0  0  0  0
  141.5184   71.0146  228.4890 H   0  0  0  0  0  0  0  0  0  0  0  0
  140.2970   69.7910  227.1760 C   0  0  0  0  0  0  0  0  0  0  0  0
  140.0450   68.7430  228.2320 C   0  0  0  0  0  0  0  0  0  0  0  0
  141.2240   68.3430  228.8370 F   0  0  0  0  0  0  0  0  0  0  0  0
  139.2050   69.2500  229.2070 F   0  0  0  0  0  0  0  0  0  0  0  0
  139.4450   67.6420  227.6490 F   0  0  0  0  0  0  0  0  0  0  0  0
  139.7050   69.6990  225.9020 C   0  0  0  0  0  0  0  0  0  0  0  0
  139.0576   68.8425  225.6627 H   0  0  0  0  0  0  0  0  0  0  0  0
  141.3470   73.7360  220.7000 C   0  0  0  0  0  0  0  0  0  0  0  0
  141.4101   73.1061  219.8004 H   0  0  0  0  0  0  0  0  0  0  0  0
  142.2100   74.9640  220.7830 C   0  0  0  0  0  0  0  0  0  0  0  0
  142.1691   75.3568  221.8097 H   0  0  0  0  0  0  0  0  0  0  0  0
  143.2344   74.6757  220.5046 H   0  0  0  0  0  0  0  0  0  0  0  0
  141.7510   76.0630  219.8150 C   0  0  0  0  0  0  0  0  0  0  0  0
  142.6336   76.5975  219.4337 H   0  0  0  0  0  0  0  0  0  0  0  0
  141.1974   75.5923  218.9892 H   0  0  0  0  0  0  0  0  0  0  0  0
  140.8860   76.9960  220.4680 O   0  0  0  0  0  0  0  0  0  0  0  0
  141.2870   77.9910  221.3770 C   0  0  0  0  0  0  0  0  0  0  0  0
  141.2400   77.8010  222.7730 C   0  0  0  0  0  0  0  0  0  0  0  0
  140.9057   76.8364  223.1827 H   0  0  0  0  0  0  0  0  0  0  0  0
  141.6160   78.8320  223.6400 C   0  0  0  0  0  0  0  0  0  0  0  0
  141.5681   78.6790  224.7282 H   0  0  0  0  0  0  0  0  0  0  0  0
  142.0520   80.0550  223.1270 C   0  0  0  0  0  0  0  0  0  0  0  0
  142.5060   81.3510  224.2180 Cl  0  0  0  0  0  0  0  0  0  0  0  0
  142.1290   80.2430  221.7440 C   0  0  0  0  0  0  0  0  0  0  0  0
  142.4832   81.2030  221.3403 H   0  0  0  0  0  0  0  0  0  0  0  0
  141.7570   79.2140  220.8710 C   0  0  0  0  0  0  0  0  0  0  0  0
  141.8480   79.4830  219.1370 Cl  0  0  0  0  0  0  0  0  0  0  0  0
  1  2  1  0
  2  3  1  0
  3  4  1  0
  4  5  1  0
  5  6  2  0
  6  7  1  0
  6  8  1  0
  8  9  2  0
  9 10  1  0
  9 11  1  0
 11 12  1  0
 11 13  2  0
 13 14  1  0
 13 15  1  0
 15 16  1  0
 16 17  1  0
 16 18  1  0
 16 19  1  0
 15 20  2  0
 20 21  1  0
  3 22  2  0
 22 23  1  0
 22 24  1  0
 24 25  1  0
 24 26  1  0
 24 27  1  0
 27 28  1  0
 27 29  1  0
 27 30  1  0
 30 31  1  0
 31 32  2  0
 32 33  1  0
 32 34  1  0
 34 35  1  0
 34 36  2  0
 36 37  1  0
 36 38  1  0
 38 39  1  0
 38 40  2  0
 40 41  1  0
 20  8  1  0
 40 31  1  0
M  CHG  1   4  -1
M  END
>  <UniqueID>  (71) 
20

>  <SMILES>  (71) 
O/C(=C\CCOc1ccc(Cl)cc1Cl)[N-]/N=C\c1cccc(C(F)(F)F)c1

>  <Energy>  (71) 
42.0150430469495

>  <Genealogy>  (71) 
O=C(CCCOc1ccc(Cl)cc1Cl)[N-]N=Cc1cccc(C(F)(F)F)c1 (protonated)
OC(=CCCOc1ccc(Cl)cc1Cl)[N-]N=Cc1cccc(C(F)(F)F)c1 (tautomer)
O/C(=C\CCOc1ccc(Cl)cc1Cl)[N-]/N=C\c1cccc(C(F)(F)F)c1 (cis-trans isomerization)
O/C(=C\CCOc1ccc(Cl)cc1Cl)[N-]/N=C\c1cccc(C(F)(F)F)c1 (3D coordinates assigned)
O/C(=C\CCOc1ccc(Cl)cc1Cl)[N-]/N=C\c1cccc(C(F)(F)F)c1 (optimized conformer: 42.0150430469495 kcal/mol)

>  <smiles>  (71) 
O=C(CCCOc1ccc(Cl)cc1Cl)NN=Cc1cccc(C(F)(F)F)c1

>  <score_type>  (71) 
oracle

>  <origin>  (71) 
autodockgpu

>  <m_score__min__energy>  (71) 
-7.2000000000000002

>  <m_primary>  (71) 
energy

>  <meeko>  (71) 
{"free_energy": -6.92, "intermolecular_energy": -10.2, "internal_energy": -0.97, "cluster_size": 9, "cluster_id": 1, "rank_in_cluster": 3}

>  <energy>  (71) 
-6.78

>  <cluster_rmsd>  (71) 
1.77

>  <rmsd>  (71) 
271.08

>  <cluster>  (71) 
2

$$$$
JBHRSOAXAGIKHA-MUXIEFDRNA-N
     RDKit          3D

 41 42  0  0  0  0  0  0  0  0999 V2000
  138.9330   74.6720  223.0540 H   0  0  0  0  0  0  0  0  0  0  0  0
  139.4920   75.1300  222.3440 O   0  0  0  0  0  0  0  0  0  0  0  0
  141.3450   75.1250  220.8720 C   0  0  0  0  0  0  0  0  0  0  0  0
  140.9240   73.1690  222.2260 N   0  0  0  0  0  0  0  0  0  0  0  0
  140.3060   72.5620  223.3290 N   0  0  0  0  0  0  0  0  0  0  0  0
  140.6060   74.4990  221.7990 C   0  0  0  0  0  0  0  0  0  0  0  0
  142.3706   74.7723  220.6881 H   0  0  0  0  0  0  0  0  0  0  0  0
  140.8190   71.1090  225.2350 C   0  0  0  0  0  0  0  0  0  0  0  0
  141.0440   72.1320  226.1700 C   0  0  0  0  0  0  0  0  0  0  0  0
  141.1546   73.1717  225.8283 H   0  0  0  0  0  0  0  0  0  0  0  0
  141.1280   71.8350  227.5320 C   0  0  0  0  0  0  0  0  0  0  0  0
  141.3072   72.6404  228.2595 H   0  0  0  0  0  0  0  0  0  0  0  0
  140.9850   70.5180  227.9720 C   0  0  0  0  0  0  0  0  0  0  0  0
  141.0514   70.2914  229.0464 H   0  0  0  0  0  0  0  0  0  0  0  0
  140.7570   69.4800  227.0540 C   0  0  0  0  0  0  0  0  0  0  0  0
  140.5530   68.0720  227.5550 C   0  0  0  0  0  0  0  0  0  0  0  0
  139.2060   67.7630  227.6550 F   0  0  0  0  0  0  0  0  0  0  0  0
  141.1420   67.1720  226.6850 F   0  0  0  0  0  0  0  0  0  0  0  0
  141.1370   67.9420  228.8020 F   0  0  0  0  0  0  0  0  0  0  0  0
  140.6450   69.7910  225.6860 C   0  0  0  0  0  0  0  0  0  0  0  0
  140.4189   68.9934  224.9630 H   0  0  0  0  0  0  0  0  0  0  0  0
  140.6680   71.4030  223.7930 C   0  0  0  0  0  0  0  0  0  0  0  0
  140.8734   70.5964  223.0739 H   0  0  0  0  0  0  0  0  0  0  0  0
  140.8290   76.2890  220.0740 C   0  0  0  0  0  0  0  0  0  0  0  0
  140.7993   76.0046  219.0118 H   0  0  0  0  0  0  0  0  0  0  0  0
  139.8259   76.5378  220.4508 H   0  0  0  0  0  0  0  0  0  0  0  0
  141.7110   77.5350  220.2270 C   0  0  0  0  0  0  0  0  0  0  0  0
  142.7149   77.3150  219.8350 H   0  0  0  0  0  0  0  0  0  0  0  0
  141.2496   78.3610  219.6659 H   0  0  0  0  0  0  0  0  0  0  0  0
  141.8200   77.9230  221.6000 O   0  0  0  0  0  0  0  0  0  0  0  0
  140.8390   78.6060  222.3400 C   0  0  0  0  0  0  0  0  0  0  0  0
  139.4900   78.1960  222.3640 C   0  0  0  0  0  0  0  0  0  0  0  0
  139.1820   77.2955  221.8125 H   0  0  0  0  0  0  0  0  0  0  0  0
  138.5420   78.9280  223.0850 C   0  0  0  0  0  0  0  0  0  0  0  0
  137.4898   78.6073  223.0906 H   0  0  0  0  0  0  0  0  0  0  0  0
  138.9270   80.0650  223.7980 C   0  0  0  0  0  0  0  0  0  0  0  0
  137.7310   80.9890  224.6860 Cl  0  0  0  0  0  0  0  0  0  0  0  0
  140.2670   80.4630  223.8030 C   0  0  0  0  0  0  0  0  0  0  0  0
  140.5723   81.3529  224.3730 H   0  0  0  0  0  0  0  0  0  0  0  0
  141.2220   79.7330  223.0850 C   0  0  0  0  0  0  0  0  0  0  0  0
  142.8960   80.2660  223.0960 Cl  0  0  0  0  0  0  0  0  0  0  0  0
  1  2  1  0
  2  3  1  0
  3  4  1  0
  4  5  1  0
  5  6  2  0
  6  7  1  0
  6  8  1  0
  8  9  2  0
  9 10  1  0
  9 11  1  0
 11 12  1  0
 11 13  2  0
 13 14  1  0
 13 15  1  0
 15 16  1  0
 16 17  1  0
 16 18  1  0
 16 19  1  0
 15 20  2  0
 20 21  1  0
  3 22  2  0
 22 23  1  0
 22 24  1  0
 24 25  1  0
 24 26  1  0
 24 27  1  0
 27 28  1  0
 27 29  1  0
 27 30  1  0
 30 31  1  0
 31 32  2  0
 32 33  1  0
 32 34  1  0
 34 35  1  0
 34 36  2  0
 36 37  1  0
 36 38  1  0
 38 39  1  0
 38 40  2  0
 40 41  1  0
 20  8  1  0
 40 31  1  0
M  CHG  1   4  -1
M  END
>  <UniqueID>  (72) 
20

>  <SMILES>  (72) 
O/C(=C\CCOc1ccc(Cl)cc1Cl)[N-]/N=C\c1cccc(C(F)(F)F)c1

>  <Energy>  (72) 
42.0150430469495

>  <Genealogy>  (72) 
O=C(CCCOc1ccc(Cl)cc1Cl)[N-]N=Cc1cccc(C(F)(F)F)c1 (protonated)
OC(=CCCOc1ccc(Cl)cc1Cl)[N-]N=Cc1cccc(C(F)(F)F)c1 (tautomer)
O/C(=C\CCOc1ccc(Cl)cc1Cl)[N-]/N=C\c1cccc(C(F)(F)F)c1 (cis-trans isomerization)
O/C(=C\CCOc1ccc(Cl)cc1Cl)[N-]/N=C\c1cccc(C(F)(F)F)c1 (3D coordinates assigned)
O/C(=C\CCOc1ccc(Cl)cc1Cl)[N-]/N=C\c1cccc(C(F)(F)F)c1 (optimized conformer: 42.0150430469495 kcal/mol)

>  <smiles>  (72) 
O=C(CCCOc1ccc(Cl)cc1Cl)NN=Cc1cccc(C(F)(F)F)c1

>  <score_type>  (72) 
oracle

>  <origin>  (72) 
autodockgpu

>  <m_score__min__energy>  (72) 
-7.2000000000000002

>  <m_primary>  (72) 
energy

>  <meeko>  (72) 
{"free_energy": -7.2, "intermolecular_energy": -10.48, "internal_energy": -0.92, "cluster_size": 9, "cluster_id": 1, "rank_in_cluster": 1}

>  <energy>  (72) 
-6.6

>  <cluster_rmsd>  (72) 
1.42

>  <rmsd>  (72) 
270.85

>  <cluster>  (72) 
2

$$$$
JBHRSOAXAGIKHA-MUXIEFDRNA-N
     RDKit          3D

 41 42  0  0  0  0  0  0  0  0999 V2000
  138.8180   75.0740  223.4060 H   0  0  0  0  0  0  0  0  0  0  0  0
  139.5270   75.2930  222.7170 O   0  0  0  0  0  0  0  0  0  0  0  0
  139.0410   74.9790  220.4230 C   0  0  0  0  0  0  0  0  0  0  0  0
  140.3610   73.3160  221.5740 N   0  0  0  0  0  0  0  0  0  0  0  0
  140.6450   72.6330  222.7660 N   0  0  0  0  0  0  0  0  0  0  0  0
  139.6340   74.5500  221.5450 C   0  0  0  0  0  0  0  0  0  0  0  0
  139.4827   74.7029  219.4541 H   0  0  0  0  0  0  0  0  0  0  0  0
  140.1120   70.8310  224.3390 C   0  0  0  0  0  0  0  0  0  0  0  0
  139.5690   69.5490  224.5280 C   0  0  0  0  0  0  0  0  0  0  0  0
  139.2113   68.9721  223.6625 H   0  0  0  0  0  0  0  0  0  0  0  0
  139.4820   69.0050  225.8110 C   0  0  0  0  0  0  0  0  0  0  0  0
  139.0535   68.0019  225.9535 H   0  0  0  0  0  0  0  0  0  0  0  0
  139.9370   69.7300  226.9130 C   0  0  0  0  0  0  0  0  0  0  0  0
  139.8658   69.2939  227.9203 H   0  0  0  0  0  0  0  0  0  0  0  0
  140.4850   71.0120  226.7460 C   0  0  0  0  0  0  0  0  0  0  0  0
  141.0200   71.7570  227.9440 C   0  0  0  0  0  0  0  0  0  0  0  0
  141.8040   72.8320  227.5600 F   0  0  0  0  0  0  0  0  0  0  0  0
  139.9710   72.2340  228.7080 F   0  0  0  0  0  0  0  0  0  0  0  0
  141.7840   70.8970  228.7120 F   0  0  0  0  0  0  0  0  0  0  0  0
  140.5970   71.5430  225.4480 C   0  0  0  0  0  0  0  0  0  0  0  0
  141.0691   72.5255  225.3004 H   0  0  0  0  0  0  0  0  0  0  0  0
  140.2700   71.4080  222.9860 C   0  0  0  0  0  0  0  0  0  0  0  0
  140.0586   70.7653  222.1187 H   0  0  0  0  0  0  0  0  0  0  0  0
  137.7970   75.8220  220.4340 C   0  0  0  0  0  0  0  0  0  0  0  0
  138.0218   76.7784  220.9288 H   0  0  0  0  0  0  0  0  0  0  0  0
  137.4837   75.9742  219.3906 H   0  0  0  0  0  0  0  0  0  0  0  0
  136.6400   75.1410  221.1780 C   0  0  0  0  0  0  0  0  0  0  0  0
  135.6988   75.6484  220.9199 H   0  0  0  0  0  0  0  0  0  0  0  0
  136.6047   74.0838  220.8762 H   0  0  0  0  0  0  0  0  0  0  0  0
  136.8310   75.2030  222.5940 O   0  0  0  0  0  0  0  0  0  0  0  0
  135.9450   74.7030  223.5650 C   0  0  0  0  0  0  0  0  0  0  0  0
  135.1650   75.5480  224.3810 C   0  0  0  0  0  0  0  0  0  0  0  0
  135.2185   76.6386  224.2481 H   0  0  0  0  0  0  0  0  0  0  0  0
  134.3240   75.0070  225.3580 C   0  0  0  0  0  0  0  0  0  0  0  0
  133.7254   75.6731  225.9967 H   0  0  0  0  0  0  0  0  0  0  0  0
  134.2420   73.6230  225.5250 C   0  0  0  0  0  0  0  0  0  0  0  0
  133.1990   72.9510  226.7630 Cl  0  0  0  0  0  0  0  0  0  0  0  0
  134.9900   72.7770  224.7020 C   0  0  0  0  0  0  0  0  0  0  0  0
  134.9169   71.6865  224.8263 H   0  0  0  0  0  0  0  0  0  0  0  0
  135.8320   73.3120  223.7200 C   0  0  0  0  0  0  0  0  0  0  0  0
  136.7740   72.2250  222.7100 Cl  0  0  0  0  0  0  0  0  0  0  0  0
  1  2  1  0
  2  3  1  0
  3  4  1  0
  4  5  1  0
  5  6  2  0
  6  7  1  0
  6  8  1  0
  8  9  2  0
  9 10  1  0
  9 11  1  0
 11 12  1  0
 11 13  2  0
 13 14  1  0
 13 15  1  0
 15 16  1  0
 16 17  1  0
 16 18  1  0
 16 19  1  0
 15 20  2  0
 20 21  1  0
  3 22  2  0
 22 23  1  0
 22 24  1  0
 24 25  1  0
 24 26  1  0
 24 27  1  0
 27 28  1  0
 27 29  1  0
 27 30  1  0
 30 31  1  0
 31 32  2  0
 32 33  1  0
 32 34  1  0
 34 35  1  0
 34 36  2  0
 36 37  1  0
 36 38  1  0
 38 39  1  0
 38 40  2  0
 40 41  1  0
 20  8  1  0
 40 31  1  0
M  CHG  1   4  -1
M  END
>  <UniqueID>  (73) 
20

>  <SMILES>  (73) 
O/C(=C\CCOc1ccc(Cl)cc1Cl)[N-]/N=C\c1cccc(C(F)(F)F)c1

>  <Energy>  (73) 
42.0150430469495

>  <Genealogy>  (73) 
O=C(CCCOc1ccc(Cl)cc1Cl)[N-]N=Cc1cccc(C(F)(F)F)c1 (protonated)
OC(=CCCOc1ccc(Cl)cc1Cl)[N-]N=Cc1cccc(C(F)(F)F)c1 (tautomer)
O/C(=C\CCOc1ccc(Cl)cc1Cl)[N-]/N=C\c1cccc(C(F)(F)F)c1 (cis-trans isomerization)
O/C(=C\CCOc1ccc(Cl)cc1Cl)[N-]/N=C\c1cccc(C(F)(F)F)c1 (3D coordinates assigned)
O/C(=C\CCOc1ccc(Cl)cc1Cl)[N-]/N=C\c1cccc(C(F)(F)F)c1 (optimized conformer: 42.0150430469495 kcal/mol)

>  <smiles>  (73) 
O=C(CCCOc1ccc(Cl)cc1Cl)NN=Cc1cccc(C(F)(F)F)c1

>  <score_type>  (73) 
oracle

>  <origin>  (73) 
autodockgpu

>  <m_score__min__energy>  (73) 
-7.2000000000000002

>  <m_primary>  (73) 
energy

>  <meeko>  (73) 
{"free_energy": -5.26, "intermolecular_energy": -8.54, "internal_energy": -1.69, "cluster_size": 1, "cluster_id": 5, "rank_in_cluster": 1}

>  <energy>  (73) 
-6.42

>  <cluster_rmsd>  (73) 
0.99

>  <rmsd>  (73) 
270.93

>  <cluster>  (73) 
2

$$$$
JBHRSOAXAGIKHA-MUXIEFDRNA-N
     RDKit          3D

 41 42  0  0  0  0  0  0  0  0999 V2000
  137.5530   73.3940  223.0910 H   0  0  0  0  0  0  0  0  0  0  0  0
  137.7720   73.9670  222.2840 O   0  0  0  0  0  0  0  0  0  0  0  0
  139.0880   74.1300  221.8640 C   0  0  0  0  0  0  0  0  0  0  0  0
  140.0930   73.2510  222.3820 N   0  0  0  0  0  0  0  0  0  0  0  0
  139.8140   72.2700  223.3460 N   0  0  0  0  0  0  0  0  0  0  0  0
  140.7270   71.4940  223.8490 C   0  0  0  0  0  0  0  0  0  0  0  0
  141.4576   71.0385  223.1643 H   0  0  0  0  0  0  0  0  0  0  0  0
  140.8370   71.1900  225.2930 C   0  0  0  0  0  0  0  0  0  0  0  0
  141.0880   72.2000  226.2370 C   0  0  0  0  0  0  0  0  0  0  0  0
  141.2511   73.2351  225.9023 H   0  0  0  0  0  0  0  0  0  0  0  0
  141.1310   71.8940  227.5980 C   0  0  0  0  0  0  0  0  0  0  0  0
  141.3296   72.6887  228.3322 H   0  0  0  0  0  0  0  0  0  0  0  0
  140.9230   70.5840  228.0310 C   0  0  0  0  0  0  0  0  0  0  0  0
  140.9582   70.3517  229.1056 H   0  0  0  0  0  0  0  0  0  0  0  0
  140.6690   69.5600  227.1040 C   0  0  0  0  0  0  0  0  0  0  0  0
  140.3940   68.1600  227.5950 C   0  0  0  0  0  0  0  0  0  0  0  0
  140.2920   68.1210  228.9760 F   0  0  0  0  0  0  0  0  0  0  0  0
  139.2060   67.6970  227.0590 F   0  0  0  0  0  0  0  0  0  0  0  0
  141.4240   67.3270  227.1980 F   0  0  0  0  0  0  0  0  0  0  0  0
  140.5970   69.8790  225.7360 C   0  0  0  0  0  0  0  0  0  0  0  0
  140.3503   69.0940  225.0060 H   0  0  0  0  0  0  0  0  0  0  0  0
  139.3930   75.0810  220.9690 C   0  0  0  0  0  0  0  0  0  0  0  0
  138.6290   75.3812  220.2368 H   0  0  0  0  0  0  0  0  0  0  0  0
  140.7360   75.7530  220.9260 C   0  0  0  0  0  0  0  0  0  0  0  0
  141.5053   74.9935  220.7227 H   0  0  0  0  0  0  0  0  0  0  0  0
  140.7055   76.5158  220.1340 H   0  0  0  0  0  0  0  0  0  0  0  0
  141.0760   76.4590  222.2450 C   0  0  0  0  0  0  0  0  0  0  0  0
  140.3421   76.1647  223.0098 H   0  0  0  0  0  0  0  0  0  0  0  0
  142.0907   76.1623  222.5491 H   0  0  0  0  0  0  0  0  0  0  0  0
  141.0450   77.8810  222.0900 O   0  0  0  0  0  0  0  0  0  0  0  0
  140.1150   78.7510  222.6860 C   0  0  0  0  0  0  0  0  0  0  0  0
  138.7330   78.4750  222.7140 C   0  0  0  0  0  0  0  0  0  0  0  0
  138.3547   77.5361  222.2835 H   0  0  0  0  0  0  0  0  0  0  0  0
  137.8400   79.3860  223.2850 C   0  0  0  0  0  0  0  0  0  0  0  0
  136.7622   79.1663  223.2942 H   0  0  0  0  0  0  0  0  0  0  0  0
  138.3140   80.5750  223.8440 C   0  0  0  0  0  0  0  0  0  0  0  0
  137.1900   81.7230  224.5440 Cl  0  0  0  0  0  0  0  0  0  0  0  0
  139.6860   80.8450  223.8470 C   0  0  0  0  0  0  0  0  0  0  0  0
  140.0603   81.7758  224.2981 H   0  0  0  0  0  0  0  0  0  0  0  0
  140.5850   79.9350  223.2780 C   0  0  0  0  0  0  0  0  0  0  0  0
  142.3020   80.3080  223.2800 Cl  0  0  0  0  0  0  0  0  0  0  0  0
  1  2  1  0
  2  3  1  0
  3  4  1  0
  4  5  1  0
  5  6  2  0
  6  7  1  0
  6  8  1  0
  8  9  2  0
  9 10  1  0
  9 11  1  0
 11 12  1  0
 11 13  2  0
 13 14  1  0
 13 15  1  0
 15 16  1  0
 16 17  1  0
 16 18  1  0
 16 19  1  0
 15 20  2  0
 20 21  1  0
  3 22  2  0
 22 23  1  0
 22 24  1  0
 24 25  1  0
 24 26  1  0
 24 27  1  0
 27 28  1  0
 27 29  1  0
 27 30  1  0
 30 31  1  0
 31 32  2  0
 32 33  1  0
 32 34  1  0
 34 35  1  0
 34 36  2  0
 36 37  1  0
 36 38  1  0
 38 39  1  0
 38 40  2  0
 40 41  1  0
 20  8  1  0
 40 31  1  0
M  CHG  1   4  -1
M  END
>  <UniqueID>  (74) 
20

>  <SMILES>  (74) 
O/C(=C\CCOc1ccc(Cl)cc1Cl)[N-]/N=C\c1cccc(C(F)(F)F)c1

>  <Energy>  (74) 
42.0150430469495

>  <Genealogy>  (74) 
O=C(CCCOc1ccc(Cl)cc1Cl)[N-]N=Cc1cccc(C(F)(F)F)c1 (protonated)
OC(=CCCOc1ccc(Cl)cc1Cl)[N-]N=Cc1cccc(C(F)(F)F)c1 (tautomer)
O/C(=C\CCOc1ccc(Cl)cc1Cl)[N-]/N=C\c1cccc(C(F)(F)F)c1 (cis-trans isomerization)
O/C(=C\CCOc1ccc(Cl)cc1Cl)[N-]/N=C\c1cccc(C(F)(F)F)c1 (3D coordinates assigned)
O/C(=C\CCOc1ccc(Cl)cc1Cl)[N-]/N=C\c1cccc(C(F)(F)F)c1 (optimized conformer: 42.0150430469495 kcal/mol)

>  <smiles>  (74) 
O=C(CCCOc1ccc(Cl)cc1Cl)NN=Cc1cccc(C(F)(F)F)c1

>  <score_type>  (74) 
oracle

>  <origin>  (74) 
autodockgpu

>  <m_score__min__energy>  (74) 
-7.2000000000000002

>  <m_primary>  (74) 
energy

>  <meeko>  (74) 
{"free_energy": -6.51, "intermolecular_energy": -9.79, "internal_energy": -0.97, "cluster_size": 9, "cluster_id": 1, "rank_in_cluster": 8}

>  <energy>  (74) 
-6.4

>  <cluster_rmsd>  (74) 
1.21

>  <rmsd>  (74) 
270.88

>  <cluster>  (74) 
2

$$$$
JBHRSOAXAGIKHA-MUXIEFDRNA-N
     RDKit          3D

 41 42  0  0  0  0  0  0  0  0999 V2000
  139.0770   73.3150  223.0170 H   0  0  0  0  0  0  0  0  0  0  0  0
  139.5970   74.1300  222.7120 O   0  0  0  0  0  0  0  0  0  0  0  0
  139.6420   73.5410  220.4200 C   0  0  0  0  0  0  0  0  0  0  0  0
  139.6840   75.8790  221.0260 N   0  0  0  0  0  0  0  0  0  0  0  0
  139.7370   76.8930  221.9930 N   0  0  0  0  0  0  0  0  0  0  0  0
  139.6320   74.4890  221.3680 C   0  0  0  0  0  0  0  0  0  0  0  0
  139.9960   73.8056  219.4127 H   0  0  0  0  0  0  0  0  0  0  0  0
  141.2680   78.6390  222.7770 C   0  0  0  0  0  0  0  0  0  0  0  0
  142.1240   79.0130  223.8250 C   0  0  0  0  0  0  0  0  0  0  0  0
  142.4495   78.2625  224.5604 H   0  0  0  0  0  0  0  0  0  0  0  0
  142.5640   80.3330  223.9380 C   0  0  0  0  0  0  0  0  0  0  0  0
  143.2327   80.6199  224.7629 H   0  0  0  0  0  0  0  0  0  0  0  0
  142.1570   81.2900  223.0060 C   0  0  0  0  0  0  0  0  0  0  0  0
  142.5078   82.3283  223.1005 H   0  0  0  0  0  0  0  0  0  0  0  0
  141.3030   80.9360  221.9490 C   0  0  0  0  0  0  0  0  0  0  0  0
  140.9180   81.9730  220.9230 C   0  0  0  0  0  0  0  0  0  0  0  0
  139.5800   81.8700  220.5790 F   0  0  0  0  0  0  0  0  0  0  0  0
  141.1400   83.2420  221.4280 F   0  0  0  0  0  0  0  0  0  0  0  0
  141.6870   81.7990  219.7870 F   0  0  0  0  0  0  0  0  0  0  0  0
  140.8870   79.5980  221.8250 C   0  0  0  0  0  0  0  0  0  0  0  0
  140.2570   79.3002  220.9739 H   0  0  0  0  0  0  0  0  0  0  0  0
  140.8340   77.2360  222.5990 C   0  0  0  0  0  0  0  0  0  0  0  0
  141.4757   76.4387  223.0021 H   0  0  0  0  0  0  0  0  0  0  0  0
  139.1890   72.1310  220.6780 C   0  0  0  0  0  0  0  0  0  0  0  0
  138.1185   72.1439  220.9306 H   0  0  0  0  0  0  0  0  0  0  0  0
  139.3795   71.5441  219.7673 H   0  0  0  0  0  0  0  0  0  0  0  0
  139.9600   71.4740  221.8300 C   0  0  0  0  0  0  0  0  0  0  0  0
  140.0910   70.4041  221.6104 H   0  0  0  0  0  0  0  0  0  0  0  0
  140.9362   71.9719  221.9254 H   0  0  0  0  0  0  0  0  0  0  0  0
  139.2560   71.6140  223.0680 O   0  0  0  0  0  0  0  0  0  0  0  0
  139.5940   70.9880  224.2800 C   0  0  0  0  0  0  0  0  0  0  0  0
  140.5940   71.4910  225.1370 C   0  0  0  0  0  0  0  0  0  0  0  0
  141.1193   72.4219  224.8770 H   0  0  0  0  0  0  0  0  0  0  0  0
  140.9220   70.8140  226.3150 C   0  0  0  0  0  0  0  0  0  0  0  0
  141.7105   71.2084  226.9729 H   0  0  0  0  0  0  0  0  0  0  0  0
  140.2520   69.6390  226.6590 C   0  0  0  0  0  0  0  0  0  0  0  0
  140.6780   68.7840  228.1290 Cl  0  0  0  0  0  0  0  0  0  0  0  0
  139.2380   69.1480  225.8300 C   0  0  0  0  0  0  0  0  0  0  0  0
  138.7009   68.2288  226.1069 H   0  0  0  0  0  0  0  0  0  0  0  0
  138.9040   69.8220  224.6490 C   0  0  0  0  0  0  0  0  0  0  0  0
  137.6380   69.1720  223.6190 Cl  0  0  0  0  0  0  0  0  0  0  0  0
  1  2  1  0
  2  3  1  0
  3  4  1  0
  4  5  1  0
  5  6  2  0
  6  7  1  0
  6  8  1  0
  8  9  2  0
  9 10  1  0
  9 11  1  0
 11 12  1  0
 11 13  2  0
 13 14  1  0
 13 15  1  0
 15 16  1  0
 16 17  1  0
 16 18  1  0
 16 19  1  0
 15 20  2  0
 20 21  1  0
  3 22  2  0
 22 23  1  0
 22 24  1  0
 24 25  1  0
 24 26  1  0
 24 27  1  0
 27 28  1  0
 27 29  1  0
 27 30  1  0
 30 31  1  0
 31 32  2  0
 32 33  1  0
 32 34  1  0
 34 35  1  0
 34 36  2  0
 36 37  1  0
 36 38  1  0
 38 39  1  0
 38 40  2  0
 40 41  1  0
 20  8  1  0
 40 31  1  0
M  CHG  1   4  -1
M  END
>  <UniqueID>  (75) 
20

>  <SMILES>  (75) 
O/C(=C\CCOc1ccc(Cl)cc1Cl)[N-]/N=C\c1cccc(C(F)(F)F)c1

>  <Energy>  (75) 
42.0150430469495

>  <Genealogy>  (75) 
O=C(CCCOc1ccc(Cl)cc1Cl)[N-]N=Cc1cccc(C(F)(F)F)c1 (protonated)
OC(=CCCOc1ccc(Cl)cc1Cl)[N-]N=Cc1cccc(C(F)(F)F)c1 (tautomer)
O/C(=C\CCOc1ccc(Cl)cc1Cl)[N-]/N=C\c1cccc(C(F)(F)F)c1 (cis-trans isomerization)
O/C(=C\CCOc1ccc(Cl)cc1Cl)[N-]/N=C\c1cccc(C(F)(F)F)c1 (3D coordinates assigned)
O/C(=C\CCOc1ccc(Cl)cc1Cl)[N-]/N=C\c1cccc(C(F)(F)F)c1 (optimized conformer: 42.0150430469495 kcal/mol)

>  <smiles>  (75) 
O=C(CCCOc1ccc(Cl)cc1Cl)NN=Cc1cccc(C(F)(F)F)c1

>  <score_type>  (75) 
oracle

>  <origin>  (75) 
autodockgpu

>  <m_score__min__energy>  (75) 
-7.2000000000000002

>  <m_primary>  (75) 
energy

>  <meeko>  (75) 
{"free_energy": -5.87, "intermolecular_energy": -9.15, "internal_energy": -1.14, "cluster_size": 1, "cluster_id": 4, "rank_in_cluster": 1}

>  <energy>  (75) 
-6.38

>  <cluster_rmsd>  (75) 
1.71

>  <rmsd>  (75) 
271.03

>  <cluster>  (75) 
2

$$$$
JBHRSOAXAGIKHA-MUXIEFDRNA-N
     RDKit          3D

 41 42  0  0  0  0  0  0  0  0999 V2000
  139.2240   73.4560  223.3900 H   0  0  0  0  0  0  0  0  0  0  0  0
  139.7770   72.7220  222.9650 O   0  0  0  0  0  0  0  0  0  0  0  0
  140.6700   73.0080  221.9360 C   0  0  0  0  0  0  0  0  0  0  0  0
  140.9640   74.3780  221.6390 N   0  0  0  0  0  0  0  0  0  0  0  0
  140.3720   75.4450  222.3300 N   0  0  0  0  0  0  0  0  0  0  0  0
  140.1410   76.6010  221.7820 C   0  0  0  0  0  0  0  0  0  0  0  0
  139.4717   76.6380  220.9098 H   0  0  0  0  0  0  0  0  0  0  0  0
  140.7280   77.8690  222.2660 C   0  0  0  0  0  0  0  0  0  0  0  0
  141.4780   77.9220  223.4520 C   0  0  0  0  0  0  0  0  0  0  0  0
  141.6004   77.0160  224.0636 H   0  0  0  0  0  0  0  0  0  0  0  0
  142.0690   79.1200  223.8580 C   0  0  0  0  0  0  0  0  0  0  0  0
  142.6543   79.1552  224.7887 H   0  0  0  0  0  0  0  0  0  0  0  0
  141.9190   80.2730  223.0860 C   0  0  0  0  0  0  0  0  0  0  0  0
  142.3876   81.2133  223.4119 H   0  0  0  0  0  0  0  0  0  0  0  0
  141.1740   80.2410  221.8960 C   0  0  0  0  0  0  0  0  0  0  0  0
  141.0690   81.4860  221.0490 C   0  0  0  0  0  0  0  0  0  0  0  0
  141.8310   81.3770  219.8970 F   0  0  0  0  0  0  0  0  0  0  0  0
  139.7520   81.6950  220.6810 F   0  0  0  0  0  0  0  0  0  0  0  0
  141.5120   82.5730  221.7790 F   0  0  0  0  0  0  0  0  0  0  0  0
  140.6070   79.0240  221.4770 C   0  0  0  0  0  0  0  0  0  0  0  0
  140.0635   78.9766  220.5219 H   0  0  0  0  0  0  0  0  0  0  0  0
  141.2550   72.0100  221.2600 C   0  0  0  0  0  0  0  0  0  0  0  0
  140.6182   71.2441  220.7932 H   0  0  0  0  0  0  0  0  0  0  0  0
  142.7460   71.8950  221.1140 C   0  0  0  0  0  0  0  0  0  0  0  0
  143.1935   72.8892  221.2601 H   0  0  0  0  0  0  0  0  0  0  0  0
  143.1037   71.1786  221.8682 H   0  0  0  0  0  0  0  0  0  0  0  0
  143.1570   71.3670  219.7330 C   0  0  0  0  0  0  0  0  0  0  0  0
  143.8709   70.5401  219.8621 H   0  0  0  0  0  0  0  0  0  0  0  0
  142.2547   71.0196  219.2085 H   0  0  0  0  0  0  0  0  0  0  0  0
  143.7700   72.3960  218.9510 O   0  0  0  0  0  0  0  0  0  0  0  0
  143.3780   73.7460  218.9190 C   0  0  0  0  0  0  0  0  0  0  0  0
  142.3390   74.2100  218.0860 C   0  0  0  0  0  0  0  0  0  0  0  0
  141.7865   73.4994  217.4537 H   0  0  0  0  0  0  0  0  0  0  0  0
  142.0070   75.5680  218.0590 C   0  0  0  0  0  0  0  0  0  0  0  0
  141.2020   75.9232  217.3989 H   0  0  0  0  0  0  0  0  0  0  0  0
  142.6950   76.4740  218.8680 C   0  0  0  0  0  0  0  0  0  0  0  0
  142.2870   78.1780  218.8190 Cl  0  0  0  0  0  0  0  0  0  0  0  0
  143.7070   76.0190  219.7180 C   0  0  0  0  0  0  0  0  0  0  0  0
  144.2411   76.7314  220.3639 H   0  0  0  0  0  0  0  0  0  0  0  0
  144.0440   74.6600  219.7510 C   0  0  0  0  0  0  0  0  0  0  0  0
  145.3310   74.1190  220.8170 Cl  0  0  0  0  0  0  0  0  0  0  0  0
  1  2  1  0
  2  3  1  0
  3  4  1  0
  4  5  1  0
  5  6  2  0
  6  7  1  0
  6  8  1  0
  8  9  2  0
  9 10  1  0
  9 11  1  0
 11 12  1  0
 11 13  2  0
 13 14  1  0
 13 15  1  0
 15 16  1  0
 16 17  1  0
 16 18  1  0
 16 19  1  0
 15 20  2  0
 20 21  1  0
  3 22  2  0
 22 23  1  0
 22 24  1  0
 24 25  1  0
 24 26  1  0
 24 27  1  0
 27 28  1  0
 27 29  1  0
 27 30  1  0
 30 31  1  0
 31 32  2  0
 32 33  1  0
 32 34  1  0
 34 35  1  0
 34 36  2  0
 36 37  1  0
 36 38  1  0
 38 39  1  0
 38 40  2  0
 40 41  1  0
 20  8  1  0
 40 31  1  0
M  CHG  1   4  -1
M  END
>  <UniqueID>  (76) 
20

>  <SMILES>  (76) 
O/C(=C\CCOc1ccc(Cl)cc1Cl)[N-]/N=C\c1cccc(C(F)(F)F)c1

>  <Energy>  (76) 
42.0150430469495

>  <Genealogy>  (76) 
O=C(CCCOc1ccc(Cl)cc1Cl)[N-]N=Cc1cccc(C(F)(F)F)c1 (protonated)
OC(=CCCOc1ccc(Cl)cc1Cl)[N-]N=Cc1cccc(C(F)(F)F)c1 (tautomer)
O/C(=C\CCOc1ccc(Cl)cc1Cl)[N-]/N=C\c1cccc(C(F)(F)F)c1 (cis-trans isomerization)
O/C(=C\CCOc1ccc(Cl)cc1Cl)[N-]/N=C\c1cccc(C(F)(F)F)c1 (3D coordinates assigned)
O/C(=C\CCOc1ccc(Cl)cc1Cl)[N-]/N=C\c1cccc(C(F)(F)F)c1 (optimized conformer: 42.0150430469495 kcal/mol)

>  <smiles>  (76) 
O=C(CCCOc1ccc(Cl)cc1Cl)NN=Cc1cccc(C(F)(F)F)c1

>  <score_type>  (76) 
oracle

>  <origin>  (76) 
autodockgpu

>  <m_score__min__energy>  (76) 
-7.2000000000000002

>  <m_primary>  (76) 
energy

>  <meeko>  (76) 
{"free_energy": -4.88, "intermolecular_energy": -8.17, "internal_energy": -2.04, "cluster_size": 1, "cluster_id": 6, "rank_in_cluster": 1}

>  <energy>  (76) 
-6.16

>  <cluster_rmsd>  (76) 
1.49

>  <rmsd>  (76) 
270.91

>  <cluster>  (76) 
2

$$$$
JBHRSOAXAGIKHA-MUXIEFDRNA-N
     RDKit          3D

 41 42  0  0  0  0  0  0  0  0999 V2000
  141.9450   76.0750  221.7860 H   0  0  0  0  0  0  0  0  0  0  0  0
  141.4280   75.3560  222.2770 O   0  0  0  0  0  0  0  0  0  0  0  0
  140.6270   74.3050  220.3140 C   0  0  0  0  0  0  0  0  0  0  0  0
  140.8510   72.9960  222.3320 N   0  0  0  0  0  0  0  0  0  0  0  0
  139.6510   72.5850  222.9320 N   0  0  0  0  0  0  0  0  0  0  0  0
  140.9700   74.2250  221.6070 C   0  0  0  0  0  0  0  0  0  0  0  0
  141.1616   73.6767  219.5864 H   0  0  0  0  0  0  0  0  0  0  0  0
  139.6840   70.6920  224.4880 C   0  0  0  0  0  0  0  0  0  0  0  0
  139.5910   69.3000  224.6470 C   0  0  0  0  0  0  0  0  0  0  0  0
  139.2445   68.6746  223.8110 H   0  0  0  0  0  0  0  0  0  0  0  0
  139.9370   68.7070  225.8630 C   0  0  0  0  0  0  0  0  0  0  0  0
  139.8585   67.6164  225.9827 H   0  0  0  0  0  0  0  0  0  0  0  0
  140.3820   69.4930  226.9270 C   0  0  0  0  0  0  0  0  0  0  0  0
  140.6545   69.0180  227.8810 H   0  0  0  0  0  0  0  0  0  0  0  0
  140.4840   70.8870  226.7870 C   0  0  0  0  0  0  0  0  0  0  0  0
  141.0160   71.7140  227.9310 C   0  0  0  0  0  0  0  0  0  0  0  0
  141.7610   72.7880  227.4730 F   0  0  0  0  0  0  0  0  0  0  0  0
  139.9670   72.2030  228.6880 F   0  0  0  0  0  0  0  0  0  0  0  0
  141.8180   70.9220  228.7320 F   0  0  0  0  0  0  0  0  0  0  0  0
  140.1620   71.4760  225.5510 C   0  0  0  0  0  0  0  0  0  0  0  0
  140.2856   72.5606  225.4155 H   0  0  0  0  0  0  0  0  0  0  0  0
  139.3800   71.3420  223.1940 C   0  0  0  0  0  0  0  0  0  0  0  0
  138.8978   70.7391  222.4104 H   0  0  0  0  0  0  0  0  0  0  0  0
  139.5420   75.2180  219.8180 C   0  0  0  0  0  0  0  0  0  0  0  0
  139.7386   75.4609  218.7633 H   0  0  0  0  0  0  0  0  0  0  0  0
  138.5814   74.6954  219.9372 H   0  0  0  0  0  0  0  0  0  0  0  0
  139.4690   76.5240  220.6200 C   0  0  0  0  0  0  0  0  0  0  0  0
  138.6318   77.1304  220.2439 H   0  0  0  0  0  0  0  0  0  0  0  0
  139.3195   76.2750  221.6810 H   0  0  0  0  0  0  0  0  0  0  0  0
  140.6820   77.2730  220.4950 O   0  0  0  0  0  0  0  0  0  0  0  0
  141.1420   78.2470  221.3980 C   0  0  0  0  0  0  0  0  0  0  0  0
  141.0390   78.0890  222.7950 C   0  0  0  0  0  0  0  0  0  0  0  0
  140.6114   77.1646  223.2104 H   0  0  0  0  0  0  0  0  0  0  0  0
  141.4770   79.1000  223.6560 C   0  0  0  0  0  0  0  0  0  0  0  0
  141.3847   78.9720  224.7446 H   0  0  0  0  0  0  0  0  0  0  0  0
  142.0310   80.2710  223.1370 C   0  0  0  0  0  0  0  0  0  0  0  0
  142.5640   81.5440  224.2190 Cl  0  0  0  0  0  0  0  0  0  0  0  0
  142.1640   80.4250  221.7540 C   0  0  0  0  0  0  0  0  0  0  0  0
  142.6119   81.3428  221.3453 H   0  0  0  0  0  0  0  0  0  0  0  0
  141.7290   79.4150  220.8870 C   0  0  0  0  0  0  0  0  0  0  0  0
  141.8930   79.6430  219.1520 Cl  0  0  0  0  0  0  0  0  0  0  0  0
  1  2  1  0
  2  3  1  0
  3  4  1  0
  4  5  1  0
  5  6  2  0
  6  7  1  0
  6  8  1  0
  8  9  2  0
  9 10  1  0
  9 11  1  0
 11 12  1  0
 11 13  2  0
 13 14  1  0
 13 15  1  0
 15 16  1  0
 16 17  1  0
 16 18  1  0
 16 19  1  0
 15 20  2  0
 20 21  1  0
  3 22  2  0
 22 23  1  0
 22 24  1  0
 24 25  1  0
 24 26  1  0
 24 27  1  0
 27 28  1  0
 27 29  1  0
 27 30  1  0
 30 31  1  0
 31 32  2  0
 32 33  1  0
 32 34  1  0
 34 35  1  0
 34 36  2  0
 36 37  1  0
 36 38  1  0
 38 39  1  0
 38 40  2  0
 40 41  1  0
 20  8  1  0
 40 31  1  0
M  CHG  1   4  -1
M  END
>  <UniqueID>  (77) 
20

>  <SMILES>  (77) 
O/C(=C\CCOc1ccc(Cl)cc1Cl)[N-]/N=C\c1cccc(C(F)(F)F)c1

>  <Energy>  (77) 
42.0150430469495

>  <Genealogy>  (77) 
O=C(CCCOc1ccc(Cl)cc1Cl)[N-]N=Cc1cccc(C(F)(F)F)c1 (protonated)
OC(=CCCOc1ccc(Cl)cc1Cl)[N-]N=Cc1cccc(C(F)(F)F)c1 (tautomer)
O/C(=C\CCOc1ccc(Cl)cc1Cl)[N-]/N=C\c1cccc(C(F)(F)F)c1 (cis-trans isomerization)
O/C(=C\CCOc1ccc(Cl)cc1Cl)[N-]/N=C\c1cccc(C(F)(F)F)c1 (3D coordinates assigned)
O/C(=C\CCOc1ccc(Cl)cc1Cl)[N-]/N=C\c1cccc(C(F)(F)F)c1 (optimized conformer: 42.0150430469495 kcal/mol)

>  <smiles>  (77) 
O=C(CCCOc1ccc(Cl)cc1Cl)NN=Cc1cccc(C(F)(F)F)c1

>  <score_type>  (77) 
oracle

>  <origin>  (77) 
autodockgpu

>  <m_score__min__energy>  (77) 
-7.2000000000000002

>  <m_primary>  (77) 
energy

>  <meeko>  (77) 
{"free_energy": -6.42, "intermolecular_energy": -9.7, "internal_energy": -1.21, "cluster_size": 7, "cluster_id": 2, "rank_in_cluster": 4}

>  <energy>  (77) 
-6.22

>  <cluster_rmsd>  (77) 
0.0

>  <rmsd>  (77) 
270.26

>  <cluster>  (77) 
3

$$$$
JBHRSOAXAGIKHA-MUXIEFDRNA-N
     RDKit          3D

 41 42  0  0  0  0  0  0  0  0999 V2000
  138.8590   75.2220  223.3880 H   0  0  0  0  0  0  0  0  0  0  0  0
  139.4290   75.6140  222.6490 O   0  0  0  0  0  0  0  0  0  0  0  0
  139.9390   74.8050  221.6380 C   0  0  0  0  0  0  0  0  0  0  0  0
  140.5010   73.5340  221.9890 N   0  0  0  0  0  0  0  0  0  0  0  0
  139.7910   72.5690  222.7180 N   0  0  0  0  0  0  0  0  0  0  0  0
  140.2950   71.4160  223.0430 C   0  0  0  0  0  0  0  0  0  0  0  0
  140.8469   70.8547  222.2747 H   0  0  0  0  0  0  0  0  0  0  0  0
  140.1670   70.8170  224.3900 C   0  0  0  0  0  0  0  0  0  0  0  0
  139.6990   69.5050  224.5650 C   0  0  0  0  0  0  0  0  0  0  0  0
  139.3769   68.9170  223.6929 H   0  0  0  0  0  0  0  0  0  0  0  0
  139.6410   68.9440  225.8420 C   0  0  0  0  0  0  0  0  0  0  0  0
  139.2711   67.9164  225.9731 H   0  0  0  0  0  0  0  0  0  0  0  0
  140.0510   69.6830  226.9530 C   0  0  0  0  0  0  0  0  0  0  0  0
  140.0032   69.2337  227.9559 H   0  0  0  0  0  0  0  0  0  0  0  0
  140.5240   70.9960  226.7990 C   0  0  0  0  0  0  0  0  0  0  0  0
  141.0110   71.7590  228.0060 C   0  0  0  0  0  0  0  0  0  0  0  0
  141.7940   70.9620  228.8240 F   0  0  0  0  0  0  0  0  0  0  0  0
  141.7680   72.8450  227.6030 F   0  0  0  0  0  0  0  0  0  0  0  0
  139.9230   72.2120  228.7290 F   0  0  0  0  0  0  0  0  0  0  0  0
  140.6070   71.5450  225.5070 C   0  0  0  0  0  0  0  0  0  0  0  0
  141.0208   72.5550  225.3701 H   0  0  0  0  0  0  0  0  0  0  0  0
  139.8760   75.2060  220.3610 C   0  0  0  0  0  0  0  0  0  0  0  0
  138.9186   75.5842  219.9733 H   0  0  0  0  0  0  0  0  0  0  0  0
  141.0600   75.1600  219.4370 C   0  0  0  0  0  0  0  0  0  0  0  0
  141.6110   74.2247  219.6145 H   0  0  0  0  0  0  0  0  0  0  0  0
  140.6834   75.2151  218.4049 H   0  0  0  0  0  0  0  0  0  0  0  0
  142.0130   76.3420  219.6520 C   0  0  0  0  0  0  0  0  0  0  0  0
  142.6638   76.1270  220.5124 H   0  0  0  0  0  0  0  0  0  0  0  0
  142.6117   76.4789  218.7394 H   0  0  0  0  0  0  0  0  0  0  0  0
  141.2870   77.5490  219.9050 O   0  0  0  0  0  0  0  0  0  0  0  0
  141.5480   78.4620  220.9420 C   0  0  0  0  0  0  0  0  0  0  0  0
  141.4370   78.1100  222.3030 C   0  0  0  0  0  0  0  0  0  0  0  0
  141.1647   77.0812  222.5814 H   0  0  0  0  0  0  0  0  0  0  0  0
  141.6710   79.0610  223.3000 C   0  0  0  0  0  0  0  0  0  0  0  0
  141.5737   78.7807  224.3592 H   0  0  0  0  0  0  0  0  0  0  0  0
  142.0280   80.3660  222.9550 C   0  0  0  0  0  0  0  0  0  0  0  0
  142.3040   81.5600  224.2090 Cl  0  0  0  0  0  0  0  0  0  0  0  0
  142.1690   80.7170  221.6090 C   0  0  0  0  0  0  0  0  0  0  0  0
  142.4623   81.7418  221.3373 H   0  0  0  0  0  0  0  0  0  0  0  0
  141.9380   79.7680  220.6060 C   0  0  0  0  0  0  0  0  0  0  0  0
  142.1050   80.2410  218.9220 Cl  0  0  0  0  0  0  0  0  0  0  0  0
  1  2  1  0
  2  3  1  0
  3  4  1  0
  4  5  1  0
  5  6  2  0
  6  7  1  0
  6  8  1  0
  8  9  2  0
  9 10  1  0
  9 11  1  0
 11 12  1  0
 11 13  2  0
 13 14  1  0
 13 15  1  0
 15 16  1  0
 16 17  1  0
 16 18  1  0
 16 19  1  0
 15 20  2  0
 20 21  1  0
  3 22  2  0
 22 23  1  0
 22 24  1  0
 24 25  1  0
 24 26  1  0
 24 27  1  0
 27 28  1  0
 27 29  1  0
 27 30  1  0
 30 31  1  0
 31 32  2  0
 32 33  1  0
 32 34  1  0
 34 35  1  0
 34 36  2  0
 36 37  1  0
 36 38  1  0
 38 39  1  0
 38 40  2  0
 40 41  1  0
 20  8  1  0
 40 31  1  0
M  CHG  1   4  -1
M  END
>  <UniqueID>  (78) 
20

>  <SMILES>  (78) 
O/C(=C\CCOc1ccc(Cl)cc1Cl)[N-]/N=C\c1cccc(C(F)(F)F)c1

>  <Energy>  (78) 
42.0150430469495

>  <Genealogy>  (78) 
O=C(CCCOc1ccc(Cl)cc1Cl)[N-]N=Cc1cccc(C(F)(F)F)c1 (protonated)
OC(=CCCOc1ccc(Cl)cc1Cl)[N-]N=Cc1cccc(C(F)(F)F)c1 (tautomer)
O/C(=C\CCOc1ccc(Cl)cc1Cl)[N-]/N=C\c1cccc(C(F)(F)F)c1 (cis-trans isomerization)
O/C(=C\CCOc1ccc(Cl)cc1Cl)[N-]/N=C\c1cccc(C(F)(F)F)c1 (3D coordinates assigned)
O/C(=C\CCOc1ccc(Cl)cc1Cl)[N-]/N=C\c1cccc(C(F)(F)F)c1 (optimized conformer: 42.0150430469495 kcal/mol)

>  <smiles>  (78) 
O=C(CCCOc1ccc(Cl)cc1Cl)NN=Cc1cccc(C(F)(F)F)c1

>  <score_type>  (78) 
oracle

>  <origin>  (78) 
autodockgpu

>  <m_score__min__energy>  (78) 
-7.2000000000000002

>  <m_primary>  (78) 
energy

>  <meeko>  (78) 
{"free_energy": -6.87, "intermolecular_energy": -10.15, "internal_energy": -0.83, "cluster_size": 7, "cluster_id": 2, "rank_in_cluster": 1}

>  <energy>  (78) 
-5.87

>  <cluster_rmsd>  (78) 
0.0

>  <rmsd>  (78) 
270.33

>  <cluster>  (78) 
4

$$$$
JBHRSOAXAGIKHA-MUXIEFDRNA-N
     RDKit          3D

 41 42  0  0  0  0  0  0  0  0999 V2000
  142.0660   75.1720  222.3220 H   0  0  0  0  0  0  0  0  0  0  0  0
  141.4280   75.4320  221.5800 O   0  0  0  0  0  0  0  0  0  0  0  0
  140.1040   75.0030  221.5960 C   0  0  0  0  0  0  0  0  0  0  0  0
  139.7730   73.8120  222.3190 N   0  0  0  0  0  0  0  0  0  0  0  0
  140.7440   72.8940  222.7480 N   0  0  0  0  0  0  0  0  0  0  0  0
  140.4970   71.6290  222.9120 C   0  0  0  0  0  0  0  0  0  0  0  0
  140.5085   70.9779  222.0255 H   0  0  0  0  0  0  0  0  0  0  0  0
  140.2010   71.0160  224.2260 C   0  0  0  0  0  0  0  0  0  0  0  0
  139.5180   69.7930  224.3250 C   0  0  0  0  0  0  0  0  0  0  0  0
  139.1535   69.2933  223.4153 H   0  0  0  0  0  0  0  0  0  0  0  0
  139.3000   69.2090  225.5750 C   0  0  0  0  0  0  0  0  0  0  0  0
  138.7616   68.2525  225.6468 H   0  0  0  0  0  0  0  0  0  0  0  0
  139.7630   69.8350  226.7330 C   0  0  0  0  0  0  0  0  0  0  0  0
  139.5895   69.3675  227.7135 H   0  0  0  0  0  0  0  0  0  0  0  0
  140.4490   71.0580  226.6550 C   0  0  0  0  0  0  0  0  0  0  0  0
  140.9870   71.6920  227.9140 C   0  0  0  0  0  0  0  0  0  0  0  0
  141.8850   72.7060  227.6240 F   0  0  0  0  0  0  0  0  0  0  0  0
  139.9480   72.2300  228.6520 F   0  0  0  0  0  0  0  0  0  0  0  0
  141.6270   70.7300  228.6730 F   0  0  0  0  0  0  0  0  0  0  0  0
  140.6910   71.6270  225.3920 C   0  0  0  0  0  0  0  0  0  0  0  0
  141.2695   72.5595  225.3164 H   0  0  0  0  0  0  0  0  0  0  0  0
  139.1600   75.7160  220.9650 C   0  0  0  0  0  0  0  0  0  0  0  0
  139.4205   76.2176  220.0213 H   0  0  0  0  0  0  0  0  0  0  0  0
  137.7610   75.8580  221.4940 C   0  0  0  0  0  0  0  0  0  0  0  0
  137.1850   76.4934  220.8052 H   0  0  0  0  0  0  0  0  0  0  0  0
  137.3257   74.8506  221.5698 H   0  0  0  0  0  0  0  0  0  0  0  0
  137.7290   76.4900  222.8920 C   0  0  0  0  0  0  0  0  0  0  0  0
  136.7566   76.2779  223.3604 H   0  0  0  0  0  0  0  0  0  0  0  0
  138.5466   76.0603  223.4894 H   0  0  0  0  0  0  0  0  0  0  0  0
  137.9140   77.9070  222.8190 O   0  0  0  0  0  0  0  0  0  0  0  0
  139.1240   78.5890  223.0360 C   0  0  0  0  0  0  0  0  0  0  0  0
  140.3780   78.0080  222.7600 C   0  0  0  0  0  0  0  0  0  0  0  0
  140.4292   76.9957  222.3326 H   0  0  0  0  0  0  0  0  0  0  0  0
  141.5570   78.7100  223.0260 C   0  0  0  0  0  0  0  0  0  0  0  0
  142.5316   78.2449  222.8164 H   0  0  0  0  0  0  0  0  0  0  0  0
  141.5010   80.0000  223.5570 C   0  0  0  0  0  0  0  0  0  0  0  0
  142.9820   80.8700  223.9050 Cl  0  0  0  0  0  0  0  0  0  0  0  0
  140.2610   80.5960  223.8070 C   0  0  0  0  0  0  0  0  0  0  0  0
  140.2161   81.6171  224.2137 H   0  0  0  0  0  0  0  0  0  0  0  0
  139.0770   79.8990  223.5420 C   0  0  0  0  0  0  0  0  0  0  0  0
  137.5330   80.6660  223.8820 Cl  0  0  0  0  0  0  0  0  0  0  0  0
  1  2  1  0
  2  3  1  0
  3  4  1  0
  4  5  1  0
  5  6  2  0
  6  7  1  0
  6  8  1  0
  8  9  2  0
  9 10  1  0
  9 11  1  0
 11 12  1  0
 11 13  2  0
 13 14  1  0
 13 15  1  0
 15 16  1  0
 16 17  1  0
 16 18  1  0
 16 19  1  0
 15 20  2  0
 20 21  1  0
  3 22  2  0
 22 23  1  0
 22 24  1  0
 24 25  1  0
 24 26  1  0
 24 27  1  0
 27 28  1  0
 27 29  1  0
 27 30  1  0
 30 31  1  0
 31 32  2  0
 32 33  1  0
 32 34  1  0
 34 35  1  0
 34 36  2  0
 36 37  1  0
 36 38  1  0
 38 39  1  0
 38 40  2  0
 40 41  1  0
 20  8  1  0
 40 31  1  0
M  CHG  1   4  -1
M  END
>  <UniqueID>  (79) 
20

>  <SMILES>  (79) 
O/C(=C\CCOc1ccc(Cl)cc1Cl)[N-]/N=C\c1cccc(C(F)(F)F)c1

>  <Energy>  (79) 
42.0150430469495

>  <Genealogy>  (79) 
O=C(CCCOc1ccc(Cl)cc1Cl)[N-]N=Cc1cccc(C(F)(F)F)c1 (protonated)
OC(=CCCOc1ccc(Cl)cc1Cl)[N-]N=Cc1cccc(C(F)(F)F)c1 (tautomer)
O/C(=C\CCOc1ccc(Cl)cc1Cl)[N-]/N=C\c1cccc(C(F)(F)F)c1 (cis-trans isomerization)
O/C(=C\CCOc1ccc(Cl)cc1Cl)[N-]/N=C\c1cccc(C(F)(F)F)c1 (3D coordinates assigned)
O/C(=C\CCOc1ccc(Cl)cc1Cl)[N-]/N=C\c1cccc(C(F)(F)F)c1 (optimized conformer: 42.0150430469495 kcal/mol)

>  <smiles>  (79) 
O=C(CCCOc1ccc(Cl)cc1Cl)NN=Cc1cccc(C(F)(F)F)c1

>  <score_type>  (79) 
oracle

>  <origin>  (79) 
autodockgpu

>  <m_score__min__energy>  (79) 
-7.2000000000000002

>  <m_primary>  (79) 
energy

>  <meeko>  (79) 
{"free_energy": -6.78, "intermolecular_energy": -10.06, "internal_energy": -0.95, "cluster_size": 7, "cluster_id": 2, "rank_in_cluster": 2}

>  <energy>  (79) 
-5.26

>  <cluster_rmsd>  (79) 
0.0

>  <rmsd>  (79) 
269.89

>  <cluster>  (79) 
5

$$$$
JBHRSOAXAGIKHA-MUXIEFDRNA-N
     RDKit          3D

 41 42  0  0  0  0  0  0  0  0999 V2000
  139.3380   72.1850  220.5040 H   0  0  0  0  0  0  0  0  0  0  0  0
  139.3570   73.1960  220.4410 O   0  0  0  0  0  0  0  0  0  0  0  0
  139.9780   73.9580  221.4260 C   0  0  0  0  0  0  0  0  0  0  0  0
  140.3650   73.3230  222.6490 N   0  0  0  0  0  0  0  0  0  0  0  0
  140.5690   71.9380  222.7500 N   0  0  0  0  0  0  0  0  0  0  0  0
  139.9030   71.1830  223.5710 C   0  0  0  0  0  0  0  0  0  0  0  0
  138.9597   70.7393  223.2199 H   0  0  0  0  0  0  0  0  0  0  0  0
  140.3430   70.8870  224.9520 C   0  0  0  0  0  0  0  0  0  0  0  0
  140.7670   71.9080  225.8190 C   0  0  0  0  0  0  0  0  0  0  0  0
  140.8178   72.9464  225.4596 H   0  0  0  0  0  0  0  0  0  0  0  0
  141.1240   71.6090  227.1350 C   0  0  0  0  0  0  0  0  0  0  0  0
  141.4584   72.4120  227.8083 H   0  0  0  0  0  0  0  0  0  0  0  0
  141.0580   70.2950  227.5990 C   0  0  0  0  0  0  0  0  0  0  0  0
  141.3392   70.0679  228.6379 H   0  0  0  0  0  0  0  0  0  0  0  0
  140.6350   69.2600  226.7490 C   0  0  0  0  0  0  0  0  0  0  0  0
  140.5200   67.8540  227.2850 C   0  0  0  0  0  0  0  0  0  0  0  0
  140.8380   67.8010  228.6320 F   0  0  0  0  0  0  0  0  0  0  0  0
  139.2260   67.3930  227.1250 F   0  0  0  0  0  0  0  0  0  0  0  0
  141.3830   67.0290  226.5890 F   0  0  0  0  0  0  0  0  0  0  0  0
  140.2490   69.5720  225.4330 C   0  0  0  0  0  0  0  0  0  0  0  0
  139.8695   68.7771  224.7741 H   0  0  0  0  0  0  0  0  0  0  0  0
  140.2260   75.2580  221.2110 C   0  0  0  0  0  0  0  0  0  0  0  0
  139.4178   75.9847  221.3805 H   0  0  0  0  0  0  0  0  0  0  0  0
  141.5630   75.7620  220.7480 C   0  0  0  0  0  0  0  0  0  0  0  0
  142.3183   75.5100  221.5070 H   0  0  0  0  0  0  0  0  0  0  0  0
  141.7877   75.2832  219.7835 H   0  0  0  0  0  0  0  0  0  0  0  0
  141.5690   77.2810  220.5310 C   0  0  0  0  0  0  0  0  0  0  0  0
  142.3790   77.5413  219.8338 H   0  0  0  0  0  0  0  0  0  0  0  0
  140.5938   77.5793  220.1187 H   0  0  0  0  0  0  0  0  0  0  0  0
  141.7730   77.9760  221.7650 O   0  0  0  0  0  0  0  0  0  0  0  0
  140.7920   78.6890  222.4770 C   0  0  0  0  0  0  0  0  0  0  0  0
  139.4480   78.2680  222.5380 C   0  0  0  0  0  0  0  0  0  0  0  0
  139.1441   77.3357  222.0396 H   0  0  0  0  0  0  0  0  0  0  0  0
  138.4990   79.0280  223.2280 C   0  0  0  0  0  0  0  0  0  0  0  0
  137.4507   78.6967  223.2630 H   0  0  0  0  0  0  0  0  0  0  0  0
  138.8790   80.2070  223.8730 C   0  0  0  0  0  0  0  0  0  0  0  0
  137.6830   81.1660  224.7220 Cl  0  0  0  0  0  0  0  0  0  0  0  0
  140.2150   80.6170  223.8420 C   0  0  0  0  0  0  0  0  0  0  0  0
  140.5169   81.5391  224.3602 H   0  0  0  0  0  0  0  0  0  0  0  0
  141.1710   79.8590  223.1540 C   0  0  0  0  0  0  0  0  0  0  0  0
  142.8390   80.4090  223.1180 Cl  0  0  0  0  0  0  0  0  0  0  0  0
  1  2  1  0
  2  3  1  0
  3  4  1  0
  4  5  1  0
  5  6  2  0
  6  7  1  0
  6  8  1  0
  8  9  2  0
  9 10  1  0
  9 11  1  0
 11 12  1  0
 11 13  2  0
 13 14  1  0
 13 15  1  0
 15 16  1  0
 16 17  1  0
 16 18  1  0
 16 19  1  0
 15 20  2  0
 20 21  1  0
  3 22  2  0
 22 23  1  0
 22 24  1  0
 24 25  1  0
 24 26  1  0
 24 27  1  0
 27 28  1  0
 27 29  1  0
 27 30  1  0
 30 31  1  0
 31 32  2  0
 32 33  1  0
 32 34  1  0
 34 35  1  0
 34 36  2  0
 36 37  1  0
 36 38  1  0
 38 39  1  0
 38 40  2  0
 40 41  1  0
 20  8  1  0
 40 31  1  0
M  CHG  1   4  -1
M  END
>  <UniqueID>  (80) 
20

>  <SMILES>  (80) 
O/C(=C\CCOc1ccc(Cl)cc1Cl)[N-]/N=C\c1cccc(C(F)(F)F)c1

>  <Energy>  (80) 
42.0150430469495

>  <Genealogy>  (80) 
O=C(CCCOc1ccc(Cl)cc1Cl)[N-]N=Cc1cccc(C(F)(F)F)c1 (protonated)
OC(=CCCOc1ccc(Cl)cc1Cl)[N-]N=Cc1cccc(C(F)(F)F)c1 (tautomer)
O/C(=C\CCOc1ccc(Cl)cc1Cl)[N-]/N=C\c1cccc(C(F)(F)F)c1 (cis-trans isomerization)
O/C(=C\CCOc1ccc(Cl)cc1Cl)[N-]/N=C\c1cccc(C(F)(F)F)c1 (3D coordinates assigned)
O/C(=C\CCOc1ccc(Cl)cc1Cl)[N-]/N=C\c1cccc(C(F)(F)F)c1 (optimized conformer: 42.0150430469495 kcal/mol)

>  <smiles>  (80) 
O=C(CCCOc1ccc(Cl)cc1Cl)NN=Cc1cccc(C(F)(F)F)c1

>  <score_type>  (80) 
oracle

>  <origin>  (80) 
autodockgpu

>  <m_score__min__energy>  (80) 
-7.2000000000000002

>  <m_primary>  (80) 
energy

>  <meeko>  (80) 
{"free_energy": -6.07, "intermolecular_energy": -9.35, "internal_energy": -0.87, "cluster_size": 9, "cluster_id": 1, "rank_in_cluster": 9}

>  <energy>  (80) 
-4.88

>  <cluster_rmsd>  (80) 
0.0

>  <rmsd>  (80) 
269.75

>  <cluster>  (80) 
6

$$$$
