ATTQMMYACVSETC-GCOZCMQUNA-N
     RDKit          3D

 59 64  0  0  0  0  0  0  0  0999 V2000
  145.6600   71.8770  221.1400 H   0  0  0  0  0  0  0  0  0  0  0  0
  145.9030   72.8390  220.8140 N   0  0  0  0  0  0  0  0  0  0  0  0
  145.4440   73.3150  219.7000 C   0  0  0  0  0  0  0  0  0  0  0  0
  146.2040   73.2080  218.5340 O   0  0  0  0  0  0  0  0  0  0  0  0
  146.3120   73.9880  217.8970 H   0  0  0  0  0  0  0  0  0  0  0  0
  144.1160   73.9730  219.6550 C   0  0  0  0  0  0  0  0  0  0  0  0
  143.4050   74.0980  218.4290 C   0  0  0  0  0  0  0  0  0  0  0  0
  143.8481   73.7059  217.5017 H   0  0  0  0  0  0  0  0  0  0  0  0
  142.1420   74.7170  218.3880 C   0  0  0  0  0  0  0  0  0  0  0  0
  141.5870   74.8116  217.4430 H   0  0  0  0  0  0  0  0  0  0  0  0
  141.6180   75.2050  219.5790 C   0  0  0  0  0  0  0  0  0  0  0  0
  140.4190   75.8310  219.8400 C   0  0  0  0  0  0  0  0  0  0  0  0
  139.6215   76.0767  219.1234 H   0  0  0  0  0  0  0  0  0  0  0  0
  140.4370   76.0850  221.2100 C   0  0  0  0  0  0  0  0  0  0  0  0
  139.3420   76.7200  221.9640 C   0  0  0  0  0  0  0  0  0  0  0  0
  138.3910   76.0080  222.3840 O   0  0  0  0  0  0  0  0  0  0  0  0
  139.3310   78.1360  222.2000 N   0  0  0  0  0  0  0  0  0  0  0  0
  140.4320   78.8880  222.6900 C   0  0  0  0  0  0  0  0  0  0  0  0
  141.7830   78.5230  222.6410 C   0  0  0  0  0  0  0  0  0  0  0  0
  142.0903   77.5607  222.2057 H   0  0  0  0  0  0  0  0  0  0  0  0
  142.7360   79.4130  223.1600 C   0  0  0  0  0  0  0  0  0  0  0  0
  143.8029   79.1461  223.1390 H   0  0  0  0  0  0  0  0  0  0  0  0
  142.3330   80.6450  223.7070 C   0  0  0  0  0  0  0  0  0  0  0  0
  143.0848   81.3355  224.1169 H   0  0  0  0  0  0  0  0  0  0  0  0
  140.9750   80.9950  223.7310 C   0  0  0  0  0  0  0  0  0  0  0  0
  140.6518   81.9579  224.1533 H   0  0  0  0  0  0  0  0  0  0  0  0
  140.0380   80.0950  223.2070 C   0  0  0  0  0  0  0  0  0  0  0  0
  138.5490   80.2470  223.1010 C   0  0  1  0  0  0  0  0  0  0  0  0
  138.1020   78.9000  222.4330 C   0  0  0  0  0  0  0  0  0  0  0  0
  137.5888   79.0979  221.4804 H   0  0  0  0  0  0  0  0  0  0  0  0
  137.3996   78.3467  223.0737 H   0  0  0  0  0  0  0  0  0  0  0  0
  137.8680   80.4770  224.4460 C   0  0  0  0  0  0  0  0  0  0  0  0
  138.4744   81.1470  225.0732 H   0  0  0  0  0  0  0  0  0  0  0  0
  137.7437   79.5371  225.0037 H   0  0  0  0  0  0  0  0  0  0  0  0
  136.5740   81.0980  224.1360 N   0  0  0  0  0  0  0  0  0  0  0  0
  136.0570   81.9140  225.2590 C   0  0  1  0  0  0  0  0  0  0  0  0
  135.8457   82.8934  224.8050 H   0  0  0  0  0  0  0  0  0  0  0  0
  134.8360   81.2740  225.9100 C   0  0  0  0  0  0  0  0  0  0  0  0
  134.8953   80.1793  225.8205 H   0  0  0  0  0  0  0  0  0  0  0  0
  133.9147   81.6140  225.4144 H   0  0  0  0  0  0  0  0  0  0  0  0
  134.8270   81.6580  227.3230 N   0  0  0  0  0  0  0  0  0  0  0  0
  134.1590   82.4560  227.4400 H   0  0  0  0  0  0  0  0  0  0  0  0
  136.1750   82.1320  227.6480 C   0  0  0  0  0  0  0  0  0  0  0  0
  136.5938   81.5287  228.4669 H   0  0  0  0  0  0  0  0  0  0  0  0
  136.1395   83.1842  227.9668 H   0  0  0  0  0  0  0  0  0  0  0  0
  137.0440   81.9900  226.4090 C   0  0  0  0  0  0  0  0  0  0  0  0
  137.6502   81.0736  226.4622 H   0  0  0  0  0  0  0  0  0  0  0  0
  137.7527   82.8239  226.2974 H   0  0  0  0  0  0  0  0  0  0  0  0
  136.7900   81.8920  222.9090 C   0  0  0  0  0  0  0  0  0  0  0  0
  136.8188   82.9628  223.1590 H   0  0  0  0  0  0  0  0  0  0  0  0
  135.9706   81.7186  222.1959 H   0  0  0  0  0  0  0  0  0  0  0  0
  138.1230   81.4690  222.2930 C   0  0  0  0  0  0  0  0  0  0  0  0
  138.8666   82.2743  222.3854 H   0  0  0  0  0  0  0  0  0  0  0  0
  138.0354   81.2493  221.2187 H   0  0  0  0  0  0  0  0  0  0  0  0
  141.5820   75.6250  221.7720 N   0  0  0  0  0  0  0  0  0  0  0  0
  141.8440   75.6330  222.7830 H   0  0  0  0  0  0  0  0  0  0  0  0
  142.2930   75.0950  220.7650 C   0  0  0  0  0  0  0  0  0  0  0  0
  143.5420   74.4830  220.8430 C   0  0  0  0  0  0  0  0  0  0  0  0
  144.0690   74.3984  221.8049 H   0  0  0  0  0  0  0  0  0  0  0  0
  1  2  1  0
  2  3  2  0
  3  4  1  0
  4  5  1  0
  3  6  1  0
  6  7  2  0
  7  8  1  0
  7  9  1  0
  9 10  1  0
  9 11  2  0
 11 12  1  0
 12 13  1  0
 12 14  2  0
 14 15  1  0
 15 16  2  0
 15 17  1  0
 17 18  1  0
 18 19  2  0
 19 20  1  0
 19 21  1  0
 21 22  1  0
 21 23  2  0
 23 24  1  0
 23 25  1  0
 25 26  1  0
 25 27  2  0
 27 28  1  0
 28 29  1  6
 29 30  1  0
 29 31  1  0
 28 32  1  0
 32 33  1  0
 32 34  1  0
 32 35  1  0
 35 36  1  0
 36 37  1  6
 36 38  1  0
 38 39  1  0
 38 40  1  0
 38 41  1  0
 41 42  1  0
 41 43  1  0
 43 44  1  0
 43 45  1  0
 43 46  1  0
 46 47  1  0
 46 48  1  0
 35 49  1  0
 49 50  1  0
 49 51  1  0
 49 52  1  0
 52 53  1  0
 52 54  1  0
 14 55  1  0
 55 56  1  0
 55 57  1  0
 57 58  2  0
 58 59  1  0
 58  6  1  0
 57 11  1  0
 29 17  1  0
 46 36  1  0
 27 18  1  0
 52 28  1  0
M  END
>  <UniqueID>  (1) 
39

>  <SMILES>  (1) 
[H]/N=C(\O)c1ccc2cc(C(=O)N3C[C@]4(CCN([C@@H]5CCNC5)C4)c4ccccc43)[nH]c2c1

>  <Energy>  (1) 
124.4375381262645

>  <Genealogy>  (1) 
N=C(O)c1ccc2cc(C(=O)N3C[C@]4(CCN(C5CCNC5)C4)c4ccccc43)[nH]c2c1 (tautomer)
N=C(O)c1ccc2cc(C(=O)N3C[C@]4(CCN([C@@H]5CCNC5)C4)c4ccccc43)[nH]c2c1 (chirality)
[H]/N=C(\O)c1ccc2cc(C(=O)N3C[C@]4(CCN([C@@H]5CCNC5)C4)c4ccccc43)[nH]c2c1 (cis-trans isomerization)
[H]/N=C(\O)c1ccc2cc(C(=O)N3C[C@]4(CCN([C@@H]5CCNC5)C4)c4ccccc43)[nH]c2c1 (3D coordinates assigned)
[H]/N=C(\O)c1ccc2cc(C(=O)N3C[C@]4(CCN([C@@H]5CCNC5)C4)c4ccccc43)[nH]c2c1 (nonaromatic ring conformer: 124.4375381262645 kcal/mol)

>  <smiles>  (1) 
NC(=O)c1ccc2cc(C(=O)N3C[C@]4(CCN(C5CCNC5)C4)c4ccccc43)[nH]c2c1

>  <score_type>  (1) 
oracle

>  <origin>  (1) 
autodockgpu

>  <m_score__min__energy>  (1) 
-9.2200000000000006

>  <m_primary>  (1) 
energy

>  <meeko>  (1) 
{"free_energy": -8.86, "intermolecular_energy": -10.65, "internal_energy": -1.02, "cluster_size": 11, "cluster_id": 1, "rank_in_cluster": 8}

>  <energy>  (1) 
-9.22

>  <cluster_rmsd>  (1) 
0.0

>  <rmsd>  (1) 
273.14

>  <cluster>  (1) 
1

$$$$
ATTQMMYACVSETC-GCOZCMQUNA-N
     RDKit          3D

 59 64  0  0  0  0  0  0  0  0999 V2000
  138.8450   66.2100  227.2330 H   0  0  0  0  0  0  0  0  0  0  0  0
  139.1070   66.9890  226.5880 N   0  0  0  0  0  0  0  0  0  0  0  0
  139.7850   68.0130  227.0010 C   0  0  0  0  0  0  0  0  0  0  0  0
  140.3320   68.0100  228.2850 O   0  0  0  0  0  0  0  0  0  0  0  0
  141.0540   67.3520  228.5530 H   0  0  0  0  0  0  0  0  0  0  0  0
  139.9820   69.1880  226.1190 C   0  0  0  0  0  0  0  0  0  0  0  0
  140.6960   70.3310  226.5750 C   0  0  0  0  0  0  0  0  0  0  0  0
  141.1029   70.3454  227.5969 H   0  0  0  0  0  0  0  0  0  0  0  0
  140.8880   71.4430  225.7350 C   0  0  0  0  0  0  0  0  0  0  0  0
  141.4439   72.3266  226.0817 H   0  0  0  0  0  0  0  0  0  0  0  0
  140.3530   71.3900  224.4530 C   0  0  0  0  0  0  0  0  0  0  0  0
  140.3980   72.3070  223.4260 C   0  0  0  0  0  0  0  0  0  0  0  0
  140.8802   73.2957  223.4307 H   0  0  0  0  0  0  0  0  0  0  0  0
  139.6990   71.7080  222.3800 C   0  0  0  0  0  0  0  0  0  0  0  0
  139.5040   72.3030  221.0460 C   0  0  0  0  0  0  0  0  0  0  0  0
  138.7070   71.7540  220.2380 O   0  0  0  0  0  0  0  0  0  0  0  0
  140.2290   73.4760  220.6470 N   0  0  0  0  0  0  0  0  0  0  0  0
  141.6410   73.5550  220.5160 C   0  0  0  0  0  0  0  0  0  0  0  0
  142.5260   72.4850  220.3380 C   0  0  0  0  0  0  0  0  0  0  0  0
  142.1561   71.4497  220.3031 H   0  0  0  0  0  0  0  0  0  0  0  0
  143.8960   72.7620  220.2050 C   0  0  0  0  0  0  0  0  0  0  0  0
  144.6117   71.9375  220.0707 H   0  0  0  0  0  0  0  0  0  0  0  0
  144.3560   74.0910  220.2430 C   0  0  0  0  0  0  0  0  0  0  0  0
  145.4311   74.3018  220.1445 H   0  0  0  0  0  0  0  0  0  0  0  0
  143.4490   75.1480  220.4060 C   0  0  0  0  0  0  0  0  0  0  0  0
  143.8008   76.1899  220.4313 H   0  0  0  0  0  0  0  0  0  0  0  0
  142.0860   74.8510  220.5360 C   0  0  0  0  0  0  0  0  0  0  0  0
  140.9320   75.7960  220.6980 C   0  0  1  0  0  0  0  0  0  0  0  0
  139.6960   74.8340  220.7870 C   0  0  0  0  0  0  0  0  0  0  0  0
  138.9843   75.0505  219.9767 H   0  0  0  0  0  0  0  0  0  0  0  0
  139.1565   74.9587  221.7375 H   0  0  0  0  0  0  0  0  0  0  0  0
  141.0540   76.6930  221.9260 C   0  0  0  0  0  0  0  0  0  0  0  0
  142.0948   77.0238  222.0574 H   0  0  0  0  0  0  0  0  0  0  0  0
  140.7650   76.1634  222.8458 H   0  0  0  0  0  0  0  0  0  0  0  0
  140.1800   77.8440  221.6660 N   0  0  0  0  0  0  0  0  0  0  0  0
  140.6030   79.0520  222.4120 C   0  0  1  0  0  0  0  0  0  0  0  0
  139.6576   79.5286  222.7104 H   0  0  0  0  0  0  0  0  0  0  0  0
  141.5030   78.7040  223.5930 C   0  0  0  0  0  0  0  0  0  0  0  0
  142.0771   77.7927  223.3697 H   0  0  0  0  0  0  0  0  0  0  0  0
  140.8996   78.5225  224.4946 H   0  0  0  0  0  0  0  0  0  0  0  0
  142.4170   79.8280  223.8080 N   0  0  0  0  0  0  0  0  0  0  0  0
  142.0380   80.4110  224.5920 H   0  0  0  0  0  0  0  0  0  0  0  0
  142.4040   80.6330  222.5840 C   0  0  0  0  0  0  0  0  0  0  0  0
  143.4225   80.7031  222.1744 H   0  0  0  0  0  0  0  0  0  0  0  0
  142.0403   81.6479  222.8025 H   0  0  0  0  0  0  0  0  0  0  0  0
  141.4900   79.9560  221.5750 C   0  0  0  0  0  0  0  0  0  0  0  0
  142.0756   79.3667  220.8540 H   0  0  0  0  0  0  0  0  0  0  0  0
  140.9101   80.6803  220.9842 H   0  0  0  0  0  0  0  0  0  0  0  0
  140.1990   78.0440  220.2030 C   0  0  0  0  0  0  0  0  0  0  0  0
  140.8066   78.9271  219.9562 H   0  0  0  0  0  0  0  0  0  0  0  0
  139.1769   78.2035  219.8289 H   0  0  0  0  0  0  0  0  0  0  0  0
  140.8080   76.8010  219.5570 C   0  0  0  0  0  0  0  0  0  0  0  0
  141.7963   77.0292  219.1314 H   0  0  0  0  0  0  0  0  0  0  0  0
  140.1939   76.4180  218.7286 H   0  0  0  0  0  0  0  0  0  0  0  0
  139.2570   70.4770  222.7350 N   0  0  0  0  0  0  0  0  0  0  0  0
  138.7500   69.7840  222.1400 H   0  0  0  0  0  0  0  0  0  0  0  0
  139.6600   70.2980  224.0040 C   0  0  0  0  0  0  0  0  0  0  0  0
  139.4560   69.1780  224.8050 C   0  0  0  0  0  0  0  0  0  0  0  0
  138.9002   68.3075  224.4265 H   0  0  0  0  0  0  0  0  0  0  0  0
  1  2  1  0
  2  3  2  0
  3  4  1  0
  4  5  1  0
  3  6  1  0
  6  7  2  0
  7  8  1  0
  7  9  1  0
  9 10  1  0
  9 11  2  0
 11 12  1  0
 12 13  1  0
 12 14  2  0
 14 15  1  0
 15 16  2  0
 15 17  1  0
 17 18  1  0
 18 19  2  0
 19 20  1  0
 19 21  1  0
 21 22  1  0
 21 23  2  0
 23 24  1  0
 23 25  1  0
 25 26  1  0
 25 27  2  0
 27 28  1  0
 28 29  1  1
 29 30  1  0
 29 31  1  0
 28 32  1  0
 32 33  1  0
 32 34  1  0
 32 35  1  0
 35 36  1  0
 36 37  1  1
 36 38  1  0
 38 39  1  0
 38 40  1  0
 38 41  1  0
 41 42  1  0
 41 43  1  0
 43 44  1  0
 43 45  1  0
 43 46  1  0
 46 47  1  0
 46 48  1  0
 35 49  1  0
 49 50  1  0
 49 51  1  0
 49 52  1  0
 52 53  1  0
 52 54  1  0
 14 55  1  0
 55 56  1  0
 55 57  1  0
 57 58  2  0
 58 59  1  0
 58  6  1  0
 57 11  1  0
 29 17  1  0
 46 36  1  0
 27 18  1  0
 52 28  1  0
M  END
>  <UniqueID>  (2) 
39

>  <SMILES>  (2) 
[H]/N=C(\O)c1ccc2cc(C(=O)N3C[C@]4(CCN([C@@H]5CCNC5)C4)c4ccccc43)[nH]c2c1

>  <Energy>  (2) 
124.4375381262645

>  <Genealogy>  (2) 
N=C(O)c1ccc2cc(C(=O)N3C[C@]4(CCN(C5CCNC5)C4)c4ccccc43)[nH]c2c1 (tautomer)
N=C(O)c1ccc2cc(C(=O)N3C[C@]4(CCN([C@@H]5CCNC5)C4)c4ccccc43)[nH]c2c1 (chirality)
[H]/N=C(\O)c1ccc2cc(C(=O)N3C[C@]4(CCN([C@@H]5CCNC5)C4)c4ccccc43)[nH]c2c1 (cis-trans isomerization)
[H]/N=C(\O)c1ccc2cc(C(=O)N3C[C@]4(CCN([C@@H]5CCNC5)C4)c4ccccc43)[nH]c2c1 (3D coordinates assigned)
[H]/N=C(\O)c1ccc2cc(C(=O)N3C[C@]4(CCN([C@@H]5CCNC5)C4)c4ccccc43)[nH]c2c1 (nonaromatic ring conformer: 124.4375381262645 kcal/mol)

>  <smiles>  (2) 
NC(=O)c1ccc2cc(C(=O)N3C[C@]4(CCN(C5CCNC5)C4)c4ccccc43)[nH]c2c1

>  <score_type>  (2) 
oracle

>  <origin>  (2) 
autodockgpu

>  <m_score__min__energy>  (2) 
-9.2200000000000006

>  <m_primary>  (2) 
energy

>  <meeko>  (2) 
{"free_energy": -8.32, "intermolecular_energy": -10.11, "internal_energy": -1.32, "cluster_size": 4, "cluster_id": 3, "rank_in_cluster": 2}

>  <energy>  (2) 
-9.21

>  <cluster_rmsd>  (2) 
0.12

>  <rmsd>  (2) 
273.09

>  <cluster>  (2) 
1

$$$$
ATTQMMYACVSETC-GCOZCMQUNA-N
     RDKit          3D

 59 64  0  0  0  0  0  0  0  0999 V2000
  135.5620   80.4210  230.9430 H   0  0  0  0  0  0  0  0  0  0  0  0
  135.8000   81.4110  230.7140 N   0  0  0  0  0  0  0  0  0  0  0  0
  135.1770   82.0610  229.7820 C   0  0  0  0  0  0  0  0  0  0  0  0
  134.3670   83.1470  230.1170 O   0  0  0  0  0  0  0  0  0  0  0  0
  133.8710   83.1880  230.9990 H   0  0  0  0  0  0  0  0  0  0  0  0
  135.3180   81.6590  228.3620 C   0  0  0  0  0  0  0  0  0  0  0  0
  134.2160   81.1170  227.6440 C   0  0  0  0  0  0  0  0  0  0  0  0
  133.2474   80.9904  228.1497 H   0  0  0  0  0  0  0  0  0  0  0  0
  134.3500   80.7410  226.2950 C   0  0  0  0  0  0  0  0  0  0  0  0
  133.4991   80.3261  225.7348 H   0  0  0  0  0  0  0  0  0  0  0  0
  135.5910   80.9100  225.6920 C   0  0  0  0  0  0  0  0  0  0  0  0
  136.0030   80.6500  224.4040 C   0  0  0  0  0  0  0  0  0  0  0  0
  135.4039   80.2367  223.5792 H   0  0  0  0  0  0  0  0  0  0  0  0
  137.3450   81.0250  224.3740 C   0  0  0  0  0  0  0  0  0  0  0  0
  138.2130   80.9580  223.1850 C   0  0  0  0  0  0  0  0  0  0  0  0
  137.9860   81.7300  222.2150 O   0  0  0  0  0  0  0  0  0  0  0  0
  139.2890   80.0110  223.1070 N   0  0  0  0  0  0  0  0  0  0  0  0
  140.6580   80.3150  223.3290 C   0  0  0  0  0  0  0  0  0  0  0  0
  141.1690   81.4100  224.0380 C   0  0  0  0  0  0  0  0  0  0  0  0
  140.4943   82.1576  224.4806 H   0  0  0  0  0  0  0  0  0  0  0  0
  142.5600   81.5320  224.1710 C   0  0  0  0  0  0  0  0  0  0  0  0
  142.9850   82.3866  224.7178 H   0  0  0  0  0  0  0  0  0  0  0  0
  143.4140   80.5660  223.6080 C   0  0  0  0  0  0  0  0  0  0  0  0
  144.5041   80.6711  223.7106 H   0  0  0  0  0  0  0  0  0  0  0  0
  142.8790   79.4690  222.9160 C   0  0  0  0  0  0  0  0  0  0  0  0
  143.5394   78.7062  222.4778 H   0  0  0  0  0  0  0  0  0  0  0  0
  141.4870   79.3640  222.7940 C   0  0  0  0  0  0  0  0  0  0  0  0
  140.6840   78.2860  222.1270 C   0  0  1  0  0  0  0  0  0  0  0  0
  139.2050   78.7630  222.3420 C   0  0  0  0  0  0  0  0  0  0  0  0
  138.6379   78.0072  222.9051 H   0  0  0  0  0  0  0  0  0  0  0  0
  138.6870   78.9127  221.3832 H   0  0  0  0  0  0  0  0  0  0  0  0
  141.0230   78.1070  220.6510 C   0  0  0  0  0  0  0  0  0  0  0  0
  142.1074   78.2016  220.4922 H   0  0  0  0  0  0  0  0  0  0  0  0
  140.5378   78.8720  220.0270 H   0  0  0  0  0  0  0  0  0  0  0  0
  140.5700   76.7540  220.3010 N   0  0  0  0  0  0  0  0  0  0  0  0
  141.3160   76.1900  219.1520 C   0  0  1  0  0  0  0  0  0  0  0  0
  140.5373   75.7322  218.5243 H   0  0  0  0  0  0  0  0  0  0  0  0
  142.1290   77.2560  218.4250 C   0  0  0  0  0  0  0  0  0  0  0  0
  142.4391   78.0378  219.1340 H   0  0  0  0  0  0  0  0  0  0  0  0
  141.5261   77.7241  217.6329 H   0  0  0  0  0  0  0  0  0  0  0  0
  143.3090   76.6080  217.8520 N   0  0  0  0  0  0  0  0  0  0  0  0
  143.1200   76.4190  216.8390 H   0  0  0  0  0  0  0  0  0  0  0  0
  143.4700   75.3230  218.5390 C   0  0  0  0  0  0  0  0  0  0  0  0
  144.4591   75.2791  219.0184 H   0  0  0  0  0  0  0  0  0  0  0  0
  143.3898   74.4958  217.8184 H   0  0  0  0  0  0  0  0  0  0  0  0
  142.3820   75.2050  219.5940 C   0  0  0  0  0  0  0  0  0  0  0  0
  142.7722   75.4738  220.5867 H   0  0  0  0  0  0  0  0  0  0  0  0
  141.9936   74.1796  219.6815 H   0  0  0  0  0  0  0  0  0  0  0  0
  140.7220   75.9460  221.5290 C   0  0  0  0  0  0  0  0  0  0  0  0
  141.5885   75.2758  221.4286 H   0  0  0  0  0  0  0  0  0  0  0  0
  139.8220   75.3358  221.6954 H   0  0  0  0  0  0  0  0  0  0  0  0
  140.9380   76.8970  222.7040 C   0  0  0  0  0  0  0  0  0  0  0  0
  141.9670   76.8168  223.0843 H   0  0  0  0  0  0  0  0  0  0  0  0
  140.2748   76.6699  223.5517 H   0  0  0  0  0  0  0  0  0  0  0  0
  137.7400   81.5060  225.5780 N   0  0  0  0  0  0  0  0  0  0  0  0
  138.6720   81.9040  225.8320 H   0  0  0  0  0  0  0  0  0  0  0  0
  136.6600   81.4270  226.3730 C   0  0  0  0  0  0  0  0  0  0  0  0
  136.5630   81.8150  227.7070 C   0  0  0  0  0  0  0  0  0  0  0  0
  137.4315   82.2319  228.2379 H   0  0  0  0  0  0  0  0  0  0  0  0
  1  2  1  0
  2  3  2  0
  3  4  1  0
  4  5  1  0
  3  6  1  0
  6  7  2  0
  7  8  1  0
  7  9  1  0
  9 10  1  0
  9 11  2  0
 11 12  1  0
 12 13  1  0
 12 14  2  0
 14 15  1  0
 15 16  2  0
 15 17  1  0
 17 18  1  0
 18 19  2  0
 19 20  1  0
 19 21  1  0
 21 22  1  0
 21 23  2  0
 23 24  1  0
 23 25  1  0
 25 26  1  0
 25 27  2  0
 27 28  1  0
 28 29  1  6
 29 30  1  0
 29 31  1  0
 28 32  1  0
 32 33  1  0
 32 34  1  0
 32 35  1  0
 35 36  1  0
 36 37  1  6
 36 38  1  0
 38 39  1  0
 38 40  1  0
 38 41  1  0
 41 42  1  0
 41 43  1  0
 43 44  1  0
 43 45  1  0
 43 46  1  0
 46 47  1  0
 46 48  1  0
 35 49  1  0
 49 50  1  0
 49 51  1  0
 49 52  1  0
 52 53  1  0
 52 54  1  0
 14 55  1  0
 55 56  1  0
 55 57  1  0
 57 58  2  0
 58 59  1  0
 58  6  1  0
 57 11  1  0
 29 17  1  0
 46 36  1  0
 27 18  1  0
 52 28  1  0
M  END
>  <UniqueID>  (3) 
39

>  <SMILES>  (3) 
[H]/N=C(\O)c1ccc2cc(C(=O)N3C[C@]4(CCN([C@@H]5CCNC5)C4)c4ccccc43)[nH]c2c1

>  <Energy>  (3) 
124.4375381262645

>  <Genealogy>  (3) 
N=C(O)c1ccc2cc(C(=O)N3C[C@]4(CCN(C5CCNC5)C4)c4ccccc43)[nH]c2c1 (tautomer)
N=C(O)c1ccc2cc(C(=O)N3C[C@]4(CCN([C@@H]5CCNC5)C4)c4ccccc43)[nH]c2c1 (chirality)
[H]/N=C(\O)c1ccc2cc(C(=O)N3C[C@]4(CCN([C@@H]5CCNC5)C4)c4ccccc43)[nH]c2c1 (cis-trans isomerization)
[H]/N=C(\O)c1ccc2cc(C(=O)N3C[C@]4(CCN([C@@H]5CCNC5)C4)c4ccccc43)[nH]c2c1 (3D coordinates assigned)
[H]/N=C(\O)c1ccc2cc(C(=O)N3C[C@]4(CCN([C@@H]5CCNC5)C4)c4ccccc43)[nH]c2c1 (nonaromatic ring conformer: 124.4375381262645 kcal/mol)

>  <smiles>  (3) 
NC(=O)c1ccc2cc(C(=O)N3C[C@]4(CCN(C5CCNC5)C4)c4ccccc43)[nH]c2c1

>  <score_type>  (3) 
oracle

>  <origin>  (3) 
autodockgpu

>  <m_score__min__energy>  (3) 
-9.2200000000000006

>  <m_primary>  (3) 
energy

>  <meeko>  (3) 
{"free_energy": -8.41, "intermolecular_energy": -10.2, "internal_energy": -1.02, "cluster_size": 2, "cluster_id": 4, "rank_in_cluster": 1}

>  <energy>  (3) 
-9.17

>  <cluster_rmsd>  (3) 
0.68

>  <rmsd>  (3) 
272.96

>  <cluster>  (3) 
1

$$$$
ATTQMMYACVSETC-GCOZCMQUNA-N
     RDKit          3D

 59 64  0  0  0  0  0  0  0  0999 V2000
  140.8580   67.2650  228.6770 H   0  0  0  0  0  0  0  0  0  0  0  0
  140.4020   68.1190  228.2840 N   0  0  0  0  0  0  0  0  0  0  0  0
  139.8500   68.1160  227.1110 C   0  0  0  0  0  0  0  0  0  0  0  0
  139.0910   67.0170  226.7050 O   0  0  0  0  0  0  0  0  0  0  0  0
  139.0740   66.1570  227.2390 H   0  0  0  0  0  0  0  0  0  0  0  0
  140.0190   69.2710  226.1990 C   0  0  0  0  0  0  0  0  0  0  0  0
  140.5370   70.5080  226.6750 C   0  0  0  0  0  0  0  0  0  0  0  0
  140.8111   70.6098  227.7354 H   0  0  0  0  0  0  0  0  0  0  0  0
  140.7030   71.6020  225.8070 C   0  0  0  0  0  0  0  0  0  0  0  0
  141.1073   72.5582  226.1705 H   0  0  0  0  0  0  0  0  0  0  0  0
  140.3400   71.4370  224.4750 C   0  0  0  0  0  0  0  0  0  0  0  0
  140.4060   72.3130  223.4140 C   0  0  0  0  0  0  0  0  0  0  0  0
  140.7672   73.3520  223.4240 H   0  0  0  0  0  0  0  0  0  0  0  0
  139.9150   71.5950  222.3250 C   0  0  0  0  0  0  0  0  0  0  0  0
  139.8200   72.1120  220.9490 C   0  0  0  0  0  0  0  0  0  0  0  0
  139.1040   71.5010  220.1100 O   0  0  0  0  0  0  0  0  0  0  0  0
  140.5520   73.2790  220.5450 N   0  0  0  0  0  0  0  0  0  0  0  0
  141.9680   73.3740  220.4930 C   0  0  0  0  0  0  0  0  0  0  0  0
  142.8760   72.3120  220.4100 C   0  0  0  0  0  0  0  0  0  0  0  0
  142.5227   71.2704  220.3953 H   0  0  0  0  0  0  0  0  0  0  0  0
  144.2470   72.6050  220.3460 C   0  0  0  0  0  0  0  0  0  0  0  0
  144.9801   71.7870  220.2878 H   0  0  0  0  0  0  0  0  0  0  0  0
  144.6870   73.9410  220.3560 C   0  0  0  0  0  0  0  0  0  0  0  0
  145.7632   74.1640  220.3111 H   0  0  0  0  0  0  0  0  0  0  0  0
  143.7580   74.9900  220.4230 C   0  0  0  0  0  0  0  0  0  0  0  0
  144.0939   76.0375  220.4260 H   0  0  0  0  0  0  0  0  0  0  0  0
  142.3940   74.6770  220.4860 C   0  0  0  0  0  0  0  0  0  0  0  0
  141.2200   75.6100  220.5420 C   0  0  1  0  0  0  0  0  0  0  0  0
  139.9940   74.6340  220.5990 C   0  0  0  0  0  0  0  0  0  0  0  0
  139.3276   74.8072  219.7411 H   0  0  0  0  0  0  0  0  0  0  0  0
  139.3989   74.7882  221.5112 H   0  0  0  0  0  0  0  0  0  0  0  0
  141.2590   76.5570  221.7380 C   0  0  0  0  0  0  0  0  0  0  0  0
  142.2861   76.9085  221.9157 H   0  0  0  0  0  0  0  0  0  0  0  0
  140.9240   76.0603  222.6606 H   0  0  0  0  0  0  0  0  0  0  0  0
  140.3870   77.6830  221.3810 N   0  0  0  0  0  0  0  0  0  0  0  0
  140.7500   78.9270  222.1000 C   0  0  1  0  0  0  0  0  0  0  0  0
  139.7954   79.4618  222.2123 H   0  0  0  0  0  0  0  0  0  0  0  0
  141.4380   78.6330  223.4280 C   0  0  0  0  0  0  0  0  0  0  0  0
  141.9936   77.6861  223.3597 H   0  0  0  0  0  0  0  0  0  0  0  0
  140.6944   78.5422  224.2335 H   0  0  0  0  0  0  0  0  0  0  0  0
  142.3620   79.7330  223.7080 N   0  0  0  0  0  0  0  0  0  0  0  0
  141.8970   80.3880  224.3810 H   0  0  0  0  0  0  0  0  0  0  0  0
  142.5790   80.4450  222.4450 C   0  0  0  0  0  0  0  0  0  0  0  0
  143.6507   80.4446  222.1972 H   0  0  0  0  0  0  0  0  0  0  0  0
  142.2379   81.4870  222.5339 H   0  0  0  0  0  0  0  0  0  0  0  0
  141.7990   79.7300  221.3540 C   0  0  0  0  0  0  0  0  0  0  0  0
  142.4586   79.0659  220.7762 H   0  0  0  0  0  0  0  0  0  0  0  0
  141.3539   80.4298  220.6313 H   0  0  0  0  0  0  0  0  0  0  0  0
  140.4890   77.8250  219.9140 C   0  0  0  0  0  0  0  0  0  0  0  0
  141.0986   78.7067  219.6670 H   0  0  0  0  0  0  0  0  0  0  0  0
  139.4888   77.9541  219.4749 H   0  0  0  0  0  0  0  0  0  0  0  0
  141.1510   76.5660  219.3560 C   0  0  0  0  0  0  0  0  0  0  0  0
  142.1598   76.7918  218.9800 H   0  0  0  0  0  0  0  0  0  0  0  0
  140.5919   76.1409  218.5094 H   0  0  0  0  0  0  0  0  0  0  0  0
  139.5760   70.3350  222.6900 N   0  0  0  0  0  0  0  0  0  0  0  0
  139.2290   69.5650  222.0760 H   0  0  0  0  0  0  0  0  0  0  0  0
  139.8370   70.2540  224.0040 C   0  0  0  0  0  0  0  0  0  0  0  0
  139.6650   69.1480  224.8340 C   0  0  0  0  0  0  0  0  0  0  0  0
  139.2642   68.2031  224.4384 H   0  0  0  0  0  0  0  0  0  0  0  0
  1  2  1  0
  2  3  2  0
  3  4  1  0
  4  5  1  0
  3  6  1  0
  6  7  2  0
  7  8  1  0
  7  9  1  0
  9 10  1  0
  9 11  2  0
 11 12  1  0
 12 13  1  0
 12 14  2  0
 14 15  1  0
 15 16  2  0
 15 17  1  0
 17 18  1  0
 18 19  2  0
 19 20  1  0
 19 21  1  0
 21 22  1  0
 21 23  2  0
 23 24  1  0
 23 25  1  0
 25 26  1  0
 25 27  2  0
 27 28  1  0
 28 29  1  1
 29 30  1  0
 29 31  1  0
 28 32  1  0
 32 33  1  0
 32 34  1  0
 32 35  1  0
 35 36  1  0
 36 37  1  1
 36 38  1  0
 38 39  1  0
 38 40  1  0
 38 41  1  0
 41 42  1  0
 41 43  1  0
 43 44  1  0
 43 45  1  0
 43 46  1  0
 46 47  1  0
 46 48  1  0
 35 49  1  0
 49 50  1  0
 49 51  1  0
 49 52  1  0
 52 53  1  0
 52 54  1  0
 14 55  1  0
 55 56  1  0
 55 57  1  0
 57 58  2  0
 58 59  1  0
 58  6  1  0
 57 11  1  0
 29 17  1  0
 46 36  1  0
 27 18  1  0
 52 28  1  0
M  END
>  <UniqueID>  (4) 
39

>  <SMILES>  (4) 
[H]/N=C(\O)c1ccc2cc(C(=O)N3C[C@]4(CCN([C@@H]5CCNC5)C4)c4ccccc43)[nH]c2c1

>  <Energy>  (4) 
124.4375381262645

>  <Genealogy>  (4) 
N=C(O)c1ccc2cc(C(=O)N3C[C@]4(CCN(C5CCNC5)C4)c4ccccc43)[nH]c2c1 (tautomer)
N=C(O)c1ccc2cc(C(=O)N3C[C@]4(CCN([C@@H]5CCNC5)C4)c4ccccc43)[nH]c2c1 (chirality)
[H]/N=C(\O)c1ccc2cc(C(=O)N3C[C@]4(CCN([C@@H]5CCNC5)C4)c4ccccc43)[nH]c2c1 (cis-trans isomerization)
[H]/N=C(\O)c1ccc2cc(C(=O)N3C[C@]4(CCN([C@@H]5CCNC5)C4)c4ccccc43)[nH]c2c1 (3D coordinates assigned)
[H]/N=C(\O)c1ccc2cc(C(=O)N3C[C@]4(CCN([C@@H]5CCNC5)C4)c4ccccc43)[nH]c2c1 (nonaromatic ring conformer: 124.4375381262645 kcal/mol)

>  <smiles>  (4) 
NC(=O)c1ccc2cc(C(=O)N3C[C@]4(CCN(C5CCNC5)C4)c4ccccc43)[nH]c2c1

>  <score_type>  (4) 
oracle

>  <origin>  (4) 
autodockgpu

>  <m_score__min__energy>  (4) 
-9.2200000000000006

>  <m_primary>  (4) 
energy

>  <meeko>  (4) 
{"free_energy": -8.47, "intermolecular_energy": -10.26, "internal_energy": -1.29, "cluster_size": 4, "cluster_id": 3, "rank_in_cluster": 1}

>  <energy>  (4) 
-9.14

>  <cluster_rmsd>  (4) 
0.8

>  <rmsd>  (4) 
272.92

>  <cluster>  (4) 
1

$$$$
ATTQMMYACVSETC-GCOZCMQUNA-N
     RDKit          3D

 59 64  0  0  0  0  0  0  0  0999 V2000
  134.4410   80.1440  228.9160 H   0  0  0  0  0  0  0  0  0  0  0  0
  134.3120   81.0470  229.4250 N   0  0  0  0  0  0  0  0  0  0  0  0
  135.0970   82.0590  229.2230 C   0  0  0  0  0  0  0  0  0  0  0  0
  135.4350   82.8970  230.2860 O   0  0  0  0  0  0  0  0  0  0  0  0
  136.3730   82.9200  230.6670 H   0  0  0  0  0  0  0  0  0  0  0  0
  135.6370   82.3320  227.8700 C   0  0  0  0  0  0  0  0  0  0  0  0
  135.6780   83.6570  227.3540 C   0  0  0  0  0  0  0  0  0  0  0  0
  135.2998   84.4897  227.9652 H   0  0  0  0  0  0  0  0  0  0  0  0
  136.1960   83.9160  226.0720 C   0  0  0  0  0  0  0  0  0  0  0  0
  136.2321   84.9396  225.6708 H   0  0  0  0  0  0  0  0  0  0  0  0
  136.6610   82.8370  225.3280 C   0  0  0  0  0  0  0  0  0  0  0  0
  137.2260   82.7920  224.0730 C   0  0  0  0  0  0  0  0  0  0  0  0
  137.4183   83.6358  223.3940 H   0  0  0  0  0  0  0  0  0  0  0  0
  137.5010   81.4440  223.8510 C   0  0  0  0  0  0  0  0  0  0  0  0
  138.1450   80.9030  222.6410 C   0  0  0  0  0  0  0  0  0  0  0  0
  137.7390   81.2780  221.5080 O   0  0  0  0  0  0  0  0  0  0  0  0
  139.2040   79.9380  222.7360 N   0  0  0  0  0  0  0  0  0  0  0  0
  140.5490   80.2380  223.0820 C   0  0  0  0  0  0  0  0  0  0  0  0
  141.0050   81.3680  223.7710 C   0  0  0  0  0  0  0  0  0  0  0  0
  140.3029   82.1512  224.0929 H   0  0  0  0  0  0  0  0  0  0  0  0
  142.3770   81.4800  224.0420 C   0  0  0  0  0  0  0  0  0  0  0  0
  142.7598   82.3625  224.5756 H   0  0  0  0  0  0  0  0  0  0  0  0
  143.2650   80.4680  223.6340 C   0  0  0  0  0  0  0  0  0  0  0  0
  144.3403   80.5640  223.8450 H   0  0  0  0  0  0  0  0  0  0  0  0
  142.7830   79.3370  222.9590 C   0  0  0  0  0  0  0  0  0  0  0  0
  143.4700   78.5391  222.6407 H   0  0  0  0  0  0  0  0  0  0  0  0
  141.4100   79.2430  222.6980 C   0  0  0  0  0  0  0  0  0  0  0  0
  140.6580   78.1360  222.0180 C   0  0  1  0  0  0  0  0  0  0  0  0
  139.1750   78.6460  222.0460 C   0  0  0  0  0  0  0  0  0  0  0  0
  138.5370   77.9356  222.5921 H   0  0  0  0  0  0  0  0  0  0  0  0
  138.7630   78.7413  221.0305 H   0  0  0  0  0  0  0  0  0  0  0  0
  141.1460   77.8580  220.6000 C   0  0  0  0  0  0  0  0  0  0  0  0
  142.2427   77.9275  220.5512 H   0  0  0  0  0  0  0  0  0  0  0  0
  140.7443   78.5879  219.8818 H   0  0  0  0  0  0  0  0  0  0  0  0
  140.7050   76.4920  220.2890 N   0  0  0  0  0  0  0  0  0  0  0  0
  141.5550   75.8450  219.2620 C   0  0  1  0  0  0  0  0  0  0  0  0
  140.8358   75.3968  218.5606 H   0  0  0  0  0  0  0  0  0  0  0  0
  142.5030   76.8400  218.6020 C   0  0  0  0  0  0  0  0  0  0  0  0
  142.7641   77.6365  219.3143 H   0  0  0  0  0  0  0  0  0  0  0  0
  142.0252   77.3008  217.7249 H   0  0  0  0  0  0  0  0  0  0  0  0
  143.7100   76.1140  218.2030 N   0  0  0  0  0  0  0  0  0  0  0  0
  143.6350   75.8920  217.1820 H   0  0  0  0  0  0  0  0  0  0  0  0
  143.7210   74.8540  218.9520 C   0  0  0  0  0  0  0  0  0  0  0  0
  144.6408   74.7857  219.5513 H   0  0  0  0  0  0  0  0  0  0  0  0
  143.6874   74.0008  218.2585 H   0  0  0  0  0  0  0  0  0  0  0  0
  142.5080   74.8320  219.8680 C   0  0  0  0  0  0  0  0  0  0  0  0
  142.7879   75.1250  220.8907 H   0  0  0  0  0  0  0  0  0  0  0  0
  142.0600   73.8303  219.9444 H   0  0  0  0  0  0  0  0  0  0  0  0
  140.7110   75.7620  221.5730 C   0  0  0  0  0  0  0  0  0  0  0  0
  141.5690   75.0745  221.6061 H   0  0  0  0  0  0  0  0  0  0  0  0
  139.7860   75.1766  221.6808 H   0  0  0  0  0  0  0  0  0  0  0  0
  140.8230   76.7830  222.7040 C   0  0  0  0  0  0  0  0  0  0  0  0
  141.8052   76.7133  223.1944 H   0  0  0  0  0  0  0  0  0  0  0  0
  140.0713   76.6192  223.4902 H   0  0  0  0  0  0  0  0  0  0  0  0
  137.1380   80.6940  224.9200 N   0  0  0  0  0  0  0  0  0  0  0  0
  137.2700   79.6670  225.0530 H   0  0  0  0  0  0  0  0  0  0  0  0
  136.6240   81.5560  225.8110 C   0  0  0  0  0  0  0  0  0  0  0  0
  136.1230   81.2640  227.0780 C   0  0  0  0  0  0  0  0  0  0  0  0
  136.1056   80.2301  227.4532 H   0  0  0  0  0  0  0  0  0  0  0  0
  1  2  1  0
  2  3  2  0
  3  4  1  0
  4  5  1  0
  3  6  1  0
  6  7  2  0
  7  8  1  0
  7  9  1  0
  9 10  1  0
  9 11  2  0
 11 12  1  0
 12 13  1  0
 12 14  2  0
 14 15  1  0
 15 16  2  0
 15 17  1  0
 17 18  1  0
 18 19  2  0
 19 20  1  0
 19 21  1  0
 21 22  1  0
 21 23  2  0
 23 24  1  0
 23 25  1  0
 25 26  1  0
 25 27  2  0
 27 28  1  0
 28 29  1  6
 29 30  1  0
 29 31  1  0
 28 32  1  0
 32 33  1  0
 32 34  1  0
 32 35  1  0
 35 36  1  0
 36 37  1  6
 36 38  1  0
 38 39  1  0
 38 40  1  0
 38 41  1  0
 41 42  1  0
 41 43  1  0
 43 44  1  0
 43 45  1  0
 43 46  1  0
 46 47  1  0
 46 48  1  0
 35 49  1  0
 49 50  1  0
 49 51  1  0
 49 52  1  0
 52 53  1  0
 52 54  1  0
 14 55  1  0
 55 56  1  0
 55 57  1  0
 57 58  2  0
 58 59  1  0
 58  6  1  0
 57 11  1  0
 29 17  1  0
 46 36  1  0
 27 18  1  0
 52 28  1  0
M  END
>  <UniqueID>  (5) 
39

>  <SMILES>  (5) 
[H]/N=C(\O)c1ccc2cc(C(=O)N3C[C@]4(CCN([C@@H]5CCNC5)C4)c4ccccc43)[nH]c2c1

>  <Energy>  (5) 
124.4375381262645

>  <Genealogy>  (5) 
N=C(O)c1ccc2cc(C(=O)N3C[C@]4(CCN(C5CCNC5)C4)c4ccccc43)[nH]c2c1 (tautomer)
N=C(O)c1ccc2cc(C(=O)N3C[C@]4(CCN([C@@H]5CCNC5)C4)c4ccccc43)[nH]c2c1 (chirality)
[H]/N=C(\O)c1ccc2cc(C(=O)N3C[C@]4(CCN([C@@H]5CCNC5)C4)c4ccccc43)[nH]c2c1 (cis-trans isomerization)
[H]/N=C(\O)c1ccc2cc(C(=O)N3C[C@]4(CCN([C@@H]5CCNC5)C4)c4ccccc43)[nH]c2c1 (3D coordinates assigned)
[H]/N=C(\O)c1ccc2cc(C(=O)N3C[C@]4(CCN([C@@H]5CCNC5)C4)c4ccccc43)[nH]c2c1 (nonaromatic ring conformer: 124.4375381262645 kcal/mol)

>  <smiles>  (5) 
NC(=O)c1ccc2cc(C(=O)N3C[C@]4(CCN(C5CCNC5)C4)c4ccccc43)[nH]c2c1

>  <score_type>  (5) 
oracle

>  <origin>  (5) 
autodockgpu

>  <m_score__min__energy>  (5) 
-9.2200000000000006

>  <m_primary>  (5) 
energy

>  <meeko>  (5) 
{"free_energy": -7.93, "intermolecular_energy": -9.72, "internal_energy": -1.09, "cluster_size": 2, "cluster_id": 4, "rank_in_cluster": 2}

>  <energy>  (5) 
-8.95

>  <cluster_rmsd>  (5) 
0.57

>  <rmsd>  (5) 
273.12

>  <cluster>  (5) 
1

$$$$
ATTQMMYACVSETC-GCOZCMQUNA-N
     RDKit          3D

 59 64  0  0  0  0  0  0  0  0999 V2000
  139.1710   66.0950  227.1980 H   0  0  0  0  0  0  0  0  0  0  0  0
  139.1640   67.0100  226.6950 N   0  0  0  0  0  0  0  0  0  0  0  0
  139.9910   67.9600  227.0020 C   0  0  0  0  0  0  0  0  0  0  0  0
  140.7630   67.8600  228.1590 O   0  0  0  0  0  0  0  0  0  0  0  0
  141.7530   68.0760  228.1570 H   0  0  0  0  0  0  0  0  0  0  0  0
  140.1200   69.1520  226.1300 C   0  0  0  0  0  0  0  0  0  0  0  0
  140.7610   70.3330  226.5990 C   0  0  0  0  0  0  0  0  0  0  0  0
  141.1613   70.3635  227.6231 H   0  0  0  0  0  0  0  0  0  0  0  0
  140.8890   71.4610  225.7700 C   0  0  0  0  0  0  0  0  0  0  0  0
  141.3867   72.3744  226.1278 H   0  0  0  0  0  0  0  0  0  0  0  0
  140.3670   71.3860  224.4840 C   0  0  0  0  0  0  0  0  0  0  0  0
  140.3610   72.3130  223.4640 C   0  0  0  0  0  0  0  0  0  0  0  0
  140.7813   73.3294  223.4795 H   0  0  0  0  0  0  0  0  0  0  0  0
  139.7060   71.6810  222.4090 C   0  0  0  0  0  0  0  0  0  0  0  0
  139.4830   72.2740  221.0790 C   0  0  0  0  0  0  0  0  0  0  0  0
  138.6430   71.7440  220.3020 O   0  0  0  0  0  0  0  0  0  0  0  0
  140.2280   73.4230  220.6470 N   0  0  0  0  0  0  0  0  0  0  0  0
  141.6420   73.4770  220.5230 C   0  0  0  0  0  0  0  0  0  0  0  0
  142.5120   72.3890  220.3850 C   0  0  0  0  0  0  0  0  0  0  0  0
  142.1271   71.3585  220.3801 H   0  0  0  0  0  0  0  0  0  0  0  0
  143.8860   72.6420  220.2530 C   0  0  0  0  0  0  0  0  0  0  0  0
  144.5903   71.8032  220.1507 H   0  0  0  0  0  0  0  0  0  0  0  0
  144.3660   73.9640  220.2510 C   0  0  0  0  0  0  0  0  0  0  0  0
  145.4447   74.1554  220.1519 H   0  0  0  0  0  0  0  0  0  0  0  0
  143.4740   75.0390  220.3750 C   0  0  0  0  0  0  0  0  0  0  0  0
  143.8411   76.0759  220.3703 H   0  0  0  0  0  0  0  0  0  0  0  0
  142.1060   74.7660  220.5050 C   0  0  0  0  0  0  0  0  0  0  0  0
  140.9650   75.7330  220.6300 C   0  0  1  0  0  0  0  0  0  0  0  0
  139.7150   74.7930  220.7410 C   0  0  0  0  0  0  0  0  0  0  0  0
  139.0115   74.9945  219.9198 H   0  0  0  0  0  0  0  0  0  0  0  0
  139.1721   74.9554  221.6838 H   0  0  0  0  0  0  0  0  0  0  0  0
  141.0930   76.6660  221.8290 C   0  0  0  0  0  0  0  0  0  0  0  0
  142.1379   76.9853  221.9566 H   0  0  0  0  0  0  0  0  0  0  0  0
  140.7905   76.1703  222.7632 H   0  0  0  0  0  0  0  0  0  0  0  0
  140.2380   77.8210  221.5270 N   0  0  0  0  0  0  0  0  0  0  0  0
  140.6740   79.0460  222.2360 C   0  0  1  0  0  0  0  0  0  0  0  0
  139.7389   79.5935  222.4251 H   0  0  0  0  0  0  0  0  0  0  0  0
  141.4520   78.7200  223.5070 C   0  0  0  0  0  0  0  0  0  0  0  0
  141.9837   77.7648  223.3850 H   0  0  0  0  0  0  0  0  0  0  0  0
  140.7670   78.6302  224.3630 H   0  0  0  0  0  0  0  0  0  0  0  0
  142.4140   79.7990  223.7350 N   0  0  0  0  0  0  0  0  0  0  0  0
  142.0100   80.4500  224.4500 H   0  0  0  0  0  0  0  0  0  0  0  0
  142.5500   80.5280  222.4710 C   0  0  0  0  0  0  0  0  0  0  0  0
  143.6007   80.5148  222.1456 H   0  0  0  0  0  0  0  0  0  0  0  0
  142.2333   81.5733  222.6014 H   0  0  0  0  0  0  0  0  0  0  0  0
  141.6810   79.8450  221.4280 C   0  0  0  0  0  0  0  0  0  0  0  0
  142.2854   79.1802  220.7933 H   0  0  0  0  0  0  0  0  0  0  0  0
  141.1974   80.5642  220.7506 H   0  0  0  0  0  0  0  0  0  0  0  0
  140.2690   77.9750  220.0580 C   0  0  0  0  0  0  0  0  0  0  0  0
  140.8918   78.8404  219.7875 H   0  0  0  0  0  0  0  0  0  0  0  0
  139.2521   78.1388  219.6719 H   0  0  0  0  0  0  0  0  0  0  0  0
  140.8630   76.7020  219.4560 C   0  0  0  0  0  0  0  0  0  0  0  0
  141.8571   76.9013  219.0294 H   0  0  0  0  0  0  0  0  0  0  0  0
  140.2481   76.3015  218.6365 H   0  0  0  0  0  0  0  0  0  0  0  0
  139.3380   70.4220  222.7520 N   0  0  0  0  0  0  0  0  0  0  0  0
  138.8790   69.7050  222.1480 H   0  0  0  0  0  0  0  0  0  0  0  0
  139.7440   70.2580  224.0210 C   0  0  0  0  0  0  0  0  0  0  0  0
  139.6050   69.1200  224.8130 C   0  0  0  0  0  0  0  0  0  0  0  0
  139.1073   68.2195  224.4239 H   0  0  0  0  0  0  0  0  0  0  0  0
  1  2  1  0
  2  3  2  0
  3  4  1  0
  4  5  1  0
  3  6  1  0
  6  7  2  0
  7  8  1  0
  7  9  1  0
  9 10  1  0
  9 11  2  0
 11 12  1  0
 12 13  1  0
 12 14  2  0
 14 15  1  0
 15 16  2  0
 15 17  1  0
 17 18  1  0
 18 19  2  0
 19 20  1  0
 19 21  1  0
 21 22  1  0
 21 23  2  0
 23 24  1  0
 23 25  1  0
 25 26  1  0
 25 27  2  0
 27 28  1  0
 28 29  1  1
 29 30  1  0
 29 31  1  0
 28 32  1  0
 32 33  1  0
 32 34  1  0
 32 35  1  0
 35 36  1  0
 36 37  1  1
 36 38  1  0
 38 39  1  0
 38 40  1  0
 38 41  1  0
 41 42  1  0
 41 43  1  0
 43 44  1  0
 43 45  1  0
 43 46  1  0
 46 47  1  0
 46 48  1  0
 35 49  1  0
 49 50  1  0
 49 51  1  0
 49 52  1  0
 52 53  1  0
 52 54  1  0
 14 55  1  0
 55 56  1  0
 55 57  1  0
 57 58  2  0
 58 59  1  0
 58  6  1  0
 57 11  1  0
 29 17  1  0
 46 36  1  0
 27 18  1  0
 52 28  1  0
M  END
>  <UniqueID>  (6) 
39

>  <SMILES>  (6) 
[H]/N=C(\O)c1ccc2cc(C(=O)N3C[C@]4(CCN([C@@H]5CCNC5)C4)c4ccccc43)[nH]c2c1

>  <Energy>  (6) 
124.4375381262645

>  <Genealogy>  (6) 
N=C(O)c1ccc2cc(C(=O)N3C[C@]4(CCN(C5CCNC5)C4)c4ccccc43)[nH]c2c1 (tautomer)
N=C(O)c1ccc2cc(C(=O)N3C[C@]4(CCN([C@@H]5CCNC5)C4)c4ccccc43)[nH]c2c1 (chirality)
[H]/N=C(\O)c1ccc2cc(C(=O)N3C[C@]4(CCN([C@@H]5CCNC5)C4)c4ccccc43)[nH]c2c1 (cis-trans isomerization)
[H]/N=C(\O)c1ccc2cc(C(=O)N3C[C@]4(CCN([C@@H]5CCNC5)C4)c4ccccc43)[nH]c2c1 (3D coordinates assigned)
[H]/N=C(\O)c1ccc2cc(C(=O)N3C[C@]4(CCN([C@@H]5CCNC5)C4)c4ccccc43)[nH]c2c1 (nonaromatic ring conformer: 124.4375381262645 kcal/mol)

>  <smiles>  (6) 
NC(=O)c1ccc2cc(C(=O)N3C[C@]4(CCN(C5CCNC5)C4)c4ccccc43)[nH]c2c1

>  <score_type>  (6) 
oracle

>  <origin>  (6) 
autodockgpu

>  <m_score__min__energy>  (6) 
-9.2200000000000006

>  <m_primary>  (6) 
energy

>  <meeko>  (6) 
{"free_energy": -8.09, "intermolecular_energy": -9.88, "internal_energy": -1.33, "cluster_size": 4, "cluster_id": 3, "rank_in_cluster": 3}

>  <energy>  (6) 
-8.95

>  <cluster_rmsd>  (6) 
0.81

>  <rmsd>  (6) 
272.97

>  <cluster>  (6) 
1

$$$$
ATTQMMYACVSETC-GCOZCMQUNA-N
     RDKit          3D

 59 64  0  0  0  0  0  0  0  0999 V2000
  146.6640   74.1280  218.6830 H   0  0  0  0  0  0  0  0  0  0  0  0
  146.1540   73.2170  218.6960 N   0  0  0  0  0  0  0  0  0  0  0  0
  145.1340   73.0210  219.4710 C   0  0  0  0  0  0  0  0  0  0  0  0
  145.0660   71.8640  220.2490 O   0  0  0  0  0  0  0  0  0  0  0  0
  145.5370   71.7980  221.1440 H   0  0  0  0  0  0  0  0  0  0  0  0
  144.0380   74.0170  219.5360 C   0  0  0  0  0  0  0  0  0  0  0  0
  143.7310   74.8380  218.4150 C   0  0  0  0  0  0  0  0  0  0  0  0
  144.3170   74.7356  217.4897 H   0  0  0  0  0  0  0  0  0  0  0  0
  142.6870   75.7790  218.4760 C   0  0  0  0  0  0  0  0  0  0  0  0
  142.4433   76.4127  217.6105 H   0  0  0  0  0  0  0  0  0  0  0  0
  141.9730   75.8830  219.6640 C   0  0  0  0  0  0  0  0  0  0  0  0
  140.9080   76.6890  220.0010 C   0  0  0  0  0  0  0  0  0  0  0  0
  140.4070   77.4368  219.3687 H   0  0  0  0  0  0  0  0  0  0  0  0
  140.6040   76.3500  221.3180 C   0  0  0  0  0  0  0  0  0  0  0  0
  139.5040   76.9330  222.1060 C   0  0  0  0  0  0  0  0  0  0  0  0
  138.5920   76.1790  222.5400 O   0  0  0  0  0  0  0  0  0  0  0  0
  139.4430   78.3450  222.3590 N   0  0  0  0  0  0  0  0  0  0  0  0
  140.5340   79.1400  222.8020 C   0  0  0  0  0  0  0  0  0  0  0  0
  141.8950   78.8360  222.6820 C   0  0  0  0  0  0  0  0  0  0  0  0
  142.2215   77.8926  222.2200 H   0  0  0  0  0  0  0  0  0  0  0  0
  142.8340   79.7610  223.1640 C   0  0  0  0  0  0  0  0  0  0  0  0
  143.9091   79.5411  223.0874 H   0  0  0  0  0  0  0  0  0  0  0  0
  142.4050   80.9690  223.7450 C   0  0  0  0  0  0  0  0  0  0  0  0
  143.1455   81.6878  224.1257 H   0  0  0  0  0  0  0  0  0  0  0  0
  141.0360   81.2590  223.8400 C   0  0  0  0  0  0  0  0  0  0  0  0
  140.6928   82.2031  224.2882 H   0  0  0  0  0  0  0  0  0  0  0  0
  140.1140   80.3230  223.3530 C   0  0  0  0  0  0  0  0  0  0  0  0
  138.6160   80.4110  223.3230 C   0  0  1  0  0  0  0  0  0  0  0  0
  138.1960   79.0530  222.6610 C   0  0  0  0  0  0  0  0  0  0  0  0
  137.6287   79.2382  221.7369 H   0  0  0  0  0  0  0  0  0  0  0  0
  137.5507   78.4632  223.3286 H   0  0  0  0  0  0  0  0  0  0  0  0
  137.9950   80.5970  224.7030 C   0  0  0  0  0  0  0  0  0  0  0  0
  138.6025   81.2867  225.3074 H   0  0  0  0  0  0  0  0  0  0  0  0
  137.9401   79.6474  225.2555 H   0  0  0  0  0  0  0  0  0  0  0  0
  136.6610   81.1640  224.4640 N   0  0  0  0  0  0  0  0  0  0  0  0
  136.1660   81.9460  225.6210 C   0  0  1  0  0  0  0  0  0  0  0  0
  135.4473   81.2735  226.1121 H   0  0  0  0  0  0  0  0  0  0  0  0
  137.3030   82.3870  226.5360 C   0  0  0  0  0  0  0  0  0  0  0  0
  138.2222   82.5282  225.9485 H   0  0  0  0  0  0  0  0  0  0  0  0
  137.4947   81.6233  227.3041 H   0  0  0  0  0  0  0  0  0  0  0  0
  136.9130   83.6520  227.1610 N   0  0  0  0  0  0  0  0  0  0  0  0
  136.5550   83.4450  228.1230 H   0  0  0  0  0  0  0  0  0  0  0  0
  135.8110   84.2020  226.3650 C   0  0  0  0  0  0  0  0  0  0  0  0
  136.0849   85.1992  225.9902 H   0  0  0  0  0  0  0  0  0  0  0  0
  134.9062   84.2932  226.9838 H   0  0  0  0  0  0  0  0  0  0  0  0
  135.5520   83.2670  225.1950 C   0  0  0  0  0  0  0  0  0  0  0  0
  136.0355   83.6439  224.2817 H   0  0  0  0  0  0  0  0  0  0  0  0
  134.4808   83.1747  224.9626 H   0  0  0  0  0  0  0  0  0  0  0  0
  136.7800   81.9790  223.2380 C   0  0  0  0  0  0  0  0  0  0  0  0
  136.7745   83.0475  223.4993 H   0  0  0  0  0  0  0  0  0  0  0  0
  135.9342   81.7772  222.5643 H   0  0  0  0  0  0  0  0  0  0  0  0
  138.0980   81.6210  222.5520 C   0  0  0  0  0  0  0  0  0  0  0  0
  138.8097   82.4572  222.6176 H   0  0  0  0  0  0  0  0  0  0  0  0
  137.9668   81.4085  221.4807 H   0  0  0  0  0  0  0  0  0  0  0  0
  141.4290   75.3730  221.7690 N   0  0  0  0  0  0  0  0  0  0  0  0
  141.4000   74.8920  222.6960 H   0  0  0  0  0  0  0  0  0  0  0  0
  142.2600   75.1010  220.7510 C   0  0  0  0  0  0  0  0  0  0  0  0
  143.2830   74.1560  220.7240 C   0  0  0  0  0  0  0  0  0  0  0  0
  143.4984   73.5332  221.6048 H   0  0  0  0  0  0  0  0  0  0  0  0
  1  2  1  0
  2  3  2  0
  3  4  1  0
  4  5  1  0
  3  6  1  0
  6  7  2  0
  7  8  1  0
  7  9  1  0
  9 10  1  0
  9 11  2  0
 11 12  1  0
 12 13  1  0
 12 14  2  0
 14 15  1  0
 15 16  2  0
 15 17  1  0
 17 18  1  0
 18 19  2  0
 19 20  1  0
 19 21  1  0
 21 22  1  0
 21 23  2  0
 23 24  1  0
 23 25  1  0
 25 26  1  0
 25 27  2  0
 27 28  1  0
 28 29  1  6
 29 30  1  0
 29 31  1  0
 28 32  1  0
 32 33  1  0
 32 34  1  0
 32 35  1  0
 35 36  1  0
 36 37  1  1
 36 38  1  0
 38 39  1  0
 38 40  1  0
 38 41  1  0
 41 42  1  0
 41 43  1  0
 43 44  1  0
 43 45  1  0
 43 46  1  0
 46 47  1  0
 46 48  1  0
 35 49  1  0
 49 50  1  0
 49 51  1  0
 49 52  1  0
 52 53  1  0
 52 54  1  0
 14 55  1  0
 55 56  1  0
 55 57  1  0
 57 58  2  0
 58 59  1  0
 58  6  1  0
 57 11  1  0
 29 17  1  0
 46 36  1  0
 27 18  1  0
 52 28  1  0
M  END
>  <UniqueID>  (7) 
39

>  <SMILES>  (7) 
[H]/N=C(\O)c1ccc2cc(C(=O)N3C[C@]4(CCN([C@@H]5CCNC5)C4)c4ccccc43)[nH]c2c1

>  <Energy>  (7) 
124.4375381262645

>  <Genealogy>  (7) 
N=C(O)c1ccc2cc(C(=O)N3C[C@]4(CCN(C5CCNC5)C4)c4ccccc43)[nH]c2c1 (tautomer)
N=C(O)c1ccc2cc(C(=O)N3C[C@]4(CCN([C@@H]5CCNC5)C4)c4ccccc43)[nH]c2c1 (chirality)
[H]/N=C(\O)c1ccc2cc(C(=O)N3C[C@]4(CCN([C@@H]5CCNC5)C4)c4ccccc43)[nH]c2c1 (cis-trans isomerization)
[H]/N=C(\O)c1ccc2cc(C(=O)N3C[C@]4(CCN([C@@H]5CCNC5)C4)c4ccccc43)[nH]c2c1 (3D coordinates assigned)
[H]/N=C(\O)c1ccc2cc(C(=O)N3C[C@]4(CCN([C@@H]5CCNC5)C4)c4ccccc43)[nH]c2c1 (nonaromatic ring conformer: 124.4375381262645 kcal/mol)

>  <smiles>  (7) 
NC(=O)c1ccc2cc(C(=O)N3C[C@]4(CCN(C5CCNC5)C4)c4ccccc43)[nH]c2c1

>  <score_type>  (7) 
oracle

>  <origin>  (7) 
autodockgpu

>  <m_score__min__energy>  (7) 
-9.2200000000000006

>  <m_primary>  (7) 
energy

>  <meeko>  (7) 
{"free_energy": -8.95, "intermolecular_energy": -10.74, "internal_energy": -1.11, "cluster_size": 11, "cluster_id": 1, "rank_in_cluster": 5}

>  <energy>  (7) 
-8.92

>  <cluster_rmsd>  (7) 
0.57

>  <rmsd>  (7) 
273.13

>  <cluster>  (7) 
1

$$$$
ATTQMMYACVSETC-GCOZCMQUNA-N
     RDKit          3D

 59 64  0  0  0  0  0  0  0  0999 V2000
  139.4140   66.0590  227.1050 H   0  0  0  0  0  0  0  0  0  0  0  0
  139.1650   67.0190  226.7770 N   0  0  0  0  0  0  0  0  0  0  0  0
  139.8200   68.0640  227.1740 C   0  0  0  0  0  0  0  0  0  0  0  0
  140.2860   68.1330  228.4880 O   0  0  0  0  0  0  0  0  0  0  0  0
  141.2570   68.3290  228.6970 H   0  0  0  0  0  0  0  0  0  0  0  0
  140.0780   69.1870  226.2420 C   0  0  0  0  0  0  0  0  0  0  0  0
  141.2290   70.0100  226.3910 C   0  0  0  0  0  0  0  0  0  0  0  0
  141.9344   69.8138  227.2119 H   0  0  0  0  0  0  0  0  0  0  0  0
  141.4760   71.0710  225.5020 C   0  0  0  0  0  0  0  0  0  0  0  0
  142.3679   71.7056  225.6103 H   0  0  0  0  0  0  0  0  0  0  0  0
  140.5580   71.2930  224.4820 C   0  0  0  0  0  0  0  0  0  0  0  0
  140.5490   72.2320  223.4740 C   0  0  0  0  0  0  0  0  0  0  0  0
  141.2948   73.0177  223.2833 H   0  0  0  0  0  0  0  0  0  0  0  0
  139.3890   71.9690  222.7490 C   0  0  0  0  0  0  0  0  0  0  0  0
  138.9640   72.7020  221.5440 C   0  0  0  0  0  0  0  0  0  0  0  0
  138.0040   72.2560  220.8590 O   0  0  0  0  0  0  0  0  0  0  0  0
  139.6430   73.8960  221.1260 N   0  0  0  0  0  0  0  0  0  0  0  0
  140.9920   73.9530  220.6850 C   0  0  0  0  0  0  0  0  0  0  0  0
  141.7560   72.8900  220.1890 C   0  0  0  0  0  0  0  0  0  0  0  0
  141.3327   71.8769  220.1220 H   0  0  0  0  0  0  0  0  0  0  0  0
  143.0740   73.1450  219.7790 C   0  0  0  0  0  0  0  0  0  0  0  0
  143.6960   72.3246  219.3915 H   0  0  0  0  0  0  0  0  0  0  0  0
  143.6020   74.4460  219.8620 C   0  0  0  0  0  0  0  0  0  0  0  0
  144.6375   74.6384  219.5446 H   0  0  0  0  0  0  0  0  0  0  0  0
  142.8130   75.4990  220.3480 C   0  0  0  0  0  0  0  0  0  0  0  0
  143.2172   76.5201  220.4109 H   0  0  0  0  0  0  0  0  0  0  0  0
  141.4990   75.2240  220.7520 C   0  0  0  0  0  0  0  0  0  0  0  0
  140.4640   76.1730  221.2800 C   0  0  1  0  0  0  0  0  0  0  0  0
  139.2290   75.2400  221.5390 C   0  0  0  0  0  0  0  0  0  0  0  0
  138.3665   75.5739  220.9436 H   0  0  0  0  0  0  0  0  0  0  0  0
  138.9239   75.2602  222.5957 H   0  0  0  0  0  0  0  0  0  0  0  0
  140.9060   76.9070  222.5420 C   0  0  0  0  0  0  0  0  0  0  0  0
  141.9662   77.1911  222.4693 H   0  0  0  0  0  0  0  0  0  0  0  0
  140.8024   76.2758  223.4369 H   0  0  0  0  0  0  0  0  0  0  0  0
  140.0590   78.1040  222.6210 N   0  0  0  0  0  0  0  0  0  0  0  0
  140.7030   79.2000  223.3840 C   0  0  1  0  0  0  0  0  0  0  0  0
  140.1814   79.1965  224.3524 H   0  0  0  0  0  0  0  0  0  0  0  0
  142.2090   78.9960  223.5080 C   0  0  0  0  0  0  0  0  0  0  0  0
  142.5857   78.4495  222.6308 H   0  0  0  0  0  0  0  0  0  0  0  0
  142.4436   78.4109  224.4094 H   0  0  0  0  0  0  0  0  0  0  0  0
  142.8370   80.3160  223.5790 N   0  0  0  0  0  0  0  0  0  0  0  0
  143.0360   80.5290  224.5850 H   0  0  0  0  0  0  0  0  0  0  0  0
  141.8550   81.2860  223.0860 C   0  0  0  0  0  0  0  0  0  0  0  0
  142.2711   81.8320  222.2265 H   0  0  0  0  0  0  0  0  0  0  0  0
  141.6069   82.0086  223.8774 H   0  0  0  0  0  0  0  0  0  0  0  0
  140.6080   80.5300  222.6590 C   0  0  0  0  0  0  0  0  0  0  0  0
  140.5988   80.3791  221.5694 H   0  0  0  0  0  0  0  0  0  0  0  0
  139.6842   81.0748  222.9038 H   0  0  0  0  0  0  0  0  0  0  0  0
  139.7610   78.4830  221.2250 C   0  0  0  0  0  0  0  0  0  0  0  0
  140.3450   79.3731  220.9483 H   0  0  0  0  0  0  0  0  0  0  0  0
  138.6915   78.7154  221.1149 H   0  0  0  0  0  0  0  0  0  0  0  0
  140.1420   77.3130  220.3200 C   0  0  0  0  0  0  0  0  0  0  0  0
  141.0207   77.5654  219.7083 H   0  0  0  0  0  0  0  0  0  0  0  0
  139.3382   77.0511  219.6162 H   0  0  0  0  0  0  0  0  0  0  0  0
  138.7210   70.9110  223.2710 N   0  0  0  0  0  0  0  0  0  0  0  0
  137.8520   70.4630  222.9060 H   0  0  0  0  0  0  0  0  0  0  0  0
  139.4440   70.5120  224.3300 C   0  0  0  0  0  0  0  0  0  0  0  0
  139.1710   69.4490  225.1870 C   0  0  0  0  0  0  0  0  0  0  0  0
  138.2734   68.8286  225.0478 H   0  0  0  0  0  0  0  0  0  0  0  0
  1  2  1  0
  2  3  2  0
  3  4  1  0
  4  5  1  0
  3  6  1  0
  6  7  2  0
  7  8  1  0
  7  9  1  0
  9 10  1  0
  9 11  2  0
 11 12  1  0
 12 13  1  0
 12 14  2  0
 14 15  1  0
 15 16  2  0
 15 17  1  0
 17 18  1  0
 18 19  2  0
 19 20  1  0
 19 21  1  0
 21 22  1  0
 21 23  2  0
 23 24  1  0
 23 25  1  0
 25 26  1  0
 25 27  2  0
 27 28  1  0
 28 29  1  1
 29 30  1  0
 29 31  1  0
 28 32  1  0
 32 33  1  0
 32 34  1  0
 32 35  1  0
 35 36  1  0
 36 37  1  1
 36 38  1  0
 38 39  1  0
 38 40  1  0
 38 41  1  0
 41 42  1  0
 41 43  1  0
 43 44  1  0
 43 45  1  0
 43 46  1  0
 46 47  1  0
 46 48  1  0
 35 49  1  0
 49 50  1  0
 49 51  1  0
 49 52  1  0
 52 53  1  0
 52 54  1  0
 14 55  1  0
 55 56  1  0
 55 57  1  0
 57 58  2  0
 58 59  1  0
 58  6  1  0
 57 11  1  0
 29 17  1  0
 46 36  1  0
 27 18  1  0
 52 28  1  0
M  END
>  <UniqueID>  (8) 
39

>  <SMILES>  (8) 
[H]/N=C(\O)c1ccc2cc(C(=O)N3C[C@]4(CCN([C@@H]5CCNC5)C4)c4ccccc43)[nH]c2c1

>  <Energy>  (8) 
124.4375381262645

>  <Genealogy>  (8) 
N=C(O)c1ccc2cc(C(=O)N3C[C@]4(CCN(C5CCNC5)C4)c4ccccc43)[nH]c2c1 (tautomer)
N=C(O)c1ccc2cc(C(=O)N3C[C@]4(CCN([C@@H]5CCNC5)C4)c4ccccc43)[nH]c2c1 (chirality)
[H]/N=C(\O)c1ccc2cc(C(=O)N3C[C@]4(CCN([C@@H]5CCNC5)C4)c4ccccc43)[nH]c2c1 (cis-trans isomerization)
[H]/N=C(\O)c1ccc2cc(C(=O)N3C[C@]4(CCN([C@@H]5CCNC5)C4)c4ccccc43)[nH]c2c1 (3D coordinates assigned)
[H]/N=C(\O)c1ccc2cc(C(=O)N3C[C@]4(CCN([C@@H]5CCNC5)C4)c4ccccc43)[nH]c2c1 (nonaromatic ring conformer: 124.4375381262645 kcal/mol)

>  <smiles>  (8) 
NC(=O)c1ccc2cc(C(=O)N3C[C@]4(CCN(C5CCNC5)C4)c4ccccc43)[nH]c2c1

>  <score_type>  (8) 
oracle

>  <origin>  (8) 
autodockgpu

>  <m_score__min__energy>  (8) 
-9.2200000000000006

>  <m_primary>  (8) 
energy

>  <meeko>  (8) 
{"free_energy": -8.07, "intermolecular_energy": -9.86, "internal_energy": -1.3, "cluster_size": 4, "cluster_id": 3, "rank_in_cluster": 4}

>  <energy>  (8) 
-8.86

>  <cluster_rmsd>  (8) 
0.96

>  <rmsd>  (8) 
272.9

>  <cluster>  (8) 
1

$$$$
ATTQMMYACVSETC-GCOZCMQUNA-N
     RDKit          3D

 59 64  0  0  0  0  0  0  0  0999 V2000
  145.7220   74.2140  217.9640 H   0  0  0  0  0  0  0  0  0  0  0  0
  145.7660   73.2860  218.4400 N   0  0  0  0  0  0  0  0  0  0  0  0
  145.4480   73.1470  219.6880 C   0  0  0  0  0  0  0  0  0  0  0  0
  146.4200   72.7620  220.6130 O   0  0  0  0  0  0  0  0  0  0  0  0
  146.2660   71.9960  221.2580 H   0  0  0  0  0  0  0  0  0  0  0  0
  144.0590   73.3950  220.1410 C   0  0  0  0  0  0  0  0  0  0  0  0
  143.1360   72.3210  220.2860 C   0  0  0  0  0  0  0  0  0  0  0  0
  143.4563   71.2943  220.0552 H   0  0  0  0  0  0  0  0  0  0  0  0
  141.8190   72.5570  220.7210 C   0  0  0  0  0  0  0  0  0  0  0  0
  141.1036   71.7297  220.8382 H   0  0  0  0  0  0  0  0  0  0  0  0
  141.4500   73.8680  220.9980 C   0  0  0  0  0  0  0  0  0  0  0  0
  140.2560   74.3860  221.4490 C   0  0  0  0  0  0  0  0  0  0  0  0
  139.3309   73.8366  221.6779 H   0  0  0  0  0  0  0  0  0  0  0  0
  140.4760   75.7580  221.5520 C   0  0  0  0  0  0  0  0  0  0  0  0
  139.4830   76.7370  222.0280 C   0  0  0  0  0  0  0  0  0  0  0  0
  138.4490   76.3260  222.6200 O   0  0  0  0  0  0  0  0  0  0  0  0
  139.6640   78.1430  221.8030 N   0  0  0  0  0  0  0  0  0  0  0  0
  140.6000   78.9630  222.4880 C   0  0  0  0  0  0  0  0  0  0  0  0
  141.7500   78.5380  223.1630 C   0  0  0  0  0  0  0  0  0  0  0  0
  142.0058   77.4696  223.2190 H   0  0  0  0  0  0  0  0  0  0  0  0
  142.5700   79.5040  223.7670 C   0  0  0  0  0  0  0  0  0  0  0  0
  143.4752   79.1932  224.3093 H   0  0  0  0  0  0  0  0  0  0  0  0
  142.2380   80.8680  223.6810 C   0  0  0  0  0  0  0  0  0  0  0  0
  142.8819   81.6200  224.1606 H   0  0  0  0  0  0  0  0  0  0  0  0
  141.0890   81.2730  222.9860 C   0  0  0  0  0  0  0  0  0  0  0  0
  140.8258   82.3384  222.9103 H   0  0  0  0  0  0  0  0  0  0  0  0
  140.2830   80.2940  222.3900 C   0  0  0  0  0  0  0  0  0  0  0  0
  139.0300   80.4740  221.5850 C   0  0  1  0  0  0  0  0  0  0  0  0
  138.6300   79.0020  221.2190 C   0  0  0  0  0  0  0  0  0  0  0  0
  138.6000   78.8748  220.1268 H   0  0  0  0  0  0  0  0  0  0  0  0
  137.6317   78.7488  221.6053 H   0  0  0  0  0  0  0  0  0  0  0  0
  137.9240   81.2000  222.3440 C   0  0  0  0  0  0  0  0  0  0  0  0
  138.3456   82.0174  222.9474 H   0  0  0  0  0  0  0  0  0  0  0  0
  137.3970   80.5267  223.0361 H   0  0  0  0  0  0  0  0  0  0  0  0
  137.0220   81.7350  221.3160 N   0  0  0  0  0  0  0  0  0  0  0  0
  136.2710   82.9220  221.7870 C   0  0  1  0  0  0  0  0  0  0  0  0
  135.3397   82.9008  221.2020 H   0  0  0  0  0  0  0  0  0  0  0  0
  136.0400   82.8850  223.2940 C   0  0  0  0  0  0  0  0  0  0  0  0
  136.8648   82.3482  223.7855 H   0  0  0  0  0  0  0  0  0  0  0  0
  135.0992   82.3638  223.5249 H   0  0  0  0  0  0  0  0  0  0  0  0
  135.9890   84.2660  223.7750 N   0  0  0  0  0  0  0  0  0  0  0  0
  134.9830   84.5390  223.8800 H   0  0  0  0  0  0  0  0  0  0  0  0
  136.5900   85.1060  222.7350 C   0  0  0  0  0  0  0  0  0  0  0  0
  137.4455   85.6581  223.1514 H   0  0  0  0  0  0  0  0  0  0  0  0
  135.8516   85.8296  222.3593 H   0  0  0  0  0  0  0  0  0  0  0  0
  137.0610   84.2050  221.6050 C   0  0  0  0  0  0  0  0  0  0  0  0
  138.1408   84.0115  221.6864 H   0  0  0  0  0  0  0  0  0  0  0  0
  136.9013   84.6575  220.6152 H   0  0  0  0  0  0  0  0  0  0  0  0
  137.8730   82.0300  220.1440 C   0  0  0  0  0  0  0  0  0  0  0  0
  138.0144   83.1169  220.0508 H   0  0  0  0  0  0  0  0  0  0  0  0
  137.3966   81.6570  219.2253 H   0  0  0  0  0  0  0  0  0  0  0  0
  139.2240   81.3490  220.3510 C   0  0  0  0  0  0  0  0  0  0  0  0
  140.0126   82.0959  220.5249 H   0  0  0  0  0  0  0  0  0  0  0  0
  139.5359   80.7662  219.4718 H   0  0  0  0  0  0  0  0  0  0  0  0
  141.7460   76.0730  221.1980 N   0  0  0  0  0  0  0  0  0  0  0  0
  142.2010   77.0120  221.2260 H   0  0  0  0  0  0  0  0  0  0  0  0
  142.3270   74.9100  220.8600 C   0  0  0  0  0  0  0  0  0  0  0  0
  143.6390   74.7140  220.4370 C   0  0  0  0  0  0  0  0  0  0  0  0
  144.3315   75.5626  220.3354 H   0  0  0  0  0  0  0  0  0  0  0  0
  1  2  1  0
  2  3  2  0
  3  4  1  0
  4  5  1  0
  3  6  1  0
  6  7  2  0
  7  8  1  0
  7  9  1  0
  9 10  1  0
  9 11  2  0
 11 12  1  0
 12 13  1  0
 12 14  2  0
 14 15  1  0
 15 16  2  0
 15 17  1  0
 17 18  1  0
 18 19  2  0
 19 20  1  0
 19 21  1  0
 21 22  1  0
 21 23  2  0
 23 24  1  0
 23 25  1  0
 25 26  1  0
 25 27  2  0
 27 28  1  0
 28 29  1  6
 29 30  1  0
 29 31  1  0
 28 32  1  0
 32 33  1  0
 32 34  1  0
 32 35  1  0
 35 36  1  0
 36 37  1  6
 36 38  1  0
 38 39  1  0
 38 40  1  0
 38 41  1  0
 41 42  1  0
 41 43  1  0
 43 44  1  0
 43 45  1  0
 43 46  1  0
 46 47  1  0
 46 48  1  0
 35 49  1  0
 49 50  1  0
 49 51  1  0
 49 52  1  0
 52 53  1  0
 52 54  1  0
 14 55  1  0
 55 56  1  0
 55 57  1  0
 57 58  2  0
 58 59  1  0
 58  6  1  0
 57 11  1  0
 29 17  1  0
 46 36  1  0
 27 18  1  0
 52 28  1  0
M  END
>  <UniqueID>  (9) 
39

>  <SMILES>  (9) 
[H]/N=C(\O)c1ccc2cc(C(=O)N3C[C@]4(CCN([C@@H]5CCNC5)C4)c4ccccc43)[nH]c2c1

>  <Energy>  (9) 
124.4375381262645

>  <Genealogy>  (9) 
N=C(O)c1ccc2cc(C(=O)N3C[C@]4(CCN(C5CCNC5)C4)c4ccccc43)[nH]c2c1 (tautomer)
N=C(O)c1ccc2cc(C(=O)N3C[C@]4(CCN([C@@H]5CCNC5)C4)c4ccccc43)[nH]c2c1 (chirality)
[H]/N=C(\O)c1ccc2cc(C(=O)N3C[C@]4(CCN([C@@H]5CCNC5)C4)c4ccccc43)[nH]c2c1 (cis-trans isomerization)
[H]/N=C(\O)c1ccc2cc(C(=O)N3C[C@]4(CCN([C@@H]5CCNC5)C4)c4ccccc43)[nH]c2c1 (3D coordinates assigned)
[H]/N=C(\O)c1ccc2cc(C(=O)N3C[C@]4(CCN([C@@H]5CCNC5)C4)c4ccccc43)[nH]c2c1 (nonaromatic ring conformer: 124.4375381262645 kcal/mol)

>  <smiles>  (9) 
NC(=O)c1ccc2cc(C(=O)N3C[C@]4(CCN(C5CCNC5)C4)c4ccccc43)[nH]c2c1

>  <score_type>  (9) 
oracle

>  <origin>  (9) 
autodockgpu

>  <m_score__min__energy>  (9) 
-9.2200000000000006

>  <m_primary>  (9) 
energy

>  <meeko>  (9) 
{"free_energy": -7.8, "intermolecular_energy": -9.59, "internal_energy": -1.09, "cluster_size": 11, "cluster_id": 1, "rank_in_cluster": 11}

>  <energy>  (9) 
-8.76

>  <cluster_rmsd>  (9) 
1.9

>  <rmsd>  (9) 
272.89

>  <cluster>  (9) 
1

$$$$
ATTQMMYACVSETC-GCOZCMQUNA-N
     RDKit          3D

 59 64  0  0  0  0  0  0  0  0999 V2000
  146.0370   74.1630  217.9310 H   0  0  0  0  0  0  0  0  0  0  0  0
  145.9540   73.3100  218.5280 N   0  0  0  0  0  0  0  0  0  0  0  0
  145.2410   73.3050  219.6110 C   0  0  0  0  0  0  0  0  0  0  0  0
  145.7330   72.6880  220.7620 O   0  0  0  0  0  0  0  0  0  0  0  0
  145.2900   71.8660  221.1540 H   0  0  0  0  0  0  0  0  0  0  0  0
  143.9070   73.9510  219.6340 C   0  0  0  0  0  0  0  0  0  0  0  0
  143.1150   74.0320  218.4540 C   0  0  0  0  0  0  0  0  0  0  0  0
  143.4995   73.6148  217.5116 H   0  0  0  0  0  0  0  0  0  0  0  0
  141.8470   74.6390  218.4790 C   0  0  0  0  0  0  0  0  0  0  0  0
  141.2294   74.6997  217.5708 H   0  0  0  0  0  0  0  0  0  0  0  0
  141.3980   75.1600  219.6870 C   0  0  0  0  0  0  0  0  0  0  0  0
  140.2130   75.7850  220.0070 C   0  0  0  0  0  0  0  0  0  0  0  0
  139.3679   76.0029  219.3374 H   0  0  0  0  0  0  0  0  0  0  0  0
  140.3190   76.0810  221.3650 C   0  0  0  0  0  0  0  0  0  0  0  0
  139.2700   76.7310  222.1700 C   0  0  0  0  0  0  0  0  0  0  0  0
  138.3680   76.0230  222.6930 O   0  0  0  0  0  0  0  0  0  0  0  0
  139.2460   78.1570  222.3420 N   0  0  0  0  0  0  0  0  0  0  0  0
  140.3520   78.9440  222.7600 C   0  0  0  0  0  0  0  0  0  0  0  0
  141.7050   78.5950  222.6830 C   0  0  0  0  0  0  0  0  0  0  0  0
  142.0117   77.6177  222.2820 H   0  0  0  0  0  0  0  0  0  0  0  0
  142.6620   79.5200  223.1290 C   0  0  0  0  0  0  0  0  0  0  0  0
  143.7314   79.2664  223.0842 H   0  0  0  0  0  0  0  0  0  0  0  0
  142.2590   80.7700  223.6330 C   0  0  0  0  0  0  0  0  0  0  0  0
  143.0138   81.4877  223.9866 H   0  0  0  0  0  0  0  0  0  0  0  0
  140.8980   81.1040  223.6860 C   0  0  0  0  0  0  0  0  0  0  0  0
  140.5752   82.0814  224.0739 H   0  0  0  0  0  0  0  0  0  0  0  0
  139.9570   80.1680  223.2350 C   0  0  0  0  0  0  0  0  0  0  0  0
  138.4640   80.2970  223.1710 C   0  0  1  0  0  0  0  0  0  0  0  0
  138.0150   78.9150  222.5800 C   0  0  0  0  0  0  0  0  0  0  0  0
  137.4687   79.0623  221.6367 H   0  0  0  0  0  0  0  0  0  0  0  0
  137.3415   78.3829  223.2679 H   0  0  0  0  0  0  0  0  0  0  0  0
  137.8240   80.5790  224.5270 C   0  0  0  0  0  0  0  0  0  0  0  0
  138.4408   81.2844  225.1032 H   0  0  0  0  0  0  0  0  0  0  0  0
  137.7314   79.6642  225.1308 H   0  0  0  0  0  0  0  0  0  0  0  0
  136.5120   81.1690  224.2310 N   0  0  0  0  0  0  0  0  0  0  0  0
  136.0200   82.0290  225.3330 C   0  0  1  0  0  0  0  0  0  0  0  0
  135.0350   81.6085  225.5837 H   0  0  0  0  0  0  0  0  0  0  0  0
  136.9860   82.0480  226.5120 C   0  0  0  0  0  0  0  0  0  0  0  0
  138.0161   81.9048  226.1537 H   0  0  0  0  0  0  0  0  0  0  0  0
  136.7471   81.2377  227.2165 H   0  0  0  0  0  0  0  0  0  0  0  0
  136.8650   83.3490  227.1710 N   0  0  0  0  0  0  0  0  0  0  0  0
  136.2430   83.2360  228.0060 H   0  0  0  0  0  0  0  0  0  0  0  0
  136.2070   84.2520  226.2230 C   0  0  0  0  0  0  0  0  0  0  0  0
  136.8538   85.1197  226.0260 H   0  0  0  0  0  0  0  0  0  0  0  0
  135.2539   84.6094  226.6399 H   0  0  0  0  0  0  0  0  0  0  0  0
  135.9600   83.4910  224.9300 C   0  0  0  0  0  0  0  0  0  0  0  0
  136.7384   83.7221  224.1879 H   0  0  0  0  0  0  0  0  0  0  0  0
  134.9999   83.7577  224.4642 H   0  0  0  0  0  0  0  0  0  0  0  0
  136.6760   81.9080  222.9630 C   0  0  0  0  0  0  0  0  0  0  0  0
  136.6974   82.9895  223.1625 H   0  0  0  0  0  0  0  0  0  0  0  0
  135.8364   81.6916  222.2860 H   0  0  0  0  0  0  0  0  0  0  0  0
  137.9940   81.4740  222.3240 C   0  0  0  0  0  0  0  0  0  0  0  0
  138.7284   82.2923  222.3551 H   0  0  0  0  0  0  0  0  0  0  0  0
  137.8743   81.2035  221.2645 H   0  0  0  0  0  0  0  0  0  0  0  0
  141.5030   75.6490  221.8630 N   0  0  0  0  0  0  0  0  0  0  0  0
  141.8310   75.6910  222.8540 H   0  0  0  0  0  0  0  0  0  0  0  0
  142.1510   75.0930  220.8280 C   0  0  0  0  0  0  0  0  0  0  0  0
  143.4090   74.4940  220.8420 C   0  0  0  0  0  0  0  0  0  0  0  0
  143.9999   74.4445  221.7685 H   0  0  0  0  0  0  0  0  0  0  0  0
  1  2  1  0
  2  3  2  0
  3  4  1  0
  4  5  1  0
  3  6  1  0
  6  7  2  0
  7  8  1  0
  7  9  1  0
  9 10  1  0
  9 11  2  0
 11 12  1  0
 12 13  1  0
 12 14  2  0
 14 15  1  0
 15 16  2  0
 15 17  1  0
 17 18  1  0
 18 19  2  0
 19 20  1  0
 19 21  1  0
 21 22  1  0
 21 23  2  0
 23 24  1  0
 23 25  1  0
 25 26  1  0
 25 27  2  0
 27 28  1  0
 28 29  1  6
 29 30  1  0
 29 31  1  0
 28 32  1  0
 32 33  1  0
 32 34  1  0
 32 35  1  0
 35 36  1  0
 36 37  1  1
 36 38  1  0
 38 39  1  0
 38 40  1  0
 38 41  1  0
 41 42  1  0
 41 43  1  0
 43 44  1  0
 43 45  1  0
 43 46  1  0
 46 47  1  0
 46 48  1  0
 35 49  1  0
 49 50  1  0
 49 51  1  0
 49 52  1  0
 52 53  1  0
 52 54  1  0
 14 55  1  0
 55 56  1  0
 55 57  1  0
 57 58  2  0
 58 59  1  0
 58  6  1  0
 57 11  1  0
 29 17  1  0
 46 36  1  0
 27 18  1  0
 52 28  1  0
M  END
>  <UniqueID>  (10) 
39

>  <SMILES>  (10) 
[H]/N=C(\O)c1ccc2cc(C(=O)N3C[C@]4(CCN([C@@H]5CCNC5)C4)c4ccccc43)[nH]c2c1

>  <Energy>  (10) 
124.4375381262645

>  <Genealogy>  (10) 
N=C(O)c1ccc2cc(C(=O)N3C[C@]4(CCN(C5CCNC5)C4)c4ccccc43)[nH]c2c1 (tautomer)
N=C(O)c1ccc2cc(C(=O)N3C[C@]4(CCN([C@@H]5CCNC5)C4)c4ccccc43)[nH]c2c1 (chirality)
[H]/N=C(\O)c1ccc2cc(C(=O)N3C[C@]4(CCN([C@@H]5CCNC5)C4)c4ccccc43)[nH]c2c1 (cis-trans isomerization)
[H]/N=C(\O)c1ccc2cc(C(=O)N3C[C@]4(CCN([C@@H]5CCNC5)C4)c4ccccc43)[nH]c2c1 (3D coordinates assigned)
[H]/N=C(\O)c1ccc2cc(C(=O)N3C[C@]4(CCN([C@@H]5CCNC5)C4)c4ccccc43)[nH]c2c1 (nonaromatic ring conformer: 124.4375381262645 kcal/mol)

>  <smiles>  (10) 
NC(=O)c1ccc2cc(C(=O)N3C[C@]4(CCN(C5CCNC5)C4)c4ccccc43)[nH]c2c1

>  <score_type>  (10) 
oracle

>  <origin>  (10) 
autodockgpu

>  <m_score__min__energy>  (10) 
-9.2200000000000006

>  <m_primary>  (10) 
energy

>  <meeko>  (10) 
{"free_energy": -8.95, "intermolecular_energy": -10.74, "internal_energy": -1.08, "cluster_size": 11, "cluster_id": 1, "rank_in_cluster": 6}

>  <energy>  (10) 
-7.96

>  <cluster_rmsd>  (10) 
1.82

>  <rmsd>  (10) 
272.42

>  <cluster>  (10) 
1

$$$$
ATTQMMYACVSETC-GCOZCMQUNA-N
     RDKit          3D

 59 64  0  0  0  0  0  0  0  0999 V2000
  146.3170   72.0230  221.7260 H   0  0  0  0  0  0  0  0  0  0  0  0
  146.5230   72.8200  221.0820 N   0  0  0  0  0  0  0  0  0  0  0  0
  145.7660   73.0820  220.0630 C   0  0  0  0  0  0  0  0  0  0  0  0
  146.3430   73.3510  218.8210 O   0  0  0  0  0  0  0  0  0  0  0  0
  146.0470   74.1390  218.2570 H   0  0  0  0  0  0  0  0  0  0  0  0
  144.2910   73.0990  220.2080 C   0  0  0  0  0  0  0  0  0  0  0  0
  143.4980   72.0210  219.7250 C   0  0  0  0  0  0  0  0  0  0  0  0
  143.9855   71.1662  219.2333 H   0  0  0  0  0  0  0  0  0  0  0  0
  142.0990   72.0340  219.8680 C   0  0  0  0  0  0  0  0  0  0  0  0
  141.4831   71.2007  219.4989 H   0  0  0  0  0  0  0  0  0  0  0  0
  141.5190   73.1340  220.4910 C   0  0  0  0  0  0  0  0  0  0  0  0
  140.2000   73.4080  220.7790 C   0  0  0  0  0  0  0  0  0  0  0  0
  139.3219   72.7844  220.5555 H   0  0  0  0  0  0  0  0  0  0  0  0
  140.2210   74.6470  221.4150 C   0  0  0  0  0  0  0  0  0  0  0  0
  139.0350   75.3450  221.9420 C   0  0  0  0  0  0  0  0  0  0  0  0
  137.9110   74.7790  221.8800 O   0  0  0  0  0  0  0  0  0  0  0  0
  139.1390   76.6650  222.4960 N   0  0  0  0  0  0  0  0  0  0  0  0
  138.0370   77.4930  222.8390 C   0  0  0  0  0  0  0  0  0  0  0  0
  136.7250   77.0760  223.0980 C   0  0  0  0  0  0  0  0  0  0  0  0
  136.4495   76.0131  223.0316 H   0  0  0  0  0  0  0  0  0  0  0  0
  135.7700   78.0440  223.4440 C   0  0  0  0  0  0  0  0  0  0  0  0
  134.7317   77.7420  223.6456 H   0  0  0  0  0  0  0  0  0  0  0  0
  136.1360   79.4000  223.5340 C   0  0  0  0  0  0  0  0  0  0  0  0
  135.3814   80.1549  223.7999 H   0  0  0  0  0  0  0  0  0  0  0  0
  137.4590   79.7920  223.2860 C   0  0  0  0  0  0  0  0  0  0  0  0
  137.7536   80.8492  223.3600 H   0  0  0  0  0  0  0  0  0  0  0  0
  138.3990   78.8110  222.9420 C   0  0  0  0  0  0  0  0  0  0  0  0
  139.8620   78.9740  222.6540 C   0  0  1  0  0  0  0  0  0  0  0  0
  140.3270   77.5100  222.3400 C   0  0  0  0  0  0  0  0  0  0  0  0
  141.1121   77.1991  223.0449 H   0  0  0  0  0  0  0  0  0  0  0  0
  140.7474   77.4300  221.3267 H   0  0  0  0  0  0  0  0  0  0  0  0
  140.1460   79.9290  221.4990 C   0  0  0  0  0  0  0  0  0  0  0  0
  139.4642   80.7913  221.5379 H   0  0  0  0  0  0  0  0  0  0  0  0
  139.9960   79.4426  220.5238 H   0  0  0  0  0  0  0  0  0  0  0  0
  141.5360   80.3670  221.6780 N   0  0  0  0  0  0  0  0  0  0  0  0
  141.7960   81.6870  221.0580 C   0  0  1  0  0  0  0  0  0  0  0  0
  142.8611   81.8737  221.2600 H   0  0  0  0  0  0  0  0  0  0  0  0
  141.4520   81.6940  219.5720 C   0  0  0  0  0  0  0  0  0  0  0  0
  140.6336   80.9861  219.3744 H   0  0  0  0  0  0  0  0  0  0  0  0
  142.3250   81.3917  218.9749 H   0  0  0  0  0  0  0  0  0  0  0  0
  141.0340   83.0500  219.2140 N   0  0  0  0  0  0  0  0  0  0  0  0
  141.8490   83.5370  218.7710 H   0  0  0  0  0  0  0  0  0  0  0  0
  140.7050   83.7430  220.4630 C   0  0  0  0  0  0  0  0  0  0  0  0
  139.6625   84.0925  220.4308 H   0  0  0  0  0  0  0  0  0  0  0  0
  141.3648   84.6126  220.5987 H   0  0  0  0  0  0  0  0  0  0  0  0
  140.8840   82.7660  221.6130 C   0  0  0  0  0  0  0  0  0  0  0  0
  139.9160   82.3394  221.9147 H   0  0  0  0  0  0  0  0  0  0  0  0
  141.3032   83.2474  222.5088 H   0  0  0  0  0  0  0  0  0  0  0  0
  141.7760   80.3670  223.1350 C   0  0  0  0  0  0  0  0  0  0  0  0
  141.7974   81.4014  223.5085 H   0  0  0  0  0  0  0  0  0  0  0  0
  142.7417   79.8908  223.3602 H   0  0  0  0  0  0  0  0  0  0  0  0
  140.6400   79.5980  223.8080 C   0  0  0  0  0  0  0  0  0  0  0  0
  139.9982   80.2797  224.3855 H   0  0  0  0  0  0  0  0  0  0  0  0
  141.0099   78.8437  224.5181 H   0  0  0  0  0  0  0  0  0  0  0  0
  141.4900   75.1110  221.5290 N   0  0  0  0  0  0  0  0  0  0  0  0
  141.8090   75.9850  222.0020 H   0  0  0  0  0  0  0  0  0  0  0  0
  142.2700   74.1790  220.9570 C   0  0  0  0  0  0  0  0  0  0  0  0
  143.6570   74.1970  220.8380 C   0  0  0  0  0  0  0  0  0  0  0  0
  144.2453   75.0427  221.2236 H   0  0  0  0  0  0  0  0  0  0  0  0
  1  2  1  0
  2  3  2  0
  3  4  1  0
  4  5  1  0
  3  6  1  0
  6  7  2  0
  7  8  1  0
  7  9  1  0
  9 10  1  0
  9 11  2  0
 11 12  1  0
 12 13  1  0
 12 14  2  0
 14 15  1  0
 15 16  2  0
 15 17  1  0
 17 18  1  0
 18 19  2  0
 19 20  1  0
 19 21  1  0
 21 22  1  0
 21 23  2  0
 23 24  1  0
 23 25  1  0
 25 26  1  0
 25 27  2  0
 27 28  1  0
 28 29  1  6
 29 30  1  0
 29 31  1  0
 28 32  1  0
 32 33  1  0
 32 34  1  0
 32 35  1  0
 35 36  1  0
 36 37  1  6
 36 38  1  0
 38 39  1  0
 38 40  1  0
 38 41  1  0
 41 42  1  0
 41 43  1  0
 43 44  1  0
 43 45  1  0
 43 46  1  0
 46 47  1  0
 46 48  1  0
 35 49  1  0
 49 50  1  0
 49 51  1  0
 49 52  1  0
 52 53  1  0
 52 54  1  0
 14 55  1  0
 55 56  1  0
 55 57  1  0
 57 58  2  0
 58 59  1  0
 58  6  1  0
 57 11  1  0
 29 17  1  0
 46 36  1  0
 27 18  1  0
 52 28  1  0
M  END
>  <UniqueID>  (11) 
39

>  <SMILES>  (11) 
[H]/N=C(\O)c1ccc2cc(C(=O)N3C[C@]4(CCN([C@@H]5CCNC5)C4)c4ccccc43)[nH]c2c1

>  <Energy>  (11) 
124.4375381262645

>  <Genealogy>  (11) 
N=C(O)c1ccc2cc(C(=O)N3C[C@]4(CCN(C5CCNC5)C4)c4ccccc43)[nH]c2c1 (tautomer)
N=C(O)c1ccc2cc(C(=O)N3C[C@]4(CCN([C@@H]5CCNC5)C4)c4ccccc43)[nH]c2c1 (chirality)
[H]/N=C(\O)c1ccc2cc(C(=O)N3C[C@]4(CCN([C@@H]5CCNC5)C4)c4ccccc43)[nH]c2c1 (cis-trans isomerization)
[H]/N=C(\O)c1ccc2cc(C(=O)N3C[C@]4(CCN([C@@H]5CCNC5)C4)c4ccccc43)[nH]c2c1 (3D coordinates assigned)
[H]/N=C(\O)c1ccc2cc(C(=O)N3C[C@]4(CCN([C@@H]5CCNC5)C4)c4ccccc43)[nH]c2c1 (nonaromatic ring conformer: 124.4375381262645 kcal/mol)

>  <smiles>  (11) 
NC(=O)c1ccc2cc(C(=O)N3C[C@]4(CCN(C5CCNC5)C4)c4ccccc43)[nH]c2c1

>  <score_type>  (11) 
oracle

>  <origin>  (11) 
autodockgpu

>  <m_score__min__energy>  (11) 
-9.2200000000000006

>  <m_primary>  (11) 
energy

>  <meeko>  (11) 
{"free_energy": -8.33, "intermolecular_energy": -10.12, "internal_energy": -0.77, "cluster_size": 3, "cluster_id": 2, "rank_in_cluster": 2}

>  <energy>  (11) 
-7.8

>  <cluster_rmsd>  (11) 
1.85

>  <rmsd>  (11) 
272.41

>  <cluster>  (11) 
1

$$$$
ATTQMMYACVSETC-GCOZCMQUNA-N
     RDKit          3D

 59 64  0  0  0  0  0  0  0  0999 V2000
  146.0980   71.9760  221.3190 H   0  0  0  0  0  0  0  0  0  0  0  0
  146.3510   72.6320  220.5460 N   0  0  0  0  0  0  0  0  0  0  0  0
  145.4570   73.1020  219.7340 C   0  0  0  0  0  0  0  0  0  0  0  0
  145.7990   73.3720  218.4080 O   0  0  0  0  0  0  0  0  0  0  0  0
  145.6890   74.2960  218.0090 H   0  0  0  0  0  0  0  0  0  0  0  0
  144.0750   73.3550  220.2040 C   0  0  0  0  0  0  0  0  0  0  0  0
  143.1610   72.2810  220.3970 C   0  0  0  0  0  0  0  0  0  0  0  0
  143.4831   71.2498  220.1901 H   0  0  0  0  0  0  0  0  0  0  0  0
  141.8510   72.5220  220.8490 C   0  0  0  0  0  0  0  0  0  0  0  0
  141.1429   71.6944  221.0031 H   0  0  0  0  0  0  0  0  0  0  0  0
  141.4790   73.8390  221.0950 C   0  0  0  0  0  0  0  0  0  0  0  0
  140.2900   74.3630  221.5510 C   0  0  0  0  0  0  0  0  0  0  0  0
  139.3724   73.8152  221.8117 H   0  0  0  0  0  0  0  0  0  0  0  0
  140.5030   75.7380  221.6100 C   0  0  0  0  0  0  0  0  0  0  0  0
  139.5130   76.7260  222.0760 C   0  0  0  0  0  0  0  0  0  0  0  0
  138.4770   76.3240  222.6710 O   0  0  0  0  0  0  0  0  0  0  0  0
  139.6990   78.1290  221.8360 N   0  0  0  0  0  0  0  0  0  0  0  0
  140.6230   78.9570  222.5270 C   0  0  0  0  0  0  0  0  0  0  0  0
  141.7620   78.5390  223.2270 C   0  0  0  0  0  0  0  0  0  0  0  0
  142.0159   77.4713  223.3008 H   0  0  0  0  0  0  0  0  0  0  0  0
  142.5720   79.5120  223.8320 C   0  0  0  0  0  0  0  0  0  0  0  0
  143.4682   79.2078  224.3927 H   0  0  0  0  0  0  0  0  0  0  0  0
  142.2420   80.8750  223.7240 C   0  0  0  0  0  0  0  0  0  0  0  0
  142.8781   81.6325  224.2053 H   0  0  0  0  0  0  0  0  0  0  0  0
  141.1050   81.2720  223.0050 C   0  0  0  0  0  0  0  0  0  0  0  0
  140.8433   82.3364  222.9124 H   0  0  0  0  0  0  0  0  0  0  0  0
  140.3090   80.2860  222.4070 C   0  0  0  0  0  0  0  0  0  0  0  0
  139.0700   80.4570  221.5790 C   0  0  1  0  0  0  0  0  0  0  0  0
  138.6750   78.9810  221.2240 C   0  0  0  0  0  0  0  0  0  0  0  0
  138.6633   78.8406  220.1331 H   0  0  0  0  0  0  0  0  0  0  0  0
  137.6701   78.7328  221.5961 H   0  0  0  0  0  0  0  0  0  0  0  0
  137.9520   81.1930  222.3100 C   0  0  0  0  0  0  0  0  0  0  0  0
  138.3640   82.0175  222.9104 H   0  0  0  0  0  0  0  0  0  0  0  0
  137.4127   80.5287  223.0013 H   0  0  0  0  0  0  0  0  0  0  0  0
  137.0680   81.7160  221.2600 N   0  0  0  0  0  0  0  0  0  0  0  0
  136.3100   82.9080  221.7050 C   0  0  1  0  0  0  0  0  0  0  0  0
  135.4070   82.9017  221.0768 H   0  0  0  0  0  0  0  0  0  0  0  0
  136.0060   82.8640  223.1980 C   0  0  0  0  0  0  0  0  0  0  0  0
  136.7988   82.3126  223.7247 H   0  0  0  0  0  0  0  0  0  0  0  0
  135.0482   82.3542  223.3790 H   0  0  0  0  0  0  0  0  0  0  0  0
  135.9500   84.2430  223.6870 N   0  0  0  0  0  0  0  0  0  0  0  0
  134.9440   84.5270  223.7460 H   0  0  0  0  0  0  0  0  0  0  0  0
  136.6090   85.0820  222.6820 C   0  0  0  0  0  0  0  0  0  0  0  0
  137.4498   85.6219  223.1419 H   0  0  0  0  0  0  0  0  0  0  0  0
  135.8974   85.8162  222.2763 H   0  0  0  0  0  0  0  0  0  0  0  0
  137.1230   84.1820  221.5700 C   0  0  0  0  0  0  0  0  0  0  0  0
  138.1952   83.9747  221.7021 H   0  0  0  0  0  0  0  0  0  0  0  0
  137.0166   84.6425  220.5767 H   0  0  0  0  0  0  0  0  0  0  0  0
  137.9380   81.9960  220.1000 C   0  0  0  0  0  0  0  0  0  0  0  0
  138.0819   83.0816  219.9961 H   0  0  0  0  0  0  0  0  0  0  0  0
  137.4767   81.6123  219.1781 H   0  0  0  0  0  0  0  0  0  0  0  0
  139.2860   81.3160  220.3380 C   0  0  0  0  0  0  0  0  0  0  0  0
  140.0724   82.0643  220.5158 H   0  0  0  0  0  0  0  0  0  0  0  0
  139.6123   80.7222  219.4714 H   0  0  0  0  0  0  0  0  0  0  0  0
  141.7640   76.0500  221.2240 N   0  0  0  0  0  0  0  0  0  0  0  0
  142.2150   76.9920  221.2160 H   0  0  0  0  0  0  0  0  0  0  0  0
  142.3470   74.8810  220.9090 C   0  0  0  0  0  0  0  0  0  0  0  0
  143.6520   74.6800  220.4690 C   0  0  0  0  0  0  0  0  0  0  0  0
  144.3375   75.5291  220.3306 H   0  0  0  0  0  0  0  0  0  0  0  0
  1  2  1  0
  2  3  2  0
  3  4  1  0
  4  5  1  0
  3  6  1  0
  6  7  2  0
  7  8  1  0
  7  9  1  0
  9 10  1  0
  9 11  2  0
 11 12  1  0
 12 13  1  0
 12 14  2  0
 14 15  1  0
 15 16  2  0
 15 17  1  0
 17 18  1  0
 18 19  2  0
 19 20  1  0
 19 21  1  0
 21 22  1  0
 21 23  2  0
 23 24  1  0
 23 25  1  0
 25 26  1  0
 25 27  2  0
 27 28  1  0
 28 29  1  6
 29 30  1  0
 29 31  1  0
 28 32  1  0
 32 33  1  0
 32 34  1  0
 32 35  1  0
 35 36  1  0
 36 37  1  6
 36 38  1  0
 38 39  1  0
 38 40  1  0
 38 41  1  0
 41 42  1  0
 41 43  1  0
 43 44  1  0
 43 45  1  0
 43 46  1  0
 46 47  1  0
 46 48  1  0
 35 49  1  0
 49 50  1  0
 49 51  1  0
 49 52  1  0
 52 53  1  0
 52 54  1  0
 14 55  1  0
 55 56  1  0
 55 57  1  0
 57 58  2  0
 58 59  1  0
 58  6  1  0
 57 11  1  0
 29 17  1  0
 46 36  1  0
 27 18  1  0
 52 28  1  0
M  END
>  <UniqueID>  (12) 
39

>  <SMILES>  (12) 
[H]/N=C(\O)c1ccc2cc(C(=O)N3C[C@]4(CCN([C@@H]5CCNC5)C4)c4ccccc43)[nH]c2c1

>  <Energy>  (12) 
124.4375381262645

>  <Genealogy>  (12) 
N=C(O)c1ccc2cc(C(=O)N3C[C@]4(CCN(C5CCNC5)C4)c4ccccc43)[nH]c2c1 (tautomer)
N=C(O)c1ccc2cc(C(=O)N3C[C@]4(CCN([C@@H]5CCNC5)C4)c4ccccc43)[nH]c2c1 (chirality)
[H]/N=C(\O)c1ccc2cc(C(=O)N3C[C@]4(CCN([C@@H]5CCNC5)C4)c4ccccc43)[nH]c2c1 (cis-trans isomerization)
[H]/N=C(\O)c1ccc2cc(C(=O)N3C[C@]4(CCN([C@@H]5CCNC5)C4)c4ccccc43)[nH]c2c1 (3D coordinates assigned)
[H]/N=C(\O)c1ccc2cc(C(=O)N3C[C@]4(CCN([C@@H]5CCNC5)C4)c4ccccc43)[nH]c2c1 (nonaromatic ring conformer: 124.4375381262645 kcal/mol)

>  <smiles>  (12) 
NC(=O)c1ccc2cc(C(=O)N3C[C@]4(CCN(C5CCNC5)C4)c4ccccc43)[nH]c2c1

>  <score_type>  (12) 
oracle

>  <origin>  (12) 
autodockgpu

>  <m_score__min__energy>  (12) 
-9.2200000000000006

>  <m_primary>  (12) 
energy

>  <meeko>  (12) 
{"free_energy": -7.96, "intermolecular_energy": -9.75, "internal_energy": -1.09, "cluster_size": 11, "cluster_id": 1, "rank_in_cluster": 10}

>  <energy>  (12) 
-8.48

>  <cluster_rmsd>  (12) 
0.0

>  <rmsd>  (12) 
272.31

>  <cluster>  (12) 
2

$$$$
ATTQMMYACVSETC-GCOZCMQUNA-N
     RDKit          3D

 59 64  0  0  0  0  0  0  0  0999 V2000
  146.5780   73.9860  218.4270 H   0  0  0  0  0  0  0  0  0  0  0  0
  146.2300   73.0290  218.6580 N   0  0  0  0  0  0  0  0  0  0  0  0
  145.1850   72.8480  219.4040 C   0  0  0  0  0  0  0  0  0  0  0  0
  145.0260   71.6450  220.0930 O   0  0  0  0  0  0  0  0  0  0  0  0
  145.3270   71.5400  221.0540 H   0  0  0  0  0  0  0  0  0  0  0  0
  144.1590   73.9100  219.5290 C   0  0  0  0  0  0  0  0  0  0  0  0
  143.9750   74.8730  218.4980 C   0  0  0  0  0  0  0  0  0  0  0  0
  144.6058   74.8318  217.5978 H   0  0  0  0  0  0  0  0  0  0  0  0
  142.9970   75.8770  218.6150 C   0  0  0  0  0  0  0  0  0  0  0  0
  142.8490   76.6206  217.8180 H   0  0  0  0  0  0  0  0  0  0  0  0
  142.2230   75.9000  219.7700 C   0  0  0  0  0  0  0  0  0  0  0  0
  141.1990   76.7410  220.1450 C   0  0  0  0  0  0  0  0  0  0  0  0
  140.7882   77.5904  219.5795 H   0  0  0  0  0  0  0  0  0  0  0  0
  140.7970   76.2810  221.3970 C   0  0  0  0  0  0  0  0  0  0  0  0
  139.6960   76.8530  222.1910 C   0  0  0  0  0  0  0  0  0  0  0  0
  138.8180   76.0840  222.6690 O   0  0  0  0  0  0  0  0  0  0  0  0
  139.5940   78.2690  222.4020 N   0  0  0  0  0  0  0  0  0  0  0  0
  140.6530   79.1030  222.8500 C   0  0  0  0  0  0  0  0  0  0  0  0
  142.0240   78.8300  222.7740 C   0  0  0  0  0  0  0  0  0  0  0  0
  142.3854   77.8825  222.3479 H   0  0  0  0  0  0  0  0  0  0  0  0
  142.9270   79.7910  223.2530 C   0  0  0  0  0  0  0  0  0  0  0  0
  144.0087   79.5958  223.2103 H   0  0  0  0  0  0  0  0  0  0  0  0
  142.4540   81.0040  223.7880 C   0  0  0  0  0  0  0  0  0  0  0  0
  143.1668   81.7511  224.1672 H   0  0  0  0  0  0  0  0  0  0  0  0
  141.0760   81.2630  223.8390 C   0  0  0  0  0  0  0  0  0  0  0  0
  140.6985   82.2108  224.2502 H   0  0  0  0  0  0  0  0  0  0  0  0
  140.1900   80.2910  223.3560 C   0  0  0  0  0  0  0  0  0  0  0  0
  138.6920   80.3400  223.2840 C   0  0  1  0  0  0  0  0  0  0  0  0
  138.3220   78.9540  222.6510 C   0  0  0  0  0  0  0  0  0  0  0  0
  137.7752   79.0988  221.7076 H   0  0  0  0  0  0  0  0  0  0  0  0
  137.6733   78.3675  223.3182 H   0  0  0  0  0  0  0  0  0  0  0  0
  138.0300   80.5500  224.6420 C   0  0  0  0  0  0  0  0  0  0  0  0
  138.6046   81.2713  225.2416 H   0  0  0  0  0  0  0  0  0  0  0  0
  137.9830   79.6155  225.2203 H   0  0  0  0  0  0  0  0  0  0  0  0
  136.6900   81.0770  224.3520 N   0  0  0  0  0  0  0  0  0  0  0  0
  136.1450   81.8780  225.4730 C   0  0  1  0  0  0  0  0  0  0  0  0
  135.2671   81.3072  225.8098 H   0  0  0  0  0  0  0  0  0  0  0  0
  137.1820   82.0970  226.5700 C   0  0  0  0  0  0  0  0  0  0  0  0
  138.1909   82.1170  226.1321 H   0  0  0  0  0  0  0  0  0  0  0  0
  137.1387   81.2813  227.3068 H   0  0  0  0  0  0  0  0  0  0  0  0
  136.8930   83.3800  227.2120 N   0  0  0  0  0  0  0  0  0  0  0  0
  136.3650   83.1920  228.0960 H   0  0  0  0  0  0  0  0  0  0  0  0
  136.0210   84.1290  226.3020 C   0  0  0  0  0  0  0  0  0  0  0  0
  136.4947   85.0856  226.0363 H   0  0  0  0  0  0  0  0  0  0  0  0
  135.0557   84.3360  226.7871 H   0  0  0  0  0  0  0  0  0  0  0  0
  135.8090   83.2950  225.0490 C   0  0  0  0  0  0  0  0  0  0  0  0
  136.4786   83.6284  224.2424 H   0  0  0  0  0  0  0  0  0  0  0  0
  134.7847   83.3821  224.6575 H   0  0  0  0  0  0  0  0  0  0  0  0
  136.8220   81.8590  223.1070 C   0  0  0  0  0  0  0  0  0  0  0  0
  136.7848   82.9340  223.3371 H   0  0  0  0  0  0  0  0  0  0  0  0
  135.9990   81.6175  222.4182 H   0  0  0  0  0  0  0  0  0  0  0  0
  138.1650   81.5140  222.4650 C   0  0  0  0  0  0  0  0  0  0  0  0
  138.8546   82.3690  222.5235 H   0  0  0  0  0  0  0  0  0  0  0  0
  138.0663   81.2673  221.3976 H   0  0  0  0  0  0  0  0  0  0  0  0
  141.5240   75.2000  221.7720 N   0  0  0  0  0  0  0  0  0  0  0  0
  141.4090   74.6220  222.6340 H   0  0  0  0  0  0  0  0  0  0  0  0
  142.3930   74.9820  220.7720 C   0  0  0  0  0  0  0  0  0  0  0  0
  143.3470   73.9710  220.6870 C   0  0  0  0  0  0  0  0  0  0  0  0
  143.4665   73.2385  221.4989 H   0  0  0  0  0  0  0  0  0  0  0  0
  1  2  1  0
  2  3  2  0
  3  4  1  0
  4  5  1  0
  3  6  1  0
  6  7  2  0
  7  8  1  0
  7  9  1  0
  9 10  1  0
  9 11  2  0
 11 12  1  0
 12 13  1  0
 12 14  2  0
 14 15  1  0
 15 16  2  0
 15 17  1  0
 17 18  1  0
 18 19  2  0
 19 20  1  0
 19 21  1  0
 21 22  1  0
 21 23  2  0
 23 24  1  0
 23 25  1  0
 25 26  1  0
 25 27  2  0
 27 28  1  0
 28 29  1  6
 29 30  1  0
 29 31  1  0
 28 32  1  0
 32 33  1  0
 32 34  1  0
 32 35  1  0
 35 36  1  0
 36 37  1  1
 36 38  1  0
 38 39  1  0
 38 40  1  0
 38 41  1  0
 41 42  1  0
 41 43  1  0
 43 44  1  0
 43 45  1  0
 43 46  1  0
 46 47  1  0
 46 48  1  0
 35 49  1  0
 49 50  1  0
 49 51  1  0
 49 52  1  0
 52 53  1  0
 52 54  1  0
 14 55  1  0
 55 56  1  0
 55 57  1  0
 57 58  2  0
 58 59  1  0
 58  6  1  0
 57 11  1  0
 29 17  1  0
 46 36  1  0
 27 18  1  0
 52 28  1  0
M  END
>  <UniqueID>  (13) 
39

>  <SMILES>  (13) 
[H]/N=C(\O)c1ccc2cc(C(=O)N3C[C@]4(CCN([C@@H]5CCNC5)C4)c4ccccc43)[nH]c2c1

>  <Energy>  (13) 
124.4375381262645

>  <Genealogy>  (13) 
N=C(O)c1ccc2cc(C(=O)N3C[C@]4(CCN(C5CCNC5)C4)c4ccccc43)[nH]c2c1 (tautomer)
N=C(O)c1ccc2cc(C(=O)N3C[C@]4(CCN([C@@H]5CCNC5)C4)c4ccccc43)[nH]c2c1 (chirality)
[H]/N=C(\O)c1ccc2cc(C(=O)N3C[C@]4(CCN([C@@H]5CCNC5)C4)c4ccccc43)[nH]c2c1 (cis-trans isomerization)
[H]/N=C(\O)c1ccc2cc(C(=O)N3C[C@]4(CCN([C@@H]5CCNC5)C4)c4ccccc43)[nH]c2c1 (3D coordinates assigned)
[H]/N=C(\O)c1ccc2cc(C(=O)N3C[C@]4(CCN([C@@H]5CCNC5)C4)c4ccccc43)[nH]c2c1 (nonaromatic ring conformer: 124.4375381262645 kcal/mol)

>  <smiles>  (13) 
NC(=O)c1ccc2cc(C(=O)N3C[C@]4(CCN(C5CCNC5)C4)c4ccccc43)[nH]c2c1

>  <score_type>  (13) 
oracle

>  <origin>  (13) 
autodockgpu

>  <m_score__min__energy>  (13) 
-9.2200000000000006

>  <m_primary>  (13) 
energy

>  <meeko>  (13) 
{"free_energy": -8.92, "intermolecular_energy": -10.71, "internal_energy": -1.14, "cluster_size": 11, "cluster_id": 1, "rank_in_cluster": 7}

>  <energy>  (13) 
-8.33

>  <cluster_rmsd>  (13) 
0.28

>  <rmsd>  (13) 
272.23

>  <cluster>  (13) 
2

$$$$
ATTQMMYACVSETC-GCOZCMQUNA-N
     RDKit          3D

 59 64  0  0  0  0  0  0  0  0999 V2000
  145.9460   72.0550  221.8970 H   0  0  0  0  0  0  0  0  0  0  0  0
  146.0400   73.0560  221.6140 N   0  0  0  0  0  0  0  0  0  0  0  0
  145.5560   73.4930  220.4940 C   0  0  0  0  0  0  0  0  0  0  0  0
  146.2860   73.3360  219.3150 O   0  0  0  0  0  0  0  0  0  0  0  0
  146.4230   74.1040  218.6690 H   0  0  0  0  0  0  0  0  0  0  0  0
  144.2310   74.1580  220.4570 C   0  0  0  0  0  0  0  0  0  0  0  0
  143.0530   73.4600  220.8450 C   0  0  0  0  0  0  0  0  0  0  0  0
  143.1249   72.4123  221.1722 H   0  0  0  0  0  0  0  0  0  0  0  0
  141.7980   74.0940  220.8150 C   0  0  0  0  0  0  0  0  0  0  0  0
  140.8856   73.5598  221.1186 H   0  0  0  0  0  0  0  0  0  0  0  0
  141.7460   75.4160  220.3900 C   0  0  0  0  0  0  0  0  0  0  0  0
  140.6790   76.2800  220.2760 C   0  0  0  0  0  0  0  0  0  0  0  0
  139.6228   76.0736  220.5034 H   0  0  0  0  0  0  0  0  0  0  0  0
  141.2290   77.4720  219.8100 C   0  0  0  0  0  0  0  0  0  0  0  0
  140.4700   78.7100  219.5620 C   0  0  0  0  0  0  0  0  0  0  0  0
  140.0520   78.9520  218.3980 O   0  0  0  0  0  0  0  0  0  0  0  0
  140.2290   79.6530  220.6170 N   0  0  0  0  0  0  0  0  0  0  0  0
  141.1450   79.9630  221.6560 C   0  0  0  0  0  0  0  0  0  0  0  0
  142.5310   79.7630  221.6390 C   0  0  0  0  0  0  0  0  0  0  0  0
  143.0226   79.3086  220.7662 H   0  0  0  0  0  0  0  0  0  0  0  0
  143.2790   80.1550  222.7600 C   0  0  0  0  0  0  0  0  0  0  0  0
  144.3681   80.0009  222.7728 H   0  0  0  0  0  0  0  0  0  0  0  0
  142.6420   80.7440  223.8670 C   0  0  0  0  0  0  0  0  0  0  0  0
  143.2335   81.0440  224.7446 H   0  0  0  0  0  0  0  0  0  0  0  0
  141.2540   80.9500  223.8550 C   0  0  0  0  0  0  0  0  0  0  0  0
  140.7490   81.4152  224.7144 H   0  0  0  0  0  0  0  0  0  0  0  0
  140.5240   80.5520  222.7280 C   0  0  0  0  0  0  0  0  0  0  0  0
  139.0520   80.6830  222.4700 C   0  0  1  0  0  0  0  0  0  0  0  0
  138.8840   80.0510  221.0440 C   0  0  0  0  0  0  0  0  0  0  0  0
  138.4643   80.7899  220.3455 H   0  0  0  0  0  0  0  0  0  0  0  0
  138.1967   79.1924  221.0624 H   0  0  0  0  0  0  0  0  0  0  0  0
  138.1920   79.9810  223.5160 C   0  0  0  0  0  0  0  0  0  0  0  0
  138.6180   80.1218  224.5203 H   0  0  0  0  0  0  0  0  0  0  0  0
  138.1390   78.8969  223.3376 H   0  0  0  0  0  0  0  0  0  0  0  0
  136.8680   80.6110  223.4280 N   0  0  0  0  0  0  0  0  0  0  0  0
  136.1100   80.5090  224.6980 C   0  0  1  0  0  0  0  0  0  0  0  0
  135.7880   79.4579  224.7366 H   0  0  0  0  0  0  0  0  0  0  0  0
  136.9550   80.9270  225.8970 C   0  0  0  0  0  0  0  0  0  0  0  0
  137.6917   81.6839  225.5897 H   0  0  0  0  0  0  0  0  0  0  0  0
  137.4966   80.0610  226.3054 H   0  0  0  0  0  0  0  0  0  0  0  0
  136.0550   81.4890  226.9060 N   0  0  0  0  0  0  0  0  0  0  0  0
  135.8600   80.7480  227.6190 H   0  0  0  0  0  0  0  0  0  0  0  0
  134.7990   81.8190  226.2260 C   0  0  0  0  0  0  0  0  0  0  0  0
  134.5810   82.8903  226.3472 H   0  0  0  0  0  0  0  0  0  0  0  0
  133.9707   81.2387  226.6586 H   0  0  0  0  0  0  0  0  0  0  0  0
  134.9530   81.4900  224.7500 C   0  0  0  0  0  0  0  0  0  0  0  0
  135.1855   82.3964  224.1718 H   0  0  0  0  0  0  0  0  0  0  0  0
  134.0319   81.0738  224.3159 H   0  0  0  0  0  0  0  0  0  0  0  0
  137.1100   82.0100  223.0220 C   0  0  0  0  0  0  0  0  0  0  0  0
  136.9552   82.6790  223.8813 H   0  0  0  0  0  0  0  0  0  0  0  0
  136.4134   82.2988  222.2212 H   0  0  0  0  0  0  0  0  0  0  0  0
  138.5530   82.1230  222.5320 C   0  0  0  0  0  0  0  0  0  0  0  0
  139.1572   82.7134  223.2365 H   0  0  0  0  0  0  0  0  0  0  0  0
  138.6247   82.6316  221.5593 H   0  0  0  0  0  0  0  0  0  0  0  0
  142.5710   77.3580  219.6560 N   0  0  0  0  0  0  0  0  0  0  0  0
  143.2460   78.1020  219.3700 H   0  0  0  0  0  0  0  0  0  0  0  0
  142.8720   76.0980  220.0110 C   0  0  0  0  0  0  0  0  0  0  0  0
  144.1310   75.5040  220.0330 C   0  0  0  0  0  0  0  0  0  0  0  0
  145.0255   76.0671  219.7284 H   0  0  0  0  0  0  0  0  0  0  0  0
  1  2  1  0
  2  3  2  0
  3  4  1  0
  4  5  1  0
  3  6  1  0
  6  7  2  0
  7  8  1  0
  7  9  1  0
  9 10  1  0
  9 11  2  0
 11 12  1  0
 12 13  1  0
 12 14  2  0
 14 15  1  0
 15 16  2  0
 15 17  1  0
 17 18  1  0
 18 19  2  0
 19 20  1  0
 19 21  1  0
 21 22  1  0
 21 23  2  0
 23 24  1  0
 23 25  1  0
 25 26  1  0
 25 27  2  0
 27 28  1  0
 28 29  1  6
 29 30  1  0
 29 31  1  0
 28 32  1  0
 32 33  1  0
 32 34  1  0
 32 35  1  0
 35 36  1  0
 36 37  1  1
 36 38  1  0
 38 39  1  0
 38 40  1  0
 38 41  1  0
 41 42  1  0
 41 43  1  0
 43 44  1  0
 43 45  1  0
 43 46  1  0
 46 47  1  0
 46 48  1  0
 35 49  1  0
 49 50  1  0
 49 51  1  0
 49 52  1  0
 52 53  1  0
 52 54  1  0
 14 55  1  0
 55 56  1  0
 55 57  1  0
 57 58  2  0
 58 59  1  0
 58  6  1  0
 57 11  1  0
 29 17  1  0
 46 36  1  0
 27 18  1  0
 52 28  1  0
M  END
>  <UniqueID>  (14) 
39

>  <SMILES>  (14) 
[H]/N=C(\O)c1ccc2cc(C(=O)N3C[C@]4(CCN([C@@H]5CCNC5)C4)c4ccccc43)[nH]c2c1

>  <Energy>  (14) 
124.4375381262645

>  <Genealogy>  (14) 
N=C(O)c1ccc2cc(C(=O)N3C[C@]4(CCN(C5CCNC5)C4)c4ccccc43)[nH]c2c1 (tautomer)
N=C(O)c1ccc2cc(C(=O)N3C[C@]4(CCN([C@@H]5CCNC5)C4)c4ccccc43)[nH]c2c1 (chirality)
[H]/N=C(\O)c1ccc2cc(C(=O)N3C[C@]4(CCN([C@@H]5CCNC5)C4)c4ccccc43)[nH]c2c1 (cis-trans isomerization)
[H]/N=C(\O)c1ccc2cc(C(=O)N3C[C@]4(CCN([C@@H]5CCNC5)C4)c4ccccc43)[nH]c2c1 (3D coordinates assigned)
[H]/N=C(\O)c1ccc2cc(C(=O)N3C[C@]4(CCN([C@@H]5CCNC5)C4)c4ccccc43)[nH]c2c1 (nonaromatic ring conformer: 124.4375381262645 kcal/mol)

>  <smiles>  (14) 
NC(=O)c1ccc2cc(C(=O)N3C[C@]4(CCN(C5CCNC5)C4)c4ccccc43)[nH]c2c1

>  <score_type>  (14) 
oracle

>  <origin>  (14) 
autodockgpu

>  <m_score__min__energy>  (14) 
-9.2200000000000006

>  <m_primary>  (14) 
energy

>  <meeko>  (14) 
{"free_energy": -8.76, "intermolecular_energy": -10.55, "internal_energy": -1.16, "cluster_size": 11, "cluster_id": 1, "rank_in_cluster": 9}

>  <energy>  (14) 
-7.91

>  <cluster_rmsd>  (14) 
0.68

>  <rmsd>  (14) 
272.32

>  <cluster>  (14) 
2

$$$$
ATTQMMYACVSETC-GCOZCMQUNA-N
     RDKit          3D

 59 64  0  0  0  0  0  0  0  0999 V2000
  145.5680   71.8370  221.0170 H   0  0  0  0  0  0  0  0  0  0  0  0
  145.1450   71.9230  220.0660 N   0  0  0  0  0  0  0  0  0  0  0  0
  145.2190   73.0240  219.3860 C   0  0  0  0  0  0  0  0  0  0  0  0
  146.3220   73.2590  218.5640 O   0  0  0  0  0  0  0  0  0  0  0  0
  146.4960   74.1690  218.1560 H   0  0  0  0  0  0  0  0  0  0  0  0
  144.1390   74.0350  219.4770 C   0  0  0  0  0  0  0  0  0  0  0  0
  143.8750   74.9200  218.3940 C   0  0  0  0  0  0  0  0  0  0  0  0
  144.4832   74.8558  217.4797 H   0  0  0  0  0  0  0  0  0  0  0  0
  142.8470   75.8750  218.4780 C   0  0  0  0  0  0  0  0  0  0  0  0
  142.6369   76.5574  217.6412 H   0  0  0  0  0  0  0  0  0  0  0  0
  142.1040   75.9300  219.6520 C   0  0  0  0  0  0  0  0  0  0  0  0
  141.0450   76.7380  220.0050 C   0  0  0  0  0  0  0  0  0  0  0  0
  140.5736   77.5272  219.4009 H   0  0  0  0  0  0  0  0  0  0  0  0
  140.7020   76.3370  221.2940 C   0  0  0  0  0  0  0  0  0  0  0  0
  139.5930   76.8980  222.0850 C   0  0  0  0  0  0  0  0  0  0  0  0
  138.6950   76.1280  222.5180 O   0  0  0  0  0  0  0  0  0  0  0  0
  139.5070   78.3080  222.3410 N   0  0  0  0  0  0  0  0  0  0  0  0
  140.5840   79.1210  222.7850 C   0  0  0  0  0  0  0  0  0  0  0  0
  141.9500   78.8420  222.6620 C   0  0  0  0  0  0  0  0  0  0  0  0
  142.2928   77.9059  222.1971 H   0  0  0  0  0  0  0  0  0  0  0  0
  142.8730   79.7830  223.1450 C   0  0  0  0  0  0  0  0  0  0  0  0
  143.9517   79.5825  223.0664 H   0  0  0  0  0  0  0  0  0  0  0  0
  142.4240   80.9810  223.7290 C   0  0  0  0  0  0  0  0  0  0  0  0
  143.1525   81.7118  224.1102 H   0  0  0  0  0  0  0  0  0  0  0  0
  141.0510   81.2470  223.8270 C   0  0  0  0  0  0  0  0  0  0  0  0
  140.6923   82.1839  224.2781 H   0  0  0  0  0  0  0  0  0  0  0  0
  140.1440   80.2960  223.3390 C   0  0  0  0  0  0  0  0  0  0  0  0
  138.6450   80.3570  223.3110 C   0  0  1  0  0  0  0  0  0  0  0  0
  138.2480   78.9930  222.6470 C   0  0  0  0  0  0  0  0  0  0  0  0
  137.6756   79.1698  221.7244 H   0  0  0  0  0  0  0  0  0  0  0  0
  137.6147   78.3904  223.3147 H   0  0  0  0  0  0  0  0  0  0  0  0
  138.0230   80.5290  224.6930 C   0  0  0  0  0  0  0  0  0  0  0  0
  138.6192   81.2279  225.2980 H   0  0  0  0  0  0  0  0  0  0  0  0
  137.9858   79.5775  225.2436 H   0  0  0  0  0  0  0  0  0  0  0  0
  136.6790   81.0730  224.4570 N   0  0  0  0  0  0  0  0  0  0  0  0
  136.1720   81.8430  225.6170 C   0  0  1  0  0  0  0  0  0  0  0  0
  135.5193   81.1332  226.1463 H   0  0  0  0  0  0  0  0  0  0  0  0
  137.3070   82.3800  226.4820 C   0  0  0  0  0  0  0  0  0  0  0  0
  138.1932   82.5716  225.8591 H   0  0  0  0  0  0  0  0  0  0  0  0
  137.5780   81.6475  227.2566 H   0  0  0  0  0  0  0  0  0  0  0  0
  136.8520   83.6280  227.0970 N   0  0  0  0  0  0  0  0  0  0  0  0
  136.5430   83.4170  228.0750 H   0  0  0  0  0  0  0  0  0  0  0  0
  135.6880   84.0840  226.3320 C   0  0  0  0  0  0  0  0  0  0  0  0
  135.8786   85.0900  225.9298 H   0  0  0  0  0  0  0  0  0  0  0  0
  134.8011   84.1249  226.9815 H   0  0  0  0  0  0  0  0  0  0  0  0
  135.4540   83.1100  225.1890 C   0  0  0  0  0  0  0  0  0  0  0  0
  135.8788   83.5002  224.2524 H   0  0  0  0  0  0  0  0  0  0  0  0
  134.3844   82.9401  224.9963 H   0  0  0  0  0  0  0  0  0  0  0  0
  136.7820   81.8920  223.2330 C   0  0  0  0  0  0  0  0  0  0  0  0
  136.7584   82.9597  223.4966 H   0  0  0  0  0  0  0  0  0  0  0  0
  135.9388   81.6765  222.5603 H   0  0  0  0  0  0  0  0  0  0  0  0
  138.1040   81.5590  222.5440 C   0  0  0  0  0  0  0  0  0  0  0  0
  138.8009   82.4075  222.6100 H   0  0  0  0  0  0  0  0  0  0  0  0
  137.9742   81.3464  221.4726 H   0  0  0  0  0  0  0  0  0  0  0  0
  141.4980   75.3230  221.7140 N   0  0  0  0  0  0  0  0  0  0  0  0
  141.4380   74.7950  222.6130 H   0  0  0  0  0  0  0  0  0  0  0  0
  142.3500   75.0880  220.7030 C   0  0  0  0  0  0  0  0  0  0  0  0
  143.3560   74.1260  220.6520 C   0  0  0  0  0  0  0  0  0  0  0  0
  143.5372   73.4539  221.5038 H   0  0  0  0  0  0  0  0  0  0  0  0
  1  2  1  0
  2  3  2  0
  3  4  1  0
  4  5  1  0
  3  6  1  0
  6  7  2  0
  7  8  1  0
  7  9  1  0
  9 10  1  0
  9 11  2  0
 11 12  1  0
 12 13  1  0
 12 14  2  0
 14 15  1  0
 15 16  2  0
 15 17  1  0
 17 18  1  0
 18 19  2  0
 19 20  1  0
 19 21  1  0
 21 22  1  0
 21 23  2  0
 23 24  1  0
 23 25  1  0
 25 26  1  0
 25 27  2  0
 27 28  1  0
 28 29  1  6
 29 30  1  0
 29 31  1  0
 28 32  1  0
 32 33  1  0
 32 34  1  0
 32 35  1  0
 35 36  1  0
 36 37  1  1
 36 38  1  0
 38 39  1  0
 38 40  1  0
 38 41  1  0
 41 42  1  0
 41 43  1  0
 43 44  1  0
 43 45  1  0
 43 46  1  0
 46 47  1  0
 46 48  1  0
 35 49  1  0
 49 50  1  0
 49 51  1  0
 49 52  1  0
 52 53  1  0
 52 54  1  0
 14 55  1  0
 55 56  1  0
 55 57  1  0
 57 58  2  0
 58 59  1  0
 58  6  1  0
 57 11  1  0
 29 17  1  0
 46 36  1  0
 27 18  1  0
 52 28  1  0
M  END
>  <UniqueID>  (15) 
39

>  <SMILES>  (15) 
[H]/N=C(\O)c1ccc2cc(C(=O)N3C[C@]4(CCN([C@@H]5CCNC5)C4)c4ccccc43)[nH]c2c1

>  <Energy>  (15) 
124.4375381262645

>  <Genealogy>  (15) 
N=C(O)c1ccc2cc(C(=O)N3C[C@]4(CCN(C5CCNC5)C4)c4ccccc43)[nH]c2c1 (tautomer)
N=C(O)c1ccc2cc(C(=O)N3C[C@]4(CCN([C@@H]5CCNC5)C4)c4ccccc43)[nH]c2c1 (chirality)
[H]/N=C(\O)c1ccc2cc(C(=O)N3C[C@]4(CCN([C@@H]5CCNC5)C4)c4ccccc43)[nH]c2c1 (cis-trans isomerization)
[H]/N=C(\O)c1ccc2cc(C(=O)N3C[C@]4(CCN([C@@H]5CCNC5)C4)c4ccccc43)[nH]c2c1 (3D coordinates assigned)
[H]/N=C(\O)c1ccc2cc(C(=O)N3C[C@]4(CCN([C@@H]5CCNC5)C4)c4ccccc43)[nH]c2c1 (nonaromatic ring conformer: 124.4375381262645 kcal/mol)

>  <smiles>  (15) 
NC(=O)c1ccc2cc(C(=O)N3C[C@]4(CCN(C5CCNC5)C4)c4ccccc43)[nH]c2c1

>  <score_type>  (15) 
oracle

>  <origin>  (15) 
autodockgpu

>  <m_score__min__energy>  (15) 
-9.2200000000000006

>  <m_primary>  (15) 
energy

>  <meeko>  (15) 
{"free_energy": -9.21, "intermolecular_energy": -11.0, "internal_energy": -1.12, "cluster_size": 11, "cluster_id": 1, "rank_in_cluster": 2}

>  <energy>  (15) 
-8.47

>  <cluster_rmsd>  (15) 
0.0

>  <rmsd>  (15) 
272.34

>  <cluster>  (15) 
3

$$$$
ATTQMMYACVSETC-GCOZCMQUNA-N
     RDKit          3D

 59 64  0  0  0  0  0  0  0  0999 V2000
  145.5430   71.9350  221.1110 H   0  0  0  0  0  0  0  0  0  0  0  0
  145.7930   72.8740  220.7260 N   0  0  0  0  0  0  0  0  0  0  0  0
  145.2320   73.3390  219.6540 C   0  0  0  0  0  0  0  0  0  0  0  0
  145.9380   73.3500  218.4510 O   0  0  0  0  0  0  0  0  0  0  0  0
  146.0150   74.1880  217.8880 H   0  0  0  0  0  0  0  0  0  0  0  0
  143.8450   73.8590  219.6990 C   0  0  0  0  0  0  0  0  0  0  0  0
  142.9620   73.6780  218.5970 C   0  0  0  0  0  0  0  0  0  0  0  0
  143.3150   73.1501  217.6988 H   0  0  0  0  0  0  0  0  0  0  0  0
  141.6440   74.1660  218.6430 C   0  0  0  0  0  0  0  0  0  0  0  0
  140.9567   74.0230  217.7961 H   0  0  0  0  0  0  0  0  0  0  0  0
  141.2360   74.8350  219.7920 C   0  0  0  0  0  0  0  0  0  0  0  0
  140.0220   75.3960  220.1180 C   0  0  0  0  0  0  0  0  0  0  0  0
  139.1110   75.4264  219.5023 H   0  0  0  0  0  0  0  0  0  0  0  0
  140.1990   75.9170  221.3980 C   0  0  0  0  0  0  0  0  0  0  0  0
  139.1530   76.5930  222.1850 C   0  0  0  0  0  0  0  0  0  0  0  0
  138.2340   75.9060  222.7060 O   0  0  0  0  0  0  0  0  0  0  0  0
  139.1520   78.0210  222.3410 N   0  0  0  0  0  0  0  0  0  0  0  0
  140.2720   78.7960  222.7450 C   0  0  0  0  0  0  0  0  0  0  0  0
  141.6200   78.4250  222.6640 C   0  0  0  0  0  0  0  0  0  0  0  0
  141.9095   77.4390  222.2716 H   0  0  0  0  0  0  0  0  0  0  0  0
  142.5930   79.3400  223.0950 C   0  0  0  0  0  0  0  0  0  0  0  0
  143.6582   79.0696  223.0477 H   0  0  0  0  0  0  0  0  0  0  0  0
  142.2120   80.6010  223.5870 C   0  0  0  0  0  0  0  0  0  0  0  0
  142.9797   81.3106  223.9291 H   0  0  0  0  0  0  0  0  0  0  0  0
  140.8570   80.9570  223.6430 C   0  0  0  0  0  0  0  0  0  0  0  0
  140.5519   81.9442  224.0204 H   0  0  0  0  0  0  0  0  0  0  0  0
  139.8990   80.0310  223.2090 C   0  0  0  0  0  0  0  0  0  0  0  0
  138.4080   80.1810  223.1520 C   0  0  1  0  0  0  0  0  0  0  0  0
  137.9340   78.8010  222.5780 C   0  0  0  0  0  0  0  0  0  0  0  0
  137.3848   78.9473  221.6362 H   0  0  0  0  0  0  0  0  0  0  0  0
  137.2560   78.2867  223.2750 H   0  0  0  0  0  0  0  0  0  0  0  0
  137.7800   80.4880  224.5070 C   0  0  0  0  0  0  0  0  0  0  0  0
  138.4109   81.1902  225.0717 H   0  0  0  0  0  0  0  0  0  0  0  0
  137.6764   79.5811  225.1209 H   0  0  0  0  0  0  0  0  0  0  0  0
  136.4750   81.0950  224.2130 N   0  0  0  0  0  0  0  0  0  0  0  0
  136.0030   81.9740  225.3070 C   0  0  1  0  0  0  0  0  0  0  0  0
  135.0224   81.5578  225.5812 H   0  0  0  0  0  0  0  0  0  0  0  0
  136.9890   82.0140  226.4700 C   0  0  0  0  0  0  0  0  0  0  0  0
  138.0129   81.8638  226.0971 H   0  0  0  0  0  0  0  0  0  0  0  0
  136.7611   81.2167  227.1928 H   0  0  0  0  0  0  0  0  0  0  0  0
  136.8800   83.3260  227.1080 N   0  0  0  0  0  0  0  0  0  0  0  0
  136.2730   83.2290  227.9550 H   0  0  0  0  0  0  0  0  0  0  0  0
  136.2060   84.2130  226.1550 C   0  0  0  0  0  0  0  0  0  0  0  0
  136.8496   85.0767  225.9316 H   0  0  0  0  0  0  0  0  0  0  0  0
  135.2602   84.5785  226.5815 H   0  0  0  0  0  0  0  0  0  0  0  0
  135.9370   83.4290  224.8800 C   0  0  0  0  0  0  0  0  0  0  0  0
  136.7029   83.6465  224.1210 H   0  0  0  0  0  0  0  0  0  0  0  0
  134.9690   83.6881  224.4262 H   0  0  0  0  0  0  0  0  0  0  0  0
  136.6440   81.8180  222.9360 C   0  0  0  0  0  0  0  0  0  0  0  0
  136.6838   82.9010  223.1242 H   0  0  0  0  0  0  0  0  0  0  0  0
  135.7972   81.6073  222.2663 H   0  0  0  0  0  0  0  0  0  0  0  0
  137.9510   81.3570  222.2930 C   0  0  0  0  0  0  0  0  0  0  0  0
  138.6982   82.1641  222.3102 H   0  0  0  0  0  0  0  0  0  0  0  0
  137.8208   81.0770  221.2372 H   0  0  0  0  0  0  0  0  0  0  0  0
  141.4550   75.6770  221.8490 N   0  0  0  0  0  0  0  0  0  0  0  0
  141.8510   75.9080  222.7870 H   0  0  0  0  0  0  0  0  0  0  0  0
  142.0770   75.0200  220.8560 C   0  0  0  0  0  0  0  0  0  0  0  0
  143.3860   74.5440  220.8490 C   0  0  0  0  0  0  0  0  0  0  0  0
  144.0462   74.6967  221.7155 H   0  0  0  0  0  0  0  0  0  0  0  0
  1  2  1  0
  2  3  2  0
  3  4  1  0
  4  5  1  0
  3  6  1  0
  6  7  2  0
  7  8  1  0
  7  9  1  0
  9 10  1  0
  9 11  2  0
 11 12  1  0
 12 13  1  0
 12 14  2  0
 14 15  1  0
 15 16  2  0
 15 17  1  0
 17 18  1  0
 18 19  2  0
 19 20  1  0
 19 21  1  0
 21 22  1  0
 21 23  2  0
 23 24  1  0
 23 25  1  0
 25 26  1  0
 25 27  2  0
 27 28  1  0
 28 29  1  6
 29 30  1  0
 29 31  1  0
 28 32  1  0
 32 33  1  0
 32 34  1  0
 32 35  1  0
 35 36  1  0
 36 37  1  1
 36 38  1  0
 38 39  1  0
 38 40  1  0
 38 41  1  0
 41 42  1  0
 41 43  1  0
 43 44  1  0
 43 45  1  0
 43 46  1  0
 46 47  1  0
 46 48  1  0
 35 49  1  0
 49 50  1  0
 49 51  1  0
 49 52  1  0
 52 53  1  0
 52 54  1  0
 14 55  1  0
 55 56  1  0
 55 57  1  0
 57 58  2  0
 58 59  1  0
 58  6  1  0
 57 11  1  0
 29 17  1  0
 46 36  1  0
 27 18  1  0
 52 28  1  0
M  END
>  <UniqueID>  (16) 
39

>  <SMILES>  (16) 
[H]/N=C(\O)c1ccc2cc(C(=O)N3C[C@]4(CCN([C@@H]5CCNC5)C4)c4ccccc43)[nH]c2c1

>  <Energy>  (16) 
124.4375381262645

>  <Genealogy>  (16) 
N=C(O)c1ccc2cc(C(=O)N3C[C@]4(CCN(C5CCNC5)C4)c4ccccc43)[nH]c2c1 (tautomer)
N=C(O)c1ccc2cc(C(=O)N3C[C@]4(CCN([C@@H]5CCNC5)C4)c4ccccc43)[nH]c2c1 (chirality)
[H]/N=C(\O)c1ccc2cc(C(=O)N3C[C@]4(CCN([C@@H]5CCNC5)C4)c4ccccc43)[nH]c2c1 (cis-trans isomerization)
[H]/N=C(\O)c1ccc2cc(C(=O)N3C[C@]4(CCN([C@@H]5CCNC5)C4)c4ccccc43)[nH]c2c1 (3D coordinates assigned)
[H]/N=C(\O)c1ccc2cc(C(=O)N3C[C@]4(CCN([C@@H]5CCNC5)C4)c4ccccc43)[nH]c2c1 (nonaromatic ring conformer: 124.4375381262645 kcal/mol)

>  <smiles>  (16) 
NC(=O)c1ccc2cc(C(=O)N3C[C@]4(CCN(C5CCNC5)C4)c4ccccc43)[nH]c2c1

>  <score_type>  (16) 
oracle

>  <origin>  (16) 
autodockgpu

>  <m_score__min__energy>  (16) 
-9.2200000000000006

>  <m_primary>  (16) 
energy

>  <meeko>  (16) 
{"free_energy": -9.14, "intermolecular_energy": -10.93, "internal_energy": -1.02, "cluster_size": 11, "cluster_id": 1, "rank_in_cluster": 4}

>  <energy>  (16) 
-8.32

>  <cluster_rmsd>  (16) 
0.64

>  <rmsd>  (16) 
272.33

>  <cluster>  (16) 
3

$$$$
ATTQMMYACVSETC-GCOZCMQUNA-N
     RDKit          3D

 59 64  0  0  0  0  0  0  0  0999 V2000
  145.4410   71.6550  221.0340 H   0  0  0  0  0  0  0  0  0  0  0  0
  145.0150   71.7980  220.0910 N   0  0  0  0  0  0  0  0  0  0  0  0
  145.1530   72.9140  219.4460 C   0  0  0  0  0  0  0  0  0  0  0  0
  146.2760   73.1180  218.6430 O   0  0  0  0  0  0  0  0  0  0  0  0
  146.5720   74.0470  218.3690 H   0  0  0  0  0  0  0  0  0  0  0  0
  144.1250   73.9760  219.5560 C   0  0  0  0  0  0  0  0  0  0  0  0
  143.9580   74.9410  218.5240 C   0  0  0  0  0  0  0  0  0  0  0  0
  144.6038   74.9015  217.6344 H   0  0  0  0  0  0  0  0  0  0  0  0
  142.9780   75.9450  218.6260 C   0  0  0  0  0  0  0  0  0  0  0  0
  142.8433   76.6898  217.8278 H   0  0  0  0  0  0  0  0  0  0  0  0
  142.1850   75.9660  219.7680 C   0  0  0  0  0  0  0  0  0  0  0  0
  141.1550   76.8060  220.1270 C   0  0  0  0  0  0  0  0  0  0  0  0
  140.7542   77.6565  219.5560 H   0  0  0  0  0  0  0  0  0  0  0  0
  140.7310   76.3440  221.3710 C   0  0  0  0  0  0  0  0  0  0  0  0
  139.6170   76.9140  222.1480 C   0  0  0  0  0  0  0  0  0  0  0  0
  138.7150   76.1490  222.5830 O   0  0  0  0  0  0  0  0  0  0  0  0
  139.5300   78.3270  222.3890 N   0  0  0  0  0  0  0  0  0  0  0  0
  140.6060   79.1450  222.8250 C   0  0  0  0  0  0  0  0  0  0  0  0
  141.9730   78.8640  222.7070 C   0  0  0  0  0  0  0  0  0  0  0  0
  142.3164   77.9228  222.2529 H   0  0  0  0  0  0  0  0  0  0  0  0
  142.8950   79.8100  223.1810 C   0  0  0  0  0  0  0  0  0  0  0  0
  143.9738   79.6088  223.1059 H   0  0  0  0  0  0  0  0  0  0  0  0
  142.4450   81.0150  223.7520 C   0  0  0  0  0  0  0  0  0  0  0  0
  143.1727   81.7501  224.1263 H   0  0  0  0  0  0  0  0  0  0  0  0
  141.0710   81.2810  223.8450 C   0  0  0  0  0  0  0  0  0  0  0  0
  140.7109   82.2224  224.2857 H   0  0  0  0  0  0  0  0  0  0  0  0
  140.1660   80.3250  223.3660 C   0  0  0  0  0  0  0  0  0  0  0  0
  138.6670   80.3860  223.3350 C   0  0  1  0  0  0  0  0  0  0  0  0
  138.2700   79.0140  222.6850 C   0  0  0  0  0  0  0  0  0  0  0  0
  137.6991   79.1806  221.7596 H   0  0  0  0  0  0  0  0  0  0  0  0
  137.6351   78.4186  223.3575 H   0  0  0  0  0  0  0  0  0  0  0  0
  138.0420   80.5720  224.7130 C   0  0  0  0  0  0  0  0  0  0  0  0
  138.6369   81.2773  225.3119 H   0  0  0  0  0  0  0  0  0  0  0  0
  138.0038   79.6258  225.2726 H   0  0  0  0  0  0  0  0  0  0  0  0
  136.6980   81.1130  224.4700 N   0  0  0  0  0  0  0  0  0  0  0  0
  136.1890   81.8960  225.6210 C   0  0  1  0  0  0  0  0  0  0  0  0
  135.4792   81.2166  226.1155 H   0  0  0  0  0  0  0  0  0  0  0  0
  137.3170   82.3600  226.5350 C   0  0  0  0  0  0  0  0  0  0  0  0
  138.2353   82.5107  225.9484 H   0  0  0  0  0  0  0  0  0  0  0  0
  137.5184   81.6046  227.3089 H   0  0  0  0  0  0  0  0  0  0  0  0
  136.9070   83.6230  227.1500 N   0  0  0  0  0  0  0  0  0  0  0  0
  136.5490   83.4180  228.1120 H   0  0  0  0  0  0  0  0  0  0  0  0
  135.7990   84.1520  226.3480 C   0  0  0  0  0  0  0  0  0  0  0  0
  136.0593   85.1506  225.9671 H   0  0  0  0  0  0  0  0  0  0  0  0
  134.8914   84.2348  226.9639 H   0  0  0  0  0  0  0  0  0  0  0  0
  135.5570   83.2050  225.1840 C   0  0  0  0  0  0  0  0  0  0  0  0
  136.0376   83.5825  224.2694 H   0  0  0  0  0  0  0  0  0  0  0  0
  134.4879   83.0954  224.9494 H   0  0  0  0  0  0  0  0  0  0  0  0
  136.8030   81.9200  223.2370 C   0  0  0  0  0  0  0  0  0  0  0  0
  136.7794   82.9904  223.4895 H   0  0  0  0  0  0  0  0  0  0  0  0
  135.9606   81.6984  222.5652 H   0  0  0  0  0  0  0  0  0  0  0  0
  138.1260   81.5790  222.5540 C   0  0  0  0  0  0  0  0  0  0  0  0
  138.8226   82.4285  222.6111 H   0  0  0  0  0  0  0  0  0  0  0  0
  137.9972   81.3536  221.4851 H   0  0  0  0  0  0  0  0  0  0  0  0
  141.4520   75.2620  221.7570 N   0  0  0  0  0  0  0  0  0  0  0  0
  141.3220   74.6830  222.6150 H   0  0  0  0  0  0  0  0  0  0  0  0
  142.3370   75.0460  220.7700 C   0  0  0  0  0  0  0  0  0  0  0  0
  143.2930   74.0350  220.7000 C   0  0  0  0  0  0  0  0  0  0  0  0
  143.3987   73.3014  221.5128 H   0  0  0  0  0  0  0  0  0  0  0  0
  1  2  1  0
  2  3  2  0
  3  4  1  0
  4  5  1  0
  3  6  1  0
  6  7  2  0
  7  8  1  0
  7  9  1  0
  9 10  1  0
  9 11  2  0
 11 12  1  0
 12 13  1  0
 12 14  2  0
 14 15  1  0
 15 16  2  0
 15 17  1  0
 17 18  1  0
 18 19  2  0
 19 20  1  0
 19 21  1  0
 21 22  1  0
 21 23  2  0
 23 24  1  0
 23 25  1  0
 25 26  1  0
 25 27  2  0
 27 28  1  0
 28 29  1  6
 29 30  1  0
 29 31  1  0
 28 32  1  0
 32 33  1  0
 32 34  1  0
 32 35  1  0
 35 36  1  0
 36 37  1  1
 36 38  1  0
 38 39  1  0
 38 40  1  0
 38 41  1  0
 41 42  1  0
 41 43  1  0
 43 44  1  0
 43 45  1  0
 43 46  1  0
 46 47  1  0
 46 48  1  0
 35 49  1  0
 49 50  1  0
 49 51  1  0
 49 52  1  0
 52 53  1  0
 52 54  1  0
 14 55  1  0
 55 56  1  0
 55 57  1  0
 57 58  2  0
 58 59  1  0
 58  6  1  0
 57 11  1  0
 29 17  1  0
 46 36  1  0
 27 18  1  0
 52 28  1  0
M  END
>  <UniqueID>  (17) 
39

>  <SMILES>  (17) 
[H]/N=C(\O)c1ccc2cc(C(=O)N3C[C@]4(CCN([C@@H]5CCNC5)C4)c4ccccc43)[nH]c2c1

>  <Energy>  (17) 
124.4375381262645

>  <Genealogy>  (17) 
N=C(O)c1ccc2cc(C(=O)N3C[C@]4(CCN(C5CCNC5)C4)c4ccccc43)[nH]c2c1 (tautomer)
N=C(O)c1ccc2cc(C(=O)N3C[C@]4(CCN([C@@H]5CCNC5)C4)c4ccccc43)[nH]c2c1 (chirality)
[H]/N=C(\O)c1ccc2cc(C(=O)N3C[C@]4(CCN([C@@H]5CCNC5)C4)c4ccccc43)[nH]c2c1 (cis-trans isomerization)
[H]/N=C(\O)c1ccc2cc(C(=O)N3C[C@]4(CCN([C@@H]5CCNC5)C4)c4ccccc43)[nH]c2c1 (3D coordinates assigned)
[H]/N=C(\O)c1ccc2cc(C(=O)N3C[C@]4(CCN([C@@H]5CCNC5)C4)c4ccccc43)[nH]c2c1 (nonaromatic ring conformer: 124.4375381262645 kcal/mol)

>  <smiles>  (17) 
NC(=O)c1ccc2cc(C(=O)N3C[C@]4(CCN(C5CCNC5)C4)c4ccccc43)[nH]c2c1

>  <score_type>  (17) 
oracle

>  <origin>  (17) 
autodockgpu

>  <m_score__min__energy>  (17) 
-9.2200000000000006

>  <m_primary>  (17) 
energy

>  <meeko>  (17) 
{"free_energy": -9.22, "intermolecular_energy": -11.01, "internal_energy": -1.12, "cluster_size": 11, "cluster_id": 1, "rank_in_cluster": 1}

>  <energy>  (17) 
-8.09

>  <cluster_rmsd>  (17) 
0.65

>  <rmsd>  (17) 
272.33

>  <cluster>  (17) 
3

$$$$
ATTQMMYACVSETC-GCOZCMQUNA-N
     RDKit          3D

 59 64  0  0  0  0  0  0  0  0999 V2000
  146.6370   72.2800  221.9540 H   0  0  0  0  0  0  0  0  0  0  0  0
  146.6990   73.0210  221.2210 N   0  0  0  0  0  0  0  0  0  0  0  0
  145.8570   73.0740  220.2370 C   0  0  0  0  0  0  0  0  0  0  0  0
  146.3260   73.1770  218.9270 O   0  0  0  0  0  0  0  0  0  0  0  0
  146.3420   74.0640  218.4370 H   0  0  0  0  0  0  0  0  0  0  0  0
  144.3980   73.0270  220.4950 C   0  0  0  0  0  0  0  0  0  0  0  0
  143.6810   71.8000  220.4140 C   0  0  0  0  0  0  0  0  0  0  0  0
  144.2153   70.8749  220.1519 H   0  0  0  0  0  0  0  0  0  0  0  0
  142.2980   71.7560  220.6650 C   0  0  0  0  0  0  0  0  0  0  0  0
  141.7414   70.8089  220.6082 H   0  0  0  0  0  0  0  0  0  0  0  0
  141.6560   72.9460  220.9870 C   0  0  0  0  0  0  0  0  0  0  0  0
  140.3370   73.1980  221.2940 C   0  0  0  0  0  0  0  0  0  0  0  0
  139.5092   72.4749  221.3371 H   0  0  0  0  0  0  0  0  0  0  0  0
  140.2800   74.5680  221.5380 C   0  0  0  0  0  0  0  0  0  0  0  0
  139.0680   75.3040  221.9370 C   0  0  0  0  0  0  0  0  0  0  0  0
  137.9400   74.7680  221.7670 O   0  0  0  0  0  0  0  0  0  0  0  0
  139.1530   76.6270  222.4880 N   0  0  0  0  0  0  0  0  0  0  0  0
  138.0390   77.4470  222.8100 C   0  0  0  0  0  0  0  0  0  0  0  0
  136.7270   77.0210  223.0510 C   0  0  0  0  0  0  0  0  0  0  0  0
  136.4605   75.9558  222.9846 H   0  0  0  0  0  0  0  0  0  0  0  0
  135.7600   77.9830  223.3790 C   0  0  0  0  0  0  0  0  0  0  0  0
  134.7211   77.6735  223.5659 H   0  0  0  0  0  0  0  0  0  0  0  0
  136.1130   79.3420  223.4700 C   0  0  0  0  0  0  0  0  0  0  0  0
  135.3484   80.0918  223.7214 H   0  0  0  0  0  0  0  0  0  0  0  0
  137.4370   79.7430  223.2410 C   0  0  0  0  0  0  0  0  0  0  0  0
  137.7224   80.8027  223.3158 H   0  0  0  0  0  0  0  0  0  0  0  0
  138.3900   78.7680  222.9150 C   0  0  0  0  0  0  0  0  0  0  0  0
  139.8560   78.9420  222.6470 C   0  0  1  0  0  0  0  0  0  0  0  0
  140.3360   77.4800  222.3460 C   0  0  0  0  0  0  0  0  0  0  0  0
  141.1130   77.1778  223.0636 H   0  0  0  0  0  0  0  0  0  0  0  0
  140.7715   77.3991  221.3391 H   0  0  0  0  0  0  0  0  0  0  0  0
  140.1500   79.8950  221.4930 C   0  0  0  0  0  0  0  0  0  0  0  0
  139.4612   80.7522  221.5184 H   0  0  0  0  0  0  0  0  0  0  0  0
  140.0184   79.4043  220.5173 H   0  0  0  0  0  0  0  0  0  0  0  0
  141.5340   80.3440  221.6920 N   0  0  0  0  0  0  0  0  0  0  0  0
  141.7920   81.6640  221.0710 C   0  0  1  0  0  0  0  0  0  0  0  0
  142.8508   81.8624  221.2938 H   0  0  0  0  0  0  0  0  0  0  0  0
  141.4780   81.6610  219.5780 C   0  0  0  0  0  0  0  0  0  0  0  0
  140.6708   80.9441  219.3673 H   0  0  0  0  0  0  0  0  0  0  0  0
  142.3659   81.3648  219.0002 H   0  0  0  0  0  0  0  0  0  0  0  0
  141.0540   83.0110  219.2050 N   0  0  0  0  0  0  0  0  0  0  0  0
  141.8730   83.5030  218.7760 H   0  0  0  0  0  0  0  0  0  0  0  0
  140.6930   83.7060  220.4440 C   0  0  0  0  0  0  0  0  0  0  0  0
  139.6478   84.0445  220.3894 H   0  0  0  0  0  0  0  0  0  0  0  0
  141.3410   84.5830  220.5888 H   0  0  0  0  0  0  0  0  0  0  0  0
  140.8590   82.7360  221.6020 C   0  0  0  0  0  0  0  0  0  0  0  0
  139.8895   82.3011  221.8866 H   0  0  0  0  0  0  0  0  0  0  0  0
  141.2558   83.2258  222.5035 H   0  0  0  0  0  0  0  0  0  0  0  0
  141.7520   80.3510  223.1530 C   0  0  0  0  0  0  0  0  0  0  0  0
  141.7609   81.3869  223.5230 H   0  0  0  0  0  0  0  0  0  0  0  0
  142.7173   79.8823  223.3948 H   0  0  0  0  0  0  0  0  0  0  0  0
  140.6110   79.5770  223.8110 C   0  0  0  0  0  0  0  0  0  0  0  0
  139.9551   80.2566  224.3749 H   0  0  0  0  0  0  0  0  0  0  0  0
  140.9747   78.8286  224.5305 H   0  0  0  0  0  0  0  0  0  0  0  0
  141.5050   75.1350  221.4040 N   0  0  0  0  0  0  0  0  0  0  0  0
  141.7690   76.1300  221.5750 H   0  0  0  0  0  0  0  0  0  0  0  0
  142.3330   74.1340  221.0650 C   0  0  0  0  0  0  0  0  0  0  0  0
  143.7030   74.2140  220.8290 C   0  0  0  0  0  0  0  0  0  0  0  0
  144.2320   75.1758  220.9004 H   0  0  0  0  0  0  0  0  0  0  0  0
  1  2  1  0
  2  3  2  0
  3  4  1  0
  4  5  1  0
  3  6  1  0
  6  7  2  0
  7  8  1  0
  7  9  1  0
  9 10  1  0
  9 11  2  0
 11 12  1  0
 12 13  1  0
 12 14  2  0
 14 15  1  0
 15 16  2  0
 15 17  1  0
 17 18  1  0
 18 19  2  0
 19 20  1  0
 19 21  1  0
 21 22  1  0
 21 23  2  0
 23 24  1  0
 23 25  1  0
 25 26  1  0
 25 27  2  0
 27 28  1  0
 28 29  1  6
 29 30  1  0
 29 31  1  0
 28 32  1  0
 32 33  1  0
 32 34  1  0
 32 35  1  0
 35 36  1  0
 36 37  1  6
 36 38  1  0
 38 39  1  0
 38 40  1  0
 38 41  1  0
 41 42  1  0
 41 43  1  0
 43 44  1  0
 43 45  1  0
 43 46  1  0
 46 47  1  0
 46 48  1  0
 35 49  1  0
 49 50  1  0
 49 51  1  0
 49 52  1  0
 52 53  1  0
 52 54  1  0
 14 55  1  0
 55 56  1  0
 55 57  1  0
 57 58  2  0
 58 59  1  0
 58  6  1  0
 57 11  1  0
 29 17  1  0
 46 36  1  0
 27 18  1  0
 52 28  1  0
M  END
>  <UniqueID>  (18) 
39

>  <SMILES>  (18) 
[H]/N=C(\O)c1ccc2cc(C(=O)N3C[C@]4(CCN([C@@H]5CCNC5)C4)c4ccccc43)[nH]c2c1

>  <Energy>  (18) 
124.4375381262645

>  <Genealogy>  (18) 
N=C(O)c1ccc2cc(C(=O)N3C[C@]4(CCN(C5CCNC5)C4)c4ccccc43)[nH]c2c1 (tautomer)
N=C(O)c1ccc2cc(C(=O)N3C[C@]4(CCN([C@@H]5CCNC5)C4)c4ccccc43)[nH]c2c1 (chirality)
[H]/N=C(\O)c1ccc2cc(C(=O)N3C[C@]4(CCN([C@@H]5CCNC5)C4)c4ccccc43)[nH]c2c1 (cis-trans isomerization)
[H]/N=C(\O)c1ccc2cc(C(=O)N3C[C@]4(CCN([C@@H]5CCNC5)C4)c4ccccc43)[nH]c2c1 (3D coordinates assigned)
[H]/N=C(\O)c1ccc2cc(C(=O)N3C[C@]4(CCN([C@@H]5CCNC5)C4)c4ccccc43)[nH]c2c1 (nonaromatic ring conformer: 124.4375381262645 kcal/mol)

>  <smiles>  (18) 
NC(=O)c1ccc2cc(C(=O)N3C[C@]4(CCN(C5CCNC5)C4)c4ccccc43)[nH]c2c1

>  <score_type>  (18) 
oracle

>  <origin>  (18) 
autodockgpu

>  <m_score__min__energy>  (18) 
-9.2200000000000006

>  <m_primary>  (18) 
energy

>  <meeko>  (18) 
{"free_energy": -8.48, "intermolecular_energy": -10.27, "internal_energy": -0.73, "cluster_size": 3, "cluster_id": 2, "rank_in_cluster": 1}

>  <energy>  (18) 
-8.07

>  <cluster_rmsd>  (18) 
1.15

>  <rmsd>  (18) 
272.54

>  <cluster>  (18) 
3

$$$$
ATTQMMYACVSETC-GCOZCMQUNA-N
     RDKit          3D

 59 64  0  0  0  0  0  0  0  0999 V2000
  145.4830   71.8520  220.9850 H   0  0  0  0  0  0  0  0  0  0  0  0
  145.7340   72.8170  220.6760 N   0  0  0  0  0  0  0  0  0  0  0  0
  145.2270   73.3390  219.6030 C   0  0  0  0  0  0  0  0  0  0  0  0
  145.9550   73.3230  218.4130 O   0  0  0  0  0  0  0  0  0  0  0  0
  146.0940   74.1630  217.8640 H   0  0  0  0  0  0  0  0  0  0  0  0
  143.8780   73.9540  219.6330 C   0  0  0  0  0  0  0  0  0  0  0  0
  143.0630   73.9810  218.4670 C   0  0  0  0  0  0  0  0  0  0  0  0
  143.4405   73.5450  217.5303 H   0  0  0  0  0  0  0  0  0  0  0  0
  141.7810   74.5580  218.4970 C   0  0  0  0  0  0  0  0  0  0  0  0
  141.1456   74.5762  217.5992 H   0  0  0  0  0  0  0  0  0  0  0  0
  141.3420   75.1050  219.6980 C   0  0  0  0  0  0  0  0  0  0  0  0
  140.1480   75.7110  220.0220 C   0  0  0  0  0  0  0  0  0  0  0  0
  139.2854   75.8878  219.3627 H   0  0  0  0  0  0  0  0  0  0  0  0
  140.2720   76.0510  221.3680 C   0  0  0  0  0  0  0  0  0  0  0  0
  139.2230   76.7000  222.1730 C   0  0  0  0  0  0  0  0  0  0  0  0
  138.3160   75.9920  222.6880 O   0  0  0  0  0  0  0  0  0  0  0  0
  139.2040   78.1240  222.3540 N   0  0  0  0  0  0  0  0  0  0  0  0
  140.3160   78.9060  222.7670 C   0  0  0  0  0  0  0  0  0  0  0  0
  141.6680   78.5540  222.6750 C   0  0  0  0  0  0  0  0  0  0  0  0
  141.9683   77.5789  222.2639 H   0  0  0  0  0  0  0  0  0  0  0  0
  142.6320   79.4730  223.1190 C   0  0  0  0  0  0  0  0  0  0  0  0
  143.7002   79.2162  223.0640 H   0  0  0  0  0  0  0  0  0  0  0  0
  142.2370   80.7210  223.6340 C   0  0  0  0  0  0  0  0  0  0  0  0
  142.9972   81.4345  223.9847 H   0  0  0  0  0  0  0  0  0  0  0  0
  140.8770   81.0590  223.7020 C   0  0  0  0  0  0  0  0  0  0  0  0
  140.5604   82.0349  224.0988 H   0  0  0  0  0  0  0  0  0  0  0  0
  139.9300   80.1280  223.2540 C   0  0  0  0  0  0  0  0  0  0  0  0
  138.4360   80.2610  223.2050 C   0  0  1  0  0  0  0  0  0  0  0  0
  137.9780   78.8840  222.6090 C   0  0  0  0  0  0  0  0  0  0  0  0
  137.4231   79.0392  221.6720 H   0  0  0  0  0  0  0  0  0  0  0  0
  137.3099   78.3491  223.3001 H   0  0  0  0  0  0  0  0  0  0  0  0
  137.8090   80.5360  224.5680 C   0  0  0  0  0  0  0  0  0  0  0  0
  138.4328   81.2362  225.1430 H   0  0  0  0  0  0  0  0  0  0  0  0
  137.7195   79.6176  225.1667 H   0  0  0  0  0  0  0  0  0  0  0  0
  136.4960   81.1310  224.2880 N   0  0  0  0  0  0  0  0  0  0  0  0
  136.0170   81.9850  225.4000 C   0  0  1  0  0  0  0  0  0  0  0  0
  135.0520   81.5398  225.6839 H   0  0  0  0  0  0  0  0  0  0  0  0
  137.0190   82.0380  226.5480 C   0  0  0  0  0  0  0  0  0  0  0  0
  138.0407   81.9193  226.1580 H   0  0  0  0  0  0  0  0  0  0  0  0
  136.8234   81.2268  227.2648 H   0  0  0  0  0  0  0  0  0  0  0  0
  136.8850   83.3400  227.2030 N   0  0  0  0  0  0  0  0  0  0  0  0
  136.2920   83.2170  228.0580 H   0  0  0  0  0  0  0  0  0  0  0  0
  136.1730   84.2190  226.2700 C   0  0  0  0  0  0  0  0  0  0  0  0
  136.7898   85.1021  226.0471 H   0  0  0  0  0  0  0  0  0  0  0  0
  135.2242   84.5539  226.7146 H   0  0  0  0  0  0  0  0  0  0  0  0
  135.9060   83.4430  224.9910 C   0  0  0  0  0  0  0  0  0  0  0  0
  136.6544   83.6894  224.2234 H   0  0  0  0  0  0  0  0  0  0  0  0
  134.9248   83.6812  224.5546 H   0  0  0  0  0  0  0  0  0  0  0  0
  136.6510   81.8790  223.0240 C   0  0  0  0  0  0  0  0  0  0  0  0
  136.6785   82.9589  223.2315 H   0  0  0  0  0  0  0  0  0  0  0  0
  135.8042   81.6709  222.3535 H   0  0  0  0  0  0  0  0  0  0  0  0
  137.9610   81.4450  222.3690 C   0  0  0  0  0  0  0  0  0  0  0  0
  138.6982   82.2609  222.3974 H   0  0  0  0  0  0  0  0  0  0  0  0
  137.8299   81.1812  221.3092 H   0  0  0  0  0  0  0  0  0  0  0  0
  141.4750   75.6620  221.8560 N   0  0  0  0  0  0  0  0  0  0  0  0
  141.8200   75.7410  222.8380 H   0  0  0  0  0  0  0  0  0  0  0  0
  142.1180   75.0900  220.8250 C   0  0  0  0  0  0  0  0  0  0  0  0
  143.3890   74.5210  220.8330 C   0  0  0  0  0  0  0  0  0  0  0  0
  143.9973   74.5127  221.7494 H   0  0  0  0  0  0  0  0  0  0  0  0
  1  2  1  0
  2  3  2  0
  3  4  1  0
  4  5  1  0
  3  6  1  0
  6  7  2  0
  7  8  1  0
  7  9  1  0
  9 10  1  0
  9 11  2  0
 11 12  1  0
 12 13  1  0
 12 14  2  0
 14 15  1  0
 15 16  2  0
 15 17  1  0
 17 18  1  0
 18 19  2  0
 19 20  1  0
 19 21  1  0
 21 22  1  0
 21 23  2  0
 23 24  1  0
 23 25  1  0
 25 26  1  0
 25 27  2  0
 27 28  1  0
 28 29  1  6
 29 30  1  0
 29 31  1  0
 28 32  1  0
 32 33  1  0
 32 34  1  0
 32 35  1  0
 35 36  1  0
 36 37  1  1
 36 38  1  0
 38 39  1  0
 38 40  1  0
 38 41  1  0
 41 42  1  0
 41 43  1  0
 43 44  1  0
 43 45  1  0
 43 46  1  0
 46 47  1  0
 46 48  1  0
 35 49  1  0
 49 50  1  0
 49 51  1  0
 49 52  1  0
 52 53  1  0
 52 54  1  0
 14 55  1  0
 55 56  1  0
 55 57  1  0
 57 58  2  0
 58 59  1  0
 58  6  1  0
 57 11  1  0
 29 17  1  0
 46 36  1  0
 27 18  1  0
 52 28  1  0
M  END
>  <UniqueID>  (19) 
39

>  <SMILES>  (19) 
[H]/N=C(\O)c1ccc2cc(C(=O)N3C[C@]4(CCN([C@@H]5CCNC5)C4)c4ccccc43)[nH]c2c1

>  <Energy>  (19) 
124.4375381262645

>  <Genealogy>  (19) 
N=C(O)c1ccc2cc(C(=O)N3C[C@]4(CCN(C5CCNC5)C4)c4ccccc43)[nH]c2c1 (tautomer)
N=C(O)c1ccc2cc(C(=O)N3C[C@]4(CCN([C@@H]5CCNC5)C4)c4ccccc43)[nH]c2c1 (chirality)
[H]/N=C(\O)c1ccc2cc(C(=O)N3C[C@]4(CCN([C@@H]5CCNC5)C4)c4ccccc43)[nH]c2c1 (cis-trans isomerization)
[H]/N=C(\O)c1ccc2cc(C(=O)N3C[C@]4(CCN([C@@H]5CCNC5)C4)c4ccccc43)[nH]c2c1 (3D coordinates assigned)
[H]/N=C(\O)c1ccc2cc(C(=O)N3C[C@]4(CCN([C@@H]5CCNC5)C4)c4ccccc43)[nH]c2c1 (nonaromatic ring conformer: 124.4375381262645 kcal/mol)

>  <smiles>  (19) 
NC(=O)c1ccc2cc(C(=O)N3C[C@]4(CCN(C5CCNC5)C4)c4ccccc43)[nH]c2c1

>  <score_type>  (19) 
oracle

>  <origin>  (19) 
autodockgpu

>  <m_score__min__energy>  (19) 
-9.2200000000000006

>  <m_primary>  (19) 
energy

>  <meeko>  (19) 
{"free_energy": -9.17, "intermolecular_energy": -10.95, "internal_energy": -1.07, "cluster_size": 11, "cluster_id": 1, "rank_in_cluster": 3}

>  <energy>  (19) 
-8.41

>  <cluster_rmsd>  (19) 
0.0

>  <rmsd>  (19) 
274.02

>  <cluster>  (19) 
4

$$$$
ATTQMMYACVSETC-GCOZCMQUNA-N
     RDKit          3D

 59 64  0  0  0  0  0  0  0  0999 V2000
  146.2690   74.1220  218.5910 H   0  0  0  0  0  0  0  0  0  0  0  0
  146.2790   73.2160  219.1110 N   0  0  0  0  0  0  0  0  0  0  0  0
  145.8240   73.1230  220.3210 C   0  0  0  0  0  0  0  0  0  0  0  0
  146.7140   73.0150  221.3900 O   0  0  0  0  0  0  0  0  0  0  0  0
  146.7150   72.2070  222.0020 H   0  0  0  0  0  0  0  0  0  0  0  0
  144.3640   73.1300  220.5770 C   0  0  0  0  0  0  0  0  0  0  0  0
  143.6420   71.9120  220.7170 C   0  0  0  0  0  0  0  0  0  0  0  0
  144.1728   70.9525  220.6295 H   0  0  0  0  0  0  0  0  0  0  0  0
  142.2570   71.9200  220.9660 C   0  0  0  0  0  0  0  0  0  0  0  0
  141.6955   70.9810  221.0795 H   0  0  0  0  0  0  0  0  0  0  0  0
  141.6210   73.1520  221.0640 C   0  0  0  0  0  0  0  0  0  0  0  0
  140.3020   73.4610  221.3140 C   0  0  0  0  0  0  0  0  0  0  0  0
  139.4705   72.7613  221.4843 H   0  0  0  0  0  0  0  0  0  0  0  0
  140.2510   74.8540  221.3040 C   0  0  0  0  0  0  0  0  0  0  0  0
  139.0410   75.6550  221.5580 C   0  0  0  0  0  0  0  0  0  0  0  0
  137.9260   75.2320  221.1490 O   0  0  0  0  0  0  0  0  0  0  0  0
  139.1200   76.9190  222.2350 N   0  0  0  0  0  0  0  0  0  0  0  0
  138.0040   77.6570  222.7110 C   0  0  0  0  0  0  0  0  0  0  0  0
  136.7260   77.1560  222.9910 C   0  0  0  0  0  0  0  0  0  0  0  0
  136.4914   76.0930  222.8327 H   0  0  0  0  0  0  0  0  0  0  0  0
  135.7520   78.0410  223.4780 C   0  0  0  0  0  0  0  0  0  0  0  0
  134.7392   77.6729  223.6989 H   0  0  0  0  0  0  0  0  0  0  0  0
  136.0650   79.3970  223.6850 C   0  0  0  0  0  0  0  0  0  0  0  0
  135.2949   80.0864  224.0612 H   0  0  0  0  0  0  0  0  0  0  0  0
  137.3560   79.8720  223.4130 C   0  0  0  0  0  0  0  0  0  0  0  0
  137.6102   80.9295  223.5773 H   0  0  0  0  0  0  0  0  0  0  0  0
  138.3160   78.9740  222.9280 C   0  0  0  0  0  0  0  0  0  0  0  0
  139.7540   79.2330  222.5860 C   0  0  1  0  0  0  0  0  0  0  0  0
  140.2610   77.8290  222.1050 C   0  0  0  0  0  0  0  0  0  0  0  0
  141.0953   77.4878  222.7355 H   0  0  0  0  0  0  0  0  0  0  0  0
  140.6285   77.8676  221.0689 H   0  0  0  0  0  0  0  0  0  0  0  0
  139.9360   80.3070  221.5190 C   0  0  0  0  0  0  0  0  0  0  0  0
  139.2219   81.1288  221.6761 H   0  0  0  0  0  0  0  0  0  0  0  0
  139.7547   79.9109  220.5089 H   0  0  0  0  0  0  0  0  0  0  0  0
  141.3150   80.7900  221.6730 N   0  0  0  0  0  0  0  0  0  0  0  0
  141.4860   82.1750  221.1760 C   0  0  1  0  0  0  0  0  0  0  0  0
  142.4520   82.4939  221.5944 H   0  0  0  0  0  0  0  0  0  0  0  0
  141.4350   82.2410  219.6530 C   0  0  0  0  0  0  0  0  0  0  0  0
  140.7850   81.4425  219.2657 H   0  0  0  0  0  0  0  0  0  0  0  0
  142.4411   82.1063  219.2293 H   0  0  0  0  0  0  0  0  0  0  0  0
  140.8940   83.5490  219.2780 N   0  0  0  0  0  0  0  0  0  0  0  0
  141.6960   84.1750  219.0280 H   0  0  0  0  0  0  0  0  0  0  0  0
  140.2320   84.0970  220.4660 C   0  0  0  0  0  0  0  0  0  0  0  0
  139.1743   84.2997  220.2419 H   0  0  0  0  0  0  0  0  0  0  0  0
  140.7154   85.0375  220.7688 H   0  0  0  0  0  0  0  0  0  0  0  0
  140.3330   83.0730  221.5850 C   0  0  0  0  0  0  0  0  0  0  0  0
  139.4008   82.4950  221.6684 H   0  0  0  0  0  0  0  0  0  0  0  0
  140.4958   83.5414  222.5669 H   0  0  0  0  0  0  0  0  0  0  0  0
  141.6320   80.6590  223.1100 C   0  0  0  0  0  0  0  0  0  0  0  0
  141.6312   81.6520  223.5833 H   0  0  0  0  0  0  0  0  0  0  0  0
  142.6269   80.2080  223.2396 H   0  0  0  0  0  0  0  0  0  0  0  0
  140.5650   79.7770  223.7570 C   0  0  0  0  0  0  0  0  0  0  0  0
  139.9270   80.3693  224.4294 H   0  0  0  0  0  0  0  0  0  0  0  0
  141.0021   78.9751  224.3701 H   0  0  0  0  0  0  0  0  0  0  0  0
  141.4790   75.3810  221.0750 N   0  0  0  0  0  0  0  0  0  0  0  0
  141.7480   76.3900  221.0630 H   0  0  0  0  0  0  0  0  0  0  0  0
  142.3030   74.3310  220.9270 C   0  0  0  0  0  0  0  0  0  0  0  0
  143.6750   74.3610  220.6860 C   0  0  0  0  0  0  0  0  0  0  0  0
  144.2089   75.3172  220.5831 H   0  0  0  0  0  0  0  0  0  0  0  0
  1  2  1  0
  2  3  2  0
  3  4  1  0
  4  5  1  0
  3  6  1  0
  6  7  2  0
  7  8  1  0
  7  9  1  0
  9 10  1  0
  9 11  2  0
 11 12  1  0
 12 13  1  0
 12 14  2  0
 14 15  1  0
 15 16  2  0
 15 17  1  0
 17 18  1  0
 18 19  2  0
 19 20  1  0
 19 21  1  0
 21 22  1  0
 21 23  2  0
 23 24  1  0
 23 25  1  0
 25 26  1  0
 25 27  2  0
 27 28  1  0
 28 29  1  6
 29 30  1  0
 29 31  1  0
 28 32  1  0
 32 33  1  0
 32 34  1  0
 32 35  1  0
 35 36  1  0
 36 37  1  1
 36 38  1  0
 38 39  1  0
 38 40  1  0
 38 41  1  0
 41 42  1  0
 41 43  1  0
 43 44  1  0
 43 45  1  0
 43 46  1  0
 46 47  1  0
 46 48  1  0
 35 49  1  0
 49 50  1  0
 49 51  1  0
 49 52  1  0
 52 53  1  0
 52 54  1  0
 14 55  1  0
 55 56  1  0
 55 57  1  0
 57 58  2  0
 58 59  1  0
 58  6  1  0
 57 11  1  0
 29 17  1  0
 46 36  1  0
 27 18  1  0
 52 28  1  0
M  END
>  <UniqueID>  (20) 
39

>  <SMILES>  (20) 
[H]/N=C(\O)c1ccc2cc(C(=O)N3C[C@]4(CCN([C@@H]5CCNC5)C4)c4ccccc43)[nH]c2c1

>  <Energy>  (20) 
124.4375381262645

>  <Genealogy>  (20) 
N=C(O)c1ccc2cc(C(=O)N3C[C@]4(CCN(C5CCNC5)C4)c4ccccc43)[nH]c2c1 (tautomer)
N=C(O)c1ccc2cc(C(=O)N3C[C@]4(CCN([C@@H]5CCNC5)C4)c4ccccc43)[nH]c2c1 (chirality)
[H]/N=C(\O)c1ccc2cc(C(=O)N3C[C@]4(CCN([C@@H]5CCNC5)C4)c4ccccc43)[nH]c2c1 (cis-trans isomerization)
[H]/N=C(\O)c1ccc2cc(C(=O)N3C[C@]4(CCN([C@@H]5CCNC5)C4)c4ccccc43)[nH]c2c1 (3D coordinates assigned)
[H]/N=C(\O)c1ccc2cc(C(=O)N3C[C@]4(CCN([C@@H]5CCNC5)C4)c4ccccc43)[nH]c2c1 (nonaromatic ring conformer: 124.4375381262645 kcal/mol)

>  <smiles>  (20) 
NC(=O)c1ccc2cc(C(=O)N3C[C@]4(CCN(C5CCNC5)C4)c4ccccc43)[nH]c2c1

>  <score_type>  (20) 
oracle

>  <origin>  (20) 
autodockgpu

>  <m_score__min__energy>  (20) 
-9.2200000000000006

>  <m_primary>  (20) 
energy

>  <meeko>  (20) 
{"free_energy": -7.91, "intermolecular_energy": -9.7, "internal_energy": -0.89, "cluster_size": 3, "cluster_id": 2, "rank_in_cluster": 3}

>  <energy>  (20) 
-7.93

>  <cluster_rmsd>  (20) 
1.18

>  <rmsd>  (20) 
273.88

>  <cluster>  (20) 
4

$$$$
ATTQMMYACVSETC-MLBODIKXNA-N
     RDKit          3D

 59 64  0  0  0  0  0  0  0  0999 V2000
  145.5240   71.9270  221.1230 H   0  0  0  0  0  0  0  0  0  0  0  0
  145.7550   72.9180  220.8920 N   0  0  0  0  0  0  0  0  0  0  0  0
  145.3120   73.5230  219.8340 C   0  0  0  0  0  0  0  0  0  0  0  0
  145.9800   73.3490  218.6250 O   0  0  0  0  0  0  0  0  0  0  0  0
  146.1440   74.1290  218.0000 H   0  0  0  0  0  0  0  0  0  0  0  0
  144.1020   74.3780  219.8760 C   0  0  0  0  0  0  0  0  0  0  0  0
  143.9750   75.4440  218.9480 C   0  0  0  0  0  0  0  0  0  0  0  0
  144.7750   75.6212  218.2141 H   0  0  0  0  0  0  0  0  0  0  0  0
  142.8400   76.2790  218.9520 C   0  0  0  0  0  0  0  0  0  0  0  0
  142.7344   77.0981  218.2254 H   0  0  0  0  0  0  0  0  0  0  0  0
  141.8580   76.0330  219.9050 C   0  0  0  0  0  0  0  0  0  0  0  0
  140.6800   76.6970  220.1670 C   0  0  0  0  0  0  0  0  0  0  0  0
  140.2651   77.5630  219.6305 H   0  0  0  0  0  0  0  0  0  0  0  0
  140.1290   76.0320  221.2600 C   0  0  0  0  0  0  0  0  0  0  0  0
  138.8840   76.4360  221.9460 C   0  0  0  0  0  0  0  0  0  0  0  0
  137.8820   75.6700  221.8920 O   0  0  0  0  0  0  0  0  0  0  0  0
  138.7960   77.6630  222.6900 N   0  0  0  0  0  0  0  0  0  0  0  0
  139.9030   78.5140  222.9550 C   0  0  0  0  0  0  0  0  0  0  0  0
  141.2490   78.1360  223.0320 C   0  0  0  0  0  0  0  0  0  0  0  0
  141.5483   77.0904  222.8675 H   0  0  0  0  0  0  0  0  0  0  0  0
  142.2080   79.1170  223.3230 C   0  0  0  0  0  0  0  0  0  0  0  0
  143.2720   78.8440  223.3808 H   0  0  0  0  0  0  0  0  0  0  0  0
  141.8130   80.4480  223.5410 C   0  0  0  0  0  0  0  0  0  0  0  0
  142.5695   81.2148  223.7641 H   0  0  0  0  0  0  0  0  0  0  0  0
  140.4570   80.8020  223.4750 C   0  0  0  0  0  0  0  0  0  0  0  0
  140.1400   81.8412  223.6468 H   0  0  0  0  0  0  0  0  0  0  0  0
  139.5140   79.8060  223.1860 C   0  0  0  0  0  0  0  0  0  0  0  0
  138.0160   79.9280  223.0830 C   0  0  1  0  0  0  0  0  0  0  0  0
  137.5640   78.4570  222.7930 C   0  0  0  0  0  0  0  0  0  0  0  0
  137.0001   78.4102  221.8497 H   0  0  0  0  0  0  0  0  0  0  0  0
  136.9062   78.0755  223.5878 H   0  0  0  0  0  0  0  0  0  0  0  0
  137.4130   80.5110  224.3590 C   0  0  0  0  0  0  0  0  0  0  0  0
  137.9926   80.1917  225.2377 H   0  0  0  0  0  0  0  0  0  0  0  0
  136.3789   80.1686  224.5123 H   0  0  0  0  0  0  0  0  0  0  0  0
  137.4830   81.9700  224.2020 N   0  0  0  0  0  0  0  0  0  0  0  0
  136.4880   82.6730  225.0450 C   0  0  1  0  0  0  0  0  0  0  0  0
  135.5224   82.2366  224.7498 H   0  0  0  0  0  0  0  0  0  0  0  0
  136.7830   82.5050  226.5390 C   0  0  0  0  0  0  0  0  0  0  0  0
  137.8379   82.2269  226.6798 H   0  0  0  0  0  0  0  0  0  0  0  0
  136.1472   81.7131  226.9617 H   0  0  0  0  0  0  0  0  0  0  0  0
  136.5130   83.7800  227.2140 N   0  0  0  0  0  0  0  0  0  0  0  0
  137.4040   84.1230  227.6450 H   0  0  0  0  0  0  0  0  0  0  0  0
  136.1080   84.7340  226.1860 C   0  0  0  0  0  0  0  0  0  0  0  0
  136.5936   85.7049  226.3634 H   0  0  0  0  0  0  0  0  0  0  0  0
  135.0185   84.8842  226.2068 H   0  0  0  0  0  0  0  0  0  0  0  0
  136.5420   84.1770  224.8460 C   0  0  0  0  0  0  0  0  0  0  0  0
  137.5628   84.5032  224.5980 H   0  0  0  0  0  0  0  0  0  0  0  0
  135.9060   84.5197  224.0165 H   0  0  0  0  0  0  0  0  0  0  0  0
  137.2950   82.2240  222.7590 C   0  0  0  0  0  0  0  0  0  0  0  0
  137.9792   83.0193  222.4284 H   0  0  0  0  0  0  0  0  0  0  0  0
  136.2617   82.5450  222.5606 H   0  0  0  0  0  0  0  0  0  0  0  0
  137.6010   80.9310  222.0040 C   0  0  0  0  0  0  0  0  0  0  0  0
  138.4200   81.0873  221.2865 H   0  0  0  0  0  0  0  0  0  0  0  0
  136.7357   80.5778  221.4238 H   0  0  0  0  0  0  0  0  0  0  0  0
  140.9330   75.0140  221.6660 N   0  0  0  0  0  0  0  0  0  0  0  0
  140.8120   74.3900  222.4890 H   0  0  0  0  0  0  0  0  0  0  0  0
  141.9780   75.0230  220.8220 C   0  0  0  0  0  0  0  0  0  0  0  0
  143.0830   74.1740  220.8380 C   0  0  0  0  0  0  0  0  0  0  0  0
  143.1617   73.3654  221.5796 H   0  0  0  0  0  0  0  0  0  0  0  0
  1  2  1  0
  2  3  2  0
  3  4  1  0
  4  5  1  0
  3  6  1  0
  6  7  2  0
  7  8  1  0
  7  9  1  0
  9 10  1  0
  9 11  2  0
 11 12  1  0
 12 13  1  0
 12 14  2  0
 14 15  1  0
 15 16  2  0
 15 17  1  0
 17 18  1  0
 18 19  2  0
 19 20  1  0
 19 21  1  0
 21 22  1  0
 21 23  2  0
 23 24  1  0
 23 25  1  0
 25 26  1  0
 25 27  2  0
 27 28  1  0
 28 29  1  6
 29 30  1  0
 29 31  1  0
 28 32  1  0
 32 33  1  0
 32 34  1  0
 32 35  1  0
 35 36  1  0
 36 37  1  1
 36 38  1  0
 38 39  1  0
 38 40  1  0
 38 41  1  0
 41 42  1  0
 41 43  1  0
 43 44  1  0
 43 45  1  0
 43 46  1  0
 46 47  1  0
 46 48  1  0
 35 49  1  0
 49 50  1  0
 49 51  1  0
 49 52  1  0
 52 53  1  0
 52 54  1  0
 14 55  1  0
 55 56  1  0
 55 57  1  0
 57 58  2  0
 58 59  1  0
 58  6  1  0
 57 11  1  0
 29 17  1  0
 46 36  1  0
 27 18  1  0
 52 28  1  0
M  END
>  <UniqueID>  (21) 
40

>  <SMILES>  (21) 
[H]/N=C(/O)c1ccc2cc(C(=O)N3C[C@]4(CCN([C@@H]5CCNC5)C4)c4ccccc43)[nH]c2c1

>  <Energy>  (21) 
126.72370301603527

>  <Genealogy>  (21) 
N=C(O)c1ccc2cc(C(=O)N3C[C@]4(CCN(C5CCNC5)C4)c4ccccc43)[nH]c2c1 (tautomer)
N=C(O)c1ccc2cc(C(=O)N3C[C@]4(CCN([C@@H]5CCNC5)C4)c4ccccc43)[nH]c2c1 (chirality)
[H]/N=C(/O)c1ccc2cc(C(=O)N3C[C@]4(CCN([C@@H]5CCNC5)C4)c4ccccc43)[nH]c2c1 (cis-trans isomerization)
[H]/N=C(/O)c1ccc2cc(C(=O)N3C[C@]4(CCN([C@@H]5CCNC5)C4)c4ccccc43)[nH]c2c1 (3D coordinates assigned)
[H]/N=C(/O)c1ccc2cc(C(=O)N3C[C@]4(CCN([C@@H]5CCNC5)C4)c4ccccc43)[nH]c2c1 (nonaromatic ring conformer: 126.72370301603527 kcal/mol)

>  <smiles>  (21) 
NC(=O)c1ccc2cc(C(=O)N3C[C@]4(CCN(C5CCNC5)C4)c4ccccc43)[nH]c2c1

>  <score_type>  (21) 
oracle

>  <origin>  (21) 
autodockgpu

>  <m_score__min__energy>  (21) 
-9.3800000000000008

>  <m_primary>  (21) 
energy

>  <meeko>  (21) 
{"free_energy": -8.96, "intermolecular_energy": -10.75, "internal_energy": -1.04, "cluster_size": 15, "cluster_id": 1, "rank_in_cluster": 11}

>  <energy>  (21) 
-9.38

>  <cluster_rmsd>  (21) 
0.0

>  <rmsd>  (21) 
272.24

>  <cluster>  (21) 
1

$$$$
ATTQMMYACVSETC-MLBODIKXNA-N
     RDKit          3D

 59 64  0  0  0  0  0  0  0  0999 V2000
  144.3140   77.2070  213.9180 H   0  0  0  0  0  0  0  0  0  0  0  0
  143.3180   77.2490  214.2240 N   0  0  0  0  0  0  0  0  0  0  0  0
  142.9080   77.9810  215.2120 C   0  0  0  0  0  0  0  0  0  0  0  0
  142.5760   79.3130  214.9760 O   0  0  0  0  0  0  0  0  0  0  0  0
  143.2110   80.0630  215.2200 H   0  0  0  0  0  0  0  0  0  0  0  0
  142.7640   77.4320  216.5810 C   0  0  0  0  0  0  0  0  0  0  0  0
  143.6600   76.4230  217.0190 C   0  0  0  0  0  0  0  0  0  0  0  0
  144.4450   76.0630  216.3377 H   0  0  0  0  0  0  0  0  0  0  0  0
  143.5600   75.8750  218.3130 C   0  0  0  0  0  0  0  0  0  0  0  0
  144.2621   75.1021  218.6589 H   0  0  0  0  0  0  0  0  0  0  0  0
  142.5440   76.3440  219.1380 C   0  0  0  0  0  0  0  0  0  0  0  0
  142.1880   75.9720  220.4160 C   0  0  0  0  0  0  0  0  0  0  0  0
  142.6777   75.2250  221.0580 H   0  0  0  0  0  0  0  0  0  0  0  0
  141.0710   76.7500  220.7170 C   0  0  0  0  0  0  0  0  0  0  0  0
  140.2910   76.6480  221.9670 C   0  0  0  0  0  0  0  0  0  0  0  0
  139.9560   75.5050  222.3850 O   0  0  0  0  0  0  0  0  0  0  0  0
  139.9300   77.8110  222.7290 N   0  0  0  0  0  0  0  0  0  0  0  0
  140.8000   78.9110  222.9630 C   0  0  0  0  0  0  0  0  0  0  0  0
  142.2000   78.8800  222.9840 C   0  0  0  0  0  0  0  0  0  0  0  0
  142.7440   77.9428  222.7952 H   0  0  0  0  0  0  0  0  0  0  0  0
  142.8940   80.0700  223.2510 C   0  0  0  0  0  0  0  0  0  0  0  0
  143.9939   80.0713  223.2653 H   0  0  0  0  0  0  0  0  0  0  0  0
  142.1900   81.2590  223.5000 C   0  0  0  0  0  0  0  0  0  0  0  0
  142.7398   82.1898  223.7034 H   0  0  0  0  0  0  0  0  0  0  0  0
  140.7860   81.2630  223.4900 C   0  0  0  0  0  0  0  0  0  0  0  0
  140.2268   82.1896  223.6866 H   0  0  0  0  0  0  0  0  0  0  0  0
  140.1110   80.0650  223.2250 C   0  0  0  0  0  0  0  0  0  0  0  0
  138.6260   79.8100  223.1800 C   0  0  1  0  0  0  0  0  0  0  0  0
  138.5440   78.2730  222.8900 C   0  0  0  0  0  0  0  0  0  0  0  0
  137.9714   78.0888  221.9690 H   0  0  0  0  0  0  0  0  0  0  0  0
  138.0356   77.7380  223.7056 H   0  0  0  0  0  0  0  0  0  0  0  0
  137.9490   80.2200  224.4850 C   0  0  0  0  0  0  0  0  0  0  0  0
  138.6248   80.0524  225.3366 H   0  0  0  0  0  0  0  0  0  0  0  0
  137.0397   79.6301  224.6729 H   0  0  0  0  0  0  0  0  0  0  0  0
  137.6470   81.6510  224.3450 N   0  0  0  0  0  0  0  0  0  0  0  0
  136.5430   82.0810  225.2330 C   0  0  1  0  0  0  0  0  0  0  0  0
  136.0733   82.9199  224.6985 H   0  0  0  0  0  0  0  0  0  0  0  0
  135.5630   80.9380  225.5230 C   0  0  0  0  0  0  0  0  0  0  0  0
  136.0532   79.9718  225.3326 H   0  0  0  0  0  0  0  0  0  0  0  0
  134.6810   81.0235  224.8712 H   0  0  0  0  0  0  0  0  0  0  0  0
  135.1570   81.0180  226.9310 N   0  0  0  0  0  0  0  0  0  0  0  0
  135.4580   80.1380  227.4140 H   0  0  0  0  0  0  0  0  0  0  0  0
  135.8840   82.1360  227.5270 C   0  0  0  0  0  0  0  0  0  0  0  0
  136.2583   81.8523  228.5217 H   0  0  0  0  0  0  0  0  0  0  0  0
  135.2236   83.0080  227.6430 H   0  0  0  0  0  0  0  0  0  0  0  0
  137.0460   82.4670  226.6130 C   0  0  0  0  0  0  0  0  0  0  0  0
  137.9366   81.8809  226.8835 H   0  0  0  0  0  0  0  0  0  0  0  0
  137.3489   83.5226  226.6754 H   0  0  0  0  0  0  0  0  0  0  0  0
  137.3440   81.8530  222.9130 C   0  0  0  0  0  0  0  0  0  0  0  0
  137.7942   82.7949  222.5665 H   0  0  0  0  0  0  0  0  0  0  0  0
  136.2561   81.9053  222.7587 H   0  0  0  0  0  0  0  0  0  0  0  0
  137.9320   80.6800  222.1300 C   0  0  0  0  0  0  0  0  0  0  0  0
  138.6570   81.0379  221.3842 H   0  0  0  0  0  0  0  0  0  0  0  0
  137.1601   80.1239  221.5779 H   0  0  0  0  0  0  0  0  0  0  0  0
  140.7430   77.5540  219.6710 N   0  0  0  0  0  0  0  0  0  0  0  0
  139.9250   78.1910  219.5840 H   0  0  0  0  0  0  0  0  0  0  0  0
  141.6580   77.3010  218.7210 C   0  0  0  0  0  0  0  0  0  0  0  0
  141.7360   77.8690  217.4510 C   0  0  0  0  0  0  0  0  0  0  0  0
  141.0167   78.6378  217.1323 H   0  0  0  0  0  0  0  0  0  0  0  0
  1  2  1  0
  2  3  2  0
  3  4  1  0
  4  5  1  0
  3  6  1  0
  6  7  2  0
  7  8  1  0
  7  9  1  0
  9 10  1  0
  9 11  2  0
 11 12  1  0
 12 13  1  0
 12 14  2  0
 14 15  1  0
 15 16  2  0
 15 17  1  0
 17 18  1  0
 18 19  2  0
 19 20  1  0
 19 21  1  0
 21 22  1  0
 21 23  2  0
 23 24  1  0
 23 25  1  0
 25 26  1  0
 25 27  2  0
 27 28  1  0
 28 29  1  6
 29 30  1  0
 29 31  1  0
 28 32  1  0
 32 33  1  0
 32 34  1  0
 32 35  1  0
 35 36  1  0
 36 37  1  6
 36 38  1  0
 38 39  1  0
 38 40  1  0
 38 41  1  0
 41 42  1  0
 41 43  1  0
 43 44  1  0
 43 45  1  0
 43 46  1  0
 46 47  1  0
 46 48  1  0
 35 49  1  0
 49 50  1  0
 49 51  1  0
 49 52  1  0
 52 53  1  0
 52 54  1  0
 14 55  1  0
 55 56  1  0
 55 57  1  0
 57 58  2  0
 58 59  1  0
 58  6  1  0
 57 11  1  0
 29 17  1  0
 46 36  1  0
 27 18  1  0
 52 28  1  0
M  END
>  <UniqueID>  (22) 
40

>  <SMILES>  (22) 
[H]/N=C(/O)c1ccc2cc(C(=O)N3C[C@]4(CCN([C@@H]5CCNC5)C4)c4ccccc43)[nH]c2c1

>  <Energy>  (22) 
126.72370301603527

>  <Genealogy>  (22) 
N=C(O)c1ccc2cc(C(=O)N3C[C@]4(CCN(C5CCNC5)C4)c4ccccc43)[nH]c2c1 (tautomer)
N=C(O)c1ccc2cc(C(=O)N3C[C@]4(CCN([C@@H]5CCNC5)C4)c4ccccc43)[nH]c2c1 (chirality)
[H]/N=C(/O)c1ccc2cc(C(=O)N3C[C@]4(CCN([C@@H]5CCNC5)C4)c4ccccc43)[nH]c2c1 (cis-trans isomerization)
[H]/N=C(/O)c1ccc2cc(C(=O)N3C[C@]4(CCN([C@@H]5CCNC5)C4)c4ccccc43)[nH]c2c1 (3D coordinates assigned)
[H]/N=C(/O)c1ccc2cc(C(=O)N3C[C@]4(CCN([C@@H]5CCNC5)C4)c4ccccc43)[nH]c2c1 (nonaromatic ring conformer: 126.72370301603527 kcal/mol)

>  <smiles>  (22) 
NC(=O)c1ccc2cc(C(=O)N3C[C@]4(CCN(C5CCNC5)C4)c4ccccc43)[nH]c2c1

>  <score_type>  (22) 
oracle

>  <origin>  (22) 
autodockgpu

>  <m_score__min__energy>  (22) 
-9.3800000000000008

>  <m_primary>  (22) 
energy

>  <meeko>  (22) 
{"free_energy": -8.04, "intermolecular_energy": -9.83, "internal_energy": -1.14, "cluster_size": 2, "cluster_id": 4, "rank_in_cluster": 2}

>  <energy>  (22) 
-9.36

>  <cluster_rmsd>  (22) 
0.06

>  <rmsd>  (22) 
272.25

>  <cluster>  (22) 
1

$$$$
ATTQMMYACVSETC-MLBODIKXNA-N
     RDKit          3D

 59 64  0  0  0  0  0  0  0  0999 V2000
  146.3470   73.9510  218.5050 H   0  0  0  0  0  0  0  0  0  0  0  0
  145.9810   73.1700  219.0920 N   0  0  0  0  0  0  0  0  0  0  0  0
  145.1830   73.3490  220.0980 C   0  0  0  0  0  0  0  0  0  0  0  0
  145.4310   72.6680  221.2870 O   0  0  0  0  0  0  0  0  0  0  0  0
  145.2100   71.6840  221.3830 H   0  0  0  0  0  0  0  0  0  0  0  0
  144.0290   74.2750  220.0210 C   0  0  0  0  0  0  0  0  0  0  0  0
  144.0760   75.3670  219.1160 C   0  0  0  0  0  0  0  0  0  0  0  0
  144.9670   75.5107  218.4871 H   0  0  0  0  0  0  0  0  0  0  0  0
  143.0000   76.2700  219.0100 C   0  0  0  0  0  0  0  0  0  0  0  0
  143.0306   77.1104  218.3009 H   0  0  0  0  0  0  0  0  0  0  0  0
  141.8980   76.0630  219.8320 C   0  0  0  0  0  0  0  0  0  0  0  0
  140.7380   76.7920  219.9700 C   0  0  0  0  0  0  0  0  0  0  0  0
  140.4422   77.6932  219.4129 H   0  0  0  0  0  0  0  0  0  0  0  0
  140.0210   76.1380  220.9700 C   0  0  0  0  0  0  0  0  0  0  0  0
  138.7280   76.6010  221.5140 C   0  0  0  0  0  0  0  0  0  0  0  0
  137.6710   76.0060  221.1660 O   0  0  0  0  0  0  0  0  0  0  0  0
  138.6480   77.6930  222.4460 N   0  0  0  0  0  0  0  0  0  0  0  0
  139.7620   78.4840  222.8420 C   0  0  0  0  0  0  0  0  0  0  0  0
  141.1060   78.0900  222.8520 C   0  0  0  0  0  0  0  0  0  0  0  0
  141.3987   77.0831  222.5196 H   0  0  0  0  0  0  0  0  0  0  0  0
  142.0710   79.0070  223.2950 C   0  0  0  0  0  0  0  0  0  0  0  0
  143.1335   78.7223  223.3058 H   0  0  0  0  0  0  0  0  0  0  0  0
  141.6850   80.2880  223.7250 C   0  0  0  0  0  0  0  0  0  0  0  0
  142.4464   81.0047  224.0664 H   0  0  0  0  0  0  0  0  0  0  0  0
  140.3310   80.6550  223.7200 C   0  0  0  0  0  0  0  0  0  0  0  0
  140.0204   81.6553  224.0561 H   0  0  0  0  0  0  0  0  0  0  0  0
  139.3820   79.7240  223.2790 C   0  0  0  0  0  0  0  0  0  0  0  0
  137.8830   79.8700  223.2010 C   0  0  1  0  0  0  0  0  0  0  0  0
  137.4220   78.4670  222.6800 C   0  0  0  0  0  0  0  0  0  0  0  0
  136.8551   78.5755  221.7436 H   0  0  0  0  0  0  0  0  0  0  0  0
  136.7646   77.9663  223.4060 H   0  0  0  0  0  0  0  0  0  0  0  0
  137.2870   80.2430  224.5560 C   0  0  0  0  0  0  0  0  0  0  0  0
  137.8667   79.7827  225.3697 H   0  0  0  0  0  0  0  0  0  0  0  0
  136.2512   79.8864  224.6557 H   0  0  0  0  0  0  0  0  0  0  0  0
  137.3660   81.7080  224.6360 N   0  0  0  0  0  0  0  0  0  0  0  0
  136.3770   82.2720  225.5840 C   0  0  1  0  0  0  0  0  0  0  0  0
  135.9744   83.1553  225.0666 H   0  0  0  0  0  0  0  0  0  0  0  0
  135.2920   81.2540  225.9520 C   0  0  0  0  0  0  0  0  0  0  0  0
  135.6542   80.2357  225.7474 H   0  0  0  0  0  0  0  0  0  0  0  0
  134.3867   81.4361  225.3544 H   0  0  0  0  0  0  0  0  0  0  0  0
  134.9870   81.3930  227.3810 N   0  0  0  0  0  0  0  0  0  0  0  0
  135.2150   80.4880  227.8580 H   0  0  0  0  0  0  0  0  0  0  0  0
  135.8750   82.4230  227.9120 C   0  0  0  0  0  0  0  0  0  0  0  0
  136.2759   82.1064  228.8862 H   0  0  0  0  0  0  0  0  0  0  0  0
  135.3289   83.3673  228.0537 H   0  0  0  0  0  0  0  0  0  0  0  0
  137.0080   82.6080  226.9230 C   0  0  0  0  0  0  0  0  0  0  0  0
  137.8397   81.9239  227.1472 H   0  0  0  0  0  0  0  0  0  0  0  0
  137.4355   83.6212  226.9500 H   0  0  0  0  0  0  0  0  0  0  0  0
  137.1760   82.1920  223.2530 C   0  0  0  0  0  0  0  0  0  0  0  0
  137.8645   83.0261  223.0523 H   0  0  0  0  0  0  0  0  0  0  0  0
  136.1443   82.5467  223.1125 H   0  0  0  0  0  0  0  0  0  0  0  0
  137.4720   81.0350  222.2980 C   0  0  0  0  0  0  0  0  0  0  0  0
  138.2903   81.2997  221.6122 H   0  0  0  0  0  0  0  0  0  0  0  0
  136.6035   80.7848  221.6710 H   0  0  0  0  0  0  0  0  0  0  0  0
  140.7100   75.0630  221.4380 N   0  0  0  0  0  0  0  0  0  0  0  0
  140.4540   74.4290  222.2230 H   0  0  0  0  0  0  0  0  0  0  0  0
  141.8480   75.0270  220.7250 C   0  0  0  0  0  0  0  0  0  0  0  0
  142.8910   74.1120  220.8480 C   0  0  0  0  0  0  0  0  0  0  0  0
  142.8322   73.2836  221.5694 H   0  0  0  0  0  0  0  0  0  0  0  0
  1  2  1  0
  2  3  2  0
  3  4  1  0
  4  5  1  0
  3  6  1  0
  6  7  2  0
  7  8  1  0
  7  9  1  0
  9 10  1  0
  9 11  2  0
 11 12  1  0
 12 13  1  0
 12 14  2  0
 14 15  1  0
 15 16  2  0
 15 17  1  0
 17 18  1  0
 18 19  2  0
 19 20  1  0
 19 21  1  0
 21 22  1  0
 21 23  2  0
 23 24  1  0
 23 25  1  0
 25 26  1  0
 25 27  2  0
 27 28  1  0
 28 29  1  6
 29 30  1  0
 29 31  1  0
 28 32  1  0
 32 33  1  0
 32 34  1  0
 32 35  1  0
 35 36  1  0
 36 37  1  6
 36 38  1  0
 38 39  1  0
 38 40  1  0
 38 41  1  0
 41 42  1  0
 41 43  1  0
 43 44  1  0
 43 45  1  0
 43 46  1  0
 46 47  1  0
 46 48  1  0
 35 49  1  0
 49 50  1  0
 49 51  1  0
 49 52  1  0
 52 53  1  0
 52 54  1  0
 14 55  1  0
 55 56  1  0
 55 57  1  0
 57 58  2  0
 58 59  1  0
 58  6  1  0
 57 11  1  0
 29 17  1  0
 46 36  1  0
 27 18  1  0
 52 28  1  0
M  END
>  <UniqueID>  (23) 
40

>  <SMILES>  (23) 
[H]/N=C(/O)c1ccc2cc(C(=O)N3C[C@]4(CCN([C@@H]5CCNC5)C4)c4ccccc43)[nH]c2c1

>  <Energy>  (23) 
126.72370301603527

>  <Genealogy>  (23) 
N=C(O)c1ccc2cc(C(=O)N3C[C@]4(CCN(C5CCNC5)C4)c4ccccc43)[nH]c2c1 (tautomer)
N=C(O)c1ccc2cc(C(=O)N3C[C@]4(CCN([C@@H]5CCNC5)C4)c4ccccc43)[nH]c2c1 (chirality)
[H]/N=C(/O)c1ccc2cc(C(=O)N3C[C@]4(CCN([C@@H]5CCNC5)C4)c4ccccc43)[nH]c2c1 (cis-trans isomerization)
[H]/N=C(/O)c1ccc2cc(C(=O)N3C[C@]4(CCN([C@@H]5CCNC5)C4)c4ccccc43)[nH]c2c1 (3D coordinates assigned)
[H]/N=C(/O)c1ccc2cc(C(=O)N3C[C@]4(CCN([C@@H]5CCNC5)C4)c4ccccc43)[nH]c2c1 (nonaromatic ring conformer: 126.72370301603527 kcal/mol)

>  <smiles>  (23) 
NC(=O)c1ccc2cc(C(=O)N3C[C@]4(CCN(C5CCNC5)C4)c4ccccc43)[nH]c2c1

>  <score_type>  (23) 
oracle

>  <origin>  (23) 
autodockgpu

>  <m_score__min__energy>  (23) 
-9.3800000000000008

>  <m_primary>  (23) 
energy

>  <meeko>  (23) 
{"free_energy": -8.6, "intermolecular_energy": -10.39, "internal_energy": -0.99, "cluster_size": 15, "cluster_id": 1, "rank_in_cluster": 15}

>  <energy>  (23) 
-9.32

>  <cluster_rmsd>  (23) 
0.84

>  <rmsd>  (23) 
272.04

>  <cluster>  (23) 
1

$$$$
ATTQMMYACVSETC-MLBODIKXNA-N
     RDKit          3D

 59 64  0  0  0  0  0  0  0  0999 V2000
  141.9180   70.0690  228.3960 H   0  0  0  0  0  0  0  0  0  0  0  0
  141.1020   69.4210  228.3500 N   0  0  0  0  0  0  0  0  0  0  0  0
  140.7790   68.7590  227.2830 C   0  0  0  0  0  0  0  0  0  0  0  0
  141.0840   67.4020  227.2110 O   0  0  0  0  0  0  0  0  0  0  0  0
  140.4340   66.7010  227.5420 H   0  0  0  0  0  0  0  0  0  0  0  0
  140.0760   69.4050  226.1490 C   0  0  0  0  0  0  0  0  0  0  0  0
  138.8210   68.8910  225.7300 C   0  0  0  0  0  0  0  0  0  0  0  0
  138.3902   68.0225  226.2497 H   0  0  0  0  0  0  0  0  0  0  0  0
  138.1190   69.4770  224.6580 C   0  0  0  0  0  0  0  0  0  0  0  0
  137.1403   69.0886  224.3398 H   0  0  0  0  0  0  0  0  0  0  0  0
  138.7040   70.5620  224.0160 C   0  0  0  0  0  0  0  0  0  0  0  0
  138.2750   71.2970  222.9330 C   0  0  0  0  0  0  0  0  0  0  0  0
  137.3379   71.1763  222.3697 H   0  0  0  0  0  0  0  0  0  0  0  0
  139.2880   72.2270  222.7070 C   0  0  0  0  0  0  0  0  0  0  0  0
  139.3010   73.1960  221.5920 C   0  0  0  0  0  0  0  0  0  0  0  0
  138.5210   73.0150  220.6170 O   0  0  0  0  0  0  0  0  0  0  0  0
  140.1590   74.3500  221.6040 N   0  0  0  0  0  0  0  0  0  0  0  0
  141.4460   74.3890  221.0010 C   0  0  0  0  0  0  0  0  0  0  0  0
  142.2980   73.3010  220.7740 C   0  0  0  0  0  0  0  0  0  0  0  0
  141.9947   72.2819  221.0557 H   0  0  0  0  0  0  0  0  0  0  0  0
  143.5460   73.5380  220.1800 C   0  0  0  0  0  0  0  0  0  0  0  0
  144.2294   72.6978  219.9873 H   0  0  0  0  0  0  0  0  0  0  0  0
  143.9270   74.8440  219.8300 C   0  0  0  0  0  0  0  0  0  0  0  0
  144.9044   75.0223  219.3579 H   0  0  0  0  0  0  0  0  0  0  0  0
  143.0640   75.9220  220.0810 C   0  0  0  0  0  0  0  0  0  0  0  0
  143.3560   76.9481  219.8128 H   0  0  0  0  0  0  0  0  0  0  0  0
  141.8230   75.6660  220.6800 C   0  0  0  0  0  0  0  0  0  0  0  0
  140.7440   76.6440  221.0660 C   0  0  1  0  0  0  0  0  0  0  0  0
  139.6600   75.7260  221.7270 C   0  0  0  0  0  0  0  0  0  0  0  0
  138.6991   75.8316  221.2021 H   0  0  0  0  0  0  0  0  0  0  0  0
  139.4908   75.9988  222.7791 H   0  0  0  0  0  0  0  0  0  0  0  0
  141.2780   77.7260  222.0010 C   0  0  0  0  0  0  0  0  0  0  0  0
  142.0645   77.3162  222.6518 H   0  0  0  0  0  0  0  0  0  0  0  0
  140.4883   78.1206  222.6573 H   0  0  0  0  0  0  0  0  0  0  0  0
  141.8290   78.7710  221.1280 N   0  0  0  0  0  0  0  0  0  0  0  0
  141.8840   80.0900  221.7980 C   0  0  1  0  0  0  0  0  0  0  0  0
  142.1247   80.7967  220.9901 H   0  0  0  0  0  0  0  0  0  0  0  0
  140.5690   80.4270  222.5090 C   0  0  0  0  0  0  0  0  0  0  0  0
  140.0002   79.5038  222.6937 H   0  0  0  0  0  0  0  0  0  0  0  0
  139.9638   81.0984  221.8822 H   0  0  0  0  0  0  0  0  0  0  0  0
  140.8820   81.0790  223.7860 N   0  0  0  0  0  0  0  0  0  0  0  0
  140.5040   80.4860  224.5630 H   0  0  0  0  0  0  0  0  0  0  0  0
  142.3370   81.1140  223.9060 C   0  0  0  0  0  0  0  0  0  0  0  0
  142.6352   80.8461  224.9304 H   0  0  0  0  0  0  0  0  0  0  0  0
  142.7180   82.1227  223.6884 H   0  0  0  0  0  0  0  0  0  0  0  0
  142.9030   80.1090  222.9240 C   0  0  0  0  0  0  0  0  0  0  0  0
  142.9931   79.1157  223.3879 H   0  0  0  0  0  0  0  0  0  0  0  0
  143.9135   80.3736  222.5791 H   0  0  0  0  0  0  0  0  0  0  0  0
  140.9730   78.7730  219.9240 C   0  0  0  0  0  0  0  0  0  0  0  0
  141.5948   78.8994  219.0254 H   0  0  0  0  0  0  0  0  0  0  0  0
  140.2518   79.6021  219.9723 H   0  0  0  0  0  0  0  0  0  0  0  0
  140.2360   77.4360  219.8590 C   0  0  0  0  0  0  0  0  0  0  0  0
  140.4733   76.9089  218.9231 H   0  0  0  0  0  0  0  0  0  0  0  0
  139.1438   77.5651  219.8797 H   0  0  0  0  0  0  0  0  0  0  0  0
  140.3020   72.0660  223.5980 N   0  0  0  0  0  0  0  0  0  0  0  0
  141.2120   72.5710  223.6320 H   0  0  0  0  0  0  0  0  0  0  0  0
  139.9250   71.0530  224.3940 C   0  0  0  0  0  0  0  0  0  0  0  0
  140.6400   70.5030  225.4560 C   0  0  0  0  0  0  0  0  0  0  0  0
  141.6184   70.9118  225.7486 H   0  0  0  0  0  0  0  0  0  0  0  0
  1  2  1  0
  2  3  2  0
  3  4  1  0
  4  5  1  0
  3  6  1  0
  6  7  2  0
  7  8  1  0
  7  9  1  0
  9 10  1  0
  9 11  2  0
 11 12  1  0
 12 13  1  0
 12 14  2  0
 14 15  1  0
 15 16  2  0
 15 17  1  0
 17 18  1  0
 18 19  2  0
 19 20  1  0
 19 21  1  0
 21 22  1  0
 21 23  2  0
 23 24  1  0
 23 25  1  0
 25 26  1  0
 25 27  2  0
 27 28  1  0
 28 29  1  1
 29 30  1  0
 29 31  1  0
 28 32  1  0
 32 33  1  0
 32 34  1  0
 32 35  1  0
 35 36  1  0
 36 37  1  6
 36 38  1  0
 38 39  1  0
 38 40  1  0
 38 41  1  0
 41 42  1  0
 41 43  1  0
 43 44  1  0
 43 45  1  0
 43 46  1  0
 46 47  1  0
 46 48  1  0
 35 49  1  0
 49 50  1  0
 49 51  1  0
 49 52  1  0
 52 53  1  0
 52 54  1  0
 14 55  1  0
 55 56  1  0
 55 57  1  0
 57 58  2  0
 58 59  1  0
 58  6  1  0
 57 11  1  0
 29 17  1  0
 46 36  1  0
 27 18  1  0
 52 28  1  0
M  END
>  <UniqueID>  (24) 
40

>  <SMILES>  (24) 
[H]/N=C(/O)c1ccc2cc(C(=O)N3C[C@]4(CCN([C@@H]5CCNC5)C4)c4ccccc43)[nH]c2c1

>  <Energy>  (24) 
126.72370301603527

>  <Genealogy>  (24) 
N=C(O)c1ccc2cc(C(=O)N3C[C@]4(CCN(C5CCNC5)C4)c4ccccc43)[nH]c2c1 (tautomer)
N=C(O)c1ccc2cc(C(=O)N3C[C@]4(CCN([C@@H]5CCNC5)C4)c4ccccc43)[nH]c2c1 (chirality)
[H]/N=C(/O)c1ccc2cc(C(=O)N3C[C@]4(CCN([C@@H]5CCNC5)C4)c4ccccc43)[nH]c2c1 (cis-trans isomerization)
[H]/N=C(/O)c1ccc2cc(C(=O)N3C[C@]4(CCN([C@@H]5CCNC5)C4)c4ccccc43)[nH]c2c1 (3D coordinates assigned)
[H]/N=C(/O)c1ccc2cc(C(=O)N3C[C@]4(CCN([C@@H]5CCNC5)C4)c4ccccc43)[nH]c2c1 (nonaromatic ring conformer: 126.72370301603527 kcal/mol)

>  <smiles>  (24) 
NC(=O)c1ccc2cc(C(=O)N3C[C@]4(CCN(C5CCNC5)C4)c4ccccc43)[nH]c2c1

>  <score_type>  (24) 
oracle

>  <origin>  (24) 
autodockgpu

>  <m_score__min__energy>  (24) 
-9.3800000000000008

>  <m_primary>  (24) 
energy

>  <meeko>  (24) 
{"free_energy": -8.13, "intermolecular_energy": -9.92, "internal_energy": -1.02, "cluster_size": 2, "cluster_id": 3, "rank_in_cluster": 2}

>  <energy>  (24) 
-9.3

>  <cluster_rmsd>  (24) 
0.65

>  <rmsd>  (24) 
272.19

>  <cluster>  (24) 
1

$$$$
ATTQMMYACVSETC-MLBODIKXNA-N
     RDKit          3D

 59 64  0  0  0  0  0  0  0  0999 V2000
  146.2740   71.9080  221.5800 H   0  0  0  0  0  0  0  0  0  0  0  0
  146.5000   72.7770  221.0490 N   0  0  0  0  0  0  0  0  0  0  0  0
  145.7860   73.2110  220.0580 C   0  0  0  0  0  0  0  0  0  0  0  0
  146.3220   73.1820  218.7730 O   0  0  0  0  0  0  0  0  0  0  0  0
  146.4120   74.0270  218.2240 H   0  0  0  0  0  0  0  0  0  0  0  0
  144.4070   73.7190  220.2560 C   0  0  0  0  0  0  0  0  0  0  0  0
  143.3710   72.8030  220.5730 C   0  0  0  0  0  0  0  0  0  0  0  0
  143.6045   71.7321  220.6656 H   0  0  0  0  0  0  0  0  0  0  0  0
  142.0480   73.2440  220.7710 C   0  0  0  0  0  0  0  0  0  0  0  0
  141.2459   72.5370  221.0294 H   0  0  0  0  0  0  0  0  0  0  0  0
  141.7900   74.6020  220.6290 C   0  0  0  0  0  0  0  0  0  0  0  0
  140.6070   75.3020  220.7240 C   0  0  0  0  0  0  0  0  0  0  0  0
  139.6110   74.9045  220.9689 H   0  0  0  0  0  0  0  0  0  0  0  0
  140.9480   76.6240  220.4420 C   0  0  0  0  0  0  0  0  0  0  0  0
  139.9830   77.7380  220.3570 C   0  0  0  0  0  0  0  0  0  0  0  0
  139.4080   77.9640  219.2560 O   0  0  0  0  0  0  0  0  0  0  0  0
  139.6650   78.5510  221.4990 N   0  0  0  0  0  0  0  0  0  0  0  0
  140.6250   79.3000  222.2350 C   0  0  0  0  0  0  0  0  0  0  0  0
  141.9910   79.0200  222.3530 C   0  0  0  0  0  0  0  0  0  0  0  0
  142.4331   78.1539  221.8387 H   0  0  0  0  0  0  0  0  0  0  0  0
  142.7850   79.8670  223.1410 C   0  0  0  0  0  0  0  0  0  0  0  0
  143.8625   79.6705  223.2430 H   0  0  0  0  0  0  0  0  0  0  0  0
  142.2080   80.9650  223.8000 C   0  0  0  0  0  0  0  0  0  0  0  0
  142.8361   81.6288  224.4122 H   0  0  0  0  0  0  0  0  0  0  0  0
  140.8330   81.2180  223.6800 C   0  0  0  0  0  0  0  0  0  0  0  0
  140.3737   82.0749  224.1945 H   0  0  0  0  0  0  0  0  0  0  0  0
  140.0560   80.3580  222.8920 C   0  0  0  0  0  0  0  0  0  0  0  0
  138.5730   80.4040  222.6270 C   0  0  1  0  0  0  0  0  0  0  0  0
  138.3400   79.1460  221.7240 C   0  0  0  0  0  0  0  0  0  0  0  0
  137.8877   79.4427  220.7662 H   0  0  0  0  0  0  0  0  0  0  0  0
  137.6555   78.4303  222.2029 H   0  0  0  0  0  0  0  0  0  0  0  0
  137.7720   80.3780  223.9260 C   0  0  0  0  0  0  0  0  0  0  0  0
  138.2911   79.7737  224.6845 H   0  0  0  0  0  0  0  0  0  0  0  0
  136.7780   79.9298  223.7809 H   0  0  0  0  0  0  0  0  0  0  0  0
  137.6770   81.7770  224.3630 N   0  0  0  0  0  0  0  0  0  0  0  0
  136.5190   82.0080  225.2580 C   0  0  1  0  0  0  0  0  0  0  0  0
  135.6497   81.6721  224.6736 H   0  0  0  0  0  0  0  0  0  0  0  0
  136.6660   81.2600  226.5870 C   0  0  0  0  0  0  0  0  0  0  0  0
  137.7245   81.0162  226.7604 H   0  0  0  0  0  0  0  0  0  0  0  0
  136.0862   80.3256  226.5597 H   0  0  0  0  0  0  0  0  0  0  0  0
  136.1740   82.1260  227.6660 N   0  0  0  0  0  0  0  0  0  0  0  0
  136.9660   82.3170  228.3250 H   0  0  0  0  0  0  0  0  0  0  0  0
  135.7750   83.3910  227.0550 C   0  0  0  0  0  0  0  0  0  0  0  0
  136.1202   84.2320  227.6743 H   0  0  0  0  0  0  0  0  0  0  0  0
  134.6798   83.4511  226.9717 H   0  0  0  0  0  0  0  0  0  0  0  0
  136.4170   83.4610  225.6850 C   0  0  0  0  0  0  0  0  0  0  0  0
  137.4134   83.9234  225.7424 H   0  0  0  0  0  0  0  0  0  0  0  0
  135.8405   84.0732  224.9759 H   0  0  0  0  0  0  0  0  0  0  0  0
  137.6120   82.5770  223.1230 C   0  0  0  0  0  0  0  0  0  0  0  0
  138.2232   83.4849  223.2330 H   0  0  0  0  0  0  0  0  0  0  0  0
  136.5735   82.8754  222.9171 H   0  0  0  0  0  0  0  0  0  0  0  0
  138.1540   81.7240  221.9760 C   0  0  0  0  0  0  0  0  0  0  0  0
  139.0187   82.2142  221.5049 H   0  0  0  0  0  0  0  0  0  0  0  0
  137.4060   81.5744  221.1834 H   0  0  0  0  0  0  0  0  0  0  0  0
  142.2760   76.7350  220.1720 N   0  0  0  0  0  0  0  0  0  0  0  0
  142.8000   77.5820  219.8680 H   0  0  0  0  0  0  0  0  0  0  0  0
  142.7750   75.4950  220.3000 C   0  0  0  0  0  0  0  0  0  0  0  0
  144.0950   75.0920  220.1070 C   0  0  0  0  0  0  0  0  0  0  0  0
  144.8749   75.8223  219.8455 H   0  0  0  0  0  0  0  0  0  0  0  0
  1  2  1  0
  2  3  2  0
  3  4  1  0
  4  5  1  0
  3  6  1  0
  6  7  2  0
  7  8  1  0
  7  9  1  0
  9 10  1  0
  9 11  2  0
 11 12  1  0
 12 13  1  0
 12 14  2  0
 14 15  1  0
 15 16  2  0
 15 17  1  0
 17 18  1  0
 18 19  2  0
 19 20  1  0
 19 21  1  0
 21 22  1  0
 21 23  2  0
 23 24  1  0
 23 25  1  0
 25 26  1  0
 25 27  2  0
 27 28  1  0
 28 29  1  6
 29 30  1  0
 29 31  1  0
 28 32  1  0
 32 33  1  0
 32 34  1  0
 32 35  1  0
 35 36  1  0
 36 37  1  6
 36 38  1  0
 38 39  1  0
 38 40  1  0
 38 41  1  0
 41 42  1  0
 41 43  1  0
 43 44  1  0
 43 45  1  0
 43 46  1  0
 46 47  1  0
 46 48  1  0
 35 49  1  0
 49 50  1  0
 49 51  1  0
 49 52  1  0
 52 53  1  0
 52 54  1  0
 14 55  1  0
 55 56  1  0
 55 57  1  0
 57 58  2  0
 58 59  1  0
 58  6  1  0
 57 11  1  0
 29 17  1  0
 46 36  1  0
 27 18  1  0
 52 28  1  0
M  END
>  <UniqueID>  (25) 
40

>  <SMILES>  (25) 
[H]/N=C(/O)c1ccc2cc(C(=O)N3C[C@]4(CCN([C@@H]5CCNC5)C4)c4ccccc43)[nH]c2c1

>  <Energy>  (25) 
126.72370301603527

>  <Genealogy>  (25) 
N=C(O)c1ccc2cc(C(=O)N3C[C@]4(CCN(C5CCNC5)C4)c4ccccc43)[nH]c2c1 (tautomer)
N=C(O)c1ccc2cc(C(=O)N3C[C@]4(CCN([C@@H]5CCNC5)C4)c4ccccc43)[nH]c2c1 (chirality)
[H]/N=C(/O)c1ccc2cc(C(=O)N3C[C@]4(CCN([C@@H]5CCNC5)C4)c4ccccc43)[nH]c2c1 (cis-trans isomerization)
[H]/N=C(/O)c1ccc2cc(C(=O)N3C[C@]4(CCN([C@@H]5CCNC5)C4)c4ccccc43)[nH]c2c1 (3D coordinates assigned)
[H]/N=C(/O)c1ccc2cc(C(=O)N3C[C@]4(CCN([C@@H]5CCNC5)C4)c4ccccc43)[nH]c2c1 (nonaromatic ring conformer: 126.72370301603527 kcal/mol)

>  <smiles>  (25) 
NC(=O)c1ccc2cc(C(=O)N3C[C@]4(CCN(C5CCNC5)C4)c4ccccc43)[nH]c2c1

>  <score_type>  (25) 
oracle

>  <origin>  (25) 
autodockgpu

>  <m_score__min__energy>  (25) 
-9.3800000000000008

>  <m_primary>  (25) 
energy

>  <meeko>  (25) 
{"free_energy": -9.38, "intermolecular_energy": -11.17, "internal_energy": -1.0, "cluster_size": 15, "cluster_id": 1, "rank_in_cluster": 1}

>  <energy>  (25) 
-9.26

>  <cluster_rmsd>  (25) 
0.7

>  <rmsd>  (25) 
272.15

>  <cluster>  (25) 
1

$$$$
ATTQMMYACVSETC-MLBODIKXNA-N
     RDKit          3D

 59 64  0  0  0  0  0  0  0  0999 V2000
  146.1440   71.9750  221.6260 H   0  0  0  0  0  0  0  0  0  0  0  0
  146.4570   72.7690  221.0270 N   0  0  0  0  0  0  0  0  0  0  0  0
  145.7510   73.2430  220.0480 C   0  0  0  0  0  0  0  0  0  0  0  0
  146.2980   73.2640  218.7670 O   0  0  0  0  0  0  0  0  0  0  0  0
  146.3190   74.1160  218.2210 H   0  0  0  0  0  0  0  0  0  0  0  0
  144.3720   73.7440  220.2550 C   0  0  0  0  0  0  0  0  0  0  0  0
  143.3430   72.8240  220.5830 C   0  0  0  0  0  0  0  0  0  0  0  0
  143.5830   71.7546  220.6772 H   0  0  0  0  0  0  0  0  0  0  0  0
  142.0190   73.2580  220.7900 C   0  0  0  0  0  0  0  0  0  0  0  0
  141.2229   72.5472  221.0566 H   0  0  0  0  0  0  0  0  0  0  0  0
  141.7520   74.6150  220.6460 C   0  0  0  0  0  0  0  0  0  0  0  0
  140.5670   75.3080  220.7490 C   0  0  0  0  0  0  0  0  0  0  0  0
  139.5752   74.9058  221.0030 H   0  0  0  0  0  0  0  0  0  0  0  0
  140.8990   76.6310  220.4610 C   0  0  0  0  0  0  0  0  0  0  0  0
  139.9270   77.7400  220.3800 C   0  0  0  0  0  0  0  0  0  0  0  0
  139.3310   77.9510  219.2870 O   0  0  0  0  0  0  0  0  0  0  0  0
  139.6260   78.5650  221.5180 N   0  0  0  0  0  0  0  0  0  0  0  0
  140.5970   79.3150  222.2360 C   0  0  0  0  0  0  0  0  0  0  0  0
  141.9640   79.0300  222.3410 C   0  0  0  0  0  0  0  0  0  0  0  0
  142.3968   78.1579  221.8289 H   0  0  0  0  0  0  0  0  0  0  0  0
  142.7700   79.8800  223.1130 C   0  0  0  0  0  0  0  0  0  0  0  0
  143.8474   79.6784  223.2060 H   0  0  0  0  0  0  0  0  0  0  0  0
  142.2060   80.9880  223.7680 C   0  0  0  0  0  0  0  0  0  0  0  0
  142.8441   81.6553  224.3660 H   0  0  0  0  0  0  0  0  0  0  0  0
  140.8310   81.2450  223.6610 C   0  0  0  0  0  0  0  0  0  0  0  0
  140.3812   82.1084  224.1731 H   0  0  0  0  0  0  0  0  0  0  0  0
  140.0410   80.3820  222.8900 C   0  0  0  0  0  0  0  0  0  0  0  0
  138.5560   80.4330  222.6410 C   0  0  1  0  0  0  0  0  0  0  0  0
  138.3060   79.1680  221.7520 C   0  0  0  0  0  0  0  0  0  0  0  0
  137.8444   79.4583  220.7967 H   0  0  0  0  0  0  0  0  0  0  0  0
  137.6231   78.4601  222.2445 H   0  0  0  0  0  0  0  0  0  0  0  0
  137.7690   80.4230  223.9490 C   0  0  0  0  0  0  0  0  0  0  0  0
  138.2933   79.8230  224.7074 H   0  0  0  0  0  0  0  0  0  0  0  0
  136.7712   79.9787  223.8189 H   0  0  0  0  0  0  0  0  0  0  0  0
  137.6860   81.8260  224.3740 N   0  0  0  0  0  0  0  0  0  0  0  0
  136.5390   82.0710  225.2800 C   0  0  1  0  0  0  0  0  0  0  0  0
  135.6578   81.7706  224.6941 H   0  0  0  0  0  0  0  0  0  0  0  0
  136.6730   81.2930  226.5940 C   0  0  0  0  0  0  0  0  0  0  0  0
  137.7255   81.0178  226.7566 H   0  0  0  0  0  0  0  0  0  0  0  0
  136.0684   80.3750  226.5518 H   0  0  0  0  0  0  0  0  0  0  0  0
  136.2100   82.1500  227.6920 N   0  0  0  0  0  0  0  0  0  0  0  0
  137.0100   82.3070  228.3510 H   0  0  0  0  0  0  0  0  0  0  0  0
  135.8420   83.4370  227.1080 C   0  0  0  0  0  0  0  0  0  0  0  0
  136.2126   84.2561  227.7418 H   0  0  0  0  0  0  0  0  0  0  0  0
  134.7484   83.5278  227.0318 H   0  0  0  0  0  0  0  0  0  0  0  0
  136.4790   83.5170  225.7360 C   0  0  0  0  0  0  0  0  0  0  0  0
  137.4880   83.9508  225.7971 H   0  0  0  0  0  0  0  0  0  0  0  0
  135.9160   84.1588  225.0423 H   0  0  0  0  0  0  0  0  0  0  0  0
  137.6100   82.6150  223.1280 C   0  0  0  0  0  0  0  0  0  0  0  0
  138.2263   83.5212  223.2226 H   0  0  0  0  0  0  0  0  0  0  0  0
  136.5705   82.9164  222.9314 H   0  0  0  0  0  0  0  0  0  0  0  0
  138.1350   81.7490  221.9830 C   0  0  0  0  0  0  0  0  0  0  0  0
  138.9963   82.2311  221.4974 H   0  0  0  0  0  0  0  0  0  0  0  0
  137.3771   81.5953  221.2007 H   0  0  0  0  0  0  0  0  0  0  0  0
  142.2240   76.7480  220.1800 N   0  0  0  0  0  0  0  0  0  0  0  0
  142.7410   77.5970  219.8700 H   0  0  0  0  0  0  0  0  0  0  0  0
  142.7310   75.5110  220.3070 C   0  0  0  0  0  0  0  0  0  0  0  0
  144.0510   75.1150  220.1050 C   0  0  0  0  0  0  0  0  0  0  0  0
  144.8248   75.8489  219.8356 H   0  0  0  0  0  0  0  0  0  0  0  0
  1  2  1  0
  2  3  2  0
  3  4  1  0
  4  5  1  0
  3  6  1  0
  6  7  2  0
  7  8  1  0
  7  9  1  0
  9 10  1  0
  9 11  2  0
 11 12  1  0
 12 13  1  0
 12 14  2  0
 14 15  1  0
 15 16  2  0
 15 17  1  0
 17 18  1  0
 18 19  2  0
 19 20  1  0
 19 21  1  0
 21 22  1  0
 21 23  2  0
 23 24  1  0
 23 25  1  0
 25 26  1  0
 25 27  2  0
 27 28  1  0
 28 29  1  6
 29 30  1  0
 29 31  1  0
 28 32  1  0
 32 33  1  0
 32 34  1  0
 32 35  1  0
 35 36  1  0
 36 37  1  6
 36 38  1  0
 38 39  1  0
 38 40  1  0
 38 41  1  0
 41 42  1  0
 41 43  1  0
 43 44  1  0
 43 45  1  0
 43 46  1  0
 46 47  1  0
 46 48  1  0
 35 49  1  0
 49 50  1  0
 49 51  1  0
 49 52  1  0
 52 53  1  0
 52 54  1  0
 14 55  1  0
 55 56  1  0
 55 57  1  0
 57 58  2  0
 58 59  1  0
 58  6  1  0
 57 11  1  0
 29 17  1  0
 46 36  1  0
 27 18  1  0
 52 28  1  0
M  END
>  <UniqueID>  (26) 
40

>  <SMILES>  (26) 
[H]/N=C(/O)c1ccc2cc(C(=O)N3C[C@]4(CCN([C@@H]5CCNC5)C4)c4ccccc43)[nH]c2c1

>  <Energy>  (26) 
126.72370301603527

>  <Genealogy>  (26) 
N=C(O)c1ccc2cc(C(=O)N3C[C@]4(CCN(C5CCNC5)C4)c4ccccc43)[nH]c2c1 (tautomer)
N=C(O)c1ccc2cc(C(=O)N3C[C@]4(CCN([C@@H]5CCNC5)C4)c4ccccc43)[nH]c2c1 (chirality)
[H]/N=C(/O)c1ccc2cc(C(=O)N3C[C@]4(CCN([C@@H]5CCNC5)C4)c4ccccc43)[nH]c2c1 (cis-trans isomerization)
[H]/N=C(/O)c1ccc2cc(C(=O)N3C[C@]4(CCN([C@@H]5CCNC5)C4)c4ccccc43)[nH]c2c1 (3D coordinates assigned)
[H]/N=C(/O)c1ccc2cc(C(=O)N3C[C@]4(CCN([C@@H]5CCNC5)C4)c4ccccc43)[nH]c2c1 (nonaromatic ring conformer: 126.72370301603527 kcal/mol)

>  <smiles>  (26) 
NC(=O)c1ccc2cc(C(=O)N3C[C@]4(CCN(C5CCNC5)C4)c4ccccc43)[nH]c2c1

>  <score_type>  (26) 
oracle

>  <origin>  (26) 
autodockgpu

>  <m_score__min__energy>  (26) 
-9.3800000000000008

>  <m_primary>  (26) 
energy

>  <meeko>  (26) 
{"free_energy": -9.36, "intermolecular_energy": -11.15, "internal_energy": -1.0, "cluster_size": 15, "cluster_id": 1, "rank_in_cluster": 2}

>  <energy>  (26) 
-9.12

>  <cluster_rmsd>  (26) 
0.85

>  <rmsd>  (26) 
272.16

>  <cluster>  (26) 
1

$$$$
ATTQMMYACVSETC-MLBODIKXNA-N
     RDKit          3D

 59 64  0  0  0  0  0  0  0  0999 V2000
  146.3840   74.1350  218.3920 H   0  0  0  0  0  0  0  0  0  0  0  0
  146.3020   73.2690  218.9680 N   0  0  0  0  0  0  0  0  0  0  0  0
  145.7220   73.2380  220.1280 C   0  0  0  0  0  0  0  0  0  0  0  0
  146.4230   72.7360  221.2210 O   0  0  0  0  0  0  0  0  0  0  0  0
  146.0520   71.9760  221.7770 H   0  0  0  0  0  0  0  0  0  0  0  0
  144.3420   73.7420  220.3220 C   0  0  0  0  0  0  0  0  0  0  0  0
  143.3090   72.8240  220.6440 C   0  0  0  0  0  0  0  0  0  0  0  0
  143.5465   71.7545  220.7429 H   0  0  0  0  0  0  0  0  0  0  0  0
  141.9840   73.2610  220.8390 C   0  0  0  0  0  0  0  0  0  0  0  0
  141.1844   72.5525  221.1011 H   0  0  0  0  0  0  0  0  0  0  0  0
  141.7210   74.6180  220.6890 C   0  0  0  0  0  0  0  0  0  0  0  0
  140.5360   75.3140  220.7800 C   0  0  0  0  0  0  0  0  0  0  0  0
  139.5414   74.9143  221.0269 H   0  0  0  0  0  0  0  0  0  0  0  0
  140.8720   76.6350  220.4910 C   0  0  0  0  0  0  0  0  0  0  0  0
  139.9030   77.7450  220.3990 C   0  0  0  0  0  0  0  0  0  0  0  0
  139.3120   77.9500  219.3020 O   0  0  0  0  0  0  0  0  0  0  0  0
  139.5980   78.5780  221.5300 N   0  0  0  0  0  0  0  0  0  0  0  0
  140.5730   79.3040  222.2680 C   0  0  0  0  0  0  0  0  0  0  0  0
  141.9290   78.9850  222.4030 C   0  0  0  0  0  0  0  0  0  0  0  0
  142.3503   78.1019  221.9004 H   0  0  0  0  0  0  0  0  0  0  0  0
  142.7400   79.8140  223.1920 C   0  0  0  0  0  0  0  0  0  0  0  0
  143.8097   79.5852  223.3078 H   0  0  0  0  0  0  0  0  0  0  0  0
  142.1900   80.9360  223.8350 C   0  0  0  0  0  0  0  0  0  0  0  0
  142.8315   81.5869  224.4471 H   0  0  0  0  0  0  0  0  0  0  0  0
  140.8240   81.2280  223.6980 C   0  0  0  0  0  0  0  0  0  0  0  0
  140.3851   82.1027  224.2002 H   0  0  0  0  0  0  0  0  0  0  0  0
  140.0300   80.3850  222.9100 C   0  0  0  0  0  0  0  0  0  0  0  0
  138.5520   80.4730  222.6290 C   0  0  1  0  0  0  0  0  0  0  0  0
  138.2900   79.2150  221.7350 C   0  0  0  0  0  0  0  0  0  0  0  0
  137.8573   79.5166  220.7697 H   0  0  0  0  0  0  0  0  0  0  0  0
  137.5787   78.5251  222.2125 H   0  0  0  0  0  0  0  0  0  0  0  0
  137.7370   80.4840  223.9210 C   0  0  0  0  0  0  0  0  0  0  0  0
  138.2296   79.8713  224.6903 H   0  0  0  0  0  0  0  0  0  0  0  0
  136.7311   80.0653  223.7699 H   0  0  0  0  0  0  0  0  0  0  0  0
  137.6810   81.8890  224.3440 N   0  0  0  0  0  0  0  0  0  0  0  0
  136.5210   82.1620  225.2250 C   0  0  1  0  0  0  0  0  0  0  0  0
  135.9154   82.8886  224.6635 H   0  0  0  0  0  0  0  0  0  0  0  0
  135.7480   80.8840  225.5660 C   0  0  0  0  0  0  0  0  0  0  0  0
  136.3930   80.0071  225.4080 H   0  0  0  0  0  0  0  0  0  0  0  0
  134.8628   80.7953  224.9190 H   0  0  0  0  0  0  0  0  0  0  0  0
  135.3370   80.9490  226.9740 N   0  0  0  0  0  0  0  0  0  0  0  0
  135.7820   80.1520  227.4870 H   0  0  0  0  0  0  0  0  0  0  0  0
  135.8680   82.1950  227.5200 C   0  0  0  0  0  0  0  0  0  0  0  0
  136.2865   82.0170  228.5216 H   0  0  0  0  0  0  0  0  0  0  0  0
  135.0710   82.9481  227.6076 H   0  0  0  0  0  0  0  0  0  0  0  0
  136.9560   82.6800  226.5850 C   0  0  0  0  0  0  0  0  0  0  0  0
  137.9328   82.2618  226.8697 H   0  0  0  0  0  0  0  0  0  0  0  0
  137.0787   83.7730  226.6050 H   0  0  0  0  0  0  0  0  0  0  0  0
  137.6520   82.6790  223.0960 C   0  0  0  0  0  0  0  0  0  0  0  0
  138.2892   83.5692  223.2036 H   0  0  0  0  0  0  0  0  0  0  0  0
  136.6251   83.0069  222.8770 H   0  0  0  0  0  0  0  0  0  0  0  0
  138.1790   81.7990  221.9630 C   0  0  0  0  0  0  0  0  0  0  0  0
  139.0626   82.2586  221.4960 H   0  0  0  0  0  0  0  0  0  0  0  0
  137.4340   81.6643  221.1650 H   0  0  0  0  0  0  0  0  0  0  0  0
  142.2000   76.7490  220.2200 N   0  0  0  0  0  0  0  0  0  0  0  0
  142.7200   77.5960  219.9120 H   0  0  0  0  0  0  0  0  0  0  0  0
  142.7030   75.5120  220.3560 C   0  0  0  0  0  0  0  0  0  0  0  0
  144.0250   75.1130  220.1650 C   0  0  0  0  0  0  0  0  0  0  0  0
  144.8021   75.8447  219.8990 H   0  0  0  0  0  0  0  0  0  0  0  0
  1  2  1  0
  2  3  2  0
  3  4  1  0
  4  5  1  0
  3  6  1  0
  6  7  2  0
  7  8  1  0
  7  9  1  0
  9 10  1  0
  9 11  2  0
 11 12  1  0
 12 13  1  0
 12 14  2  0
 14 15  1  0
 15 16  2  0
 15 17  1  0
 17 18  1  0
 18 19  2  0
 19 20  1  0
 19 21  1  0
 21 22  1  0
 21 23  2  0
 23 24  1  0
 23 25  1  0
 25 26  1  0
 25 27  2  0
 27 28  1  0
 28 29  1  6
 29 30  1  0
 29 31  1  0
 28 32  1  0
 32 33  1  0
 32 34  1  0
 32 35  1  0
 35 36  1  0
 36 37  1  6
 36 38  1  0
 38 39  1  0
 38 40  1  0
 38 41  1  0
 41 42  1  0
 41 43  1  0
 43 44  1  0
 43 45  1  0
 43 46  1  0
 46 47  1  0
 46 48  1  0
 35 49  1  0
 49 50  1  0
 49 51  1  0
 49 52  1  0
 52 53  1  0
 52 54  1  0
 14 55  1  0
 55 56  1  0
 55 57  1  0
 57 58  2  0
 58 59  1  0
 58  6  1  0
 57 11  1  0
 29 17  1  0
 46 36  1  0
 27 18  1  0
 52 28  1  0
M  END
>  <UniqueID>  (27) 
40

>  <SMILES>  (27) 
[H]/N=C(/O)c1ccc2cc(C(=O)N3C[C@]4(CCN([C@@H]5CCNC5)C4)c4ccccc43)[nH]c2c1

>  <Energy>  (27) 
126.72370301603527

>  <Genealogy>  (27) 
N=C(O)c1ccc2cc(C(=O)N3C[C@]4(CCN(C5CCNC5)C4)c4ccccc43)[nH]c2c1 (tautomer)
N=C(O)c1ccc2cc(C(=O)N3C[C@]4(CCN([C@@H]5CCNC5)C4)c4ccccc43)[nH]c2c1 (chirality)
[H]/N=C(/O)c1ccc2cc(C(=O)N3C[C@]4(CCN([C@@H]5CCNC5)C4)c4ccccc43)[nH]c2c1 (cis-trans isomerization)
[H]/N=C(/O)c1ccc2cc(C(=O)N3C[C@]4(CCN([C@@H]5CCNC5)C4)c4ccccc43)[nH]c2c1 (3D coordinates assigned)
[H]/N=C(/O)c1ccc2cc(C(=O)N3C[C@]4(CCN([C@@H]5CCNC5)C4)c4ccccc43)[nH]c2c1 (nonaromatic ring conformer: 126.72370301603527 kcal/mol)

>  <smiles>  (27) 
NC(=O)c1ccc2cc(C(=O)N3C[C@]4(CCN(C5CCNC5)C4)c4ccccc43)[nH]c2c1

>  <score_type>  (27) 
oracle

>  <origin>  (27) 
autodockgpu

>  <m_score__min__energy>  (27) 
-9.3800000000000008

>  <m_primary>  (27) 
energy

>  <meeko>  (27) 
{"free_energy": -9.12, "intermolecular_energy": -10.91, "internal_energy": -1.03, "cluster_size": 15, "cluster_id": 1, "rank_in_cluster": 6}

>  <energy>  (27) 
-9.0

>  <cluster_rmsd>  (27) 
1.55

>  <rmsd>  (27) 
272.14

>  <cluster>  (27) 
1

$$$$
ATTQMMYACVSETC-MLBODIKXNA-N
     RDKit          3D

 59 64  0  0  0  0  0  0  0  0999 V2000
  145.1910   71.8410  221.2340 H   0  0  0  0  0  0  0  0  0  0  0  0
  145.6890   72.6940  220.8960 N   0  0  0  0  0  0  0  0  0  0  0  0
  145.3080   73.3780  219.8630 C   0  0  0  0  0  0  0  0  0  0  0  0
  146.0210   73.2600  218.6730 O   0  0  0  0  0  0  0  0  0  0  0  0
  146.1800   74.0620  218.0760 H   0  0  0  0  0  0  0  0  0  0  0  0
  144.1230   74.2670  219.9120 C   0  0  0  0  0  0  0  0  0  0  0  0
  144.0540   75.3770  219.0320 C   0  0  0  0  0  0  0  0  0  0  0  0
  144.8795   75.5628  218.3291 H   0  0  0  0  0  0  0  0  0  0  0  0
  142.9440   76.2460  219.0440 C   0  0  0  0  0  0  0  0  0  0  0  0
  142.8827   77.1000  218.3534 H   0  0  0  0  0  0  0  0  0  0  0  0
  141.9300   75.9870  219.9580 C   0  0  0  0  0  0  0  0  0  0  0  0
  140.7650   76.6740  220.2180 C   0  0  0  0  0  0  0  0  0  0  0  0
  140.3911   77.5753  219.7102 H   0  0  0  0  0  0  0  0  0  0  0  0
  140.1630   75.9780  221.2650 C   0  0  0  0  0  0  0  0  0  0  0  0
  138.9120   76.3880  221.9350 C   0  0  0  0  0  0  0  0  0  0  0  0
  137.9070   75.6270  221.8690 O   0  0  0  0  0  0  0  0  0  0  0  0
  138.8210   77.6150  222.6780 N   0  0  0  0  0  0  0  0  0  0  0  0
  139.9280   78.4630  222.9520 C   0  0  0  0  0  0  0  0  0  0  0  0
  141.2730   78.0820  223.0390 C   0  0  0  0  0  0  0  0  0  0  0  0
  141.5716   77.0359  222.8761 H   0  0  0  0  0  0  0  0  0  0  0  0
  142.2310   79.0610  223.3380 C   0  0  0  0  0  0  0  0  0  0  0  0
  143.2939   78.7856  223.4045 H   0  0  0  0  0  0  0  0  0  0  0  0
  141.8380   80.3930  223.5530 C   0  0  0  0  0  0  0  0  0  0  0  0
  142.5946   81.1579  223.7823 H   0  0  0  0  0  0  0  0  0  0  0  0
  140.4830   80.7500  223.4760 C   0  0  0  0  0  0  0  0  0  0  0  0
  140.1669   81.7900  223.6449 H   0  0  0  0  0  0  0  0  0  0  0  0
  139.5410   79.7570  223.1800 C   0  0  0  0  0  0  0  0  0  0  0  0
  138.0430   79.8820  223.0650 C   0  0  1  0  0  0  0  0  0  0  0  0
  137.5900   78.4120  222.7720 C   0  0  0  0  0  0  0  0  0  0  0  0
  137.0328   78.3663  221.8247 H   0  0  0  0  0  0  0  0  0  0  0  0
  136.9257   78.0321  223.5622 H   0  0  0  0  0  0  0  0  0  0  0  0
  137.4320   80.4670  224.3360 C   0  0  0  0  0  0  0  0  0  0  0  0
  138.0040   80.1461  225.2191 H   0  0  0  0  0  0  0  0  0  0  0  0
  136.3958   80.1276  224.4810 H   0  0  0  0  0  0  0  0  0  0  0  0
  137.5070   81.9250  224.1800 N   0  0  0  0  0  0  0  0  0  0  0  0
  136.5070   82.6310  225.0140 C   0  0  1  0  0  0  0  0  0  0  0  0
  135.5415   82.2059  224.7023 H   0  0  0  0  0  0  0  0  0  0  0  0
  136.7810   82.4490  226.5110 C   0  0  0  0  0  0  0  0  0  0  0  0
  137.8317   82.1613  226.6636 H   0  0  0  0  0  0  0  0  0  0  0  0
  136.1337   81.6589  226.9194 H   0  0  0  0  0  0  0  0  0  0  0  0
  136.5120   83.7220  227.1920 N   0  0  0  0  0  0  0  0  0  0  0  0
  137.4000   84.0540  227.6370 H   0  0  0  0  0  0  0  0  0  0  0  0
  136.1290   84.6870  226.1650 C   0  0  0  0  0  0  0  0  0  0  0  0
  136.6208   85.6523  226.3555 H   0  0  0  0  0  0  0  0  0  0  0  0
  135.0407   84.8469  226.1724 H   0  0  0  0  0  0  0  0  0  0  0  0
  136.5760   84.1350  224.8270 C   0  0  0  0  0  0  0  0  0  0  0  0
  137.6027   84.4542  224.5948 H   0  0  0  0  0  0  0  0  0  0  0  0
  135.9535   84.4886  223.9918 H   0  0  0  0  0  0  0  0  0  0  0  0
  137.3310   82.1790  222.7350 C   0  0  0  0  0  0  0  0  0  0  0  0
  138.0200   82.9724  222.4098 H   0  0  0  0  0  0  0  0  0  0  0  0
  136.3000   82.5023  222.5289 H   0  0  0  0  0  0  0  0  0  0  0  0
  137.6390   80.8860  221.9820 C   0  0  0  0  0  0  0  0  0  0  0  0
  138.4639   81.0401  221.2709 H   0  0  0  0  0  0  0  0  0  0  0  0
  136.7776   80.5352  221.3947 H   0  0  0  0  0  0  0  0  0  0  0  0
  140.9260   74.9180  221.6440 N   0  0  0  0  0  0  0  0  0  0  0  0
  140.7630   74.2610  222.4340 H   0  0  0  0  0  0  0  0  0  0  0  0
  141.9940   74.9330  220.8300 C   0  0  0  0  0  0  0  0  0  0  0  0
  143.0730   74.0500  220.8370 C   0  0  0  0  0  0  0  0  0  0  0  0
  143.1077   73.2069  221.5426 H   0  0  0  0  0  0  0  0  0  0  0  0
  1  2  1  0
  2  3  2  0
  3  4  1  0
  4  5  1  0
  3  6  1  0
  6  7  2  0
  7  8  1  0
  7  9  1  0
  9 10  1  0
  9 11  2  0
 11 12  1  0
 12 13  1  0
 12 14  2  0
 14 15  1  0
 15 16  2  0
 15 17  1  0
 17 18  1  0
 18 19  2  0
 19 20  1  0
 19 21  1  0
 21 22  1  0
 21 23  2  0
 23 24  1  0
 23 25  1  0
 25 26  1  0
 25 27  2  0
 27 28  1  0
 28 29  1  6
 29 30  1  0
 29 31  1  0
 28 32  1  0
 32 33  1  0
 32 34  1  0
 32 35  1  0
 35 36  1  0
 36 37  1  1
 36 38  1  0
 38 39  1  0
 38 40  1  0
 38 41  1  0
 41 42  1  0
 41 43  1  0
 43 44  1  0
 43 45  1  0
 43 46  1  0
 46 47  1  0
 46 48  1  0
 35 49  1  0
 49 50  1  0
 49 51  1  0
 49 52  1  0
 52 53  1  0
 52 54  1  0
 14 55  1  0
 55 56  1  0
 55 57  1  0
 57 58  2  0
 58 59  1  0
 58  6  1  0
 57 11  1  0
 29 17  1  0
 46 36  1  0
 27 18  1  0
 52 28  1  0
M  END
>  <UniqueID>  (28) 
40

>  <SMILES>  (28) 
[H]/N=C(/O)c1ccc2cc(C(=O)N3C[C@]4(CCN([C@@H]5CCNC5)C4)c4ccccc43)[nH]c2c1

>  <Energy>  (28) 
126.72370301603527

>  <Genealogy>  (28) 
N=C(O)c1ccc2cc(C(=O)N3C[C@]4(CCN(C5CCNC5)C4)c4ccccc43)[nH]c2c1 (tautomer)
N=C(O)c1ccc2cc(C(=O)N3C[C@]4(CCN([C@@H]5CCNC5)C4)c4ccccc43)[nH]c2c1 (chirality)
[H]/N=C(/O)c1ccc2cc(C(=O)N3C[C@]4(CCN([C@@H]5CCNC5)C4)c4ccccc43)[nH]c2c1 (cis-trans isomerization)
[H]/N=C(/O)c1ccc2cc(C(=O)N3C[C@]4(CCN([C@@H]5CCNC5)C4)c4ccccc43)[nH]c2c1 (3D coordinates assigned)
[H]/N=C(/O)c1ccc2cc(C(=O)N3C[C@]4(CCN([C@@H]5CCNC5)C4)c4ccccc43)[nH]c2c1 (nonaromatic ring conformer: 126.72370301603527 kcal/mol)

>  <smiles>  (28) 
NC(=O)c1ccc2cc(C(=O)N3C[C@]4(CCN(C5CCNC5)C4)c4ccccc43)[nH]c2c1

>  <score_type>  (28) 
oracle

>  <origin>  (28) 
autodockgpu

>  <m_score__min__energy>  (28) 
-9.3800000000000008

>  <m_primary>  (28) 
energy

>  <meeko>  (28) 
{"free_energy": -8.98, "intermolecular_energy": -10.77, "internal_energy": -1.02, "cluster_size": 15, "cluster_id": 1, "rank_in_cluster": 8}

>  <energy>  (28) 
-8.98

>  <cluster_rmsd>  (28) 
1.53

>  <rmsd>  (28) 
272.13

>  <cluster>  (28) 
1

$$$$
ATTQMMYACVSETC-MLBODIKXNA-N
     RDKit          3D

 59 64  0  0  0  0  0  0  0  0999 V2000
  146.2040   71.9490  221.6200 H   0  0  0  0  0  0  0  0  0  0  0  0
  146.4000   72.8250  221.0890 N   0  0  0  0  0  0  0  0  0  0  0  0
  145.6390   73.2640  220.1350 C   0  0  0  0  0  0  0  0  0  0  0  0
  146.1270   73.2770  218.8310 O   0  0  0  0  0  0  0  0  0  0  0  0
  146.1450   74.1310  218.2870 H   0  0  0  0  0  0  0  0  0  0  0  0
  144.2570   73.7330  220.3960 C   0  0  0  0  0  0  0  0  0  0  0  0
  143.2800   72.8010  220.8310 C   0  0  0  0  0  0  0  0  0  0  0  0
  143.5611   71.7462  220.9667 H   0  0  0  0  0  0  0  0  0  0  0  0
  141.9560   73.2040  221.0920 C   0  0  0  0  0  0  0  0  0  0  0  0
  141.2010   72.4847  221.4421 H   0  0  0  0  0  0  0  0  0  0  0  0
  141.6360   74.5420  220.8920 C   0  0  0  0  0  0  0  0  0  0  0  0
  140.4350   75.2040  221.0270 C   0  0  0  0  0  0  0  0  0  0  0  0
  139.4732   74.7862  221.3591 H   0  0  0  0  0  0  0  0  0  0  0  0
  140.7050   76.5180  220.6510 C   0  0  0  0  0  0  0  0  0  0  0  0
  139.6930   77.5910  220.5690 C   0  0  0  0  0  0  0  0  0  0  0  0
  139.0370   77.7300  219.4990 O   0  0  0  0  0  0  0  0  0  0  0  0
  139.4200   78.4590  221.6810 N   0  0  0  0  0  0  0  0  0  0  0  0
  140.4160   79.2050  222.3700 C   0  0  0  0  0  0  0  0  0  0  0  0
  141.7750   78.8870  222.4780 C   0  0  0  0  0  0  0  0  0  0  0  0
  142.1813   77.9874  221.9925 H   0  0  0  0  0  0  0  0  0  0  0  0
  142.6080   79.7390  223.2180 C   0  0  0  0  0  0  0  0  0  0  0  0
  143.6804   79.5124  223.3109 H   0  0  0  0  0  0  0  0  0  0  0  0
  142.0770   80.8810  223.8410 C   0  0  0  0  0  0  0  0  0  0  0  0
  142.7359   81.5482  224.4160 H   0  0  0  0  0  0  0  0  0  0  0  0
  140.7090   81.1730  223.7320 C   0  0  0  0  0  0  0  0  0  0  0  0
  140.2854   82.0643  224.2179 H   0  0  0  0  0  0  0  0  0  0  0  0
  139.8930   80.3070  222.9920 C   0  0  0  0  0  0  0  0  0  0  0  0
  138.4080   80.3910  222.7480 C   0  0  1  0  0  0  0  0  0  0  0  0
  138.1190   79.1050  221.9010 C   0  0  0  0  0  0  0  0  0  0  0  0
  137.6606   79.3771  220.9388 H   0  0  0  0  0  0  0  0  0  0  0  0
  137.4196   78.4323  222.4190 H   0  0  0  0  0  0  0  0  0  0  0  0
  137.6280   80.4440  224.0600 C   0  0  0  0  0  0  0  0  0  0  0  0
  138.1403   79.8547  224.8348 H   0  0  0  0  0  0  0  0  0  0  0  0
  136.6180   80.0227  223.9490 H   0  0  0  0  0  0  0  0  0  0  0  0
  137.5850   81.8620  224.4400 N   0  0  0  0  0  0  0  0  0  0  0  0
  136.4500   82.1660  225.3430 C   0  0  1  0  0  0  0  0  0  0  0  0
  135.8682   82.9290  224.8051 H   0  0  0  0  0  0  0  0  0  0  0  0
  135.6280   80.9140  225.6700 C   0  0  0  0  0  0  0  0  0  0  0  0
  136.2334   80.0142  225.4859 H   0  0  0  0  0  0  0  0  0  0  0  0
  134.7314   80.8752  225.0339 H   0  0  0  0  0  0  0  0  0  0  0  0
  135.2390   80.9680  227.0840 N   0  0  0  0  0  0  0  0  0  0  0  0
  135.6580   80.1430  227.5760 H   0  0  0  0  0  0  0  0  0  0  0  0
  135.8300   82.1800  227.6470 C   0  0  0  0  0  0  0  0  0  0  0  0
  136.2540   81.9644  228.6389 H   0  0  0  0  0  0  0  0  0  0  0  0
  135.0671   82.9642  227.7608 H   0  0  0  0  0  0  0  0  0  0  0  0
  136.9250   82.6370  226.7060 C   0  0  0  0  0  0  0  0  0  0  0  0
  137.8867   82.1718  226.9683 H   0  0  0  0  0  0  0  0  0  0  0  0
  137.0947   83.7231  226.7458 H   0  0  0  0  0  0  0  0  0  0  0  0
  137.5240   82.6120  223.1690 C   0  0  0  0  0  0  0  0  0  0  0  0
  138.1653   83.5036  223.2315 H   0  0  0  0  0  0  0  0  0  0  0  0
  136.4920   82.9348  222.9674 H   0  0  0  0  0  0  0  0  0  0  0  0
  138.0190   81.6960  222.0500 C   0  0  0  0  0  0  0  0  0  0  0  0
  138.8902   82.1388  221.5451 H   0  0  0  0  0  0  0  0  0  0  0  0
  137.2529   81.5380  221.2766 H   0  0  0  0  0  0  0  0  0  0  0  0
  142.0070   76.6610  220.2870 N   0  0  0  0  0  0  0  0  0  0  0  0
  142.4770   77.5070  219.9030 H   0  0  0  0  0  0  0  0  0  0  0  0
  142.5620   75.4490  220.4500 C   0  0  0  0  0  0  0  0  0  0  0  0
  143.8820   75.0830  220.1920 C   0  0  0  0  0  0  0  0  0  0  0  0
  144.6139   75.8243  219.8388 H   0  0  0  0  0  0  0  0  0  0  0  0
  1  2  1  0
  2  3  2  0
  3  4  1  0
  4  5  1  0
  3  6  1  0
  6  7  2  0
  7  8  1  0
  7  9  1  0
  9 10  1  0
  9 11  2  0
 11 12  1  0
 12 13  1  0
 12 14  2  0
 14 15  1  0
 15 16  2  0
 15 17  1  0
 17 18  1  0
 18 19  2  0
 19 20  1  0
 19 21  1  0
 21 22  1  0
 21 23  2  0
 23 24  1  0
 23 25  1  0
 25 26  1  0
 25 27  2  0
 27 28  1  0
 28 29  1  6
 29 30  1  0
 29 31  1  0
 28 32  1  0
 32 33  1  0
 32 34  1  0
 32 35  1  0
 35 36  1  0
 36 37  1  6
 36 38  1  0
 38 39  1  0
 38 40  1  0
 38 41  1  0
 41 42  1  0
 41 43  1  0
 43 44  1  0
 43 45  1  0
 43 46  1  0
 46 47  1  0
 46 48  1  0
 35 49  1  0
 49 50  1  0
 49 51  1  0
 49 52  1  0
 52 53  1  0
 52 54  1  0
 14 55  1  0
 55 56  1  0
 55 57  1  0
 57 58  2  0
 58 59  1  0
 58  6  1  0
 57 11  1  0
 29 17  1  0
 46 36  1  0
 27 18  1  0
 52 28  1  0
M  END
>  <UniqueID>  (29) 
40

>  <SMILES>  (29) 
[H]/N=C(/O)c1ccc2cc(C(=O)N3C[C@]4(CCN([C@@H]5CCNC5)C4)c4ccccc43)[nH]c2c1

>  <Energy>  (29) 
126.72370301603527

>  <Genealogy>  (29) 
N=C(O)c1ccc2cc(C(=O)N3C[C@]4(CCN(C5CCNC5)C4)c4ccccc43)[nH]c2c1 (tautomer)
N=C(O)c1ccc2cc(C(=O)N3C[C@]4(CCN([C@@H]5CCNC5)C4)c4ccccc43)[nH]c2c1 (chirality)
[H]/N=C(/O)c1ccc2cc(C(=O)N3C[C@]4(CCN([C@@H]5CCNC5)C4)c4ccccc43)[nH]c2c1 (cis-trans isomerization)
[H]/N=C(/O)c1ccc2cc(C(=O)N3C[C@]4(CCN([C@@H]5CCNC5)C4)c4ccccc43)[nH]c2c1 (3D coordinates assigned)
[H]/N=C(/O)c1ccc2cc(C(=O)N3C[C@]4(CCN([C@@H]5CCNC5)C4)c4ccccc43)[nH]c2c1 (nonaromatic ring conformer: 126.72370301603527 kcal/mol)

>  <smiles>  (29) 
NC(=O)c1ccc2cc(C(=O)N3C[C@]4(CCN(C5CCNC5)C4)c4ccccc43)[nH]c2c1

>  <score_type>  (29) 
oracle

>  <origin>  (29) 
autodockgpu

>  <m_score__min__energy>  (29) 
-9.3800000000000008

>  <m_primary>  (29) 
energy

>  <meeko>  (29) 
{"free_energy": -9.26, "intermolecular_energy": -11.05, "internal_energy": -1.02, "cluster_size": 15, "cluster_id": 1, "rank_in_cluster": 5}

>  <energy>  (29) 
-8.97

>  <cluster_rmsd>  (29) 
1.53

>  <rmsd>  (29) 
272.17

>  <cluster>  (29) 
1

$$$$
ATTQMMYACVSETC-MLBODIKXNA-N
     RDKit          3D

 59 64  0  0  0  0  0  0  0  0999 V2000
  145.7970   71.9870  221.5600 H   0  0  0  0  0  0  0  0  0  0  0  0
  146.0040   72.9140  221.1290 N   0  0  0  0  0  0  0  0  0  0  0  0
  145.5430   73.2800  219.9740 C   0  0  0  0  0  0  0  0  0  0  0  0
  146.3240   73.0760  218.8380 O   0  0  0  0  0  0  0  0  0  0  0  0
  146.5560   73.8420  218.2180 H   0  0  0  0  0  0  0  0  0  0  0  0
  144.2000   73.8900  219.8290 C   0  0  0  0  0  0  0  0  0  0  0  0
  143.1440   73.1170  219.2820 C   0  0  0  0  0  0  0  0  0  0  0  0
  143.3367   72.0792  218.9725 H   0  0  0  0  0  0  0  0  0  0  0  0
  141.8520   73.6580  219.1290 C   0  0  0  0  0  0  0  0  0  0  0  0
  141.0292   73.0564  218.7154 H   0  0  0  0  0  0  0  0  0  0  0  0
  141.6520   74.9770  219.5180 C   0  0  0  0  0  0  0  0  0  0  0  0
  140.5260   75.7680  219.4510 C   0  0  0  0  0  0  0  0  0  0  0  0
  139.5267   75.4825  219.0904 H   0  0  0  0  0  0  0  0  0  0  0  0
  140.9300   77.0090  219.9400 C   0  0  0  0  0  0  0  0  0  0  0  0
  140.0690   78.2080  219.9950 C   0  0  0  0  0  0  0  0  0  0  0  0
  139.6000   78.6720  218.9180 O   0  0  0  0  0  0  0  0  0  0  0  0
  139.7330   78.8410  221.2410 N   0  0  0  0  0  0  0  0  0  0  0  0
  140.6680   79.5330  222.0580 C   0  0  0  0  0  0  0  0  0  0  0  0
  142.0490   79.3140  222.1190 C   0  0  0  0  0  0  0  0  0  0  0  0
  142.5248   78.5513  221.4851 H   0  0  0  0  0  0  0  0  0  0  0  0
  142.8140   80.0870  223.0050 C   0  0  0  0  0  0  0  0  0  0  0  0
  143.9018   79.9357  223.0659 H   0  0  0  0  0  0  0  0  0  0  0  0
  142.1950   81.0540  223.8150 C   0  0  0  0  0  0  0  0  0  0  0  0
  142.8003   81.6620  224.5034 H   0  0  0  0  0  0  0  0  0  0  0  0
  140.8070   81.2460  223.7480 C   0  0  0  0  0  0  0  0  0  0  0  0
  140.3145   81.9992  224.3805 H   0  0  0  0  0  0  0  0  0  0  0  0
  140.0600   80.4610  222.8610 C   0  0  0  0  0  0  0  0  0  0  0  0
  138.5710   80.4630  222.6240 C   0  0  1  0  0  0  0  0  0  0  0  0
  138.3840   79.3280  221.5610 C   0  0  0  0  0  0  0  0  0  0  0  0
  137.8984   79.7270  220.6583 H   0  0  0  0  0  0  0  0  0  0  0  0
  137.7461   78.5188  221.9461 H   0  0  0  0  0  0  0  0  0  0  0  0
  137.7990   80.2190  223.9180 C   0  0  0  0  0  0  0  0  0  0  0  0
  138.3638   79.5464  224.5803 H   0  0  0  0  0  0  0  0  0  0  0  0
  136.8265   79.7422  223.7262 H   0  0  0  0  0  0  0  0  0  0  0  0
  137.6410   81.5390  224.5430 N   0  0  0  0  0  0  0  0  0  0  0  0
  136.4920   81.5840  225.4760 C   0  0  1  0  0  0  0  0  0  0  0  0
  135.9379   80.6560  225.2719 H   0  0  0  0  0  0  0  0  0  0  0  0
  136.9440   81.6970  226.9360 C   0  0  0  0  0  0  0  0  0  0  0  0
  137.9722   82.0858  226.9769 H   0  0  0  0  0  0  0  0  0  0  0  0
  136.9187   80.7073  227.4155 H   0  0  0  0  0  0  0  0  0  0  0  0
  136.0390   82.6170  227.6350 N   0  0  0  0  0  0  0  0  0  0  0  0
  136.5980   83.4330  227.9810 H   0  0  0  0  0  0  0  0  0  0  0  0
  135.0790   83.1080  226.6500 C   0  0  0  0  0  0  0  0  0  0  0  0
  134.9261   84.1893  226.7822 H   0  0  0  0  0  0  0  0  0  0  0  0
  134.1087   82.6046  226.7729 H   0  0  0  0  0  0  0  0  0  0  0  0
  135.6500   82.8320  225.2750 C   0  0  0  0  0  0  0  0  0  0  0  0
  136.2711   83.6728  224.9326 H   0  0  0  0  0  0  0  0  0  0  0  0
  134.8710   82.7008  224.5095 H   0  0  0  0  0  0  0  0  0  0  0  0
  137.5100   82.4940  223.4240 C   0  0  0  0  0  0  0  0  0  0  0  0
  138.0762   83.4101  223.6480 H   0  0  0  0  0  0  0  0  0  0  0  0
  136.4535   82.7614  223.2743 H   0  0  0  0  0  0  0  0  0  0  0  0
  138.0710   81.8340  222.1650 C   0  0  0  0  0  0  0  0  0  0  0  0
  138.8992   82.4292  221.7531 H   0  0  0  0  0  0  0  0  0  0  0  0
  137.3150   81.7525  221.3701 H   0  0  0  0  0  0  0  0  0  0  0  0
  142.2460   76.9920  220.2810 N   0  0  0  0  0  0  0  0  0  0  0  0
  142.8330   77.7850  220.6120 H   0  0  0  0  0  0  0  0  0  0  0  0
  142.6680   75.7420  220.0260 C   0  0  0  0  0  0  0  0  0  0  0  0
  143.9540   75.2350  220.1980 C   0  0  0  0  0  0  0  0  0  0  0  0
  144.7577   75.8631  220.6098 H   0  0  0  0  0  0  0  0  0  0  0  0
  1  2  1  0
  2  3  2  0
  3  4  1  0
  4  5  1  0
  3  6  1  0
  6  7  2  0
  7  8  1  0
  7  9  1  0
  9 10  1  0
  9 11  2  0
 11 12  1  0
 12 13  1  0
 12 14  2  0
 14 15  1  0
 15 16  2  0
 15 17  1  0
 17 18  1  0
 18 19  2  0
 19 20  1  0
 19 21  1  0
 21 22  1  0
 21 23  2  0
 23 24  1  0
 23 25  1  0
 25 26  1  0
 25 27  2  0
 27 28  1  0
 28 29  1  6
 29 30  1  0
 29 31  1  0
 28 32  1  0
 32 33  1  0
 32 34  1  0
 32 35  1  0
 35 36  1  0
 36 37  1  1
 36 38  1  0
 38 39  1  0
 38 40  1  0
 38 41  1  0
 41 42  1  0
 41 43  1  0
 43 44  1  0
 43 45  1  0
 43 46  1  0
 46 47  1  0
 46 48  1  0
 35 49  1  0
 49 50  1  0
 49 51  1  0
 49 52  1  0
 52 53  1  0
 52 54  1  0
 14 55  1  0
 55 56  1  0
 55 57  1  0
 57 58  2  0
 58 59  1  0
 58  6  1  0
 57 11  1  0
 29 17  1  0
 46 36  1  0
 27 18  1  0
 52 28  1  0
M  END
>  <UniqueID>  (30) 
40

>  <SMILES>  (30) 
[H]/N=C(/O)c1ccc2cc(C(=O)N3C[C@]4(CCN([C@@H]5CCNC5)C4)c4ccccc43)[nH]c2c1

>  <Energy>  (30) 
126.72370301603527

>  <Genealogy>  (30) 
N=C(O)c1ccc2cc(C(=O)N3C[C@]4(CCN(C5CCNC5)C4)c4ccccc43)[nH]c2c1 (tautomer)
N=C(O)c1ccc2cc(C(=O)N3C[C@]4(CCN([C@@H]5CCNC5)C4)c4ccccc43)[nH]c2c1 (chirality)
[H]/N=C(/O)c1ccc2cc(C(=O)N3C[C@]4(CCN([C@@H]5CCNC5)C4)c4ccccc43)[nH]c2c1 (cis-trans isomerization)
[H]/N=C(/O)c1ccc2cc(C(=O)N3C[C@]4(CCN([C@@H]5CCNC5)C4)c4ccccc43)[nH]c2c1 (3D coordinates assigned)
[H]/N=C(/O)c1ccc2cc(C(=O)N3C[C@]4(CCN([C@@H]5CCNC5)C4)c4ccccc43)[nH]c2c1 (nonaromatic ring conformer: 126.72370301603527 kcal/mol)

>  <smiles>  (30) 
NC(=O)c1ccc2cc(C(=O)N3C[C@]4(CCN(C5CCNC5)C4)c4ccccc43)[nH]c2c1

>  <score_type>  (30) 
oracle

>  <origin>  (30) 
autodockgpu

>  <m_score__min__energy>  (30) 
-9.3800000000000008

>  <m_primary>  (30) 
energy

>  <meeko>  (30) 
{"free_energy": -8.73, "intermolecular_energy": -10.52, "internal_energy": -0.92, "cluster_size": 15, "cluster_id": 1, "rank_in_cluster": 13}

>  <energy>  (30) 
-8.97

>  <cluster_rmsd>  (30) 
1.58

>  <rmsd>  (30) 
272.14

>  <cluster>  (30) 
1

$$$$
ATTQMMYACVSETC-MLBODIKXNA-N
     RDKit          3D

 59 64  0  0  0  0  0  0  0  0999 V2000
  145.7710   72.1750  221.4620 H   0  0  0  0  0  0  0  0  0  0  0  0
  145.1900   72.1610  220.5960 N   0  0  0  0  0  0  0  0  0  0  0  0
  145.0800   73.1770  219.7970 C   0  0  0  0  0  0  0  0  0  0  0  0
  146.0210   73.3470  218.7850 O   0  0  0  0  0  0  0  0  0  0  0  0
  146.0060   74.1650  218.1880 H   0  0  0  0  0  0  0  0  0  0  0  0
  143.9670   74.1480  219.9230 C   0  0  0  0  0  0  0  0  0  0  0  0
  144.0240   75.3640  219.1930 C   0  0  0  0  0  0  0  0  0  0  0  0
  144.8916   75.5684  218.5485 H   0  0  0  0  0  0  0  0  0  0  0  0
  142.9870   76.3130  219.2810 C   0  0  0  0  0  0  0  0  0  0  0  0
  143.0232   77.2497  218.7054 H   0  0  0  0  0  0  0  0  0  0  0  0
  141.9160   76.0260  220.1200 C   0  0  0  0  0  0  0  0  0  0  0  0
  140.7990   76.7690  220.4290 C   0  0  0  0  0  0  0  0  0  0  0  0
  140.5199   77.7560  220.0316 H   0  0  0  0  0  0  0  0  0  0  0  0
  140.0990   75.9980  221.3550 C   0  0  0  0  0  0  0  0  0  0  0  0
  138.8560   76.4230  222.0310 C   0  0  0  0  0  0  0  0  0  0  0  0
  137.8470   75.6650  221.9850 O   0  0  0  0  0  0  0  0  0  0  0  0
  138.7760   77.6600  222.7570 N   0  0  0  0  0  0  0  0  0  0  0  0
  139.8910   78.5040  223.0150 C   0  0  0  0  0  0  0  0  0  0  0  0
  141.2330   78.1140  223.1030 C   0  0  0  0  0  0  0  0  0  0  0  0
  141.5232   77.0635  222.9541 H   0  0  0  0  0  0  0  0  0  0  0  0
  142.2000   79.0910  223.3850 C   0  0  0  0  0  0  0  0  0  0  0  0
  143.2611   78.8090  223.4520 H   0  0  0  0  0  0  0  0  0  0  0  0
  141.8170   80.4280  223.5820 C   0  0  0  0  0  0  0  0  0  0  0  0
  142.5799   81.1906  223.7974 H   0  0  0  0  0  0  0  0  0  0  0  0
  140.4650   80.7940  223.5050 C   0  0  0  0  0  0  0  0  0  0  0  0
  140.1572   81.8385  223.6606 H   0  0  0  0  0  0  0  0  0  0  0  0
  139.5140   79.8030  223.2260 C   0  0  0  0  0  0  0  0  0  0  0  0
  138.0170   79.9390  223.1150 C   0  0  1  0  0  0  0  0  0  0  0  0
  137.5520   78.4680  222.8440 C   0  0  0  0  0  0  0  0  0  0  0  0
  136.9912   78.4134  221.8992 H   0  0  0  0  0  0  0  0  0  0  0  0
  136.8878   78.1044  223.6419 H   0  0  0  0  0  0  0  0  0  0  0  0
  137.4140   80.5450  224.3800 C   0  0  0  0  0  0  0  0  0  0  0  0
  137.9866   80.2323  225.2656 H   0  0  0  0  0  0  0  0  0  0  0  0
  136.3761   80.2146  224.5335 H   0  0  0  0  0  0  0  0  0  0  0  0
  137.4990   82.0010  224.2030 N   0  0  0  0  0  0  0  0  0  0  0  0
  136.5080   82.7250  225.0320 C   0  0  1  0  0  0  0  0  0  0  0  0
  135.5396   82.2906  224.7429 H   0  0  0  0  0  0  0  0  0  0  0  0
  136.7990   82.5800  226.5290 C   0  0  0  0  0  0  0  0  0  0  0  0
  137.8518   82.2974  226.6766 H   0  0  0  0  0  0  0  0  0  0  0  0
  136.1573   81.7994  226.9636 H   0  0  0  0  0  0  0  0  0  0  0  0
  136.5360   83.8680  227.1820 N   0  0  0  0  0  0  0  0  0  0  0  0
  137.4280   84.2120  227.6090 H   0  0  0  0  0  0  0  0  0  0  0  0
  136.1400   84.8080  226.1370 C   0  0  0  0  0  0  0  0  0  0  0  0
  136.6324   85.7782  226.2992 H   0  0  0  0  0  0  0  0  0  0  0  0
  135.0516   84.9667  226.1528 H   0  0  0  0  0  0  0  0  0  0  0  0
  136.5730   84.2250  224.8070 C   0  0  0  0  0  0  0  0  0  0  0  0
  137.5966   84.5397  224.5556 H   0  0  0  0  0  0  0  0  0  0  0  0
  135.9413   84.5578  223.9703 H   0  0  0  0  0  0  0  0  0  0  0  0
  137.3200   82.2360  222.7560 C   0  0  0  0  0  0  0  0  0  0  0  0
  138.0137   83.0197  222.4174 H   0  0  0  0  0  0  0  0  0  0  0  0
  136.2907   82.5641  222.5488 H   0  0  0  0  0  0  0  0  0  0  0  0
  137.6160   80.9300  222.0200 C   0  0  0  0  0  0  0  0  0  0  0  0
  138.4392   81.0682  221.3036 H   0  0  0  0  0  0  0  0  0  0  0  0
  136.7498   80.5771  221.4410 H   0  0  0  0  0  0  0  0  0  0  0  0
  140.7580   74.8380  221.6170 N   0  0  0  0  0  0  0  0  0  0  0  0
  140.5100   74.1010  222.3090 H   0  0  0  0  0  0  0  0  0  0  0  0
  141.8590   74.8670  220.8480 C   0  0  0  0  0  0  0  0  0  0  0  0
  142.8640   73.9040  220.7750 C   0  0  0  0  0  0  0  0  0  0  0  0
  142.8012   72.9777  221.3649 H   0  0  0  0  0  0  0  0  0  0  0  0
  1  2  1  0
  2  3  2  0
  3  4  1  0
  4  5  1  0
  3  6  1  0
  6  7  2  0
  7  8  1  0
  7  9  1  0
  9 10  1  0
  9 11  2  0
 11 12  1  0
 12 13  1  0
 12 14  2  0
 14 15  1  0
 15 16  2  0
 15 17  1  0
 17 18  1  0
 18 19  2  0
 19 20  1  0
 19 21  1  0
 21 22  1  0
 21 23  2  0
 23 24  1  0
 23 25  1  0
 25 26  1  0
 25 27  2  0
 27 28  1  0
 28 29  1  6
 29 30  1  0
 29 31  1  0
 28 32  1  0
 32 33  1  0
 32 34  1  0
 32 35  1  0
 35 36  1  0
 36 37  1  1
 36 38  1  0
 38 39  1  0
 38 40  1  0
 38 41  1  0
 41 42  1  0
 41 43  1  0
 43 44  1  0
 43 45  1  0
 43 46  1  0
 46 47  1  0
 46 48  1  0
 35 49  1  0
 49 50  1  0
 49 51  1  0
 49 52  1  0
 52 53  1  0
 52 54  1  0
 14 55  1  0
 55 56  1  0
 55 57  1  0
 57 58  2  0
 58 59  1  0
 58  6  1  0
 57 11  1  0
 29 17  1  0
 46 36  1  0
 27 18  1  0
 52 28  1  0
M  END
>  <UniqueID>  (31) 
40

>  <SMILES>  (31) 
[H]/N=C(/O)c1ccc2cc(C(=O)N3C[C@]4(CCN([C@@H]5CCNC5)C4)c4ccccc43)[nH]c2c1

>  <Energy>  (31) 
126.72370301603527

>  <Genealogy>  (31) 
N=C(O)c1ccc2cc(C(=O)N3C[C@]4(CCN(C5CCNC5)C4)c4ccccc43)[nH]c2c1 (tautomer)
N=C(O)c1ccc2cc(C(=O)N3C[C@]4(CCN([C@@H]5CCNC5)C4)c4ccccc43)[nH]c2c1 (chirality)
[H]/N=C(/O)c1ccc2cc(C(=O)N3C[C@]4(CCN([C@@H]5CCNC5)C4)c4ccccc43)[nH]c2c1 (cis-trans isomerization)
[H]/N=C(/O)c1ccc2cc(C(=O)N3C[C@]4(CCN([C@@H]5CCNC5)C4)c4ccccc43)[nH]c2c1 (3D coordinates assigned)
[H]/N=C(/O)c1ccc2cc(C(=O)N3C[C@]4(CCN([C@@H]5CCNC5)C4)c4ccccc43)[nH]c2c1 (nonaromatic ring conformer: 126.72370301603527 kcal/mol)

>  <smiles>  (31) 
NC(=O)c1ccc2cc(C(=O)N3C[C@]4(CCN(C5CCNC5)C4)c4ccccc43)[nH]c2c1

>  <score_type>  (31) 
oracle

>  <origin>  (31) 
autodockgpu

>  <m_score__min__energy>  (31) 
-9.3800000000000008

>  <m_primary>  (31) 
energy

>  <meeko>  (31) 
{"free_energy": -8.97, "intermolecular_energy": -10.76, "internal_energy": -0.93, "cluster_size": 15, "cluster_id": 1, "rank_in_cluster": 10}

>  <energy>  (31) 
-8.96

>  <cluster_rmsd>  (31) 
1.54

>  <rmsd>  (31) 
272.13

>  <cluster>  (31) 
1

$$$$
ATTQMMYACVSETC-MLBODIKXNA-N
     RDKit          3D

 59 64  0  0  0  0  0  0  0  0999 V2000
  145.6950   74.8890  217.1630 H   0  0  0  0  0  0  0  0  0  0  0  0
  145.1920   75.0230  216.2590 N   0  0  0  0  0  0  0  0  0  0  0  0
  144.4500   76.0560  216.0050 C   0  0  0  0  0  0  0  0  0  0  0  0
  144.5230   76.6490  214.7470 O   0  0  0  0  0  0  0  0  0  0  0  0
  144.7300   77.6350  214.6440 H   0  0  0  0  0  0  0  0  0  0  0  0
  143.5120   76.6070  217.0110 C   0  0  0  0  0  0  0  0  0  0  0  0
  143.0310   77.9330  216.8560 C   0  0  0  0  0  0  0  0  0  0  0  0
  143.3621   78.5317  215.9946 H   0  0  0  0  0  0  0  0  0  0  0  0
  142.1360   78.4950  217.7880 C   0  0  0  0  0  0  0  0  0  0  0  0
  141.7519   79.5180  217.6619 H   0  0  0  0  0  0  0  0  0  0  0  0
  141.7550   77.7130  218.8720 C   0  0  0  0  0  0  0  0  0  0  0  0
  140.9390   78.0060  219.9420 C   0  0  0  0  0  0  0  0  0  0  0  0
  140.3913   78.9410  220.1312 H   0  0  0  0  0  0  0  0  0  0  0  0
  140.9590   76.8580  220.7330 C   0  0  0  0  0  0  0  0  0  0  0  0
  140.2760   76.7280  222.0370 C   0  0  0  0  0  0  0  0  0  0  0  0
  140.0250   75.5730  222.4810 O   0  0  0  0  0  0  0  0  0  0  0  0
  139.9160   77.8780  222.8200 N   0  0  0  0  0  0  0  0  0  0  0  0
  140.7970   78.9580  223.0990 C   0  0  0  0  0  0  0  0  0  0  0  0
  142.1960   78.9060  223.1470 C   0  0  0  0  0  0  0  0  0  0  0  0
  142.7299   77.9657  222.9449 H   0  0  0  0  0  0  0  0  0  0  0  0
  142.9020   80.0770  223.4580 C   0  0  0  0  0  0  0  0  0  0  0  0
  144.0012   80.0606  223.4961 H   0  0  0  0  0  0  0  0  0  0  0  0
  142.2100   81.2710  223.7210 C   0  0  0  0  0  0  0  0  0  0  0  0
  142.7692   82.1881  223.9581 H   0  0  0  0  0  0  0  0  0  0  0  0
  140.8070   81.2970  223.6820 C   0  0  0  0  0  0  0  0  0  0  0  0
  140.2577   82.2272  223.8894 H   0  0  0  0  0  0  0  0  0  0  0  0
  140.1200   80.1160  223.3740 C   0  0  0  0  0  0  0  0  0  0  0  0
  138.6330   79.8840  223.2930 C   0  0  1  0  0  0  0  0  0  0  0  0
  138.5340   78.3570  222.9630 C   0  0  0  0  0  0  0  0  0  0  0  0
  137.9787   78.2046  222.0257 H   0  0  0  0  0  0  0  0  0  0  0  0
  137.9999   77.8098  223.7538 H   0  0  0  0  0  0  0  0  0  0  0  0
  137.9340   80.2730  224.5930 C   0  0  0  0  0  0  0  0  0  0  0  0
  138.5888   80.0751  225.4544 H   0  0  0  0  0  0  0  0  0  0  0  0
  137.0125   79.6925  224.7475 H   0  0  0  0  0  0  0  0  0  0  0  0
  137.6560   81.7110  224.4810 N   0  0  0  0  0  0  0  0  0  0  0  0
  136.5400   82.1360  225.3570 C   0  0  1  0  0  0  0  0  0  0  0  0
  136.0526   82.9514  224.8024 H   0  0  0  0  0  0  0  0  0  0  0  0
  135.5860   80.9790  225.6710 C   0  0  0  0  0  0  0  0  0  0  0  0
  136.0984   80.0201  225.5036 H   0  0  0  0  0  0  0  0  0  0  0  0
  134.7040   81.0303  225.0157 H   0  0  0  0  0  0  0  0  0  0  0  0
  135.1740   81.0810  227.0760 N   0  0  0  0  0  0  0  0  0  0  0  0
  135.4940   80.2200  227.5790 H   0  0  0  0  0  0  0  0  0  0  0  0
  135.8740   82.2290  227.6470 C   0  0  0  0  0  0  0  0  0  0  0  0
  136.2515   81.9773  228.6491 H   0  0  0  0  0  0  0  0  0  0  0  0
  135.1936   83.0883  227.7402 H   0  0  0  0  0  0  0  0  0  0  0  0
  137.0310   82.5650  226.7290 C   0  0  0  0  0  0  0  0  0  0  0  0
  137.9337   82.0053  227.0150 H   0  0  0  0  0  0  0  0  0  0  0  0
  137.3106   83.6282  226.7680 H   0  0  0  0  0  0  0  0  0  0  0  0
  137.3870   81.9530  223.0490 C   0  0  0  0  0  0  0  0  0  0  0  0
  137.8589   82.8959  222.7356 H   0  0  0  0  0  0  0  0  0  0  0  0
  136.3037   82.0267  222.8729 H   0  0  0  0  0  0  0  0  0  0  0  0
  137.9740   80.7900  222.2500 C   0  0  0  0  0  0  0  0  0  0  0  0
  138.7198   81.1545  221.5283 H   0  0  0  0  0  0  0  0  0  0  0  0
  137.2057   80.2592  221.6687 H   0  0  0  0  0  0  0  0  0  0  0  0
  141.7610   75.9060  220.1870 N   0  0  0  0  0  0  0  0  0  0  0  0
  142.0160   74.9780  220.5830 H   0  0  0  0  0  0  0  0  0  0  0  0
  142.2300   76.4400  219.0470 C   0  0  0  0  0  0  0  0  0  0  0  0
  143.1080   75.8520  218.1390 C   0  0  0  0  0  0  0  0  0  0  0  0
  143.4779   74.8277  218.2943 H   0  0  0  0  0  0  0  0  0  0  0  0
  1  2  1  0
  2  3  2  0
  3  4  1  0
  4  5  1  0
  3  6  1  0
  6  7  2  0
  7  8  1  0
  7  9  1  0
  9 10  1  0
  9 11  2  0
 11 12  1  0
 12 13  1  0
 12 14  2  0
 14 15  1  0
 15 16  2  0
 15 17  1  0
 17 18  1  0
 18 19  2  0
 19 20  1  0
 19 21  1  0
 21 22  1  0
 21 23  2  0
 23 24  1  0
 23 25  1  0
 25 26  1  0
 25 27  2  0
 27 28  1  0
 28 29  1  6
 29 30  1  0
 29 31  1  0
 28 32  1  0
 32 33  1  0
 32 34  1  0
 32 35  1  0
 35 36  1  0
 36 37  1  6
 36 38  1  0
 38 39  1  0
 38 40  1  0
 38 41  1  0
 41 42  1  0
 41 43  1  0
 43 44  1  0
 43 45  1  0
 43 46  1  0
 46 47  1  0
 46 48  1  0
 35 49  1  0
 49 50  1  0
 49 51  1  0
 49 52  1  0
 52 53  1  0
 52 54  1  0
 14 55  1  0
 55 56  1  0
 55 57  1  0
 57 58  2  0
 58 59  1  0
 58  6  1  0
 57 11  1  0
 29 17  1  0
 46 36  1  0
 27 18  1  0
 52 28  1  0
M  END
>  <UniqueID>  (32) 
40

>  <SMILES>  (32) 
[H]/N=C(/O)c1ccc2cc(C(=O)N3C[C@]4(CCN([C@@H]5CCNC5)C4)c4ccccc43)[nH]c2c1

>  <Energy>  (32) 
126.72370301603527

>  <Genealogy>  (32) 
N=C(O)c1ccc2cc(C(=O)N3C[C@]4(CCN(C5CCNC5)C4)c4ccccc43)[nH]c2c1 (tautomer)
N=C(O)c1ccc2cc(C(=O)N3C[C@]4(CCN([C@@H]5CCNC5)C4)c4ccccc43)[nH]c2c1 (chirality)
[H]/N=C(/O)c1ccc2cc(C(=O)N3C[C@]4(CCN([C@@H]5CCNC5)C4)c4ccccc43)[nH]c2c1 (cis-trans isomerization)
[H]/N=C(/O)c1ccc2cc(C(=O)N3C[C@]4(CCN([C@@H]5CCNC5)C4)c4ccccc43)[nH]c2c1 (3D coordinates assigned)
[H]/N=C(/O)c1ccc2cc(C(=O)N3C[C@]4(CCN([C@@H]5CCNC5)C4)c4ccccc43)[nH]c2c1 (nonaromatic ring conformer: 126.72370301603527 kcal/mol)

>  <smiles>  (32) 
NC(=O)c1ccc2cc(C(=O)N3C[C@]4(CCN(C5CCNC5)C4)c4ccccc43)[nH]c2c1

>  <score_type>  (32) 
oracle

>  <origin>  (32) 
autodockgpu

>  <m_score__min__energy>  (32) 
-9.3800000000000008

>  <m_primary>  (32) 
energy

>  <meeko>  (32) 
{"free_energy": -8.09, "intermolecular_energy": -9.88, "internal_energy": -1.29, "cluster_size": 2, "cluster_id": 4, "rank_in_cluster": 1}

>  <energy>  (32) 
-8.95

>  <cluster_rmsd>  (32) 
1.55

>  <rmsd>  (32) 
272.16

>  <cluster>  (32) 
1

$$$$
ATTQMMYACVSETC-MLBODIKXNA-N
     RDKit          3D

 59 64  0  0  0  0  0  0  0  0999 V2000
  142.0250   69.2680  228.8660 H   0  0  0  0  0  0  0  0  0  0  0  0
  141.1380   69.4420  228.3460 N   0  0  0  0  0  0  0  0  0  0  0  0
  140.7860   68.7700  227.2940 C   0  0  0  0  0  0  0  0  0  0  0  0
  141.0600   67.4060  227.2400 O   0  0  0  0  0  0  0  0  0  0  0  0
  140.3720   66.7220  227.5300 H   0  0  0  0  0  0  0  0  0  0  0  0
  140.0830   69.4130  226.1590 C   0  0  0  0  0  0  0  0  0  0  0  0
  138.8320   68.8930  225.7360 C   0  0  0  0  0  0  0  0  0  0  0  0
  138.4047   68.0218  226.2542 H   0  0  0  0  0  0  0  0  0  0  0  0
  138.1290   69.4750  224.6630 C   0  0  0  0  0  0  0  0  0  0  0  0
  137.1535   69.0811  224.3418 H   0  0  0  0  0  0  0  0  0  0  0  0
  138.7100   70.5640  224.0240 C   0  0  0  0  0  0  0  0  0  0  0  0
  138.2790   71.2990  222.9410 C   0  0  0  0  0  0  0  0  0  0  0  0
  137.3436   71.1741  222.3759 H   0  0  0  0  0  0  0  0  0  0  0  0
  139.2870   72.2350  222.7180 C   0  0  0  0  0  0  0  0  0  0  0  0
  139.2980   73.2050  221.6050 C   0  0  0  0  0  0  0  0  0  0  0  0
  138.5160   73.0250  220.6300 O   0  0  0  0  0  0  0  0  0  0  0  0
  140.1560   74.3590  221.6170 N   0  0  0  0  0  0  0  0  0  0  0  0
  141.4440   74.3980  221.0160 C   0  0  0  0  0  0  0  0  0  0  0  0
  142.2960   73.3110  220.7920 C   0  0  0  0  0  0  0  0  0  0  0  0
  141.9921   72.2924  221.0751 H   0  0  0  0  0  0  0  0  0  0  0  0
  143.5460   73.5460  220.1990 C   0  0  0  0  0  0  0  0  0  0  0  0
  144.2295   72.7054  220.0083 H   0  0  0  0  0  0  0  0  0  0  0  0
  143.9270   74.8530  219.8480 C   0  0  0  0  0  0  0  0  0  0  0  0
  144.9053   75.0319  219.3780 H   0  0  0  0  0  0  0  0  0  0  0  0
  143.0620   75.9300  220.0960 C   0  0  0  0  0  0  0  0  0  0  0  0
  143.3534   76.9558  219.8264 H   0  0  0  0  0  0  0  0  0  0  0  0
  141.8210   75.6750  220.6930 C   0  0  0  0  0  0  0  0  0  0  0  0
  140.7400   76.6530  221.0760 C   0  0  1  0  0  0  0  0  0  0  0  0
  139.6560   75.7360  221.7360 C   0  0  0  0  0  0  0  0  0  0  0  0
  138.6962   75.8401  221.2088 H   0  0  0  0  0  0  0  0  0  0  0  0
  139.4847   76.0108  222.7873 H   0  0  0  0  0  0  0  0  0  0  0  0
  141.2720   77.7360  222.0110 C   0  0  0  0  0  0  0  0  0  0  0  0
  142.0576   77.3273  222.6636 H   0  0  0  0  0  0  0  0  0  0  0  0
  140.4814   78.1311  222.6659 H   0  0  0  0  0  0  0  0  0  0  0  0
  141.8240   78.7800  221.1370 N   0  0  0  0  0  0  0  0  0  0  0  0
  141.8780   80.1010  221.8050 C   0  0  1  0  0  0  0  0  0  0  0  0
  142.1269   80.8066  220.9987 H   0  0  0  0  0  0  0  0  0  0  0  0
  140.5580   80.4410  222.5050 C   0  0  0  0  0  0  0  0  0  0  0  0
  139.9864   79.5190  222.6869 H   0  0  0  0  0  0  0  0  0  0  0  0
  139.9582   81.1120  221.8725 H   0  0  0  0  0  0  0  0  0  0  0  0
  140.8630   81.0950  223.7840 N   0  0  0  0  0  0  0  0  0  0  0  0
  140.4790   80.5050  224.5590 H   0  0  0  0  0  0  0  0  0  0  0  0
  142.3180   81.1260  223.9150 C   0  0  0  0  0  0  0  0  0  0  0  0
  142.6077   80.8579  224.9417 H   0  0  0  0  0  0  0  0  0  0  0  0
  142.7032   82.1336  223.6996 H   0  0  0  0  0  0  0  0  0  0  0  0
  142.8890   80.1190  222.9380 C   0  0  0  0  0  0  0  0  0  0  0  0
  142.9739   79.1259  223.4034 H   0  0  0  0  0  0  0  0  0  0  0  0
  143.9024   80.3813  222.6000 H   0  0  0  0  0  0  0  0  0  0  0  0
  140.9700   78.7810  219.9320 C   0  0  0  0  0  0  0  0  0  0  0  0
  141.5928   78.9078  219.0342 H   0  0  0  0  0  0  0  0  0  0  0  0
  140.2479   79.6095  219.9786 H   0  0  0  0  0  0  0  0  0  0  0  0
  140.2350   77.4430  219.8670 C   0  0  0  0  0  0  0  0  0  0  0  0
  140.4756   76.9150  218.9325 H   0  0  0  0  0  0  0  0  0  0  0  0
  139.1426   77.5710  219.8848 H   0  0  0  0  0  0  0  0  0  0  0  0
  140.3000   72.0790  223.6120 N   0  0  0  0  0  0  0  0  0  0  0  0
  141.2070   72.5890  223.6490 H   0  0  0  0  0  0  0  0  0  0  0  0
  139.9260   71.0620  224.4060 C   0  0  0  0  0  0  0  0  0  0  0  0
  140.6420   70.5150  225.4690 C   0  0  0  0  0  0  0  0  0  0  0  0
  141.6172   70.9293  225.7644 H   0  0  0  0  0  0  0  0  0  0  0  0
  1  2  1  0
  2  3  2  0
  3  4  1  0
  4  5  1  0
  3  6  1  0
  6  7  2  0
  7  8  1  0
  7  9  1  0
  9 10  1  0
  9 11  2  0
 11 12  1  0
 12 13  1  0
 12 14  2  0
 14 15  1  0
 15 16  2  0
 15 17  1  0
 17 18  1  0
 18 19  2  0
 19 20  1  0
 19 21  1  0
 21 22  1  0
 21 23  2  0
 23 24  1  0
 23 25  1  0
 25 26  1  0
 25 27  2  0
 27 28  1  0
 28 29  1  1
 29 30  1  0
 29 31  1  0
 28 32  1  0
 32 33  1  0
 32 34  1  0
 32 35  1  0
 35 36  1  0
 36 37  1  6
 36 38  1  0
 38 39  1  0
 38 40  1  0
 38 41  1  0
 41 42  1  0
 41 43  1  0
 43 44  1  0
 43 45  1  0
 43 46  1  0
 46 47  1  0
 46 48  1  0
 35 49  1  0
 49 50  1  0
 49 51  1  0
 49 52  1  0
 52 53  1  0
 52 54  1  0
 14 55  1  0
 55 56  1  0
 55 57  1  0
 57 58  2  0
 58 59  1  0
 58  6  1  0
 57 11  1  0
 29 17  1  0
 46 36  1  0
 27 18  1  0
 52 28  1  0
M  END
>  <UniqueID>  (33) 
40

>  <SMILES>  (33) 
[H]/N=C(/O)c1ccc2cc(C(=O)N3C[C@]4(CCN([C@@H]5CCNC5)C4)c4ccccc43)[nH]c2c1

>  <Energy>  (33) 
126.72370301603527

>  <Genealogy>  (33) 
N=C(O)c1ccc2cc(C(=O)N3C[C@]4(CCN(C5CCNC5)C4)c4ccccc43)[nH]c2c1 (tautomer)
N=C(O)c1ccc2cc(C(=O)N3C[C@]4(CCN([C@@H]5CCNC5)C4)c4ccccc43)[nH]c2c1 (chirality)
[H]/N=C(/O)c1ccc2cc(C(=O)N3C[C@]4(CCN([C@@H]5CCNC5)C4)c4ccccc43)[nH]c2c1 (cis-trans isomerization)
[H]/N=C(/O)c1ccc2cc(C(=O)N3C[C@]4(CCN([C@@H]5CCNC5)C4)c4ccccc43)[nH]c2c1 (3D coordinates assigned)
[H]/N=C(/O)c1ccc2cc(C(=O)N3C[C@]4(CCN([C@@H]5CCNC5)C4)c4ccccc43)[nH]c2c1 (nonaromatic ring conformer: 126.72370301603527 kcal/mol)

>  <smiles>  (33) 
NC(=O)c1ccc2cc(C(=O)N3C[C@]4(CCN(C5CCNC5)C4)c4ccccc43)[nH]c2c1

>  <score_type>  (33) 
oracle

>  <origin>  (33) 
autodockgpu

>  <m_score__min__energy>  (33) 
-9.3800000000000008

>  <m_primary>  (33) 
energy

>  <meeko>  (33) 
{"free_energy": -8.17, "intermolecular_energy": -9.96, "internal_energy": -1.01, "cluster_size": 2, "cluster_id": 3, "rank_in_cluster": 1}

>  <energy>  (33) 
-8.73

>  <cluster_rmsd>  (33) 
0.67

>  <rmsd>  (33) 
272.08

>  <cluster>  (33) 
1

$$$$
ATTQMMYACVSETC-MLBODIKXNA-N
     RDKit          3D

 59 64  0  0  0  0  0  0  0  0999 V2000
  145.1700   71.8580  221.2640 H   0  0  0  0  0  0  0  0  0  0  0  0
  145.6660   72.7070  220.9150 N   0  0  0  0  0  0  0  0  0  0  0  0
  145.2740   73.3860  219.8830 C   0  0  0  0  0  0  0  0  0  0  0  0
  145.9670   73.2550  218.6820 O   0  0  0  0  0  0  0  0  0  0  0  0
  146.2110   74.0660  218.1270 H   0  0  0  0  0  0  0  0  0  0  0  0
  144.0950   74.2830  219.9440 C   0  0  0  0  0  0  0  0  0  0  0  0
  144.0360   75.4080  219.0810 C   0  0  0  0  0  0  0  0  0  0  0  0
  144.8646   75.5993  218.3833 H   0  0  0  0  0  0  0  0  0  0  0  0
  142.9320   76.2840  219.1040 C   0  0  0  0  0  0  0  0  0  0  0  0
  142.8776   77.1485  218.4260 H   0  0  0  0  0  0  0  0  0  0  0  0
  141.9140   76.0180  220.0130 C   0  0  0  0  0  0  0  0  0  0  0  0
  140.7540   76.7100  220.2820 C   0  0  0  0  0  0  0  0  0  0  0  0
  140.3882   77.6226  219.7887 H   0  0  0  0  0  0  0  0  0  0  0  0
  140.1450   76.0010  221.3160 C   0  0  0  0  0  0  0  0  0  0  0  0
  138.8960   76.4100  221.9900 C   0  0  0  0  0  0  0  0  0  0  0  0
  137.8960   75.6420  221.9380 O   0  0  0  0  0  0  0  0  0  0  0  0
  138.8010   77.6440  222.7210 N   0  0  0  0  0  0  0  0  0  0  0  0
  139.9060   78.5000  222.9830 C   0  0  0  0  0  0  0  0  0  0  0  0
  141.2520   78.1260  223.0700 C   0  0  0  0  0  0  0  0  0  0  0  0
  141.5546   77.0797  222.9164 H   0  0  0  0  0  0  0  0  0  0  0  0
  142.2070   79.1120  223.3570 C   0  0  0  0  0  0  0  0  0  0  0  0
  143.2710   78.8413  223.4250 H   0  0  0  0  0  0  0  0  0  0  0  0
  141.8090   80.4450  223.5580 C   0  0  0  0  0  0  0  0  0  0  0  0
  142.5630   81.2158  223.7754 H   0  0  0  0  0  0  0  0  0  0  0  0
  140.4520   80.7950  223.4820 C   0  0  0  0  0  0  0  0  0  0  0  0
  140.1316   81.8351  223.6415 H   0  0  0  0  0  0  0  0  0  0  0  0
  139.5130   79.7940  223.1990 C   0  0  0  0  0  0  0  0  0  0  0  0
  138.0150   79.9120  223.0870 C   0  0  1  0  0  0  0  0  0  0  0  0
  137.5670   78.4370  222.8100 C   0  0  0  0  0  0  0  0  0  0  0  0
  137.0076   78.3795  221.8646 H   0  0  0  0  0  0  0  0  0  0  0  0
  136.9062   78.0625  223.6056 H   0  0  0  0  0  0  0  0  0  0  0  0
  137.4040   80.5070  224.3530 C   0  0  0  0  0  0  0  0  0  0  0  0
  137.9793   80.1977  225.2381 H   0  0  0  0  0  0  0  0  0  0  0  0
  136.3696   80.1644  224.5036 H   0  0  0  0  0  0  0  0  0  0  0  0
  137.4720   81.9640  224.1820 N   0  0  0  0  0  0  0  0  0  0  0  0
  136.4710   82.6730  225.0130 C   0  0  1  0  0  0  0  0  0  0  0  0
  135.5074   82.2316  224.7186 H   0  0  0  0  0  0  0  0  0  0  0  0
  136.7600   82.5210  226.5100 C   0  0  0  0  0  0  0  0  0  0  0  0
  137.8151   82.2475  226.6582 H   0  0  0  0  0  0  0  0  0  0  0  0
  136.1249   81.7315  226.9380 H   0  0  0  0  0  0  0  0  0  0  0  0
  136.4830   83.8030  227.1710 N   0  0  0  0  0  0  0  0  0  0  0  0
  137.3710   84.1520  227.6030 H   0  0  0  0  0  0  0  0  0  0  0  0
  136.0810   84.7450  226.1300 C   0  0  0  0  0  0  0  0  0  0  0  0
  136.5634   85.7190  226.2994 H   0  0  0  0  0  0  0  0  0  0  0  0
  134.9910   84.8923  226.1436 H   0  0  0  0  0  0  0  0  0  0  0  0
  136.5230   84.1750  224.7980 C   0  0  0  0  0  0  0  0  0  0  0  0
  137.5444   84.5007  224.5517 H   0  0  0  0  0  0  0  0  0  0  0  0
  135.8907   84.5076  223.9616 H   0  0  0  0  0  0  0  0  0  0  0  0
  137.2910   82.2020  222.7360 C   0  0  0  0  0  0  0  0  0  0  0  0
  137.9753   82.9953  222.4008 H   0  0  0  0  0  0  0  0  0  0  0  0
  136.2578   82.5181  222.5296 H   0  0  0  0  0  0  0  0  0  0  0  0
  137.6030   80.9030  221.9950 C   0  0  0  0  0  0  0  0  0  0  0  0
  138.4251   81.0539  221.2799 H   0  0  0  0  0  0  0  0  0  0  0  0
  136.7417   80.5422  221.4137 H   0  0  0  0  0  0  0  0  0  0  0  0
  140.8990   74.9300  221.6790 N   0  0  0  0  0  0  0  0  0  0  0  0
  140.7300   74.2620  222.4590 H   0  0  0  0  0  0  0  0  0  0  0  0
  141.9690   74.9500  220.8670 C   0  0  0  0  0  0  0  0  0  0  0  0
  143.0410   74.0600  220.8620 C   0  0  0  0  0  0  0  0  0  0  0  0
  143.0675   73.2055  221.5541 H   0  0  0  0  0  0  0  0  0  0  0  0
  1  2  1  0
  2  3  2  0
  3  4  1  0
  4  5  1  0
  3  6  1  0
  6  7  2  0
  7  8  1  0
  7  9  1  0
  9 10  1  0
  9 11  2  0
 11 12  1  0
 12 13  1  0
 12 14  2  0
 14 15  1  0
 15 16  2  0
 15 17  1  0
 17 18  1  0
 18 19  2  0
 19 20  1  0
 19 21  1  0
 21 22  1  0
 21 23  2  0
 23 24  1  0
 23 25  1  0
 25 26  1  0
 25 27  2  0
 27 28  1  0
 28 29  1  6
 29 30  1  0
 29 31  1  0
 28 32  1  0
 32 33  1  0
 32 34  1  0
 32 35  1  0
 35 36  1  0
 36 37  1  1
 36 38  1  0
 38 39  1  0
 38 40  1  0
 38 41  1  0
 41 42  1  0
 41 43  1  0
 43 44  1  0
 43 45  1  0
 43 46  1  0
 46 47  1  0
 46 48  1  0
 35 49  1  0
 49 50  1  0
 49 51  1  0
 49 52  1  0
 52 53  1  0
 52 54  1  0
 14 55  1  0
 55 56  1  0
 55 57  1  0
 57 58  2  0
 58 59  1  0
 58  6  1  0
 57 11  1  0
 29 17  1  0
 46 36  1  0
 27 18  1  0
 52 28  1  0
M  END
>  <UniqueID>  (34) 
40

>  <SMILES>  (34) 
[H]/N=C(/O)c1ccc2cc(C(=O)N3C[C@]4(CCN([C@@H]5CCNC5)C4)c4ccccc43)[nH]c2c1

>  <Energy>  (34) 
126.72370301603527

>  <Genealogy>  (34) 
N=C(O)c1ccc2cc(C(=O)N3C[C@]4(CCN(C5CCNC5)C4)c4ccccc43)[nH]c2c1 (tautomer)
N=C(O)c1ccc2cc(C(=O)N3C[C@]4(CCN([C@@H]5CCNC5)C4)c4ccccc43)[nH]c2c1 (chirality)
[H]/N=C(/O)c1ccc2cc(C(=O)N3C[C@]4(CCN([C@@H]5CCNC5)C4)c4ccccc43)[nH]c2c1 (cis-trans isomerization)
[H]/N=C(/O)c1ccc2cc(C(=O)N3C[C@]4(CCN([C@@H]5CCNC5)C4)c4ccccc43)[nH]c2c1 (3D coordinates assigned)
[H]/N=C(/O)c1ccc2cc(C(=O)N3C[C@]4(CCN([C@@H]5CCNC5)C4)c4ccccc43)[nH]c2c1 (nonaromatic ring conformer: 126.72370301603527 kcal/mol)

>  <smiles>  (34) 
NC(=O)c1ccc2cc(C(=O)N3C[C@]4(CCN(C5CCNC5)C4)c4ccccc43)[nH]c2c1

>  <score_type>  (34) 
oracle

>  <origin>  (34) 
autodockgpu

>  <m_score__min__energy>  (34) 
-9.3800000000000008

>  <m_primary>  (34) 
energy

>  <meeko>  (34) 
{"free_energy": -9.0, "intermolecular_energy": -10.79, "internal_energy": -1.01, "cluster_size": 15, "cluster_id": 1, "rank_in_cluster": 7}

>  <energy>  (34) 
-8.73

>  <cluster_rmsd>  (34) 
1.08

>  <rmsd>  (34) 
272.07

>  <cluster>  (34) 
1

$$$$
ATTQMMYACVSETC-MLBODIKXNA-N
     RDKit          3D

 59 64  0  0  0  0  0  0  0  0999 V2000
  146.1250   71.9690  221.6900 H   0  0  0  0  0  0  0  0  0  0  0  0
  146.4800   72.7110  221.0480 N   0  0  0  0  0  0  0  0  0  0  0  0
  145.7710   73.2230  220.0910 C   0  0  0  0  0  0  0  0  0  0  0  0
  146.2990   73.2630  218.8030 O   0  0  0  0  0  0  0  0  0  0  0  0
  146.3450   74.1300  218.2830 H   0  0  0  0  0  0  0  0  0  0  0  0
  144.4060   73.7490  220.3310 C   0  0  0  0  0  0  0  0  0  0  0  0
  143.3880   72.8600  220.7620 C   0  0  0  0  0  0  0  0  0  0  0  0
  143.6251   71.7961  220.9097 H   0  0  0  0  0  0  0  0  0  0  0  0
  142.0770   73.3190  221.0040 C   0  0  0  0  0  0  0  0  0  0  0  0
  141.2893   72.6338  221.3503 H   0  0  0  0  0  0  0  0  0  0  0  0
  141.8140   74.6670  220.7900 C   0  0  0  0  0  0  0  0  0  0  0  0
  140.6390   75.3760  220.9050 C   0  0  0  0  0  0  0  0  0  0  0  0
  139.6576   74.9993  221.2288 H   0  0  0  0  0  0  0  0  0  0  0  0
  140.9660   76.6760  220.5210 C   0  0  0  0  0  0  0  0  0  0  0  0
  139.9980   77.7870  220.4180 C   0  0  0  0  0  0  0  0  0  0  0  0
  139.4280   77.9980  219.3120 O   0  0  0  0  0  0  0  0  0  0  0  0
  139.6740   78.6140  221.5490 N   0  0  0  0  0  0  0  0  0  0  0  0
  140.6340   79.3410  222.3030 C   0  0  0  0  0  0  0  0  0  0  0  0
  141.9900   79.0280  222.4560 C   0  0  0  0  0  0  0  0  0  0  0  0
  142.4225   78.1486  221.9564 H   0  0  0  0  0  0  0  0  0  0  0  0
  142.7860   79.8580  223.2590 C   0  0  0  0  0  0  0  0  0  0  0  0
  143.8553   79.6347  223.3881 H   0  0  0  0  0  0  0  0  0  0  0  0
  142.2210   80.9740  223.8990 C   0  0  0  0  0  0  0  0  0  0  0  0
  142.8509   81.6250  224.5230 H   0  0  0  0  0  0  0  0  0  0  0  0
  140.8560   81.2610  223.7450 C   0  0  0  0  0  0  0  0  0  0  0  0
  140.4059   82.1314  224.2449 H   0  0  0  0  0  0  0  0  0  0  0  0
  140.0780   80.4170  222.9420 C   0  0  0  0  0  0  0  0  0  0  0  0
  138.6030   80.4990  222.6410 C   0  0  1  0  0  0  0  0  0  0  0  0
  138.3600   79.2430  221.7380 C   0  0  0  0  0  0  0  0  0  0  0  0
  137.9393   79.5464  220.7679 H   0  0  0  0  0  0  0  0  0  0  0  0
  137.6456   78.5474  222.2025 H   0  0  0  0  0  0  0  0  0  0  0  0
  137.7700   80.5000  223.9210 C   0  0  0  0  0  0  0  0  0  0  0  0
  138.2548   79.8864  224.6946 H   0  0  0  0  0  0  0  0  0  0  0  0
  136.7685   80.0767  223.7540 H   0  0  0  0  0  0  0  0  0  0  0  0
  137.7010   81.9030  224.3490 N   0  0  0  0  0  0  0  0  0  0  0  0
  136.5280   82.1680  225.2150 C   0  0  1  0  0  0  0  0  0  0  0  0
  135.9230   82.8883  224.6449 H   0  0  0  0  0  0  0  0  0  0  0  0
  135.7630   80.8830  225.5490 C   0  0  0  0  0  0  0  0  0  0  0  0
  136.4185   80.0121  225.4013 H   0  0  0  0  0  0  0  0  0  0  0  0
  134.8872   80.7843  224.8908 H   0  0  0  0  0  0  0  0  0  0  0  0
  135.3330   80.9470  226.9520 N   0  0  0  0  0  0  0  0  0  0  0  0
  135.7800   80.1550  227.4720 H   0  0  0  0  0  0  0  0  0  0  0  0
  135.8450   82.1990  227.5020 C   0  0  0  0  0  0  0  0  0  0  0  0
  136.2525   82.0270  228.5092 H   0  0  0  0  0  0  0  0  0  0  0  0
  135.0398   82.9446  227.5779 H   0  0  0  0  0  0  0  0  0  0  0  0
  136.9410   82.6930  226.5790 C   0  0  0  0  0  0  0  0  0  0  0  0
  137.9181   82.2848  226.8769 H   0  0  0  0  0  0  0  0  0  0  0  0
  137.0531   83.7871  226.5982 H   0  0  0  0  0  0  0  0  0  0  0  0
  137.6860   82.6980  223.1040 C   0  0  0  0  0  0  0  0  0  0  0  0
  138.3173   83.5907  223.2245 H   0  0  0  0  0  0  0  0  0  0  0  0
  136.6606   83.0216  222.8718 H   0  0  0  0  0  0  0  0  0  0  0  0
  138.2330   81.8260  221.9750 C   0  0  0  0  0  0  0  0  0  0  0  0
  139.1208   82.2919  221.5225 H   0  0  0  0  0  0  0  0  0  0  0  0
  137.5002   81.6912  221.1658 H   0  0  0  0  0  0  0  0  0  0  0  0
  142.2770   76.7630  220.1720 N   0  0  0  0  0  0  0  0  0  0  0  0
  142.7840   77.5870  219.7870 H   0  0  0  0  0  0  0  0  0  0  0  0
  142.7810   75.5310  220.3520 C   0  0  0  0  0  0  0  0  0  0  0  0
  144.0880   75.1110  220.1130 C   0  0  0  0  0  0  0  0  0  0  0  0
  144.8532   75.8199  219.7638 H   0  0  0  0  0  0  0  0  0  0  0  0
  1  2  1  0
  2  3  2  0
  3  4  1  0
  4  5  1  0
  3  6  1  0
  6  7  2  0
  7  8  1  0
  7  9  1  0
  9 10  1  0
  9 11  2  0
 11 12  1  0
 12 13  1  0
 12 14  2  0
 14 15  1  0
 15 16  2  0
 15 17  1  0
 17 18  1  0
 18 19  2  0
 19 20  1  0
 19 21  1  0
 21 22  1  0
 21 23  2  0
 23 24  1  0
 23 25  1  0
 25 26  1  0
 25 27  2  0
 27 28  1  0
 28 29  1  6
 29 30  1  0
 29 31  1  0
 28 32  1  0
 32 33  1  0
 32 34  1  0
 32 35  1  0
 35 36  1  0
 36 37  1  6
 36 38  1  0
 38 39  1  0
 38 40  1  0
 38 41  1  0
 41 42  1  0
 41 43  1  0
 43 44  1  0
 43 45  1  0
 43 46  1  0
 46 47  1  0
 46 48  1  0
 35 49  1  0
 49 50  1  0
 49 51  1  0
 49 52  1  0
 52 53  1  0
 52 54  1  0
 14 55  1  0
 55 56  1  0
 55 57  1  0
 57 58  2  0
 58 59  1  0
 58  6  1  0
 57 11  1  0
 29 17  1  0
 46 36  1  0
 27 18  1  0
 52 28  1  0
M  END
>  <UniqueID>  (35) 
40

>  <SMILES>  (35) 
[H]/N=C(/O)c1ccc2cc(C(=O)N3C[C@]4(CCN([C@@H]5CCNC5)C4)c4ccccc43)[nH]c2c1

>  <Energy>  (35) 
126.72370301603527

>  <Genealogy>  (35) 
N=C(O)c1ccc2cc(C(=O)N3C[C@]4(CCN(C5CCNC5)C4)c4ccccc43)[nH]c2c1 (tautomer)
N=C(O)c1ccc2cc(C(=O)N3C[C@]4(CCN([C@@H]5CCNC5)C4)c4ccccc43)[nH]c2c1 (chirality)
[H]/N=C(/O)c1ccc2cc(C(=O)N3C[C@]4(CCN([C@@H]5CCNC5)C4)c4ccccc43)[nH]c2c1 (cis-trans isomerization)
[H]/N=C(/O)c1ccc2cc(C(=O)N3C[C@]4(CCN([C@@H]5CCNC5)C4)c4ccccc43)[nH]c2c1 (3D coordinates assigned)
[H]/N=C(/O)c1ccc2cc(C(=O)N3C[C@]4(CCN([C@@H]5CCNC5)C4)c4ccccc43)[nH]c2c1 (nonaromatic ring conformer: 126.72370301603527 kcal/mol)

>  <smiles>  (35) 
NC(=O)c1ccc2cc(C(=O)N3C[C@]4(CCN(C5CCNC5)C4)c4ccccc43)[nH]c2c1

>  <score_type>  (35) 
oracle

>  <origin>  (35) 
autodockgpu

>  <m_score__min__energy>  (35) 
-9.3800000000000008

>  <m_primary>  (35) 
energy

>  <meeko>  (35) 
{"free_energy": -9.3, "intermolecular_energy": -11.09, "internal_energy": -1.03, "cluster_size": 15, "cluster_id": 1, "rank_in_cluster": 4}

>  <energy>  (35) 
-8.6

>  <cluster_rmsd>  (35) 
1.61

>  <rmsd>  (35) 
272.03

>  <cluster>  (35) 
1

$$$$
ATTQMMYACVSETC-MLBODIKXNA-N
     RDKit          3D

 59 64  0  0  0  0  0  0  0  0999 V2000
  146.1500   71.9890  221.5700 H   0  0  0  0  0  0  0  0  0  0  0  0
  146.3350   72.8160  220.9620 N   0  0  0  0  0  0  0  0  0  0  0  0
  145.5150   73.2200  220.0420 C   0  0  0  0  0  0  0  0  0  0  0  0
  145.9480   73.2590  218.7190 O   0  0  0  0  0  0  0  0  0  0  0  0
  145.9440   74.1240  218.1920 H   0  0  0  0  0  0  0  0  0  0  0  0
  144.1240   73.6210  220.3610 C   0  0  0  0  0  0  0  0  0  0  0  0
  143.2150   72.6430  220.8420 C   0  0  0  0  0  0  0  0  0  0  0  0
  143.5542   71.6044  220.9692 H   0  0  0  0  0  0  0  0  0  0  0  0
  141.8850   72.9820  221.1590 C   0  0  0  0  0  0  0  0  0  0  0  0
  141.1826   72.2281  221.5440 H   0  0  0  0  0  0  0  0  0  0  0  0
  141.4900   74.3010  220.9690 C   0  0  0  0  0  0  0  0  0  0  0  0
  140.2640   74.9030  221.1530 C   0  0  0  0  0  0  0  0  0  0  0  0
  139.3393   74.4397  221.5274 H   0  0  0  0  0  0  0  0  0  0  0  0
  140.4520   76.2270  220.7610 C   0  0  0  0  0  0  0  0  0  0  0  0
  139.3850   77.2470  220.7190 C   0  0  0  0  0  0  0  0  0  0  0  0
  138.6280   77.2970  219.7100 O   0  0  0  0  0  0  0  0  0  0  0  0
  139.1720   78.1630  221.8060 N   0  0  0  0  0  0  0  0  0  0  0  0
  140.2120   78.8940  222.4450 C   0  0  0  0  0  0  0  0  0  0  0  0
  141.5600   78.5280  222.5330 C   0  0  0  0  0  0  0  0  0  0  0  0
  141.9199   77.5972  222.0704 H   0  0  0  0  0  0  0  0  0  0  0  0
  142.4430   79.3720  223.2230 C   0  0  0  0  0  0  0  0  0  0  0  0
  143.5080   79.1074  223.2994 H   0  0  0  0  0  0  0  0  0  0  0  0
  141.9700   80.5550  223.8170 C   0  0  0  0  0  0  0  0  0  0  0  0
  142.6669   81.2166  224.3523 H   0  0  0  0  0  0  0  0  0  0  0  0
  140.6120   80.8940  223.7290 C   0  0  0  0  0  0  0  0  0  0  0  0
  140.2340   81.8171  224.1928 H   0  0  0  0  0  0  0  0  0  0  0  0
  139.7460   80.0360  223.0400 C   0  0  0  0  0  0  0  0  0  0  0  0
  138.2590   80.1670  222.8280 C   0  0  1  0  0  0  0  0  0  0  0  0
  137.9020   78.8660  222.0340 C   0  0  0  0  0  0  0  0  0  0  0  0
  137.4305   79.1226  221.0738 H   0  0  0  0  0  0  0  0  0  0  0  0
  137.1912   78.2385  222.5917 H   0  0  0  0  0  0  0  0  0  0  0  0
  137.5140   80.2950  224.1550 C   0  0  0  0  0  0  0  0  0  0  0  0
  138.0225   79.7132  224.9379 H   0  0  0  0  0  0  0  0  0  0  0  0
  136.4863   79.9095  224.0823 H   0  0  0  0  0  0  0  0  0  0  0  0
  137.5340   81.7260  224.4860 N   0  0  0  0  0  0  0  0  0  0  0  0
  136.4340   82.1040  225.4030 C   0  0  1  0  0  0  0  0  0  0  0  0
  135.9310   82.9411  224.8968 H   0  0  0  0  0  0  0  0  0  0  0  0
  135.4920   80.9280  225.6830 C   0  0  0  0  0  0  0  0  0  0  0  0
  136.0053   79.9808  225.4610 H   0  0  0  0  0  0  0  0  0  0  0  0
  134.5962   81.0043  225.0492 H   0  0  0  0  0  0  0  0  0  0  0  0
  135.1090   80.9630  227.1000 N   0  0  0  0  0  0  0  0  0  0  0  0
  135.4440   80.0820  227.5560 H   0  0  0  0  0  0  0  0  0  0  0  0
  135.8160   82.0870  227.7080 C   0  0  0  0  0  0  0  0  0  0  0  0
  136.2158   81.7914  228.6892 H   0  0  0  0  0  0  0  0  0  0  0  0
  135.1336   82.9373  227.8543 H   0  0  0  0  0  0  0  0  0  0  0  0
  136.9520   82.4720  226.7830 C   0  0  0  0  0  0  0  0  0  0  0  0
  137.8632   81.9049  227.0239 H   0  0  0  0  0  0  0  0  0  0  0  0
  137.2274   83.5338  226.8655 H   0  0  0  0  0  0  0  0  0  0  0  0
  137.4700   82.4340  223.1910 C   0  0  0  0  0  0  0  0  0  0  0  0
  138.1459   83.3017  223.2071 H   0  0  0  0  0  0  0  0  0  0  0  0
  136.4463   82.7895  223.0023 H   0  0  0  0  0  0  0  0  0  0  0  0
  137.9020   81.4620  222.0940 C   0  0  0  0  0  0  0  0  0  0  0  0
  138.7764   81.8534  221.5534 H   0  0  0  0  0  0  0  0  0  0  0  0
  137.1113   81.3072  221.3451 H   0  0  0  0  0  0  0  0  0  0  0  0
  141.7290   76.4320  220.3400 N   0  0  0  0  0  0  0  0  0  0  0  0
  142.1380   77.2980  219.9330 H   0  0  0  0  0  0  0  0  0  0  0  0
  142.3500   75.2500  220.4830 C   0  0  0  0  0  0  0  0  0  0  0  0
  143.6740   74.9490  220.1700 C   0  0  0  0  0  0  0  0  0  0  0  0
  144.3524   75.7242  219.7841 H   0  0  0  0  0  0  0  0  0  0  0  0
  1  2  1  0
  2  3  2  0
  3  4  1  0
  4  5  1  0
  3  6  1  0
  6  7  2  0
  7  8  1  0
  7  9  1  0
  9 10  1  0
  9 11  2  0
 11 12  1  0
 12 13  1  0
 12 14  2  0
 14 15  1  0
 15 16  2  0
 15 17  1  0
 17 18  1  0
 18 19  2  0
 19 20  1  0
 19 21  1  0
 21 22  1  0
 21 23  2  0
 23 24  1  0
 23 25  1  0
 25 26  1  0
 25 27  2  0
 27 28  1  0
 28 29  1  6
 29 30  1  0
 29 31  1  0
 28 32  1  0
 32 33  1  0
 32 34  1  0
 32 35  1  0
 35 36  1  0
 36 37  1  6
 36 38  1  0
 38 39  1  0
 38 40  1  0
 38 41  1  0
 41 42  1  0
 41 43  1  0
 43 44  1  0
 43 45  1  0
 43 46  1  0
 46 47  1  0
 46 48  1  0
 35 49  1  0
 49 50  1  0
 49 51  1  0
 49 52  1  0
 52 53  1  0
 52 54  1  0
 14 55  1  0
 55 56  1  0
 55 57  1  0
 57 58  2  0
 58 59  1  0
 58  6  1  0
 57 11  1  0
 29 17  1  0
 46 36  1  0
 27 18  1  0
 52 28  1  0
M  END
>  <UniqueID>  (36) 
40

>  <SMILES>  (36) 
[H]/N=C(/O)c1ccc2cc(C(=O)N3C[C@]4(CCN([C@@H]5CCNC5)C4)c4ccccc43)[nH]c2c1

>  <Energy>  (36) 
126.72370301603527

>  <Genealogy>  (36) 
N=C(O)c1ccc2cc(C(=O)N3C[C@]4(CCN(C5CCNC5)C4)c4ccccc43)[nH]c2c1 (tautomer)
N=C(O)c1ccc2cc(C(=O)N3C[C@]4(CCN([C@@H]5CCNC5)C4)c4ccccc43)[nH]c2c1 (chirality)
[H]/N=C(/O)c1ccc2cc(C(=O)N3C[C@]4(CCN([C@@H]5CCNC5)C4)c4ccccc43)[nH]c2c1 (cis-trans isomerization)
[H]/N=C(/O)c1ccc2cc(C(=O)N3C[C@]4(CCN([C@@H]5CCNC5)C4)c4ccccc43)[nH]c2c1 (3D coordinates assigned)
[H]/N=C(/O)c1ccc2cc(C(=O)N3C[C@]4(CCN([C@@H]5CCNC5)C4)c4ccccc43)[nH]c2c1 (nonaromatic ring conformer: 126.72370301603527 kcal/mol)

>  <smiles>  (36) 
NC(=O)c1ccc2cc(C(=O)N3C[C@]4(CCN(C5CCNC5)C4)c4ccccc43)[nH]c2c1

>  <score_type>  (36) 
oracle

>  <origin>  (36) 
autodockgpu

>  <m_score__min__energy>  (36) 
-9.3800000000000008

>  <m_primary>  (36) 
energy

>  <meeko>  (36) 
{"free_energy": -9.32, "intermolecular_energy": -11.11, "internal_energy": -1.0, "cluster_size": 15, "cluster_id": 1, "rank_in_cluster": 3}

>  <energy>  (36) 
-8.31

>  <cluster_rmsd>  (36) 
0.0

>  <rmsd>  (36) 
271.09

>  <cluster>  (36) 
2

$$$$
ATTQMMYACVSETC-MLBODIKXNA-N
     RDKit          3D

 59 64  0  0  0  0  0  0  0  0999 V2000
  145.5690   71.7660  221.1140 H   0  0  0  0  0  0  0  0  0  0  0  0
  145.7170   72.7870  220.9590 N   0  0  0  0  0  0  0  0  0  0  0  0
  145.3000   73.4150  219.9040 C   0  0  0  0  0  0  0  0  0  0  0  0
  145.9710   73.2320  218.6980 O   0  0  0  0  0  0  0  0  0  0  0  0
  146.2650   74.0220  218.1370 H   0  0  0  0  0  0  0  0  0  0  0  0
  144.1150   74.3050  219.9460 C   0  0  0  0  0  0  0  0  0  0  0  0
  144.0500   75.4130  219.0620 C   0  0  0  0  0  0  0  0  0  0  0  0
  144.8784   75.5964  218.3619 H   0  0  0  0  0  0  0  0  0  0  0  0
  142.9410   76.2820  219.0670 C   0  0  0  0  0  0  0  0  0  0  0  0
  142.8829   77.1336  218.3732 H   0  0  0  0  0  0  0  0  0  0  0  0
  141.9230   76.0270  219.9780 C   0  0  0  0  0  0  0  0  0  0  0  0
  140.7580   76.7160  220.2320 C   0  0  0  0  0  0  0  0  0  0  0  0
  140.3869   77.6166  219.7209 H   0  0  0  0  0  0  0  0  0  0  0  0
  140.1520   76.0230  221.2780 C   0  0  0  0  0  0  0  0  0  0  0  0
  138.8980   76.4360  221.9420 C   0  0  0  0  0  0  0  0  0  0  0  0
  137.8870   75.6860  221.8560 O   0  0  0  0  0  0  0  0  0  0  0  0
  138.8110   77.6540  222.7000 N   0  0  0  0  0  0  0  0  0  0  0  0
  139.9240   78.4880  222.9950 C   0  0  0  0  0  0  0  0  0  0  0  0
  141.2640   78.0940  223.0890 C   0  0  0  0  0  0  0  0  0  0  0  0
  141.5543   77.0473  222.9153 H   0  0  0  0  0  0  0  0  0  0  0  0
  142.2290   79.0600  223.4090 C   0  0  0  0  0  0  0  0  0  0  0  0
  143.2886   78.7737  223.4818 H   0  0  0  0  0  0  0  0  0  0  0  0
  141.8460   80.3930  223.6370 C   0  0  0  0  0  0  0  0  0  0  0  0
  142.6073   81.1482  223.8819 H   0  0  0  0  0  0  0  0  0  0  0  0
  140.4950   80.7630  223.5530 C   0  0  0  0  0  0  0  0  0  0  0  0
  140.1868   81.8035  223.7326 H   0  0  0  0  0  0  0  0  0  0  0  0
  139.5460   79.7820  223.2360 C   0  0  0  0  0  0  0  0  0  0  0  0
  138.0510   79.9230  223.1100 C   0  0  1  0  0  0  0  0  0  0  0  0
  137.5870   78.4620  222.7940 C   0  0  0  0  0  0  0  0  0  0  0  0
  137.0376   78.4341  221.8414 H   0  0  0  0  0  0  0  0  0  0  0  0
  136.9125   78.0783  223.5736 H   0  0  0  0  0  0  0  0  0  0  0  0
  137.4340   80.4970  224.3830 C   0  0  0  0  0  0  0  0  0  0  0  0
  137.9954   80.1596  225.2668 H   0  0  0  0  0  0  0  0  0  0  0  0
  136.3936   80.1650  224.5143 H   0  0  0  0  0  0  0  0  0  0  0  0
  137.5230   81.9560  224.2470 N   0  0  0  0  0  0  0  0  0  0  0  0
  136.5220   82.6600  225.0820 C   0  0  1  0  0  0  0  0  0  0  0  0
  135.5586   82.2198  224.7851 H   0  0  0  0  0  0  0  0  0  0  0  0
  136.8130   82.5000  226.5780 C   0  0  0  0  0  0  0  0  0  0  0  0
  137.8686   82.2271  226.7236 H   0  0  0  0  0  0  0  0  0  0  0  0
  136.1796   81.7072  227.0025 H   0  0  0  0  0  0  0  0  0  0  0  0
  136.5350   83.7780  227.2460 N   0  0  0  0  0  0  0  0  0  0  0  0
  137.4230   84.1260  227.6790 H   0  0  0  0  0  0  0  0  0  0  0  0
  136.1310   84.7260  226.2110 C   0  0  0  0  0  0  0  0  0  0  0  0
  136.6131   85.6993  226.3852 H   0  0  0  0  0  0  0  0  0  0  0  0
  135.0410   84.8734  226.2267 H   0  0  0  0  0  0  0  0  0  0  0  0
  136.5720   84.1630  224.8760 C   0  0  0  0  0  0  0  0  0  0  0  0
  137.5928   84.4910  224.6304 H   0  0  0  0  0  0  0  0  0  0  0  0
  135.9379   84.4992  224.0424 H   0  0  0  0  0  0  0  0  0  0  0  0
  137.3620   82.2310  222.8050 C   0  0  0  0  0  0  0  0  0  0  0  0
  138.0606   83.0227  222.4965 H   0  0  0  0  0  0  0  0  0  0  0  0
  136.3358   82.5663  222.5941 H   0  0  0  0  0  0  0  0  0  0  0  0
  137.6660   80.9440  222.0370 C   0  0  0  0  0  0  0  0  0  0  0  0
  138.4988   81.1001  221.3355 H   0  0  0  0  0  0  0  0  0  0  0  0
  136.8071   80.6085  221.4372 H   0  0  0  0  0  0  0  0  0  0  0  0
  140.9120   74.9630  221.6630 N   0  0  0  0  0  0  0  0  0  0  0  0
  140.7450   74.3090  222.4550 H   0  0  0  0  0  0  0  0  0  0  0  0
  141.9830   74.9750  220.8530 C   0  0  0  0  0  0  0  0  0  0  0  0
  143.0610   74.0920  220.8670 C   0  0  0  0  0  0  0  0  0  0  0  0
  143.0922   73.2511  221.5755 H   0  0  0  0  0  0  0  0  0  0  0  0
  1  2  1  0
  2  3  2  0
  3  4  1  0
  4  5  1  0
  3  6  1  0
  6  7  2  0
  7  8  1  0
  7  9  1  0
  9 10  1  0
  9 11  2  0
 11 12  1  0
 12 13  1  0
 12 14  2  0
 14 15  1  0
 15 16  2  0
 15 17  1  0
 17 18  1  0
 18 19  2  0
 19 20  1  0
 19 21  1  0
 21 22  1  0
 21 23  2  0
 23 24  1  0
 23 25  1  0
 25 26  1  0
 25 27  2  0
 27 28  1  0
 28 29  1  6
 29 30  1  0
 29 31  1  0
 28 32  1  0
 32 33  1  0
 32 34  1  0
 32 35  1  0
 35 36  1  0
 36 37  1  1
 36 38  1  0
 38 39  1  0
 38 40  1  0
 38 41  1  0
 41 42  1  0
 41 43  1  0
 43 44  1  0
 43 45  1  0
 43 46  1  0
 46 47  1  0
 46 48  1  0
 35 49  1  0
 49 50  1  0
 49 51  1  0
 49 52  1  0
 52 53  1  0
 52 54  1  0
 14 55  1  0
 55 56  1  0
 55 57  1  0
 57 58  2  0
 58 59  1  0
 58  6  1  0
 57 11  1  0
 29 17  1  0
 46 36  1  0
 27 18  1  0
 52 28  1  0
M  END
>  <UniqueID>  (37) 
40

>  <SMILES>  (37) 
[H]/N=C(/O)c1ccc2cc(C(=O)N3C[C@]4(CCN([C@@H]5CCNC5)C4)c4ccccc43)[nH]c2c1

>  <Energy>  (37) 
126.72370301603527

>  <Genealogy>  (37) 
N=C(O)c1ccc2cc(C(=O)N3C[C@]4(CCN(C5CCNC5)C4)c4ccccc43)[nH]c2c1 (tautomer)
N=C(O)c1ccc2cc(C(=O)N3C[C@]4(CCN([C@@H]5CCNC5)C4)c4ccccc43)[nH]c2c1 (chirality)
[H]/N=C(/O)c1ccc2cc(C(=O)N3C[C@]4(CCN([C@@H]5CCNC5)C4)c4ccccc43)[nH]c2c1 (cis-trans isomerization)
[H]/N=C(/O)c1ccc2cc(C(=O)N3C[C@]4(CCN([C@@H]5CCNC5)C4)c4ccccc43)[nH]c2c1 (3D coordinates assigned)
[H]/N=C(/O)c1ccc2cc(C(=O)N3C[C@]4(CCN([C@@H]5CCNC5)C4)c4ccccc43)[nH]c2c1 (nonaromatic ring conformer: 126.72370301603527 kcal/mol)

>  <smiles>  (37) 
NC(=O)c1ccc2cc(C(=O)N3C[C@]4(CCN(C5CCNC5)C4)c4ccccc43)[nH]c2c1

>  <score_type>  (37) 
oracle

>  <origin>  (37) 
autodockgpu

>  <m_score__min__energy>  (37) 
-9.3800000000000008

>  <m_primary>  (37) 
energy

>  <meeko>  (37) 
{"free_energy": -8.97, "intermolecular_energy": -10.76, "internal_energy": -1.03, "cluster_size": 15, "cluster_id": 1, "rank_in_cluster": 9}

>  <energy>  (37) 
-8.17

>  <cluster_rmsd>  (37) 
0.0

>  <rmsd>  (37) 
271.84

>  <cluster>  (37) 
3

$$$$
ATTQMMYACVSETC-MLBODIKXNA-N
     RDKit          3D

 59 64  0  0  0  0  0  0  0  0999 V2000
  146.8030   74.8450  219.8300 H   0  0  0  0  0  0  0  0  0  0  0  0
  146.5200   74.0570  220.4530 N   0  0  0  0  0  0  0  0  0  0  0  0
  145.5520   73.2420  220.1720 C   0  0  0  0  0  0  0  0  0  0  0  0
  145.8490   72.0140  219.5850 O   0  0  0  0  0  0  0  0  0  0  0  0
  145.9430   71.1750  220.1430 H   0  0  0  0  0  0  0  0  0  0  0  0
  144.1410   73.5740  220.4800 C   0  0  0  0  0  0  0  0  0  0  0  0
  143.2650   72.5440  220.9110 C   0  0  0  0  0  0  0  0  0  0  0  0
  143.6446   71.5162  221.0085 H   0  0  0  0  0  0  0  0  0  0  0  0
  141.9170   72.8170  221.2160 C   0  0  0  0  0  0  0  0  0  0  0  0
  141.2401   72.0219  221.5620 H   0  0  0  0  0  0  0  0  0  0  0  0
  141.4710   74.1250  221.0650 C   0  0  0  0  0  0  0  0  0  0  0  0
  140.2190   74.6690  221.2480 C   0  0  0  0  0  0  0  0  0  0  0  0
  139.3083   74.1551  221.5895 H   0  0  0  0  0  0  0  0  0  0  0  0
  140.3580   76.0130  220.9060 C   0  0  0  0  0  0  0  0  0  0  0  0
  139.2510   76.9900  220.8800 C   0  0  0  0  0  0  0  0  0  0  0  0
  138.4370   76.9640  219.9160 O   0  0  0  0  0  0  0  0  0  0  0  0
  139.0640   77.9470  221.9360 N   0  0  0  0  0  0  0  0  0  0  0  0
  140.1210   78.6800  222.5410 C   0  0  0  0  0  0  0  0  0  0  0  0
  141.4630   78.2910  222.6330 C   0  0  0  0  0  0  0  0  0  0  0  0
  141.8022   77.3376  222.2017 H   0  0  0  0  0  0  0  0  0  0  0  0
  142.3660   79.1430  223.2870 C   0  0  0  0  0  0  0  0  0  0  0  0
  143.4264   78.8613  223.3653 H   0  0  0  0  0  0  0  0  0  0  0  0
  141.9210   80.3540  223.8420 C   0  0  0  0  0  0  0  0  0  0  0  0
  142.6347   81.0204  224.3485 H   0  0  0  0  0  0  0  0  0  0  0  0
  140.5680   80.7160  223.7520 C   0  0  0  0  0  0  0  0  0  0  0  0
  140.2107   81.6612  224.1868 H   0  0  0  0  0  0  0  0  0  0  0  0
  139.6810   79.8510  223.0980 C   0  0  0  0  0  0  0  0  0  0  0  0
  138.1960   80.0030  222.8920 C   0  0  1  0  0  0  0  0  0  0  0  0
  137.8080   78.6810  222.1470 C   0  0  0  0  0  0  0  0  0  0  0  0
  137.3343   78.9121  221.1815 H   0  0  0  0  0  0  0  0  0  0  0  0
  137.0893   78.0873  222.7310 H   0  0  0  0  0  0  0  0  0  0  0  0
  137.4640   80.1920  224.2190 C   0  0  0  0  0  0  0  0  0  0  0  0
  137.9681   79.6292  225.0184 H   0  0  0  0  0  0  0  0  0  0  0  0
  136.4290   79.8232  224.1673 H   0  0  0  0  0  0  0  0  0  0  0  0
  137.5120   81.6330  224.4990 N   0  0  0  0  0  0  0  0  0  0  0  0
  136.4270   82.0640  225.4110 C   0  0  1  0  0  0  0  0  0  0  0  0
  135.9556   82.9127  224.8937 H   0  0  0  0  0  0  0  0  0  0  0  0
  135.4430   80.9270  225.7060 C   0  0  0  0  0  0  0  0  0  0  0  0
  135.9218   79.9588  225.4979 H   0  0  0  0  0  0  0  0  0  0  0  0
  134.5511   81.0265  225.0700 H   0  0  0  0  0  0  0  0  0  0  0  0
  135.0610   80.9960  227.1210 N   0  0  0  0  0  0  0  0  0  0  0  0
  135.3630   80.1090  227.5910 H   0  0  0  0  0  0  0  0  0  0  0  0
  135.8080   82.1020  227.7150 C   0  0  0  0  0  0  0  0  0  0  0  0
  136.1963   81.8057  228.7006 H   0  0  0  0  0  0  0  0  0  0  0  0
  135.1575   82.9787  227.8501 H   0  0  0  0  0  0  0  0  0  0  0  0
  136.9570   82.4310  226.7850 C   0  0  0  0  0  0  0  0  0  0  0  0
  137.8464   81.8337  227.0344 H   0  0  0  0  0  0  0  0  0  0  0  0
  137.2713   83.4830  226.8527 H   0  0  0  0  0  0  0  0  0  0  0  0
  137.4520   82.2960  223.1810 C   0  0  0  0  0  0  0  0  0  0  0  0
  138.1441   83.1508  223.1622 H   0  0  0  0  0  0  0  0  0  0  0  0
  136.4338   82.6640  222.9866 H   0  0  0  0  0  0  0  0  0  0  0  0
  137.8580   81.2780  222.1160 C   0  0  0  0  0  0  0  0  0  0  0  0
  138.7357   81.6337  221.5564 H   0  0  0  0  0  0  0  0  0  0  0  0
  137.0590   81.1121  221.3784 H   0  0  0  0  0  0  0  0  0  0  0  0
  141.6320   76.2850  220.5150 N   0  0  0  0  0  0  0  0  0  0  0  0
  142.0110   77.1800  220.1450 H   0  0  0  0  0  0  0  0  0  0  0  0
  142.2990   75.1240  220.6280 C   0  0  0  0  0  0  0  0  0  0  0  0
  143.6390   74.8890  220.3270 C   0  0  0  0  0  0  0  0  0  0  0  0
  144.2903   75.7044  219.9793 H   0  0  0  0  0  0  0  0  0  0  0  0
  1  2  1  0
  2  3  2  0
  3  4  1  0
  4  5  1  0
  3  6  1  0
  6  7  2  0
  7  8  1  0
  7  9  1  0
  9 10  1  0
  9 11  2  0
 11 12  1  0
 12 13  1  0
 12 14  2  0
 14 15  1  0
 15 16  2  0
 15 17  1  0
 17 18  1  0
 18 19  2  0
 19 20  1  0
 19 21  1  0
 21 22  1  0
 21 23  2  0
 23 24  1  0
 23 25  1  0
 25 26  1  0
 25 27  2  0
 27 28  1  0
 28 29  1  6
 29 30  1  0
 29 31  1  0
 28 32  1  0
 32 33  1  0
 32 34  1  0
 32 35  1  0
 35 36  1  0
 36 37  1  6
 36 38  1  0
 38 39  1  0
 38 40  1  0
 38 41  1  0
 41 42  1  0
 41 43  1  0
 43 44  1  0
 43 45  1  0
 43 46  1  0
 46 47  1  0
 46 48  1  0
 35 49  1  0
 49 50  1  0
 49 51  1  0
 49 52  1  0
 52 53  1  0
 52 54  1  0
 14 55  1  0
 55 56  1  0
 55 57  1  0
 57 58  2  0
 58 59  1  0
 58  6  1  0
 57 11  1  0
 29 17  1  0
 46 36  1  0
 27 18  1  0
 52 28  1  0
M  END
>  <UniqueID>  (38) 
40

>  <SMILES>  (38) 
[H]/N=C(/O)c1ccc2cc(C(=O)N3C[C@]4(CCN([C@@H]5CCNC5)C4)c4ccccc43)[nH]c2c1

>  <Energy>  (38) 
126.72370301603527

>  <Genealogy>  (38) 
N=C(O)c1ccc2cc(C(=O)N3C[C@]4(CCN(C5CCNC5)C4)c4ccccc43)[nH]c2c1 (tautomer)
N=C(O)c1ccc2cc(C(=O)N3C[C@]4(CCN([C@@H]5CCNC5)C4)c4ccccc43)[nH]c2c1 (chirality)
[H]/N=C(/O)c1ccc2cc(C(=O)N3C[C@]4(CCN([C@@H]5CCNC5)C4)c4ccccc43)[nH]c2c1 (cis-trans isomerization)
[H]/N=C(/O)c1ccc2cc(C(=O)N3C[C@]4(CCN([C@@H]5CCNC5)C4)c4ccccc43)[nH]c2c1 (3D coordinates assigned)
[H]/N=C(/O)c1ccc2cc(C(=O)N3C[C@]4(CCN([C@@H]5CCNC5)C4)c4ccccc43)[nH]c2c1 (nonaromatic ring conformer: 126.72370301603527 kcal/mol)

>  <smiles>  (38) 
NC(=O)c1ccc2cc(C(=O)N3C[C@]4(CCN(C5CCNC5)C4)c4ccccc43)[nH]c2c1

>  <score_type>  (38) 
oracle

>  <origin>  (38) 
autodockgpu

>  <m_score__min__energy>  (38) 
-9.3800000000000008

>  <m_primary>  (38) 
energy

>  <meeko>  (38) 
{"free_energy": -8.73, "intermolecular_energy": -10.52, "internal_energy": -0.97, "cluster_size": 15, "cluster_id": 1, "rank_in_cluster": 14}

>  <energy>  (38) 
-8.13

>  <cluster_rmsd>  (38) 
0.16

>  <rmsd>  (38) 
271.83

>  <cluster>  (38) 
3

$$$$
ATTQMMYACVSETC-MLBODIKXNA-N
     RDKit          3D

 59 64  0  0  0  0  0  0  0  0999 V2000
  145.2170   71.8610  221.2210 H   0  0  0  0  0  0  0  0  0  0  0  0
  145.6760   72.7450  220.9090 N   0  0  0  0  0  0  0  0  0  0  0  0
  145.2870   73.4220  219.8750 C   0  0  0  0  0  0  0  0  0  0  0  0
  145.9950   73.3010  218.6810 O   0  0  0  0  0  0  0  0  0  0  0  0
  146.2090   74.1130  218.1150 H   0  0  0  0  0  0  0  0  0  0  0  0
  144.0970   74.3050  219.9250 C   0  0  0  0  0  0  0  0  0  0  0  0
  144.0210   75.4140  219.0430 C   0  0  0  0  0  0  0  0  0  0  0  0
  144.8446   75.6030  218.3388 H   0  0  0  0  0  0  0  0  0  0  0  0
  142.9070   76.2770  219.0550 C   0  0  0  0  0  0  0  0  0  0  0  0
  142.8402   77.1293  218.3629 H   0  0  0  0  0  0  0  0  0  0  0  0
  141.8950   76.0140  219.9720 C   0  0  0  0  0  0  0  0  0  0  0  0
  140.7270   76.6960  220.2330 C   0  0  0  0  0  0  0  0  0  0  0  0
  140.3477   77.5948  219.7248 H   0  0  0  0  0  0  0  0  0  0  0  0
  140.1310   75.9980  221.2820 C   0  0  0  0  0  0  0  0  0  0  0  0
  138.8790   76.4030  221.9530 C   0  0  0  0  0  0  0  0  0  0  0  0
  137.8700   75.6490  221.8690 O   0  0  0  0  0  0  0  0  0  0  0  0
  138.7910   77.6160  222.7180 N   0  0  0  0  0  0  0  0  0  0  0  0
  139.9060   78.4390  223.0370 C   0  0  0  0  0  0  0  0  0  0  0  0
  141.2410   78.0310  223.1500 C   0  0  0  0  0  0  0  0  0  0  0  0
  141.5247   76.9830  222.9735 H   0  0  0  0  0  0  0  0  0  0  0  0
  142.2090   78.9870  223.4930 C   0  0  0  0  0  0  0  0  0  0  0  0
  143.2646   78.6906  223.5821 H   0  0  0  0  0  0  0  0  0  0  0  0
  141.8350   80.3210  223.7230 C   0  0  0  0  0  0  0  0  0  0  0  0
  142.5991   81.0675  223.9854 H   0  0  0  0  0  0  0  0  0  0  0  0
  140.4890   80.7040  223.6190 C   0  0  0  0  0  0  0  0  0  0  0  0
  140.1876   81.7464  223.7995 H   0  0  0  0  0  0  0  0  0  0  0  0
  139.5360   79.7340  223.2810 C   0  0  0  0  0  0  0  0  0  0  0  0
  138.0450   79.8900  223.1300 C   0  0  1  0  0  0  0  0  0  0  0  0
  137.5730   78.4340  222.7970 C   0  0  0  0  0  0  0  0  0  0  0  0
  137.0391   78.4168  221.8354 H   0  0  0  0  0  0  0  0  0  0  0  0
  136.8824   78.0515  223.5630 H   0  0  0  0  0  0  0  0  0  0  0  0
  137.4110   80.4600  224.3970 C   0  0  0  0  0  0  0  0  0  0  0  0
  137.9536   80.1109  225.2879 H   0  0  0  0  0  0  0  0  0  0  0  0
  136.3655   80.1368  224.5088 H   0  0  0  0  0  0  0  0  0  0  0  0
  137.5170   81.9200  224.2720 N   0  0  0  0  0  0  0  0  0  0  0  0
  136.5080   82.6270  225.0950 C   0  0  1  0  0  0  0  0  0  0  0  0
  135.5495   82.1712  224.8060 H   0  0  0  0  0  0  0  0  0  0  0  0
  136.8000   82.4960  226.5940 C   0  0  0  0  0  0  0  0  0  0  0  0
  137.8583   82.2364  226.7445 H   0  0  0  0  0  0  0  0  0  0  0  0
  136.1742   81.7044  227.0319 H   0  0  0  0  0  0  0  0  0  0  0  0
  136.5090   83.7820  227.2400 N   0  0  0  0  0  0  0  0  0  0  0  0
  137.3930   84.1460  227.6670 H   0  0  0  0  0  0  0  0  0  0  0  0
  136.0950   84.7080  226.1890 C   0  0  0  0  0  0  0  0  0  0  0  0
  136.5663   85.6893  226.3468 H   0  0  0  0  0  0  0  0  0  0  0  0
  135.0035   84.8437  226.2020 H   0  0  0  0  0  0  0  0  0  0  0  0
  136.5430   84.1270  224.8630 C   0  0  0  0  0  0  0  0  0  0  0  0
  137.5606   84.4612  224.6124 H   0  0  0  0  0  0  0  0  0  0  0  0
  135.9065   84.4427  224.0233 H   0  0  0  0  0  0  0  0  0  0  0  0
  137.3820   82.2050  222.8290 C   0  0  0  0  0  0  0  0  0  0  0  0
  138.0924   82.9924  222.5369 H   0  0  0  0  0  0  0  0  0  0  0  0
  136.3622   82.5503  222.6037 H   0  0  0  0  0  0  0  0  0  0  0  0
  137.6870   80.9210  222.0580 C   0  0  0  0  0  0  0  0  0  0  0  0
  138.5326   81.0741  221.3714 H   0  0  0  0  0  0  0  0  0  0  0  0
  136.8352   80.5972  221.4419 H   0  0  0  0  0  0  0  0  0  0  0  0
  140.9000   74.9420  221.6610 N   0  0  0  0  0  0  0  0  0  0  0  0
  140.7410   74.2850  222.4520 H   0  0  0  0  0  0  0  0  0  0  0  0
  141.9660   74.9610  220.8450 C   0  0  0  0  0  0  0  0  0  0  0  0
  143.0490   74.0840  220.8510 C   0  0  0  0  0  0  0  0  0  0  0  0
  143.0886   73.2415  221.5572 H   0  0  0  0  0  0  0  0  0  0  0  0
  1  2  1  0
  2  3  2  0
  3  4  1  0
  4  5  1  0
  3  6  1  0
  6  7  2  0
  7  8  1  0
  7  9  1  0
  9 10  1  0
  9 11  2  0
 11 12  1  0
 12 13  1  0
 12 14  2  0
 14 15  1  0
 15 16  2  0
 15 17  1  0
 17 18  1  0
 18 19  2  0
 19 20  1  0
 19 21  1  0
 21 22  1  0
 21 23  2  0
 23 24  1  0
 23 25  1  0
 25 26  1  0
 25 27  2  0
 27 28  1  0
 28 29  1  6
 29 30  1  0
 29 31  1  0
 28 32  1  0
 32 33  1  0
 32 34  1  0
 32 35  1  0
 35 36  1  0
 36 37  1  1
 36 38  1  0
 38 39  1  0
 38 40  1  0
 38 41  1  0
 41 42  1  0
 41 43  1  0
 43 44  1  0
 43 45  1  0
 43 46  1  0
 46 47  1  0
 46 48  1  0
 35 49  1  0
 49 50  1  0
 49 51  1  0
 49 52  1  0
 52 53  1  0
 52 54  1  0
 14 55  1  0
 55 56  1  0
 55 57  1  0
 57 58  2  0
 58 59  1  0
 58  6  1  0
 57 11  1  0
 29 17  1  0
 46 36  1  0
 27 18  1  0
 52 28  1  0
M  END
>  <UniqueID>  (39) 
40

>  <SMILES>  (39) 
[H]/N=C(/O)c1ccc2cc(C(=O)N3C[C@]4(CCN([C@@H]5CCNC5)C4)c4ccccc43)[nH]c2c1

>  <Energy>  (39) 
126.72370301603527

>  <Genealogy>  (39) 
N=C(O)c1ccc2cc(C(=O)N3C[C@]4(CCN(C5CCNC5)C4)c4ccccc43)[nH]c2c1 (tautomer)
N=C(O)c1ccc2cc(C(=O)N3C[C@]4(CCN([C@@H]5CCNC5)C4)c4ccccc43)[nH]c2c1 (chirality)
[H]/N=C(/O)c1ccc2cc(C(=O)N3C[C@]4(CCN([C@@H]5CCNC5)C4)c4ccccc43)[nH]c2c1 (cis-trans isomerization)
[H]/N=C(/O)c1ccc2cc(C(=O)N3C[C@]4(CCN([C@@H]5CCNC5)C4)c4ccccc43)[nH]c2c1 (3D coordinates assigned)
[H]/N=C(/O)c1ccc2cc(C(=O)N3C[C@]4(CCN([C@@H]5CCNC5)C4)c4ccccc43)[nH]c2c1 (nonaromatic ring conformer: 126.72370301603527 kcal/mol)

>  <smiles>  (39) 
NC(=O)c1ccc2cc(C(=O)N3C[C@]4(CCN(C5CCNC5)C4)c4ccccc43)[nH]c2c1

>  <score_type>  (39) 
oracle

>  <origin>  (39) 
autodockgpu

>  <m_score__min__energy>  (39) 
-9.3800000000000008

>  <m_primary>  (39) 
energy

>  <meeko>  (39) 
{"free_energy": -8.95, "intermolecular_energy": -10.74, "internal_energy": -1.05, "cluster_size": 15, "cluster_id": 1, "rank_in_cluster": 12}

>  <energy>  (39) 
-8.09

>  <cluster_rmsd>  (39) 
0.0

>  <rmsd>  (39) 
271.68

>  <cluster>  (39) 
4

$$$$
ATTQMMYACVSETC-MLBODIKXNA-N
     RDKit          3D

 59 64  0  0  0  0  0  0  0  0999 V2000
  145.7990   74.2520  218.0000 H   0  0  0  0  0  0  0  0  0  0  0  0
  145.9460   73.2500  218.2490 N   0  0  0  0  0  0  0  0  0  0  0  0
  145.5360   72.7250  219.3620 C   0  0  0  0  0  0  0  0  0  0  0  0
  146.3530   71.8080  220.0190 O   0  0  0  0  0  0  0  0  0  0  0  0
  146.1690   71.5350  220.9760 H   0  0  0  0  0  0  0  0  0  0  0  0
  144.2310   73.0920  219.9610 C   0  0  0  0  0  0  0  0  0  0  0  0
  143.3450   72.0640  220.3720 C   0  0  0  0  0  0  0  0  0  0  0  0
  143.6375   71.0120  220.2390 H   0  0  0  0  0  0  0  0  0  0  0  0
  142.0960   72.3690  220.9480 C   0  0  0  0  0  0  0  0  0  0  0  0
  141.4127   71.5727  221.2783 H   0  0  0  0  0  0  0  0  0  0  0  0
  141.7560   73.7100  221.0850 C   0  0  0  0  0  0  0  0  0  0  0  0
  140.6070   74.2950  221.5690 C   0  0  0  0  0  0  0  0  0  0  0  0
  139.7203   73.7911  221.9812 H   0  0  0  0  0  0  0  0  0  0  0  0
  140.8140   75.6660  221.4220 C   0  0  0  0  0  0  0  0  0  0  0  0
  139.8130   76.7030  221.7450 C   0  0  0  0  0  0  0  0  0  0  0  0
  138.7200   76.3530  222.2700 O   0  0  0  0  0  0  0  0  0  0  0  0
  140.0650   78.0970  221.5010 N   0  0  0  0  0  0  0  0  0  0  0  0
  140.9530   78.8930  222.2750 C   0  0  0  0  0  0  0  0  0  0  0  0
  141.3140   78.6840  223.6120 C   0  0  0  0  0  0  0  0  0  0  0  0
  140.9142   77.8273  224.1742 H   0  0  0  0  0  0  0  0  0  0  0  0
  142.1960   79.5900  224.2190 C   0  0  0  0  0  0  0  0  0  0  0  0
  142.4983   79.4423  225.2663 H   0  0  0  0  0  0  0  0  0  0  0  0
  142.6950   80.6860  223.4940 C   0  0  0  0  0  0  0  0  0  0  0  0
  143.3911   81.3900  223.9734 H   0  0  0  0  0  0  0  0  0  0  0  0
  142.3070   80.8840  222.1600 C   0  0  0  0  0  0  0  0  0  0  0  0
  142.6904   81.7407  221.5864 H   0  0  0  0  0  0  0  0  0  0  0  0
  141.4220   79.9700  221.5720 C   0  0  0  0  0  0  0  0  0  0  0  0
  140.8470   79.9780  220.1790 C   0  0  1  0  0  0  0  0  0  0  0  0
  139.9030   78.7280  220.1840 C   0  0  0  0  0  0  0  0  0  0  0  0
  140.1937   78.0275  219.3872 H   0  0  0  0  0  0  0  0  0  0  0  0
  138.8567   79.0153  220.0032 H   0  0  0  0  0  0  0  0  0  0  0  0
  140.1220   81.2880  219.8800 C   0  0  0  0  0  0  0  0  0  0  0  0
  139.6518   81.6831  220.7926 H   0  0  0  0  0  0  0  0  0  0  0  0
  139.3213   81.1489  219.1387 H   0  0  0  0  0  0  0  0  0  0  0  0
  141.1550   82.2120  219.3950 N   0  0  0  0  0  0  0  0  0  0  0  0
  140.5890   83.3010  218.5650 C   0  0  1  0  0  0  0  0  0  0  0  0
  140.2553   84.0552  219.2929 H   0  0  0  0  0  0  0  0  0  0  0  0
  141.6130   83.8520  217.5680 C   0  0  0  0  0  0  0  0  0  0  0  0
  142.4119   83.1125  217.4100 H   0  0  0  0  0  0  0  0  0  0  0  0
  142.0586   84.7785  217.9592 H   0  0  0  0  0  0  0  0  0  0  0  0
  140.9290   84.1210  216.2970 N   0  0  0  0  0  0  0  0  0  0  0  0
  141.3590   83.5200  215.5540 H   0  0  0  0  0  0  0  0  0  0  0  0
  139.5370   83.7120  216.4620 C   0  0  0  0  0  0  0  0  0  0  0  0
  139.1964   83.1715  215.5665 H   0  0  0  0  0  0  0  0  0  0  0  0
  138.8904   84.5909  216.6011 H   0  0  0  0  0  0  0  0  0  0  0  0
  139.4660   82.8030  217.6720 C   0  0  0  0  0  0  0  0  0  0  0  0
  139.6299   81.7540  217.3843 H   0  0  0  0  0  0  0  0  0  0  0  0
  138.4843   82.8300  218.1676 H   0  0  0  0  0  0  0  0  0  0  0  0
  142.1240   81.3740  218.6590 C   0  0  0  0  0  0  0  0  0  0  0  0
  143.1485   81.7080  218.8798 H   0  0  0  0  0  0  0  0  0  0  0  0
  141.9530   81.4576  217.5756 H   0  0  0  0  0  0  0  0  0  0  0  0
  141.9430   79.9260  219.1120 C   0  0  0  0  0  0  0  0  0  0  0  0
  142.8786   79.5344  219.5378 H   0  0  0  0  0  0  0  0  0  0  0  0
  141.6748   79.2625  218.2766 H   0  0  0  0  0  0  0  0  0  0  0  0
  142.0270   75.9160  220.8600 N   0  0  0  0  0  0  0  0  0  0  0  0
  142.4240   76.8350  220.5750 H   0  0  0  0  0  0  0  0  0  0  0  0
  142.5920   74.7120  220.6710 C   0  0  0  0  0  0  0  0  0  0  0  0
  143.8370   74.4440  220.1060 C   0  0  0  0  0  0  0  0  0  0  0  0
  144.4969   75.2619  219.7809 H   0  0  0  0  0  0  0  0  0  0  0  0
  1  2  1  0
  2  3  2  0
  3  4  1  0
  4  5  1  0
  3  6  1  0
  6  7  2  0
  7  8  1  0
  7  9  1  0
  9 10  1  0
  9 11  2  0
 11 12  1  0
 12 13  1  0
 12 14  2  0
 14 15  1  0
 15 16  2  0
 15 17  1  0
 17 18  1  0
 18 19  2  0
 19 20  1  0
 19 21  1  0
 21 22  1  0
 21 23  2  0
 23 24  1  0
 23 25  1  0
 25 26  1  0
 25 27  2  0
 27 28  1  0
 28 29  1  1
 29 30  1  0
 29 31  1  0
 28 32  1  0
 32 33  1  0
 32 34  1  0
 32 35  1  0
 35 36  1  0
 36 37  1  1
 36 38  1  0
 38 39  1  0
 38 40  1  0
 38 41  1  0
 41 42  1  0
 41 43  1  0
 43 44  1  0
 43 45  1  0
 43 46  1  0
 46 47  1  0
 46 48  1  0
 35 49  1  0
 49 50  1  0
 49 51  1  0
 49 52  1  0
 52 53  1  0
 52 54  1  0
 14 55  1  0
 55 56  1  0
 55 57  1  0
 57 58  2  0
 58 59  1  0
 58  6  1  0
 57 11  1  0
 29 17  1  0
 46 36  1  0
 27 18  1  0
 52 28  1  0
M  END
>  <UniqueID>  (40) 
40

>  <SMILES>  (40) 
[H]/N=C(/O)c1ccc2cc(C(=O)N3C[C@]4(CCN([C@@H]5CCNC5)C4)c4ccccc43)[nH]c2c1

>  <Energy>  (40) 
126.72370301603527

>  <Genealogy>  (40) 
N=C(O)c1ccc2cc(C(=O)N3C[C@]4(CCN(C5CCNC5)C4)c4ccccc43)[nH]c2c1 (tautomer)
N=C(O)c1ccc2cc(C(=O)N3C[C@]4(CCN([C@@H]5CCNC5)C4)c4ccccc43)[nH]c2c1 (chirality)
[H]/N=C(/O)c1ccc2cc(C(=O)N3C[C@]4(CCN([C@@H]5CCNC5)C4)c4ccccc43)[nH]c2c1 (cis-trans isomerization)
[H]/N=C(/O)c1ccc2cc(C(=O)N3C[C@]4(CCN([C@@H]5CCNC5)C4)c4ccccc43)[nH]c2c1 (3D coordinates assigned)
[H]/N=C(/O)c1ccc2cc(C(=O)N3C[C@]4(CCN([C@@H]5CCNC5)C4)c4ccccc43)[nH]c2c1 (nonaromatic ring conformer: 126.72370301603527 kcal/mol)

>  <smiles>  (40) 
NC(=O)c1ccc2cc(C(=O)N3C[C@]4(CCN(C5CCNC5)C4)c4ccccc43)[nH]c2c1

>  <score_type>  (40) 
oracle

>  <origin>  (40) 
autodockgpu

>  <m_score__min__energy>  (40) 
-9.3800000000000008

>  <m_primary>  (40) 
energy

>  <meeko>  (40) 
{"free_energy": -8.31, "intermolecular_energy": -10.1, "internal_energy": -1.16, "cluster_size": 1, "cluster_id": 2, "rank_in_cluster": 1}

>  <energy>  (40) 
-8.04

>  <cluster_rmsd>  (40) 
1.33

>  <rmsd>  (40) 
271.41

>  <cluster>  (40) 
4

$$$$
RRGBJOPXSUYLSO-MHFXRGQHNA-N
     RDKit          3D

 59 64  0  0  0  0  0  0  0  0999 V2000
  146.4700   69.4320  218.1900 N   0  0  0  0  0  0  0  0  0  0  0  0
  145.5660   69.6070  219.2790 C   0  0  0  0  0  0  0  0  0  0  0  0
  145.2040   68.6020  219.9470 O   0  0  0  0  0  0  0  0  0  0  0  0
  145.0630   70.9570  219.6270 C   0  0  0  0  0  0  0  0  0  0  0  0
  145.9520   72.0690  219.6500 C   0  0  0  0  0  0  0  0  0  0  0  0
  145.4860   73.3560  219.9700 C   0  0  0  0  0  0  0  0  0  0  0  0
  144.1340   73.5070  220.2590 C   0  0  0  0  0  0  0  0  0  0  0  0
  143.4110   74.6270  220.6060 C   0  0  0  0  0  0  0  0  0  0  0  0
  142.1070   74.1730  220.7810 C   0  0  0  0  0  0  0  0  0  0  0  0
  140.9720   75.0200  221.1910 C   0  0  0  0  0  0  0  0  0  0  0  0
  140.1140   74.5500  221.9850 O   0  0  0  0  0  0  0  0  0  0  0  0
  140.8490   76.3770  220.7290 N   0  0  0  0  0  0  0  0  0  0  0  0
  140.9270   76.7540  219.3140 C   0  0  0  0  0  0  0  0  0  0  0  0
  141.3730   78.2540  219.2850 C   0  0  1  0  0  0  0  0  0  0  0  0
  142.7150   78.4870  218.5990 C   0  0  0  0  0  0  0  0  0  0  0  0
  142.5820   79.8500  217.9200 C   0  0  0  0  0  0  0  0  0  0  0  0
  141.2020   80.3430  218.1160 N   0  0  0  0  0  0  0  0  0  0  0  0
  140.6590   81.0140  216.9040 C   0  0  2  0  0  0  0  0  0  0  0  0
  140.2200   79.9960  215.8550 C   0  0  0  0  0  0  0  0  0  0  0  0
  141.4760   79.7000  215.0490 C   0  0  0  0  0  0  0  0  0  0  0  0
  142.4090   80.8140  215.2510 N   0  0  0  0  0  0  0  0  0  0  0  0
  141.7470   81.7740  216.1390 C   0  0  0  0  0  0  0  0  0  0  0  0
  140.4190   79.1620  218.5120 C   0  0  0  0  0  0  0  0  0  0  0  0
  141.4260   78.6170  220.7450 C   0  0  0  0  0  0  0  0  0  0  0  0
  141.7270   79.8540  221.3300 C   0  0  0  0  0  0  0  0  0  0  0  0
  141.7110   79.9590  222.7290 C   0  0  0  0  0  0  0  0  0  0  0  0
  141.3920   78.8400  223.5190 C   0  0  0  0  0  0  0  0  0  0  0  0
  141.0970   77.6090  222.9140 C   0  0  0  0  0  0  0  0  0  0  0  0
  141.1340   77.5230  221.5170 C   0  0  0  0  0  0  0  0  0  0  0  0
  142.0260   72.8380  220.5690 N   0  0  0  0  0  0  0  0  0  0  0  0
  143.2710   72.4460  220.2460 C   0  0  0  0  0  0  0  0  0  0  0  0
  143.6970   71.1550  219.9400 C   0  0  0  0  0  0  0  0  0  0  0  0
  147.4880   69.6360  218.2990 H   0  0  0  0  0  0  0  0  0  0  0  0
  147.0160   71.9192  219.4146 H   0  0  0  0  0  0  0  0  0  0  0  0
  146.1698   74.2174  219.9912 H   0  0  0  0  0  0  0  0  0  0  0  0
  143.7831   75.6559  220.7199 H   0  0  0  0  0  0  0  0  0  0  0  0
  141.6649   76.1267  218.7925 H   0  0  0  0  0  0  0  0  0  0  0  0
  139.9603   76.6137  218.8082 H   0  0  0  0  0  0  0  0  0  0  0  0
  143.5295   78.5013  219.3382 H   0  0  0  0  0  0  0  0  0  0  0  0
  142.9552   77.6896  217.8804 H   0  0  0  0  0  0  0  0  0  0  0  0
  143.2953   80.5579  218.3674 H   0  0  0  0  0  0  0  0  0  0  0  0
  142.7983   79.7568  216.8455 H   0  0  0  0  0  0  0  0  0  0  0  0
  139.8495   81.6531  217.2865 H   0  0  0  0  0  0  0  0  0  0  0  0
  139.8444   79.0811  216.3366 H   0  0  0  0  0  0  0  0  0  0  0  0
  139.4028   80.3764  215.2245 H   0  0  0  0  0  0  0  0  0  0  0  0
  141.9321   78.7616  215.3973 H   0  0  0  0  0  0  0  0  0  0  0  0
  141.2320   79.5907  213.9820 H   0  0  0  0  0  0  0  0  0  0  0  0
  143.2880   80.4660  215.7020 H   0  0  0  0  0  0  0  0  0  0  0  0
  142.6450   81.2660  214.3360 H   0  0  0  0  0  0  0  0  0  0  0  0
  142.4763   82.1985  216.8447 H   0  0  0  0  0  0  0  0  0  0  0  0
  141.3098   82.6012  215.5606 H   0  0  0  0  0  0  0  0  0  0  0  0
  139.5758   79.4612  219.1519 H   0  0  0  0  0  0  0  0  0  0  0  0
  140.0006   78.6474  217.6344 H   0  0  0  0  0  0  0  0  0  0  0  0
  141.9710   80.7256  220.7049 H   0  0  0  0  0  0  0  0  0  0  0  0
  141.9487   80.9195  223.2095 H   0  0  0  0  0  0  0  0  0  0  0  0
  141.3737   78.9303  224.6151 H   0  0  0  0  0  0  0  0  0  0  0  0
  140.8420   76.7300  223.5243 H   0  0  0  0  0  0  0  0  0  0  0  0
  141.1900   72.2230  220.6760 H   0  0  0  0  0  0  0  0  0  0  0  0
  142.9903   70.3121  219.9417 H   0  0  0  0  0  0  0  0  0  0  0  0
  1  2  1  0
  2  3  2  0
  2  4  1  0
  4  5  2  0
  5  6  1  0
  6  7  2  0
  7  8  1  0
  8  9  2  0
  9 10  1  0
 10 11  2  0
 10 12  1  0
 12 13  1  0
 14 13  1  1
 14 15  1  0
 15 16  1  0
 16 17  1  0
 17 18  1  0
 18 19  1  0
 19 20  1  0
 20 21  1  0
 21 22  1  0
 17 23  1  0
 14 24  1  0
 24 25  2  0
 25 26  1  0
 26 27  2  0
 27 28  1  0
 28 29  2  0
  9 30  1  0
 30 31  1  0
 31 32  2  0
 32  4  1  0
 31  7  1  0
 29 12  1  0
 23 14  1  0
 29 24  1  0
 22 18  1  0
  1 33  1  0
  5 34  1  0
  6 35  1  0
  8 36  1  0
 13 37  1  0
 13 38  1  0
 15 39  1  0
 15 40  1  0
 16 41  1  0
 16 42  1  0
 18 43  1  1
 19 44  1  0
 19 45  1  0
 20 46  1  0
 20 47  1  0
 21 48  1  0
 21 49  1  0
 22 50  1  0
 22 51  1  0
 23 52  1  0
 23 53  1  0
 25 54  1  0
 26 55  1  0
 27 56  1  0
 28 57  1  0
 30 58  1  0
 32 59  1  0
M  CHG  2   1  -1  21   1
M  END
>  <UniqueID>  (41) 
41

>  <SMILES>  (41) 
[NH-]C(=O)c1ccc2cc(C(=O)N3C[C@]4(CCN([C@@H]5CC[NH2+]C5)C4)c4ccccc43)[nH]c2c1

>  <Energy>  (41) 
127.27678864906035

>  <Genealogy>  (41) 
[NH-]C(=O)c1ccc2cc(C(=O)N3C[C@]4(CCN(C5CC[NH2+]C5)C4)c4ccccc43)[nH]c2c1 (protonated)
[NH-]C(=O)c1ccc2cc(C(=O)N3C[C@]4(CCN([C@@H]5CC[NH2+]C5)C4)c4ccccc43)[nH]c2c1 (chirality)
[NH-]C(=O)c1ccc2cc(C(=O)N3C[C@]4(CCN([C@@H]5CC[NH2+]C5)C4)c4ccccc43)[nH]c2c1 (3D coordinates assigned)
[NH-]C(=O)c1ccc2cc(C(=O)N3C[C@]4(CCN([C@@H]5CC[NH2+]C5)C4)c4ccccc43)[nH]c2c1 (nonaromatic ring conformer: 127.27678864906035 kcal/mol)

>  <smiles>  (41) 
NC(=O)c1ccc2cc(C(=O)N3C[C@]4(CCN(C5CCNC5)C4)c4ccccc43)[nH]c2c1

>  <score_type>  (41) 
oracle

>  <origin>  (41) 
autodockgpu

>  <m_score__min__energy>  (41) 
-9.8900000000000006

>  <m_primary>  (41) 
energy

>  <meeko>  (41) 
{"free_energy": -9.74, "intermolecular_energy": -11.23, "internal_energy": -0.89, "cluster_size": 16, "cluster_id": 1, "rank_in_cluster": 9}

>  <energy>  (41) 
-9.89

>  <cluster_rmsd>  (41) 
0.0

>  <rmsd>  (41) 
269.6

>  <cluster>  (41) 
1

$$$$
RRGBJOPXSUYLSO-MHFXRGQHNA-N
     RDKit          3D

 59 64  0  0  0  0  0  0  0  0999 V2000
  146.6620   69.5620  218.2550 N   0  0  0  0  0  0  0  0  0  0  0  0
  145.6700   69.6910  219.2720 C   0  0  0  0  0  0  0  0  0  0  0  0
  145.2400   68.6550  219.8470 O   0  0  0  0  0  0  0  0  0  0  0  0
  145.1540   71.0270  219.6530 C   0  0  0  0  0  0  0  0  0  0  0  0
  146.0420   72.1330  219.7620 C   0  0  0  0  0  0  0  0  0  0  0  0
  145.5650   73.4080  220.1140 C   0  0  0  0  0  0  0  0  0  0  0  0
  144.2020   73.5510  220.3470 C   0  0  0  0  0  0  0  0  0  0  0  0
  143.4650   74.6590  220.7070 C   0  0  0  0  0  0  0  0  0  0  0  0
  142.1530   74.2020  220.8030 C   0  0  0  0  0  0  0  0  0  0  0  0
  141.0030   75.0360  221.1960 C   0  0  0  0  0  0  0  0  0  0  0  0
  140.1310   74.5500  221.9650 O   0  0  0  0  0  0  0  0  0  0  0  0
  140.8790   76.3960  220.7450 N   0  0  0  0  0  0  0  0  0  0  0  0
  140.9420   76.7840  219.3310 C   0  0  0  0  0  0  0  0  0  0  0  0
  141.3920   78.2820  219.3080 C   0  0  1  0  0  0  0  0  0  0  0  0
  142.7270   78.5160  218.6100 C   0  0  0  0  0  0  0  0  0  0  0  0
  142.5910   79.8840  217.9410 C   0  0  0  0  0  0  0  0  0  0  0  0
  141.2140   80.3790  218.1560 N   0  0  0  0  0  0  0  0  0  0  0  0
  140.6600   81.0600  216.9550 C   0  0  2  0  0  0  0  0  0  0  0  0
  140.1660   80.0510  215.9220 C   0  0  0  0  0  0  0  0  0  0  0  0
  141.3920   79.7160  215.0870 C   0  0  0  0  0  0  0  0  0  0  0  0
  142.3620   80.8040  215.2590 N   0  0  0  0  0  0  0  0  0  0  0  0
  141.7500   81.7860  216.1590 C   0  0  0  0  0  0  0  0  0  0  0  0
  140.4320   79.1980  218.5520 C   0  0  0  0  0  0  0  0  0  0  0  0
  141.4620   78.6340  220.7700 C   0  0  0  0  0  0  0  0  0  0  0  0
  141.7730   79.8660  221.3610 C   0  0  0  0  0  0  0  0  0  0  0  0
  141.7730   79.9620  222.7600 C   0  0  0  0  0  0  0  0  0  0  0  0
  141.4600   78.8380  223.5460 C   0  0  0  0  0  0  0  0  0  0  0  0
  141.1540   77.6120  222.9360 C   0  0  0  0  0  0  0  0  0  0  0  0
  141.1750   77.5360  221.5380 C   0  0  0  0  0  0  0  0  0  0  0  0
  142.0810   72.8770  220.5320 N   0  0  0  0  0  0  0  0  0  0  0  0
  143.3380   72.4940  220.2500 C   0  0  0  0  0  0  0  0  0  0  0  0
  143.7760   71.2160  219.9100 C   0  0  0  0  0  0  0  0  0  0  0  0
  147.6780   69.6350  218.4840 H   0  0  0  0  0  0  0  0  0  0  0  0
  147.1152   71.9890  219.5685 H   0  0  0  0  0  0  0  0  0  0  0  0
  146.2487   74.2652  220.2022 H   0  0  0  0  0  0  0  0  0  0  0  0
  143.8329   75.6810  220.8806 H   0  0  0  0  0  0  0  0  0  0  0  0
  141.6720   76.1585  218.7963 H   0  0  0  0  0  0  0  0  0  0  0  0
  139.9691   76.6505  218.8354 H   0  0  0  0  0  0  0  0  0  0  0  0
  143.5491   78.5233  219.3409 H   0  0  0  0  0  0  0  0  0  0  0  0
  142.9575   77.7226  217.8837 H   0  0  0  0  0  0  0  0  0  0  0  0
  143.3112   80.5870  218.3850 H   0  0  0  0  0  0  0  0  0  0  0  0
  142.7956   79.7977  216.8636 H   0  0  0  0  0  0  0  0  0  0  0  0
  139.8788   81.7232  217.3548 H   0  0  0  0  0  0  0  0  0  0  0  0
  139.7764   79.1492  216.4170 H   0  0  0  0  0  0  0  0  0  0  0  0
  139.3446   80.4523  215.3102 H   0  0  0  0  0  0  0  0  0  0  0  0
  141.8298   78.7666  215.4290 H   0  0  0  0  0  0  0  0  0  0  0  0
  141.1179   79.6092  214.0271 H   0  0  0  0  0  0  0  0  0  0  0  0
  143.2410   80.4330  215.6890 H   0  0  0  0  0  0  0  0  0  0  0  0
  142.5870   81.2460  214.3360 H   0  0  0  0  0  0  0  0  0  0  0  0
  142.5086   82.1923  216.8442 H   0  0  0  0  0  0  0  0  0  0  0  0
  141.3220   82.6230  215.5879 H   0  0  0  0  0  0  0  0  0  0  0  0
  139.5968   79.4951  219.2032 H   0  0  0  0  0  0  0  0  0  0  0  0
  140.0023   78.6908  217.6756 H   0  0  0  0  0  0  0  0  0  0  0  0
  142.0126   80.7412  220.7392 H   0  0  0  0  0  0  0  0  0  0  0  0
  142.0184   80.9188  223.2441 H   0  0  0  0  0  0  0  0  0  0  0  0
  141.4552   78.9206  224.6429 H   0  0  0  0  0  0  0  0  0  0  0  0
  140.9030   76.7296  223.5430 H   0  0  0  0  0  0  0  0  0  0  0  0
  141.2390   72.2620  220.5750 H   0  0  0  0  0  0  0  0  0  0  0  0
  143.0689   70.3761  219.8432 H   0  0  0  0  0  0  0  0  0  0  0  0
  1  2  1  0
  2  3  2  0
  2  4  1  0
  4  5  2  0
  5  6  1  0
  6  7  2  0
  7  8  1  0
  8  9  2  0
  9 10  1  0
 10 11  2  0
 10 12  1  0
 12 13  1  0
 14 13  1  1
 14 15  1  0
 15 16  1  0
 16 17  1  0
 17 18  1  0
 18 19  1  0
 19 20  1  0
 20 21  1  0
 21 22  1  0
 17 23  1  0
 14 24  1  0
 24 25  2  0
 25 26  1  0
 26 27  2  0
 27 28  1  0
 28 29  2  0
  9 30  1  0
 30 31  1  0
 31 32  2  0
 32  4  1  0
 31  7  1  0
 29 12  1  0
 23 14  1  0
 29 24  1  0
 22 18  1  0
  1 33  1  0
  5 34  1  0
  6 35  1  0
  8 36  1  0
 13 37  1  0
 13 38  1  0
 15 39  1  0
 15 40  1  0
 16 41  1  0
 16 42  1  0
 18 43  1  1
 19 44  1  0
 19 45  1  0
 20 46  1  0
 20 47  1  0
 21 48  1  0
 21 49  1  0
 22 50  1  0
 22 51  1  0
 23 52  1  0
 23 53  1  0
 25 54  1  0
 26 55  1  0
 27 56  1  0
 28 57  1  0
 30 58  1  0
 32 59  1  0
M  CHG  2   1  -1  21   1
M  END
>  <UniqueID>  (42) 
41

>  <SMILES>  (42) 
[NH-]C(=O)c1ccc2cc(C(=O)N3C[C@]4(CCN([C@@H]5CC[NH2+]C5)C4)c4ccccc43)[nH]c2c1

>  <Energy>  (42) 
127.27678864906035

>  <Genealogy>  (42) 
[NH-]C(=O)c1ccc2cc(C(=O)N3C[C@]4(CCN(C5CC[NH2+]C5)C4)c4ccccc43)[nH]c2c1 (protonated)
[NH-]C(=O)c1ccc2cc(C(=O)N3C[C@]4(CCN([C@@H]5CC[NH2+]C5)C4)c4ccccc43)[nH]c2c1 (chirality)
[NH-]C(=O)c1ccc2cc(C(=O)N3C[C@]4(CCN([C@@H]5CC[NH2+]C5)C4)c4ccccc43)[nH]c2c1 (3D coordinates assigned)
[NH-]C(=O)c1ccc2cc(C(=O)N3C[C@]4(CCN([C@@H]5CC[NH2+]C5)C4)c4ccccc43)[nH]c2c1 (nonaromatic ring conformer: 127.27678864906035 kcal/mol)

>  <smiles>  (42) 
NC(=O)c1ccc2cc(C(=O)N3C[C@]4(CCN(C5CCNC5)C4)c4ccccc43)[nH]c2c1

>  <score_type>  (42) 
oracle

>  <origin>  (42) 
autodockgpu

>  <m_score__min__energy>  (42) 
-9.8900000000000006

>  <m_primary>  (42) 
energy

>  <meeko>  (42) 
{"free_energy": -9.73, "intermolecular_energy": -11.22, "internal_energy": -0.9, "cluster_size": 16, "cluster_id": 1, "rank_in_cluster": 11}

>  <energy>  (42) 
-9.88

>  <cluster_rmsd>  (42) 
0.3

>  <rmsd>  (42) 
269.59

>  <cluster>  (42) 
1

$$$$
RRGBJOPXSUYLSO-MHFXRGQHNA-N
     RDKit          3D

 59 64  0  0  0  0  0  0  0  0999 V2000
  146.2900   73.0450  218.4830 N   0  0  0  0  0  0  0  0  0  0  0  0
  145.5450   72.1550  219.3120 C   0  0  0  0  0  0  0  0  0  0  0  0
  145.9840   70.9910  219.5160 O   0  0  0  0  0  0  0  0  0  0  0  0
  144.2730   72.5950  219.9320 C   0  0  0  0  0  0  0  0  0  0  0  0
  143.4520   71.6600  220.6240 C   0  0  0  0  0  0  0  0  0  0  0  0
  142.2470   72.0650  221.2240 C   0  0  0  0  0  0  0  0  0  0  0  0
  141.8870   73.4040  221.1220 C   0  0  0  0  0  0  0  0  0  0  0  0
  140.7800   74.0740  221.5980 C   0  0  0  0  0  0  0  0  0  0  0  0
  140.9550   75.3920  221.1890 C   0  0  0  0  0  0  0  0  0  0  0  0
  139.9970   76.4830  221.4450 C   0  0  0  0  0  0  0  0  0  0  0  0
  138.9280   76.2250  222.0610 O   0  0  0  0  0  0  0  0  0  0  0  0
  140.2760   77.8330  221.0370 N   0  0  0  0  0  0  0  0  0  0  0  0
  140.3770   78.2440  219.6320 C   0  0  0  0  0  0  0  0  0  0  0  0
  141.2680   79.5300  219.6140 C   0  0  1  0  0  0  0  0  0  0  0  0
  142.5670   79.3700  218.8320 C   0  0  0  0  0  0  0  0  0  0  0  0
  142.8250   80.7410  218.2080 C   0  0  0  0  0  0  0  0  0  0  0  0
  141.6860   81.6280  218.5280 N   0  0  0  0  0  0  0  0  0  0  0  0
  141.3030   82.4990  217.3840 C   0  0  2  0  0  0  0  0  0  0  0  0
  140.3480   81.7820  216.4340 C   0  0  0  0  0  0  0  0  0  0  0  0
  141.2510   81.0240  215.4710 C   0  0  0  0  0  0  0  0  0  0  0  0
  142.5750   81.6540  215.5110 N   0  0  0  0  0  0  0  0  0  0  0  0
  142.4910   82.7730  216.4550 C   0  0  0  0  0  0  0  0  0  0  0  0
  140.6000   80.7300  218.9470 C   0  0  0  0  0  0  0  0  0  0  0  0
  141.5280   79.7780  221.0760 C   0  0  0  0  0  0  0  0  0  0  0  0
  142.2400   80.8270  221.6730 C   0  0  0  0  0  0  0  0  0  0  0  0
  142.3500   80.8560  223.0720 C   0  0  0  0  0  0  0  0  0  0  0  0
  141.7480   79.8510  223.8490 C   0  0  0  0  0  0  0  0  0  0  0  0
  141.0410   78.8070  223.2330 C   0  0  0  0  0  0  0  0  0  0  0  0
  140.9580   78.7900  221.8350 C   0  0  0  0  0  0  0  0  0  0  0  0
  142.1030   75.5330  220.4840 N   0  0  0  0  0  0  0  0  0  0  0  0
  142.6640   74.3110  220.4560 C   0  0  0  0  0  0  0  0  0  0  0  0
  143.8610   73.9460  219.8430 C   0  0  0  0  0  0  0  0  0  0  0  0
  146.7040   73.9210  218.8730 H   0  0  0  0  0  0  0  0  0  0  0  0
  143.7646   70.6074  220.6899 H   0  0  0  0  0  0  0  0  0  0  0  0
  141.6089   71.3451  221.7575 H   0  0  0  0  0  0  0  0  0  0  0  0
  139.9415   73.6573  222.1752 H   0  0  0  0  0  0  0  0  0  0  0  0
  140.8453   77.4477  219.0349 H   0  0  0  0  0  0  0  0  0  0  0  0
  139.3844   78.4391  219.2000 H   0  0  0  0  0  0  0  0  0  0  0  0
  143.3912   79.0902  219.5047 H   0  0  0  0  0  0  0  0  0  0  0  0
  142.4970   78.5772  218.0727 H   0  0  0  0  0  0  0  0  0  0  0  0
  143.7525   81.1663  218.6188 H   0  0  0  0  0  0  0  0  0  0  0  0
  142.9298   80.6433  217.1174 H   0  0  0  0  0  0  0  0  0  0  0  0
  140.8850   83.4000  217.8567 H   0  0  0  0  0  0  0  0  0  0  0  0
  139.7013   81.0856  216.9878 H   0  0  0  0  0  0  0  0  0  0  0  0
  139.6797   82.4822  215.9115 H   0  0  0  0  0  0  0  0  0  0  0  0
  141.3278   79.9710  215.7797 H   0  0  0  0  0  0  0  0  0  0  0  0
  140.8398   81.0563  214.4512 H   0  0  0  0  0  0  0  0  0  0  0  0
  143.2880   80.9650  215.8460 H   0  0  0  0  0  0  0  0  0  0  0  0
  142.8470   81.9990  214.5600 H   0  0  0  0  0  0  0  0  0  0  0  0
  143.4192   82.8411  217.0413 H   0  0  0  0  0  0  0  0  0  0  0  0
  142.3547   83.7242  215.9196 H   0  0  0  0  0  0  0  0  0  0  0  0
  139.9368   81.2415  219.6601 H   0  0  0  0  0  0  0  0  0  0  0  0
  139.9854   80.4192  218.0893 H   0  0  0  0  0  0  0  0  0  0  0  0
  142.7035   81.6121  221.0575 H   0  0  0  0  0  0  0  0  0  0  0  0
  142.9087   81.6672  223.5617 H   0  0  0  0  0  0  0  0  0  0  0  0
  141.8316   79.8831  224.9454 H   0  0  0  0  0  0  0  0  0  0  0  0
  140.5628   78.0199  223.8345 H   0  0  0  0  0  0  0  0  0  0  0  0
  142.4640   76.3920  220.0160 H   0  0  0  0  0  0  0  0  0  0  0  0
  144.4691   74.6878  219.3046 H   0  0  0  0  0  0  0  0  0  0  0  0
  1  2  1  0
  2  3  2  0
  2  4  1  0
  4  5  2  0
  5  6  1  0
  6  7  2  0
  7  8  1  0
  8  9  2  0
  9 10  1  0
 10 11  2  0
 10 12  1  0
 12 13  1  0
 14 13  1  1
 14 15  1  0
 15 16  1  0
 16 17  1  0
 17 18  1  0
 18 19  1  0
 19 20  1  0
 20 21  1  0
 21 22  1  0
 17 23  1  0
 14 24  1  0
 24 25  2  0
 25 26  1  0
 26 27  2  0
 27 28  1  0
 28 29  2  0
  9 30  1  0
 30 31  1  0
 31 32  2  0
 32  4  1  0
 31  7  1  0
 29 12  1  0
 23 14  1  0
 29 24  1  0
 22 18  1  0
  1 33  1  0
  5 34  1  0
  6 35  1  0
  8 36  1  0
 13 37  1  0
 13 38  1  0
 15 39  1  0
 15 40  1  0
 16 41  1  0
 16 42  1  0
 18 43  1  1
 19 44  1  0
 19 45  1  0
 20 46  1  0
 20 47  1  0
 21 48  1  0
 21 49  1  0
 22 50  1  0
 22 51  1  0
 23 52  1  0
 23 53  1  0
 25 54  1  0
 26 55  1  0
 27 56  1  0
 28 57  1  0
 30 58  1  0
 32 59  1  0
M  CHG  2   1  -1  21   1
M  END
>  <UniqueID>  (43) 
41

>  <SMILES>  (43) 
[NH-]C(=O)c1ccc2cc(C(=O)N3C[C@]4(CCN([C@@H]5CC[NH2+]C5)C4)c4ccccc43)[nH]c2c1

>  <Energy>  (43) 
127.27678864906035

>  <Genealogy>  (43) 
[NH-]C(=O)c1ccc2cc(C(=O)N3C[C@]4(CCN(C5CC[NH2+]C5)C4)c4ccccc43)[nH]c2c1 (protonated)
[NH-]C(=O)c1ccc2cc(C(=O)N3C[C@]4(CCN([C@@H]5CC[NH2+]C5)C4)c4ccccc43)[nH]c2c1 (chirality)
[NH-]C(=O)c1ccc2cc(C(=O)N3C[C@]4(CCN([C@@H]5CC[NH2+]C5)C4)c4ccccc43)[nH]c2c1 (3D coordinates assigned)
[NH-]C(=O)c1ccc2cc(C(=O)N3C[C@]4(CCN([C@@H]5CC[NH2+]C5)C4)c4ccccc43)[nH]c2c1 (nonaromatic ring conformer: 127.27678864906035 kcal/mol)

>  <smiles>  (43) 
NC(=O)c1ccc2cc(C(=O)N3C[C@]4(CCN(C5CCNC5)C4)c4ccccc43)[nH]c2c1

>  <score_type>  (43) 
oracle

>  <origin>  (43) 
autodockgpu

>  <m_score__min__energy>  (43) 
-9.8900000000000006

>  <m_primary>  (43) 
energy

>  <meeko>  (43) 
{"free_energy": -9.58, "intermolecular_energy": -11.07, "internal_energy": -0.9, "cluster_size": 16, "cluster_id": 1, "rank_in_cluster": 12}

>  <energy>  (43) 
-9.82

>  <cluster_rmsd>  (43) 
0.16

>  <rmsd>  (43) 
269.56

>  <cluster>  (43) 
1

$$$$
RRGBJOPXSUYLSO-MHFXRGQHNA-N
     RDKit          3D

 59 64  0  0  0  0  0  0  0  0999 V2000
  146.2900   73.0060  218.6530 N   0  0  0  0  0  0  0  0  0  0  0  0
  145.7260   73.0650  219.9620 C   0  0  0  0  0  0  0  0  0  0  0  0
  146.3870   72.6170  220.9370 O   0  0  0  0  0  0  0  0  0  0  0  0
  144.3810   73.6490  220.1750 C   0  0  0  0  0  0  0  0  0  0  0  0
  143.3100   72.8330  220.6370 C   0  0  0  0  0  0  0  0  0  0  0  0
  142.0320   73.3770  220.8510 C   0  0  0  0  0  0  0  0  0  0  0  0
  141.8500   74.7320  220.6010 C   0  0  0  0  0  0  0  0  0  0  0  0
  140.7260   75.5220  220.7140 C   0  0  0  0  0  0  0  0  0  0  0  0
  141.1390   76.7930  220.3230 C   0  0  0  0  0  0  0  0  0  0  0  0
  140.2610   77.9750  220.2540 C   0  0  0  0  0  0  0  0  0  0  0  0
  139.8370   78.3550  219.1290 O   0  0  0  0  0  0  0  0  0  0  0  0
  139.8550   78.6740  221.4430 N   0  0  0  0  0  0  0  0  0  0  0  0
  138.4780   79.1190  221.6830 C   0  0  0  0  0  0  0  0  0  0  0  0
  138.5730   80.3150  222.6880 C   0  0  1  0  0  0  0  0  0  0  0  0
  138.0570   81.6360  222.1270 C   0  0  0  0  0  0  0  0  0  0  0  0
  137.4350   82.3580  223.3220 C   0  0  0  0  0  0  0  0  0  0  0  0
  137.4960   81.4640  224.4980 N   0  0  0  0  0  0  0  0  0  0  0  0
  136.2630   81.5310  225.3300 C   0  0  2  0  0  0  0  0  0  0  0  0
  135.5660   82.8800  225.1810 C   0  0  0  0  0  0  0  0  0  0  0  0
  136.2320   83.7800  226.2100 C   0  0  0  0  0  0  0  0  0  0  0  0
  136.8660   82.9180  227.2140 N   0  0  0  0  0  0  0  0  0  0  0  0
  136.5880   81.5310  226.8270 C   0  0  0  0  0  0  0  0  0  0  0  0
  137.7410   80.1200  223.9530 C   0  0  0  0  0  0  0  0  0  0  0  0
  140.0460   80.3800  222.9940 C   0  0  0  0  0  0  0  0  0  0  0  0
  140.7210   81.2370  223.8730 C   0  0  0  0  0  0  0  0  0  0  0  0
  142.1120   81.1110  224.0010 C   0  0  0  0  0  0  0  0  0  0  0  0
  142.8050   80.1360  223.2610 C   0  0  0  0  0  0  0  0  0  0  0  0
  142.1120   79.2890  222.3830 C   0  0  0  0  0  0  0  0  0  0  0  0
  140.7250   79.4430  222.2600 C   0  0  0  0  0  0  0  0  0  0  0  0
  142.4470   76.7900  219.9720 N   0  0  0  0  0  0  0  0  0  0  0  0
  142.8690   75.5260  220.1510 C   0  0  0  0  0  0  0  0  0  0  0  0
  144.1480   75.0220  219.9220 C   0  0  0  0  0  0  0  0  0  0  0  0
  146.2050   73.8140  217.9970 H   0  0  0  0  0  0  0  0  0  0  0  0
  143.4848   71.7640  220.8287 H   0  0  0  0  0  0  0  0  0  0  0  0
  141.2010   72.7495  221.2056 H   0  0  0  0  0  0  0  0  0  0  0  0
  139.7217   75.2152  221.0416 H   0  0  0  0  0  0  0  0  0  0  0  0
  138.0144   79.4484  220.7414 H   0  0  0  0  0  0  0  0  0  0  0  0
  137.8589   78.3046  222.0873 H   0  0  0  0  0  0  0  0  0  0  0  0
  138.8841   82.2267  221.7063 H   0  0  0  0  0  0  0  0  0  0  0  0
  137.3324   81.4842  221.3134 H   0  0  0  0  0  0  0  0  0  0  0  0
  137.9952   83.2817  223.5294 H   0  0  0  0  0  0  0  0  0  0  0  0
  136.3890   82.6173  223.1012 H   0  0  0  0  0  0  0  0  0  0  0  0
  135.6639   80.6693  225.0006 H   0  0  0  0  0  0  0  0  0  0  0  0
  135.7096   83.2799  224.1664 H   0  0  0  0  0  0  0  0  0  0  0  0
  134.4798   82.8046  225.3378 H   0  0  0  0  0  0  0  0  0  0  0  0
  136.9919   84.4082  225.7222 H   0  0  0  0  0  0  0  0  0  0  0  0
  135.4893   84.4395  226.6827 H   0  0  0  0  0  0  0  0  0  0  0  0
  137.9000   83.0800  227.2220 H   0  0  0  0  0  0  0  0  0  0  0  0
  136.4770   83.1150  228.1670 H   0  0  0  0  0  0  0  0  0  0  0  0
  137.4697   80.9024  227.0206 H   0  0  0  0  0  0  0  0  0  0  0  0
  135.7460   81.1264  227.4078 H   0  0  0  0  0  0  0  0  0  0  0  0
  138.2935   79.5086  224.6816 H   0  0  0  0  0  0  0  0  0  0  0  0
  136.7970   79.5995  223.7341 H   0  0  0  0  0  0  0  0  0  0  0  0
  140.1709   81.9938  224.4514 H   0  0  0  0  0  0  0  0  0  0  0  0
  142.6626   81.7766  224.6821 H   0  0  0  0  0  0  0  0  0  0  0  0
  143.8950   80.0371  223.3711 H   0  0  0  0  0  0  0  0  0  0  0  0
  142.6459   78.5210  221.8040 H   0  0  0  0  0  0  0  0  0  0  0  0
  143.0090   77.5840  219.5950 H   0  0  0  0  0  0  0  0  0  0  0  0
  144.9545   75.6736  219.5546 H   0  0  0  0  0  0  0  0  0  0  0  0
  1  2  1  0
  2  3  2  0
  2  4  1  0
  4  5  2  0
  5  6  1  0
  6  7  2  0
  7  8  1  0
  8  9  2  0
  9 10  1  0
 10 11  2  0
 10 12  1  0
 12 13  1  0
 14 13  1  6
 14 15  1  0
 15 16  1  0
 16 17  1  0
 17 18  1  0
 18 19  1  0
 19 20  1  0
 20 21  1  0
 21 22  1  0
 17 23  1  0
 14 24  1  0
 24 25  2  0
 25 26  1  0
 26 27  2  0
 27 28  1  0
 28 29  2  0
  9 30  1  0
 30 31  1  0
 31 32  2  0
 32  4  1  0
 31  7  1  0
 29 12  1  0
 23 14  1  0
 29 24  1  0
 22 18  1  0
  1 33  1  0
  5 34  1  0
  6 35  1  0
  8 36  1  0
 13 37  1  0
 13 38  1  0
 15 39  1  0
 15 40  1  0
 16 41  1  0
 16 42  1  0
 18 43  1  1
 19 44  1  0
 19 45  1  0
 20 46  1  0
 20 47  1  0
 21 48  1  0
 21 49  1  0
 22 50  1  0
 22 51  1  0
 23 52  1  0
 23 53  1  0
 25 54  1  0
 26 55  1  0
 27 56  1  0
 28 57  1  0
 30 58  1  0
 32 59  1  0
M  CHG  2   1  -1  21   1
M  END
>  <UniqueID>  (44) 
41

>  <SMILES>  (44) 
[NH-]C(=O)c1ccc2cc(C(=O)N3C[C@]4(CCN([C@@H]5CC[NH2+]C5)C4)c4ccccc43)[nH]c2c1

>  <Energy>  (44) 
127.27678864906035

>  <Genealogy>  (44) 
[NH-]C(=O)c1ccc2cc(C(=O)N3C[C@]4(CCN(C5CC[NH2+]C5)C4)c4ccccc43)[nH]c2c1 (protonated)
[NH-]C(=O)c1ccc2cc(C(=O)N3C[C@]4(CCN([C@@H]5CC[NH2+]C5)C4)c4ccccc43)[nH]c2c1 (chirality)
[NH-]C(=O)c1ccc2cc(C(=O)N3C[C@]4(CCN([C@@H]5CC[NH2+]C5)C4)c4ccccc43)[nH]c2c1 (3D coordinates assigned)
[NH-]C(=O)c1ccc2cc(C(=O)N3C[C@]4(CCN([C@@H]5CC[NH2+]C5)C4)c4ccccc43)[nH]c2c1 (nonaromatic ring conformer: 127.27678864906035 kcal/mol)

>  <smiles>  (44) 
NC(=O)c1ccc2cc(C(=O)N3C[C@]4(CCN(C5CCNC5)C4)c4ccccc43)[nH]c2c1

>  <score_type>  (44) 
oracle

>  <origin>  (44) 
autodockgpu

>  <m_score__min__energy>  (44) 
-9.8900000000000006

>  <m_primary>  (44) 
energy

>  <meeko>  (44) 
{"free_energy": -9.23, "intermolecular_energy": -10.72, "internal_energy": -0.95, "cluster_size": 1, "cluster_id": 2, "rank_in_cluster": 1}

>  <energy>  (44) 
-9.81

>  <cluster_rmsd>  (44) 
0.25

>  <rmsd>  (44) 
269.52

>  <cluster>  (44) 
1

$$$$
RRGBJOPXSUYLSO-MHFXRGQHNA-N
     RDKit          3D

 59 64  0  0  0  0  0  0  0  0999 V2000
  135.8260   85.3410  228.5490 N   0  0  0  0  0  0  0  0  0  0  0  0
  135.0560   84.6540  227.5640 C   0  0  0  0  0  0  0  0  0  0  0  0
  133.8200   84.8870  227.4760 O   0  0  0  0  0  0  0  0  0  0  0  0
  135.7010   83.6820  226.6500 C   0  0  0  0  0  0  0  0  0  0  0  0
  135.8600   82.3240  227.0450 C   0  0  0  0  0  0  0  0  0  0  0  0
  136.4630   81.3900  226.1850 C   0  0  0  0  0  0  0  0  0  0  0  0
  136.8930   81.8340  224.9400 C   0  0  0  0  0  0  0  0  0  0  0  0
  137.5120   81.1570  223.9110 C   0  0  0  0  0  0  0  0  0  0  0  0
  137.7100   82.1140  222.9200 C   0  0  0  0  0  0  0  0  0  0  0  0
  138.3740   81.8570  221.6280 C   0  0  0  0  0  0  0  0  0  0  0  0
  138.0890   82.5860  220.6400 O   0  0  0  0  0  0  0  0  0  0  0  0
  139.3590   80.8200  221.4890 N   0  0  0  0  0  0  0  0  0  0  0  0
  139.0840   79.5310  220.8420 C   0  0  0  0  0  0  0  0  0  0  0  0
  140.1210   78.5170  221.4290 C   0  0  1  0  0  0  0  0  0  0  0  0
  139.4880   77.3620  222.1980 C   0  0  0  0  0  0  0  0  0  0  0  0
  140.3980   76.1630  221.9330 C   0  0  0  0  0  0  0  0  0  0  0  0
  141.4520   76.5710  220.9800 N   0  0  0  0  0  0  0  0  0  0  0  0
  141.7550   75.5140  219.9780 C   0  0  2  0  0  0  0  0  0  0  0  0
  142.8200   74.5500  220.4930 C   0  0  0  0  0  0  0  0  0  0  0  0
  144.1460   75.1960  220.1170 C   0  0  0  0  0  0  0  0  0  0  0  0
  143.8860   76.1520  219.0340 N   0  0  0  0  0  0  0  0  0  0  0  0
  142.4510   76.0880  218.7400 C   0  0  0  0  0  0  0  0  0  0  0  0
  140.9610   77.8140  220.3650 C   0  0  0  0  0  0  0  0  0  0  0  0
  140.9670   79.3820  222.3250 C   0  0  0  0  0  0  0  0  0  0  0  0
  142.0880   79.0230  223.0860 C   0  0  0  0  0  0  0  0  0  0  0  0
  142.7270   80.0100  223.8510 C   0  0  0  0  0  0  0  0  0  0  0  0
  142.2480   81.3320  223.8420 C   0  0  0  0  0  0  0  0  0  0  0  0
  141.1230   81.6720  223.0760 C   0  0  0  0  0  0  0  0  0  0  0  0
  140.4920   80.6670  222.3320 C   0  0  0  0  0  0  0  0  0  0  0  0
  137.2510   83.3250  223.3160 N   0  0  0  0  0  0  0  0  0  0  0  0
  136.7510   83.1370  224.5500 C   0  0  0  0  0  0  0  0  0  0  0  0
  136.1650   84.0930  225.3780 C   0  0  0  0  0  0  0  0  0  0  0  0
  136.5650   84.8440  229.0930 H   0  0  0  0  0  0  0  0  0  0  0  0
  135.5066   82.0014  228.0355 H   0  0  0  0  0  0  0  0  0  0  0  0
  136.5907   80.3402  226.4878 H   0  0  0  0  0  0  0  0  0  0  0  0
  137.7889   80.0929  223.8799 H   0  0  0  0  0  0  0  0  0  0  0  0
  138.0590   79.2019  221.0682 H   0  0  0  0  0  0  0  0  0  0  0  0
  139.1715   79.6052  219.7480 H   0  0  0  0  0  0  0  0  0  0  0  0
  139.4507   77.5885  223.2738 H   0  0  0  0  0  0  0  0  0  0  0  0
  138.4523   77.1725  221.8794 H   0  0  0  0  0  0  0  0  0  0  0  0
  140.8587   75.8322  222.8755 H   0  0  0  0  0  0  0  0  0  0  0  0
  139.8120   75.3329  221.5117 H   0  0  0  0  0  0  0  0  0  0  0  0
  140.7806   75.0481  219.7696 H   0  0  0  0  0  0  0  0  0  0  0  0
  142.7417   74.4333  221.5840 H   0  0  0  0  0  0  0  0  0  0  0  0
  142.7119   73.5439  220.0616 H   0  0  0  0  0  0  0  0  0  0  0  0
  144.5669   75.7211  220.9871 H   0  0  0  0  0  0  0  0  0  0  0  0
  144.8677   74.4324  219.7915 H   0  0  0  0  0  0  0  0  0  0  0  0
  144.1380   77.1190  219.3440 H   0  0  0  0  0  0  0  0  0  0  0  0
  144.4440   75.9030  218.1830 H   0  0  0  0  0  0  0  0  0  0  0  0
  142.0658   77.0958  218.5255 H   0  0  0  0  0  0  0  0  0  0  0  0
  142.2626   75.4553  217.8601 H   0  0  0  0  0  0  0  0  0  0  0  0
  141.8067   78.4506  220.0657 H   0  0  0  0  0  0  0  0  0  0  0  0
  140.3688   77.6059  219.4617 H   0  0  0  0  0  0  0  0  0  0  0  0
  142.4594   77.9876  223.0834 H   0  0  0  0  0  0  0  0  0  0  0  0
  143.6053   79.7491  224.4597 H   0  0  0  0  0  0  0  0  0  0  0  0
  142.7577   82.1031  224.4383 H   0  0  0  0  0  0  0  0  0  0  0  0
  140.7449   82.7048  223.0600 H   0  0  0  0  0  0  0  0  0  0  0  0
  137.3100   84.2300  222.8020 H   0  0  0  0  0  0  0  0  0  0  0  0
  136.0659   85.1387  225.0514 H   0  0  0  0  0  0  0  0  0  0  0  0
  1  2  1  0
  2  3  2  0
  2  4  1  0
  4  5  2  0
  5  6  1  0
  6  7  2  0
  7  8  1  0
  8  9  2  0
  9 10  1  0
 10 11  2  0
 10 12  1  0
 12 13  1  0
 14 13  1  6
 14 15  1  0
 15 16  1  0
 16 17  1  0
 17 18  1  0
 18 19  1  0
 19 20  1  0
 20 21  1  0
 21 22  1  0
 17 23  1  0
 14 24  1  0
 24 25  2  0
 25 26  1  0
 26 27  2  0
 27 28  1  0
 28 29  2  0
  9 30  1  0
 30 31  1  0
 31 32  2  0
 32  4  1  0
 31  7  1  0
 29 12  1  0
 23 14  1  0
 29 24  1  0
 22 18  1  0
  1 33  1  0
  5 34  1  0
  6 35  1  0
  8 36  1  0
 13 37  1  0
 13 38  1  0
 15 39  1  0
 15 40  1  0
 16 41  1  0
 16 42  1  0
 18 43  1  6
 19 44  1  0
 19 45  1  0
 20 46  1  0
 20 47  1  0
 21 48  1  0
 21 49  1  0
 22 50  1  0
 22 51  1  0
 23 52  1  0
 23 53  1  0
 25 54  1  0
 26 55  1  0
 27 56  1  0
 28 57  1  0
 30 58  1  0
 32 59  1  0
M  CHG  2   1  -1  21   1
M  END
>  <UniqueID>  (45) 
41

>  <SMILES>  (45) 
[NH-]C(=O)c1ccc2cc(C(=O)N3C[C@]4(CCN([C@@H]5CC[NH2+]C5)C4)c4ccccc43)[nH]c2c1

>  <Energy>  (45) 
127.27678864906035

>  <Genealogy>  (45) 
[NH-]C(=O)c1ccc2cc(C(=O)N3C[C@]4(CCN(C5CC[NH2+]C5)C4)c4ccccc43)[nH]c2c1 (protonated)
[NH-]C(=O)c1ccc2cc(C(=O)N3C[C@]4(CCN([C@@H]5CC[NH2+]C5)C4)c4ccccc43)[nH]c2c1 (chirality)
[NH-]C(=O)c1ccc2cc(C(=O)N3C[C@]4(CCN([C@@H]5CC[NH2+]C5)C4)c4ccccc43)[nH]c2c1 (3D coordinates assigned)
[NH-]C(=O)c1ccc2cc(C(=O)N3C[C@]4(CCN([C@@H]5CC[NH2+]C5)C4)c4ccccc43)[nH]c2c1 (nonaromatic ring conformer: 127.27678864906035 kcal/mol)

>  <smiles>  (45) 
NC(=O)c1ccc2cc(C(=O)N3C[C@]4(CCN(C5CCNC5)C4)c4ccccc43)[nH]c2c1

>  <score_type>  (45) 
oracle

>  <origin>  (45) 
autodockgpu

>  <m_score__min__energy>  (45) 
-9.8900000000000006

>  <m_primary>  (45) 
energy

>  <meeko>  (45) 
{"free_energy": -8.19, "intermolecular_energy": -9.68, "internal_energy": -1.19, "cluster_size": 1, "cluster_id": 5, "rank_in_cluster": 1}

>  <energy>  (45) 
-9.8

>  <cluster_rmsd>  (45) 
0.26

>  <rmsd>  (45) 
269.56

>  <cluster>  (45) 
1

$$$$
RRGBJOPXSUYLSO-MHFXRGQHNA-N
     RDKit          3D

 59 64  0  0  0  0  0  0  0  0999 V2000
  146.3230   73.0090  218.5640 N   0  0  0  0  0  0  0  0  0  0  0  0
  145.5610   72.1000  219.3560 C   0  0  0  0  0  0  0  0  0  0  0  0
  145.9930   70.9290  219.5350 O   0  0  0  0  0  0  0  0  0  0  0  0
  144.2800   72.5270  219.9670 C   0  0  0  0  0  0  0  0  0  0  0  0
  143.3880   71.5600  220.5100 C   0  0  0  0  0  0  0  0  0  0  0  0
  142.1740   71.9530  221.1000 C   0  0  0  0  0  0  0  0  0  0  0  0
  141.8770   73.3110  221.1380 C   0  0  0  0  0  0  0  0  0  0  0  0
  140.7780   73.9750  221.6380 C   0  0  0  0  0  0  0  0  0  0  0  0
  141.0290   75.3210  221.3920 C   0  0  0  0  0  0  0  0  0  0  0  0
  140.1070   76.4210  221.7300 C   0  0  0  0  0  0  0  0  0  0  0  0
  139.1190   76.1820  222.4760 O   0  0  0  0  0  0  0  0  0  0  0  0
  140.3350   77.7590  221.2550 N   0  0  0  0  0  0  0  0  0  0  0  0
  140.3770   78.1090  219.8300 C   0  0  0  0  0  0  0  0  0  0  0  0
  141.2310   79.4170  219.7270 C   0  0  1  0  0  0  0  0  0  0  0  0
  142.5080   79.2570  218.9090 C   0  0  0  0  0  0  0  0  0  0  0  0
  142.7070   80.6060  218.2170 C   0  0  0  0  0  0  0  0  0  0  0  0
  141.5540   81.4750  218.5370 N   0  0  0  0  0  0  0  0  0  0  0  0
  141.1100   82.2840  217.3690 C   0  0  2  0  0  0  0  0  0  0  0  0
  140.2270   81.4670  216.4300 C   0  0  0  0  0  0  0  0  0  0  0  0
  141.1990   80.7660  215.4930 C   0  0  0  0  0  0  0  0  0  0  0  0
  142.4650   81.5060  215.5270 N   0  0  0  0  0  0  0  0  0  0  0  0
  142.2790   82.6350  216.4440 C   0  0  0  0  0  0  0  0  0  0  0  0
  140.5070   80.5680  219.0310 C   0  0  0  0  0  0  0  0  0  0  0  0
  141.5310   79.7370  221.1670 C   0  0  0  0  0  0  0  0  0  0  0  0
  142.2320   80.8290  221.6940 C   0  0  0  0  0  0  0  0  0  0  0  0
  142.3870   80.9230  223.0850 C   0  0  0  0  0  0  0  0  0  0  0  0
  141.8390   79.9380  223.9250 C   0  0  0  0  0  0  0  0  0  0  0  0
  141.1420   78.8490  223.3790 C   0  0  0  0  0  0  0  0  0  0  0  0
  141.0140   78.7680  221.9870 C   0  0  0  0  0  0  0  0  0  0  0  0
  142.2140   75.4850  220.7580 N   0  0  0  0  0  0  0  0  0  0  0  0
  142.7230   74.2490  220.6140 C   0  0  0  0  0  0  0  0  0  0  0  0
  143.9320   73.8980  220.0160 C   0  0  0  0  0  0  0  0  0  0  0  0
  146.1590   74.0390  218.6230 H   0  0  0  0  0  0  0  0  0  0  0  0
  143.6515   70.4929  220.4675 H   0  0  0  0  0  0  0  0  0  0  0  0
  141.4803   71.2091  221.5188 H   0  0  0  0  0  0  0  0  0  0  0  0
  139.8948   73.5364  222.1254 H   0  0  0  0  0  0  0  0  0  0  0  0
  140.8475   77.2998  219.2522 H   0  0  0  0  0  0  0  0  0  0  0  0
  139.3657   78.2573  219.4235 H   0  0  0  0  0  0  0  0  0  0  0  0
  143.3612   79.0295  219.5649 H   0  0  0  0  0  0  0  0  0  0  0  0
  142.4355   78.4296  218.1878 H   0  0  0  0  0  0  0  0  0  0  0  0
  143.6350   81.0740  218.5773 H   0  0  0  0  0  0  0  0  0  0  0  0
  142.7793   80.4631  217.1287 H   0  0  0  0  0  0  0  0  0  0  0  0
  140.6133   83.1578  217.8160 H   0  0  0  0  0  0  0  0  0  0  0  0
  139.6360   80.7318  216.9959 H   0  0  0  0  0  0  0  0  0  0  0  0
  139.5067   82.0957  215.8860 H   0  0  0  0  0  0  0  0  0  0  0  0
  141.3612   79.7308  215.8278 H   0  0  0  0  0  0  0  0  0  0  0  0
  140.7960   80.7397  214.4698 H   0  0  0  0  0  0  0  0  0  0  0  0
  143.2310   80.8880  215.8840 H   0  0  0  0  0  0  0  0  0  0  0  0
  142.7160   81.8510  214.5700 H   0  0  0  0  0  0  0  0  0  0  0  0
  143.1926   82.7935  217.0358 H   0  0  0  0  0  0  0  0  0  0  0  0
  142.0693   83.5592  215.8856 H   0  0  0  0  0  0  0  0  0  0  0  0
  139.8531   81.0929  219.7430 H   0  0  0  0  0  0  0  0  0  0  0  0
  139.8733   80.2033  218.2092 H   0  0  0  0  0  0  0  0  0  0  0  0
  142.6529   81.5982  221.0298 H   0  0  0  0  0  0  0  0  0  0  0  0
  142.9387   81.7696  223.5196 H   0  0  0  0  0  0  0  0  0  0  0  0
  141.9570   80.0211  225.0155 H   0  0  0  0  0  0  0  0  0  0  0  0
  140.7062   78.0767  224.0298 H   0  0  0  0  0  0  0  0  0  0  0  0
  142.6350   76.3740  220.4080 H   0  0  0  0  0  0  0  0  0  0  0  0
  144.5974   74.6654  219.5938 H   0  0  0  0  0  0  0  0  0  0  0  0
  1  2  1  0
  2  3  2  0
  2  4  1  0
  4  5  2  0
  5  6  1  0
  6  7  2  0
  7  8  1  0
  8  9  2  0
  9 10  1  0
 10 11  2  0
 10 12  1  0
 12 13  1  0
 14 13  1  1
 14 15  1  0
 15 16  1  0
 16 17  1  0
 17 18  1  0
 18 19  1  0
 19 20  1  0
 20 21  1  0
 21 22  1  0
 17 23  1  0
 14 24  1  0
 24 25  2  0
 25 26  1  0
 26 27  2  0
 27 28  1  0
 28 29  2  0
  9 30  1  0
 30 31  1  0
 31 32  2  0
 32  4  1  0
 31  7  1  0
 29 12  1  0
 23 14  1  0
 29 24  1  0
 22 18  1  0
  1 33  1  0
  5 34  1  0
  6 35  1  0
  8 36  1  0
 13 37  1  0
 13 38  1  0
 15 39  1  0
 15 40  1  0
 16 41  1  0
 16 42  1  0
 18 43  1  1
 19 44  1  0
 19 45  1  0
 20 46  1  0
 20 47  1  0
 21 48  1  0
 21 49  1  0
 22 50  1  0
 22 51  1  0
 23 52  1  0
 23 53  1  0
 25 54  1  0
 26 55  1  0
 27 56  1  0
 28 57  1  0
 30 58  1  0
 32 59  1  0
M  CHG  2   1  -1  21   1
M  END
>  <UniqueID>  (46) 
41

>  <SMILES>  (46) 
[NH-]C(=O)c1ccc2cc(C(=O)N3C[C@]4(CCN([C@@H]5CC[NH2+]C5)C4)c4ccccc43)[nH]c2c1

>  <Energy>  (46) 
127.27678864906035

>  <Genealogy>  (46) 
[NH-]C(=O)c1ccc2cc(C(=O)N3C[C@]4(CCN(C5CC[NH2+]C5)C4)c4ccccc43)[nH]c2c1 (protonated)
[NH-]C(=O)c1ccc2cc(C(=O)N3C[C@]4(CCN([C@@H]5CC[NH2+]C5)C4)c4ccccc43)[nH]c2c1 (chirality)
[NH-]C(=O)c1ccc2cc(C(=O)N3C[C@]4(CCN([C@@H]5CC[NH2+]C5)C4)c4ccccc43)[nH]c2c1 (3D coordinates assigned)
[NH-]C(=O)c1ccc2cc(C(=O)N3C[C@]4(CCN([C@@H]5CC[NH2+]C5)C4)c4ccccc43)[nH]c2c1 (nonaromatic ring conformer: 127.27678864906035 kcal/mol)

>  <smiles>  (46) 
NC(=O)c1ccc2cc(C(=O)N3C[C@]4(CCN(C5CCNC5)C4)c4ccccc43)[nH]c2c1

>  <score_type>  (46) 
oracle

>  <origin>  (46) 
autodockgpu

>  <m_score__min__energy>  (46) 
-9.8900000000000006

>  <m_primary>  (46) 
energy

>  <meeko>  (46) 
{"free_energy": -9.82, "intermolecular_energy": -11.32, "internal_energy": -0.87, "cluster_size": 16, "cluster_id": 1, "rank_in_cluster": 3}

>  <energy>  (46) 
-9.79

>  <cluster_rmsd>  (46) 
0.28

>  <rmsd>  (46) 
269.54

>  <cluster>  (46) 
1

$$$$
RRGBJOPXSUYLSO-MHFXRGQHNA-N
     RDKit          3D

 59 64  0  0  0  0  0  0  0  0999 V2000
  146.0580   70.7810  219.2720 N   0  0  0  0  0  0  0  0  0  0  0  0
  145.7820   72.1460  219.5800 C   0  0  0  0  0  0  0  0  0  0  0  0
  146.6870   73.0080  219.4180 O   0  0  0  0  0  0  0  0  0  0  0  0
  144.4460   72.5490  220.0780 C   0  0  0  0  0  0  0  0  0  0  0  0
  143.4950   71.5600  220.4570 C   0  0  0  0  0  0  0  0  0  0  0  0
  142.2270   71.9280  220.9400 C   0  0  0  0  0  0  0  0  0  0  0  0
  141.9360   73.2840  221.0370 C   0  0  0  0  0  0  0  0  0  0  0  0
  140.7930   73.9280  221.4630 C   0  0  0  0  0  0  0  0  0  0  0  0
  141.0770   75.2850  221.3360 C   0  0  0  0  0  0  0  0  0  0  0  0
  140.1310   76.3710  221.6480 C   0  0  0  0  0  0  0  0  0  0  0  0
  139.1260   76.1190  222.3640 O   0  0  0  0  0  0  0  0  0  0  0  0
  140.3550   77.7130  221.1810 N   0  0  0  0  0  0  0  0  0  0  0  0
  140.4150   78.0690  219.7580 C   0  0  0  0  0  0  0  0  0  0  0  0
  141.2590   79.3840  219.6710 C   0  0  1  0  0  0  0  0  0  0  0  0
  142.5490   79.2380  218.8710 C   0  0  0  0  0  0  0  0  0  0  0  0
  142.7460   80.5910  218.1870 C   0  0  0  0  0  0  0  0  0  0  0  0
  141.5820   81.4490  218.4940 N   0  0  0  0  0  0  0  0  0  0  0  0
  141.1480   82.2590  217.3230 C   0  0  2  0  0  0  0  0  0  0  0  0
  140.2910   81.4360  216.3660 C   0  0  0  0  0  0  0  0  0  0  0  0
  141.2860   80.7520  215.4410 C   0  0  0  0  0  0  0  0  0  0  0  0
  142.5430   81.5070  215.5000 N   0  0  0  0  0  0  0  0  0  0  0  0
  142.3270   82.6290  216.4190 C   0  0  0  0  0  0  0  0  0  0  0  0
  140.5360   80.5310  218.9700 C   0  0  0  0  0  0  0  0  0  0  0  0
  141.5370   79.7010  221.1170 C   0  0  0  0  0  0  0  0  0  0  0  0
  142.2210   80.7970  221.6580 C   0  0  0  0  0  0  0  0  0  0  0  0
  142.3550   80.8870  223.0510 C   0  0  0  0  0  0  0  0  0  0  0  0
  141.8040   79.8940  223.8800 C   0  0  0  0  0  0  0  0  0  0  0  0
  141.1240   78.8020  223.3200 C   0  0  0  0  0  0  0  0  0  0  0  0
  141.0160   78.7250  221.9260 C   0  0  0  0  0  0  0  0  0  0  0  0
  142.3250   75.4750  220.8440 N   0  0  0  0  0  0  0  0  0  0  0  0
  142.8390   74.2440  220.6720 C   0  0  0  0  0  0  0  0  0  0  0  0
  144.1020   73.9180  220.1830 C   0  0  0  0  0  0  0  0  0  0  0  0
  146.9560   70.5050  218.8180 H   0  0  0  0  0  0  0  0  0  0  0  0
  143.7554   70.4947  220.3709 H   0  0  0  0  0  0  0  0  0  0  0  0
  141.4884   71.1670  221.2320 H   0  0  0  0  0  0  0  0  0  0  0  0
  139.8606   73.4695  221.8242 H   0  0  0  0  0  0  0  0  0  0  0  0
  140.9006   77.2658  219.1843 H   0  0  0  0  0  0  0  0  0  0  0  0
  139.4083   78.2108  219.3379 H   0  0  0  0  0  0  0  0  0  0  0  0
  143.3946   79.0154  219.5383 H   0  0  0  0  0  0  0  0  0  0  0  0
  142.4942   78.4127  218.1459 H   0  0  0  0  0  0  0  0  0  0  0  0
  143.6650   81.0653  218.5618 H   0  0  0  0  0  0  0  0  0  0  0  0
  142.8343   80.4527  217.0993 H   0  0  0  0  0  0  0  0  0  0  0  0
  140.6340   83.1247  217.7662 H   0  0  0  0  0  0  0  0  0  0  0  0
  139.7004   80.6905  216.9187 H   0  0  0  0  0  0  0  0  0  0  0  0
  139.5719   82.0587  215.8136 H   0  0  0  0  0  0  0  0  0  0  0  0
  141.4550   79.7168  215.7724 H   0  0  0  0  0  0  0  0  0  0  0  0
  140.9000   80.7269  214.4113 H   0  0  0  0  0  0  0  0  0  0  0  0
  143.3090   80.8950  215.8660 H   0  0  0  0  0  0  0  0  0  0  0  0
  142.8050   81.8590  214.5490 H   0  0  0  0  0  0  0  0  0  0  0  0
  143.2286   82.7965  217.0265 H   0  0  0  0  0  0  0  0  0  0  0  0
  142.1141   83.5529  215.8612 H   0  0  0  0  0  0  0  0  0  0  0  0
  139.8679   81.0475  219.6749 H   0  0  0  0  0  0  0  0  0  0  0  0
  139.9171   80.1642  218.1379 H   0  0  0  0  0  0  0  0  0  0  0  0
  142.6449   81.5722  221.0028 H   0  0  0  0  0  0  0  0  0  0  0  0
  142.8927   81.7370  223.4964 H   0  0  0  0  0  0  0  0  0  0  0  0
  141.9065   79.9736  224.9723 H   0  0  0  0  0  0  0  0  0  0  0  0
  140.6854   78.0236  223.9617 H   0  0  0  0  0  0  0  0  0  0  0  0
  142.7850   76.3790  220.6020 H   0  0  0  0  0  0  0  0  0  0  0  0
  144.8129   74.7033  219.8864 H   0  0  0  0  0  0  0  0  0  0  0  0
  1  2  1  0
  2  3  2  0
  2  4  1  0
  4  5  2  0
  5  6  1  0
  6  7  2  0
  7  8  1  0
  8  9  2  0
  9 10  1  0
 10 11  2  0
 10 12  1  0
 12 13  1  0
 14 13  1  1
 14 15  1  0
 15 16  1  0
 16 17  1  0
 17 18  1  0
 18 19  1  0
 19 20  1  0
 20 21  1  0
 21 22  1  0
 17 23  1  0
 14 24  1  0
 24 25  2  0
 25 26  1  0
 26 27  2  0
 27 28  1  0
 28 29  2  0
  9 30  1  0
 30 31  1  0
 31 32  2  0
 32  4  1  0
 31  7  1  0
 29 12  1  0
 23 14  1  0
 29 24  1  0
 22 18  1  0
  1 33  1  0
  5 34  1  0
  6 35  1  0
  8 36  1  0
 13 37  1  0
 13 38  1  0
 15 39  1  0
 15 40  1  0
 16 41  1  0
 16 42  1  0
 18 43  1  1
 19 44  1  0
 19 45  1  0
 20 46  1  0
 20 47  1  0
 21 48  1  0
 21 49  1  0
 22 50  1  0
 22 51  1  0
 23 52  1  0
 23 53  1  0
 25 54  1  0
 26 55  1  0
 27 56  1  0
 28 57  1  0
 30 58  1  0
 32 59  1  0
M  CHG  2   1  -1  21   1
M  END
>  <UniqueID>  (47) 
41

>  <SMILES>  (47) 
[NH-]C(=O)c1ccc2cc(C(=O)N3C[C@]4(CCN([C@@H]5CC[NH2+]C5)C4)c4ccccc43)[nH]c2c1

>  <Energy>  (47) 
127.27678864906035

>  <Genealogy>  (47) 
[NH-]C(=O)c1ccc2cc(C(=O)N3C[C@]4(CCN(C5CC[NH2+]C5)C4)c4ccccc43)[nH]c2c1 (protonated)
[NH-]C(=O)c1ccc2cc(C(=O)N3C[C@]4(CCN([C@@H]5CC[NH2+]C5)C4)c4ccccc43)[nH]c2c1 (chirality)
[NH-]C(=O)c1ccc2cc(C(=O)N3C[C@]4(CCN([C@@H]5CC[NH2+]C5)C4)c4ccccc43)[nH]c2c1 (3D coordinates assigned)
[NH-]C(=O)c1ccc2cc(C(=O)N3C[C@]4(CCN([C@@H]5CC[NH2+]C5)C4)c4ccccc43)[nH]c2c1 (nonaromatic ring conformer: 127.27678864906035 kcal/mol)

>  <smiles>  (47) 
NC(=O)c1ccc2cc(C(=O)N3C[C@]4(CCN(C5CCNC5)C4)c4ccccc43)[nH]c2c1

>  <score_type>  (47) 
oracle

>  <origin>  (47) 
autodockgpu

>  <m_score__min__energy>  (47) 
-9.8900000000000006

>  <m_primary>  (47) 
energy

>  <meeko>  (47) 
{"free_energy": -9.45, "intermolecular_energy": -10.95, "internal_energy": -0.87, "cluster_size": 16, "cluster_id": 1, "rank_in_cluster": 13}

>  <energy>  (47) 
-9.78

>  <cluster_rmsd>  (47) 
0.25

>  <rmsd>  (47) 
269.58

>  <cluster>  (47) 
1

$$$$
RRGBJOPXSUYLSO-MHFXRGQHNA-N
     RDKit          3D

 59 64  0  0  0  0  0  0  0  0999 V2000
  146.6940   73.0080  219.3520 N   0  0  0  0  0  0  0  0  0  0  0  0
  145.6690   72.0440  219.5860 C   0  0  0  0  0  0  0  0  0  0  0  0
  145.9150   70.8240  219.3870 O   0  0  0  0  0  0  0  0  0  0  0  0
  144.3320   72.4700  220.0630 C   0  0  0  0  0  0  0  0  0  0  0  0
  143.3460   71.4990  220.3920 C   0  0  0  0  0  0  0  0  0  0  0  0
  142.0760   71.8900  220.8530 C   0  0  0  0  0  0  0  0  0  0  0  0
  141.8200   73.2510  220.9800 C   0  0  0  0  0  0  0  0  0  0  0  0
  140.6860   73.9150  221.3940 C   0  0  0  0  0  0  0  0  0  0  0  0
  141.0100   75.2660  221.3100 C   0  0  0  0  0  0  0  0  0  0  0  0
  140.0860   76.3700  221.6280 C   0  0  0  0  0  0  0  0  0  0  0  0
  139.0820   76.1370  222.3520 O   0  0  0  0  0  0  0  0  0  0  0  0
  140.3310   77.7070  221.1580 N   0  0  0  0  0  0  0  0  0  0  0  0
  140.4080   78.0570  219.7350 C   0  0  0  0  0  0  0  0  0  0  0  0
  141.2690   79.3600  219.6500 C   0  0  1  0  0  0  0  0  0  0  0  0
  142.5640   79.1940  218.8610 C   0  0  0  0  0  0  0  0  0  0  0  0
  142.7850   80.5420  218.1740 C   0  0  0  0  0  0  0  0  0  0  0  0
  141.6290   81.4170  218.4680 N   0  0  0  0  0  0  0  0  0  0  0  0
  141.2150   82.2280  217.2910 C   0  0  2  0  0  0  0  0  0  0  0  0
  140.3110   81.4300  216.3570 C   0  0  0  0  0  0  0  0  0  0  0  0
  141.2630   80.6890  215.4300 C   0  0  0  0  0  0  0  0  0  0  0  0
  142.5520   81.3890  215.4620 N   0  0  0  0  0  0  0  0  0  0  0  0
  142.3980   82.5330  216.3660 C   0  0  0  0  0  0  0  0  0  0  0  0
  140.5670   80.5150  218.9390 C   0  0  0  0  0  0  0  0  0  0  0  0
  141.5390   79.6790  221.0970 C   0  0  0  0  0  0  0  0  0  0  0  0
  142.2340   80.7680  221.6390 C   0  0  0  0  0  0  0  0  0  0  0  0
  142.3580   80.8610  223.0340 C   0  0  0  0  0  0  0  0  0  0  0  0
  141.7870   79.8790  223.8620 C   0  0  0  0  0  0  0  0  0  0  0  0
  141.0970   78.7940  223.3000 C   0  0  0  0  0  0  0  0  0  0  0  0
  140.9990   78.7130  221.9050 C   0  0  0  0  0  0  0  0  0  0  0  0
  142.2740   75.4340  220.8550 N   0  0  0  0  0  0  0  0  0  0  0  0
  142.7580   74.1940  220.6620 C   0  0  0  0  0  0  0  0  0  0  0  0
  144.0240   73.8450  220.1960 C   0  0  0  0  0  0  0  0  0  0  0  0
  146.5480   73.7940  218.6810 H   0  0  0  0  0  0  0  0  0  0  0  0
  143.5795   70.4295  220.2846 H   0  0  0  0  0  0  0  0  0  0  0  0
  141.3093   71.1427  221.1052 H   0  0  0  0  0  0  0  0  0  0  0  0
  139.7326   73.4737  221.7198 H   0  0  0  0  0  0  0  0  0  0  0  0
  140.8881   77.2455  219.1685 H   0  0  0  0  0  0  0  0  0  0  0  0
  139.4068   78.2104  219.3060 H   0  0  0  0  0  0  0  0  0  0  0  0
  143.4010   78.9624  219.5361 H   0  0  0  0  0  0  0  0  0  0  0  0
  142.5041   78.3670  218.1382 H   0  0  0  0  0  0  0  0  0  0  0  0
  143.7069   81.0054  218.5552 H   0  0  0  0  0  0  0  0  0  0  0  0
  142.8810   80.3987  217.0876 H   0  0  0  0  0  0  0  0  0  0  0  0
  140.7447   83.1213  217.7279 H   0  0  0  0  0  0  0  0  0  0  0  0
  139.6953   80.7194  216.9279 H   0  0  0  0  0  0  0  0  0  0  0  0
  139.6133   82.0760  215.8039 H   0  0  0  0  0  0  0  0  0  0  0  0
  141.3909   79.6524  215.7751 H   0  0  0  0  0  0  0  0  0  0  0  0
  140.8628   80.6654  214.4056 H   0  0  0  0  0  0  0  0  0  0  0  0
  143.2960   80.7500  215.8270 H   0  0  0  0  0  0  0  0  0  0  0  0
  142.8170   81.7160  214.5020 H   0  0  0  0  0  0  0  0  0  0  0  0
  143.3141   82.6697  216.9594 H   0  0  0  0  0  0  0  0  0  0  0  0
  142.2187   83.4571  215.7970 H   0  0  0  0  0  0  0  0  0  0  0  0
  139.9006   81.0431  219.6369 H   0  0  0  0  0  0  0  0  0  0  0  0
  139.9498   80.1537  218.1032 H   0  0  0  0  0  0  0  0  0  0  0  0
  142.6737   81.5349  220.9844 H   0  0  0  0  0  0  0  0  0  0  0  0
  142.9038   81.7051  223.4808 H   0  0  0  0  0  0  0  0  0  0  0  0
  141.8814   79.9614  224.9548 H   0  0  0  0  0  0  0  0  0  0  0  0
  140.6430   78.0239  223.9409 H   0  0  0  0  0  0  0  0  0  0  0  0
  142.7650   76.3310  220.6480 H   0  0  0  0  0  0  0  0  0  0  0  0
  144.7639   74.6172  219.9385 H   0  0  0  0  0  0  0  0  0  0  0  0
  1  2  1  0
  2  3  2  0
  2  4  1  0
  4  5  2  0
  5  6  1  0
  6  7  2  0
  7  8  1  0
  8  9  2  0
  9 10  1  0
 10 11  2  0
 10 12  1  0
 12 13  1  0
 14 13  1  1
 14 15  1  0
 15 16  1  0
 16 17  1  0
 17 18  1  0
 18 19  1  0
 19 20  1  0
 20 21  1  0
 21 22  1  0
 17 23  1  0
 14 24  1  0
 24 25  2  0
 25 26  1  0
 26 27  2  0
 27 28  1  0
 28 29  2  0
  9 30  1  0
 30 31  1  0
 31 32  2  0
 32  4  1  0
 31  7  1  0
 29 12  1  0
 23 14  1  0
 29 24  1  0
 22 18  1  0
  1 33  1  0
  5 34  1  0
  6 35  1  0
  8 36  1  0
 13 37  1  0
 13 38  1  0
 15 39  1  0
 15 40  1  0
 16 41  1  0
 16 42  1  0
 18 43  1  1
 19 44  1  0
 19 45  1  0
 20 46  1  0
 20 47  1  0
 21 48  1  0
 21 49  1  0
 22 50  1  0
 22 51  1  0
 23 52  1  0
 23 53  1  0
 25 54  1  0
 26 55  1  0
 27 56  1  0
 28 57  1  0
 30 58  1  0
 32 59  1  0
M  CHG  2   1  -1  21   1
M  END
>  <UniqueID>  (48) 
41

>  <SMILES>  (48) 
[NH-]C(=O)c1ccc2cc(C(=O)N3C[C@]4(CCN([C@@H]5CC[NH2+]C5)C4)c4ccccc43)[nH]c2c1

>  <Energy>  (48) 
127.27678864906035

>  <Genealogy>  (48) 
[NH-]C(=O)c1ccc2cc(C(=O)N3C[C@]4(CCN(C5CC[NH2+]C5)C4)c4ccccc43)[nH]c2c1 (protonated)
[NH-]C(=O)c1ccc2cc(C(=O)N3C[C@]4(CCN([C@@H]5CC[NH2+]C5)C4)c4ccccc43)[nH]c2c1 (chirality)
[NH-]C(=O)c1ccc2cc(C(=O)N3C[C@]4(CCN([C@@H]5CC[NH2+]C5)C4)c4ccccc43)[nH]c2c1 (3D coordinates assigned)
[NH-]C(=O)c1ccc2cc(C(=O)N3C[C@]4(CCN([C@@H]5CC[NH2+]C5)C4)c4ccccc43)[nH]c2c1 (nonaromatic ring conformer: 127.27678864906035 kcal/mol)

>  <smiles>  (48) 
NC(=O)c1ccc2cc(C(=O)N3C[C@]4(CCN(C5CCNC5)C4)c4ccccc43)[nH]c2c1

>  <score_type>  (48) 
oracle

>  <origin>  (48) 
autodockgpu

>  <m_score__min__energy>  (48) 
-9.8900000000000006

>  <m_primary>  (48) 
energy

>  <meeko>  (48) 
{"free_energy": -9.79, "intermolecular_energy": -11.28, "internal_energy": -0.88, "cluster_size": 16, "cluster_id": 1, "rank_in_cluster": 6}

>  <energy>  (48) 
-9.75

>  <cluster_rmsd>  (48) 
1.79

>  <rmsd>  (48) 
269.08

>  <cluster>  (48) 
1

$$$$
RRGBJOPXSUYLSO-MHFXRGQHNA-N
     RDKit          3D

 59 64  0  0  0  0  0  0  0  0999 V2000
  146.6910   73.0070  219.3400 N   0  0  0  0  0  0  0  0  0  0  0  0
  145.6580   72.0480  219.5570 C   0  0  0  0  0  0  0  0  0  0  0  0
  145.8830   70.8340  219.3050 O   0  0  0  0  0  0  0  0  0  0  0  0
  144.3370   72.4720  220.0770 C   0  0  0  0  0  0  0  0  0  0  0  0
  143.3860   71.5000  220.4950 C   0  0  0  0  0  0  0  0  0  0  0  0
  142.1320   71.8890  220.9990 C   0  0  0  0  0  0  0  0  0  0  0  0
  141.8550   73.2490  221.0760 C   0  0  0  0  0  0  0  0  0  0  0  0
  140.7280   73.9110  221.5140 C   0  0  0  0  0  0  0  0  0  0  0  0
  141.0210   75.2620  221.3550 C   0  0  0  0  0  0  0  0  0  0  0  0
  140.0920   76.3630  221.6660 C   0  0  0  0  0  0  0  0  0  0  0  0
  139.0840   76.1270  222.3850 O   0  0  0  0  0  0  0  0  0  0  0  0
  140.3340   77.7000  221.1960 N   0  0  0  0  0  0  0  0  0  0  0  0
  140.3920   78.0540  219.7730 C   0  0  0  0  0  0  0  0  0  0  0  0
  141.2560   79.3550  219.6800 C   0  0  1  0  0  0  0  0  0  0  0  0
  142.5390   79.1870  218.8720 C   0  0  0  0  0  0  0  0  0  0  0  0
  142.7540   80.5360  218.1860 C   0  0  0  0  0  0  0  0  0  0  0  0
  141.6060   81.4130  218.4970 N   0  0  0  0  0  0  0  0  0  0  0  0
  141.1780   82.2280  217.3280 C   0  0  2  0  0  0  0  0  0  0  0  0
  140.3060   81.4170  216.3740 C   0  0  0  0  0  0  0  0  0  0  0  0
  141.2890   80.7190  215.4460 C   0  0  0  0  0  0  0  0  0  0  0  0
  142.5560   81.4570  215.5000 N   0  0  0  0  0  0  0  0  0  0  0  0
  142.3590   82.5820  216.4190 C   0  0  0  0  0  0  0  0  0  0  0  0
  140.5480   80.5130  218.9810 C   0  0  0  0  0  0  0  0  0  0  0  0
  141.5470   79.6690  221.1230 C   0  0  0  0  0  0  0  0  0  0  0  0
  142.2530   80.7550  221.6590 C   0  0  0  0  0  0  0  0  0  0  0  0
  142.3960   80.8440  223.0510 C   0  0  0  0  0  0  0  0  0  0  0  0
  141.8330   79.8610  223.8840 C   0  0  0  0  0  0  0  0  0  0  0  0
  141.1320   78.7790  223.3290 C   0  0  0  0  0  0  0  0  0  0  0  0
  141.0150   78.7020  221.9360 C   0  0  0  0  0  0  0  0  0  0  0  0
  142.2590   75.4310  220.8320 N   0  0  0  0  0  0  0  0  0  0  0  0
  142.7580   74.1930  220.6720 C   0  0  0  0  0  0  0  0  0  0  0  0
  144.0080   73.8460  220.1620 C   0  0  0  0  0  0  0  0  0  0  0  0
  146.5790   73.7660  218.6310 H   0  0  0  0  0  0  0  0  0  0  0  0
  143.6346   70.4309  220.4231 H   0  0  0  0  0  0  0  0  0  0  0  0
  141.3935   71.1405  221.3221 H   0  0  0  0  0  0  0  0  0  0  0  0
  139.7998   73.4680  221.9041 H   0  0  0  0  0  0  0  0  0  0  0  0
  140.8616   77.2428  219.1974 H   0  0  0  0  0  0  0  0  0  0  0  0
  139.3854   78.2116  219.3585 H   0  0  0  0  0  0  0  0  0  0  0  0
  143.3849   78.9509  219.5343 H   0  0  0  0  0  0  0  0  0  0  0  0
  142.4662   78.3622  218.1479 H   0  0  0  0  0  0  0  0  0  0  0  0
  143.6822   80.9959  218.5561 H   0  0  0  0  0  0  0  0  0  0  0  0
  142.8345   80.3950  217.0980 H   0  0  0  0  0  0  0  0  0  0  0  0
  140.6770   83.1002  217.7733 H   0  0  0  0  0  0  0  0  0  0  0  0
  139.7068   80.6799  216.9287 H   0  0  0  0  0  0  0  0  0  0  0  0
  139.5936   82.0494  215.8239 H   0  0  0  0  0  0  0  0  0  0  0  0
  141.4453   79.6819  215.7777 H   0  0  0  0  0  0  0  0  0  0  0  0
  140.8992   80.6984  214.4176 H   0  0  0  0  0  0  0  0  0  0  0  0
  143.3150   80.8360  215.8630 H   0  0  0  0  0  0  0  0  0  0  0  0
  142.8190   81.8060  214.5480 H   0  0  0  0  0  0  0  0  0  0  0  0
  143.2651   82.7375  217.0229 H   0  0  0  0  0  0  0  0  0  0  0  0
  142.1567   83.5085  215.8617 H   0  0  0  0  0  0  0  0  0  0  0  0
  139.8928   81.0417  219.6889 H   0  0  0  0  0  0  0  0  0  0  0  0
  139.9184   80.1550  218.1531 H   0  0  0  0  0  0  0  0  0  0  0  0
  142.6863   81.5222  221.0005 H   0  0  0  0  0  0  0  0  0  0  0  0
  142.9502   81.6853  223.4927 H   0  0  0  0  0  0  0  0  0  0  0  0
  141.9424   79.9403  224.9757 H   0  0  0  0  0  0  0  0  0  0  0  0
  140.6845   78.0086  223.9742 H   0  0  0  0  0  0  0  0  0  0  0  0
  142.7220   76.3270  220.5620 H   0  0  0  0  0  0  0  0  0  0  0  0
  144.7191   74.6187  219.8346 H   0  0  0  0  0  0  0  0  0  0  0  0
  1  2  1  0
  2  3  2  0
  2  4  1  0
  4  5  2  0
  5  6  1  0
  6  7  2  0
  7  8  1  0
  8  9  2  0
  9 10  1  0
 10 11  2  0
 10 12  1  0
 12 13  1  0
 14 13  1  1
 14 15  1  0
 15 16  1  0
 16 17  1  0
 17 18  1  0
 18 19  1  0
 19 20  1  0
 20 21  1  0
 21 22  1  0
 17 23  1  0
 14 24  1  0
 24 25  2  0
 25 26  1  0
 26 27  2  0
 27 28  1  0
 28 29  2  0
  9 30  1  0
 30 31  1  0
 31 32  2  0
 32  4  1  0
 31  7  1  0
 29 12  1  0
 23 14  1  0
 29 24  1  0
 22 18  1  0
  1 33  1  0
  5 34  1  0
  6 35  1  0
  8 36  1  0
 13 37  1  0
 13 38  1  0
 15 39  1  0
 15 40  1  0
 16 41  1  0
 16 42  1  0
 18 43  1  1
 19 44  1  0
 19 45  1  0
 20 46  1  0
 20 47  1  0
 21 48  1  0
 21 49  1  0
 22 50  1  0
 22 51  1  0
 23 52  1  0
 23 53  1  0
 25 54  1  0
 26 55  1  0
 27 56  1  0
 28 57  1  0
 30 58  1  0
 32 59  1  0
M  CHG  2   1  -1  21   1
M  END
>  <UniqueID>  (49) 
41

>  <SMILES>  (49) 
[NH-]C(=O)c1ccc2cc(C(=O)N3C[C@]4(CCN([C@@H]5CC[NH2+]C5)C4)c4ccccc43)[nH]c2c1

>  <Energy>  (49) 
127.27678864906035

>  <Genealogy>  (49) 
[NH-]C(=O)c1ccc2cc(C(=O)N3C[C@]4(CCN(C5CC[NH2+]C5)C4)c4ccccc43)[nH]c2c1 (protonated)
[NH-]C(=O)c1ccc2cc(C(=O)N3C[C@]4(CCN([C@@H]5CC[NH2+]C5)C4)c4ccccc43)[nH]c2c1 (chirality)
[NH-]C(=O)c1ccc2cc(C(=O)N3C[C@]4(CCN([C@@H]5CC[NH2+]C5)C4)c4ccccc43)[nH]c2c1 (3D coordinates assigned)
[NH-]C(=O)c1ccc2cc(C(=O)N3C[C@]4(CCN([C@@H]5CC[NH2+]C5)C4)c4ccccc43)[nH]c2c1 (nonaromatic ring conformer: 127.27678864906035 kcal/mol)

>  <smiles>  (49) 
NC(=O)c1ccc2cc(C(=O)N3C[C@]4(CCN(C5CCNC5)C4)c4ccccc43)[nH]c2c1

>  <score_type>  (49) 
oracle

>  <origin>  (49) 
autodockgpu

>  <m_score__min__energy>  (49) 
-9.8900000000000006

>  <m_primary>  (49) 
energy

>  <meeko>  (49) 
{"free_energy": -9.8, "intermolecular_energy": -11.29, "internal_energy": -0.86, "cluster_size": 16, "cluster_id": 1, "rank_in_cluster": 5}

>  <energy>  (49) 
-9.74

>  <cluster_rmsd>  (49) 
1.79

>  <rmsd>  (49) 
269.04

>  <cluster>  (49) 
1

$$$$
RRGBJOPXSUYLSO-MHFXRGQHNA-N
     RDKit          3D

 59 64  0  0  0  0  0  0  0  0999 V2000
  146.5980   69.5770  218.1230 N   0  0  0  0  0  0  0  0  0  0  0  0
  145.6770   69.6860  219.2070 C   0  0  0  0  0  0  0  0  0  0  0  0
  145.3070   68.6410  219.8060 O   0  0  0  0  0  0  0  0  0  0  0  0
  145.1650   71.0110  219.6270 C   0  0  0  0  0  0  0  0  0  0  0  0
  146.0630   72.0990  219.8180 C   0  0  0  0  0  0  0  0  0  0  0  0
  145.5900   73.3640  220.2080 C   0  0  0  0  0  0  0  0  0  0  0  0
  144.2210   73.5170  220.3960 C   0  0  0  0  0  0  0  0  0  0  0  0
  143.4860   74.6190  220.7770 C   0  0  0  0  0  0  0  0  0  0  0  0
  142.1660   74.1790  220.8040 C   0  0  0  0  0  0  0  0  0  0  0  0
  141.0130   75.0120  221.1900 C   0  0  0  0  0  0  0  0  0  0  0  0
  140.1410   74.5280  221.9610 O   0  0  0  0  0  0  0  0  0  0  0  0
  140.8850   76.3690  220.7310 N   0  0  0  0  0  0  0  0  0  0  0  0
  140.9680   76.7500  219.3170 C   0  0  0  0  0  0  0  0  0  0  0  0
  141.4070   78.2520  219.2930 C   0  0  1  0  0  0  0  0  0  0  0  0
  142.7510   78.4920  218.6130 C   0  0  0  0  0  0  0  0  0  0  0  0
  142.6150   79.8560  217.9370 C   0  0  0  0  0  0  0  0  0  0  0  0
  141.2320   80.3420  218.1280 N   0  0  0  0  0  0  0  0  0  0  0  0
  140.6900   81.0130  216.9160 C   0  0  2  0  0  0  0  0  0  0  0  0
  140.2510   79.9960  215.8670 C   0  0  0  0  0  0  0  0  0  0  0  0
  141.5070   79.6970  215.0620 C   0  0  0  0  0  0  0  0  0  0  0  0
  142.4420   80.8100  215.2640 N   0  0  0  0  0  0  0  0  0  0  0  0
  141.7810   81.7710  216.1520 C   0  0  0  0  0  0  0  0  0  0  0  0
  140.4520   79.1570  218.5180 C   0  0  0  0  0  0  0  0  0  0  0  0
  141.4530   78.6110  220.7540 C   0  0  0  0  0  0  0  0  0  0  0  0
  141.7460   79.8480  221.3440 C   0  0  0  0  0  0  0  0  0  0  0  0
  141.7240   79.9500  222.7420 C   0  0  0  0  0  0  0  0  0  0  0  0
  141.4070   78.8280  223.5280 C   0  0  0  0  0  0  0  0  0  0  0  0
  141.1190   77.5970  222.9200 C   0  0  0  0  0  0  0  0  0  0  0  0
  141.1620   77.5140  221.5230 C   0  0  0  0  0  0  0  0  0  0  0  0
  142.0860   72.8680  220.4720 N   0  0  0  0  0  0  0  0  0  0  0  0
  143.3480   72.4790  220.2210 C   0  0  0  0  0  0  0  0  0  0  0  0
  143.7810   71.2100  219.8410 C   0  0  0  0  0  0  0  0  0  0  0  0
  147.6270   69.6500  218.2850 H   0  0  0  0  0  0  0  0  0  0  0  0
  147.1408   71.9479  219.6583 H   0  0  0  0  0  0  0  0  0  0  0  0
  146.2812   74.2062  220.3596 H   0  0  0  0  0  0  0  0  0  0  0  0
  143.8610   75.6267  221.0091 H   0  0  0  0  0  0  0  0  0  0  0  0
  141.7113   76.1274  218.7976 H   0  0  0  0  0  0  0  0  0  0  0  0
  140.0042   76.6065  218.8066 H   0  0  0  0  0  0  0  0  0  0  0  0
  143.5625   78.5078  219.3555 H   0  0  0  0  0  0  0  0  0  0  0  0
  142.9975   77.6973  217.8935 H   0  0  0  0  0  0  0  0  0  0  0  0
  143.3230   80.5660  218.3895 H   0  0  0  0  0  0  0  0  0  0  0  0
  142.8367   79.7667  216.8633 H   0  0  0  0  0  0  0  0  0  0  0  0
  139.8805   81.6527  217.2973 H   0  0  0  0  0  0  0  0  0  0  0  0
  139.8731   79.0820  216.3484 H   0  0  0  0  0  0  0  0  0  0  0  0
  139.4355   80.3783  215.2354 H   0  0  0  0  0  0  0  0  0  0  0  0
  141.9612   78.7580  215.4114 H   0  0  0  0  0  0  0  0  0  0  0  0
  141.2636   79.5872  213.9949 H   0  0  0  0  0  0  0  0  0  0  0  0
  143.3190   80.4610  215.7150 H   0  0  0  0  0  0  0  0  0  0  0  0
  142.6790   81.2620  214.3490 H   0  0  0  0  0  0  0  0  0  0  0  0
  142.5105   82.1935  216.8586 H   0  0  0  0  0  0  0  0  0  0  0  0
  141.3461   82.5993  215.5734 H   0  0  0  0  0  0  0  0  0  0  0  0
  139.6048   79.4512  219.1549 H   0  0  0  0  0  0  0  0  0  0  0  0
  140.0391   78.6425  217.6378 H   0  0  0  0  0  0  0  0  0  0  0  0
  141.9886   80.7222  220.7220 H   0  0  0  0  0  0  0  0  0  0  0  0
  141.9554   80.9106  223.2255 H   0  0  0  0  0  0  0  0  0  0  0  0
  141.3847   78.9159  224.6243 H   0  0  0  0  0  0  0  0  0  0  0  0
  140.8649   76.7160  223.5277 H   0  0  0  0  0  0  0  0  0  0  0  0
  141.2350   72.2640  220.4560 H   0  0  0  0  0  0  0  0  0  0  0  0
  143.0653   70.3848  219.7109 H   0  0  0  0  0  0  0  0  0  0  0  0
  1  2  1  0
  2  3  2  0
  2  4  1  0
  4  5  2  0
  5  6  1  0
  6  7  2  0
  7  8  1  0
  8  9  2  0
  9 10  1  0
 10 11  2  0
 10 12  1  0
 12 13  1  0
 14 13  1  1
 14 15  1  0
 15 16  1  0
 16 17  1  0
 17 18  1  0
 18 19  1  0
 19 20  1  0
 20 21  1  0
 21 22  1  0
 17 23  1  0
 14 24  1  0
 24 25  2  0
 25 26  1  0
 26 27  2  0
 27 28  1  0
 28 29  2  0
  9 30  1  0
 30 31  1  0
 31 32  2  0
 32  4  1  0
 31  7  1  0
 29 12  1  0
 23 14  1  0
 29 24  1  0
 22 18  1  0
  1 33  1  0
  5 34  1  0
  6 35  1  0
  8 36  1  0
 13 37  1  0
 13 38  1  0
 15 39  1  0
 15 40  1  0
 16 41  1  0
 16 42  1  0
 18 43  1  1
 19 44  1  0
 19 45  1  0
 20 46  1  0
 20 47  1  0
 21 48  1  0
 21 49  1  0
 22 50  1  0
 22 51  1  0
 23 52  1  0
 23 53  1  0
 25 54  1  0
 26 55  1  0
 27 56  1  0
 28 57  1  0
 30 58  1  0
 32 59  1  0
M  CHG  2   1  -1  21   1
M  END
>  <UniqueID>  (50) 
41

>  <SMILES>  (50) 
[NH-]C(=O)c1ccc2cc(C(=O)N3C[C@]4(CCN([C@@H]5CC[NH2+]C5)C4)c4ccccc43)[nH]c2c1

>  <Energy>  (50) 
127.27678864906035

>  <Genealogy>  (50) 
[NH-]C(=O)c1ccc2cc(C(=O)N3C[C@]4(CCN(C5CC[NH2+]C5)C4)c4ccccc43)[nH]c2c1 (protonated)
[NH-]C(=O)c1ccc2cc(C(=O)N3C[C@]4(CCN([C@@H]5CC[NH2+]C5)C4)c4ccccc43)[nH]c2c1 (chirality)
[NH-]C(=O)c1ccc2cc(C(=O)N3C[C@]4(CCN([C@@H]5CC[NH2+]C5)C4)c4ccccc43)[nH]c2c1 (3D coordinates assigned)
[NH-]C(=O)c1ccc2cc(C(=O)N3C[C@]4(CCN([C@@H]5CC[NH2+]C5)C4)c4ccccc43)[nH]c2c1 (nonaromatic ring conformer: 127.27678864906035 kcal/mol)

>  <smiles>  (50) 
NC(=O)c1ccc2cc(C(=O)N3C[C@]4(CCN(C5CCNC5)C4)c4ccccc43)[nH]c2c1

>  <score_type>  (50) 
oracle

>  <origin>  (50) 
autodockgpu

>  <m_score__min__energy>  (50) 
-9.8900000000000006

>  <m_primary>  (50) 
energy

>  <meeko>  (50) 
{"free_energy": -9.75, "intermolecular_energy": -11.24, "internal_energy": -0.87, "cluster_size": 16, "cluster_id": 1, "rank_in_cluster": 8}

>  <energy>  (50) 
-9.74

>  <cluster_rmsd>  (50) 
1.79

>  <rmsd>  (50) 
269.09

>  <cluster>  (50) 
1

$$$$
RRGBJOPXSUYLSO-MHFXRGQHNA-N
     RDKit          3D

 59 64  0  0  0  0  0  0  0  0999 V2000
  146.6320   69.5530  218.1360 N   0  0  0  0  0  0  0  0  0  0  0  0
  145.6900   69.6680  219.2000 C   0  0  0  0  0  0  0  0  0  0  0  0
  145.2990   68.6260  219.7920 O   0  0  0  0  0  0  0  0  0  0  0  0
  145.1800   70.9980  219.6110 C   0  0  0  0  0  0  0  0  0  0  0  0
  146.0770   72.0900  219.7740 C   0  0  0  0  0  0  0  0  0  0  0  0
  145.6050   73.3580  220.1550 C   0  0  0  0  0  0  0  0  0  0  0  0
  144.2390   73.5100  220.3620 C   0  0  0  0  0  0  0  0  0  0  0  0
  143.5060   74.6140  220.7400 C   0  0  0  0  0  0  0  0  0  0  0  0
  142.1880   74.1700  220.7930 C   0  0  0  0  0  0  0  0  0  0  0  0
  141.0380   75.0040  221.1860 C   0  0  0  0  0  0  0  0  0  0  0  0
  140.1650   74.5180  221.9540 O   0  0  0  0  0  0  0  0  0  0  0  0
  140.9150   76.3650  220.7380 N   0  0  0  0  0  0  0  0  0  0  0  0
  140.9840   76.7550  219.3250 C   0  0  0  0  0  0  0  0  0  0  0  0
  141.4340   78.2540  219.3060 C   0  0  1  0  0  0  0  0  0  0  0  0
  142.7720   78.4890  218.6130 C   0  0  0  0  0  0  0  0  0  0  0  0
  142.6380   79.8580  217.9470 C   0  0  0  0  0  0  0  0  0  0  0  0
  141.2610   80.3530  218.1570 N   0  0  0  0  0  0  0  0  0  0  0  0
  140.7110   81.0360  216.9550 C   0  0  2  0  0  0  0  0  0  0  0  0
  140.2480   80.0290  215.9060 C   0  0  0  0  0  0  0  0  0  0  0  0
  141.4900   79.7220  215.0840 C   0  0  0  0  0  0  0  0  0  0  0  0
  142.4390   80.8240  215.2800 N   0  0  0  0  0  0  0  0  0  0  0  0
  141.7990   81.7880  216.1810 C   0  0  0  0  0  0  0  0  0  0  0  0
  140.4770   79.1710  218.5480 C   0  0  0  0  0  0  0  0  0  0  0  0
  141.4990   78.6030  220.7690 C   0  0  0  0  0  0  0  0  0  0  0  0
  141.8070   79.8340  221.3630 C   0  0  0  0  0  0  0  0  0  0  0  0
  141.8020   79.9270  222.7630 C   0  0  0  0  0  0  0  0  0  0  0  0
  141.4850   78.8020  223.5450 C   0  0  0  0  0  0  0  0  0  0  0  0
  141.1820   77.5770  222.9320 C   0  0  0  0  0  0  0  0  0  0  0  0
  141.2080   77.5030  221.5330 C   0  0  0  0  0  0  0  0  0  0  0  0
  142.1070   72.8550  220.4790 N   0  0  0  0  0  0  0  0  0  0  0  0
  143.3670   72.4670  220.2140 C   0  0  0  0  0  0  0  0  0  0  0  0
  143.7980   71.1940  219.8440 C   0  0  0  0  0  0  0  0  0  0  0  0
  147.6570   69.6350  218.3160 H   0  0  0  0  0  0  0  0  0  0  0  0
  147.1528   71.9403  219.5998 H   0  0  0  0  0  0  0  0  0  0  0  0
  146.2956   74.2042  220.2854 H   0  0  0  0  0  0  0  0  0  0  0  0
  143.8809   75.6259  220.9534 H   0  0  0  0  0  0  0  0  0  0  0  0
  141.7164   76.1304  218.7926 H   0  0  0  0  0  0  0  0  0  0  0  0
  140.0132   76.6220  218.8251 H   0  0  0  0  0  0  0  0  0  0  0  0
  143.5916   78.4946  219.3467 H   0  0  0  0  0  0  0  0  0  0  0  0
  143.0053   77.6971  217.8860 H   0  0  0  0  0  0  0  0  0  0  0  0
  143.3564   80.5600  218.3955 H   0  0  0  0  0  0  0  0  0  0  0  0
  142.8464   79.7736  216.8702 H   0  0  0  0  0  0  0  0  0  0  0  0
  139.9131   81.6818  217.3504 H   0  0  0  0  0  0  0  0  0  0  0  0
  139.8670   79.1162  216.3873 H   0  0  0  0  0  0  0  0  0  0  0  0
  139.4284   80.4228  215.2870 H   0  0  0  0  0  0  0  0  0  0  0  0
  141.9389   78.7765  215.4224 H   0  0  0  0  0  0  0  0  0  0  0  0
  141.2319   79.6208  214.0195 H   0  0  0  0  0  0  0  0  0  0  0  0
  143.3190   80.4640  215.7180 H   0  0  0  0  0  0  0  0  0  0  0  0
  142.6690   81.2790  214.3640 H   0  0  0  0  0  0  0  0  0  0  0  0
  142.5416   82.2002  216.8801 H   0  0  0  0  0  0  0  0  0  0  0  0
  141.3652   82.6237  215.6123 H   0  0  0  0  0  0  0  0  0  0  0  0
  139.6392   79.4670  219.1965 H   0  0  0  0  0  0  0  0  0  0  0  0
  140.0505   78.6653  217.6691 H   0  0  0  0  0  0  0  0  0  0  0  0
  142.0481   80.7106  220.7438 H   0  0  0  0  0  0  0  0  0  0  0  0
  142.0467   80.8824  223.2502 H   0  0  0  0  0  0  0  0  0  0  0  0
  141.4746   78.8829  224.6420 H   0  0  0  0  0  0  0  0  0  0  0  0
  140.9294   76.6935  223.5367 H   0  0  0  0  0  0  0  0  0  0  0  0
  141.2590   72.2480  220.4850 H   0  0  0  0  0  0  0  0  0  0  0  0
  143.0835   70.3646  219.7361 H   0  0  0  0  0  0  0  0  0  0  0  0
  1  2  1  0
  2  3  2  0
  2  4  1  0
  4  5  2  0
  5  6  1  0
  6  7  2  0
  7  8  1  0
  8  9  2  0
  9 10  1  0
 10 11  2  0
 10 12  1  0
 12 13  1  0
 14 13  1  1
 14 15  1  0
 15 16  1  0
 16 17  1  0
 17 18  1  0
 18 19  1  0
 19 20  1  0
 20 21  1  0
 21 22  1  0
 17 23  1  0
 14 24  1  0
 24 25  2  0
 25 26  1  0
 26 27  2  0
 27 28  1  0
 28 29  2  0
  9 30  1  0
 30 31  1  0
 31 32  2  0
 32  4  1  0
 31  7  1  0
 29 12  1  0
 23 14  1  0
 29 24  1  0
 22 18  1  0
  1 33  1  0
  5 34  1  0
  6 35  1  0
  8 36  1  0
 13 37  1  0
 13 38  1  0
 15 39  1  0
 15 40  1  0
 16 41  1  0
 16 42  1  0
 18 43  1  1
 19 44  1  0
 19 45  1  0
 20 46  1  0
 20 47  1  0
 21 48  1  0
 21 49  1  0
 22 50  1  0
 22 51  1  0
 23 52  1  0
 23 53  1  0
 25 54  1  0
 26 55  1  0
 27 56  1  0
 28 57  1  0
 30 58  1  0
 32 59  1  0
M  CHG  2   1  -1  21   1
M  END
>  <UniqueID>  (51) 
41

>  <SMILES>  (51) 
[NH-]C(=O)c1ccc2cc(C(=O)N3C[C@]4(CCN([C@@H]5CC[NH2+]C5)C4)c4ccccc43)[nH]c2c1

>  <Energy>  (51) 
127.27678864906035

>  <Genealogy>  (51) 
[NH-]C(=O)c1ccc2cc(C(=O)N3C[C@]4(CCN(C5CC[NH2+]C5)C4)c4ccccc43)[nH]c2c1 (protonated)
[NH-]C(=O)c1ccc2cc(C(=O)N3C[C@]4(CCN([C@@H]5CC[NH2+]C5)C4)c4ccccc43)[nH]c2c1 (chirality)
[NH-]C(=O)c1ccc2cc(C(=O)N3C[C@]4(CCN([C@@H]5CC[NH2+]C5)C4)c4ccccc43)[nH]c2c1 (3D coordinates assigned)
[NH-]C(=O)c1ccc2cc(C(=O)N3C[C@]4(CCN([C@@H]5CC[NH2+]C5)C4)c4ccccc43)[nH]c2c1 (nonaromatic ring conformer: 127.27678864906035 kcal/mol)

>  <smiles>  (51) 
NC(=O)c1ccc2cc(C(=O)N3C[C@]4(CCN(C5CCNC5)C4)c4ccccc43)[nH]c2c1

>  <score_type>  (51) 
oracle

>  <origin>  (51) 
autodockgpu

>  <m_score__min__energy>  (51) 
-9.8900000000000006

>  <m_primary>  (51) 
energy

>  <meeko>  (51) 
{"free_energy": -9.74, "intermolecular_energy": -11.23, "internal_energy": -0.88, "cluster_size": 16, "cluster_id": 1, "rank_in_cluster": 10}

>  <energy>  (51) 
-9.73

>  <cluster_rmsd>  (51) 
1.77

>  <rmsd>  (51) 
269.09

>  <cluster>  (51) 
1

$$$$
RRGBJOPXSUYLSO-MHFXRGQHNA-N
     RDKit          3D

 59 64  0  0  0  0  0  0  0  0999 V2000
  146.3260   73.0170  218.4360 N   0  0  0  0  0  0  0  0  0  0  0  0
  145.5600   72.0990  219.2140 C   0  0  0  0  0  0  0  0  0  0  0  0
  145.9740   70.9180  219.3560 O   0  0  0  0  0  0  0  0  0  0  0  0
  144.2930   72.5300  219.8510 C   0  0  0  0  0  0  0  0  0  0  0  0
  143.4380   71.5730  220.4640 C   0  0  0  0  0  0  0  0  0  0  0  0
  142.2380   71.9690  221.0800 C   0  0  0  0  0  0  0  0  0  0  0  0
  141.9180   73.3220  221.0730 C   0  0  0  0  0  0  0  0  0  0  0  0
  140.8250   73.9880  221.5850 C   0  0  0  0  0  0  0  0  0  0  0  0
  141.0440   75.3280  221.2760 C   0  0  0  0  0  0  0  0  0  0  0  0
  140.1150   76.4250  221.6010 C   0  0  0  0  0  0  0  0  0  0  0  0
  139.1100   76.1810  222.3220 O   0  0  0  0  0  0  0  0  0  0  0  0
  140.3550   77.7670  221.1430 N   0  0  0  0  0  0  0  0  0  0  0  0
  140.4230   78.1310  219.7230 C   0  0  0  0  0  0  0  0  0  0  0  0
  141.2820   79.4370  219.6470 C   0  0  1  0  0  0  0  0  0  0  0  0
  142.5730   79.2810  218.8500 C   0  0  0  0  0  0  0  0  0  0  0  0
  142.7880   80.6360  218.1750 C   0  0  0  0  0  0  0  0  0  0  0  0
  141.6320   81.5050  218.4830 N   0  0  0  0  0  0  0  0  0  0  0  0
  141.2100   82.3270  217.3160 C   0  0  2  0  0  0  0  0  0  0  0  0
  140.3350   81.5240  216.3590 C   0  0  0  0  0  0  0  0  0  0  0  0
  141.3140   80.8230  215.4290 C   0  0  0  0  0  0  0  0  0  0  0  0
  142.5850   81.5530  215.4870 N   0  0  0  0  0  0  0  0  0  0  0  0
  142.3950   82.6760  216.4090 C   0  0  0  0  0  0  0  0  0  0  0  0
  140.5740   80.5960  218.9510 C   0  0  0  0  0  0  0  0  0  0  0  0
  141.5580   79.7420  221.0950 C   0  0  0  0  0  0  0  0  0  0  0  0
  142.2530   80.8270  221.6450 C   0  0  0  0  0  0  0  0  0  0  0  0
  142.3830   80.9070  223.0400 C   0  0  0  0  0  0  0  0  0  0  0  0
  141.8180   79.9150  223.8610 C   0  0  0  0  0  0  0  0  0  0  0  0
  141.1280   78.8340  223.2910 C   0  0  0  0  0  0  0  0  0  0  0  0
  141.0240   78.7670  221.8970 C   0  0  0  0  0  0  0  0  0  0  0  0
  142.2040   75.4850  220.5950 N   0  0  0  0  0  0  0  0  0  0  0  0
  142.7290   74.2520  220.4830 C   0  0  0  0  0  0  0  0  0  0  0  0
  143.9230   73.8960  219.8570 C   0  0  0  0  0  0  0  0  0  0  0  0
  146.7150   73.8880  218.8630 H   0  0  0  0  0  0  0  0  0  0  0  0
  143.7192   70.5096  220.4560 H   0  0  0  0  0  0  0  0  0  0  0  0
  141.5729   71.2314  221.5528 H   0  0  0  0  0  0  0  0  0  0  0  0
  139.9672   73.5554  222.1207 H   0  0  0  0  0  0  0  0  0  0  0  0
  140.9012   77.3261  219.1456 H   0  0  0  0  0  0  0  0  0  0  0  0
  139.4192   78.2866  219.3009 H   0  0  0  0  0  0  0  0  0  0  0  0
  143.4138   79.0445  219.5186 H   0  0  0  0  0  0  0  0  0  0  0  0
  142.5109   78.4609  218.1195 H   0  0  0  0  0  0  0  0  0  0  0  0
  143.7107   81.0977  218.5563 H   0  0  0  0  0  0  0  0  0  0  0  0
  142.8793   80.5036  217.0868 H   0  0  0  0  0  0  0  0  0  0  0  0
  140.7139   83.2011  217.7631 H   0  0  0  0  0  0  0  0  0  0  0  0
  139.7313   80.7886  216.9111 H   0  0  0  0  0  0  0  0  0  0  0  0
  139.6271   82.1625  215.8102 H   0  0  0  0  0  0  0  0  0  0  0  0
  141.4636   79.7837  215.7570 H   0  0  0  0  0  0  0  0  0  0  0  0
  140.9248   80.8082  214.4002 H   0  0  0  0  0  0  0  0  0  0  0  0
  143.3410   80.9250  215.8490 H   0  0  0  0  0  0  0  0  0  0  0  0
  142.8520   81.9030  214.5360 H   0  0  0  0  0  0  0  0  0  0  0  0
  143.3016   82.8233  217.0144 H   0  0  0  0  0  0  0  0  0  0  0  0
  142.1998   83.6058  215.8545 H   0  0  0  0  0  0  0  0  0  0  0  0
  139.9100   81.1160  219.6572 H   0  0  0  0  0  0  0  0  0  0  0  0
  139.9531   80.2412  218.1152 H   0  0  0  0  0  0  0  0  0  0  0  0
  142.6883   81.6011  220.9960 H   0  0  0  0  0  0  0  0  0  0  0  0
  142.9285   81.7482  223.4926 H   0  0  0  0  0  0  0  0  0  0  0  0
  141.9172   79.9866  224.9542 H   0  0  0  0  0  0  0  0  0  0  0  0
  140.6787   78.0563  223.9261 H   0  0  0  0  0  0  0  0  0  0  0  0
  142.5960   76.3650  220.1950 H   0  0  0  0  0  0  0  0  0  0  0  0
  144.5599   74.6561  219.3809 H   0  0  0  0  0  0  0  0  0  0  0  0
  1  2  1  0
  2  3  2  0
  2  4  1  0
  4  5  2  0
  5  6  1  0
  6  7  2  0
  7  8  1  0
  8  9  2  0
  9 10  1  0
 10 11  2  0
 10 12  1  0
 12 13  1  0
 14 13  1  1
 14 15  1  0
 15 16  1  0
 16 17  1  0
 17 18  1  0
 18 19  1  0
 19 20  1  0
 20 21  1  0
 21 22  1  0
 17 23  1  0
 14 24  1  0
 24 25  2  0
 25 26  1  0
 26 27  2  0
 27 28  1  0
 28 29  2  0
  9 30  1  0
 30 31  1  0
 31 32  2  0
 32  4  1  0
 31  7  1  0
 29 12  1  0
 23 14  1  0
 29 24  1  0
 22 18  1  0
  1 33  1  0
  5 34  1  0
  6 35  1  0
  8 36  1  0
 13 37  1  0
 13 38  1  0
 15 39  1  0
 15 40  1  0
 16 41  1  0
 16 42  1  0
 18 43  1  1
 19 44  1  0
 19 45  1  0
 20 46  1  0
 20 47  1  0
 21 48  1  0
 21 49  1  0
 22 50  1  0
 22 51  1  0
 23 52  1  0
 23 53  1  0
 25 54  1  0
 26 55  1  0
 27 56  1  0
 28 57  1  0
 30 58  1  0
 32 59  1  0
M  CHG  2   1  -1  21   1
M  END
>  <UniqueID>  (52) 
41

>  <SMILES>  (52) 
[NH-]C(=O)c1ccc2cc(C(=O)N3C[C@]4(CCN([C@@H]5CC[NH2+]C5)C4)c4ccccc43)[nH]c2c1

>  <Energy>  (52) 
127.27678864906035

>  <Genealogy>  (52) 
[NH-]C(=O)c1ccc2cc(C(=O)N3C[C@]4(CCN(C5CC[NH2+]C5)C4)c4ccccc43)[nH]c2c1 (protonated)
[NH-]C(=O)c1ccc2cc(C(=O)N3C[C@]4(CCN([C@@H]5CC[NH2+]C5)C4)c4ccccc43)[nH]c2c1 (chirality)
[NH-]C(=O)c1ccc2cc(C(=O)N3C[C@]4(CCN([C@@H]5CC[NH2+]C5)C4)c4ccccc43)[nH]c2c1 (3D coordinates assigned)
[NH-]C(=O)c1ccc2cc(C(=O)N3C[C@]4(CCN([C@@H]5CC[NH2+]C5)C4)c4ccccc43)[nH]c2c1 (nonaromatic ring conformer: 127.27678864906035 kcal/mol)

>  <smiles>  (52) 
NC(=O)c1ccc2cc(C(=O)N3C[C@]4(CCN(C5CCNC5)C4)c4ccccc43)[nH]c2c1

>  <score_type>  (52) 
oracle

>  <origin>  (52) 
autodockgpu

>  <m_score__min__energy>  (52) 
-9.8900000000000006

>  <m_primary>  (52) 
energy

>  <meeko>  (52) 
{"free_energy": -9.81, "intermolecular_energy": -11.3, "internal_energy": -0.87, "cluster_size": 16, "cluster_id": 1, "rank_in_cluster": 4}

>  <energy>  (52) 
-9.58

>  <cluster_rmsd>  (52) 
0.32

>  <rmsd>  (52) 
269.53

>  <cluster>  (52) 
1

$$$$
RRGBJOPXSUYLSO-MHFXRGQHNA-N
     RDKit          3D

 59 64  0  0  0  0  0  0  0  0999 V2000
  146.3120   73.0140  218.5740 N   0  0  0  0  0  0  0  0  0  0  0  0
  145.5290   72.0860  219.3220 C   0  0  0  0  0  0  0  0  0  0  0  0
  145.9390   70.9020  219.4560 O   0  0  0  0  0  0  0  0  0  0  0  0
  144.2490   72.5090  219.9390 C   0  0  0  0  0  0  0  0  0  0  0  0
  143.3290   71.5360  220.4200 C   0  0  0  0  0  0  0  0  0  0  0  0
  142.1160   71.9240  221.0150 C   0  0  0  0  0  0  0  0  0  0  0  0
  141.8490   73.2840  221.1210 C   0  0  0  0  0  0  0  0  0  0  0  0
  140.7580   73.9450  221.6440 C   0  0  0  0  0  0  0  0  0  0  0  0
  141.0420   75.2970  221.4720 C   0  0  0  0  0  0  0  0  0  0  0  0
  140.1400   76.3980  221.8570 C   0  0  0  0  0  0  0  0  0  0  0  0
  139.1820   76.1570  222.6390 O   0  0  0  0  0  0  0  0  0  0  0  0
  140.3550   77.7390  221.3850 N   0  0  0  0  0  0  0  0  0  0  0  0
  140.3400   78.1040  219.9640 C   0  0  0  0  0  0  0  0  0  0  0  0
  141.1960   79.4070  219.8370 C   0  0  1  0  0  0  0  0  0  0  0  0
  142.4360   79.2490  218.9640 C   0  0  0  0  0  0  0  0  0  0  0  0
  142.6130   80.6030  218.2780 C   0  0  0  0  0  0  0  0  0  0  0  0
  141.4810   81.4750  218.6540 N   0  0  0  0  0  0  0  0  0  0  0  0
  140.9920   82.2990  217.5150 C   0  0  2  0  0  0  0  0  0  0  0  0
  140.0540   81.5000  216.6150 C   0  0  0  0  0  0  0  0  0  0  0  0
  140.9690   80.7930  215.6270 C   0  0  0  0  0  0  0  0  0  0  0  0
  142.2460   81.5160  215.6050 N   0  0  0  0  0  0  0  0  0  0  0  0
  142.1200   82.6410  216.5360 C   0  0  0  0  0  0  0  0  0  0  0  0
  140.4510   80.5690  219.1840 C   0  0  0  0  0  0  0  0  0  0  0  0
  141.5600   79.7110  221.2660 C   0  0  0  0  0  0  0  0  0  0  0  0
  142.2890   80.7940  221.7730 C   0  0  0  0  0  0  0  0  0  0  0  0
  142.5040   80.8730  223.1570 C   0  0  0  0  0  0  0  0  0  0  0  0
  141.9860   79.8820  224.0110 C   0  0  0  0  0  0  0  0  0  0  0  0
  141.2600   78.8030  223.4840 C   0  0  0  0  0  0  0  0  0  0  0  0
  141.0720   78.7370  222.0980 C   0  0  0  0  0  0  0  0  0  0  0  0
  142.2390   75.4670  220.8620 N   0  0  0  0  0  0  0  0  0  0  0  0
  142.7220   74.2290  220.6580 C   0  0  0  0  0  0  0  0  0  0  0  0
  143.9310   73.8830  220.0570 C   0  0  0  0  0  0  0  0  0  0  0  0
  146.4480   73.9930  218.9090 H   0  0  0  0  0  0  0  0  0  0  0  0
  143.5699   70.4669  220.3251 H   0  0  0  0  0  0  0  0  0  0  0  0
  141.4005   71.1749  221.3851 H   0  0  0  0  0  0  0  0  0  0  0  0
  139.8596   73.5012  222.0979 H   0  0  0  0  0  0  0  0  0  0  0  0
  140.7809   77.2980  219.3590 H   0  0  0  0  0  0  0  0  0  0  0  0
  139.3133   78.2630  219.6026 H   0  0  0  0  0  0  0  0  0  0  0  0
  143.3150   79.0104  219.5808 H   0  0  0  0  0  0  0  0  0  0  0  0
  142.3282   78.4295  218.2382 H   0  0  0  0  0  0  0  0  0  0  0  0
  143.5582   81.0622  218.6033 H   0  0  0  0  0  0  0  0  0  0  0  0
  142.6378   80.4701  217.1863 H   0  0  0  0  0  0  0  0  0  0  0  0
  140.5298   83.1763  217.9911 H   0  0  0  0  0  0  0  0  0  0  0  0
  139.4817   80.7685  217.2045 H   0  0  0  0  0  0  0  0  0  0  0  0
  139.3167   82.1420  216.1108 H   0  0  0  0  0  0  0  0  0  0  0  0
  141.1327   79.7531  215.9461 H   0  0  0  0  0  0  0  0  0  0  0  0
  140.5165   80.7799  214.6245 H   0  0  0  0  0  0  0  0  0  0  0  0
  143.0190   80.8840  215.9200 H   0  0  0  0  0  0  0  0  0  0  0  0
  142.4550   81.8640  214.6390 H   0  0  0  0  0  0  0  0  0  0  0  0
  143.0632   82.7837  217.0837 H   0  0  0  0  0  0  0  0  0  0  0  0
  141.8960   83.5715  215.9939 H   0  0  0  0  0  0  0  0  0  0  0  0
  139.8317   81.0906  219.9285 H   0  0  0  0  0  0  0  0  0  0  0  0
  139.7808   80.2160  218.3864 H   0  0  0  0  0  0  0  0  0  0  0  0
  142.6853   81.5677  221.0990 H   0  0  0  0  0  0  0  0  0  0  0  0
  143.0791   81.7120  223.5757 H   0  0  0  0  0  0  0  0  0  0  0  0
  142.1508   79.9534  225.0962 H   0  0  0  0  0  0  0  0  0  0  0  0
  140.8478   78.0263  224.1449 H   0  0  0  0  0  0  0  0  0  0  0  0
  142.6830   76.3630  220.5640 H   0  0  0  0  0  0  0  0  0  0  0  0
  144.6189   74.6564  219.6847 H   0  0  0  0  0  0  0  0  0  0  0  0
  1  2  1  0
  2  3  2  0
  2  4  1  0
  4  5  2  0
  5  6  1  0
  6  7  2  0
  7  8  1  0
  8  9  2  0
  9 10  1  0
 10 11  2  0
 10 12  1  0
 12 13  1  0
 14 13  1  1
 14 15  1  0
 15 16  1  0
 16 17  1  0
 17 18  1  0
 18 19  1  0
 19 20  1  0
 20 21  1  0
 21 22  1  0
 17 23  1  0
 14 24  1  0
 24 25  2  0
 25 26  1  0
 26 27  2  0
 27 28  1  0
 28 29  2  0
  9 30  1  0
 30 31  1  0
 31 32  2  0
 32  4  1  0
 31  7  1  0
 29 12  1  0
 23 14  1  0
 29 24  1  0
 22 18  1  0
  1 33  1  0
  5 34  1  0
  6 35  1  0
  8 36  1  0
 13 37  1  0
 13 38  1  0
 15 39  1  0
 15 40  1  0
 16 41  1  0
 16 42  1  0
 18 43  1  1
 19 44  1  0
 19 45  1  0
 20 46  1  0
 20 47  1  0
 21 48  1  0
 21 49  1  0
 22 50  1  0
 22 51  1  0
 23 52  1  0
 23 53  1  0
 25 54  1  0
 26 55  1  0
 27 56  1  0
 28 57  1  0
 30 58  1  0
 32 59  1  0
M  CHG  2   1  -1  21   1
M  END
>  <UniqueID>  (53) 
41

>  <SMILES>  (53) 
[NH-]C(=O)c1ccc2cc(C(=O)N3C[C@]4(CCN([C@@H]5CC[NH2+]C5)C4)c4ccccc43)[nH]c2c1

>  <Energy>  (53) 
127.27678864906035

>  <Genealogy>  (53) 
[NH-]C(=O)c1ccc2cc(C(=O)N3C[C@]4(CCN(C5CC[NH2+]C5)C4)c4ccccc43)[nH]c2c1 (protonated)
[NH-]C(=O)c1ccc2cc(C(=O)N3C[C@]4(CCN([C@@H]5CC[NH2+]C5)C4)c4ccccc43)[nH]c2c1 (chirality)
[NH-]C(=O)c1ccc2cc(C(=O)N3C[C@]4(CCN([C@@H]5CC[NH2+]C5)C4)c4ccccc43)[nH]c2c1 (3D coordinates assigned)
[NH-]C(=O)c1ccc2cc(C(=O)N3C[C@]4(CCN([C@@H]5CC[NH2+]C5)C4)c4ccccc43)[nH]c2c1 (nonaromatic ring conformer: 127.27678864906035 kcal/mol)

>  <smiles>  (53) 
NC(=O)c1ccc2cc(C(=O)N3C[C@]4(CCN(C5CCNC5)C4)c4ccccc43)[nH]c2c1

>  <score_type>  (53) 
oracle

>  <origin>  (53) 
autodockgpu

>  <m_score__min__energy>  (53) 
-9.8900000000000006

>  <m_primary>  (53) 
energy

>  <meeko>  (53) 
{"free_energy": -9.89, "intermolecular_energy": -11.38, "internal_energy": -0.87, "cluster_size": 16, "cluster_id": 1, "rank_in_cluster": 1}

>  <energy>  (53) 
-9.45

>  <cluster_rmsd>  (53) 
0.83

>  <rmsd>  (53) 
269.57

>  <cluster>  (53) 
1

$$$$
RRGBJOPXSUYLSO-MHFXRGQHNA-N
     RDKit          3D

 59 64  0  0  0  0  0  0  0  0999 V2000
  146.9420   69.6480  218.8130 N   0  0  0  0  0  0  0  0  0  0  0  0
  145.6280   69.8220  219.3390 C   0  0  0  0  0  0  0  0  0  0  0  0
  144.9110   68.8080  219.5540 O   0  0  0  0  0  0  0  0  0  0  0  0
  145.1110   71.1790  219.6340 C   0  0  0  0  0  0  0  0  0  0  0  0
  145.9700   72.3100  219.5370 C   0  0  0  0  0  0  0  0  0  0  0  0
  145.4910   73.6040  219.8060 C   0  0  0  0  0  0  0  0  0  0  0  0
  144.1550   73.7410  220.1650 C   0  0  0  0  0  0  0  0  0  0  0  0
  143.4240   74.8650  220.4860 C   0  0  0  0  0  0  0  0  0  0  0  0
  142.1440   74.3940  220.7650 C   0  0  0  0  0  0  0  0  0  0  0  0
  141.0140   75.2390  221.1890 C   0  0  0  0  0  0  0  0  0  0  0  0
  140.1520   74.7590  221.9730 O   0  0  0  0  0  0  0  0  0  0  0  0
  140.8990   76.6050  220.7540 N   0  0  0  0  0  0  0  0  0  0  0  0
  140.9470   77.0060  219.3430 C   0  0  0  0  0  0  0  0  0  0  0  0
  141.4140   78.4990  219.3280 C   0  0  1  0  0  0  0  0  0  0  0  0
  142.7410   78.7250  218.6130 C   0  0  0  0  0  0  0  0  0  0  0  0
  142.6120   80.1010  217.9600 C   0  0  0  0  0  0  0  0  0  0  0  0
  141.2440   80.6100  218.1990 N   0  0  0  0  0  0  0  0  0  0  0  0
  140.6810   81.3090  217.0120 C   0  0  2  0  0  0  0  0  0  0  0  0
  140.0920   80.3190  216.0120 C   0  0  0  0  0  0  0  0  0  0  0  0
  141.2630   79.9080  215.1330 C   0  0  0  0  0  0  0  0  0  0  0  0
  142.2970   80.9420  215.2550 N   0  0  0  0  0  0  0  0  0  0  0  0
  141.7770   81.9650  216.1660 C   0  0  0  0  0  0  0  0  0  0  0  0
  140.4540   79.4340  218.5940 C   0  0  0  0  0  0  0  0  0  0  0  0
  141.5090   78.8360  220.7920 C   0  0  0  0  0  0  0  0  0  0  0  0
  141.8420   80.0590  221.3900 C   0  0  0  0  0  0  0  0  0  0  0  0
  141.8620   80.1400  222.7910 C   0  0  0  0  0  0  0  0  0  0  0  0
  141.5470   79.0130  223.5690 C   0  0  0  0  0  0  0  0  0  0  0  0
  141.2180   77.7960  222.9520 C   0  0  0  0  0  0  0  0  0  0  0  0
  141.2190   77.7340  221.5530 C   0  0  0  0  0  0  0  0  0  0  0  0
  142.0860   73.0470  220.6390 N   0  0  0  0  0  0  0  0  0  0  0  0
  143.3200   72.6630  220.2670 C   0  0  0  0  0  0  0  0  0  0  0  0
  143.7610   71.3650  220.0150 C   0  0  0  0  0  0  0  0  0  0  0  0
  147.0890   69.2330  217.8660 H   0  0  0  0  0  0  0  0  0  0  0  0
  147.0220   72.1696  219.2479 H   0  0  0  0  0  0  0  0  0  0  0  0
  146.1522   74.4802  219.7347 H   0  0  0  0  0  0  0  0  0  0  0  0
  143.7755   75.9069  220.5153 H   0  0  0  0  0  0  0  0  0  0  0  0
  141.6622   76.3774  218.7923 H   0  0  0  0  0  0  0  0  0  0  0  0
  139.9658   76.8885  218.8598 H   0  0  0  0  0  0  0  0  0  0  0  0
  143.5736   78.7152  219.3318 H   0  0  0  0  0  0  0  0  0  0  0  0
  142.9512   77.9367  217.8752 H   0  0  0  0  0  0  0  0  0  0  0  0
  143.3465   80.7909  218.4011 H   0  0  0  0  0  0  0  0  0  0  0  0
  142.8007   80.0233  216.8791 H   0  0  0  0  0  0  0  0  0  0  0  0
  139.9538   82.0186  217.4334 H   0  0  0  0  0  0  0  0  0  0  0  0
  139.6736   79.4452  216.5330 H   0  0  0  0  0  0  0  0  0  0  0  0
  139.2702   80.7593  215.4282 H   0  0  0  0  0  0  0  0  0  0  0  0
  141.6610   78.9388  215.4682 H   0  0  0  0  0  0  0  0  0  0  0  0
  140.9416   79.8062  214.0859 H   0  0  0  0  0  0  0  0  0  0  0  0
  143.1710   80.5270  215.6540 H   0  0  0  0  0  0  0  0  0  0  0  0
  142.5090   81.3610  214.3180 H   0  0  0  0  0  0  0  0  0  0  0  0
  142.5835   82.3347  216.8163 H   0  0  0  0  0  0  0  0  0  0  0  0
  141.3741   82.8193  215.6022 H   0  0  0  0  0  0  0  0  0  0  0  0
  139.6312   79.7340  219.2596 H   0  0  0  0  0  0  0  0  0  0  0  0
  140.0066   78.9406  217.7185 H   0  0  0  0  0  0  0  0  0  0  0  0
  142.0828   80.9377  220.7737 H   0  0  0  0  0  0  0  0  0  0  0  0
  142.1251   81.0887  223.2816 H   0  0  0  0  0  0  0  0  0  0  0  0
  141.5583   79.0849  224.6666 H   0  0  0  0  0  0  0  0  0  0  0  0
  140.9650   76.9107  223.5539 H   0  0  0  0  0  0  0  0  0  0  0  0
  141.2740   72.4210  220.8320 H   0  0  0  0  0  0  0  0  0  0  0  0
  143.0778   70.5081  220.1098 H   0  0  0  0  0  0  0  0  0  0  0  0
  1  2  1  0
  2  3  2  0
  2  4  1  0
  4  5  2  0
  5  6  1  0
  6  7  2  0
  7  8  1  0
  8  9  2  0
  9 10  1  0
 10 11  2  0
 10 12  1  0
 12 13  1  0
 14 13  1  1
 14 15  1  0
 15 16  1  0
 16 17  1  0
 17 18  1  0
 18 19  1  0
 19 20  1  0
 20 21  1  0
 21 22  1  0
 17 23  1  0
 14 24  1  0
 24 25  2  0
 25 26  1  0
 26 27  2  0
 27 28  1  0
 28 29  2  0
  9 30  1  0
 30 31  1  0
 31 32  2  0
 32  4  1  0
 31  7  1  0
 29 12  1  0
 23 14  1  0
 29 24  1  0
 22 18  1  0
  1 33  1  0
  5 34  1  0
  6 35  1  0
  8 36  1  0
 13 37  1  0
 13 38  1  0
 15 39  1  0
 15 40  1  0
 16 41  1  0
 16 42  1  0
 18 43  1  1
 19 44  1  0
 19 45  1  0
 20 46  1  0
 20 47  1  0
 21 48  1  0
 21 49  1  0
 22 50  1  0
 22 51  1  0
 23 52  1  0
 23 53  1  0
 25 54  1  0
 26 55  1  0
 27 56  1  0
 28 57  1  0
 30 58  1  0
 32 59  1  0
M  CHG  2   1  -1  21   1
M  END
>  <UniqueID>  (54) 
41

>  <SMILES>  (54) 
[NH-]C(=O)c1ccc2cc(C(=O)N3C[C@]4(CCN([C@@H]5CC[NH2+]C5)C4)c4ccccc43)[nH]c2c1

>  <Energy>  (54) 
127.27678864906035

>  <Genealogy>  (54) 
[NH-]C(=O)c1ccc2cc(C(=O)N3C[C@]4(CCN(C5CC[NH2+]C5)C4)c4ccccc43)[nH]c2c1 (protonated)
[NH-]C(=O)c1ccc2cc(C(=O)N3C[C@]4(CCN([C@@H]5CC[NH2+]C5)C4)c4ccccc43)[nH]c2c1 (chirality)
[NH-]C(=O)c1ccc2cc(C(=O)N3C[C@]4(CCN([C@@H]5CC[NH2+]C5)C4)c4ccccc43)[nH]c2c1 (3D coordinates assigned)
[NH-]C(=O)c1ccc2cc(C(=O)N3C[C@]4(CCN([C@@H]5CC[NH2+]C5)C4)c4ccccc43)[nH]c2c1 (nonaromatic ring conformer: 127.27678864906035 kcal/mol)

>  <smiles>  (54) 
NC(=O)c1ccc2cc(C(=O)N3C[C@]4(CCN(C5CCNC5)C4)c4ccccc43)[nH]c2c1

>  <score_type>  (54) 
oracle

>  <origin>  (54) 
autodockgpu

>  <m_score__min__energy>  (54) 
-9.8900000000000006

>  <m_primary>  (54) 
energy

>  <meeko>  (54) 
{"free_energy": -9.33, "intermolecular_energy": -10.83, "internal_energy": -0.94, "cluster_size": 16, "cluster_id": 1, "rank_in_cluster": 15}

>  <energy>  (54) 
-9.44

>  <cluster_rmsd>  (54) 
0.83

>  <rmsd>  (54) 
269.53

>  <cluster>  (54) 
1

$$$$
RRGBJOPXSUYLSO-MHFXRGQHNA-N
     RDKit          3D

 59 64  0  0  0  0  0  0  0  0999 V2000
  146.6900   73.0020  219.3630 N   0  0  0  0  0  0  0  0  0  0  0  0
  145.6610   72.0400  219.5840 C   0  0  0  0  0  0  0  0  0  0  0  0
  145.8930   70.8250  219.3440 O   0  0  0  0  0  0  0  0  0  0  0  0
  144.3350   72.4620  220.0940 C   0  0  0  0  0  0  0  0  0  0  0  0
  143.3840   71.4890  220.5090 C   0  0  0  0  0  0  0  0  0  0  0  0
  142.1260   71.8760  221.0020 C   0  0  0  0  0  0  0  0  0  0  0  0
  141.8450   73.2360  221.0750 C   0  0  0  0  0  0  0  0  0  0  0  0
  140.7140   73.8960  221.5040 C   0  0  0  0  0  0  0  0  0  0  0  0
  141.0050   75.2480  221.3430 C   0  0  0  0  0  0  0  0  0  0  0  0
  140.0710   76.3470  221.6460 C   0  0  0  0  0  0  0  0  0  0  0  0
  139.0460   76.1050  222.3380 O   0  0  0  0  0  0  0  0  0  0  0  0
  140.3270   77.6890  221.1970 N   0  0  0  0  0  0  0  0  0  0  0  0
  140.3670   78.0690  219.7800 C   0  0  0  0  0  0  0  0  0  0  0  0
  141.2510   79.3580  219.6970 C   0  0  1  0  0  0  0  0  0  0  0  0
  142.5180   79.1860  218.8660 C   0  0  0  0  0  0  0  0  0  0  0  0
  142.7440   80.5440  218.2020 C   0  0  0  0  0  0  0  0  0  0  0  0
  141.6150   81.4330  218.5490 N   0  0  0  0  0  0  0  0  0  0  0  0
  141.1810   82.2770  217.4030 C   0  0  2  0  0  0  0  0  0  0  0  0
  140.3120   81.4880  216.4290 C   0  0  0  0  0  0  0  0  0  0  0  0
  141.2960   80.8190  215.4800 C   0  0  0  0  0  0  0  0  0  0  0  0
  142.5600   81.5620  215.5530 N   0  0  0  0  0  0  0  0  0  0  0  0
  142.3590   82.6610  216.5020 C   0  0  0  0  0  0  0  0  0  0  0  0
  140.5500   80.5400  219.0330 C   0  0  0  0  0  0  0  0  0  0  0  0
  141.5700   79.6390  221.1420 C   0  0  0  0  0  0  0  0  0  0  0  0
  142.3020   80.7030  221.6860 C   0  0  0  0  0  0  0  0  0  0  0  0
  142.4690   80.7640  223.0770 C   0  0  0  0  0  0  0  0  0  0  0  0
  141.9040   79.7740  223.9010 C   0  0  0  0  0  0  0  0  0  0  0  0
  141.1770   78.7140  223.3370 C   0  0  0  0  0  0  0  0  0  0  0  0
  141.0360   78.6660  221.9450 C   0  0  0  0  0  0  0  0  0  0  0  0
  142.2460   75.4190  220.8280 N   0  0  0  0  0  0  0  0  0  0  0  0
  142.7490   74.1810  220.6750 C   0  0  0  0  0  0  0  0  0  0  0  0
  144.0020   73.8350  220.1740 C   0  0  0  0  0  0  0  0  0  0  0  0
  146.5630   73.7750  218.6730 H   0  0  0  0  0  0  0  0  0  0  0  0
  143.6363   70.4203  220.4433 H   0  0  0  0  0  0  0  0  0  0  0  0
  141.3866   71.1263  221.3202 H   0  0  0  0  0  0  0  0  0  0  0  0
  139.7844   73.4518  221.8894 H   0  0  0  0  0  0  0  0  0  0  0  0
  140.8136   77.2614  219.1813 H   0  0  0  0  0  0  0  0  0  0  0  0
  139.3564   78.2506  219.3855 H   0  0  0  0  0  0  0  0  0  0  0  0
  143.3702   78.9242  219.5103 H   0  0  0  0  0  0  0  0  0  0  0  0
  142.4207   78.3765  218.1276 H   0  0  0  0  0  0  0  0  0  0  0  0
  143.6855   80.9819  218.5651 H   0  0  0  0  0  0  0  0  0  0  0  0
  142.8048   80.4228  217.1104 H   0  0  0  0  0  0  0  0  0  0  0  0
  140.6763   83.1343  217.8724 H   0  0  0  0  0  0  0  0  0  0  0  0
  139.7172   80.7336  216.9648 H   0  0  0  0  0  0  0  0  0  0  0  0
  139.5964   82.1322  215.8971 H   0  0  0  0  0  0  0  0  0  0  0  0
  141.4575   79.7739  215.7829 H   0  0  0  0  0  0  0  0  0  0  0  0
  140.9045   80.8237  214.4520 H   0  0  0  0  0  0  0  0  0  0  0  0
  143.3230   80.9340  215.8980 H   0  0  0  0  0  0  0  0  0  0  0  0
  142.8190   81.9370  214.6100 H   0  0  0  0  0  0  0  0  0  0  0  0
  143.2653   82.8048  217.1086 H   0  0  0  0  0  0  0  0  0  0  0  0
  142.1513   83.6011  215.9700 H   0  0  0  0  0  0  0  0  0  0  0  0
  139.9150   81.0647  219.7620 H   0  0  0  0  0  0  0  0  0  0  0  0
  139.9010   80.2085  218.2091 H   0  0  0  0  0  0  0  0  0  0  0  0
  142.7371   81.4753  221.0346 H   0  0  0  0  0  0  0  0  0  0  0  0
  143.0434   81.5883  223.5249 H   0  0  0  0  0  0  0  0  0  0  0  0
  142.0324   79.8307  224.9920 H   0  0  0  0  0  0  0  0  0  0  0  0
  140.7280   77.9382  223.9746 H   0  0  0  0  0  0  0  0  0  0  0  0
  142.7080   76.3140  220.5590 H   0  0  0  0  0  0  0  0  0  0  0  0
  144.7135   74.6085  219.8492 H   0  0  0  0  0  0  0  0  0  0  0  0
  1  2  1  0
  2  3  2  0
  2  4  1  0
  4  5  2  0
  5  6  1  0
  6  7  2  0
  7  8  1  0
  8  9  2  0
  9 10  1  0
 10 11  2  0
 10 12  1  0
 12 13  1  0
 14 13  1  1
 14 15  1  0
 15 16  1  0
 16 17  1  0
 17 18  1  0
 18 19  1  0
 19 20  1  0
 20 21  1  0
 21 22  1  0
 17 23  1  0
 14 24  1  0
 24 25  2  0
 25 26  1  0
 26 27  2  0
 27 28  1  0
 28 29  2  0
  9 30  1  0
 30 31  1  0
 31 32  2  0
 32  4  1  0
 31  7  1  0
 29 12  1  0
 23 14  1  0
 29 24  1  0
 22 18  1  0
  1 33  1  0
  5 34  1  0
  6 35  1  0
  8 36  1  0
 13 37  1  0
 13 38  1  0
 15 39  1  0
 15 40  1  0
 16 41  1  0
 16 42  1  0
 18 43  1  1
 19 44  1  0
 19 45  1  0
 20 46  1  0
 20 47  1  0
 21 48  1  0
 21 49  1  0
 22 50  1  0
 22 51  1  0
 23 52  1  0
 23 53  1  0
 25 54  1  0
 26 55  1  0
 27 56  1  0
 28 57  1  0
 30 58  1  0
 32 59  1  0
M  CHG  2   1  -1  21   1
M  END
>  <UniqueID>  (55) 
41

>  <SMILES>  (55) 
[NH-]C(=O)c1ccc2cc(C(=O)N3C[C@]4(CCN([C@@H]5CC[NH2+]C5)C4)c4ccccc43)[nH]c2c1

>  <Energy>  (55) 
127.27678864906035

>  <Genealogy>  (55) 
[NH-]C(=O)c1ccc2cc(C(=O)N3C[C@]4(CCN(C5CC[NH2+]C5)C4)c4ccccc43)[nH]c2c1 (protonated)
[NH-]C(=O)c1ccc2cc(C(=O)N3C[C@]4(CCN([C@@H]5CC[NH2+]C5)C4)c4ccccc43)[nH]c2c1 (chirality)
[NH-]C(=O)c1ccc2cc(C(=O)N3C[C@]4(CCN([C@@H]5CC[NH2+]C5)C4)c4ccccc43)[nH]c2c1 (3D coordinates assigned)
[NH-]C(=O)c1ccc2cc(C(=O)N3C[C@]4(CCN([C@@H]5CC[NH2+]C5)C4)c4ccccc43)[nH]c2c1 (nonaromatic ring conformer: 127.27678864906035 kcal/mol)

>  <smiles>  (55) 
NC(=O)c1ccc2cc(C(=O)N3C[C@]4(CCN(C5CCNC5)C4)c4ccccc43)[nH]c2c1

>  <score_type>  (55) 
oracle

>  <origin>  (55) 
autodockgpu

>  <m_score__min__energy>  (55) 
-9.8900000000000006

>  <m_primary>  (55) 
energy

>  <meeko>  (55) 
{"free_energy": -9.78, "intermolecular_energy": -11.27, "internal_energy": -0.85, "cluster_size": 16, "cluster_id": 1, "rank_in_cluster": 7}

>  <energy>  (55) 
-9.33

>  <cluster_rmsd>  (55) 
1.71

>  <rmsd>  (55) 
269.12

>  <cluster>  (55) 
1

$$$$
RRGBJOPXSUYLSO-MHFXRGQHNA-N
     RDKit          3D

 59 64  0  0  0  0  0  0  0  0999 V2000
  146.6860   69.8910  217.9620 N   0  0  0  0  0  0  0  0  0  0  0  0
  145.7890   69.9770  219.0680 C   0  0  0  0  0  0  0  0  0  0  0  0
  145.5010   68.9320  219.7090 O   0  0  0  0  0  0  0  0  0  0  0  0
  145.2070   71.2820  219.4610 C   0  0  0  0  0  0  0  0  0  0  0  0
  146.0520   72.3450  219.8870 C   0  0  0  0  0  0  0  0  0  0  0  0
  145.5140   73.5900  220.2550 C   0  0  0  0  0  0  0  0  0  0  0  0
  144.1340   73.7490  220.1860 C   0  0  0  0  0  0  0  0  0  0  0  0
  143.3400   74.8350  220.4850 C   0  0  0  0  0  0  0  0  0  0  0  0
  142.0390   74.4100  220.2320 C   0  0  0  0  0  0  0  0  0  0  0  0
  140.8340   75.2330  220.4390 C   0  0  0  0  0  0  0  0  0  0  0  0
  139.7940   74.6880  220.8980 O   0  0  0  0  0  0  0  0  0  0  0  0
  140.8360   76.6430  220.1610 N   0  0  0  0  0  0  0  0  0  0  0  0
  140.9920   77.1960  218.8100 C   0  0  0  0  0  0  0  0  0  0  0  0
  141.5570   78.6440  218.9920 C   0  0  1  0  0  0  0  0  0  0  0  0
  142.9360   78.8500  218.3740 C   0  0  0  0  0  0  0  0  0  0  0  0
  142.9360   80.2970  217.8800 C   0  0  0  0  0  0  0  0  0  0  0  0
  141.5950   80.8740  218.1100 N   0  0  0  0  0  0  0  0  0  0  0  0
  141.1480   81.7420  216.9870 C   0  0  2  0  0  0  0  0  0  0  0  0
  140.5440   80.9180  215.8540 C   0  0  0  0  0  0  0  0  0  0  0  0
  141.7280   80.5160  214.9880 C   0  0  0  0  0  0  0  0  0  0  0  0
  142.8260   81.4470  215.2740 N   0  0  0  0  0  0  0  0  0  0  0  0
  142.3330   82.4000  216.2720 C   0  0  0  0  0  0  0  0  0  0  0  0
  140.7070   79.7220  218.3260 C   0  0  0  0  0  0  0  0  0  0  0  0
  141.5910   78.8050  220.4890 C   0  0  0  0  0  0  0  0  0  0  0  0
  141.9710   79.9250  221.2410 C   0  0  0  0  0  0  0  0  0  0  0  0
  141.9170   79.8460  222.6400 C   0  0  0  0  0  0  0  0  0  0  0  0
  141.4830   78.6640  223.2660 C   0  0  0  0  0  0  0  0  0  0  0  0
  141.1090   77.5520  222.4960 C   0  0  0  0  0  0  0  0  0  0  0  0
  141.1860   77.6480  221.1010 C   0  0  0  0  0  0  0  0  0  0  0  0
  142.0230   73.1230  219.8120 N   0  0  0  0  0  0  0  0  0  0  0  0
  143.3100   72.7340  219.7840 C   0  0  0  0  0  0  0  0  0  0  0  0
  143.8070   71.4840  219.4180 C   0  0  0  0  0  0  0  0  0  0  0  0
  147.6900   69.6390  218.1040 H   0  0  0  0  0  0  0  0  0  0  0  0
  147.1402   72.1901  219.9287 H   0  0  0  0  0  0  0  0  0  0  0  0
  146.1639   74.4129  220.5872 H   0  0  0  0  0  0  0  0  0  0  0  0
  143.6639   75.8226  220.8452 H   0  0  0  0  0  0  0  0  0  0  0  0
  141.6947   76.5833  218.2262 H   0  0  0  0  0  0  0  0  0  0  0  0
  140.0348   77.2050  218.2681 H   0  0  0  0  0  0  0  0  0  0  0  0
  143.7236   78.6984  219.1268 H   0  0  0  0  0  0  0  0  0  0  0  0
  143.1355   78.1359  217.5614 H   0  0  0  0  0  0  0  0  0  0  0  0
  143.6890   80.8774  218.4333 H   0  0  0  0  0  0  0  0  0  0  0  0
  143.1794   80.3279  216.8077 H   0  0  0  0  0  0  0  0  0  0  0  0
  140.4521   82.4546  217.4537 H   0  0  0  0  0  0  0  0  0  0  0  0
  140.0354   80.0274  216.2517 H   0  0  0  0  0  0  0  0  0  0  0  0
  139.7897   81.4836  215.2873 H   0  0  0  0  0  0  0  0  0  0  0  0
  142.0362   79.4878  215.2286 H   0  0  0  0  0  0  0  0  0  0  0  0
  141.4571   80.5551  213.9226 H   0  0  0  0  0  0  0  0  0  0  0  0
  143.6450   80.9230  215.6620 H   0  0  0  0  0  0  0  0  0  0  0  0
  143.1180   81.9490  214.4020 H   0  0  0  0  0  0  0  0  0  0  0  0
  143.1280   82.6311  216.9963 H   0  0  0  0  0  0  0  0  0  0  0  0
  142.0239   83.3403  215.7920 H   0  0  0  0  0  0  0  0  0  0  0  0
  139.8692   80.0045  218.9804 H   0  0  0  0  0  0  0  0  0  0  0  0
  140.2790   79.3642  217.3779 H   0  0  0  0  0  0  0  0  0  0  0  0
  142.3049   80.8476  220.7437 H   0  0  0  0  0  0  0  0  0  0  0  0
  142.2152   80.7116  223.2498 H   0  0  0  0  0  0  0  0  0  0  0  0
  141.4365   78.6108  224.3637 H   0  0  0  0  0  0  0  0  0  0  0  0
  140.7630   76.6255  222.9775 H   0  0  0  0  0  0  0  0  0  0  0  0
  141.1920   72.5310  219.5970 H   0  0  0  0  0  0  0  0  0  0  0  0
  143.1292   70.6765  219.1042 H   0  0  0  0  0  0  0  0  0  0  0  0
  1  2  1  0
  2  3  2  0
  2  4  1  0
  4  5  2  0
  5  6  1  0
  6  7  2  0
  7  8  1  0
  8  9  2  0
  9 10  1  0
 10 11  2  0
 10 12  1  0
 12 13  1  0
 14 13  1  1
 14 15  1  0
 15 16  1  0
 16 17  1  0
 17 18  1  0
 18 19  1  0
 19 20  1  0
 20 21  1  0
 21 22  1  0
 17 23  1  0
 14 24  1  0
 24 25  2  0
 25 26  1  0
 26 27  2  0
 27 28  1  0
 28 29  2  0
  9 30  1  0
 30 31  1  0
 31 32  2  0
 32  4  1  0
 31  7  1  0
 29 12  1  0
 23 14  1  0
 29 24  1  0
 22 18  1  0
  1 33  1  0
  5 34  1  0
  6 35  1  0
  8 36  1  0
 13 37  1  0
 13 38  1  0
 15 39  1  0
 15 40  1  0
 16 41  1  0
 16 42  1  0
 18 43  1  1
 19 44  1  0
 19 45  1  0
 20 46  1  0
 20 47  1  0
 21 48  1  0
 21 49  1  0
 22 50  1  0
 22 51  1  0
 23 52  1  0
 23 53  1  0
 25 54  1  0
 26 55  1  0
 27 56  1  0
 28 57  1  0
 30 58  1  0
 32 59  1  0
M  CHG  2   1  -1  21   1
M  END
>  <UniqueID>  (56) 
41

>  <SMILES>  (56) 
[NH-]C(=O)c1ccc2cc(C(=O)N3C[C@]4(CCN([C@@H]5CC[NH2+]C5)C4)c4ccccc43)[nH]c2c1

>  <Energy>  (56) 
127.27678864906035

>  <Genealogy>  (56) 
[NH-]C(=O)c1ccc2cc(C(=O)N3C[C@]4(CCN(C5CC[NH2+]C5)C4)c4ccccc43)[nH]c2c1 (protonated)
[NH-]C(=O)c1ccc2cc(C(=O)N3C[C@]4(CCN([C@@H]5CC[NH2+]C5)C4)c4ccccc43)[nH]c2c1 (chirality)
[NH-]C(=O)c1ccc2cc(C(=O)N3C[C@]4(CCN([C@@H]5CC[NH2+]C5)C4)c4ccccc43)[nH]c2c1 (3D coordinates assigned)
[NH-]C(=O)c1ccc2cc(C(=O)N3C[C@]4(CCN([C@@H]5CC[NH2+]C5)C4)c4ccccc43)[nH]c2c1 (nonaromatic ring conformer: 127.27678864906035 kcal/mol)

>  <smiles>  (56) 
NC(=O)c1ccc2cc(C(=O)N3C[C@]4(CCN(C5CCNC5)C4)c4ccccc43)[nH]c2c1

>  <score_type>  (56) 
oracle

>  <origin>  (56) 
autodockgpu

>  <m_score__min__energy>  (56) 
-9.8900000000000006

>  <m_primary>  (56) 
energy

>  <meeko>  (56) 
{"free_energy": -9.16, "intermolecular_energy": -10.65, "internal_energy": -0.94, "cluster_size": 16, "cluster_id": 1, "rank_in_cluster": 16}

>  <energy>  (56) 
-9.16

>  <cluster_rmsd>  (56) 
1.72

>  <rmsd>  (56) 
269.02

>  <cluster>  (56) 
1

$$$$
RRGBJOPXSUYLSO-MHFXRGQHNA-N
     RDKit          3D

 59 64  0  0  0  0  0  0  0  0999 V2000
  146.6760   69.9440  217.9690 N   0  0  0  0  0  0  0  0  0  0  0  0
  145.8050   69.9190  219.0980 C   0  0  0  0  0  0  0  0  0  0  0  0
  145.6340   68.8360  219.7190 O   0  0  0  0  0  0  0  0  0  0  0  0
  145.1130   71.1530  219.5400 C   0  0  0  0  0  0  0  0  0  0  0  0
  145.7780   72.4090  219.4770 C   0  0  0  0  0  0  0  0  0  0  0  0
  145.1300   73.5880  219.8850 C   0  0  0  0  0  0  0  0  0  0  0  0
  143.8220   73.4860  220.3460 C   0  0  0  0  0  0  0  0  0  0  0  0
  142.9560   74.4540  220.8090 C   0  0  0  0  0  0  0  0  0  0  0  0
  141.7910   73.7660  221.1370 C   0  0  0  0  0  0  0  0  0  0  0  0
  140.5830   74.3890  221.7070 C   0  0  0  0  0  0  0  0  0  0  0  0
  139.7610   73.6670  222.3320 O   0  0  0  0  0  0  0  0  0  0  0  0
  140.3470   75.8030  221.5920 N   0  0  0  0  0  0  0  0  0  0  0  0
  141.4260   76.7900  221.4650 C   0  0  0  0  0  0  0  0  0  0  0  0
  140.8430   78.1450  221.9880 C   0  0  1  0  0  0  0  0  0  0  0  0
  141.5630   78.6940  223.2150 C   0  0  0  0  0  0  0  0  0  0  0  0
  141.5130   80.2140  223.0560 C   0  0  0  0  0  0  0  0  0  0  0  0
  140.8840   80.5320  221.7570 N   0  0  0  0  0  0  0  0  0  0  0  0
  141.5450   81.6730  221.0680 C   0  0  2  0  0  0  0  0  0  0  0  0
  140.7630   82.9690  221.2630 C   0  0  0  0  0  0  0  0  0  0  0  0
  139.7320   82.9750  220.1440 C   0  0  0  0  0  0  0  0  0  0  0  0
  140.2050   82.0640  219.0960 N   0  0  0  0  0  0  0  0  0  0  0  0
  141.4920   81.5240  219.5440 C   0  0  0  0  0  0  0  0  0  0  0  0
  140.9430   79.2860  220.9790 C   0  0  0  0  0  0  0  0  0  0  0  0
  139.4110   77.7980  222.2960 C   0  0  0  0  0  0  0  0  0  0  0  0
  138.3860   78.6340  222.7600 C   0  0  0  0  0  0  0  0  0  0  0  0
  137.1140   78.0850  222.9740 C   0  0  0  0  0  0  0  0  0  0  0  0
  136.8790   76.7220  222.7200 C   0  0  0  0  0  0  0  0  0  0  0  0
  137.9180   75.8990  222.2590 C   0  0  0  0  0  0  0  0  0  0  0  0
  139.1840   76.4660  222.0670 C   0  0  0  0  0  0  0  0  0  0  0  0
  141.9300   72.4390  220.9030 N   0  0  0  0  0  0  0  0  0  0  0  0
  143.1730   72.2840  220.4160 C   0  0  0  0  0  0  0  0  0  0  0  0
  143.7860   71.0940  220.0270 C   0  0  0  0  0  0  0  0  0  0  0  0
  147.6710   69.6400  218.0520 H   0  0  0  0  0  0  0  0  0  0  0  0
  146.8118   72.4583  219.1045 H   0  0  0  0  0  0  0  0  0  0  0  0
  145.6416   74.5608  219.8409 H   0  0  0  0  0  0  0  0  0  0  0  0
  143.1445   75.5340  220.8995 H   0  0  0  0  0  0  0  0  0  0  0  0
  142.2922   76.4881  222.0721 H   0  0  0  0  0  0  0  0  0  0  0  0
  141.7688   76.8769  220.4234 H   0  0  0  0  0  0  0  0  0  0  0  0
  141.0478   78.3845  224.1363 H   0  0  0  0  0  0  0  0  0  0  0  0
  142.5948   78.3201  223.2903 H   0  0  0  0  0  0  0  0  0  0  0  0
  140.9200   80.6526  223.8721 H   0  0  0  0  0  0  0  0  0  0  0  0
  142.5310   80.6292  223.0921 H   0  0  0  0  0  0  0  0  0  0  0  0
  142.5636   81.6884  221.4829 H   0  0  0  0  0  0  0  0  0  0  0  0
  140.2682   82.9786  222.2454 H   0  0  0  0  0  0  0  0  0  0  0  0
  141.4143   83.8549  221.2313 H   0  0  0  0  0  0  0  0  0  0  0  0
  138.7602   82.6315  220.5283 H   0  0  0  0  0  0  0  0  0  0  0  0
  139.6056   83.9912  219.7424 H   0  0  0  0  0  0  0  0  0  0  0  0
  139.5210   81.2810  218.9690 H   0  0  0  0  0  0  0  0  0  0  0  0
  140.3190   82.5750  218.1890 H   0  0  0  0  0  0  0  0  0  0  0  0
  141.5714   80.4624  219.2669 H   0  0  0  0  0  0  0  0  0  0  0  0
  142.3258   82.0639  219.0714 H   0  0  0  0  0  0  0  0  0  0  0  0
  140.1044   79.2406  220.2686 H   0  0  0  0  0  0  0  0  0  0  0  0
  141.8733   79.2230  220.3955 H   0  0  0  0  0  0  0  0  0  0  0  0
  138.5761   79.7002  222.9525 H   0  0  0  0  0  0  0  0  0  0  0  0
  136.2967   78.7227  223.3420 H   0  0  0  0  0  0  0  0  0  0  0  0
  135.8767   76.2992  222.8833 H   0  0  0  0  0  0  0  0  0  0  0  0
  137.7420   74.8329  222.0532 H   0  0  0  0  0  0  0  0  0  0  0  0
  141.2410   71.6810  221.1000 H   0  0  0  0  0  0  0  0  0  0  0  0
  143.2522   70.1347  220.0968 H   0  0  0  0  0  0  0  0  0  0  0  0
  1  2  1  0
  2  3  2  0
  2  4  1  0
  4  5  2  0
  5  6  1  0
  6  7  2  0
  7  8  1  0
  8  9  2  0
  9 10  1  0
 10 11  2  0
 10 12  1  0
 12 13  1  0
 14 13  1  6
 14 15  1  0
 15 16  1  0
 16 17  1  0
 17 18  1  0
 18 19  1  0
 19 20  1  0
 20 21  1  0
 21 22  1  0
 17 23  1  0
 14 24  1  0
 24 25  2  0
 25 26  1  0
 26 27  2  0
 27 28  1  0
 28 29  2  0
  9 30  1  0
 30 31  1  0
 31 32  2  0
 32  4  1  0
 31  7  1  0
 29 12  1  0
 23 14  1  0
 29 24  1  0
 22 18  1  0
  1 33  1  0
  5 34  1  0
  6 35  1  0
  8 36  1  0
 13 37  1  0
 13 38  1  0
 15 39  1  0
 15 40  1  0
 16 41  1  0
 16 42  1  0
 18 43  1  1
 19 44  1  0
 19 45  1  0
 20 46  1  0
 20 47  1  0
 21 48  1  0
 21 49  1  0
 22 50  1  0
 22 51  1  0
 23 52  1  0
 23 53  1  0
 25 54  1  0
 26 55  1  0
 27 56  1  0
 28 57  1  0
 30 58  1  0
 32 59  1  0
M  CHG  2   1  -1  21   1
M  END
>  <UniqueID>  (57) 
41

>  <SMILES>  (57) 
[NH-]C(=O)c1ccc2cc(C(=O)N3C[C@]4(CCN([C@@H]5CC[NH2+]C5)C4)c4ccccc43)[nH]c2c1

>  <Energy>  (57) 
127.27678864906035

>  <Genealogy>  (57) 
[NH-]C(=O)c1ccc2cc(C(=O)N3C[C@]4(CCN(C5CC[NH2+]C5)C4)c4ccccc43)[nH]c2c1 (protonated)
[NH-]C(=O)c1ccc2cc(C(=O)N3C[C@]4(CCN([C@@H]5CC[NH2+]C5)C4)c4ccccc43)[nH]c2c1 (chirality)
[NH-]C(=O)c1ccc2cc(C(=O)N3C[C@]4(CCN([C@@H]5CC[NH2+]C5)C4)c4ccccc43)[nH]c2c1 (3D coordinates assigned)
[NH-]C(=O)c1ccc2cc(C(=O)N3C[C@]4(CCN([C@@H]5CC[NH2+]C5)C4)c4ccccc43)[nH]c2c1 (nonaromatic ring conformer: 127.27678864906035 kcal/mol)

>  <smiles>  (57) 
NC(=O)c1ccc2cc(C(=O)N3C[C@]4(CCN(C5CCNC5)C4)c4ccccc43)[nH]c2c1

>  <score_type>  (57) 
oracle

>  <origin>  (57) 
autodockgpu

>  <m_score__min__energy>  (57) 
-9.8900000000000006

>  <m_primary>  (57) 
energy

>  <meeko>  (57) 
{"free_energy": -8.95, "intermolecular_energy": -10.44, "internal_energy": -0.69, "cluster_size": 1, "cluster_id": 3, "rank_in_cluster": 1}

>  <energy>  (57) 
-9.23

>  <cluster_rmsd>  (57) 
0.0

>  <rmsd>  (57) 
271.12

>  <cluster>  (57) 
2

$$$$
RRGBJOPXSUYLSO-MHFXRGQHNA-N
     RDKit          3D

 59 64  0  0  0  0  0  0  0  0999 V2000
  146.0480   70.7850  219.1920 N   0  0  0  0  0  0  0  0  0  0  0  0
  145.7830   72.1440  219.5340 C   0  0  0  0  0  0  0  0  0  0  0  0
  146.6980   73.0010  219.4050 O   0  0  0  0  0  0  0  0  0  0  0  0
  144.4460   72.5470  220.0300 C   0  0  0  0  0  0  0  0  0  0  0  0
  143.4830   71.5580  220.3790 C   0  0  0  0  0  0  0  0  0  0  0  0
  142.2150   71.9260  220.8590 C   0  0  0  0  0  0  0  0  0  0  0  0
  141.9340   73.2810  220.9850 C   0  0  0  0  0  0  0  0  0  0  0  0
  140.7930   73.9250  221.4150 C   0  0  0  0  0  0  0  0  0  0  0  0
  141.0900   75.2820  221.3210 C   0  0  0  0  0  0  0  0  0  0  0  0
  140.1500   76.3690  221.6500 C   0  0  0  0  0  0  0  0  0  0  0  0
  139.1660   76.1210  222.3980 O   0  0  0  0  0  0  0  0  0  0  0  0
  140.3570   77.7070  221.1640 N   0  0  0  0  0  0  0  0  0  0  0  0
  140.4340   78.0400  219.7370 C   0  0  0  0  0  0  0  0  0  0  0  0
  141.2550   79.3690  219.6420 C   0  0  1  0  0  0  0  0  0  0  0  0
  142.5600   79.2340  218.8660 C   0  0  0  0  0  0  0  0  0  0  0  0
  142.7440   80.5790  218.1630 C   0  0  0  0  0  0  0  0  0  0  0  0
  141.5600   81.4200  218.4350 N   0  0  0  0  0  0  0  0  0  0  0  0
  141.1300   82.2020  217.2450 C   0  0  2  0  0  0  0  0  0  0  0  0
  140.2900   81.3530  216.2960 C   0  0  0  0  0  0  0  0  0  0  0  0
  141.3000   80.6590  215.3950 C   0  0  0  0  0  0  0  0  0  0  0  0
  142.5500   81.4260  215.4510 N   0  0  0  0  0  0  0  0  0  0  0  0
  142.3150   82.5640  216.3440 C   0  0  0  0  0  0  0  0  0  0  0  0
  140.5230   80.4910  218.9100 C   0  0  0  0  0  0  0  0  0  0  0  0
  141.5030   79.7150  221.0860 C   0  0  0  0  0  0  0  0  0  0  0  0
  142.1580   80.8320  221.6200 C   0  0  0  0  0  0  0  0  0  0  0  0
  142.2670   80.9480  223.0140 C   0  0  0  0  0  0  0  0  0  0  0  0
  141.7200   79.9590  223.8500 C   0  0  0  0  0  0  0  0  0  0  0  0
  141.0700   78.8450  223.2970 C   0  0  0  0  0  0  0  0  0  0  0  0
  140.9870   78.7430  221.9030 C   0  0  0  0  0  0  0  0  0  0  0  0
  142.3430   75.4720  220.8450 N   0  0  0  0  0  0  0  0  0  0  0  0
  142.8480   74.2420  220.6490 C   0  0  0  0  0  0  0  0  0  0  0  0
  144.1130   73.9150  220.1630 C   0  0  0  0  0  0  0  0  0  0  0  0
  146.8970   70.5260  218.6420 H   0  0  0  0  0  0  0  0  0  0  0  0
  143.7350   70.4927  220.2715 H   0  0  0  0  0  0  0  0  0  0  0  0
  141.4675   71.1648  221.1269 H   0  0  0  0  0  0  0  0  0  0  0  0
  139.8535   73.4667  221.7574 H   0  0  0  0  0  0  0  0  0  0  0  0
  140.9438   77.2366  219.1850 H   0  0  0  0  0  0  0  0  0  0  0  0
  139.4321   78.1557  219.2979 H   0  0  0  0  0  0  0  0  0  0  0  0
  143.3983   79.0379  219.5507 H   0  0  0  0  0  0  0  0  0  0  0  0
  142.5321   78.3962  218.1537 H   0  0  0  0  0  0  0  0  0  0  0  0
  143.6474   81.0764  218.5456 H   0  0  0  0  0  0  0  0  0  0  0  0
  142.8537   80.4243  217.0795 H   0  0  0  0  0  0  0  0  0  0  0  0
  140.6040   83.0713  217.6665 H   0  0  0  0  0  0  0  0  0  0  0  0
  139.6998   80.6137  216.8574 H   0  0  0  0  0  0  0  0  0  0  0  0
  139.5717   81.9586  215.7239 H   0  0  0  0  0  0  0  0  0  0  0  0
  141.4744   79.6323  215.7491 H   0  0  0  0  0  0  0  0  0  0  0  0
  140.9246   80.6097  214.3622 H   0  0  0  0  0  0  0  0  0  0  0  0
  143.3180   80.8290  215.8360 H   0  0  0  0  0  0  0  0  0  0  0  0
  142.8180   81.7610  214.4950 H   0  0  0  0  0  0  0  0  0  0  0  0
  143.2092   82.7524  216.9563 H   0  0  0  0  0  0  0  0  0  0  0  0
  142.0990   83.4740  215.7650 H   0  0  0  0  0  0  0  0  0  0  0  0
  139.8344   81.0070  219.5953 H   0  0  0  0  0  0  0  0  0  0  0  0
  139.9244   80.0991  218.0745 H   0  0  0  0  0  0  0  0  0  0  0  0
  142.5790   81.6038  220.9589 H   0  0  0  0  0  0  0  0  0  0  0  0
  142.7817   81.8149  223.4538 H   0  0  0  0  0  0  0  0  0  0  0  0
  141.8018   80.0588  224.9424 H   0  0  0  0  0  0  0  0  0  0  0  0
  140.6353   78.0691  223.9443 H   0  0  0  0  0  0  0  0  0  0  0  0
  142.8130   76.3780  220.6270 H   0  0  0  0  0  0  0  0  0  0  0  0
  144.8332   74.7004  219.8901 H   0  0  0  0  0  0  0  0  0  0  0  0
  1  2  1  0
  2  3  2  0
  2  4  1  0
  4  5  2  0
  5  6  1  0
  6  7  2  0
  7  8  1  0
  8  9  2  0
  9 10  1  0
 10 11  2  0
 10 12  1  0
 12 13  1  0
 14 13  1  1
 14 15  1  0
 15 16  1  0
 16 17  1  0
 17 18  1  0
 18 19  1  0
 19 20  1  0
 20 21  1  0
 21 22  1  0
 17 23  1  0
 14 24  1  0
 24 25  2  0
 25 26  1  0
 26 27  2  0
 27 28  1  0
 28 29  2  0
  9 30  1  0
 30 31  1  0
 31 32  2  0
 32  4  1  0
 31  7  1  0
 29 12  1  0
 23 14  1  0
 29 24  1  0
 22 18  1  0
  1 33  1  0
  5 34  1  0
  6 35  1  0
  8 36  1  0
 13 37  1  0
 13 38  1  0
 15 39  1  0
 15 40  1  0
 16 41  1  0
 16 42  1  0
 18 43  1  1
 19 44  1  0
 19 45  1  0
 20 46  1  0
 20 47  1  0
 21 48  1  0
 21 49  1  0
 22 50  1  0
 22 51  1  0
 23 52  1  0
 23 53  1  0
 25 54  1  0
 26 55  1  0
 27 56  1  0
 28 57  1  0
 30 58  1  0
 32 59  1  0
M  CHG  2   1  -1  21   1
M  END
>  <UniqueID>  (58) 
41

>  <SMILES>  (58) 
[NH-]C(=O)c1ccc2cc(C(=O)N3C[C@]4(CCN([C@@H]5CC[NH2+]C5)C4)c4ccccc43)[nH]c2c1

>  <Energy>  (58) 
127.27678864906035

>  <Genealogy>  (58) 
[NH-]C(=O)c1ccc2cc(C(=O)N3C[C@]4(CCN(C5CC[NH2+]C5)C4)c4ccccc43)[nH]c2c1 (protonated)
[NH-]C(=O)c1ccc2cc(C(=O)N3C[C@]4(CCN([C@@H]5CC[NH2+]C5)C4)c4ccccc43)[nH]c2c1 (chirality)
[NH-]C(=O)c1ccc2cc(C(=O)N3C[C@]4(CCN([C@@H]5CC[NH2+]C5)C4)c4ccccc43)[nH]c2c1 (3D coordinates assigned)
[NH-]C(=O)c1ccc2cc(C(=O)N3C[C@]4(CCN([C@@H]5CC[NH2+]C5)C4)c4ccccc43)[nH]c2c1 (nonaromatic ring conformer: 127.27678864906035 kcal/mol)

>  <smiles>  (58) 
NC(=O)c1ccc2cc(C(=O)N3C[C@]4(CCN(C5CCNC5)C4)c4ccccc43)[nH]c2c1

>  <score_type>  (58) 
oracle

>  <origin>  (58) 
autodockgpu

>  <m_score__min__energy>  (58) 
-9.8900000000000006

>  <m_primary>  (58) 
energy

>  <meeko>  (58) 
{"free_energy": -9.44, "intermolecular_energy": -10.93, "internal_energy": -0.87, "cluster_size": 16, "cluster_id": 1, "rank_in_cluster": 14}

>  <energy>  (58) 
-8.95

>  <cluster_rmsd>  (58) 
0.0

>  <rmsd>  (58) 
269.79

>  <cluster>  (58) 
3

$$$$
RRGBJOPXSUYLSO-MHFXRGQHNA-N
     RDKit          3D

 59 64  0  0  0  0  0  0  0  0999 V2000
  133.5960   74.1360  226.5510 N   0  0  0  0  0  0  0  0  0  0  0  0
  133.1820   75.0460  225.5340 C   0  0  0  0  0  0  0  0  0  0  0  0
  131.9540   75.1740  225.2850 O   0  0  0  0  0  0  0  0  0  0  0  0
  134.1850   75.8370  224.7810 C   0  0  0  0  0  0  0  0  0  0  0  0
  133.9620   77.2190  224.5260 C   0  0  0  0  0  0  0  0  0  0  0  0
  134.9090   77.9830  223.8200 C   0  0  0  0  0  0  0  0  0  0  0  0
  136.0650   77.3460  223.3850 C   0  0  0  0  0  0  0  0  0  0  0  0
  137.1450   77.8310  222.6780 C   0  0  0  0  0  0  0  0  0  0  0  0
  137.9940   76.7390  222.5250 C   0  0  0  0  0  0  0  0  0  0  0  0
  139.2760   76.7700  221.7990 C   0  0  0  0  0  0  0  0  0  0  0  0
  139.8580   75.6830  221.5380 O   0  0  0  0  0  0  0  0  0  0  0  0
  139.8530   78.0110  221.3550 N   0  0  0  0  0  0  0  0  0  0  0  0
  139.9210   78.4060  219.9440 C   0  0  0  0  0  0  0  0  0  0  0  0
  141.1070   79.4210  219.8310 C   0  0  1  0  0  0  0  0  0  0  0  0
  142.2410   78.9480  218.9290 C   0  0  0  0  0  0  0  0  0  0  0  0
  142.7820   80.2180  218.2720 C   0  0  0  0  0  0  0  0  0  0  0  0
  141.9440   81.3610  218.6930 N   0  0  0  0  0  0  0  0  0  0  0  0
  141.6910   82.3210  217.5840 C   0  0  2  0  0  0  0  0  0  0  0  0
  140.5970   81.8140  216.6490 C   0  0  0  0  0  0  0  0  0  0  0  0
  141.3220   80.9370  215.6390 C   0  0  0  0  0  0  0  0  0  0  0  0
  142.7380   81.3200  215.6510 N   0  0  0  0  0  0  0  0  0  0  0  0
  142.8820   82.4070  216.6240 C   0  0  0  0  0  0  0  0  0  0  0  0
  140.7080   80.7640  219.2220 C   0  0  0  0  0  0  0  0  0  0  0  0
  141.5590   79.5700  221.2590 C   0  0  0  0  0  0  0  0  0  0  0  0
  142.5700   80.3900  221.7770 C   0  0  0  0  0  0  0  0  0  0  0  0
  142.8150   80.3660  223.1580 C   0  0  0  0  0  0  0  0  0  0  0  0
  142.0520   79.5360  223.9980 C   0  0  0  0  0  0  0  0  0  0  0  0
  141.0460   78.7180  223.4600 C   0  0  0  0  0  0  0  0  0  0  0  0
  140.8290   78.7470  222.0770 C   0  0  0  0  0  0  0  0  0  0  0  0
  137.4640   75.6300  223.0930 N   0  0  0  0  0  0  0  0  0  0  0  0
  136.2890   76.0170  223.6190 C   0  0  0  0  0  0  0  0  0  0  0  0
  135.3710   75.2270  224.3090 C   0  0  0  0  0  0  0  0  0  0  0  0
  133.1060   74.1040  227.4720 H   0  0  0  0  0  0  0  0  0  0  0  0
  133.0380   77.6957  224.8852 H   0  0  0  0  0  0  0  0  0  0  0  0
  134.7398   79.0511  223.6186 H   0  0  0  0  0  0  0  0  0  0  0  0
  137.3014   78.8573  222.3143 H   0  0  0  0  0  0  0  0  0  0  0  0
  140.1100   77.5267  219.3106 H   0  0  0  0  0  0  0  0  0  0  0  0
  138.9752   78.8559  219.6078 H   0  0  0  0  0  0  0  0  0  0  0  0
  143.0259   78.4550  219.5214 H   0  0  0  0  0  0  0  0  0  0  0  0
  141.8979   78.2131  218.1859 H   0  0  0  0  0  0  0  0  0  0  0  0
  143.8222   80.3847  218.5886 H   0  0  0  0  0  0  0  0  0  0  0  0
  142.7548   80.1154  217.1771 H   0  0  0  0  0  0  0  0  0  0  0  0
  141.4543   83.2676  218.0919 H   0  0  0  0  0  0  0  0  0  0  0  0
  139.8521   81.2275  217.2068 H   0  0  0  0  0  0  0  0  0  0  0  0
  140.0502   82.6372  216.1660 H   0  0  0  0  0  0  0  0  0  0  0  0
  141.2179   79.8784  215.9191 H   0  0  0  0  0  0  0  0  0  0  0  0
  140.8948   81.0724  214.6344 H   0  0  0  0  0  0  0  0  0  0  0  0
  143.3260   80.5060  215.9440 H   0  0  0  0  0  0  0  0  0  0  0  0
  143.0400   81.6410  214.7000 H   0  0  0  0  0  0  0  0  0  0  0  0
  143.8234   82.2911  217.1810 H   0  0  0  0  0  0  0  0  0  0  0  0
  142.9033   83.3829  216.1169 H   0  0  0  0  0  0  0  0  0  0  0  0
  140.2693   81.4159  219.9917 H   0  0  0  0  0  0  0  0  0  0  0  0
  139.9551   80.6361  218.4303 H   0  0  0  0  0  0  0  0  0  0  0  0
  143.1600   81.0398  221.1139 H   0  0  0  0  0  0  0  0  0  0  0  0
  143.6069   80.9988  223.5852 H   0  0  0  0  0  0  0  0  0  0  0  0
  142.2441   79.5276  225.0811 H   0  0  0  0  0  0  0  0  0  0  0  0
  140.4416   78.0687  224.1105 H   0  0  0  0  0  0  0  0  0  0  0  0
  137.8540   74.6620  223.0900 H   0  0  0  0  0  0  0  0  0  0  0  0
  135.5636   74.1579  224.4819 H   0  0  0  0  0  0  0  0  0  0  0  0
  1  2  1  0
  2  3  2  0
  2  4  1  0
  4  5  2  0
  5  6  1  0
  6  7  2  0
  7  8  1  0
  8  9  2  0
  9 10  1  0
 10 11  2  0
 10 12  1  0
 12 13  1  0
 14 13  1  1
 14 15  1  0
 15 16  1  0
 16 17  1  0
 17 18  1  0
 18 19  1  0
 19 20  1  0
 20 21  1  0
 21 22  1  0
 17 23  1  0
 14 24  1  0
 24 25  2  0
 25 26  1  0
 26 27  2  0
 27 28  1  0
 28 29  2  0
  9 30  1  0
 30 31  1  0
 31 32  2  0
 32  4  1  0
 31  7  1  0
 29 12  1  0
 23 14  1  0
 29 24  1  0
 22 18  1  0
  1 33  1  0
  5 34  1  0
  6 35  1  0
  8 36  1  0
 13 37  1  0
 13 38  1  0
 15 39  1  0
 15 40  1  0
 16 41  1  0
 16 42  1  0
 18 43  1  1
 19 44  1  0
 19 45  1  0
 20 46  1  0
 20 47  1  0
 21 48  1  0
 21 49  1  0
 22 50  1  0
 22 51  1  0
 23 52  1  0
 23 53  1  0
 25 54  1  0
 26 55  1  0
 27 56  1  0
 28 57  1  0
 30 58  1  0
 32 59  1  0
M  CHG  2   1  -1  21   1
M  END
>  <UniqueID>  (59) 
41

>  <SMILES>  (59) 
[NH-]C(=O)c1ccc2cc(C(=O)N3C[C@]4(CCN([C@@H]5CC[NH2+]C5)C4)c4ccccc43)[nH]c2c1

>  <Energy>  (59) 
127.27678864906035

>  <Genealogy>  (59) 
[NH-]C(=O)c1ccc2cc(C(=O)N3C[C@]4(CCN(C5CC[NH2+]C5)C4)c4ccccc43)[nH]c2c1 (protonated)
[NH-]C(=O)c1ccc2cc(C(=O)N3C[C@]4(CCN([C@@H]5CC[NH2+]C5)C4)c4ccccc43)[nH]c2c1 (chirality)
[NH-]C(=O)c1ccc2cc(C(=O)N3C[C@]4(CCN([C@@H]5CC[NH2+]C5)C4)c4ccccc43)[nH]c2c1 (3D coordinates assigned)
[NH-]C(=O)c1ccc2cc(C(=O)N3C[C@]4(CCN([C@@H]5CC[NH2+]C5)C4)c4ccccc43)[nH]c2c1 (nonaromatic ring conformer: 127.27678864906035 kcal/mol)

>  <smiles>  (59) 
NC(=O)c1ccc2cc(C(=O)N3C[C@]4(CCN(C5CCNC5)C4)c4ccccc43)[nH]c2c1

>  <score_type>  (59) 
oracle

>  <origin>  (59) 
autodockgpu

>  <m_score__min__energy>  (59) 
-9.8900000000000006

>  <m_primary>  (59) 
energy

>  <meeko>  (59) 
{"free_energy": -8.33, "intermolecular_energy": -9.82, "internal_energy": -0.83, "cluster_size": 1, "cluster_id": 4, "rank_in_cluster": 1}

>  <energy>  (59) 
-8.33

>  <cluster_rmsd>  (59) 
0.0

>  <rmsd>  (59) 
269.48

>  <cluster>  (59) 
4

$$$$
RRGBJOPXSUYLSO-MHFXRGQHNA-N
     RDKit          3D

 59 64  0  0  0  0  0  0  0  0999 V2000
  146.2950   72.6410  218.9840 N   0  0  0  0  0  0  0  0  0  0  0  0
  145.3250   71.7240  219.4850 C   0  0  0  0  0  0  0  0  0  0  0  0
  145.5770   70.4890  219.4660 O   0  0  0  0  0  0  0  0  0  0  0  0
  144.0360   72.2160  220.0280 C   0  0  0  0  0  0  0  0  0  0  0  0
  143.0030   71.2970  220.3630 C   0  0  0  0  0  0  0  0  0  0  0  0
  141.7790   71.7490  220.8870 C   0  0  0  0  0  0  0  0  0  0  0  0
  141.6150   73.1180  221.0690 C   0  0  0  0  0  0  0  0  0  0  0  0
  140.5410   73.8360  221.5490 C   0  0  0  0  0  0  0  0  0  0  0  0
  140.9470   75.1670  221.4970 C   0  0  0  0  0  0  0  0  0  0  0  0
  140.1080   76.3140  221.8880 C   0  0  0  0  0  0  0  0  0  0  0  0
  139.1470   76.1260  222.6810 O   0  0  0  0  0  0  0  0  0  0  0  0
  140.3870   77.6410  221.4080 N   0  0  0  0  0  0  0  0  0  0  0  0
  140.3620   78.0030  219.9860 C   0  0  0  0  0  0  0  0  0  0  0  0
  141.2870   79.2570  219.8380 C   0  0  1  0  0  0  0  0  0  0  0  0
  142.4980   79.0290  218.9400 C   0  0  0  0  0  0  0  0  0  0  0  0
  142.7360   80.3700  218.2470 C   0  0  0  0  0  0  0  0  0  0  0  0
  141.6610   81.3040  218.6440 N   0  0  0  0  0  0  0  0  0  0  0  0
  141.1960   82.1520  217.5130 C   0  0  2  0  0  0  0  0  0  0  0  0
  140.3160   81.3590  216.5510 C   0  0  0  0  0  0  0  0  0  0  0  0
  141.2880   80.7090  215.5780 C   0  0  0  0  0  0  0  0  0  0  0  0
  142.5450   81.4650  215.6310 N   0  0  0  0  0  0  0  0  0  0  0  0
  142.3510   82.5550  216.5920 C   0  0  0  0  0  0  0  0  0  0  0  0
  140.5940   80.4570  219.1980 C   0  0  0  0  0  0  0  0  0  0  0  0
  141.6960   79.5420  221.2580 C   0  0  0  0  0  0  0  0  0  0  0  0
  142.4950   80.5840  221.7480 C   0  0  0  0  0  0  0  0  0  0  0  0
  142.7420   80.6530  223.1270 C   0  0  0  0  0  0  0  0  0  0  0  0
  142.1880   79.6940  223.9930 C   0  0  0  0  0  0  0  0  0  0  0  0
  141.3920   78.6560  223.4840 C   0  0  0  0  0  0  0  0  0  0  0  0
  141.1730   78.5980  222.1030 C   0  0  0  0  0  0  0  0  0  0  0  0
  142.2010   75.2710  220.9980 N   0  0  0  0  0  0  0  0  0  0  0  0
  142.5980   74.0120  220.7450 C   0  0  0  0  0  0  0  0  0  0  0  0
  143.8210   73.6010  220.2180 C   0  0  0  0  0  0  0  0  0  0  0  0
  146.0900   73.6640  218.9340 H   0  0  0  0  0  0  0  0  0  0  0  0
  143.1638   70.2196  220.2102 H   0  0  0  0  0  0  0  0  0  0  0  0
  140.9766   71.0422  221.1448 H   0  0  0  0  0  0  0  0  0  0  0  0
  139.5742   73.4434  221.8971 H   0  0  0  0  0  0  0  0  0  0  0  0
  140.7447   77.1726  219.3744 H   0  0  0  0  0  0  0  0  0  0  0  0
  139.3384   78.2176  219.6450 H   0  0  0  0  0  0  0  0  0  0  0  0
  143.3749   78.7427  219.5392 H   0  0  0  0  0  0  0  0  0  0  0  0
  142.3297   78.2158  218.2187 H   0  0  0  0  0  0  0  0  0  0  0  0
  143.7115   80.7767  218.5520 H   0  0  0  0  0  0  0  0  0  0  0  0
  142.7317   80.2346  217.1554 H   0  0  0  0  0  0  0  0  0  0  0  0
  140.6923   83.0012  217.9979 H   0  0  0  0  0  0  0  0  0  0  0  0
  139.7413   80.5938  217.0934 H   0  0  0  0  0  0  0  0  0  0  0  0
  139.5818   81.9980  216.0385 H   0  0  0  0  0  0  0  0  0  0  0  0
  141.4670   79.6635  215.8695 H   0  0  0  0  0  0  0  0  0  0  0  0
  140.8759   80.7177  214.5582 H   0  0  0  0  0  0  0  0  0  0  0  0
  143.3220   80.8430  215.9560 H   0  0  0  0  0  0  0  0  0  0  0  0
  142.7820   81.8500  214.6860 H   0  0  0  0  0  0  0  0  0  0  0  0
  143.2676   82.7043  217.1815 H   0  0  0  0  0  0  0  0  0  0  0  0
  142.1225   83.4965  216.0711 H   0  0  0  0  0  0  0  0  0  0  0  0
  140.0203   81.0132  219.9540 H   0  0  0  0  0  0  0  0  0  0  0  0
  139.8886   80.1404  218.4156 H   0  0  0  0  0  0  0  0  0  0  0  0
  142.9203   81.3334  221.0642 H   0  0  0  0  0  0  0  0  0  0  0  0
  143.3708   81.4596  223.5320 H   0  0  0  0  0  0  0  0  0  0  0  0
  142.3792   79.7574  225.0744 H   0  0  0  0  0  0  0  0  0  0  0  0
  140.9503   77.9050  224.1555 H   0  0  0  0  0  0  0  0  0  0  0  0
  142.7400   76.1430  220.8020 H   0  0  0  0  0  0  0  0  0  0  0  0
  144.5983   74.3342  219.9568 H   0  0  0  0  0  0  0  0  0  0  0  0
  1  2  1  0
  2  3  2  0
  2  4  1  0
  4  5  2  0
  5  6  1  0
  6  7  2  0
  7  8  1  0
  8  9  2  0
  9 10  1  0
 10 11  2  0
 10 12  1  0
 12 13  1  0
 14 13  1  1
 14 15  1  0
 15 16  1  0
 16 17  1  0
 17 18  1  0
 18 19  1  0
 19 20  1  0
 20 21  1  0
 21 22  1  0
 17 23  1  0
 14 24  1  0
 24 25  2  0
 25 26  1  0
 26 27  2  0
 27 28  1  0
 28 29  2  0
  9 30  1  0
 30 31  1  0
 31 32  2  0
 32  4  1  0
 31  7  1  0
 29 12  1  0
 23 14  1  0
 29 24  1  0
 22 18  1  0
  1 33  1  0
  5 34  1  0
  6 35  1  0
  8 36  1  0
 13 37  1  0
 13 38  1  0
 15 39  1  0
 15 40  1  0
 16 41  1  0
 16 42  1  0
 18 43  1  1
 19 44  1  0
 19 45  1  0
 20 46  1  0
 20 47  1  0
 21 48  1  0
 21 49  1  0
 22 50  1  0
 22 51  1  0
 23 52  1  0
 23 53  1  0
 25 54  1  0
 26 55  1  0
 27 56  1  0
 28 57  1  0
 30 58  1  0
 32 59  1  0
M  CHG  2   1  -1  21   1
M  END
>  <UniqueID>  (60) 
41

>  <SMILES>  (60) 
[NH-]C(=O)c1ccc2cc(C(=O)N3C[C@]4(CCN([C@@H]5CC[NH2+]C5)C4)c4ccccc43)[nH]c2c1

>  <Energy>  (60) 
127.27678864906035

>  <Genealogy>  (60) 
[NH-]C(=O)c1ccc2cc(C(=O)N3C[C@]4(CCN(C5CC[NH2+]C5)C4)c4ccccc43)[nH]c2c1 (protonated)
[NH-]C(=O)c1ccc2cc(C(=O)N3C[C@]4(CCN([C@@H]5CC[NH2+]C5)C4)c4ccccc43)[nH]c2c1 (chirality)
[NH-]C(=O)c1ccc2cc(C(=O)N3C[C@]4(CCN([C@@H]5CC[NH2+]C5)C4)c4ccccc43)[nH]c2c1 (3D coordinates assigned)
[NH-]C(=O)c1ccc2cc(C(=O)N3C[C@]4(CCN([C@@H]5CC[NH2+]C5)C4)c4ccccc43)[nH]c2c1 (nonaromatic ring conformer: 127.27678864906035 kcal/mol)

>  <smiles>  (60) 
NC(=O)c1ccc2cc(C(=O)N3C[C@]4(CCN(C5CCNC5)C4)c4ccccc43)[nH]c2c1

>  <score_type>  (60) 
oracle

>  <origin>  (60) 
autodockgpu

>  <m_score__min__energy>  (60) 
-9.8900000000000006

>  <m_primary>  (60) 
energy

>  <meeko>  (60) 
{"free_energy": -9.88, "intermolecular_energy": -11.37, "internal_energy": -0.82, "cluster_size": 16, "cluster_id": 1, "rank_in_cluster": 2}

>  <energy>  (60) 
-8.19

>  <cluster_rmsd>  (60) 
0.0

>  <rmsd>  (60) 
271.49

>  <cluster>  (60) 
5

$$$$
ATTQMMYACVSETC-JXOBVBBANA-N
     RDKit          3D

 59 64  0  0  0  0  0  0  0  0999 V2000
  140.6570   67.8480  228.0590 N   0  0  0  0  0  0  0  0  0  0  0  0
  139.9520   67.9520  226.8140 C   0  0  0  0  0  0  0  0  0  0  0  0
  139.1950   67.0070  226.4630 O   0  0  0  0  0  0  0  0  0  0  0  0
  140.1060   69.1370  225.9400 C   0  0  0  0  0  0  0  0  0  0  0  0
  140.9140   70.2280  226.3640 C   0  0  0  0  0  0  0  0  0  0  0  0
  141.0890   71.3560  225.5430 C   0  0  0  0  0  0  0  0  0  0  0  0
  140.4500   71.3720  224.3090 C   0  0  0  0  0  0  0  0  0  0  0  0
  140.4690   72.3090  223.2990 C   0  0  0  0  0  0  0  0  0  0  0  0
  139.6770   71.7680  222.2890 C   0  0  0  0  0  0  0  0  0  0  0  0
  139.4450   72.3800  220.9670 C   0  0  0  0  0  0  0  0  0  0  0  0
  138.7040   71.8020  220.1280 O   0  0  0  0  0  0  0  0  0  0  0  0
  140.0100   73.6560  220.6420 N   0  0  0  0  0  0  0  0  0  0  0  0
  139.3190   74.9260  220.8650 C   0  0  0  0  0  0  0  0  0  0  0  0
  140.4240   76.0330  220.7750 C   0  0  1  0  0  0  0  0  0  0  0  0
  140.1060   77.1500  219.7860 C   0  0  0  0  0  0  0  0  0  0  0  0
  140.7100   78.4100  220.4020 C   0  0  0  0  0  0  0  0  0  0  0  0
  141.2470   78.0720  221.7380 N   0  0  0  0  0  0  0  0  0  0  0  0
  140.9700   79.1300  222.7450 C   0  0  2  0  0  0  0  0  0  0  0  0
  140.7900   80.4890  222.0770 C   0  0  0  0  0  0  0  0  0  0  0  0
  142.1910   81.0970  222.0330 C   0  0  0  0  0  0  0  0  0  0  0  0
  143.0670   80.3110  222.9080 N   0  0  0  0  0  0  0  0  0  0  0  0
  142.1850   79.4030  223.6380 C   0  0  0  0  0  0  0  0  0  0  0  0
  140.6440   76.7770  222.0900 C   0  0  0  0  0  0  0  0  0  0  0  0
  141.6530   75.2530  220.3790 C   0  0  0  0  0  0  0  0  0  0  0  0
  142.9480   75.7210  220.1200 C   0  0  0  0  0  0  0  0  0  0  0  0
  143.9510   74.7900  219.8000 C   0  0  0  0  0  0  0  0  0  0  0  0
  143.6510   73.4170  219.7410 C   0  0  0  0  0  0  0  0  0  0  0  0
  142.3470   72.9670  220.0060 C   0  0  0  0  0  0  0  0  0  0  0  0
  141.3700   73.9130  220.3330 C   0  0  0  0  0  0  0  0  0  0  0  0
  139.2060   70.5490  222.6480 N   0  0  0  0  0  0  0  0  0  0  0  0
  139.6790   70.3250  223.8860 C   0  0  0  0  0  0  0  0  0  0  0  0
  139.4870   69.1880  224.6680 C   0  0  0  0  0  0  0  0  0  0  0  0
  140.4750   67.0370  228.6930 H   0  0  0  0  0  0  0  0  0  0  0  0
  141.4100   68.5210  228.3240 H   0  0  0  0  0  0  0  0  0  0  0  0
  141.4080   70.1888  227.3461 H   0  0  0  0  0  0  0  0  0  0  0  0
  141.7135   72.2012  225.8680 H   0  0  0  0  0  0  0  0  0  0  0  0
  140.9954   73.2748  223.2918 H   0  0  0  0  0  0  0  0  0  0  0  0
  138.5523   75.0860  220.0926 H   0  0  0  0  0  0  0  0  0  0  0  0
  138.8062   74.9432  221.8380 H   0  0  0  0  0  0  0  0  0  0  0  0
  140.5630   76.9412  218.8075 H   0  0  0  0  0  0  0  0  0  0  0  0
  139.0244   77.2529  219.6140 H   0  0  0  0  0  0  0  0  0  0  0  0
  141.5215   78.7837  219.7603 H   0  0  0  0  0  0  0  0  0  0  0  0
  139.9396   79.1899  220.4932 H   0  0  0  0  0  0  0  0  0  0  0  0
  140.0879   78.7636  223.2906 H   0  0  0  0  0  0  0  0  0  0  0  0
  140.3883   80.3696  221.0600 H   0  0  0  0  0  0  0  0  0  0  0  0
  140.0798   81.1270  222.6234 H   0  0  0  0  0  0  0  0  0  0  0  0
  142.5750   81.0701  221.0025 H   0  0  0  0  0  0  0  0  0  0  0  0
  142.1589   82.1427  222.3728 H   0  0  0  0  0  0  0  0  0  0  0  0
  143.6820   79.7200  222.2980 H   0  0  0  0  0  0  0  0  0  0  0  0
  142.7109   78.4617  223.8558 H   0  0  0  0  0  0  0  0  0  0  0  0
  141.8728   79.8488  224.5939 H   0  0  0  0  0  0  0  0  0  0  0  0
  141.3220   76.2061  222.7414 H   0  0  0  0  0  0  0  0  0  0  0  0
  139.6981   76.9122  222.6350 H   0  0  0  0  0  0  0  0  0  0  0  0
  143.1752   76.7963  220.1662 H   0  0  0  0  0  0  0  0  0  0  0  0
  144.9747   75.1364  219.5949 H   0  0  0  0  0  0  0  0  0  0  0  0
  144.4397   72.6937  219.4866 H   0  0  0  0  0  0  0  0  0  0  0  0
  142.1001   71.8962  219.9575 H   0  0  0  0  0  0  0  0  0  0  0  0
  138.6250   69.8980  222.0790 H   0  0  0  0  0  0  0  0  0  0  0  0
  138.8705   68.3518  224.3064 H   0  0  0  0  0  0  0  0  0  0  0  0
  1  2  1  0
  2  3  2  0
  2  4  1  0
  4  5  2  0
  5  6  1  0
  6  7  2  0
  7  8  1  0
  8  9  2  0
  9 10  1  0
 10 11  2  0
 10 12  1  0
 12 13  1  0
 14 13  1  1
 14 15  1  0
 15 16  1  0
 16 17  1  0
 17 18  1  0
 18 19  1  0
 19 20  1  0
 20 21  1  0
 21 22  1  0
 17 23  1  0
 14 24  1  0
 24 25  2  0
 25 26  1  0
 26 27  2  0
 27 28  1  0
 28 29  2  0
  9 30  1  0
 30 31  1  0
 31 32  2  0
 32  4  1  0
 31  7  1  0
 29 12  1  0
 23 14  1  0
 29 24  1  0
 22 18  1  0
  1 33  1  0
  1 34  1  0
  5 35  1  0
  6 36  1  0
  8 37  1  0
 13 38  1  0
 13 39  1  0
 15 40  1  0
 15 41  1  0
 16 42  1  0
 16 43  1  0
 18 44  1  1
 19 45  1  0
 19 46  1  0
 20 47  1  0
 20 48  1  0
 21 49  1  0
 22 50  1  0
 22 51  1  0
 23 52  1  0
 23 53  1  0
 25 54  1  0
 26 55  1  0
 27 56  1  0
 28 57  1  0
 30 58  1  0
 32 59  1  0
M  END
>  <UniqueID>  (61) 
42

>  <SMILES>  (61) 
NC(=O)c1ccc2cc(C(=O)N3C[C@]4(CCN([C@@H]5CCNC5)C4)c4ccccc43)[nH]c2c1

>  <Energy>  (61) 
127.55820343708275

>  <Genealogy>  (61) 
NC(=O)c1ccc2cc(C(=O)N3C[C@]4(CCN([C@@H]5CCNC5)C4)c4ccccc43)[nH]c2c1 (chirality)
NC(=O)c1ccc2cc(C(=O)N3C[C@]4(CCN([C@@H]5CCNC5)C4)c4ccccc43)[nH]c2c1 (3D coordinates assigned)
NC(=O)c1ccc2cc(C(=O)N3C[C@]4(CCN([C@@H]5CCNC5)C4)c4ccccc43)[nH]c2c1 (nonaromatic ring conformer: 127.55820343708275 kcal/mol)

>  <smiles>  (61) 
NC(=O)c1ccc2cc(C(=O)N3C[C@]4(CCN(C5CCNC5)C4)c4ccccc43)[nH]c2c1

>  <score_type>  (61) 
oracle

>  <origin>  (61) 
autodockgpu

>  <m_score__min__energy>  (61) 
-9.3100000000000005

>  <m_primary>  (61) 
energy

>  <meeko>  (61) 
{"free_energy": -9.27, "intermolecular_energy": -10.46, "internal_energy": -1.34, "cluster_size": 17, "cluster_id": 1, "rank_in_cluster": 11}

>  <energy>  (61) 
-9.31

>  <cluster_rmsd>  (61) 
0.0

>  <rmsd>  (61) 
271.15

>  <cluster>  (61) 
1

$$$$
ATTQMMYACVSETC-JXOBVBBANA-N
     RDKit          3D

 59 64  0  0  0  0  0  0  0  0999 V2000
  140.7770   67.8300  228.1950 N   0  0  0  0  0  0  0  0  0  0  0  0
  139.9980   67.9450  226.9970 C   0  0  0  0  0  0  0  0  0  0  0  0
  139.1980   67.0170  226.7000 O   0  0  0  0  0  0  0  0  0  0  0  0
  140.1250   69.1220  226.1070 C   0  0  0  0  0  0  0  0  0  0  0  0
  140.8370   70.2700  226.5530 C   0  0  0  0  0  0  0  0  0  0  0  0
  140.9840   71.3930  225.7190 C   0  0  0  0  0  0  0  0  0  0  0  0
  140.4150   71.3460  224.4520 C   0  0  0  0  0  0  0  0  0  0  0  0
  140.4310   72.2650  223.4250 C   0  0  0  0  0  0  0  0  0  0  0  0
  139.7320   71.6560  222.3850 C   0  0  0  0  0  0  0  0  0  0  0  0
  139.5360   72.2290  221.0390 C   0  0  0  0  0  0  0  0  0  0  0  0
  138.8380   71.6140  220.1900 O   0  0  0  0  0  0  0  0  0  0  0  0
  140.0860   73.5080  220.7010 N   0  0  0  0  0  0  0  0  0  0  0  0
  139.3820   74.7720  220.9140 C   0  0  0  0  0  0  0  0  0  0  0  0
  140.4740   75.8910  220.8110 C   0  0  1  0  0  0  0  0  0  0  0  0
  140.1410   76.9940  219.8130 C   0  0  0  0  0  0  0  0  0  0  0  0
  140.7320   78.2670  220.4160 C   0  0  0  0  0  0  0  0  0  0  0  0
  141.2770   77.9470  221.7530 N   0  0  0  0  0  0  0  0  0  0  0  0
  140.9920   79.0110  222.7510 C   0  0  2  0  0  0  0  0  0  0  0  0
  140.8220   80.3670  222.0740 C   0  0  0  0  0  0  0  0  0  0  0  0
  142.2260   80.9710  222.0430 C   0  0  0  0  0  0  0  0  0  0  0  0
  143.0900   80.1870  222.9320 N   0  0  0  0  0  0  0  0  0  0  0  0
  142.1970   79.2860  223.6570 C   0  0  0  0  0  0  0  0  0  0  0  0
  140.6900   76.6490  222.1190 C   0  0  0  0  0  0  0  0  0  0  0  0
  141.7110   75.1210  220.4190 C   0  0  0  0  0  0  0  0  0  0  0  0
  142.9990   75.6000  220.1520 C   0  0  0  0  0  0  0  0  0  0  0  0
  144.0110   74.6770  219.8370 C   0  0  0  0  0  0  0  0  0  0  0  0
  143.7270   73.3010  219.7910 C   0  0  0  0  0  0  0  0  0  0  0  0
  142.4290   72.8390  220.0640 C   0  0  0  0  0  0  0  0  0  0  0  0
  141.4420   73.7770  220.3860 C   0  0  0  0  0  0  0  0  0  0  0  0
  139.3210   70.4160  222.7430 N   0  0  0  0  0  0  0  0  0  0  0  0
  139.7380   70.2450  224.0090 C   0  0  0  0  0  0  0  0  0  0  0  0
  139.5760   69.1110  224.8030 C   0  0  0  0  0  0  0  0  0  0  0  0
  140.6170   67.0260  228.8440 H   0  0  0  0  0  0  0  0  0  0  0  0
  141.5620   68.4850  228.4080 H   0  0  0  0  0  0  0  0  0  0  0  0
  141.2773   70.2795  227.5610 H   0  0  0  0  0  0  0  0  0  0  0  0
  141.5335   72.2829  226.0598 H   0  0  0  0  0  0  0  0  0  0  0  0
  140.8948   73.2624  223.4262 H   0  0  0  0  0  0  0  0  0  0  0  0
  138.6116   74.9163  220.1422 H   0  0  0  0  0  0  0  0  0  0  0  0
  138.8719   74.7923  221.8884 H   0  0  0  0  0  0  0  0  0  0  0  0
  140.5982   76.7813  218.8354 H   0  0  0  0  0  0  0  0  0  0  0  0
  139.0579   77.0827  219.6425 H   0  0  0  0  0  0  0  0  0  0  0  0
  141.5370   78.6447  219.7684 H   0  0  0  0  0  0  0  0  0  0  0  0
  139.9528   79.0385  220.5027 H   0  0  0  0  0  0  0  0  0  0  0  0
  140.1031   78.6492  223.2886 H   0  0  0  0  0  0  0  0  0  0  0  0
  140.4314   80.2434  221.0531 H   0  0  0  0  0  0  0  0  0  0  0  0
  140.1069   81.0096  222.6086 H   0  0  0  0  0  0  0  0  0  0  0  0
  142.6216   80.9378  221.0171 H   0  0  0  0  0  0  0  0  0  0  0  0
  142.1930   82.0185  222.3772 H   0  0  0  0  0  0  0  0  0  0  0  0
  143.7100   79.5920  222.3320 H   0  0  0  0  0  0  0  0  0  0  0  0
  142.7176   78.3446  223.8868 H   0  0  0  0  0  0  0  0  0  0  0  0
  141.8748   79.7384  224.6065 H   0  0  0  0  0  0  0  0  0  0  0  0
  141.3766   76.0916  222.7731 H   0  0  0  0  0  0  0  0  0  0  0  0
  139.7447   76.7783  222.6665 H   0  0  0  0  0  0  0  0  0  0  0  0
  143.2149   76.6780  220.1880 H   0  0  0  0  0  0  0  0  0  0  0  0
  145.0301   75.0330  219.6255 H   0  0  0  0  0  0  0  0  0  0  0  0
  144.5232   72.5845  219.5406 H   0  0  0  0  0  0  0  0  0  0  0  0
  142.1940   71.7651  220.0255 H   0  0  0  0  0  0  0  0  0  0  0  0
  138.8160   69.7180  222.1570 H   0  0  0  0  0  0  0  0  0  0  0  0
  139.0354   68.2304  224.4257 H   0  0  0  0  0  0  0  0  0  0  0  0
  1  2  1  0
  2  3  2  0
  2  4  1  0
  4  5  2  0
  5  6  1  0
  6  7  2  0
  7  8  1  0
  8  9  2  0
  9 10  1  0
 10 11  2  0
 10 12  1  0
 12 13  1  0
 14 13  1  1
 14 15  1  0
 15 16  1  0
 16 17  1  0
 17 18  1  0
 18 19  1  0
 19 20  1  0
 20 21  1  0
 21 22  1  0
 17 23  1  0
 14 24  1  0
 24 25  2  0
 25 26  1  0
 26 27  2  0
 27 28  1  0
 28 29  2  0
  9 30  1  0
 30 31  1  0
 31 32  2  0
 32  4  1  0
 31  7  1  0
 29 12  1  0
 23 14  1  0
 29 24  1  0
 22 18  1  0
  1 33  1  0
  1 34  1  0
  5 35  1  0
  6 36  1  0
  8 37  1  0
 13 38  1  0
 13 39  1  0
 15 40  1  0
 15 41  1  0
 16 42  1  0
 16 43  1  0
 18 44  1  1
 19 45  1  0
 19 46  1  0
 20 47  1  0
 20 48  1  0
 21 49  1  0
 22 50  1  0
 22 51  1  0
 23 52  1  0
 23 53  1  0
 25 54  1  0
 26 55  1  0
 27 56  1  0
 28 57  1  0
 30 58  1  0
 32 59  1  0
M  END
>  <UniqueID>  (62) 
42

>  <SMILES>  (62) 
NC(=O)c1ccc2cc(C(=O)N3C[C@]4(CCN([C@@H]5CCNC5)C4)c4ccccc43)[nH]c2c1

>  <Energy>  (62) 
127.55820343708275

>  <Genealogy>  (62) 
NC(=O)c1ccc2cc(C(=O)N3C[C@]4(CCN([C@@H]5CCNC5)C4)c4ccccc43)[nH]c2c1 (chirality)
NC(=O)c1ccc2cc(C(=O)N3C[C@]4(CCN([C@@H]5CCNC5)C4)c4ccccc43)[nH]c2c1 (3D coordinates assigned)
NC(=O)c1ccc2cc(C(=O)N3C[C@]4(CCN([C@@H]5CCNC5)C4)c4ccccc43)[nH]c2c1 (nonaromatic ring conformer: 127.55820343708275 kcal/mol)

>  <smiles>  (62) 
NC(=O)c1ccc2cc(C(=O)N3C[C@]4(CCN(C5CCNC5)C4)c4ccccc43)[nH]c2c1

>  <score_type>  (62) 
oracle

>  <origin>  (62) 
autodockgpu

>  <m_score__min__energy>  (62) 
-9.3100000000000005

>  <m_primary>  (62) 
energy

>  <meeko>  (62) 
{"free_energy": -9.29, "intermolecular_energy": -10.49, "internal_energy": -1.34, "cluster_size": 17, "cluster_id": 1, "rank_in_cluster": 5}

>  <energy>  (62) 
-9.3

>  <cluster_rmsd>  (62) 
0.11

>  <rmsd>  (62) 
271.15

>  <cluster>  (62) 
1

$$$$
ATTQMMYACVSETC-JXOBVBBANA-N
     RDKit          3D

 59 64  0  0  0  0  0  0  0  0999 V2000
  140.7390   67.8400  228.1410 N   0  0  0  0  0  0  0  0  0  0  0  0
  139.9660   67.9450  226.9380 C   0  0  0  0  0  0  0  0  0  0  0  0
  139.1830   67.0050  226.6330 O   0  0  0  0  0  0  0  0  0  0  0  0
  140.0780   69.1270  226.0510 C   0  0  0  0  0  0  0  0  0  0  0  0
  140.6640   70.3260  226.5440 C   0  0  0  0  0  0  0  0  0  0  0  0
  140.7970   71.4540  225.7160 C   0  0  0  0  0  0  0  0  0  0  0  0
  140.3400   71.3620  224.4060 C   0  0  0  0  0  0  0  0  0  0  0  0
  140.3730   72.2770  223.3760 C   0  0  0  0  0  0  0  0  0  0  0  0
  139.8100   71.6150  222.2880 C   0  0  0  0  0  0  0  0  0  0  0  0
  139.6850   72.1680  220.9250 C   0  0  0  0  0  0  0  0  0  0  0  0
  139.0840   71.5120  220.0330 O   0  0  0  0  0  0  0  0  0  0  0  0
  140.1920   73.4730  220.6160 N   0  0  0  0  0  0  0  0  0  0  0  0
  139.4530   74.7080  220.8740 C   0  0  0  0  0  0  0  0  0  0  0  0
  140.5110   75.8610  220.7870 C   0  0  1  0  0  0  0  0  0  0  0  0
  140.1300   76.9820  219.8250 C   0  0  0  0  0  0  0  0  0  0  0  0
  140.6930   78.2540  220.4540 C   0  0  0  0  0  0  0  0  0  0  0  0
  141.2670   77.9140  221.7740 N   0  0  0  0  0  0  0  0  0  0  0  0
  140.9640   78.9420  222.8060 C   0  0  2  0  0  0  0  0  0  0  0  0
  140.7310   80.3070  222.1680 C   0  0  0  0  0  0  0  0  0  0  0  0
  142.1110   80.9630  222.1230 C   0  0  0  0  0  0  0  0  0  0  0  0
  143.0220   80.1890  222.9730 N   0  0  0  0  0  0  0  0  0  0  0  0
  142.1790   79.2380  223.6930 C   0  0  0  0  0  0  0  0  0  0  0  0
  140.7230   76.5900  222.1120 C   0  0  0  0  0  0  0  0  0  0  0  0
  141.7630   75.1400  220.3560 C   0  0  0  0  0  0  0  0  0  0  0  0
  143.0330   75.6650  220.0840 C   0  0  0  0  0  0  0  0  0  0  0  0
  144.0670   74.7820  219.7290 C   0  0  0  0  0  0  0  0  0  0  0  0
  143.8230   73.3990  219.6490 C   0  0  0  0  0  0  0  0  0  0  0  0
  142.5430   72.8910  219.9270 C   0  0  0  0  0  0  0  0  0  0  0  0
  141.5340   73.7900  220.2890 C   0  0  0  0  0  0  0  0  0  0  0  0
  139.4640   70.3480  222.6210 N   0  0  0  0  0  0  0  0  0  0  0  0
  139.7850   70.2120  223.9180 C   0  0  0  0  0  0  0  0  0  0  0  0
  139.6420   69.0710  224.7060 C   0  0  0  0  0  0  0  0  0  0  0  0
  140.5890   67.0330  228.7870 H   0  0  0  0  0  0  0  0  0  0  0  0
  141.5120   68.5080  228.3600 H   0  0  0  0  0  0  0  0  0  0  0  0
  141.0170   70.3708  227.5849 H   0  0  0  0  0  0  0  0  0  0  0  0
  141.2496   72.3828  226.0935 H   0  0  0  0  0  0  0  0  0  0  0  0
  140.7599   73.3063  223.4067 H   0  0  0  0  0  0  0  0  0  0  0  0
  138.6675   74.8502  220.1171 H   0  0  0  0  0  0  0  0  0  0  0  0
  138.9557   74.6863  221.8549 H   0  0  0  0  0  0  0  0  0  0  0  0
  140.5774   76.8100  218.8349 H   0  0  0  0  0  0  0  0  0  0  0  0
  139.0422   77.0435  219.6737 H   0  0  0  0  0  0  0  0  0  0  0  0
  141.4770   78.6723  219.8057 H   0  0  0  0  0  0  0  0  0  0  0  0
  139.8933   78.9999  220.5730 H   0  0  0  0  0  0  0  0  0  0  0  0
  140.1004   78.5350  223.3524 H   0  0  0  0  0  0  0  0  0  0  0  0
  140.3229   80.1947  221.1527 H   0  0  0  0  0  0  0  0  0  0  0  0
  140.0053   80.9094  222.7341 H   0  0  0  0  0  0  0  0  0  0  0  0
  142.4849   80.9702  221.0885 H   0  0  0  0  0  0  0  0  0  0  0  0
  142.0475   81.9999  222.4847 H   0  0  0  0  0  0  0  0  0  0  0  0
  143.6500   79.6330  222.3450 H   0  0  0  0  0  0  0  0  0  0  0  0
  142.7383   78.3108  223.8866 H   0  0  0  0  0  0  0  0  0  0  0  0
  141.8621   79.6539  224.6608 H   0  0  0  0  0  0  0  0  0  0  0  0
  141.4344   76.0357  222.7418 H   0  0  0  0  0  0  0  0  0  0  0  0
  139.7819   76.6769  222.6748 H   0  0  0  0  0  0  0  0  0  0  0  0
  143.2173   76.7476  220.1471 H   0  0  0  0  0  0  0  0  0  0  0  0
  145.0717   75.1741  219.5127 H   0  0  0  0  0  0  0  0  0  0  0  0
  144.6363   72.7137  219.3681 H   0  0  0  0  0  0  0  0  0  0  0  0
  142.3390   71.8121  219.8616 H   0  0  0  0  0  0  0  0  0  0  0  0
  139.0610   69.6140  222.0010 H   0  0  0  0  0  0  0  0  0  0  0  0
  139.2018   68.1513  224.2931 H   0  0  0  0  0  0  0  0  0  0  0  0
  1  2  1  0
  2  3  2  0
  2  4  1  0
  4  5  2  0
  5  6  1  0
  6  7  2  0
  7  8  1  0
  8  9  2  0
  9 10  1  0
 10 11  2  0
 10 12  1  0
 12 13  1  0
 14 13  1  1
 14 15  1  0
 15 16  1  0
 16 17  1  0
 17 18  1  0
 18 19  1  0
 19 20  1  0
 20 21  1  0
 21 22  1  0
 17 23  1  0
 14 24  1  0
 24 25  2  0
 25 26  1  0
 26 27  2  0
 27 28  1  0
 28 29  2  0
  9 30  1  0
 30 31  1  0
 31 32  2  0
 32  4  1  0
 31  7  1  0
 29 12  1  0
 23 14  1  0
 29 24  1  0
 22 18  1  0
  1 33  1  0
  1 34  1  0
  5 35  1  0
  6 36  1  0
  8 37  1  0
 13 38  1  0
 13 39  1  0
 15 40  1  0
 15 41  1  0
 16 42  1  0
 16 43  1  0
 18 44  1  1
 19 45  1  0
 19 46  1  0
 20 47  1  0
 20 48  1  0
 21 49  1  0
 22 50  1  0
 22 51  1  0
 23 52  1  0
 23 53  1  0
 25 54  1  0
 26 55  1  0
 27 56  1  0
 28 57  1  0
 30 58  1  0
 32 59  1  0
M  END
>  <UniqueID>  (63) 
42

>  <SMILES>  (63) 
NC(=O)c1ccc2cc(C(=O)N3C[C@]4(CCN([C@@H]5CCNC5)C4)c4ccccc43)[nH]c2c1

>  <Energy>  (63) 
127.55820343708275

>  <Genealogy>  (63) 
NC(=O)c1ccc2cc(C(=O)N3C[C@]4(CCN([C@@H]5CCNC5)C4)c4ccccc43)[nH]c2c1 (chirality)
NC(=O)c1ccc2cc(C(=O)N3C[C@]4(CCN([C@@H]5CCNC5)C4)c4ccccc43)[nH]c2c1 (3D coordinates assigned)
NC(=O)c1ccc2cc(C(=O)N3C[C@]4(CCN([C@@H]5CCNC5)C4)c4ccccc43)[nH]c2c1 (nonaromatic ring conformer: 127.55820343708275 kcal/mol)

>  <smiles>  (63) 
NC(=O)c1ccc2cc(C(=O)N3C[C@]4(CCN(C5CCNC5)C4)c4ccccc43)[nH]c2c1

>  <score_type>  (63) 
oracle

>  <origin>  (63) 
autodockgpu

>  <m_score__min__energy>  (63) 
-9.3100000000000005

>  <m_primary>  (63) 
energy

>  <meeko>  (63) 
{"free_energy": -9.28, "intermolecular_energy": -10.48, "internal_energy": -1.33, "cluster_size": 17, "cluster_id": 1, "rank_in_cluster": 7}

>  <energy>  (63) 
-9.3

>  <cluster_rmsd>  (63) 
0.07

>  <rmsd>  (63) 
271.17

>  <cluster>  (63) 
1

$$$$
ATTQMMYACVSETC-JXOBVBBANA-N
     RDKit          3D

 59 64  0  0  0  0  0  0  0  0999 V2000
  145.6930   71.8930  220.2520 N   0  0  0  0  0  0  0  0  0  0  0  0
  145.3230   72.7940  219.2000 C   0  0  0  0  0  0  0  0  0  0  0  0
  145.9030   72.7000  218.0840 O   0  0  0  0  0  0  0  0  0  0  0  0
  144.2840   73.8300  219.4030 C   0  0  0  0  0  0  0  0  0  0  0  0
  144.0790   74.8290  218.4110 C   0  0  0  0  0  0  0  0  0  0  0  0
  143.0870   75.8120  218.5750 C   0  0  0  0  0  0  0  0  0  0  0  0
  142.3170   75.7770  219.7320 C   0  0  0  0  0  0  0  0  0  0  0  0
  141.2670   76.5750  220.1370 C   0  0  0  0  0  0  0  0  0  0  0  0
  140.8620   76.0430  221.3590 C   0  0  0  0  0  0  0  0  0  0  0  0
  139.7180   76.5210  222.1590 C   0  0  0  0  0  0  0  0  0  0  0  0
  138.9700   75.6930  222.7440 O   0  0  0  0  0  0  0  0  0  0  0  0
  139.4770   77.9240  222.3260 N   0  0  0  0  0  0  0  0  0  0  0  0
  138.1460   78.5270  222.2770 C   0  0  0  0  0  0  0  0  0  0  0  0
  138.3000   79.9510  222.9130 C   0  0  1  0  0  0  0  0  0  0  0  0
  137.7800   81.0830  222.0330 C   0  0  0  0  0  0  0  0  0  0  0  0
  137.2220   82.1180  223.0070 C   0  0  0  0  0  0  0  0  0  0  0  0
  137.3010   81.5680  224.3780 N   0  0  0  0  0  0  0  0  0  0  0  0
  136.0920   81.8830  225.1850 C   0  0  2  0  0  0  0  0  0  0  0  0
  135.7920   83.3780  225.1630 C   0  0  0  0  0  0  0  0  0  0  0  0
  136.5620   83.9530  226.3510 C   0  0  0  0  0  0  0  0  0  0  0  0
  137.0020   82.8430  227.2030 N   0  0  0  0  0  0  0  0  0  0  0  0
  136.3290   81.6550  226.6830 C   0  0  0  0  0  0  0  0  0  0  0  0
  137.5150   80.1220  224.2110 C   0  0  0  0  0  0  0  0  0  0  0  0
  139.7850   80.0530  223.1570 C   0  0  0  0  0  0  0  0  0  0  0  0
  140.5190   81.1230  223.6840 C   0  0  0  0  0  0  0  0  0  0  0  0
  141.9060   80.9720  223.8540 C   0  0  0  0  0  0  0  0  0  0  0  0
  142.5360   79.7660  223.4980 C   0  0  0  0  0  0  0  0  0  0  0  0
  141.7830   78.7040  222.9720 C   0  0  0  0  0  0  0  0  0  0  0  0
  140.4030   78.8760  222.8230 C   0  0  0  0  0  0  0  0  0  0  0  0
  141.6090   74.9600  221.6840 N   0  0  0  0  0  0  0  0  0  0  0  0
  142.4970   74.8170  220.6870 C   0  0  0  0  0  0  0  0  0  0  0  0
  143.4650   73.8220  220.5580 C   0  0  0  0  0  0  0  0  0  0  0  0
  146.3750   71.1240  220.0610 H   0  0  0  0  0  0  0  0  0  0  0  0
  145.3620   72.0250  221.2330 H   0  0  0  0  0  0  0  0  0  0  0  0
  144.7036   74.8325  217.5055 H   0  0  0  0  0  0  0  0  0  0  0  0
  142.9250   76.5859  217.8103 H   0  0  0  0  0  0  0  0  0  0  0  0
  140.8423   77.4421  219.6100 H   0  0  0  0  0  0  0  0  0  0  0  0
  137.7999   78.6076  221.2360 H   0  0  0  0  0  0  0  0  0  0  0  0
  137.4056   77.9194  222.8179 H   0  0  0  0  0  0  0  0  0  0  0  0
  138.5969   81.5150  221.4363 H   0  0  0  0  0  0  0  0  0  0  0  0
  137.0183   80.7347  221.3198 H   0  0  0  0  0  0  0  0  0  0  0  0
  137.8143   83.0428  222.9442 H   0  0  0  0  0  0  0  0  0  0  0  0
  136.1762   82.3462  222.7538 H   0  0  0  0  0  0  0  0  0  0  0  0
  135.3030   81.2484  224.7553 H   0  0  0  0  0  0  0  0  0  0  0  0
  136.1403   83.8285  224.2219 H   0  0  0  0  0  0  0  0  0  0  0  0
  134.7136   83.5842  225.2305 H   0  0  0  0  0  0  0  0  0  0  0  0
  137.4373   84.5128  225.9898 H   0  0  0  0  0  0  0  0  0  0  0  0
  135.9160   84.6343  226.9241 H   0  0  0  0  0  0  0  0  0  0  0  0
  138.0300   82.7090  227.0480 H   0  0  0  0  0  0  0  0  0  0  0  0
  136.9620   80.7680  226.8331 H   0  0  0  0  0  0  0  0  0  0  0  0
  135.3763   81.4871  227.2065 H   0  0  0  0  0  0  0  0  0  0  0  0
  138.0899   79.7218  225.0591 H   0  0  0  0  0  0  0  0  0  0  0  0
  136.5594   79.5785  224.1743 H   0  0  0  0  0  0  0  0  0  0  0  0
  140.0196   82.0635  223.9596 H   0  0  0  0  0  0  0  0  0  0  0  0
  142.5009   81.8000  224.2670 H   0  0  0  0  0  0  0  0  0  0  0  0
  143.6221   79.6544  223.6321 H   0  0  0  0  0  0  0  0  0  0  0  0
  142.2670   77.7591  222.6839 H   0  0  0  0  0  0  0  0  0  0  0  0
  141.5050   74.3410  222.5160 H   0  0  0  0  0  0  0  0  0  0  0  0
  143.5892   73.0512  221.3329 H   0  0  0  0  0  0  0  0  0  0  0  0
  1  2  1  0
  2  3  2  0
  2  4  1  0
  4  5  2  0
  5  6  1  0
  6  7  2  0
  7  8  1  0
  8  9  2  0
  9 10  1  0
 10 11  2  0
 10 12  1  0
 12 13  1  0
 14 13  1  6
 14 15  1  0
 15 16  1  0
 16 17  1  0
 17 18  1  0
 18 19  1  0
 19 20  1  0
 20 21  1  0
 21 22  1  0
 17 23  1  0
 14 24  1  0
 24 25  2  0
 25 26  1  0
 26 27  2  0
 27 28  1  0
 28 29  2  0
  9 30  1  0
 30 31  1  0
 31 32  2  0
 32  4  1  0
 31  7  1  0
 29 12  1  0
 23 14  1  0
 29 24  1  0
 22 18  1  0
  1 33  1  0
  1 34  1  0
  5 35  1  0
  6 36  1  0
  8 37  1  0
 13 38  1  0
 13 39  1  0
 15 40  1  0
 15 41  1  0
 16 42  1  0
 16 43  1  0
 18 44  1  6
 19 45  1  0
 19 46  1  0
 20 47  1  0
 20 48  1  0
 21 49  1  0
 22 50  1  0
 22 51  1  0
 23 52  1  0
 23 53  1  0
 25 54  1  0
 26 55  1  0
 27 56  1  0
 28 57  1  0
 30 58  1  0
 32 59  1  0
M  END
>  <UniqueID>  (64) 
42

>  <SMILES>  (64) 
NC(=O)c1ccc2cc(C(=O)N3C[C@]4(CCN([C@@H]5CCNC5)C4)c4ccccc43)[nH]c2c1

>  <Energy>  (64) 
127.55820343708275

>  <Genealogy>  (64) 
NC(=O)c1ccc2cc(C(=O)N3C[C@]4(CCN([C@@H]5CCNC5)C4)c4ccccc43)[nH]c2c1 (chirality)
NC(=O)c1ccc2cc(C(=O)N3C[C@]4(CCN([C@@H]5CCNC5)C4)c4ccccc43)[nH]c2c1 (3D coordinates assigned)
NC(=O)c1ccc2cc(C(=O)N3C[C@]4(CCN([C@@H]5CCNC5)C4)c4ccccc43)[nH]c2c1 (nonaromatic ring conformer: 127.55820343708275 kcal/mol)

>  <smiles>  (64) 
NC(=O)c1ccc2cc(C(=O)N3C[C@]4(CCN(C5CCNC5)C4)c4ccccc43)[nH]c2c1

>  <score_type>  (64) 
oracle

>  <origin>  (64) 
autodockgpu

>  <m_score__min__energy>  (64) 
-9.3100000000000005

>  <m_primary>  (64) 
energy

>  <meeko>  (64) 
{"free_energy": -8.65, "intermolecular_energy": -9.85, "internal_energy": -1.23, "cluster_size": 3, "cluster_id": 2, "rank_in_cluster": 3}

>  <energy>  (64) 
-9.3

>  <cluster_rmsd>  (64) 
0.11

>  <rmsd>  (64) 
271.16

>  <cluster>  (64) 
1

$$$$
ATTQMMYACVSETC-JXOBVBBANA-N
     RDKit          3D

 59 64  0  0  0  0  0  0  0  0999 V2000
  140.4050   68.1560  228.4590 N   0  0  0  0  0  0  0  0  0  0  0  0
  139.8810   68.1360  227.1250 C   0  0  0  0  0  0  0  0  0  0  0  0
  139.2320   67.1250  226.7410 O   0  0  0  0  0  0  0  0  0  0  0  0
  140.0960   69.2690  226.1960 C   0  0  0  0  0  0  0  0  0  0  0  0
  140.9140   70.3630  226.5950 C   0  0  0  0  0  0  0  0  0  0  0  0
  141.1460   71.4410  225.7230 C   0  0  0  0  0  0  0  0  0  0  0  0
  140.5550   71.4060  224.4660 C   0  0  0  0  0  0  0  0  0  0  0  0
  140.6350   72.2880  223.4100 C   0  0  0  0  0  0  0  0  0  0  0  0
  139.8680   71.7110  222.4000 C   0  0  0  0  0  0  0  0  0  0  0  0
  139.7020   72.2570  221.0390 C   0  0  0  0  0  0  0  0  0  0  0  0
  139.0600   71.6040  220.1740 O   0  0  0  0  0  0  0  0  0  0  0  0
  140.2160   73.5520  220.7020 N   0  0  0  0  0  0  0  0  0  0  0  0
  139.4830   74.7960  220.9290 C   0  0  0  0  0  0  0  0  0  0  0  0
  140.5460   75.9420  220.8200 C   0  0  1  0  0  0  0  0  0  0  0  0
  140.1740   77.0430  219.8320 C   0  0  0  0  0  0  0  0  0  0  0  0
  140.7400   78.3260  220.4350 C   0  0  0  0  0  0  0  0  0  0  0  0
  141.3080   78.0130  221.7640 N   0  0  0  0  0  0  0  0  0  0  0  0
  141.0070   79.0650  222.7710 C   0  0  2  0  0  0  0  0  0  0  0  0
  140.7580   80.4110  222.1000 C   0  0  0  0  0  0  0  0  0  0  0  0
  142.1320   81.0760  222.0260 C   0  0  0  0  0  0  0  0  0  0  0  0
  143.0560   80.3320  222.8870 N   0  0  0  0  0  0  0  0  0  0  0  0
  142.2270   79.3930  223.6390 C   0  0  0  0  0  0  0  0  0  0  0  0
  140.7570   76.6990  222.1290 C   0  0  0  0  0  0  0  0  0  0  0  0
  141.7970   75.2050  220.4100 C   0  0  0  0  0  0  0  0  0  0  0  0
  143.0700   75.7180  220.1310 C   0  0  0  0  0  0  0  0  0  0  0  0
  144.1010   74.8230  219.8000 C   0  0  0  0  0  0  0  0  0  0  0  0
  143.8500   73.4400  219.7500 C   0  0  0  0  0  0  0  0  0  0  0  0
  142.5670   72.9440  220.0350 C   0  0  0  0  0  0  0  0  0  0  0  0
  141.5610   73.8550  220.3730 C   0  0  0  0  0  0  0  0  0  0  0  0
  139.3560   70.5230  222.8030 N   0  0  0  0  0  0  0  0  0  0  0  0
  139.7760   70.3560  224.0680 C   0  0  0  0  0  0  0  0  0  0  0  0
  139.5280   69.2660  224.9000 C   0  0  0  0  0  0  0  0  0  0  0  0
  140.1780   67.3780  229.1190 H   0  0  0  0  0  0  0  0  0  0  0  0
  141.0770   68.8900  228.7770 H   0  0  0  0  0  0  0  0  0  0  0  0
  141.3695   70.3651  227.5962 H   0  0  0  0  0  0  0  0  0  0  0  0
  141.7777   72.2885  226.0273 H   0  0  0  0  0  0  0  0  0  0  0  0
  141.1846   73.2401  223.3727 H   0  0  0  0  0  0  0  0  0  0  0  0
  138.7010   74.9248  220.1662 H   0  0  0  0  0  0  0  0  0  0  0  0
  138.9827   74.7988  221.9086 H   0  0  0  0  0  0  0  0  0  0  0  0
  140.6247   76.8472  218.8479 H   0  0  0  0  0  0  0  0  0  0  0  0
  139.0871   77.1059  219.6749 H   0  0  0  0  0  0  0  0  0  0  0  0
  141.5280   78.7267  219.7804 H   0  0  0  0  0  0  0  0  0  0  0  0
  139.9429   79.0774  220.5348 H   0  0  0  0  0  0  0  0  0  0  0  0
  140.1514   78.6659  223.3356 H   0  0  0  0  0  0  0  0  0  0  0  0
  140.3422   80.2693  221.0915 H   0  0  0  0  0  0  0  0  0  0  0  0
  140.0324   81.0223  222.6566 H   0  0  0  0  0  0  0  0  0  0  0  0
  142.4969   81.0593  220.9884 H   0  0  0  0  0  0  0  0  0  0  0  0
  142.0633   82.1213  222.3615 H   0  0  0  0  0  0  0  0  0  0  0  0
  143.6840   79.7640  222.2680 H   0  0  0  0  0  0  0  0  0  0  0  0
  142.7955   78.4755  223.8512 H   0  0  0  0  0  0  0  0  0  0  0  0
  141.9155   79.8310  224.5987 H   0  0  0  0  0  0  0  0  0  0  0  0
  141.4639   76.1556  222.7732 H   0  0  0  0  0  0  0  0  0  0  0  0
  139.8144   76.8025  222.6865 H   0  0  0  0  0  0  0  0  0  0  0  0
  143.2589   76.8009  220.1703 H   0  0  0  0  0  0  0  0  0  0  0  0
  145.1085   75.2053  219.5791 H   0  0  0  0  0  0  0  0  0  0  0  0
  144.6608   72.7447  219.4869 H   0  0  0  0  0  0  0  0  0  0  0  0
  142.3585   71.8647  219.9933 H   0  0  0  0  0  0  0  0  0  0  0  0
  138.7810   69.8560  222.2460 H   0  0  0  0  0  0  0  0  0  0  0  0
  138.9068   68.4250  224.5581 H   0  0  0  0  0  0  0  0  0  0  0  0
  1  2  1  0
  2  3  2  0
  2  4  1  0
  4  5  2  0
  5  6  1  0
  6  7  2  0
  7  8  1  0
  8  9  2  0
  9 10  1  0
 10 11  2  0
 10 12  1  0
 12 13  1  0
 14 13  1  1
 14 15  1  0
 15 16  1  0
 16 17  1  0
 17 18  1  0
 18 19  1  0
 19 20  1  0
 20 21  1  0
 21 22  1  0
 17 23  1  0
 14 24  1  0
 24 25  2  0
 25 26  1  0
 26 27  2  0
 27 28  1  0
 28 29  2  0
  9 30  1  0
 30 31  1  0
 31 32  2  0
 32  4  1  0
 31  7  1  0
 29 12  1  0
 23 14  1  0
 29 24  1  0
 22 18  1  0
  1 33  1  0
  1 34  1  0
  5 35  1  0
  6 36  1  0
  8 37  1  0
 13 38  1  0
 13 39  1  0
 15 40  1  0
 15 41  1  0
 16 42  1  0
 16 43  1  0
 18 44  1  1
 19 45  1  0
 19 46  1  0
 20 47  1  0
 20 48  1  0
 21 49  1  0
 22 50  1  0
 22 51  1  0
 23 52  1  0
 23 53  1  0
 25 54  1  0
 26 55  1  0
 27 56  1  0
 28 57  1  0
 30 58  1  0
 32 59  1  0
M  END
>  <UniqueID>  (65) 
42

>  <SMILES>  (65) 
NC(=O)c1ccc2cc(C(=O)N3C[C@]4(CCN([C@@H]5CCNC5)C4)c4ccccc43)[nH]c2c1

>  <Energy>  (65) 
127.55820343708275

>  <Genealogy>  (65) 
NC(=O)c1ccc2cc(C(=O)N3C[C@]4(CCN([C@@H]5CCNC5)C4)c4ccccc43)[nH]c2c1 (chirality)
NC(=O)c1ccc2cc(C(=O)N3C[C@]4(CCN([C@@H]5CCNC5)C4)c4ccccc43)[nH]c2c1 (3D coordinates assigned)
NC(=O)c1ccc2cc(C(=O)N3C[C@]4(CCN([C@@H]5CCNC5)C4)c4ccccc43)[nH]c2c1 (nonaromatic ring conformer: 127.55820343708275 kcal/mol)

>  <smiles>  (65) 
NC(=O)c1ccc2cc(C(=O)N3C[C@]4(CCN(C5CCNC5)C4)c4ccccc43)[nH]c2c1

>  <score_type>  (65) 
oracle

>  <origin>  (65) 
autodockgpu

>  <m_score__min__energy>  (65) 
-9.3100000000000005

>  <m_primary>  (65) 
energy

>  <meeko>  (65) 
{"free_energy": -9.14, "intermolecular_energy": -10.34, "internal_energy": -1.32, "cluster_size": 17, "cluster_id": 1, "rank_in_cluster": 14}

>  <energy>  (65) 
-9.29

>  <cluster_rmsd>  (65) 
0.09

>  <rmsd>  (65) 
271.19

>  <cluster>  (65) 
1

$$$$
ATTQMMYACVSETC-JXOBVBBANA-N
     RDKit          3D

 59 64  0  0  0  0  0  0  0  0999 V2000
  145.7590   72.2810  220.7750 N   0  0  0  0  0  0  0  0  0  0  0  0
  145.2470   73.0530  219.6810 C   0  0  0  0  0  0  0  0  0  0  0  0
  145.9880   73.2580  218.6810 O   0  0  0  0  0  0  0  0  0  0  0  0
  143.8780   73.6170  219.7100 C   0  0  0  0  0  0  0  0  0  0  0  0
  143.0070   73.4120  218.6040 C   0  0  0  0  0  0  0  0  0  0  0  0
  141.6970   73.9220  218.6170 C   0  0  0  0  0  0  0  0  0  0  0  0
  141.2810   74.6300  219.7390 C   0  0  0  0  0  0  0  0  0  0  0  0
  140.0640   75.2020  220.0410 C   0  0  0  0  0  0  0  0  0  0  0  0
  140.2240   75.7360  221.3170 C   0  0  0  0  0  0  0  0  0  0  0  0
  139.1650   76.4000  222.1010 C   0  0  0  0  0  0  0  0  0  0  0  0
  138.3210   75.7080  222.7310 O   0  0  0  0  0  0  0  0  0  0  0  0
  139.1160   77.8290  222.2030 N   0  0  0  0  0  0  0  0  0  0  0  0
  137.8860   78.6070  222.0600 C   0  0  0  0  0  0  0  0  0  0  0  0
  138.2070   80.0230  222.6500 C   0  0  1  0  0  0  0  0  0  0  0  0
  137.8950   81.1760  221.7020 C   0  0  0  0  0  0  0  0  0  0  0  0
  137.4410   82.3210  222.6050 C   0  0  0  0  0  0  0  0  0  0  0  0
  137.3740   81.8260  223.9970 N   0  0  0  0  0  0  0  0  0  0  0  0
  136.1840   82.3400  224.7260 C   0  0  2  0  0  0  0  0  0  0  0  0
  136.5800   83.4060  225.7400 C   0  0  0  0  0  0  0  0  0  0  0  0
  136.8610   82.6380  227.0320 C   0  0  0  0  0  0  0  0  0  0  0  0
  136.3440   81.2740  226.8830 N   0  0  0  0  0  0  0  0  0  0  0  0
  135.5710   81.2770  225.6440 C   0  0  0  0  0  0  0  0  0  0  0  0
  137.3910   80.3580  223.8960 C   0  0  0  0  0  0  0  0  0  0  0  0
  139.6780   79.9290  222.9710 C   0  0  0  0  0  0  0  0  0  0  0  0
  140.5280   80.9100  223.4980 C   0  0  0  0  0  0  0  0  0  0  0  0
  141.8700   80.5750  223.7500 C   0  0  0  0  0  0  0  0  0  0  0  0
  142.3420   79.2800  223.4730 C   0  0  0  0  0  0  0  0  0  0  0  0
  141.4740   78.3100  222.9460 C   0  0  0  0  0  0  0  0  0  0  0  0
  140.1400   78.6640  222.7160 C   0  0  0  0  0  0  0  0  0  0  0  0
  141.4700   75.4910  221.7890 N   0  0  0  0  0  0  0  0  0  0  0  0
  142.1050   74.8230  220.8120 C   0  0  0  0  0  0  0  0  0  0  0  0
  143.4080   74.3280  220.8390 C   0  0  0  0  0  0  0  0  0  0  0  0
  146.7000   71.8320  220.6990 H   0  0  0  0  0  0  0  0  0  0  0  0
  145.2530   72.2120  221.6860 H   0  0  0  0  0  0  0  0  0  0  0  0
  143.3625   72.8482  217.7289 H   0  0  0  0  0  0  0  0  0  0  0  0
  141.0205   73.7654  217.7639 H   0  0  0  0  0  0  0  0  0  0  0  0
  139.1626   75.2305  219.4112 H   0  0  0  0  0  0  0  0  0  0  0  0
  137.6050   78.6883  220.9996 H   0  0  0  0  0  0  0  0  0  0  0  0
  137.0427   78.1318  222.5825 H   0  0  0  0  0  0  0  0  0  0  0  0
  138.7927   81.4638  221.1352 H   0  0  0  0  0  0  0  0  0  0  0  0
  137.1275   80.9053  220.9619 H   0  0  0  0  0  0  0  0  0  0  0  0
  138.1601   83.1509  222.5410 H   0  0  0  0  0  0  0  0  0  0  0  0
  136.4518   82.6814  222.2863 H   0  0  0  0  0  0  0  0  0  0  0  0
  135.5071   82.6883  223.9319 H   0  0  0  0  0  0  0  0  0  0  0  0
  137.4802   83.9424  225.4055 H   0  0  0  0  0  0  0  0  0  0  0  0
  135.7931   84.1632  225.8722 H   0  0  0  0  0  0  0  0  0  0  0  0
  137.9449   82.6061  227.2167 H   0  0  0  0  0  0  0  0  0  0  0  0
  136.3712   83.1365  227.8814 H   0  0  0  0  0  0  0  0  0  0  0  0
  137.1620   80.6360  226.7360 H   0  0  0  0  0  0  0  0  0  0  0  0
  135.6255   80.2887  225.1641 H   0  0  0  0  0  0  0  0  0  0  0  0
  134.5131   81.5006  225.8460 H   0  0  0  0  0  0  0  0  0  0  0  0
  137.8619   79.9204  224.7886 H   0  0  0  0  0  0  0  0  0  0  0  0
  136.3716   79.9504  223.8275 H   0  0  0  0  0  0  0  0  0  0  0  0
  140.1530   81.9221  223.7104 H   0  0  0  0  0  0  0  0  0  0  0  0
  142.5538   81.3296  224.1658 H   0  0  0  0  0  0  0  0  0  0  0  0
  143.3940   79.0259  223.6696 H   0  0  0  0  0  0  0  0  0  0  0  0
  141.8344   77.2957  222.7193 H   0  0  0  0  0  0  0  0  0  0  0  0
  141.8560   75.7360  222.7250 H   0  0  0  0  0  0  0  0  0  0  0  0
  144.0538   74.4862  221.7153 H   0  0  0  0  0  0  0  0  0  0  0  0
  1  2  1  0
  2  3  2  0
  2  4  1  0
  4  5  2  0
  5  6  1  0
  6  7  2  0
  7  8  1  0
  8  9  2  0
  9 10  1  0
 10 11  2  0
 10 12  1  0
 12 13  1  0
 14 13  1  6
 14 15  1  0
 15 16  1  0
 16 17  1  0
 17 18  1  0
 18 19  1  0
 19 20  1  0
 20 21  1  0
 21 22  1  0
 17 23  1  0
 14 24  1  0
 24 25  2  0
 25 26  1  0
 26 27  2  0
 27 28  1  0
 28 29  2  0
  9 30  1  0
 30 31  1  0
 31 32  2  0
 32  4  1  0
 31  7  1  0
 29 12  1  0
 23 14  1  0
 29 24  1  0
 22 18  1  0
  1 33  1  0
  1 34  1  0
  5 35  1  0
  6 36  1  0
  8 37  1  0
 13 38  1  0
 13 39  1  0
 15 40  1  0
 15 41  1  0
 16 42  1  0
 16 43  1  0
 18 44  1  6
 19 45  1  0
 19 46  1  0
 20 47  1  0
 20 48  1  0
 21 49  1  0
 22 50  1  0
 22 51  1  0
 23 52  1  0
 23 53  1  0
 25 54  1  0
 26 55  1  0
 27 56  1  0
 28 57  1  0
 30 58  1  0
 32 59  1  0
M  END
>  <UniqueID>  (66) 
42

>  <SMILES>  (66) 
NC(=O)c1ccc2cc(C(=O)N3C[C@]4(CCN([C@@H]5CCNC5)C4)c4ccccc43)[nH]c2c1

>  <Energy>  (66) 
127.55820343708275

>  <Genealogy>  (66) 
NC(=O)c1ccc2cc(C(=O)N3C[C@]4(CCN([C@@H]5CCNC5)C4)c4ccccc43)[nH]c2c1 (chirality)
NC(=O)c1ccc2cc(C(=O)N3C[C@]4(CCN([C@@H]5CCNC5)C4)c4ccccc43)[nH]c2c1 (3D coordinates assigned)
NC(=O)c1ccc2cc(C(=O)N3C[C@]4(CCN([C@@H]5CCNC5)C4)c4ccccc43)[nH]c2c1 (nonaromatic ring conformer: 127.55820343708275 kcal/mol)

>  <smiles>  (66) 
NC(=O)c1ccc2cc(C(=O)N3C[C@]4(CCN(C5CCNC5)C4)c4ccccc43)[nH]c2c1

>  <score_type>  (66) 
oracle

>  <origin>  (66) 
autodockgpu

>  <m_score__min__energy>  (66) 
-9.3100000000000005

>  <m_primary>  (66) 
energy

>  <meeko>  (66) 
{"free_energy": -8.74, "intermolecular_energy": -9.93, "internal_energy": -1.15, "cluster_size": 3, "cluster_id": 2, "rank_in_cluster": 1}

>  <energy>  (66) 
-9.29

>  <cluster_rmsd>  (66) 
0.13

>  <rmsd>  (66) 
271.13

>  <cluster>  (66) 
1

$$$$
ATTQMMYACVSETC-JXOBVBBANA-N
     RDKit          3D

 59 64  0  0  0  0  0  0  0  0999 V2000
  140.7920   67.8250  228.0800 N   0  0  0  0  0  0  0  0  0  0  0  0
  140.0260   67.9460  226.8730 C   0  0  0  0  0  0  0  0  0  0  0  0
  139.2350   67.0160  226.5580 O   0  0  0  0  0  0  0  0  0  0  0  0
  140.1550   69.1320  225.9960 C   0  0  0  0  0  0  0  0  0  0  0  0
  140.8970   70.2620  226.4400 C   0  0  0  0  0  0  0  0  0  0  0  0
  141.0480   71.3920  225.6180 C   0  0  0  0  0  0  0  0  0  0  0  0
  140.4520   71.3710  224.3620 C   0  0  0  0  0  0  0  0  0  0  0  0
  140.4630   72.3030  223.3470 C   0  0  0  0  0  0  0  0  0  0  0  0
  139.7320   71.7200  222.3150 C   0  0  0  0  0  0  0  0  0  0  0  0
  139.5180   72.3130  220.9810 C   0  0  0  0  0  0  0  0  0  0  0  0
  138.8050   71.7140  220.1320 O   0  0  0  0  0  0  0  0  0  0  0  0
  140.0680   73.5960  220.6530 N   0  0  0  0  0  0  0  0  0  0  0  0
  139.3680   74.8580  220.8870 C   0  0  0  0  0  0  0  0  0  0  0  0
  140.4620   75.9760  220.7890 C   0  0  1  0  0  0  0  0  0  0  0  0
  140.1230   77.0920  219.8060 C   0  0  0  0  0  0  0  0  0  0  0  0
  140.7220   78.3560  220.4200 C   0  0  0  0  0  0  0  0  0  0  0  0
  141.2770   78.0190  221.7480 N   0  0  0  0  0  0  0  0  0  0  0  0
  141.0010   79.0720  222.7620 C   0  0  2  0  0  0  0  0  0  0  0  0
  140.8290   80.4360  222.1020 C   0  0  0  0  0  0  0  0  0  0  0  0
  142.2340   81.0380  222.0670 C   0  0  0  0  0  0  0  0  0  0  0  0
  143.1030   80.2410  222.9400 N   0  0  0  0  0  0  0  0  0  0  0  0
  142.2140   79.3340  223.6610 C   0  0  0  0  0  0  0  0  0  0  0  0
  140.6900   76.7180  222.1030 C   0  0  0  0  0  0  0  0  0  0  0  0
  141.6940   75.2080  220.3770 C   0  0  0  0  0  0  0  0  0  0  0  0
  142.9810   75.6880  220.1060 C   0  0  0  0  0  0  0  0  0  0  0  0
  143.9890   74.7670  219.7720 C   0  0  0  0  0  0  0  0  0  0  0  0
  143.7010   73.3920  219.7120 C   0  0  0  0  0  0  0  0  0  0  0  0
  142.4040   72.9290  219.9900 C   0  0  0  0  0  0  0  0  0  0  0  0
  141.4220   73.8650  220.3300 C   0  0  0  0  0  0  0  0  0  0  0  0
  139.3060   70.4830  222.6660 N   0  0  0  0  0  0  0  0  0  0  0  0
  139.7460   70.2880  223.9200 C   0  0  0  0  0  0  0  0  0  0  0  0
  139.5790   69.1470  224.7030 C   0  0  0  0  0  0  0  0  0  0  0  0
  140.6300   67.0140  228.7190 H   0  0  0  0  0  0  0  0  0  0  0  0
  141.5700   68.4830  228.3080 H   0  0  0  0  0  0  0  0  0  0  0  0
  141.3580   70.2511  227.4387 H   0  0  0  0  0  0  0  0  0  0  0  0
  141.6208   72.2672  225.9583 H   0  0  0  0  0  0  0  0  0  0  0  0
  140.9444   73.2921  223.3511 H   0  0  0  0  0  0  0  0  0  0  0  0
  138.5919   75.0132  220.1231 H   0  0  0  0  0  0  0  0  0  0  0  0
  138.8652   74.8674  221.8653 H   0  0  0  0  0  0  0  0  0  0  0  0
  140.5718   76.8901  218.8222 H   0  0  0  0  0  0  0  0  0  0  0  0
  139.0389   77.1850  219.6448 H   0  0  0  0  0  0  0  0  0  0  0  0
  141.5226   78.7398  219.7705 H   0  0  0  0  0  0  0  0  0  0  0  0
  139.9451   79.1279  220.5227 H   0  0  0  0  0  0  0  0  0  0  0  0
  140.1157   78.7057  223.3025 H   0  0  0  0  0  0  0  0  0  0  0  0
  140.4304   80.3249  221.0828 H   0  0  0  0  0  0  0  0  0  0  0  0
  140.1195   81.0737  222.6497 H   0  0  0  0  0  0  0  0  0  0  0  0
  142.6215   81.0164  221.0378 H   0  0  0  0  0  0  0  0  0  0  0  0
  142.2060   82.0816  222.4137 H   0  0  0  0  0  0  0  0  0  0  0  0
  143.7180   79.6520  222.3290 H   0  0  0  0  0  0  0  0  0  0  0  0
  142.7343   78.3889  223.8755 H   0  0  0  0  0  0  0  0  0  0  0  0
  141.9003   79.7763  224.6181 H   0  0  0  0  0  0  0  0  0  0  0  0
  141.3805   76.1515  222.7451 H   0  0  0  0  0  0  0  0  0  0  0  0
  139.7492   76.8431  222.6591 H   0  0  0  0  0  0  0  0  0  0  0  0
  143.1991   76.7651  220.1535 H   0  0  0  0  0  0  0  0  0  0  0  0
  145.0072   75.1233  219.5567 H   0  0  0  0  0  0  0  0  0  0  0  0
  144.4935   72.6768  219.4466 H   0  0  0  0  0  0  0  0  0  0  0  0
  142.1666   71.8560  219.9414 H   0  0  0  0  0  0  0  0  0  0  0  0
  138.7760   69.8020  222.0820 H   0  0  0  0  0  0  0  0  0  0  0  0
  139.0146   68.2813  224.3262 H   0  0  0  0  0  0  0  0  0  0  0  0
  1  2  1  0
  2  3  2  0
  2  4  1  0
  4  5  2  0
  5  6  1  0
  6  7  2  0
  7  8  1  0
  8  9  2  0
  9 10  1  0
 10 11  2  0
 10 12  1  0
 12 13  1  0
 14 13  1  1
 14 15  1  0
 15 16  1  0
 16 17  1  0
 17 18  1  0
 18 19  1  0
 19 20  1  0
 20 21  1  0
 21 22  1  0
 17 23  1  0
 14 24  1  0
 24 25  2  0
 25 26  1  0
 26 27  2  0
 27 28  1  0
 28 29  2  0
  9 30  1  0
 30 31  1  0
 31 32  2  0
 32  4  1  0
 31  7  1  0
 29 12  1  0
 23 14  1  0
 29 24  1  0
 22 18  1  0
  1 33  1  0
  1 34  1  0
  5 35  1  0
  6 36  1  0
  8 37  1  0
 13 38  1  0
 13 39  1  0
 15 40  1  0
 15 41  1  0
 16 42  1  0
 16 43  1  0
 18 44  1  1
 19 45  1  0
 19 46  1  0
 20 47  1  0
 20 48  1  0
 21 49  1  0
 22 50  1  0
 22 51  1  0
 23 52  1  0
 23 53  1  0
 25 54  1  0
 26 55  1  0
 27 56  1  0
 28 57  1  0
 30 58  1  0
 32 59  1  0
M  END
>  <UniqueID>  (67) 
42

>  <SMILES>  (67) 
NC(=O)c1ccc2cc(C(=O)N3C[C@]4(CCN([C@@H]5CCNC5)C4)c4ccccc43)[nH]c2c1

>  <Energy>  (67) 
127.55820343708275

>  <Genealogy>  (67) 
NC(=O)c1ccc2cc(C(=O)N3C[C@]4(CCN([C@@H]5CCNC5)C4)c4ccccc43)[nH]c2c1 (chirality)
NC(=O)c1ccc2cc(C(=O)N3C[C@]4(CCN([C@@H]5CCNC5)C4)c4ccccc43)[nH]c2c1 (3D coordinates assigned)
NC(=O)c1ccc2cc(C(=O)N3C[C@]4(CCN([C@@H]5CCNC5)C4)c4ccccc43)[nH]c2c1 (nonaromatic ring conformer: 127.55820343708275 kcal/mol)

>  <smiles>  (67) 
NC(=O)c1ccc2cc(C(=O)N3C[C@]4(CCN(C5CCNC5)C4)c4ccccc43)[nH]c2c1

>  <score_type>  (67) 
oracle

>  <origin>  (67) 
autodockgpu

>  <m_score__min__energy>  (67) 
-9.3100000000000005

>  <m_primary>  (67) 
energy

>  <meeko>  (67) 
{"free_energy": -9.3, "intermolecular_energy": -10.49, "internal_energy": -1.34, "cluster_size": 17, "cluster_id": 1, "rank_in_cluster": 4}

>  <energy>  (67) 
-9.28

>  <cluster_rmsd>  (67) 
0.08

>  <rmsd>  (67) 
271.16

>  <cluster>  (67) 
1

$$$$
ATTQMMYACVSETC-JXOBVBBANA-N
     RDKit          3D

 59 64  0  0  0  0  0  0  0  0999 V2000
  140.7060   67.8370  228.0390 N   0  0  0  0  0  0  0  0  0  0  0  0
  139.9580   67.9590  226.8220 C   0  0  0  0  0  0  0  0  0  0  0  0
  139.1910   67.0170  226.4820 O   0  0  0  0  0  0  0  0  0  0  0  0
  140.0760   69.1580  225.9620 C   0  0  0  0  0  0  0  0  0  0  0  0
  140.7630   70.3070  226.4450 C   0  0  0  0  0  0  0  0  0  0  0  0
  140.9030   71.4510  225.6400 C   0  0  0  0  0  0  0  0  0  0  0  0
  140.3530   71.4250  224.3640 C   0  0  0  0  0  0  0  0  0  0  0  0
  140.3680   72.3690  223.3590 C   0  0  0  0  0  0  0  0  0  0  0  0
  139.6940   71.7730  222.2950 C   0  0  0  0  0  0  0  0  0  0  0  0
  139.5070   72.3750  220.9610 C   0  0  0  0  0  0  0  0  0  0  0  0
  138.8160   71.7770  220.0930 O   0  0  0  0  0  0  0  0  0  0  0  0
  140.0590   73.6610  220.6540 N   0  0  0  0  0  0  0  0  0  0  0  0
  139.3670   74.9220  220.9250 C   0  0  0  0  0  0  0  0  0  0  0  0
  140.4650   76.0360  220.8360 C   0  0  1  0  0  0  0  0  0  0  0  0
  140.1180   77.1750  219.8830 C   0  0  0  0  0  0  0  0  0  0  0  0
  140.7310   78.4230  220.5150 C   0  0  0  0  0  0  0  0  0  0  0  0
  141.3020   78.0550  221.8290 N   0  0  0  0  0  0  0  0  0  0  0  0
  141.0450   79.0870  222.8680 C   0  0  2  0  0  0  0  0  0  0  0  0
  140.6010   80.4020  222.2370 C   0  0  0  0  0  0  0  0  0  0  0  0
  141.8940   81.1780  221.9900 C   0  0  0  0  0  0  0  0  0  0  0  0
  142.9790   80.5200  222.7250 N   0  0  0  0  0  0  0  0  0  0  0  0
  142.3340   79.5220  223.5740 C   0  0  0  0  0  0  0  0  0  0  0  0
  140.7140   76.7490  222.1630 C   0  0  0  0  0  0  0  0  0  0  0  0
  141.6880   75.2720  220.3910 C   0  0  0  0  0  0  0  0  0  0  0  0
  142.9740   75.7530  220.1130 C   0  0  0  0  0  0  0  0  0  0  0  0
  143.9720   74.8350  219.7450 C   0  0  0  0  0  0  0  0  0  0  0  0
  143.6770   73.4630  219.6600 C   0  0  0  0  0  0  0  0  0  0  0  0
  142.3830   72.9990  219.9440 C   0  0  0  0  0  0  0  0  0  0  0  0
  141.4090   73.9320  220.3190 C   0  0  0  0  0  0  0  0  0  0  0  0
  139.2990   70.5180  222.6180 N   0  0  0  0  0  0  0  0  0  0  0  0
  139.7000   70.3240  223.8850 C   0  0  0  0  0  0  0  0  0  0  0  0
  139.5460   69.1690  224.6500 C   0  0  0  0  0  0  0  0  0  0  0  0
  140.5500   67.0150  228.6650 H   0  0  0  0  0  0  0  0  0  0  0  0
  141.4670   68.5070  228.2880 H   0  0  0  0  0  0  0  0  0  0  0  0
  141.1890   70.2999  227.4591 H   0  0  0  0  0  0  0  0  0  0  0  0
  141.4328   72.3413  226.0096 H   0  0  0  0  0  0  0  0  0  0  0  0
  140.8147   73.3737  223.3904 H   0  0  0  0  0  0  0  0  0  0  0  0
  138.5814   75.0971  220.1753 H   0  0  0  0  0  0  0  0  0  0  0  0
  138.8771   74.9127  221.9098 H   0  0  0  0  0  0  0  0  0  0  0  0
  140.5521   76.9926  218.8889 H   0  0  0  0  0  0  0  0  0  0  0  0
  139.0321   77.2764  219.7399 H   0  0  0  0  0  0  0  0  0  0  0  0
  141.5248   78.8166  219.8632 H   0  0  0  0  0  0  0  0  0  0  0  0
  139.9595   79.1964  220.6440 H   0  0  0  0  0  0  0  0  0  0  0  0
  140.3044   78.6235  223.5363 H   0  0  0  0  0  0  0  0  0  0  0  0
  140.0736   80.2176  221.2894 H   0  0  0  0  0  0  0  0  0  0  0  0
  139.9035   80.9557  222.8828 H   0  0  0  0  0  0  0  0  0  0  0  0
  142.1241   81.1829  220.9144 H   0  0  0  0  0  0  0  0  0  0  0  0
  141.7817   82.2169  222.3337 H   0  0  0  0  0  0  0  0  0  0  0  0
  143.5680   80.0010  222.0300 H   0  0  0  0  0  0  0  0  0  0  0  0
  142.9993   78.6566  223.7096 H   0  0  0  0  0  0  0  0  0  0  0  0
  142.1119   79.9404  224.5668 H   0  0  0  0  0  0  0  0  0  0  0  0
  141.4104   76.1658  222.7834 H   0  0  0  0  0  0  0  0  0  0  0  0
  139.7811   76.8661  222.7339 H   0  0  0  0  0  0  0  0  0  0  0  0
  143.1980   76.8278  220.1815 H   0  0  0  0  0  0  0  0  0  0  0  0
  144.9886   75.1913  219.5224 H   0  0  0  0  0  0  0  0  0  0  0  0
  144.4632   72.7505  219.3699 H   0  0  0  0  0  0  0  0  0  0  0  0
  142.1402   71.9284  219.8736 H   0  0  0  0  0  0  0  0  0  0  0  0
  138.8130   69.8260  222.0080 H   0  0  0  0  0  0  0  0  0  0  0  0
  139.0259   68.2887  224.2442 H   0  0  0  0  0  0  0  0  0  0  0  0
  1  2  1  0
  2  3  2  0
  2  4  1  0
  4  5  2  0
  5  6  1  0
  6  7  2  0
  7  8  1  0
  8  9  2  0
  9 10  1  0
 10 11  2  0
 10 12  1  0
 12 13  1  0
 14 13  1  1
 14 15  1  0
 15 16  1  0
 16 17  1  0
 17 18  1  0
 18 19  1  0
 19 20  1  0
 20 21  1  0
 21 22  1  0
 17 23  1  0
 14 24  1  0
 24 25  2  0
 25 26  1  0
 26 27  2  0
 27 28  1  0
 28 29  2  0
  9 30  1  0
 30 31  1  0
 31 32  2  0
 32  4  1  0
 31  7  1  0
 29 12  1  0
 23 14  1  0
 29 24  1  0
 22 18  1  0
  1 33  1  0
  1 34  1  0
  5 35  1  0
  6 36  1  0
  8 37  1  0
 13 38  1  0
 13 39  1  0
 15 40  1  0
 15 41  1  0
 16 42  1  0
 16 43  1  0
 18 44  1  1
 19 45  1  0
 19 46  1  0
 20 47  1  0
 20 48  1  0
 21 49  1  0
 22 50  1  0
 22 51  1  0
 23 52  1  0
 23 53  1  0
 25 54  1  0
 26 55  1  0
 27 56  1  0
 28 57  1  0
 30 58  1  0
 32 59  1  0
M  END
>  <UniqueID>  (68) 
42

>  <SMILES>  (68) 
NC(=O)c1ccc2cc(C(=O)N3C[C@]4(CCN([C@@H]5CCNC5)C4)c4ccccc43)[nH]c2c1

>  <Energy>  (68) 
127.55820343708275

>  <Genealogy>  (68) 
NC(=O)c1ccc2cc(C(=O)N3C[C@]4(CCN([C@@H]5CCNC5)C4)c4ccccc43)[nH]c2c1 (chirality)
NC(=O)c1ccc2cc(C(=O)N3C[C@]4(CCN([C@@H]5CCNC5)C4)c4ccccc43)[nH]c2c1 (3D coordinates assigned)
NC(=O)c1ccc2cc(C(=O)N3C[C@]4(CCN([C@@H]5CCNC5)C4)c4ccccc43)[nH]c2c1 (nonaromatic ring conformer: 127.55820343708275 kcal/mol)

>  <smiles>  (68) 
NC(=O)c1ccc2cc(C(=O)N3C[C@]4(CCN(C5CCNC5)C4)c4ccccc43)[nH]c2c1

>  <score_type>  (68) 
oracle

>  <origin>  (68) 
autodockgpu

>  <m_score__min__energy>  (68) 
-9.3100000000000005

>  <m_primary>  (68) 
energy

>  <meeko>  (68) 
{"free_energy": -9.27, "intermolecular_energy": -10.46, "internal_energy": -1.32, "cluster_size": 17, "cluster_id": 1, "rank_in_cluster": 10}

>  <energy>  (68) 
-9.28

>  <cluster_rmsd>  (68) 
0.17

>  <rmsd>  (68) 
271.18

>  <cluster>  (68) 
1

$$$$
ATTQMMYACVSETC-JXOBVBBANA-N
     RDKit          3D

 59 64  0  0  0  0  0  0  0  0999 V2000
  140.6950   67.8440  228.0780 N   0  0  0  0  0  0  0  0  0  0  0  0
  139.9560   67.9600  226.8550 C   0  0  0  0  0  0  0  0  0  0  0  0
  139.1660   67.0320  226.5310 O   0  0  0  0  0  0  0  0  0  0  0  0
  140.1100   69.1380  225.9720 C   0  0  0  0  0  0  0  0  0  0  0  0
  140.8890   70.2470  226.4040 C   0  0  0  0  0  0  0  0  0  0  0  0
  141.0640   71.3700  225.5750 C   0  0  0  0  0  0  0  0  0  0  0  0
  140.4540   71.3620  224.3260 C   0  0  0  0  0  0  0  0  0  0  0  0
  140.4810   72.2900  223.3070 C   0  0  0  0  0  0  0  0  0  0  0  0
  139.7220   71.7240  222.2850 C   0  0  0  0  0  0  0  0  0  0  0  0
  139.5120   72.3190  220.9510 C   0  0  0  0  0  0  0  0  0  0  0  0
  138.8040   71.7170  220.0990 O   0  0  0  0  0  0  0  0  0  0  0  0
  140.0580   73.6040  220.6270 N   0  0  0  0  0  0  0  0  0  0  0  0
  139.3570   74.8640  220.8710 C   0  0  0  0  0  0  0  0  0  0  0  0
  140.4500   75.9830  220.7730 C   0  0  1  0  0  0  0  0  0  0  0  0
  140.1040   77.1040  219.7980 C   0  0  0  0  0  0  0  0  0  0  0  0
  140.7040   78.3660  220.4150 C   0  0  0  0  0  0  0  0  0  0  0  0
  141.2660   78.0230  221.7390 N   0  0  0  0  0  0  0  0  0  0  0  0
  140.9940   79.0700  222.7590 C   0  0  2  0  0  0  0  0  0  0  0  0
  140.7960   80.4330  222.1060 C   0  0  0  0  0  0  0  0  0  0  0  0
  142.1920   81.0520  222.0500 C   0  0  0  0  0  0  0  0  0  0  0  0
  143.0850   80.2640  222.9070 N   0  0  0  0  0  0  0  0  0  0  0  0
  142.2190   79.3440  223.6400 C   0  0  0  0  0  0  0  0  0  0  0  0
  140.6830   76.7190  222.0900 C   0  0  0  0  0  0  0  0  0  0  0  0
  141.6800   75.2200  220.3510 C   0  0  0  0  0  0  0  0  0  0  0  0
  142.9660   75.7030  220.0760 C   0  0  0  0  0  0  0  0  0  0  0  0
  143.9730   74.7850  219.7320 C   0  0  0  0  0  0  0  0  0  0  0  0
  143.6860   73.4100  219.6670 C   0  0  0  0  0  0  0  0  0  0  0  0
  142.3920   72.9430  219.9480 C   0  0  0  0  0  0  0  0  0  0  0  0
  141.4100   73.8770  220.2990 C   0  0  0  0  0  0  0  0  0  0  0  0
  139.2640   70.5010  222.6450 N   0  0  0  0  0  0  0  0  0  0  0  0
  139.7110   70.2980  223.8960 C   0  0  0  0  0  0  0  0  0  0  0  0
  139.5210   69.1660  224.6850 C   0  0  0  0  0  0  0  0  0  0  0  0
  140.5150   67.0390  228.7200 H   0  0  0  0  0  0  0  0  0  0  0  0
  141.4720   68.4990  228.3170 H   0  0  0  0  0  0  0  0  0  0  0  0
  141.3601   70.2263  227.3978 H   0  0  0  0  0  0  0  0  0  0  0  0
  141.6659   72.2293  225.9055 H   0  0  0  0  0  0  0  0  0  0  0  0
  140.9907   73.2648  223.3019 H   0  0  0  0  0  0  0  0  0  0  0  0
  138.5769   75.0222  220.1118 H   0  0  0  0  0  0  0  0  0  0  0  0
  138.8584   74.8681  221.8515 H   0  0  0  0  0  0  0  0  0  0  0  0
  140.5478   76.9080  218.8108 H   0  0  0  0  0  0  0  0  0  0  0  0
  139.0188   77.1961  219.6436 H   0  0  0  0  0  0  0  0  0  0  0  0
  141.5008   78.7541  219.7635 H   0  0  0  0  0  0  0  0  0  0  0  0
  139.9266   79.1364  220.5251 H   0  0  0  0  0  0  0  0  0  0  0  0
  140.1214   78.6923  223.3121 H   0  0  0  0  0  0  0  0  0  0  0  0
  140.3825   80.3198  221.0930 H   0  0  0  0  0  0  0  0  0  0  0  0
  140.0882   81.0608  222.6671 H   0  0  0  0  0  0  0  0  0  0  0  0
  142.5631   81.0375  221.0146 H   0  0  0  0  0  0  0  0  0  0  0  0
  142.1566   82.0943  222.3998 H   0  0  0  0  0  0  0  0  0  0  0  0
  143.6970   79.6840  222.2840 H   0  0  0  0  0  0  0  0  0  0  0  0
  142.7541   78.4046  223.8431 H   0  0  0  0  0  0  0  0  0  0  0  0
  141.9158   79.7793  224.6036 H   0  0  0  0  0  0  0  0  0  0  0  0
  141.3775   76.1505  222.7259 H   0  0  0  0  0  0  0  0  0  0  0  0
  139.7446   76.8396  222.6511 H   0  0  0  0  0  0  0  0  0  0  0  0
  143.1834   76.7800  220.1283 H   0  0  0  0  0  0  0  0  0  0  0  0
  144.9896   75.1435  219.5127 H   0  0  0  0  0  0  0  0  0  0  0  0
  144.4785   72.6973  219.3949 H   0  0  0  0  0  0  0  0  0  0  0  0
  142.1557   71.8700  219.8937 H   0  0  0  0  0  0  0  0  0  0  0  0
  138.7080   69.8340  222.0700 H   0  0  0  0  0  0  0  0  0  0  0  0
  138.9283   68.3154  224.3174 H   0  0  0  0  0  0  0  0  0  0  0  0
  1  2  1  0
  2  3  2  0
  2  4  1  0
  4  5  2  0
  5  6  1  0
  6  7  2  0
  7  8  1  0
  8  9  2  0
  9 10  1  0
 10 11  2  0
 10 12  1  0
 12 13  1  0
 14 13  1  1
 14 15  1  0
 15 16  1  0
 16 17  1  0
 17 18  1  0
 18 19  1  0
 19 20  1  0
 20 21  1  0
 21 22  1  0
 17 23  1  0
 14 24  1  0
 24 25  2  0
 25 26  1  0
 26 27  2  0
 27 28  1  0
 28 29  2  0
  9 30  1  0
 30 31  1  0
 31 32  2  0
 32  4  1  0
 31  7  1  0
 29 12  1  0
 23 14  1  0
 29 24  1  0
 22 18  1  0
  1 33  1  0
  1 34  1  0
  5 35  1  0
  6 36  1  0
  8 37  1  0
 13 38  1  0
 13 39  1  0
 15 40  1  0
 15 41  1  0
 16 42  1  0
 16 43  1  0
 18 44  1  1
 19 45  1  0
 19 46  1  0
 20 47  1  0
 20 48  1  0
 21 49  1  0
 22 50  1  0
 22 51  1  0
 23 52  1  0
 23 53  1  0
 25 54  1  0
 26 55  1  0
 27 56  1  0
 28 57  1  0
 30 58  1  0
 32 59  1  0
M  END
>  <UniqueID>  (69) 
42

>  <SMILES>  (69) 
NC(=O)c1ccc2cc(C(=O)N3C[C@]4(CCN([C@@H]5CCNC5)C4)c4ccccc43)[nH]c2c1

>  <Energy>  (69) 
127.55820343708275

>  <Genealogy>  (69) 
NC(=O)c1ccc2cc(C(=O)N3C[C@]4(CCN([C@@H]5CCNC5)C4)c4ccccc43)[nH]c2c1 (chirality)
NC(=O)c1ccc2cc(C(=O)N3C[C@]4(CCN([C@@H]5CCNC5)C4)c4ccccc43)[nH]c2c1 (3D coordinates assigned)
NC(=O)c1ccc2cc(C(=O)N3C[C@]4(CCN([C@@H]5CCNC5)C4)c4ccccc43)[nH]c2c1 (nonaromatic ring conformer: 127.55820343708275 kcal/mol)

>  <smiles>  (69) 
NC(=O)c1ccc2cc(C(=O)N3C[C@]4(CCN(C5CCNC5)C4)c4ccccc43)[nH]c2c1

>  <score_type>  (69) 
oracle

>  <origin>  (69) 
autodockgpu

>  <m_score__min__energy>  (69) 
-9.3100000000000005

>  <m_primary>  (69) 
energy

>  <meeko>  (69) 
{"free_energy": -9.29, "intermolecular_energy": -10.48, "internal_energy": -1.33, "cluster_size": 17, "cluster_id": 1, "rank_in_cluster": 6}

>  <energy>  (69) 
-9.28

>  <cluster_rmsd>  (69) 
0.12

>  <rmsd>  (69) 
271.19

>  <cluster>  (69) 
1

$$$$
ATTQMMYACVSETC-JXOBVBBANA-N
     RDKit          3D

 59 64  0  0  0  0  0  0  0  0999 V2000
  140.6960   67.8280  228.0790 N   0  0  0  0  0  0  0  0  0  0  0  0
  139.9830   67.9350  226.8400 C   0  0  0  0  0  0  0  0  0  0  0  0
  139.2110   66.9980  226.4980 O   0  0  0  0  0  0  0  0  0  0  0  0
  140.1450   69.1140  225.9580 C   0  0  0  0  0  0  0  0  0  0  0  0
  140.9190   70.2240  226.3980 C   0  0  0  0  0  0  0  0  0  0  0  0
  141.1000   71.3460  225.5720 C   0  0  0  0  0  0  0  0  0  0  0  0
  140.5030   71.3380  224.3170 C   0  0  0  0  0  0  0  0  0  0  0  0
  140.5400   72.2670  223.2980 C   0  0  0  0  0  0  0  0  0  0  0  0
  139.7920   71.7000  222.2680 C   0  0  0  0  0  0  0  0  0  0  0  0
  139.5940   72.2950  220.9320 C   0  0  0  0  0  0  0  0  0  0  0  0
  138.8970   71.6930  220.0730 O   0  0  0  0  0  0  0  0  0  0  0  0
  140.1400   73.5820  220.6160 N   0  0  0  0  0  0  0  0  0  0  0  0
  139.4330   74.8400  220.8500 C   0  0  0  0  0  0  0  0  0  0  0  0
  140.5220   75.9630  220.7650 C   0  0  1  0  0  0  0  0  0  0  0  0
  140.1850   77.0820  219.7860 C   0  0  0  0  0  0  0  0  0  0  0  0
  140.7740   78.3460  220.4100 C   0  0  0  0  0  0  0  0  0  0  0  0
  141.3200   78.0050  221.7410 N   0  0  0  0  0  0  0  0  0  0  0  0
  141.0320   79.0520  222.7580 C   0  0  2  0  0  0  0  0  0  0  0  0
  140.8130   80.4090  222.0990 C   0  0  0  0  0  0  0  0  0  0  0  0
  142.2000   81.0490  222.0410 C   0  0  0  0  0  0  0  0  0  0  0  0
  143.1040   80.2780  222.9010 N   0  0  0  0  0  0  0  0  0  0  0  0
  142.2520   79.3480  223.6370 C   0  0  0  0  0  0  0  0  0  0  0  0
  140.7370   76.7000  222.0860 C   0  0  0  0  0  0  0  0  0  0  0  0
  141.7610   75.2030  220.3600 C   0  0  0  0  0  0  0  0  0  0  0  0
  143.0480   75.6900  220.1000 C   0  0  0  0  0  0  0  0  0  0  0  0
  144.0620   74.7750  219.7700 C   0  0  0  0  0  0  0  0  0  0  0  0
  143.7810   73.3990  219.7010 C   0  0  0  0  0  0  0  0  0  0  0  0
  142.4850   72.9290  219.9660 C   0  0  0  0  0  0  0  0  0  0  0  0
  141.4950   73.8590  220.3040 C   0  0  0  0  0  0  0  0  0  0  0  0
  139.3320   70.4770  222.6240 N   0  0  0  0  0  0  0  0  0  0  0  0
  139.7660   70.2740  223.8790 C   0  0  0  0  0  0  0  0  0  0  0  0
  139.5690   69.1410  224.6660 C   0  0  0  0  0  0  0  0  0  0  0  0
  140.5090   67.0230  228.7190 H   0  0  0  0  0  0  0  0  0  0  0  0
  141.4600   68.4920  228.3350 H   0  0  0  0  0  0  0  0  0  0  0  0
  141.3809   70.2034  227.3961 H   0  0  0  0  0  0  0  0  0  0  0  0
  141.6971   72.2062  225.9090 H   0  0  0  0  0  0  0  0  0  0  0  0
  141.0488   73.2423  223.2984 H   0  0  0  0  0  0  0  0  0  0  0  0
  138.6619   74.9950  220.0810 H   0  0  0  0  0  0  0  0  0  0  0  0
  138.9232   74.8430  221.8247 H   0  0  0  0  0  0  0  0  0  0  0  0
  140.6414   76.8870  218.8043 H   0  0  0  0  0  0  0  0  0  0  0  0
  139.1015   77.1710  219.6182 H   0  0  0  0  0  0  0  0  0  0  0  0
  141.5780   78.7359  219.7685 H   0  0  0  0  0  0  0  0  0  0  0  0
  139.9933   79.1145  220.5099 H   0  0  0  0  0  0  0  0  0  0  0  0
  140.1657   78.6633  223.3133 H   0  0  0  0  0  0  0  0  0  0  0  0
  140.4017   80.2852  221.0863 H   0  0  0  0  0  0  0  0  0  0  0  0
  140.0952   81.0283  222.6569 H   0  0  0  0  0  0  0  0  0  0  0  0
  142.5717   81.0362  221.0058 H   0  0  0  0  0  0  0  0  0  0  0  0
  142.1488   82.0920  222.3867 H   0  0  0  0  0  0  0  0  0  0  0  0
  143.7250   79.7050  222.2800 H   0  0  0  0  0  0  0  0  0  0  0  0
  142.8013   78.4177  223.8437 H   0  0  0  0  0  0  0  0  0  0  0  0
  141.9420   79.7826  224.5988 H   0  0  0  0  0  0  0  0  0  0  0  0
  141.4256   76.1337  222.7303 H   0  0  0  0  0  0  0  0  0  0  0  0
  139.7919   76.8175  222.6364 H   0  0  0  0  0  0  0  0  0  0  0  0
  143.2610   76.7679  220.1531 H   0  0  0  0  0  0  0  0  0  0  0  0
  145.0803   75.1368  219.5647 H   0  0  0  0  0  0  0  0  0  0  0  0
  144.5790   72.6888  219.4386 H   0  0  0  0  0  0  0  0  0  0  0  0
  142.2530   71.8552  219.9094 H   0  0  0  0  0  0  0  0  0  0  0  0
  138.7820   69.8090  222.0420 H   0  0  0  0  0  0  0  0  0  0  0  0
  138.9809   68.2897  224.2924 H   0  0  0  0  0  0  0  0  0  0  0  0
  1  2  1  0
  2  3  2  0
  2  4  1  0
  4  5  2  0
  5  6  1  0
  6  7  2  0
  7  8  1  0
  8  9  2  0
  9 10  1  0
 10 11  2  0
 10 12  1  0
 12 13  1  0
 14 13  1  1
 14 15  1  0
 15 16  1  0
 16 17  1  0
 17 18  1  0
 18 19  1  0
 19 20  1  0
 20 21  1  0
 21 22  1  0
 17 23  1  0
 14 24  1  0
 24 25  2  0
 25 26  1  0
 26 27  2  0
 27 28  1  0
 28 29  2  0
  9 30  1  0
 30 31  1  0
 31 32  2  0
 32  4  1  0
 31  7  1  0
 29 12  1  0
 23 14  1  0
 29 24  1  0
 22 18  1  0
  1 33  1  0
  1 34  1  0
  5 35  1  0
  6 36  1  0
  8 37  1  0
 13 38  1  0
 13 39  1  0
 15 40  1  0
 15 41  1  0
 16 42  1  0
 16 43  1  0
 18 44  1  1
 19 45  1  0
 19 46  1  0
 20 47  1  0
 20 48  1  0
 21 49  1  0
 22 50  1  0
 22 51  1  0
 23 52  1  0
 23 53  1  0
 25 54  1  0
 26 55  1  0
 27 56  1  0
 28 57  1  0
 30 58  1  0
 32 59  1  0
M  END
>  <UniqueID>  (70) 
42

>  <SMILES>  (70) 
NC(=O)c1ccc2cc(C(=O)N3C[C@]4(CCN([C@@H]5CCNC5)C4)c4ccccc43)[nH]c2c1

>  <Energy>  (70) 
127.55820343708275

>  <Genealogy>  (70) 
NC(=O)c1ccc2cc(C(=O)N3C[C@]4(CCN([C@@H]5CCNC5)C4)c4ccccc43)[nH]c2c1 (chirality)
NC(=O)c1ccc2cc(C(=O)N3C[C@]4(CCN([C@@H]5CCNC5)C4)c4ccccc43)[nH]c2c1 (3D coordinates assigned)
NC(=O)c1ccc2cc(C(=O)N3C[C@]4(CCN([C@@H]5CCNC5)C4)c4ccccc43)[nH]c2c1 (nonaromatic ring conformer: 127.55820343708275 kcal/mol)

>  <smiles>  (70) 
NC(=O)c1ccc2cc(C(=O)N3C[C@]4(CCN(C5CCNC5)C4)c4ccccc43)[nH]c2c1

>  <score_type>  (70) 
oracle

>  <origin>  (70) 
autodockgpu

>  <m_score__min__energy>  (70) 
-9.3100000000000005

>  <m_primary>  (70) 
energy

>  <meeko>  (70) 
{"free_energy": -9.3, "intermolecular_energy": -10.5, "internal_energy": -1.33, "cluster_size": 17, "cluster_id": 1, "rank_in_cluster": 2}

>  <energy>  (70) 
-9.27

>  <cluster_rmsd>  (70) 
0.2

>  <rmsd>  (70) 
271.14

>  <cluster>  (70) 
1

$$$$
ATTQMMYACVSETC-JXOBVBBANA-N
     RDKit          3D

 59 64  0  0  0  0  0  0  0  0999 V2000
  140.7240   67.8320  228.1010 N   0  0  0  0  0  0  0  0  0  0  0  0
  139.9570   67.9490  226.8950 C   0  0  0  0  0  0  0  0  0  0  0  0
  139.1640   67.0180  226.5850 O   0  0  0  0  0  0  0  0  0  0  0  0
  140.0860   69.1310  226.0120 C   0  0  0  0  0  0  0  0  0  0  0  0
  140.7050   70.3140  226.5020 C   0  0  0  0  0  0  0  0  0  0  0  0
  140.8550   71.4420  225.6770 C   0  0  0  0  0  0  0  0  0  0  0  0
  140.3800   71.3660  224.3730 C   0  0  0  0  0  0  0  0  0  0  0  0
  140.4220   72.2840  223.3460 C   0  0  0  0  0  0  0  0  0  0  0  0
  139.8310   71.6400  222.2610 C   0  0  0  0  0  0  0  0  0  0  0  0
  139.7030   72.2020  220.9030 C   0  0  0  0  0  0  0  0  0  0  0  0
  139.1100   71.5460  220.0050 O   0  0  0  0  0  0  0  0  0  0  0  0
  140.1970   73.5130  220.6030 N   0  0  0  0  0  0  0  0  0  0  0  0
  139.4560   74.7410  220.8920 C   0  0  0  0  0  0  0  0  0  0  0  0
  140.5050   75.9010  220.8030 C   0  0  1  0  0  0  0  0  0  0  0  0
  140.1010   77.0330  219.8640 C   0  0  0  0  0  0  0  0  0  0  0  0
  140.6670   78.3000  220.5030 C   0  0  0  0  0  0  0  0  0  0  0  0
  141.2650   77.9440  221.8080 N   0  0  0  0  0  0  0  0  0  0  0  0
  140.9740   78.9550  222.8590 C   0  0  2  0  0  0  0  0  0  0  0  0
  140.7150   80.3260  222.2440 C   0  0  0  0  0  0  0  0  0  0  0  0
  142.0870   80.9960  222.1800 C   0  0  0  0  0  0  0  0  0  0  0  0
  143.0230   80.2210  223.0010 N   0  0  0  0  0  0  0  0  0  0  0  0
  142.2040   79.2510  223.7250 C   0  0  0  0  0  0  0  0  0  0  0  0
  140.7350   76.6120  222.1350 C   0  0  0  0  0  0  0  0  0  0  0  0
  141.7540   75.1940  220.3410 C   0  0  0  0  0  0  0  0  0  0  0  0
  143.0160   75.7300  220.0560 C   0  0  0  0  0  0  0  0  0  0  0  0
  144.0490   74.8590  219.6710 C   0  0  0  0  0  0  0  0  0  0  0  0
  143.8110   73.4760  219.5750 C   0  0  0  0  0  0  0  0  0  0  0  0
  142.5400   72.9560  219.8670 C   0  0  0  0  0  0  0  0  0  0  0  0
  141.5310   73.8440  220.2590 C   0  0  0  0  0  0  0  0  0  0  0  0
  139.4600   70.3800  222.5940 N   0  0  0  0  0  0  0  0  0  0  0  0
  139.7930   70.2310  223.8870 C   0  0  0  0  0  0  0  0  0  0  0  0
  139.6330   69.0910  224.6720 C   0  0  0  0  0  0  0  0  0  0  0  0
  140.5620   67.0250  228.7440 H   0  0  0  0  0  0  0  0  0  0  0  0
  141.5030   68.4900  228.3240 H   0  0  0  0  0  0  0  0  0  0  0  0
  141.0707   70.3466  227.5389 H   0  0  0  0  0  0  0  0  0  0  0  0
  141.3343   72.3582  226.0524 H   0  0  0  0  0  0  0  0  0  0  0  0
  140.8330   73.3039  223.3763 H   0  0  0  0  0  0  0  0  0  0  0  0
  138.6564   74.8896  220.1514 H   0  0  0  0  0  0  0  0  0  0  0  0
  138.9769   74.7024  221.8814 H   0  0  0  0  0  0  0  0  0  0  0  0
  140.5330   76.8784  218.8642 H   0  0  0  0  0  0  0  0  0  0  0  0
  139.0105   77.0896  219.7314 H   0  0  0  0  0  0  0  0  0  0  0  0
  141.4375   78.7329  219.8481 H   0  0  0  0  0  0  0  0  0  0  0  0
  139.8649   79.0390  220.6464 H   0  0  0  0  0  0  0  0  0  0  0  0
  140.1257   78.5326  223.4175 H   0  0  0  0  0  0  0  0  0  0  0  0
  140.2876   80.2230  221.2357 H   0  0  0  0  0  0  0  0  0  0  0  0
  139.9951   80.9137  222.8326 H   0  0  0  0  0  0  0  0  0  0  0  0
  142.4397   81.0203  221.1383 H   0  0  0  0  0  0  0  0  0  0  0  0
  142.0204   82.0273  222.5568 H   0  0  0  0  0  0  0  0  0  0  0  0
  143.6440   79.6790  222.3530 H   0  0  0  0  0  0  0  0  0  0  0  0
  142.7764   78.3270  223.8940 H   0  0  0  0  0  0  0  0  0  0  0  0
  141.9030   79.6502  224.7048 H   0  0  0  0  0  0  0  0  0  0  0  0
  141.4603   76.0530  222.7445 H   0  0  0  0  0  0  0  0  0  0  0  0
  139.8029   76.6848  222.7146 H   0  0  0  0  0  0  0  0  0  0  0  0
  143.1952   76.8126  220.1321 H   0  0  0  0  0  0  0  0  0  0  0  0
  145.0477   75.2601  219.4438 H   0  0  0  0  0  0  0  0  0  0  0  0
  144.6233   72.7997  219.2702 H   0  0  0  0  0  0  0  0  0  0  0  0
  142.3416   71.8768  219.7897 H   0  0  0  0  0  0  0  0  0  0  0  0
  139.0330   69.6580  221.9760 H   0  0  0  0  0  0  0  0  0  0  0  0
  139.1667   68.1836  224.2608 H   0  0  0  0  0  0  0  0  0  0  0  0
  1  2  1  0
  2  3  2  0
  2  4  1  0
  4  5  2  0
  5  6  1  0
  6  7  2  0
  7  8  1  0
  8  9  2  0
  9 10  1  0
 10 11  2  0
 10 12  1  0
 12 13  1  0
 14 13  1  1
 14 15  1  0
 15 16  1  0
 16 17  1  0
 17 18  1  0
 18 19  1  0
 19 20  1  0
 20 21  1  0
 21 22  1  0
 17 23  1  0
 14 24  1  0
 24 25  2  0
 25 26  1  0
 26 27  2  0
 27 28  1  0
 28 29  2  0
  9 30  1  0
 30 31  1  0
 31 32  2  0
 32  4  1  0
 31  7  1  0
 29 12  1  0
 23 14  1  0
 29 24  1  0
 22 18  1  0
  1 33  1  0
  1 34  1  0
  5 35  1  0
  6 36  1  0
  8 37  1  0
 13 38  1  0
 13 39  1  0
 15 40  1  0
 15 41  1  0
 16 42  1  0
 16 43  1  0
 18 44  1  1
 19 45  1  0
 19 46  1  0
 20 47  1  0
 20 48  1  0
 21 49  1  0
 22 50  1  0
 22 51  1  0
 23 52  1  0
 23 53  1  0
 25 54  1  0
 26 55  1  0
 27 56  1  0
 28 57  1  0
 30 58  1  0
 32 59  1  0
M  END
>  <UniqueID>  (71) 
42

>  <SMILES>  (71) 
NC(=O)c1ccc2cc(C(=O)N3C[C@]4(CCN([C@@H]5CCNC5)C4)c4ccccc43)[nH]c2c1

>  <Energy>  (71) 
127.55820343708275

>  <Genealogy>  (71) 
NC(=O)c1ccc2cc(C(=O)N3C[C@]4(CCN([C@@H]5CCNC5)C4)c4ccccc43)[nH]c2c1 (chirality)
NC(=O)c1ccc2cc(C(=O)N3C[C@]4(CCN([C@@H]5CCNC5)C4)c4ccccc43)[nH]c2c1 (3D coordinates assigned)
NC(=O)c1ccc2cc(C(=O)N3C[C@]4(CCN([C@@H]5CCNC5)C4)c4ccccc43)[nH]c2c1 (nonaromatic ring conformer: 127.55820343708275 kcal/mol)

>  <smiles>  (71) 
NC(=O)c1ccc2cc(C(=O)N3C[C@]4(CCN(C5CCNC5)C4)c4ccccc43)[nH]c2c1

>  <score_type>  (71) 
oracle

>  <origin>  (71) 
autodockgpu

>  <m_score__min__energy>  (71) 
-9.3100000000000005

>  <m_primary>  (71) 
energy

>  <meeko>  (71) 
{"free_energy": -9.27, "intermolecular_energy": -10.46, "internal_energy": -1.33, "cluster_size": 17, "cluster_id": 1, "rank_in_cluster": 12}

>  <energy>  (71) 
-9.27

>  <cluster_rmsd>  (71) 
0.18

>  <rmsd>  (71) 
271.12

>  <cluster>  (71) 
1

$$$$
ATTQMMYACVSETC-JXOBVBBANA-N
     RDKit          3D

 59 64  0  0  0  0  0  0  0  0999 V2000
  141.1470   68.2100  228.6220 N   0  0  0  0  0  0  0  0  0  0  0  0
  141.0140   69.4610  227.9330 C   0  0  0  0  0  0  0  0  0  0  0  0
  141.4180   70.5130  228.4980 O   0  0  0  0  0  0  0  0  0  0  0  0
  140.4070   69.5350  226.5840 C   0  0  0  0  0  0  0  0  0  0  0  0
  139.7830   68.3850  226.0270 C   0  0  0  0  0  0  0  0  0  0  0  0
  139.1850   68.4360  224.7550 C   0  0  0  0  0  0  0  0  0  0  0  0
  139.2230   69.6410  224.0630 C   0  0  0  0  0  0  0  0  0  0  0  0
  138.6970   69.9900  222.8370 C   0  0  0  0  0  0  0  0  0  0  0  0
  139.0120   71.3380  222.6810 C   0  0  0  0  0  0  0  0  0  0  0  0
  138.6010   72.1830  221.5440 C   0  0  0  0  0  0  0  0  0  0  0  0
  137.5270   71.9350  220.9320 O   0  0  0  0  0  0  0  0  0  0  0  0
  139.3810   73.3220  221.1570 N   0  0  0  0  0  0  0  0  0  0  0  0
  138.8710   74.6920  221.1690 C   0  0  0  0  0  0  0  0  0  0  0  0
  140.1330   75.6170  221.0940 C   0  0  1  0  0  0  0  0  0  0  0  0
  140.0860   76.6430  219.9670 C   0  0  0  0  0  0  0  0  0  0  0  0
  140.8090   77.8710  220.5160 C   0  0  0  0  0  0  0  0  0  0  0  0
  141.1550   77.6200  221.9320 N   0  0  0  0  0  0  0  0  0  0  0  0
  140.9430   78.8180  222.7880 C   0  0  2  0  0  0  0  0  0  0  0  0
  140.7940   80.0770  221.9410 C   0  0  0  0  0  0  0  0  0  0  0  0
  142.2150   80.6180  221.7830 C   0  0  0  0  0  0  0  0  0  0  0  0
  143.0850   79.9260  222.7410 N   0  0  0  0  0  0  0  0  0  0  0  0
  142.1910   79.1640  223.6080 C   0  0  0  0  0  0  0  0  0  0  0  0
  140.3320   76.4720  222.3430 C   0  0  0  0  0  0  0  0  0  0  0  0
  141.2640   74.6330  220.9230 C   0  0  0  0  0  0  0  0  0  0  0  0
  142.6330   74.8820  220.7680 C   0  0  0  0  0  0  0  0  0  0  0  0
  143.5110   73.7900  220.6610 C   0  0  0  0  0  0  0  0  0  0  0  0
  143.0150   72.4750  220.7090 C   0  0  0  0  0  0  0  0  0  0  0  0
  141.6390   72.2440  220.8670 C   0  0  0  0  0  0  0  0  0  0  0  0
  140.7870   73.3480  220.9820 C   0  0  0  0  0  0  0  0  0  0  0  0
  139.6820   71.8040  223.7630 N   0  0  0  0  0  0  0  0  0  0  0  0
  139.8110   70.7550  224.5920 C   0  0  0  0  0  0  0  0  0  0  0  0
  140.4080   70.7460  225.8510 C   0  0  0  0  0  0  0  0  0  0  0  0
  141.6450   68.1730  229.5410 H   0  0  0  0  0  0  0  0  0  0  0  0
  140.6930   67.3370  228.2740 H   0  0  0  0  0  0  0  0  0  0  0  0
  139.7678   67.4447  226.5975 H   0  0  0  0  0  0  0  0  0  0  0  0
  138.7015   67.5486  224.3206 H   0  0  0  0  0  0  0  0  0  0  0  0
  138.1483   69.3447  222.1352 H   0  0  0  0  0  0  0  0  0  0  0  0
  138.2170   74.8650  220.3016 H   0  0  0  0  0  0  0  0  0  0  0  0
  138.2735   74.8940  222.0702 H   0  0  0  0  0  0  0  0  0  0  0  0
  140.6006   76.2592  219.0737 H   0  0  0  0  0  0  0  0  0  0  0  0
  139.0544   76.8740  219.6629 H   0  0  0  0  0  0  0  0  0  0  0  0
  141.7265   78.0510  219.9365 H   0  0  0  0  0  0  0  0  0  0  0  0
  140.1598   78.7556  220.4385 H   0  0  0  0  0  0  0  0  0  0  0  0
  140.0633   78.5659  223.3984 H   0  0  0  0  0  0  0  0  0  0  0  0
  140.3616   79.8336  220.9593 H   0  0  0  0  0  0  0  0  0  0  0  0
  140.1216   80.8119  222.4078 H   0  0  0  0  0  0  0  0  0  0  0  0
  142.5705   80.4338  220.7585 H   0  0  0  0  0  0  0  0  0  0  0  0
  142.2297   81.7012  221.9742 H   0  0  0  0  0  0  0  0  0  0  0  0
  143.6620   79.2340  222.2060 H   0  0  0  0  0  0  0  0  0  0  0  0
  142.6881   78.2419  223.9435 H   0  0  0  0  0  0  0  0  0  0  0  0
  141.9206   79.7501  224.4987 H   0  0  0  0  0  0  0  0  0  0  0  0
  140.8487   75.8928  223.1225 H   0  0  0  0  0  0  0  0  0  0  0  0
  139.3685   76.8003  222.7599 H   0  0  0  0  0  0  0  0  0  0  0  0
  143.0142   75.9132  220.7307 H   0  0  0  0  0  0  0  0  0  0  0  0
  144.5902   73.9645  220.5392 H   0  0  0  0  0  0  0  0  0  0  0  0
  143.7072   71.6245  220.6225 H   0  0  0  0  0  0  0  0  0  0  0  0
  141.2403   71.2193  220.8996 H   0  0  0  0  0  0  0  0  0  0  0  0
  140.0070   72.7780  223.9400 H   0  0  0  0  0  0  0  0  0  0  0  0
  140.8679   71.6558  226.2643 H   0  0  0  0  0  0  0  0  0  0  0  0
  1  2  1  0
  2  3  2  0
  2  4  1  0
  4  5  2  0
  5  6  1  0
  6  7  2  0
  7  8  1  0
  8  9  2  0
  9 10  1  0
 10 11  2  0
 10 12  1  0
 12 13  1  0
 14 13  1  1
 14 15  1  0
 15 16  1  0
 16 17  1  0
 17 18  1  0
 18 19  1  0
 19 20  1  0
 20 21  1  0
 21 22  1  0
 17 23  1  0
 14 24  1  0
 24 25  2  0
 25 26  1  0
 26 27  2  0
 27 28  1  0
 28 29  2  0
  9 30  1  0
 30 31  1  0
 31 32  2  0
 32  4  1  0
 31  7  1  0
 29 12  1  0
 23 14  1  0
 29 24  1  0
 22 18  1  0
  1 33  1  0
  1 34  1  0
  5 35  1  0
  6 36  1  0
  8 37  1  0
 13 38  1  0
 13 39  1  0
 15 40  1  0
 15 41  1  0
 16 42  1  0
 16 43  1  0
 18 44  1  1
 19 45  1  0
 19 46  1  0
 20 47  1  0
 20 48  1  0
 21 49  1  0
 22 50  1  0
 22 51  1  0
 23 52  1  0
 23 53  1  0
 25 54  1  0
 26 55  1  0
 27 56  1  0
 28 57  1  0
 30 58  1  0
 32 59  1  0
M  END
>  <UniqueID>  (72) 
42

>  <SMILES>  (72) 
NC(=O)c1ccc2cc(C(=O)N3C[C@]4(CCN([C@@H]5CCNC5)C4)c4ccccc43)[nH]c2c1

>  <Energy>  (72) 
127.55820343708275

>  <Genealogy>  (72) 
NC(=O)c1ccc2cc(C(=O)N3C[C@]4(CCN([C@@H]5CCNC5)C4)c4ccccc43)[nH]c2c1 (chirality)
NC(=O)c1ccc2cc(C(=O)N3C[C@]4(CCN([C@@H]5CCNC5)C4)c4ccccc43)[nH]c2c1 (3D coordinates assigned)
NC(=O)c1ccc2cc(C(=O)N3C[C@]4(CCN([C@@H]5CCNC5)C4)c4ccccc43)[nH]c2c1 (nonaromatic ring conformer: 127.55820343708275 kcal/mol)

>  <smiles>  (72) 
NC(=O)c1ccc2cc(C(=O)N3C[C@]4(CCN(C5CCNC5)C4)c4ccccc43)[nH]c2c1

>  <score_type>  (72) 
oracle

>  <origin>  (72) 
autodockgpu

>  <m_score__min__energy>  (72) 
-9.3100000000000005

>  <m_primary>  (72) 
energy

>  <meeko>  (72) 
{"free_energy": -9.16, "intermolecular_energy": -10.35, "internal_energy": -1.21, "cluster_size": 17, "cluster_id": 1, "rank_in_cluster": 13}

>  <energy>  (72) 
-9.27

>  <cluster_rmsd>  (72) 
0.11

>  <rmsd>  (72) 
271.15

>  <cluster>  (72) 
1

$$$$
ATTQMMYACVSETC-JXOBVBBANA-N
     RDKit          3D

 59 64  0  0  0  0  0  0  0  0999 V2000
  140.0590   68.1310  228.2900 N   0  0  0  0  0  0  0  0  0  0  0  0
  139.7010   68.0620  226.9040 C   0  0  0  0  0  0  0  0  0  0  0  0
  139.1430   67.0170  226.4700 O   0  0  0  0  0  0  0  0  0  0  0  0
  139.9810   69.1840  225.9790 C   0  0  0  0  0  0  0  0  0  0  0  0
  141.0300   70.0990  226.2770 C   0  0  0  0  0  0  0  0  0  0  0  0
  141.3250   71.1620  225.4050 C   0  0  0  0  0  0  0  0  0  0  0  0
  140.5640   71.2910  224.2490 C   0  0  0  0  0  0  0  0  0  0  0  0
  140.6500   72.1960  223.2130 C   0  0  0  0  0  0  0  0  0  0  0  0
  139.6570   71.8110  222.3160 C   0  0  0  0  0  0  0  0  0  0  0  0
  139.3990   72.4440  221.0080 C   0  0  0  0  0  0  0  0  0  0  0  0
  138.6560   71.8700  220.1670 O   0  0  0  0  0  0  0  0  0  0  0  0
  139.9400   73.7350  220.6990 N   0  0  0  0  0  0  0  0  0  0  0  0
  139.2580   74.9910  221.0100 C   0  0  0  0  0  0  0  0  0  0  0  0
  140.3520   76.1070  220.8990 C   0  0  1  0  0  0  0  0  0  0  0  0
  139.9730   77.2590  219.9730 C   0  0  0  0  0  0  0  0  0  0  0  0
  140.6070   78.4980  220.6010 C   0  0  0  0  0  0  0  0  0  0  0  0
  141.2230   78.1130  221.8890 N   0  0  0  0  0  0  0  0  0  0  0  0
  141.0010   79.1310  222.9500 C   0  0  2  0  0  0  0  0  0  0  0  0
  140.7380   80.5050  222.3450 C   0  0  0  0  0  0  0  0  0  0  0  0
  142.1170   81.1500  222.2140 C   0  0  0  0  0  0  0  0  0  0  0  0
  143.0770   80.3580  222.9910 N   0  0  0  0  0  0  0  0  0  0  0  0
  142.2760   79.4060  223.7550 C   0  0  0  0  0  0  0  0  0  0  0  0
  140.6460   76.8020  222.2260 C   0  0  0  0  0  0  0  0  0  0  0  0
  141.5590   75.3500  220.4030 C   0  0  0  0  0  0  0  0  0  0  0  0
  142.8350   75.8340  220.0870 C   0  0  0  0  0  0  0  0  0  0  0  0
  143.8200   74.9220  219.6730 C   0  0  0  0  0  0  0  0  0  0  0  0
  143.5220   73.5510  219.5800 C   0  0  0  0  0  0  0  0  0  0  0  0
  142.2380   73.0830  219.9020 C   0  0  0  0  0  0  0  0  0  0  0  0
  141.2780   74.0110  220.3220 C   0  0  0  0  0  0  0  0  0  0  0  0
  139.0020   70.7130  222.7630 N   0  0  0  0  0  0  0  0  0  0  0  0
  139.5610   70.4130  223.9480 C   0  0  0  0  0  0  0  0  0  0  0  0
  139.2430   69.3440  224.7830 C   0  0  0  0  0  0  0  0  0  0  0  0
  139.7850   67.3580  228.9380 H   0  0  0  0  0  0  0  0  0  0  0  0
  140.6580   68.8990  228.6680 H   0  0  0  0  0  0  0  0  0  0  0  0
  141.6161   69.9732  227.1993 H   0  0  0  0  0  0  0  0  0  0  0  0
  142.1349   71.8712  225.6312 H   0  0  0  0  0  0  0  0  0  0  0  0
  141.3504   73.0387  223.1160 H   0  0  0  0  0  0  0  0  0  0  0  0
  138.4474   75.1757  220.2897 H   0  0  0  0  0  0  0  0  0  0  0  0
  138.8019   74.9680  222.0107 H   0  0  0  0  0  0  0  0  0  0  0  0
  140.3734   77.0902  218.9625 H   0  0  0  0  0  0  0  0  0  0  0  0
  138.8829   77.3619  219.8675 H   0  0  0  0  0  0  0  0  0  0  0  0
  141.3778   78.9012  219.9277 H   0  0  0  0  0  0  0  0  0  0  0  0
  139.8399   79.2686  220.7674 H   0  0  0  0  0  0  0  0  0  0  0  0
  140.1728   78.7251  223.5494 H   0  0  0  0  0  0  0  0  0  0  0  0
  140.2612   80.4082  221.3585 H   0  0  0  0  0  0  0  0  0  0  0  0
  140.0578   81.1065  222.9659 H   0  0  0  0  0  0  0  0  0  0  0  0
  142.4198   81.1670  221.1566 H   0  0  0  0  0  0  0  0  0  0  0  0
  142.0875   82.1828  222.5915 H   0  0  0  0  0  0  0  0  0  0  0  0
  143.6560   79.8040  222.3150 H   0  0  0  0  0  0  0  0  0  0  0  0
  142.8385   78.4718  223.8994 H   0  0  0  0  0  0  0  0  0  0  0  0
  142.0294   79.8132  224.7466 H   0  0  0  0  0  0  0  0  0  0  0  0
  141.3629   76.2107  222.8146 H   0  0  0  0  0  0  0  0  0  0  0  0
  139.7331   76.9113  222.8300 H   0  0  0  0  0  0  0  0  0  0  0  0
  143.0614   76.9079  220.1616 H   0  0  0  0  0  0  0  0  0  0  0  0
  144.8284   75.2818  219.4206 H   0  0  0  0  0  0  0  0  0  0  0  0
  144.2977   72.8425  219.2538 H   0  0  0  0  0  0  0  0  0  0  0  0
  141.9926   72.0134  219.8261 H   0  0  0  0  0  0  0  0  0  0  0  0
  138.2440   70.1830  222.2840 H   0  0  0  0  0  0  0  0  0  0  0  0
  138.4383   68.6421  224.5188 H   0  0  0  0  0  0  0  0  0  0  0  0
  1  2  1  0
  2  3  2  0
  2  4  1  0
  4  5  2  0
  5  6  1  0
  6  7  2  0
  7  8  1  0
  8  9  2  0
  9 10  1  0
 10 11  2  0
 10 12  1  0
 12 13  1  0
 14 13  1  1
 14 15  1  0
 15 16  1  0
 16 17  1  0
 17 18  1  0
 18 19  1  0
 19 20  1  0
 20 21  1  0
 21 22  1  0
 17 23  1  0
 14 24  1  0
 24 25  2  0
 25 26  1  0
 26 27  2  0
 27 28  1  0
 28 29  2  0
  9 30  1  0
 30 31  1  0
 31 32  2  0
 32  4  1  0
 31  7  1  0
 29 12  1  0
 23 14  1  0
 29 24  1  0
 22 18  1  0
  1 33  1  0
  1 34  1  0
  5 35  1  0
  6 36  1  0
  8 37  1  0
 13 38  1  0
 13 39  1  0
 15 40  1  0
 15 41  1  0
 16 42  1  0
 16 43  1  0
 18 44  1  1
 19 45  1  0
 19 46  1  0
 20 47  1  0
 20 48  1  0
 21 49  1  0
 22 50  1  0
 22 51  1  0
 23 52  1  0
 23 53  1  0
 25 54  1  0
 26 55  1  0
 27 56  1  0
 28 57  1  0
 30 58  1  0
 32 59  1  0
M  END
>  <UniqueID>  (73) 
42

>  <SMILES>  (73) 
NC(=O)c1ccc2cc(C(=O)N3C[C@]4(CCN([C@@H]5CCNC5)C4)c4ccccc43)[nH]c2c1

>  <Energy>  (73) 
127.55820343708275

>  <Genealogy>  (73) 
NC(=O)c1ccc2cc(C(=O)N3C[C@]4(CCN([C@@H]5CCNC5)C4)c4ccccc43)[nH]c2c1 (chirality)
NC(=O)c1ccc2cc(C(=O)N3C[C@]4(CCN([C@@H]5CCNC5)C4)c4ccccc43)[nH]c2c1 (3D coordinates assigned)
NC(=O)c1ccc2cc(C(=O)N3C[C@]4(CCN([C@@H]5CCNC5)C4)c4ccccc43)[nH]c2c1 (nonaromatic ring conformer: 127.55820343708275 kcal/mol)

>  <smiles>  (73) 
NC(=O)c1ccc2cc(C(=O)N3C[C@]4(CCN(C5CCNC5)C4)c4ccccc43)[nH]c2c1

>  <score_type>  (73) 
oracle

>  <origin>  (73) 
autodockgpu

>  <m_score__min__energy>  (73) 
-9.3100000000000005

>  <m_primary>  (73) 
energy

>  <meeko>  (73) 
{"free_energy": -9.08, "intermolecular_energy": -10.27, "internal_energy": -1.32, "cluster_size": 17, "cluster_id": 1, "rank_in_cluster": 15}

>  <energy>  (73) 
-9.16

>  <cluster_rmsd>  (73) 
1.36

>  <rmsd>  (73) 
271.34

>  <cluster>  (73) 
1

$$$$
ATTQMMYACVSETC-JXOBVBBANA-N
     RDKit          3D

 59 64  0  0  0  0  0  0  0  0999 V2000
  145.6670   71.9040  220.2600 N   0  0  0  0  0  0  0  0  0  0  0  0
  145.2740   72.7790  219.1940 C   0  0  0  0  0  0  0  0  0  0  0  0
  145.8260   72.6530  218.0680 O   0  0  0  0  0  0  0  0  0  0  0  0
  144.2460   73.8260  219.3970 C   0  0  0  0  0  0  0  0  0  0  0  0
  144.0620   74.8340  218.4110 C   0  0  0  0  0  0  0  0  0  0  0  0
  143.0800   75.8280  218.5740 C   0  0  0  0  0  0  0  0  0  0  0  0
  142.2990   75.7940  219.7230 C   0  0  0  0  0  0  0  0  0  0  0  0
  141.2550   76.6000  220.1250 C   0  0  0  0  0  0  0  0  0  0  0  0
  140.8330   76.0640  221.3390 C   0  0  0  0  0  0  0  0  0  0  0  0
  139.6880   76.5500  222.1320 C   0  0  0  0  0  0  0  0  0  0  0  0
  138.9360   75.7270  222.7210 O   0  0  0  0  0  0  0  0  0  0  0  0
  139.4490   77.9540  222.2890 N   0  0  0  0  0  0  0  0  0  0  0  0
  138.1190   78.5590  222.2260 C   0  0  0  0  0  0  0  0  0  0  0  0
  138.2710   79.9870  222.8540 C   0  0  1  0  0  0  0  0  0  0  0  0
  137.7600   81.1150  221.9640 C   0  0  0  0  0  0  0  0  0  0  0  0
  137.1970   82.1570  222.9270 C   0  0  0  0  0  0  0  0  0  0  0  0
  137.2650   81.6150  224.3020 N   0  0  0  0  0  0  0  0  0  0  0  0
  136.0510   81.9380  225.0990 C   0  0  2  0  0  0  0  0  0  0  0  0
  135.8240   83.4440  225.1670 C   0  0  0  0  0  0  0  0  0  0  0  0
  136.5880   83.9020  226.4090 C   0  0  0  0  0  0  0  0  0  0  0  0
  136.9500   82.7180  227.1960 N   0  0  0  0  0  0  0  0  0  0  0  0
  136.2350   81.6020  226.5830 C   0  0  0  0  0  0  0  0  0  0  0  0
  137.4770   80.1680  224.1460 C   0  0  0  0  0  0  0  0  0  0  0  0
  139.7540   80.0880  223.1090 C   0  0  0  0  0  0  0  0  0  0  0  0
  140.4870   81.1590  223.6350 C   0  0  0  0  0  0  0  0  0  0  0  0
  141.8720   81.0060  223.8160 C   0  0  0  0  0  0  0  0  0  0  0  0
  142.5030   79.7970  223.4720 C   0  0  0  0  0  0  0  0  0  0  0  0
  141.7510   78.7330  222.9470 C   0  0  0  0  0  0  0  0  0  0  0  0
  140.3720   78.9070  222.7870 C   0  0  0  0  0  0  0  0  0  0  0  0
  141.5640   74.9700  221.6630 N   0  0  0  0  0  0  0  0  0  0  0  0
  142.4590   74.8240  220.6720 C   0  0  0  0  0  0  0  0  0  0  0  0
  143.4170   73.8190  220.5440 C   0  0  0  0  0  0  0  0  0  0  0  0
  146.3390   71.1260  220.0730 H   0  0  0  0  0  0  0  0  0  0  0  0
  145.3610   72.0630  221.2460 H   0  0  0  0  0  0  0  0  0  0  0  0
  144.6944   74.8365  217.5110 H   0  0  0  0  0  0  0  0  0  0  0  0
  142.9345   76.6097  217.8139 H   0  0  0  0  0  0  0  0  0  0  0  0
  140.8448   77.4758  219.6008 H   0  0  0  0  0  0  0  0  0  0  0  0
  137.7808   78.6334  221.1819 H   0  0  0  0  0  0  0  0  0  0  0  0
  137.3734   77.9562  222.7652 H   0  0  0  0  0  0  0  0  0  0  0  0
  138.5823   81.5417  221.3709 H   0  0  0  0  0  0  0  0  0  0  0  0
  137.0027   80.7640  221.2476 H   0  0  0  0  0  0  0  0  0  0  0  0
  137.7915   83.0803  222.8629 H   0  0  0  0  0  0  0  0  0  0  0  0
  136.1536   82.3860  222.6647 H   0  0  0  0  0  0  0  0  0  0  0  0
  135.2441   81.3727  224.6099 H   0  0  0  0  0  0  0  0  0  0  0  0
  136.2196   83.9359  224.2662 H   0  0  0  0  0  0  0  0  0  0  0  0
  134.7554   83.6994  225.2210 H   0  0  0  0  0  0  0  0  0  0  0  0
  137.4990   84.4395  226.1070 H   0  0  0  0  0  0  0  0  0  0  0  0
  135.9604   84.5765  227.0100 H   0  0  0  0  0  0  0  0  0  0  0  0
  137.9740   82.5440  227.0580 H   0  0  0  0  0  0  0  0  0  0  0  0
  136.8197   80.6764  226.6896 H   0  0  0  0  0  0  0  0  0  0  0  0
  135.2612   81.4485  227.0710 H   0  0  0  0  0  0  0  0  0  0  0  0
  138.0452   79.7721  225.0007 H   0  0  0  0  0  0  0  0  0  0  0  0
  136.5205   79.6262  224.1063 H   0  0  0  0  0  0  0  0  0  0  0  0
  139.9879   82.1023  223.9015 H   0  0  0  0  0  0  0  0  0  0  0  0
  142.4653   81.8354  224.2285 H   0  0  0  0  0  0  0  0  0  0  0  0
  143.5879   79.6844  223.6144 H   0  0  0  0  0  0  0  0  0  0  0  0
  142.2349   77.7853  222.6682 H   0  0  0  0  0  0  0  0  0  0  0  0
  141.4450   74.3460  222.4890 H   0  0  0  0  0  0  0  0  0  0  0  0
  143.5256   73.0412  221.3142 H   0  0  0  0  0  0  0  0  0  0  0  0
  1  2  1  0
  2  3  2  0
  2  4  1  0
  4  5  2  0
  5  6  1  0
  6  7  2  0
  7  8  1  0
  8  9  2  0
  9 10  1  0
 10 11  2  0
 10 12  1  0
 12 13  1  0
 14 13  1  6
 14 15  1  0
 15 16  1  0
 16 17  1  0
 17 18  1  0
 18 19  1  0
 19 20  1  0
 20 21  1  0
 21 22  1  0
 17 23  1  0
 14 24  1  0
 24 25  2  0
 25 26  1  0
 26 27  2  0
 27 28  1  0
 28 29  2  0
  9 30  1  0
 30 31  1  0
 31 32  2  0
 32  4  1  0
 31  7  1  0
 29 12  1  0
 23 14  1  0
 29 24  1  0
 22 18  1  0
  1 33  1  0
  1 34  1  0
  5 35  1  0
  6 36  1  0
  8 37  1  0
 13 38  1  0
 13 39  1  0
 15 40  1  0
 15 41  1  0
 16 42  1  0
 16 43  1  0
 18 44  1  6
 19 45  1  0
 19 46  1  0
 20 47  1  0
 20 48  1  0
 21 49  1  0
 22 50  1  0
 22 51  1  0
 23 52  1  0
 23 53  1  0
 25 54  1  0
 26 55  1  0
 27 56  1  0
 28 57  1  0
 30 58  1  0
 32 59  1  0
M  END
>  <UniqueID>  (74) 
42

>  <SMILES>  (74) 
NC(=O)c1ccc2cc(C(=O)N3C[C@]4(CCN([C@@H]5CCNC5)C4)c4ccccc43)[nH]c2c1

>  <Energy>  (74) 
127.55820343708275

>  <Genealogy>  (74) 
NC(=O)c1ccc2cc(C(=O)N3C[C@]4(CCN([C@@H]5CCNC5)C4)c4ccccc43)[nH]c2c1 (chirality)
NC(=O)c1ccc2cc(C(=O)N3C[C@]4(CCN([C@@H]5CCNC5)C4)c4ccccc43)[nH]c2c1 (3D coordinates assigned)
NC(=O)c1ccc2cc(C(=O)N3C[C@]4(CCN([C@@H]5CCNC5)C4)c4ccccc43)[nH]c2c1 (nonaromatic ring conformer: 127.55820343708275 kcal/mol)

>  <smiles>  (74) 
NC(=O)c1ccc2cc(C(=O)N3C[C@]4(CCN(C5CCNC5)C4)c4ccccc43)[nH]c2c1

>  <score_type>  (74) 
oracle

>  <origin>  (74) 
autodockgpu

>  <m_score__min__energy>  (74) 
-9.3100000000000005

>  <m_primary>  (74) 
energy

>  <meeko>  (74) 
{"free_energy": -8.66, "intermolecular_energy": -9.86, "internal_energy": -1.23, "cluster_size": 3, "cluster_id": 2, "rank_in_cluster": 2}

>  <energy>  (74) 
-9.14

>  <cluster_rmsd>  (74) 
0.25

>  <rmsd>  (74) 
271.26

>  <cluster>  (74) 
1

$$$$
ATTQMMYACVSETC-JXOBVBBANA-N
     RDKit          3D

 59 64  0  0  0  0  0  0  0  0999 V2000
  140.7670   67.8290  228.1120 N   0  0  0  0  0  0  0  0  0  0  0  0
  139.9800   67.9530  226.9200 C   0  0  0  0  0  0  0  0  0  0  0  0
  139.1780   67.0280  226.6200 O   0  0  0  0  0  0  0  0  0  0  0  0
  140.1000   69.1370  226.0380 C   0  0  0  0  0  0  0  0  0  0  0  0
  140.7370   70.3150  226.5200 C   0  0  0  0  0  0  0  0  0  0  0  0
  140.8780   71.4450  225.6960 C   0  0  0  0  0  0  0  0  0  0  0  0
  140.3780   71.3760  224.4010 C   0  0  0  0  0  0  0  0  0  0  0  0
  140.4070   72.2980  223.3760 C   0  0  0  0  0  0  0  0  0  0  0  0
  139.7910   71.6610  222.3010 C   0  0  0  0  0  0  0  0  0  0  0  0
  139.6400   72.2280  220.9470 C   0  0  0  0  0  0  0  0  0  0  0  0
  139.0080   71.5890  220.0650 O   0  0  0  0  0  0  0  0  0  0  0  0
  140.1580   73.5280  220.6360 N   0  0  0  0  0  0  0  0  0  0  0  0
  139.4310   74.7700  220.8950 C   0  0  0  0  0  0  0  0  0  0  0  0
  140.4990   75.9140  220.8060 C   0  0  1  0  0  0  0  0  0  0  0  0
  140.1270   77.0370  219.8440 C   0  0  0  0  0  0  0  0  0  0  0  0
  140.7020   78.3050  220.4730 C   0  0  0  0  0  0  0  0  0  0  0  0
  141.2740   77.9600  221.7920 N   0  0  0  0  0  0  0  0  0  0  0  0
  140.9820   78.9910  222.8230 C   0  0  2  0  0  0  0  0  0  0  0  0
  140.7680   80.3590  222.1860 C   0  0  0  0  0  0  0  0  0  0  0  0
  142.1560   80.9980  222.1450 C   0  0  0  0  0  0  0  0  0  0  0  0
  143.0550   80.2130  222.9960 N   0  0  0  0  0  0  0  0  0  0  0  0
  142.1990   79.2710  223.7130 C   0  0  0  0  0  0  0  0  0  0  0  0
  140.7200   76.6410  222.1310 C   0  0  0  0  0  0  0  0  0  0  0  0
  141.7450   75.1810  220.3740 C   0  0  0  0  0  0  0  0  0  0  0  0
  143.0190   75.6950  220.1000 C   0  0  0  0  0  0  0  0  0  0  0  0
  144.0440   74.8030  219.7450 C   0  0  0  0  0  0  0  0  0  0  0  0
  143.7870   73.4220  219.6660 C   0  0  0  0  0  0  0  0  0  0  0  0
  142.5040   72.9250  219.9450 C   0  0  0  0  0  0  0  0  0  0  0  0
  141.5030   73.8330  220.3080 C   0  0  0  0  0  0  0  0  0  0  0  0
  139.4170   70.4030  222.6370 N   0  0  0  0  0  0  0  0  0  0  0  0
  139.7740   70.2470  223.9230 C   0  0  0  0  0  0  0  0  0  0  0  0
  139.6210   69.1050  224.7070 C   0  0  0  0  0  0  0  0  0  0  0  0
  140.6120   67.0210  228.7560 H   0  0  0  0  0  0  0  0  0  0  0  0
  141.5530   68.4830  228.3240 H   0  0  0  0  0  0  0  0  0  0  0  0
  141.1235   70.3414  227.5495 H   0  0  0  0  0  0  0  0  0  0  0  0
  141.3696   72.3571  226.0652 H   0  0  0  0  0  0  0  0  0  0  0  0
  140.8254   73.3150  223.4016 H   0  0  0  0  0  0  0  0  0  0  0  0
  138.6455   74.9192  220.1395 H   0  0  0  0  0  0  0  0  0  0  0  0
  138.9357   74.7529  221.8770 H   0  0  0  0  0  0  0  0  0  0  0  0
  140.5723   76.8608  218.8537 H   0  0  0  0  0  0  0  0  0  0  0  0
  139.0397   77.1078  219.6930 H   0  0  0  0  0  0  0  0  0  0  0  0
  141.4890   78.7165  219.8240 H   0  0  0  0  0  0  0  0  0  0  0  0
  139.9090   79.0578  220.5927 H   0  0  0  0  0  0  0  0  0  0  0  0
  140.1118   78.5948  223.3668 H   0  0  0  0  0  0  0  0  0  0  0  0
  140.3611   80.2528  221.1695 H   0  0  0  0  0  0  0  0  0  0  0  0
  140.0485   80.9698  222.7511 H   0  0  0  0  0  0  0  0  0  0  0  0
  142.5325   81.0014  221.1114 H   0  0  0  0  0  0  0  0  0  0  0  0
  142.1042   82.0352  222.5076 H   0  0  0  0  0  0  0  0  0  0  0  0
  143.6780   79.6490  222.3690 H   0  0  0  0  0  0  0  0  0  0  0  0
  142.7467   78.3368  223.9063 H   0  0  0  0  0  0  0  0  0  0  0  0
  141.8853   79.6893  224.6808 H   0  0  0  0  0  0  0  0  0  0  0  0
  141.4282   76.0807  222.7591 H   0  0  0  0  0  0  0  0  0  0  0  0
  139.7810   76.7356  222.6960 H   0  0  0  0  0  0  0  0  0  0  0  0
  143.2128   76.7760  220.1617 H   0  0  0  0  0  0  0  0  0  0  0  0
  145.0521   75.1857  219.5278 H   0  0  0  0  0  0  0  0  0  0  0  0
  144.5940   72.7294  219.3847 H   0  0  0  0  0  0  0  0  0  0  0  0
  142.2907   71.8478  219.8799 H   0  0  0  0  0  0  0  0  0  0  0  0
  138.9740   69.6850  222.0250 H   0  0  0  0  0  0  0  0  0  0  0  0
  139.1404   68.2024  224.3017 H   0  0  0  0  0  0  0  0  0  0  0  0
  1  2  1  0
  2  3  2  0
  2  4  1  0
  4  5  2  0
  5  6  1  0
  6  7  2  0
  7  8  1  0
  8  9  2  0
  9 10  1  0
 10 11  2  0
 10 12  1  0
 12 13  1  0
 14 13  1  1
 14 15  1  0
 15 16  1  0
 16 17  1  0
 17 18  1  0
 18 19  1  0
 19 20  1  0
 20 21  1  0
 21 22  1  0
 17 23  1  0
 14 24  1  0
 24 25  2  0
 25 26  1  0
 26 27  2  0
 27 28  1  0
 28 29  2  0
  9 30  1  0
 30 31  1  0
 31 32  2  0
 32  4  1  0
 31  7  1  0
 29 12  1  0
 23 14  1  0
 29 24  1  0
 22 18  1  0
  1 33  1  0
  1 34  1  0
  5 35  1  0
  6 36  1  0
  8 37  1  0
 13 38  1  0
 13 39  1  0
 15 40  1  0
 15 41  1  0
 16 42  1  0
 16 43  1  0
 18 44  1  1
 19 45  1  0
 19 46  1  0
 20 47  1  0
 20 48  1  0
 21 49  1  0
 22 50  1  0
 22 51  1  0
 23 52  1  0
 23 53  1  0
 25 54  1  0
 26 55  1  0
 27 56  1  0
 28 57  1  0
 30 58  1  0
 32 59  1  0
M  END
>  <UniqueID>  (75) 
42

>  <SMILES>  (75) 
NC(=O)c1ccc2cc(C(=O)N3C[C@]4(CCN([C@@H]5CCNC5)C4)c4ccccc43)[nH]c2c1

>  <Energy>  (75) 
127.55820343708275

>  <Genealogy>  (75) 
NC(=O)c1ccc2cc(C(=O)N3C[C@]4(CCN([C@@H]5CCNC5)C4)c4ccccc43)[nH]c2c1 (chirality)
NC(=O)c1ccc2cc(C(=O)N3C[C@]4(CCN([C@@H]5CCNC5)C4)c4ccccc43)[nH]c2c1 (3D coordinates assigned)
NC(=O)c1ccc2cc(C(=O)N3C[C@]4(CCN([C@@H]5CCNC5)C4)c4ccccc43)[nH]c2c1 (nonaromatic ring conformer: 127.55820343708275 kcal/mol)

>  <smiles>  (75) 
NC(=O)c1ccc2cc(C(=O)N3C[C@]4(CCN(C5CCNC5)C4)c4ccccc43)[nH]c2c1

>  <score_type>  (75) 
oracle

>  <origin>  (75) 
autodockgpu

>  <m_score__min__energy>  (75) 
-9.3100000000000005

>  <m_primary>  (75) 
energy

>  <meeko>  (75) 
{"free_energy": -9.3, "intermolecular_energy": -10.49, "internal_energy": -1.33, "cluster_size": 17, "cluster_id": 1, "rank_in_cluster": 3}

>  <energy>  (75) 
-9.08

>  <cluster_rmsd>  (75) 
0.43

>  <rmsd>  (75) 
271.15

>  <cluster>  (75) 
1

$$$$
ATTQMMYACVSETC-JXOBVBBANA-N
     RDKit          3D

 59 64  0  0  0  0  0  0  0  0999 V2000
  140.1540   68.1370  228.2600 N   0  0  0  0  0  0  0  0  0  0  0  0
  139.7290   68.1000  226.8920 C   0  0  0  0  0  0  0  0  0  0  0  0
  139.1390   67.0700  226.4650 O   0  0  0  0  0  0  0  0  0  0  0  0
  139.9760   69.2380  225.9770 C   0  0  0  0  0  0  0  0  0  0  0  0
  140.6300   70.4040  226.4630 C   0  0  0  0  0  0  0  0  0  0  0  0
  140.8900   71.4910  225.6090 C   0  0  0  0  0  0  0  0  0  0  0  0
  140.4910   71.3900  224.2820 C   0  0  0  0  0  0  0  0  0  0  0  0
  140.6450   72.2650  223.2280 C   0  0  0  0  0  0  0  0  0  0  0  0
  140.0840   71.6120  222.1330 C   0  0  0  0  0  0  0  0  0  0  0  0
  140.0680   72.1280  220.7500 C   0  0  0  0  0  0  0  0  0  0  0  0
  139.7880   71.3560  219.7940 O   0  0  0  0  0  0  0  0  0  0  0  0
  140.3120   73.5140  220.4830 N   0  0  0  0  0  0  0  0  0  0  0  0
  139.5000   74.5990  221.0330 C   0  0  0  0  0  0  0  0  0  0  0  0
  140.3470   75.9030  220.8430 C   0  0  1  0  0  0  0  0  0  0  0  0
  139.6080   77.0240  220.1190 C   0  0  0  0  0  0  0  0  0  0  0  0
  140.1300   78.3140  220.7460 C   0  0  0  0  0  0  0  0  0  0  0  0
  141.0370   77.9640  221.8610 N   0  0  0  0  0  0  0  0  0  0  0  0
  140.8530   78.8500  223.0410 C   0  0  2  0  0  0  0  0  0  0  0  0
  140.5420   80.2790  222.6110 C   0  0  0  0  0  0  0  0  0  0  0  0
  141.9050   80.9610  222.4910 C   0  0  0  0  0  0  0  0  0  0  0  0
  142.9110   80.1040  223.1270 N   0  0  0  0  0  0  0  0  0  0  0  0
  142.1610   79.0550  223.8130 C   0  0  0  0  0  0  0  0  0  0  0  0
  140.7660   76.5500  222.1610 C   0  0  0  0  0  0  0  0  0  0  0  0
  141.5470   75.4180  220.0690 C   0  0  0  0  0  0  0  0  0  0  0  0
  142.6380   76.1500  219.5840 C   0  0  0  0  0  0  0  0  0  0  0  0
  143.6670   75.4660  218.9150 C   0  0  0  0  0  0  0  0  0  0  0  0
  143.5940   74.0730  218.7380 C   0  0  0  0  0  0  0  0  0  0  0  0
  142.4930   73.3550  219.2320 C   0  0  0  0  0  0  0  0  0  0  0  0
  141.4870   74.0580  219.9050 C   0  0  0  0  0  0  0  0  0  0  0  0
  139.6240   70.3880  222.4860 N   0  0  0  0  0  0  0  0  0  0  0  0
  139.8710   70.2710  223.8010 C   0  0  0  0  0  0  0  0  0  0  0  0
  139.6010   69.1720  224.6140 C   0  0  0  0  0  0  0  0  0  0  0  0
  139.9030   67.3540  228.9050 H   0  0  0  0  0  0  0  0  0  0  0  0
  140.7790   68.8910  228.6230 H   0  0  0  0  0  0  0  0  0  0  0  0
  140.9358   70.4562  227.5183 H   0  0  0  0  0  0  0  0  0  0  0  0
  141.3946   72.3949  225.9810 H   0  0  0  0  0  0  0  0  0  0  0  0
  141.1097   73.2618  223.2474 H   0  0  0  0  0  0  0  0  0  0  0  0
  138.5472   74.6783  220.4891 H   0  0  0  0  0  0  0  0  0  0  0  0
  139.2549   74.4255  222.0912 H   0  0  0  0  0  0  0  0  0  0  0  0
  139.8304   77.0005  219.0420 H   0  0  0  0  0  0  0  0  0  0  0  0
  138.5166   76.9296  220.2184 H   0  0  0  0  0  0  0  0  0  0  0  0
  140.6783   78.8972  219.9915 H   0  0  0  0  0  0  0  0  0  0  0  0
  139.2894   78.9165  221.1206 H   0  0  0  0  0  0  0  0  0  0  0  0
  140.0602   78.3625  223.6274 H   0  0  0  0  0  0  0  0  0  0  0  0
  140.0193   80.2865  221.6432 H   0  0  0  0  0  0  0  0  0  0  0  0
  139.8844   80.7926  223.3278 H   0  0  0  0  0  0  0  0  0  0  0  0
  142.1565   81.1038  221.4297 H   0  0  0  0  0  0  0  0  0  0  0  0
  141.8799   81.9436  222.9849 H   0  0  0  0  0  0  0  0  0  0  0  0
  143.4640   79.6420  222.3660 H   0  0  0  0  0  0  0  0  0  0  0  0
  142.7426   78.1214  223.8226 H   0  0  0  0  0  0  0  0  0  0  0  0
  141.9570   79.3406  224.8555 H   0  0  0  0  0  0  0  0  0  0  0  0
  141.6716   76.0637  222.5526 H   0  0  0  0  0  0  0  0  0  0  0  0
  139.9799   76.4474  222.9235 H   0  0  0  0  0  0  0  0  0  0  0  0
  142.6884   77.2399  219.7242 H   0  0  0  0  0  0  0  0  0  0  0  0
  144.5333   76.0226  218.5281 H   0  0  0  0  0  0  0  0  0  0  0  0
  144.4018   73.5441  218.2110 H   0  0  0  0  0  0  0  0  0  0  0  0
  142.4228   72.2660  219.0934 H   0  0  0  0  0  0  0  0  0  0  0  0
  139.1940   69.6660  221.8690 H   0  0  0  0  0  0  0  0  0  0  0  0
  139.1091   68.2763  224.2069 H   0  0  0  0  0  0  0  0  0  0  0  0
  1  2  1  0
  2  3  2  0
  2  4  1  0
  4  5  2  0
  5  6  1  0
  6  7  2  0
  7  8  1  0
  8  9  2  0
  9 10  1  0
 10 11  2  0
 10 12  1  0
 12 13  1  0
 14 13  1  1
 14 15  1  0
 15 16  1  0
 16 17  1  0
 17 18  1  0
 18 19  1  0
 19 20  1  0
 20 21  1  0
 21 22  1  0
 17 23  1  0
 14 24  1  0
 24 25  2  0
 25 26  1  0
 26 27  2  0
 27 28  1  0
 28 29  2  0
  9 30  1  0
 30 31  1  0
 31 32  2  0
 32  4  1  0
 31  7  1  0
 29 12  1  0
 23 14  1  0
 29 24  1  0
 22 18  1  0
  1 33  1  0
  1 34  1  0
  5 35  1  0
  6 36  1  0
  8 37  1  0
 13 38  1  0
 13 39  1  0
 15 40  1  0
 15 41  1  0
 16 42  1  0
 16 43  1  0
 18 44  1  1
 19 45  1  0
 19 46  1  0
 20 47  1  0
 20 48  1  0
 21 49  1  0
 22 50  1  0
 22 51  1  0
 23 52  1  0
 23 53  1  0
 25 54  1  0
 26 55  1  0
 27 56  1  0
 28 57  1  0
 30 58  1  0
 32 59  1  0
M  END
>  <UniqueID>  (76) 
42

>  <SMILES>  (76) 
NC(=O)c1ccc2cc(C(=O)N3C[C@]4(CCN([C@@H]5CCNC5)C4)c4ccccc43)[nH]c2c1

>  <Energy>  (76) 
127.55820343708275

>  <Genealogy>  (76) 
NC(=O)c1ccc2cc(C(=O)N3C[C@]4(CCN([C@@H]5CCNC5)C4)c4ccccc43)[nH]c2c1 (chirality)
NC(=O)c1ccc2cc(C(=O)N3C[C@]4(CCN([C@@H]5CCNC5)C4)c4ccccc43)[nH]c2c1 (3D coordinates assigned)
NC(=O)c1ccc2cc(C(=O)N3C[C@]4(CCN([C@@H]5CCNC5)C4)c4ccccc43)[nH]c2c1 (nonaromatic ring conformer: 127.55820343708275 kcal/mol)

>  <smiles>  (76) 
NC(=O)c1ccc2cc(C(=O)N3C[C@]4(CCN(C5CCNC5)C4)c4ccccc43)[nH]c2c1

>  <score_type>  (76) 
oracle

>  <origin>  (76) 
autodockgpu

>  <m_score__min__energy>  (76) 
-9.3100000000000005

>  <m_primary>  (76) 
energy

>  <meeko>  (76) 
{"free_energy": -8.8, "intermolecular_energy": -9.99, "internal_energy": -1.29, "cluster_size": 17, "cluster_id": 1, "rank_in_cluster": 16}

>  <energy>  (76) 
-8.8

>  <cluster_rmsd>  (76) 
0.56

>  <rmsd>  (76) 
271.07

>  <cluster>  (76) 
1

$$$$
ATTQMMYACVSETC-JXOBVBBANA-N
     RDKit          3D

 59 64  0  0  0  0  0  0  0  0999 V2000
  140.7450   67.8360  228.1250 N   0  0  0  0  0  0  0  0  0  0  0  0
  139.9690   67.9500  226.9240 C   0  0  0  0  0  0  0  0  0  0  0  0
  139.1750   67.0180  226.6220 O   0  0  0  0  0  0  0  0  0  0  0  0
  140.0900   69.1310  226.0390 C   0  0  0  0  0  0  0  0  0  0  0  0
  140.7380   70.3050  226.5130 C   0  0  0  0  0  0  0  0  0  0  0  0
  140.8810   71.4320  225.6840 C   0  0  0  0  0  0  0  0  0  0  0  0
  140.3710   71.3630  224.3930 C   0  0  0  0  0  0  0  0  0  0  0  0
  140.3970   72.2820  223.3660 C   0  0  0  0  0  0  0  0  0  0  0  0
  139.7690   71.6460  222.2970 C   0  0  0  0  0  0  0  0  0  0  0  0
  139.6110   72.2110  220.9430 C   0  0  0  0  0  0  0  0  0  0  0  0
  138.9530   71.5820  220.0730 O   0  0  0  0  0  0  0  0  0  0  0  0
  140.1530   73.4980  220.6190 N   0  0  0  0  0  0  0  0  0  0  0  0
  139.4350   74.7540  220.8320 C   0  0  0  0  0  0  0  0  0  0  0  0
  140.5190   75.8820  220.7480 C   0  0  1  0  0  0  0  0  0  0  0  0
  140.1860   76.9900  219.7530 C   0  0  0  0  0  0  0  0  0  0  0  0
  140.7590   78.2640  220.3700 C   0  0  0  0  0  0  0  0  0  0  0  0
  141.2930   77.9400  221.7110 N   0  0  0  0  0  0  0  0  0  0  0  0
  140.9860   78.9960  222.7130 C   0  0  2  0  0  0  0  0  0  0  0  0
  140.8080   80.3530  222.0410 C   0  0  0  0  0  0  0  0  0  0  0  0
  142.2050   80.9730  222.0260 C   0  0  0  0  0  0  0  0  0  0  0  0
  143.0700   80.1930  222.9180 N   0  0  0  0  0  0  0  0  0  0  0  0
  142.1810   79.2780  223.6300 C   0  0  0  0  0  0  0  0  0  0  0  0
  140.7130   76.6350  222.0620 C   0  0  0  0  0  0  0  0  0  0  0  0
  141.7660   75.1260  220.3640 C   0  0  0  0  0  0  0  0  0  0  0  0
  143.0530   75.6190  220.1140 C   0  0  0  0  0  0  0  0  0  0  0  0
  144.0770   74.7070  219.8040 C   0  0  0  0  0  0  0  0  0  0  0  0
  143.8050   73.3290  219.7470 C   0  0  0  0  0  0  0  0  0  0  0  0
  142.5090   72.8530  220.0030 C   0  0  0  0  0  0  0  0  0  0  0  0
  141.5100   73.7800  220.3200 C   0  0  0  0  0  0  0  0  0  0  0  0
  139.3890   70.3920  222.6390 N   0  0  0  0  0  0  0  0  0  0  0  0
  139.7550   70.2370  223.9230 C   0  0  0  0  0  0  0  0  0  0  0  0
  139.6010   69.0980  224.7110 C   0  0  0  0  0  0  0  0  0  0  0  0
  140.5880   67.0290  228.7710 H   0  0  0  0  0  0  0  0  0  0  0  0
  141.5250   68.4950  228.3420 H   0  0  0  0  0  0  0  0  0  0  0  0
  141.1318   70.3318  227.5397 H   0  0  0  0  0  0  0  0  0  0  0  0
  141.3819   72.3416  226.0468 H   0  0  0  0  0  0  0  0  0  0  0  0
  140.8212   73.2967  223.3860 H   0  0  0  0  0  0  0  0  0  0  0  0
  138.6721   74.8965  220.0525 H   0  0  0  0  0  0  0  0  0  0  0  0
  138.9131   74.7640  221.8003 H   0  0  0  0  0  0  0  0  0  0  0  0
  140.6550   76.7879  218.7787 H   0  0  0  0  0  0  0  0  0  0  0  0
  139.1039   77.0701  219.5722 H   0  0  0  0  0  0  0  0  0  0  0  0
  141.5673   78.6530  219.7333 H   0  0  0  0  0  0  0  0  0  0  0  0
  139.9721   79.0281  220.4534 H   0  0  0  0  0  0  0  0  0  0  0  0
  140.0960   78.6231  223.2411 H   0  0  0  0  0  0  0  0  0  0  0  0
  140.4285   80.2300  221.0159 H   0  0  0  0  0  0  0  0  0  0  0  0
  140.0810   80.9850  222.5721 H   0  0  0  0  0  0  0  0  0  0  0  0
  142.6099   80.9506  221.0035 H   0  0  0  0  0  0  0  0  0  0  0  0
  142.1573   82.0180  222.3662 H   0  0  0  0  0  0  0  0  0  0  0  0
  143.7020   79.6090  222.3210 H   0  0  0  0  0  0  0  0  0  0  0  0
  142.7098   78.3407  223.8578 H   0  0  0  0  0  0  0  0  0  0  0  0
  141.8465   79.7209  224.5797 H   0  0  0  0  0  0  0  0  0  0  0  0
  141.3965   76.0798  222.7213 H   0  0  0  0  0  0  0  0  0  0  0  0
  139.7599   76.7535  222.5982 H   0  0  0  0  0  0  0  0  0  0  0  0
  143.2585   76.6987  220.1593 H   0  0  0  0  0  0  0  0  0  0  0  0
  145.0951   75.0731  219.6053 H   0  0  0  0  0  0  0  0  0  0  0  0
  144.6102   72.6211  219.5010 H   0  0  0  0  0  0  0  0  0  0  0  0
  142.2845   71.7772  219.9555 H   0  0  0  0  0  0  0  0  0  0  0  0
  138.9360   69.6750  222.0330 H   0  0  0  0  0  0  0  0  0  0  0  0
  139.1123   68.1971  224.3116 H   0  0  0  0  0  0  0  0  0  0  0  0
  1  2  1  0
  2  3  2  0
  2  4  1  0
  4  5  2  0
  5  6  1  0
  6  7  2  0
  7  8  1  0
  8  9  2  0
  9 10  1  0
 10 11  2  0
 10 12  1  0
 12 13  1  0
 14 13  1  1
 14 15  1  0
 15 16  1  0
 16 17  1  0
 17 18  1  0
 18 19  1  0
 19 20  1  0
 20 21  1  0
 21 22  1  0
 17 23  1  0
 14 24  1  0
 24 25  2  0
 25 26  1  0
 26 27  2  0
 27 28  1  0
 28 29  2  0
  9 30  1  0
 30 31  1  0
 31 32  2  0
 32  4  1  0
 31  7  1  0
 29 12  1  0
 23 14  1  0
 29 24  1  0
 22 18  1  0
  1 33  1  0
  1 34  1  0
  5 35  1  0
  6 36  1  0
  8 37  1  0
 13 38  1  0
 13 39  1  0
 15 40  1  0
 15 41  1  0
 16 42  1  0
 16 43  1  0
 18 44  1  1
 19 45  1  0
 19 46  1  0
 20 47  1  0
 20 48  1  0
 21 49  1  0
 22 50  1  0
 22 51  1  0
 23 52  1  0
 23 53  1  0
 25 54  1  0
 26 55  1  0
 27 56  1  0
 28 57  1  0
 30 58  1  0
 32 59  1  0
M  END
>  <UniqueID>  (77) 
42

>  <SMILES>  (77) 
NC(=O)c1ccc2cc(C(=O)N3C[C@]4(CCN([C@@H]5CCNC5)C4)c4ccccc43)[nH]c2c1

>  <Energy>  (77) 
127.55820343708275

>  <Genealogy>  (77) 
NC(=O)c1ccc2cc(C(=O)N3C[C@]4(CCN([C@@H]5CCNC5)C4)c4ccccc43)[nH]c2c1 (chirality)
NC(=O)c1ccc2cc(C(=O)N3C[C@]4(CCN([C@@H]5CCNC5)C4)c4ccccc43)[nH]c2c1 (3D coordinates assigned)
NC(=O)c1ccc2cc(C(=O)N3C[C@]4(CCN([C@@H]5CCNC5)C4)c4ccccc43)[nH]c2c1 (nonaromatic ring conformer: 127.55820343708275 kcal/mol)

>  <smiles>  (77) 
NC(=O)c1ccc2cc(C(=O)N3C[C@]4(CCN(C5CCNC5)C4)c4ccccc43)[nH]c2c1

>  <score_type>  (77) 
oracle

>  <origin>  (77) 
autodockgpu

>  <m_score__min__energy>  (77) 
-9.3100000000000005

>  <m_primary>  (77) 
energy

>  <meeko>  (77) 
{"free_energy": -9.31, "intermolecular_energy": -10.51, "internal_energy": -1.33, "cluster_size": 17, "cluster_id": 1, "rank_in_cluster": 1}

>  <energy>  (77) 
-8.58

>  <cluster_rmsd>  (77) 
1.82

>  <rmsd>  (77) 
271.44

>  <cluster>  (77) 
1

$$$$
ATTQMMYACVSETC-JXOBVBBANA-N
     RDKit          3D

 59 64  0  0  0  0  0  0  0  0999 V2000
  139.8240   71.9960  228.8110 N   0  0  0  0  0  0  0  0  0  0  0  0
  140.5130   70.9750  228.0780 C   0  0  0  0  0  0  0  0  0  0  0  0
  141.4030   70.3000  228.6640 O   0  0  0  0  0  0  0  0  0  0  0  0
  140.2050   70.7090  226.6540 C   0  0  0  0  0  0  0  0  0  0  0  0
  139.4200   69.5770  226.3010 C   0  0  0  0  0  0  0  0  0  0  0  0
  139.1000   69.3140  224.9570 C   0  0  0  0  0  0  0  0  0  0  0  0
  139.5740   70.1910  223.9890 C   0  0  0  0  0  0  0  0  0  0  0  0
  139.3900   70.2050  222.6220 C   0  0  0  0  0  0  0  0  0  0  0  0
  140.0650   71.3410  222.1800 C   0  0  0  0  0  0  0  0  0  0  0  0
  140.1010   71.8210  220.7860 C   0  0  0  0  0  0  0  0  0  0  0  0
  139.6530   71.0950  219.8590 O   0  0  0  0  0  0  0  0  0  0  0  0
  140.5920   73.1320  220.4750 N   0  0  0  0  0  0  0  0  0  0  0  0
  139.7980   74.3490  220.6320 C   0  0  0  0  0  0  0  0  0  0  0  0
  140.8230   75.5340  220.5930 C   0  0  1  0  0  0  0  0  0  0  0  0
  140.4880   76.6110  219.5670 C   0  0  0  0  0  0  0  0  0  0  0  0
  140.9580   77.9200  220.1990 C   0  0  0  0  0  0  0  0  0  0  0  0
  141.4330   77.6390  221.5710 N   0  0  0  0  0  0  0  0  0  0  0  0
  141.0160   78.6870  222.5410 C   0  0  2  0  0  0  0  0  0  0  0  0
  140.8030   80.0260  221.8430 C   0  0  0  0  0  0  0  0  0  0  0  0
  142.1640   80.7200  221.8960 C   0  0  0  0  0  0  0  0  0  0  0  0
  143.0180   79.9970  222.8440 N   0  0  0  0  0  0  0  0  0  0  0  0
  142.1420   79.0430  223.5180 C   0  0  0  0  0  0  0  0  0  0  0  0
  140.9040   76.3080  221.9070 C   0  0  0  0  0  0  0  0  0  0  0  0
  142.1280   74.8410  220.2890 C   0  0  0  0  0  0  0  0  0  0  0  0
  143.3990   75.3990  220.1030 C   0  0  0  0  0  0  0  0  0  0  0  0
  144.4850   74.5410  219.8630 C   0  0  0  0  0  0  0  0  0  0  0  0
  144.2900   73.1490  219.8080 C   0  0  0  0  0  0  0  0  0  0  0  0
  143.0090   72.6070  219.9980 C   0  0  0  0  0  0  0  0  0  0  0  0
  141.9460   73.4830  220.2480 C   0  0  0  0  0  0  0  0  0  0  0  0
  140.6210   72.0060  223.2210 N   0  0  0  0  0  0  0  0  0  0  0  0
  140.3200   71.2870  224.3160 C   0  0  0  0  0  0  0  0  0  0  0  0
  140.6530   71.5850  225.6360 C   0  0  0  0  0  0  0  0  0  0  0  0
  140.0060   72.1150  229.8330 H   0  0  0  0  0  0  0  0  0  0  0  0
  139.1950   72.6840  228.3400 H   0  0  0  0  0  0  0  0  0  0  0  0
  139.0588   68.8991  227.0884 H   0  0  0  0  0  0  0  0  0  0  0  0
  138.4924   68.4398  224.6802 H   0  0  0  0  0  0  0  0  0  0  0  0
  138.8321   69.4780  222.0136 H   0  0  0  0  0  0  0  0  0  0  0  0
  139.0729   74.4422  219.8101 H   0  0  0  0  0  0  0  0  0  0  0  0
  139.2240   74.3403  221.5703 H   0  0  0  0  0  0  0  0  0  0  0  0
  141.0208   76.4245  218.6229 H   0  0  0  0  0  0  0  0  0  0  0  0
  139.4152   76.6312  219.3249 H   0  0  0  0  0  0  0  0  0  0  0  0
  141.7787   78.3454  219.6028 H   0  0  0  0  0  0  0  0  0  0  0  0
  140.1280   78.6412  220.2296 H   0  0  0  0  0  0  0  0  0  0  0  0
  140.1197   78.2714  223.0247 H   0  0  0  0  0  0  0  0  0  0  0  0
  140.4874   79.8728  220.8005 H   0  0  0  0  0  0  0  0  0  0  0  0
  140.0153   80.6232  222.3257 H   0  0  0  0  0  0  0  0  0  0  0  0
  142.6255   80.7087  220.8975 H   0  0  0  0  0  0  0  0  0  0  0  0
  142.0423   81.7645  222.2189 H   0  0  0  0  0  0  0  0  0  0  0  0
  143.7130   79.4410  222.2890 H   0  0  0  0  0  0  0  0  0  0  0  0
  142.7070   78.1382  223.7867 H   0  0  0  0  0  0  0  0  0  0  0  0
  141.7323   79.4769  224.4421 H   0  0  0  0  0  0  0  0  0  0  0  0
  141.5785   75.7964  222.6093 H   0  0  0  0  0  0  0  0  0  0  0  0
  139.9182   76.3800  222.3897 H   0  0  0  0  0  0  0  0  0  0  0  0
  143.5441   76.4886  220.1441 H   0  0  0  0  0  0  0  0  0  0  0  0
  145.4919   74.9593  219.7175 H   0  0  0  0  0  0  0  0  0  0  0  0
  145.1440   72.4830  219.6155 H   0  0  0  0  0  0  0  0  0  0  0  0
  142.8445   71.5204  219.9516 H   0  0  0  0  0  0  0  0  0  0  0  0
  141.1470   72.9050  223.1950 H   0  0  0  0  0  0  0  0  0  0  0  0
  141.2482   72.4772  225.8805 H   0  0  0  0  0  0  0  0  0  0  0  0
  1  2  1  0
  2  3  2  0
  2  4  1  0
  4  5  2  0
  5  6  1  0
  6  7  2  0
  7  8  1  0
  8  9  2  0
  9 10  1  0
 10 11  2  0
 10 12  1  0
 12 13  1  0
 14 13  1  1
 14 15  1  0
 15 16  1  0
 16 17  1  0
 17 18  1  0
 18 19  1  0
 19 20  1  0
 20 21  1  0
 21 22  1  0
 17 23  1  0
 14 24  1  0
 24 25  2  0
 25 26  1  0
 26 27  2  0
 27 28  1  0
 28 29  2  0
  9 30  1  0
 30 31  1  0
 31 32  2  0
 32  4  1  0
 31  7  1  0
 29 12  1  0
 23 14  1  0
 29 24  1  0
 22 18  1  0
  1 33  1  0
  1 34  1  0
  5 35  1  0
  6 36  1  0
  8 37  1  0
 13 38  1  0
 13 39  1  0
 15 40  1  0
 15 41  1  0
 16 42  1  0
 16 43  1  0
 18 44  1  1
 19 45  1  0
 19 46  1  0
 20 47  1  0
 20 48  1  0
 21 49  1  0
 22 50  1  0
 22 51  1  0
 23 52  1  0
 23 53  1  0
 25 54  1  0
 26 55  1  0
 27 56  1  0
 28 57  1  0
 30 58  1  0
 32 59  1  0
M  END
>  <UniqueID>  (78) 
42

>  <SMILES>  (78) 
NC(=O)c1ccc2cc(C(=O)N3C[C@]4(CCN([C@@H]5CCNC5)C4)c4ccccc43)[nH]c2c1

>  <Energy>  (78) 
127.55820343708275

>  <Genealogy>  (78) 
NC(=O)c1ccc2cc(C(=O)N3C[C@]4(CCN([C@@H]5CCNC5)C4)c4ccccc43)[nH]c2c1 (chirality)
NC(=O)c1ccc2cc(C(=O)N3C[C@]4(CCN([C@@H]5CCNC5)C4)c4ccccc43)[nH]c2c1 (3D coordinates assigned)
NC(=O)c1ccc2cc(C(=O)N3C[C@]4(CCN([C@@H]5CCNC5)C4)c4ccccc43)[nH]c2c1 (nonaromatic ring conformer: 127.55820343708275 kcal/mol)

>  <smiles>  (78) 
NC(=O)c1ccc2cc(C(=O)N3C[C@]4(CCN(C5CCNC5)C4)c4ccccc43)[nH]c2c1

>  <score_type>  (78) 
oracle

>  <origin>  (78) 
autodockgpu

>  <m_score__min__energy>  (78) 
-9.3100000000000005

>  <m_primary>  (78) 
energy

>  <meeko>  (78) 
{"free_energy": -8.58, "intermolecular_energy": -9.77, "internal_energy": -1.18, "cluster_size": 17, "cluster_id": 1, "rank_in_cluster": 17}

>  <energy>  (78) 
-8.74

>  <cluster_rmsd>  (78) 
0.0

>  <rmsd>  (78) 
271.63

>  <cluster>  (78) 
2

$$$$
ATTQMMYACVSETC-JXOBVBBANA-N
     RDKit          3D

 59 64  0  0  0  0  0  0  0  0999 V2000
  140.8030   67.8210  228.1630 N   0  0  0  0  0  0  0  0  0  0  0  0
  140.0280   67.9410  226.9630 C   0  0  0  0  0  0  0  0  0  0  0  0
  139.2280   67.0140  226.6590 O   0  0  0  0  0  0  0  0  0  0  0  0
  140.1560   69.1220  226.0780 C   0  0  0  0  0  0  0  0  0  0  0  0
  140.9110   70.2480  226.5100 C   0  0  0  0  0  0  0  0  0  0  0  0
  141.0610   71.3730  225.6800 C   0  0  0  0  0  0  0  0  0  0  0  0
  140.4530   71.3500  224.4300 C   0  0  0  0  0  0  0  0  0  0  0  0
  140.4600   72.2770  223.4100 C   0  0  0  0  0  0  0  0  0  0  0  0
  139.7150   71.6940  222.3880 C   0  0  0  0  0  0  0  0  0  0  0  0
  139.4920   72.2820  221.0530 C   0  0  0  0  0  0  0  0  0  0  0  0
  138.7630   71.6860  220.2170 O   0  0  0  0  0  0  0  0  0  0  0  0
  140.0530   73.5570  220.7120 N   0  0  0  0  0  0  0  0  0  0  0  0
  139.3590   74.8270  220.9240 C   0  0  0  0  0  0  0  0  0  0  0  0
  140.4610   75.9360  220.8180 C   0  0  1  0  0  0  0  0  0  0  0  0
  140.1350   77.0410  219.8180 C   0  0  0  0  0  0  0  0  0  0  0  0
  140.7390   78.3090  220.4180 C   0  0  0  0  0  0  0  0  0  0  0  0
  141.2830   77.9870  221.7550 N   0  0  0  0  0  0  0  0  0  0  0  0
  141.0070   79.0550  222.7520 C   0  0  2  0  0  0  0  0  0  0  0  0
  140.8090   80.4040  222.0690 C   0  0  0  0  0  0  0  0  0  0  0  0
  142.2060   81.0220  222.0040 C   0  0  0  0  0  0  0  0  0  0  0  0
  143.0960   80.2540  222.8800 N   0  0  0  0  0  0  0  0  0  0  0  0
  142.2290   79.3490  223.6300 C   0  0  0  0  0  0  0  0  0  0  0  0
  140.6850   76.6940  222.1240 C   0  0  0  0  0  0  0  0  0  0  0  0
  141.6900   75.1550  220.4250 C   0  0  0  0  0  0  0  0  0  0  0  0
  142.9830   75.6230  220.1550 C   0  0  0  0  0  0  0  0  0  0  0  0
  143.9860   74.6910  219.8410 C   0  0  0  0  0  0  0  0  0  0  0  0
  143.6900   73.3170  219.7980 C   0  0  0  0  0  0  0  0  0  0  0  0
  142.3890   72.8660  220.0730 C   0  0  0  0  0  0  0  0  0  0  0  0
  141.4100   73.8130  220.3950 C   0  0  0  0  0  0  0  0  0  0  0  0
  139.2840   70.4620  222.7500 N   0  0  0  0  0  0  0  0  0  0  0  0
  139.7340   70.2700  224.0010 C   0  0  0  0  0  0  0  0  0  0  0  0
  139.5680   69.1350  224.7910 C   0  0  0  0  0  0  0  0  0  0  0  0
  140.6410   67.0150  228.8090 H   0  0  0  0  0  0  0  0  0  0  0  0
  141.5860   68.4760  228.3810 H   0  0  0  0  0  0  0  0  0  0  0  0
  141.3823   70.2383  227.5039 H   0  0  0  0  0  0  0  0  0  0  0  0
  141.6427   72.2462  226.0102 H   0  0  0  0  0  0  0  0  0  0  0  0
  140.9479   73.2629  223.4044 H   0  0  0  0  0  0  0  0  0  0  0  0
  138.5890   74.9766  220.1528 H   0  0  0  0  0  0  0  0  0  0  0  0
  138.8494   74.8532  221.8985 H   0  0  0  0  0  0  0  0  0  0  0  0
  140.5878   76.8227  218.8396 H   0  0  0  0  0  0  0  0  0  0  0  0
  139.0524   77.1391  219.6495 H   0  0  0  0  0  0  0  0  0  0  0  0
  141.5466   78.6777  219.7685 H   0  0  0  0  0  0  0  0  0  0  0  0
  139.9670   79.0878  220.5046 H   0  0  0  0  0  0  0  0  0  0  0  0
  140.1335   78.6882  223.3110 H   0  0  0  0  0  0  0  0  0  0  0  0
  140.3983   80.2689  221.0575 H   0  0  0  0  0  0  0  0  0  0  0  0
  140.0988   81.0433  222.6139 H   0  0  0  0  0  0  0  0  0  0  0  0
  142.5803   80.9849  220.9703 H   0  0  0  0  0  0  0  0  0  0  0  0
  142.1692   82.0716  222.3310 H   0  0  0  0  0  0  0  0  0  0  0  0
  143.7100   79.6610  222.2710 H   0  0  0  0  0  0  0  0  0  0  0  0
  142.7645   78.4148  223.8546 H   0  0  0  0  0  0  0  0  0  0  0  0
  141.9227   79.8045  224.5833 H   0  0  0  0  0  0  0  0  0  0  0  0
  141.3675   76.1318  222.7782 H   0  0  0  0  0  0  0  0  0  0  0  0
  139.7415   76.8323  222.6723 H   0  0  0  0  0  0  0  0  0  0  0  0
  143.2081   76.6992  220.1883 H   0  0  0  0  0  0  0  0  0  0  0  0
  145.0079   75.0377  219.6277 H   0  0  0  0  0  0  0  0  0  0  0  0
  144.4799   72.5934  219.5482 H   0  0  0  0  0  0  0  0  0  0  0  0
  142.1451   71.7940  220.0362 H   0  0  0  0  0  0  0  0  0  0  0  0
  138.7420   69.7820  222.1750 H   0  0  0  0  0  0  0  0  0  0  0  0
  138.9946   68.2710  224.4239 H   0  0  0  0  0  0  0  0  0  0  0  0
  1  2  1  0
  2  3  2  0
  2  4  1  0
  4  5  2  0
  5  6  1  0
  6  7  2  0
  7  8  1  0
  8  9  2  0
  9 10  1  0
 10 11  2  0
 10 12  1  0
 12 13  1  0
 14 13  1  1
 14 15  1  0
 15 16  1  0
 16 17  1  0
 17 18  1  0
 18 19  1  0
 19 20  1  0
 20 21  1  0
 21 22  1  0
 17 23  1  0
 14 24  1  0
 24 25  2  0
 25 26  1  0
 26 27  2  0
 27 28  1  0
 28 29  2  0
  9 30  1  0
 30 31  1  0
 31 32  2  0
 32  4  1  0
 31  7  1  0
 29 12  1  0
 23 14  1  0
 29 24  1  0
 22 18  1  0
  1 33  1  0
  1 34  1  0
  5 35  1  0
  6 36  1  0
  8 37  1  0
 13 38  1  0
 13 39  1  0
 15 40  1  0
 15 41  1  0
 16 42  1  0
 16 43  1  0
 18 44  1  1
 19 45  1  0
 19 46  1  0
 20 47  1  0
 20 48  1  0
 21 49  1  0
 22 50  1  0
 22 51  1  0
 23 52  1  0
 23 53  1  0
 25 54  1  0
 26 55  1  0
 27 56  1  0
 28 57  1  0
 30 58  1  0
 32 59  1  0
M  END
>  <UniqueID>  (79) 
42

>  <SMILES>  (79) 
NC(=O)c1ccc2cc(C(=O)N3C[C@]4(CCN([C@@H]5CCNC5)C4)c4ccccc43)[nH]c2c1

>  <Energy>  (79) 
127.55820343708275

>  <Genealogy>  (79) 
NC(=O)c1ccc2cc(C(=O)N3C[C@]4(CCN([C@@H]5CCNC5)C4)c4ccccc43)[nH]c2c1 (chirality)
NC(=O)c1ccc2cc(C(=O)N3C[C@]4(CCN([C@@H]5CCNC5)C4)c4ccccc43)[nH]c2c1 (3D coordinates assigned)
NC(=O)c1ccc2cc(C(=O)N3C[C@]4(CCN([C@@H]5CCNC5)C4)c4ccccc43)[nH]c2c1 (nonaromatic ring conformer: 127.55820343708275 kcal/mol)

>  <smiles>  (79) 
NC(=O)c1ccc2cc(C(=O)N3C[C@]4(CCN(C5CCNC5)C4)c4ccccc43)[nH]c2c1

>  <score_type>  (79) 
oracle

>  <origin>  (79) 
autodockgpu

>  <m_score__min__energy>  (79) 
-9.3100000000000005

>  <m_primary>  (79) 
energy

>  <meeko>  (79) 
{"free_energy": -9.28, "intermolecular_energy": -10.47, "internal_energy": -1.34, "cluster_size": 17, "cluster_id": 1, "rank_in_cluster": 9}

>  <energy>  (79) 
-8.66

>  <cluster_rmsd>  (79) 
0.96

>  <rmsd>  (79) 
271.78

>  <cluster>  (79) 
2

$$$$
ATTQMMYACVSETC-JXOBVBBANA-N
     RDKit          3D

 59 64  0  0  0  0  0  0  0  0999 V2000
  140.6880   67.8490  228.1060 N   0  0  0  0  0  0  0  0  0  0  0  0
  139.9880   67.9540  226.8600 C   0  0  0  0  0  0  0  0  0  0  0  0
  139.2120   67.0210  226.5170 O   0  0  0  0  0  0  0  0  0  0  0  0
  140.1660   69.1270  225.9730 C   0  0  0  0  0  0  0  0  0  0  0  0
  140.9920   70.2070  226.3890 C   0  0  0  0  0  0  0  0  0  0  0  0
  141.1900   71.3230  225.5570 C   0  0  0  0  0  0  0  0  0  0  0  0
  140.5560   71.3380  224.3210 C   0  0  0  0  0  0  0  0  0  0  0  0
  140.5960   72.2640  223.3010 C   0  0  0  0  0  0  0  0  0  0  0  0
  139.7980   71.7260  222.2940 C   0  0  0  0  0  0  0  0  0  0  0  0
  139.5830   72.3290  220.9640 C   0  0  0  0  0  0  0  0  0  0  0  0
  138.8890   71.7230  220.1040 O   0  0  0  0  0  0  0  0  0  0  0  0
  140.1080   73.6260  220.6540 N   0  0  0  0  0  0  0  0  0  0  0  0
  139.3950   74.8730  220.9280 C   0  0  0  0  0  0  0  0  0  0  0  0
  140.4720   76.0070  220.8320 C   0  0  1  0  0  0  0  0  0  0  0  0
  140.0980   77.1390  219.8810 C   0  0  0  0  0  0  0  0  0  0  0  0
  140.6910   78.3990  220.5100 C   0  0  0  0  0  0  0  0  0  0  0  0
  141.2760   78.0410  221.8200 N   0  0  0  0  0  0  0  0  0  0  0  0
  141.0060   79.0690  222.8610 C   0  0  2  0  0  0  0  0  0  0  0  0
  140.7870   80.4410  222.2330 C   0  0  0  0  0  0  0  0  0  0  0  0
  142.1770   81.0740  222.1720 C   0  0  0  0  0  0  0  0  0  0  0  0
  143.0870   80.2800  223.0050 N   0  0  0  0  0  0  0  0  0  0  0  0
  142.2380   79.3400  223.7320 C   0  0  0  0  0  0  0  0  0  0  0  0
  140.7150   76.7250  222.1580 C   0  0  0  0  0  0  0  0  0  0  0  0
  141.7050   75.2660  220.3810 C   0  0  0  0  0  0  0  0  0  0  0  0
  142.9810   75.7700  220.0950 C   0  0  0  0  0  0  0  0  0  0  0  0
  143.9940   74.8710  219.7220 C   0  0  0  0  0  0  0  0  0  0  0  0
  143.7240   73.4940  219.6390 C   0  0  0  0  0  0  0  0  0  0  0  0
  142.4400   73.0060  219.9310 C   0  0  0  0  0  0  0  0  0  0  0  0
  141.4510   73.9210  220.3110 C   0  0  0  0  0  0  0  0  0  0  0  0
  139.3040   70.5200  222.6630 N   0  0  0  0  0  0  0  0  0  0  0  0
  139.7680   70.3010  223.9050 C   0  0  0  0  0  0  0  0  0  0  0  0
  139.5530   69.1760  224.6980 C   0  0  0  0  0  0  0  0  0  0  0  0
  140.4900   67.0490  228.7480 H   0  0  0  0  0  0  0  0  0  0  0  0
  141.4550   68.5090  228.3650 H   0  0  0  0  0  0  0  0  0  0  0  0
  141.4818   70.1690  227.3732 H   0  0  0  0  0  0  0  0  0  0  0  0
  141.8285   72.1601  225.8756 H   0  0  0  0  0  0  0  0  0  0  0  0
  141.1398   73.2200  223.2855 H   0  0  0  0  0  0  0  0  0  0  0  0
  138.6020   75.0331  220.1827 H   0  0  0  0  0  0  0  0  0  0  0  0
  138.9109   74.8554  221.9156 H   0  0  0  0  0  0  0  0  0  0  0  0
  140.5299   76.9648  218.8844 H   0  0  0  0  0  0  0  0  0  0  0  0
  139.0096   77.2197  219.7438 H   0  0  0  0  0  0  0  0  0  0  0  0
  141.4735   78.8078  219.8538 H   0  0  0  0  0  0  0  0  0  0  0  0
  139.9060   79.1579  220.6434 H   0  0  0  0  0  0  0  0  0  0  0  0
  140.1436   78.6738  223.4179 H   0  0  0  0  0  0  0  0  0  0  0  0
  140.3631   80.3408  221.2229 H   0  0  0  0  0  0  0  0  0  0  0  0
  140.0794   81.0525  222.8121 H   0  0  0  0  0  0  0  0  0  0  0  0
  142.5363   81.0808  221.1324 H   0  0  0  0  0  0  0  0  0  0  0  0
  142.1360   82.1097  222.5402 H   0  0  0  0  0  0  0  0  0  0  0  0
  143.6970   79.7170  222.3660 H   0  0  0  0  0  0  0  0  0  0  0  0
  142.7841   78.4025  223.9134 H   0  0  0  0  0  0  0  0  0  0  0  0
  141.9417   79.7566  224.7060 H   0  0  0  0  0  0  0  0  0  0  0  0
  141.4258   76.1553  222.7746 H   0  0  0  0  0  0  0  0  0  0  0  0
  139.7834   76.8245  222.7345 H   0  0  0  0  0  0  0  0  0  0  0  0
  143.1854   76.8488  220.1613 H   0  0  0  0  0  0  0  0  0  0  0  0
  145.0026   75.2462  219.4940 H   0  0  0  0  0  0  0  0  0  0  0  0
  144.5215   72.7961  219.3442 H   0  0  0  0  0  0  0  0  0  0  0  0
  142.2168   71.9310  219.8628 H   0  0  0  0  0  0  0  0  0  0  0  0
  138.7140   69.8730  222.0990 H   0  0  0  0  0  0  0  0  0  0  0  0
  138.9231   68.3472  224.3426 H   0  0  0  0  0  0  0  0  0  0  0  0
  1  2  1  0
  2  3  2  0
  2  4  1  0
  4  5  2  0
  5  6  1  0
  6  7  2  0
  7  8  1  0
  8  9  2  0
  9 10  1  0
 10 11  2  0
 10 12  1  0
 12 13  1  0
 14 13  1  1
 14 15  1  0
 15 16  1  0
 16 17  1  0
 17 18  1  0
 18 19  1  0
 19 20  1  0
 20 21  1  0
 21 22  1  0
 17 23  1  0
 14 24  1  0
 24 25  2  0
 25 26  1  0
 26 27  2  0
 27 28  1  0
 28 29  2  0
  9 30  1  0
 30 31  1  0
 31 32  2  0
 32  4  1  0
 31  7  1  0
 29 12  1  0
 23 14  1  0
 29 24  1  0
 22 18  1  0
  1 33  1  0
  1 34  1  0
  5 35  1  0
  6 36  1  0
  8 37  1  0
 13 38  1  0
 13 39  1  0
 15 40  1  0
 15 41  1  0
 16 42  1  0
 16 43  1  0
 18 44  1  1
 19 45  1  0
 19 46  1  0
 20 47  1  0
 20 48  1  0
 21 49  1  0
 22 50  1  0
 22 51  1  0
 23 52  1  0
 23 53  1  0
 25 54  1  0
 26 55  1  0
 27 56  1  0
 28 57  1  0
 30 58  1  0
 32 59  1  0
M  END
>  <UniqueID>  (80) 
42

>  <SMILES>  (80) 
NC(=O)c1ccc2cc(C(=O)N3C[C@]4(CCN([C@@H]5CCNC5)C4)c4ccccc43)[nH]c2c1

>  <Energy>  (80) 
127.55820343708275

>  <Genealogy>  (80) 
NC(=O)c1ccc2cc(C(=O)N3C[C@]4(CCN([C@@H]5CCNC5)C4)c4ccccc43)[nH]c2c1 (chirality)
NC(=O)c1ccc2cc(C(=O)N3C[C@]4(CCN([C@@H]5CCNC5)C4)c4ccccc43)[nH]c2c1 (3D coordinates assigned)
NC(=O)c1ccc2cc(C(=O)N3C[C@]4(CCN([C@@H]5CCNC5)C4)c4ccccc43)[nH]c2c1 (nonaromatic ring conformer: 127.55820343708275 kcal/mol)

>  <smiles>  (80) 
NC(=O)c1ccc2cc(C(=O)N3C[C@]4(CCN(C5CCNC5)C4)c4ccccc43)[nH]c2c1

>  <score_type>  (80) 
oracle

>  <origin>  (80) 
autodockgpu

>  <m_score__min__energy>  (80) 
-9.3100000000000005

>  <m_primary>  (80) 
energy

>  <meeko>  (80) 
{"free_energy": -9.28, "intermolecular_energy": -10.47, "internal_energy": -1.33, "cluster_size": 17, "cluster_id": 1, "rank_in_cluster": 8}

>  <energy>  (80) 
-8.65

>  <cluster_rmsd>  (80) 
0.98

>  <rmsd>  (80) 
271.82

>  <cluster>  (80) 
2

$$$$
