MCZRVQBLWAUNOI-UKKWOIQDNA-P
     RDKit          3D

 63 66  0  0  0  0  0  0  0  0999 V2000
  146.4830   74.1200  218.3350 H   0  0  0  0  0  0  0  0  0  0  0  0
  146.1950   73.2000  218.6460 O   0  0  0  0  0  0  0  0  0  0  0  0
  145.1440   72.9550  219.5410 C   0  0  0  0  0  0  0  0  0  0  0  0
  144.2150   72.0480  219.2660 N   0  0  0  0  0  0  0  0  0  0  0  0
  144.6110   70.6740  219.0980 C   0  0  0  0  0  0  0  0  0  0  0  0
  143.6580   69.7050  218.7510 C   0  0  0  0  0  0  0  0  0  0  0  0
  142.6090   69.9972  218.5951 H   0  0  0  0  0  0  0  0  0  0  0  0
  144.0400   68.3680  218.6030 C   0  0  0  0  0  0  0  0  0  0  0  0
  143.2924   67.6104  218.3251 H   0  0  0  0  0  0  0  0  0  0  0  0
  145.3720   67.9930  218.8080 C   0  0  0  0  0  0  0  0  0  0  0  0
  145.6717   66.9415  218.6875 H   0  0  0  0  0  0  0  0  0  0  0  0
  146.3230   68.9540  219.1660 C   0  0  0  0  0  0  0  0  0  0  0  0
  147.3697   68.6575  219.3289 H   0  0  0  0  0  0  0  0  0  0  0  0
  145.9440   70.2920  219.3170 C   0  0  0  0  0  0  0  0  0  0  0  0
  146.6910   71.0454  219.6075 H   0  0  0  0  0  0  0  0  0  0  0  0
  142.7600   72.2990  219.1070 C   0  0  0  0  0  0  0  0  0  0  0  0
  142.4304   71.7963  218.1858 H   0  0  0  0  0  0  0  0  0  0  0  0
  141.9200   71.6170  220.2200 C   0  0  0  0  0  0  0  0  0  0  0  0
  142.0135   70.5254  220.1213 H   0  0  0  0  0  0  0  0  0  0  0  0
  142.2990   71.9537  221.1962 H   0  0  0  0  0  0  0  0  0  0  0  0
  140.4420   72.0020  220.1170 C   0  0  0  0  0  0  0  0  0  0  0  0
  140.0034   71.5350  219.2229 H   0  0  0  0  0  0  0  0  0  0  0  0
  139.9096   71.6518  221.0136 H   0  0  0  0  0  0  0  0  0  0  0  0
  140.3200   73.4600  220.0160 N   0  0  0  0  0  0  0  0  0  0  0  0
  140.0890   74.2330  221.2140 C   0  0  0  0  0  0  0  0  0  0  0  0
  140.3990   73.7440  222.3370 O   0  0  0  0  0  0  0  0  0  0  0  0
  139.3910   75.5780  221.1770 C   0  0  2  0  0  0  0  0  0  0  0  0
  138.8369   75.6714  220.2313 H   0  0  0  0  0  0  0  0  0  0  0  0
  140.4240   76.7410  221.2330 C   0  0  0  0  0  0  0  0  0  0  0  0
  141.1756   76.4435  220.4869 H   0  0  0  0  0  0  0  0  0  0  0  0
  141.0700   76.9100  222.6300 C   0  0  0  0  0  0  0  0  0  0  0  0
  140.4320   76.4743  223.4130 H   0  0  0  0  0  0  0  0  0  0  0  0
  142.0409   76.4002  222.7164 H   0  0  0  0  0  0  0  0  0  0  0  0
  141.1750   78.3790  222.7900 C   0  0  0  0  0  0  0  0  0  0  0  0
  141.8300   79.0690  223.8140 C   0  0  0  0  0  0  0  0  0  0  0  0
  142.3729   78.5230  224.5996 H   0  0  0  0  0  0  0  0  0  0  0  0
  141.7820   80.4720  223.8210 C   0  0  0  0  0  0  0  0  0  0  0  0
  142.2928   81.0352  224.6159 H   0  0  0  0  0  0  0  0  0  0  0  0
  141.0810   81.1590  222.8120 C   0  0  0  0  0  0  0  0  0  0  0  0
  141.0521   82.2586  222.8157 H   0  0  0  0  0  0  0  0  0  0  0  0
  140.4180   80.4440  221.8000 C   0  0  0  0  0  0  0  0  0  0  0  0
  139.8592   80.9724  221.0136 H   0  0  0  0  0  0  0  0  0  0  0  0
  140.4830   79.0490  221.8130 C   0  0  0  0  0  0  0  0  0  0  0  0
  139.8180   78.1210  220.8710 C   0  0  0  0  0  0  0  0  0  0  0  0
  138.7282   78.1232  221.0206 H   0  0  0  0  0  0  0  0  0  0  0  0
  139.9756   78.3947  219.8173 H   0  0  0  0  0  0  0  0  0  0  0  0
  138.4510   75.6640  222.3030 N   0  0  0  0  0  0  0  0  0  0  0  0
  137.4680   75.5450  221.9680 H   0  0  0  0  0  0  0  0  0  0  0  0
  138.5350   76.5900  222.7860 H   0  0  0  0  0  0  0  0  0  0  0  0
  138.6530   74.9020  222.9910 H   0  0  0  0  0  0  0  0  0  0  0  0
  140.9320   74.0540  218.8210 C   0  0  0  0  0  0  0  0  0  0  0  0
  140.4904   73.6029  217.9202 H   0  0  0  0  0  0  0  0  0  0  0  0
  140.7484   75.1386  218.8157 H   0  0  0  0  0  0  0  0  0  0  0  0
  142.4400   73.7920  218.8360 C   0  0  0  0  0  0  0  0  0  0  0  0
  142.8608   74.0753  217.8600 H   0  0  0  0  0  0  0  0  0  0  0  0
  142.8840   74.3903  219.6453 H   0  0  0  0  0  0  0  0  0  0  0  0
  145.1870   73.8020  220.7960 C   0  0  0  0  0  0  0  0  0  0  0  0
  144.2498   73.6669  221.3559 H   0  0  0  0  0  0  0  0  0  0  0  0
  145.3092   74.8567  220.5086 H   0  0  0  0  0  0  0  0  0  0  0  0
  146.3640   73.3920  221.6800 C   0  0  0  0  0  0  0  0  0  0  0  0
  146.0798   73.4910  222.7380 H   0  0  0  0  0  0  0  0  0  0  0  0
  146.6343   72.3468  221.4692 H   0  0  0  0  0  0  0  0  0  0  0  0
  147.2252   74.0431  221.4692 H   0  0  0  0  0  0  0  0  0  0  0  0
  1  2  1  0
  2  3  1  0
  3  4  2  0
  4  5  1  0
  5  6  2  0
  6  7  1  0
  6  8  1  0
  8  9  1  0
  8 10  2  0
 10 11  1  0
 10 12  1  0
 12 13  1  0
 12 14  2  0
 14 15  1  0
  4 16  1  0
 16 17  1  0
 16 18  1  0
 18 19  1  0
 18 20  1  0
 18 21  1  0
 21 22  1  0
 21 23  1  0
 21 24  1  0
 24 25  1  0
 25 26  2  0
 25 27  1  0
 27 28  1  6
 27 29  1  0
 29 30  1  0
 29 31  1  0
 31 32  1  0
 31 33  1  0
 31 34  1  0
 34 35  2  0
 35 36  1  0
 35 37  1  0
 37 38  1  0
 37 39  2  0
 39 40  1  0
 39 41  1  0
 41 42  1  0
 41 43  2  0
 43 44  1  0
 44 45  1  0
 44 46  1  0
 27 47  1  0
 47 48  1  0
 47 49  1  0
 47 50  1  0
 24 51  1  0
 51 52  1  0
 51 53  1  0
 51 54  1  0
 54 55  1  0
 54 56  1  0
  3 57  1  0
 57 58  1  0
 57 59  1  0
 57 60  1  0
 60 61  1  0
 60 62  1  0
 60 63  1  0
 14  5  1  0
 54 16  1  0
 44 29  1  0
 43 34  1  0
M  CHG  2   4   1  47   1
M  END
>  <UniqueID>  (1) 
43

>  <SMILES>  (1) 
CC/C(O)=[N+](/c1ccccc1)C1CCN(C(=O)[C@@H]([NH3+])C2Cc3ccccc3C2)CC1

>  <Energy>  (1) 
89.62017243529434

>  <Genealogy>  (1) 
CCC(=O)[NH+](c1ccccc1)C1CCN(C(=O)[C@@H]([NH3+])C2Cc3ccccc3C2)CC1 (protonated)
CCC(O)=[N+](c1ccccc1)C1CCN(C(=O)[C@@H]([NH3+])C2Cc3ccccc3C2)CC1 (tautomer)
CC/C(O)=[N+](/c1ccccc1)C1CCN(C(=O)[C@@H]([NH3+])C2Cc3ccccc3C2)CC1 (cis-trans isomerization)
CC/C(O)=[N+](/c1ccccc1)C1CCN(C(=O)[C@@H]([NH3+])C2Cc3ccccc3C2)CC1 (3D coordinates assigned)
CC/C(O)=[N+](/c1ccccc1)C1CCN(C(=O)[C@@H]([NH3+])C2Cc3ccccc3C2)CC1 (nonaromatic ring conformer: 89.62017243529434 kcal/mol)

>  <smiles>  (1) 
CCC(=O)N(c1ccccc1)C1CCN(C(=O)[C@@H](N)C2Cc3ccccc3C2)CC1

>  <score_type>  (1) 
oracle

>  <origin>  (1) 
autodockgpu

>  <m_score__min__energy>  (1) 
-8.0399999999999991

>  <m_primary>  (1) 
energy

>  <meeko>  (1) 
{"free_energy": -7.93, "intermolecular_energy": -10.32, "internal_energy": -1.67, "cluster_size": 5, "cluster_id": 1, "rank_in_cluster": 2}

>  <energy>  (1) 
-8.04

>  <cluster_rmsd>  (1) 
0.0

>  <rmsd>  (1) 
269.11

>  <cluster>  (1) 
1

$$$$
MCZRVQBLWAUNOI-UKKWOIQDNA-P
     RDKit          3D

 63 66  0  0  0  0  0  0  0  0999 V2000
  138.9760   74.0210  223.0710 H   0  0  0  0  0  0  0  0  0  0  0  0
  139.2860   74.8040  222.5100 O   0  0  0  0  0  0  0  0  0  0  0  0
  138.5770   76.0050  222.3600 C   0  0  0  0  0  0  0  0  0  0  0  0
  139.0680   76.9960  221.6260 N   0  0  0  0  0  0  0  0  0  0  0  0
  139.9020   77.9850  222.2580 C   0  0  0  0  0  0  0  0  0  0  0  0
  139.3380   78.9260  223.1340 C   0  0  0  0  0  0  0  0  0  0  0  0
  138.2592   78.9006  223.3475 H   0  0  0  0  0  0  0  0  0  0  0  0
  140.1460   79.8950  223.7350 C   0  0  0  0  0  0  0  0  0  0  0  0
  139.7031   80.6277  224.4256 H   0  0  0  0  0  0  0  0  0  0  0  0
  141.5170   79.9350  223.4600 C   0  0  0  0  0  0  0  0  0  0  0  0
  142.1517   80.6964  223.9368 H   0  0  0  0  0  0  0  0  0  0  0  0
  142.0810   79.0060  222.5780 C   0  0  0  0  0  0  0  0  0  0  0  0
  143.1587   79.0393  222.3600 H   0  0  0  0  0  0  0  0  0  0  0  0
  141.2760   78.0360  221.9740 C   0  0  0  0  0  0  0  0  0  0  0  0
  141.7196   77.3116  221.2752 H   0  0  0  0  0  0  0  0  0  0  0  0
  138.8460   77.2090  220.1730 C   0  0  0  0  0  0  0  0  0  0  0  0
  137.9302   76.6695  219.8897 H   0  0  0  0  0  0  0  0  0  0  0  0
  138.5200   78.6890  219.8380 C   0  0  0  0  0  0  0  0  0  0  0  0
  137.5559   78.9559  220.2954 H   0  0  0  0  0  0  0  0  0  0  0  0
  139.3277   79.3210  220.2357 H   0  0  0  0  0  0  0  0  0  0  0  0
  138.4330   78.9110  218.3260 C   0  0  0  0  0  0  0  0  0  0  0  0
  137.5319   78.4162  217.9346 H   0  0  0  0  0  0  0  0  0  0  0  0
  138.3807   79.9898  218.1177 H   0  0  0  0  0  0  0  0  0  0  0  0
  139.6200   78.3470  217.6770 N   0  0  0  0  0  0  0  0  0  0  0  0
  140.7460   79.2070  217.3970 C   0  0  0  0  0  0  0  0  0  0  0  0
  140.8860   80.2790  218.0500 O   0  0  0  0  0  0  0  0  0  0  0  0
  141.7180   78.9130  216.2710 C   0  0  2  0  0  0  0  0  0  0  0  0
  141.1956   78.3560  215.4793 H   0  0  0  0  0  0  0  0  0  0  0  0
  142.8940   78.0250  216.7690 C   0  0  0  0  0  0  0  0  0  0  0  0
  143.7823   78.5543  216.3939 H   0  0  0  0  0  0  0  0  0  0  0  0
  142.8390   76.5800  216.2150 C   0  0  0  0  0  0  0  0  0  0  0  0
  141.8161   76.3155  215.9088 H   0  0  0  0  0  0  0  0  0  0  0  0
  143.4649   76.4409  215.3212 H   0  0  0  0  0  0  0  0  0  0  0  0
  143.2790   75.7510  217.3600 C   0  0  0  0  0  0  0  0  0  0  0  0
  143.5540   74.3800  217.3510 C   0  0  0  0  0  0  0  0  0  0  0  0
  143.4855   73.8012  216.4181 H   0  0  0  0  0  0  0  0  0  0  0  0
  143.9190   73.7560  218.5540 C   0  0  0  0  0  0  0  0  0  0  0  0
  144.1443   72.6794  218.5685 H   0  0  0  0  0  0  0  0  0  0  0  0
  143.9970   74.5070  219.7420 C   0  0  0  0  0  0  0  0  0  0  0  0
  144.2902   74.0165  220.6819 H   0  0  0  0  0  0  0  0  0  0  0  0
  143.7020   75.8800  219.7320 C   0  0  0  0  0  0  0  0  0  0  0  0
  143.7504   76.4713  220.6583 H   0  0  0  0  0  0  0  0  0  0  0  0
  143.3460   76.4790  218.5220 C   0  0  0  0  0  0  0  0  0  0  0  0
  142.9550   77.8920  218.3110 C   0  0  0  0  0  0  0  0  0  0  0  0
  141.9737   78.0999  218.7625 H   0  0  0  0  0  0  0  0  0  0  0  0
  143.6542   78.6034  218.7747 H   0  0  0  0  0  0  0  0  0  0  0  0
  142.2200   80.1830  215.7250 N   0  0  0  0  0  0  0  0  0  0  0  0
  141.8000   80.3680  214.7860 H   0  0  0  0  0  0  0  0  0  0  0  0
  143.2630   80.1580  215.6320 H   0  0  0  0  0  0  0  0  0  0  0  0
  141.9530   80.9710  216.3600 H   0  0  0  0  0  0  0  0  0  0  0  0
  139.7760   76.8940  217.8200 C   0  0  0  0  0  0  0  0  0  0  0  0
  138.8847   76.3884  217.4200 H   0  0  0  0  0  0  0  0  0  0  0  0
  140.6655   76.5641  217.2633 H   0  0  0  0  0  0  0  0  0  0  0  0
  139.9410   76.5420  219.3000 C   0  0  0  0  0  0  0  0  0  0  0  0
  139.8741   75.4502  219.4165 H   0  0  0  0  0  0  0  0  0  0  0  0
  140.9206   76.9144  219.6343 H   0  0  0  0  0  0  0  0  0  0  0  0
  137.2520   76.0410  223.0940 C   0  0  0  0  0  0  0  0  0  0  0  0
  137.4394   76.0709  224.1775 H   0  0  0  0  0  0  0  0  0  0  0  0
  136.6766   75.1406  222.8327 H   0  0  0  0  0  0  0  0  0  0  0  0
  136.4480   77.2750  222.6890 C   0  0  0  0  0  0  0  0  0  0  0  0
  136.1049   77.8016  223.5918 H   0  0  0  0  0  0  0  0  0  0  0  0
  137.0826   77.9463  222.0918 H   0  0  0  0  0  0  0  0  0  0  0  0
  135.5775   76.9657  222.0918 H   0  0  0  0  0  0  0  0  0  0  0  0
  1  2  1  0
  2  3  1  0
  3  4  2  0
  4  5  1  0
  5  6  2  0
  6  7  1  0
  6  8  1  0
  8  9  1  0
  8 10  2  0
 10 11  1  0
 10 12  1  0
 12 13  1  0
 12 14  2  0
 14 15  1  0
  4 16  1  0
 16 17  1  0
 16 18  1  0
 18 19  1  0
 18 20  1  0
 18 21  1  0
 21 22  1  0
 21 23  1  0
 21 24  1  0
 24 25  1  0
 25 26  2  0
 25 27  1  0
 27 28  1  6
 27 29  1  0
 29 30  1  0
 29 31  1  0
 31 32  1  0
 31 33  1  0
 31 34  1  0
 34 35  2  0
 35 36  1  0
 35 37  1  0
 37 38  1  0
 37 39  2  0
 39 40  1  0
 39 41  1  0
 41 42  1  0
 41 43  2  0
 43 44  1  0
 44 45  1  0
 44 46  1  0
 27 47  1  0
 47 48  1  0
 47 49  1  0
 47 50  1  0
 24 51  1  0
 51 52  1  0
 51 53  1  0
 51 54  1  0
 54 55  1  0
 54 56  1  0
  3 57  1  0
 57 58  1  0
 57 59  1  0
 57 60  1  0
 60 61  1  0
 60 62  1  0
 60 63  1  0
 14  5  1  0
 54 16  1  0
 44 29  1  0
 43 34  1  0
M  CHG  2   4   1  47   1
M  END
>  <UniqueID>  (2) 
43

>  <SMILES>  (2) 
CC/C(O)=[N+](/c1ccccc1)C1CCN(C(=O)[C@@H]([NH3+])C2Cc3ccccc3C2)CC1

>  <Energy>  (2) 
89.62017243529434

>  <Genealogy>  (2) 
CCC(=O)[NH+](c1ccccc1)C1CCN(C(=O)[C@@H]([NH3+])C2Cc3ccccc3C2)CC1 (protonated)
CCC(O)=[N+](c1ccccc1)C1CCN(C(=O)[C@@H]([NH3+])C2Cc3ccccc3C2)CC1 (tautomer)
CC/C(O)=[N+](/c1ccccc1)C1CCN(C(=O)[C@@H]([NH3+])C2Cc3ccccc3C2)CC1 (cis-trans isomerization)
CC/C(O)=[N+](/c1ccccc1)C1CCN(C(=O)[C@@H]([NH3+])C2Cc3ccccc3C2)CC1 (3D coordinates assigned)
CC/C(O)=[N+](/c1ccccc1)C1CCN(C(=O)[C@@H]([NH3+])C2Cc3ccccc3C2)CC1 (nonaromatic ring conformer: 89.62017243529434 kcal/mol)

>  <smiles>  (2) 
CCC(=O)N(c1ccccc1)C1CCN(C(=O)[C@@H](N)C2Cc3ccccc3C2)CC1

>  <score_type>  (2) 
oracle

>  <origin>  (2) 
autodockgpu

>  <m_score__min__energy>  (2) 
-8.0399999999999991

>  <m_primary>  (2) 
energy

>  <meeko>  (2) 
{"free_energy": -6.44, "intermolecular_energy": -8.83, "internal_energy": -2.84, "cluster_size": 8, "cluster_id": 3, "rank_in_cluster": 6}

>  <energy>  (2) 
-7.93

>  <cluster_rmsd>  (2) 
0.47

>  <rmsd>  (2) 
269.02

>  <cluster>  (2) 
1

$$$$
MCZRVQBLWAUNOI-UKKWOIQDNA-P
     RDKit          3D

 63 66  0  0  0  0  0  0  0  0999 V2000
  139.0180   74.0620  223.0880 H   0  0  0  0  0  0  0  0  0  0  0  0
  139.2850   74.8250  222.4790 O   0  0  0  0  0  0  0  0  0  0  0  0
  138.5710   76.0240  222.3430 C   0  0  0  0  0  0  0  0  0  0  0  0
  139.0540   77.0240  221.6160 N   0  0  0  0  0  0  0  0  0  0  0  0
  139.8860   78.0110  222.2530 C   0  0  0  0  0  0  0  0  0  0  0  0
  141.2560   78.0730  221.9590 C   0  0  0  0  0  0  0  0  0  0  0  0
  141.6937   77.3736  221.2314 H   0  0  0  0  0  0  0  0  0  0  0  0
  142.0660   79.0220  222.5890 C   0  0  0  0  0  0  0  0  0  0  0  0
  143.1387   79.0738  222.3509 H   0  0  0  0  0  0  0  0  0  0  0  0
  141.5140   79.9060  223.5220 C   0  0  0  0  0  0  0  0  0  0  0  0
  142.1524   80.6533  224.0159 H   0  0  0  0  0  0  0  0  0  0  0  0
  140.1510   79.8400  223.8270 C   0  0  0  0  0  0  0  0  0  0  0  0
  139.7179   80.5355  224.5610 H   0  0  0  0  0  0  0  0  0  0  0  0
  139.3380   78.8910  223.2000 C   0  0  0  0  0  0  0  0  0  0  0  0
  138.2680   78.8337  223.4488 H   0  0  0  0  0  0  0  0  0  0  0  0
  138.8240   77.2480  220.1660 C   0  0  0  0  0  0  0  0  0  0  0  0
  137.9015   76.7188  219.8852 H   0  0  0  0  0  0  0  0  0  0  0  0
  138.5100   78.7330  219.8430 C   0  0  0  0  0  0  0  0  0  0  0  0
  137.5519   79.0064  220.3092 H   0  0  0  0  0  0  0  0  0  0  0  0
  139.3266   79.3548  220.2388 H   0  0  0  0  0  0  0  0  0  0  0  0
  138.4140   78.9650  218.3330 C   0  0  0  0  0  0  0  0  0  0  0  0
  137.5064   78.4796  217.9448 H   0  0  0  0  0  0  0  0  0  0  0  0
  138.3682   80.0453  218.1310 H   0  0  0  0  0  0  0  0  0  0  0  0
  139.5930   78.3950  217.6730 N   0  0  0  0  0  0  0  0  0  0  0  0
  140.7250   79.2460  217.3910 C   0  0  0  0  0  0  0  0  0  0  0  0
  140.8790   80.3140  218.0500 O   0  0  0  0  0  0  0  0  0  0  0  0
  141.6860   78.9520  216.2560 C   0  0  2  0  0  0  0  0  0  0  0  0
  141.1513   78.4112  215.4612 H   0  0  0  0  0  0  0  0  0  0  0  0
  142.8530   78.0440  216.7390 C   0  0  0  0  0  0  0  0  0  0  0  0
  143.7430   78.5428  216.3278 H   0  0  0  0  0  0  0  0  0  0  0  0
  142.7450   76.5890  216.2170 C   0  0  0  0  0  0  0  0  0  0  0  0
  141.7071   76.3447  215.9466 H   0  0  0  0  0  0  0  0  0  0  0  0
  143.3400   76.4154  215.3082 H   0  0  0  0  0  0  0  0  0  0  0  0
  143.1980   75.7730  217.3660 C   0  0  0  0  0  0  0  0  0  0  0  0
  143.4380   74.3950  217.3780 C   0  0  0  0  0  0  0  0  0  0  0  0
  143.3285   73.7995  216.4596 H   0  0  0  0  0  0  0  0  0  0  0  0
  143.8210   73.7860  218.5830 C   0  0  0  0  0  0  0  0  0  0  0  0
  144.0183   72.7043  218.6134 H   0  0  0  0  0  0  0  0  0  0  0  0
  143.9530   74.5580  219.7530 C   0  0  0  0  0  0  0  0  0  0  0  0
  144.2607   74.0790  220.6942 H   0  0  0  0  0  0  0  0  0  0  0  0
  143.6930   75.9380  219.7220 C   0  0  0  0  0  0  0  0  0  0  0  0
  143.7844   76.5467  220.6336 H   0  0  0  0  0  0  0  0  0  0  0  0
  143.3160   76.5220  218.5100 C   0  0  0  0  0  0  0  0  0  0  0  0
  142.9560   77.9400  218.2820 C   0  0  0  0  0  0  0  0  0  0  0  0
  141.9942   78.1827  218.7574 H   0  0  0  0  0  0  0  0  0  0  0  0
  143.6867   78.6416  218.7107 H   0  0  0  0  0  0  0  0  0  0  0  0
  142.2020   80.2200  215.7200 N   0  0  0  0  0  0  0  0  0  0  0  0
  142.0040   81.0030  216.3830 H   0  0  0  0  0  0  0  0  0  0  0  0
  141.7600   80.4370  214.7960 H   0  0  0  0  0  0  0  0  0  0  0  0
  143.2390   80.1550  215.5960 H   0  0  0  0  0  0  0  0  0  0  0  0
  139.7370   76.9400  217.8050 C   0  0  0  0  0  0  0  0  0  0  0  0
  138.8392   76.4449  217.4065 H   0  0  0  0  0  0  0  0  0  0  0  0
  140.6203   76.6059  217.2409 H   0  0  0  0  0  0  0  0  0  0  0  0
  139.9070   76.5770  219.2820 C   0  0  0  0  0  0  0  0  0  0  0  0
  139.8305   75.4852  219.3918 H   0  0  0  0  0  0  0  0  0  0  0  0
  140.8918   76.9385  219.6127 H   0  0  0  0  0  0  0  0  0  0  0  0
  137.2500   76.0470  223.0850 C   0  0  0  0  0  0  0  0  0  0  0  0
  137.4434   76.0692  224.1676 H   0  0  0  0  0  0  0  0  0  0  0  0
  136.6777   75.1457  222.8201 H   0  0  0  0  0  0  0  0  0  0  0  0
  136.4370   77.2810  222.6940 C   0  0  0  0  0  0  0  0  0  0  0  0
  136.0960   77.7985  223.6028 H   0  0  0  0  0  0  0  0  0  0  0  0
  137.0650   77.9604  222.0989 H   0  0  0  0  0  0  0  0  0  0  0  0
  135.5650   76.9721  222.0989 H   0  0  0  0  0  0  0  0  0  0  0  0
  1  2  1  0
  2  3  1  0
  3  4  2  0
  4  5  1  0
  5  6  2  0
  6  7  1  0
  6  8  1  0
  8  9  1  0
  8 10  2  0
 10 11  1  0
 10 12  1  0
 12 13  1  0
 12 14  2  0
 14 15  1  0
  4 16  1  0
 16 17  1  0
 16 18  1  0
 18 19  1  0
 18 20  1  0
 18 21  1  0
 21 22  1  0
 21 23  1  0
 21 24  1  0
 24 25  1  0
 25 26  2  0
 25 27  1  0
 27 28  1  6
 27 29  1  0
 29 30  1  0
 29 31  1  0
 31 32  1  0
 31 33  1  0
 31 34  1  0
 34 35  2  0
 35 36  1  0
 35 37  1  0
 37 38  1  0
 37 39  2  0
 39 40  1  0
 39 41  1  0
 41 42  1  0
 41 43  2  0
 43 44  1  0
 44 45  1  0
 44 46  1  0
 27 47  1  0
 47 48  1  0
 47 49  1  0
 47 50  1  0
 24 51  1  0
 51 52  1  0
 51 53  1  0
 51 54  1  0
 54 55  1  0
 54 56  1  0
  3 57  1  0
 57 58  1  0
 57 59  1  0
 57 60  1  0
 60 61  1  0
 60 62  1  0
 60 63  1  0
 14  5  1  0
 54 16  1  0
 44 29  1  0
 43 34  1  0
M  CHG  2   4   1  47   1
M  END
>  <UniqueID>  (3) 
43

>  <SMILES>  (3) 
CC/C(O)=[N+](/c1ccccc1)C1CCN(C(=O)[C@@H]([NH3+])C2Cc3ccccc3C2)CC1

>  <Energy>  (3) 
89.62017243529434

>  <Genealogy>  (3) 
CCC(=O)[NH+](c1ccccc1)C1CCN(C(=O)[C@@H]([NH3+])C2Cc3ccccc3C2)CC1 (protonated)
CCC(O)=[N+](c1ccccc1)C1CCN(C(=O)[C@@H]([NH3+])C2Cc3ccccc3C2)CC1 (tautomer)
CC/C(O)=[N+](/c1ccccc1)C1CCN(C(=O)[C@@H]([NH3+])C2Cc3ccccc3C2)CC1 (cis-trans isomerization)
CC/C(O)=[N+](/c1ccccc1)C1CCN(C(=O)[C@@H]([NH3+])C2Cc3ccccc3C2)CC1 (3D coordinates assigned)
CC/C(O)=[N+](/c1ccccc1)C1CCN(C(=O)[C@@H]([NH3+])C2Cc3ccccc3C2)CC1 (nonaromatic ring conformer: 89.62017243529434 kcal/mol)

>  <smiles>  (3) 
CCC(=O)N(c1ccccc1)C1CCN(C(=O)[C@@H](N)C2Cc3ccccc3C2)CC1

>  <score_type>  (3) 
oracle

>  <origin>  (3) 
autodockgpu

>  <m_score__min__energy>  (3) 
-8.0399999999999991

>  <m_primary>  (3) 
energy

>  <meeko>  (3) 
{"free_energy": -6.43, "intermolecular_energy": -8.82, "internal_energy": -2.84, "cluster_size": 8, "cluster_id": 3, "rank_in_cluster": 7}

>  <energy>  (3) 
-7.9

>  <cluster_rmsd>  (3) 
0.55

>  <rmsd>  (3) 
268.89

>  <cluster>  (3) 
1

$$$$
MCZRVQBLWAUNOI-UKKWOIQDNA-P
     RDKit          3D

 63 66  0  0  0  0  0  0  0  0999 V2000
  146.4840   74.1270  218.2360 H   0  0  0  0  0  0  0  0  0  0  0  0
  146.2070   73.2410  218.6380 O   0  0  0  0  0  0  0  0  0  0  0  0
  145.2720   73.0930  219.6730 C   0  0  0  0  0  0  0  0  0  0  0  0
  144.2970   72.1970  219.5850 N   0  0  0  0  0  0  0  0  0  0  0  0
  144.6350   70.8230  219.3230 C   0  0  0  0  0  0  0  0  0  0  0  0
  145.4980   70.4990  218.2650 C   0  0  0  0  0  0  0  0  0  0  0  0
  145.9263   71.2974  217.6412 H   0  0  0  0  0  0  0  0  0  0  0  0
  145.8140   69.1630  218.0030 C   0  0  0  0  0  0  0  0  0  0  0  0
  146.4971   68.9118  217.1782 H   0  0  0  0  0  0  0  0  0  0  0  0
  145.2630   68.1450  218.7880 C   0  0  0  0  0  0  0  0  0  0  0  0
  145.5141   67.0943  218.5809 H   0  0  0  0  0  0  0  0  0  0  0  0
  144.3930   68.4620  219.8360 C   0  0  0  0  0  0  0  0  0  0  0  0
  143.9594   67.6605  220.4522 H   0  0  0  0  0  0  0  0  0  0  0  0
  144.0740   69.7980  220.1010 C   0  0  0  0  0  0  0  0  0  0  0  0
  143.3827   70.0457  220.9200 H   0  0  0  0  0  0  0  0  0  0  0  0
  142.8430   72.4620  219.7320 C   0  0  0  0  0  0  0  0  0  0  0  0
  142.6428   73.4699  219.3396 H   0  0  0  0  0  0  0  0  0  0  0  0
  141.9830   71.5370  218.8300 C   0  0  0  0  0  0  0  0  0  0  0  0
  142.1901   71.7714  217.7754 H   0  0  0  0  0  0  0  0  0  0  0  0
  142.2440   70.4923  219.0547 H   0  0  0  0  0  0  0  0  0  0  0  0
  140.4880   71.7310  219.1000 C   0  0  0  0  0  0  0  0  0  0  0  0
  140.1742   72.7182  218.7298 H   0  0  0  0  0  0  0  0  0  0  0  0
  139.9182   70.9455  218.5821 H   0  0  0  0  0  0  0  0  0  0  0  0
  140.2340   71.6470  220.5410 N   0  0  0  0  0  0  0  0  0  0  0  0
  139.8290   70.3850  221.1140 C   0  0  0  0  0  0  0  0  0  0  0  0
  140.0890   69.3120  220.5000 O   0  0  0  0  0  0  0  0  0  0  0  0
  139.0090   70.3100  222.3880 C   0  0  2  0  0  0  0  0  0  0  0  0
  138.5002   71.2721  222.5475 H   0  0  0  0  0  0  0  0  0  0  0  0
  139.9210   70.0530  223.6210 C   0  0  0  0  0  0  0  0  0  0  0  0
  140.7135   69.4082  223.2134 H   0  0  0  0  0  0  0  0  0  0  0  0
  139.1820   69.3500  224.7860 C   0  0  0  0  0  0  0  0  0  0  0  0
  138.0958   69.5078  224.7140 H   0  0  0  0  0  0  0  0  0  0  0  0
  139.3274   68.2596  224.7878 H   0  0  0  0  0  0  0  0  0  0  0  0
  139.7320   70.0050  225.9940 C   0  0  0  0  0  0  0  0  0  0  0  0
  139.5130   69.6370  227.3250 C   0  0  0  0  0  0  0  0  0  0  0  0
  138.9015   68.7558  227.5692 H   0  0  0  0  0  0  0  0  0  0  0  0
  140.0880   70.4130  228.3440 C   0  0  0  0  0  0  0  0  0  0  0  0
  139.9308   70.1395  229.3978 H   0  0  0  0  0  0  0  0  0  0  0  0
  140.8650   71.5400  228.0190 C   0  0  0  0  0  0  0  0  0  0  0  0
  141.3205   72.1412  228.8196 H   0  0  0  0  0  0  0  0  0  0  0  0
  141.0610   71.9000  226.6750 C   0  0  0  0  0  0  0  0  0  0  0  0
  141.6590   72.7852  226.4126 H   0  0  0  0  0  0  0  0  0  0  0  0
  140.4810   71.1110  225.6790 C   0  0  0  0  0  0  0  0  0  0  0  0
  140.5290   71.3470  224.2190 C   0  0  0  0  0  0  0  0  0  0  0  0
  139.9290   72.2268  223.9433 H   0  0  0  0  0  0  0  0  0  0  0  0
  141.5457   71.5510  223.8520 H   0  0  0  0  0  0  0  0  0  0  0  0
  138.0060   69.2440  222.2520 N   0  0  0  0  0  0  0  0  0  0  0  0
  138.1470   68.7230  221.3580 H   0  0  0  0  0  0  0  0  0  0  0  0
  137.0380   69.6430  222.2640 H   0  0  0  0  0  0  0  0  0  0  0  0
  138.1040   68.5640  223.0420 H   0  0  0  0  0  0  0  0  0  0  0  0
  140.8840   72.6870  221.3480 C   0  0  0  0  0  0  0  0  0  0  0  0
  140.5662   73.6785  220.9930 H   0  0  0  0  0  0  0  0  0  0  0  0
  140.5966   72.5653  222.4028 H   0  0  0  0  0  0  0  0  0  0  0  0
  142.4030   72.5610  221.2160 C   0  0  0  0  0  0  0  0  0  0  0  0
  142.8749   73.4450  221.6696 H   0  0  0  0  0  0  0  0  0  0  0  0
  142.7168   71.6400  221.7292 H   0  0  0  0  0  0  0  0  0  0  0  0
  145.4910   74.0270  220.8450 C   0  0  0  0  0  0  0  0  0  0  0  0
  144.5190   74.2755  221.2960 H   0  0  0  0  0  0  0  0  0  0  0  0
  145.9868   74.9400  220.4836 H   0  0  0  0  0  0  0  0  0  0  0  0
  146.3800   73.3670  221.8990 C   0  0  0  0  0  0  0  0  0  0  0  0
  146.0191   73.6349  222.9030 H   0  0  0  0  0  0  0  0  0  0  0  0
  146.3449   72.2744  221.7762 H   0  0  0  0  0  0  0  0  0  0  0  0
  147.4157   73.7167  221.7762 H   0  0  0  0  0  0  0  0  0  0  0  0
  1  2  1  0
  2  3  1  0
  3  4  2  0
  4  5  1  0
  5  6  2  0
  6  7  1  0
  6  8  1  0
  8  9  1  0
  8 10  2  0
 10 11  1  0
 10 12  1  0
 12 13  1  0
 12 14  2  0
 14 15  1  0
  4 16  1  0
 16 17  1  0
 16 18  1  0
 18 19  1  0
 18 20  1  0
 18 21  1  0
 21 22  1  0
 21 23  1  0
 21 24  1  0
 24 25  1  0
 25 26  2  0
 25 27  1  0
 27 28  1  1
 27 29  1  0
 29 30  1  0
 29 31  1  0
 31 32  1  0
 31 33  1  0
 31 34  1  0
 34 35  2  0
 35 36  1  0
 35 37  1  0
 37 38  1  0
 37 39  2  0
 39 40  1  0
 39 41  1  0
 41 42  1  0
 41 43  2  0
 43 44  1  0
 44 45  1  0
 44 46  1  0
 27 47  1  0
 47 48  1  0
 47 49  1  0
 47 50  1  0
 24 51  1  0
 51 52  1  0
 51 53  1  0
 51 54  1  0
 54 55  1  0
 54 56  1  0
  3 57  1  0
 57 58  1  0
 57 59  1  0
 57 60  1  0
 60 61  1  0
 60 62  1  0
 60 63  1  0
 14  5  1  0
 54 16  1  0
 44 29  1  0
 43 34  1  0
M  CHG  2   4   1  47   1
M  END
>  <UniqueID>  (4) 
43

>  <SMILES>  (4) 
CC/C(O)=[N+](/c1ccccc1)C1CCN(C(=O)[C@@H]([NH3+])C2Cc3ccccc3C2)CC1

>  <Energy>  (4) 
89.62017243529434

>  <Genealogy>  (4) 
CCC(=O)[NH+](c1ccccc1)C1CCN(C(=O)[C@@H]([NH3+])C2Cc3ccccc3C2)CC1 (protonated)
CCC(O)=[N+](c1ccccc1)C1CCN(C(=O)[C@@H]([NH3+])C2Cc3ccccc3C2)CC1 (tautomer)
CC/C(O)=[N+](/c1ccccc1)C1CCN(C(=O)[C@@H]([NH3+])C2Cc3ccccc3C2)CC1 (cis-trans isomerization)
CC/C(O)=[N+](/c1ccccc1)C1CCN(C(=O)[C@@H]([NH3+])C2Cc3ccccc3C2)CC1 (3D coordinates assigned)
CC/C(O)=[N+](/c1ccccc1)C1CCN(C(=O)[C@@H]([NH3+])C2Cc3ccccc3C2)CC1 (nonaromatic ring conformer: 89.62017243529434 kcal/mol)

>  <smiles>  (4) 
CCC(=O)N(c1ccccc1)C1CCN(C(=O)[C@@H](N)C2Cc3ccccc3C2)CC1

>  <score_type>  (4) 
oracle

>  <origin>  (4) 
autodockgpu

>  <m_score__min__energy>  (4) 
-8.0399999999999991

>  <m_primary>  (4) 
energy

>  <meeko>  (4) 
{"free_energy": -7.55, "intermolecular_energy": -9.93, "internal_energy": -1.79, "cluster_size": 1, "cluster_id": 2, "rank_in_cluster": 1}

>  <energy>  (4) 
-7.88

>  <cluster_rmsd>  (4) 
0.56

>  <rmsd>  (4) 
268.89

>  <cluster>  (4) 
1

$$$$
MCZRVQBLWAUNOI-UKKWOIQDNA-P
     RDKit          3D

 63 66  0  0  0  0  0  0  0  0999 V2000
  146.3610   74.0960  218.4170 H   0  0  0  0  0  0  0  0  0  0  0  0
  146.1240   73.1430  218.6640 O   0  0  0  0  0  0  0  0  0  0  0  0
  145.1130   72.7820  219.5650 C   0  0  0  0  0  0  0  0  0  0  0  0
  144.2820   71.7840  219.2900 N   0  0  0  0  0  0  0  0  0  0  0  0
  144.8250   70.4730  219.0430 C   0  0  0  0  0  0  0  0  0  0  0  0
  145.7520   70.2800  218.0080 C   0  0  0  0  0  0  0  0  0  0  0  0
  146.0741   71.1329  217.3926 H   0  0  0  0  0  0  0  0  0  0  0  0
  146.2670   69.0040  217.7580 C   0  0  0  0  0  0  0  0  0  0  0  0
  146.9985   68.8554  216.9500 H   0  0  0  0  0  0  0  0  0  0  0  0
  145.8530   67.9170  218.5340 C   0  0  0  0  0  0  0  0  0  0  0  0
  146.2615   66.9147  218.3380 H   0  0  0  0  0  0  0  0  0  0  0  0
  144.9200   68.1030  219.5590 C   0  0  0  0  0  0  0  0  0  0  0  0
  144.5933   67.2467  220.1673 H   0  0  0  0  0  0  0  0  0  0  0  0
  144.4020   69.3780  219.8110 C   0  0  0  0  0  0  0  0  0  0  0  0
  143.6622   69.5219  220.6123 H   0  0  0  0  0  0  0  0  0  0  0  0
  142.8020   71.8690  219.2050 C   0  0  0  0  0  0  0  0  0  0  0  0
  142.4772   71.2485  218.3568 H   0  0  0  0  0  0  0  0  0  0  0  0
  142.1050   71.2170  220.4290 C   0  0  0  0  0  0  0  0  0  0  0  0
  142.3098   70.1362  220.4244 H   0  0  0  0  0  0  0  0  0  0  0  0
  142.5002   71.6839  221.3433 H   0  0  0  0  0  0  0  0  0  0  0  0
  140.5900   71.4380  220.3890 C   0  0  0  0  0  0  0  0  0  0  0  0
  140.1546   70.8440  219.5719 H   0  0  0  0  0  0  0  0  0  0  0  0
  140.1492   71.1245  221.3468 H   0  0  0  0  0  0  0  0  0  0  0  0
  140.3070   72.8590  220.1640 N   0  0  0  0  0  0  0  0  0  0  0  0
  140.0620   73.7180  221.2990 C   0  0  0  0  0  0  0  0  0  0  0  0
  140.4850   73.3760  222.4390 O   0  0  0  0  0  0  0  0  0  0  0  0
  139.2220   74.9750  221.1850 C   0  0  2  0  0  0  0  0  0  0  0  0
  138.6403   74.9370  220.2521 H   0  0  0  0  0  0  0  0  0  0  0  0
  140.1240   76.2420  221.1250 C   0  0  0  0  0  0  0  0  0  0  0  0
  140.6984   76.0953  220.1985 H   0  0  0  0  0  0  0  0  0  0  0  0
  141.0690   76.3710  222.3460 C   0  0  0  0  0  0  0  0  0  0  0  0
  140.6818   75.8022  223.2042 H   0  0  0  0  0  0  0  0  0  0  0  0
  142.0755   75.9720  222.1518 H   0  0  0  0  0  0  0  0  0  0  0  0
  141.0710   77.8240  222.6320 C   0  0  0  0  0  0  0  0  0  0  0  0
  141.8840   78.5010  223.5460 C   0  0  0  0  0  0  0  0  0  0  0  0
  142.6472   77.9602  224.1249 H   0  0  0  0  0  0  0  0  0  0  0  0
  141.7080   79.8840  223.7110 C   0  0  0  0  0  0  0  0  0  0  0  0
  142.3401   80.4371  224.4213 H   0  0  0  0  0  0  0  0  0  0  0  0
  140.7240   80.5640  222.9690 C   0  0  0  0  0  0  0  0  0  0  0  0
  140.5936   81.6489  223.0957 H   0  0  0  0  0  0  0  0  0  0  0  0
  139.9080   79.8610  222.0670 C   0  0  0  0  0  0  0  0  0  0  0  0
  139.1301   80.3829  221.4904 H   0  0  0  0  0  0  0  0  0  0  0  0
  140.1040   78.4870  221.9170 C   0  0  0  0  0  0  0  0  0  0  0  0
  139.3230   77.5670  221.0600 C   0  0  0  0  0  0  0  0  0  0  0  0
  138.3054   77.4308  221.4549 H   0  0  0  0  0  0  0  0  0  0  0  0
  139.1978   77.9414  220.0333 H   0  0  0  0  0  0  0  0  0  0  0  0
  138.3040   75.0460  222.3300 N   0  0  0  0  0  0  0  0  0  0  0  0
  138.4030   75.9630  222.8220 H   0  0  0  0  0  0  0  0  0  0  0  0
  138.5000   74.2740  223.0100 H   0  0  0  0  0  0  0  0  0  0  0  0
  137.3150   74.9630  221.9960 H   0  0  0  0  0  0  0  0  0  0  0  0
  140.7830   73.3920  218.8820 C   0  0  0  0  0  0  0  0  0  0  0  0
  140.3427   72.8119  218.0576 H   0  0  0  0  0  0  0  0  0  0  0  0
  140.4835   74.4464  218.7895 H   0  0  0  0  0  0  0  0  0  0  0  0
  142.3080   73.2880  218.8210 C   0  0  0  0  0  0  0  0  0  0  0  0
  142.6402   73.5163  217.7975 H   0  0  0  0  0  0  0  0  0  0  0  0
  142.7296   74.0045  219.5413 H   0  0  0  0  0  0  0  0  0  0  0  0
  145.0770   73.6190  220.8270 C   0  0  0  0  0  0  0  0  0  0  0  0
  144.1938   73.3405  221.4207 H   0  0  0  0  0  0  0  0  0  0  0  0
  145.0269   74.6816  220.5471 H   0  0  0  0  0  0  0  0  0  0  0  0
  146.3370   73.3870  221.6610 C   0  0  0  0  0  0  0  0  0  0  0  0
  146.0828   73.4338  222.7302 H   0  0  0  0  0  0  0  0  0  0  0  0
  146.7548   72.3968  221.4265 H   0  0  0  0  0  0  0  0  0  0  0  0
  147.0801   74.1634  221.4265 H   0  0  0  0  0  0  0  0  0  0  0  0
  1  2  1  0
  2  3  1  0
  3  4  2  0
  4  5  1  0
  5  6  2  0
  6  7  1  0
  6  8  1  0
  8  9  1  0
  8 10  2  0
 10 11  1  0
 10 12  1  0
 12 13  1  0
 12 14  2  0
 14 15  1  0
  4 16  1  0
 16 17  1  0
 16 18  1  0
 18 19  1  0
 18 20  1  0
 18 21  1  0
 21 22  1  0
 21 23  1  0
 21 24  1  0
 24 25  1  0
 25 26  2  0
 25 27  1  0
 27 28  1  6
 27 29  1  0
 29 30  1  0
 29 31  1  0
 31 32  1  0
 31 33  1  0
 31 34  1  0
 34 35  2  0
 35 36  1  0
 35 37  1  0
 37 38  1  0
 37 39  2  0
 39 40  1  0
 39 41  1  0
 41 42  1  0
 41 43  2  0
 43 44  1  0
 44 45  1  0
 44 46  1  0
 27 47  1  0
 47 48  1  0
 47 49  1  0
 47 50  1  0
 24 51  1  0
 51 52  1  0
 51 53  1  0
 51 54  1  0
 54 55  1  0
 54 56  1  0
  3 57  1  0
 57 58  1  0
 57 59  1  0
 57 60  1  0
 60 61  1  0
 60 62  1  0
 60 63  1  0
 14  5  1  0
 54 16  1  0
 44 29  1  0
 43 34  1  0
M  CHG  2   4   1  47   1
M  END
>  <UniqueID>  (5) 
43

>  <SMILES>  (5) 
CC/C(O)=[N+](/c1ccccc1)C1CCN(C(=O)[C@@H]([NH3+])C2Cc3ccccc3C2)CC1

>  <Energy>  (5) 
89.62017243529434

>  <Genealogy>  (5) 
CCC(=O)[NH+](c1ccccc1)C1CCN(C(=O)[C@@H]([NH3+])C2Cc3ccccc3C2)CC1 (protonated)
CCC(O)=[N+](c1ccccc1)C1CCN(C(=O)[C@@H]([NH3+])C2Cc3ccccc3C2)CC1 (tautomer)
CC/C(O)=[N+](/c1ccccc1)C1CCN(C(=O)[C@@H]([NH3+])C2Cc3ccccc3C2)CC1 (cis-trans isomerization)
CC/C(O)=[N+](/c1ccccc1)C1CCN(C(=O)[C@@H]([NH3+])C2Cc3ccccc3C2)CC1 (3D coordinates assigned)
CC/C(O)=[N+](/c1ccccc1)C1CCN(C(=O)[C@@H]([NH3+])C2Cc3ccccc3C2)CC1 (nonaromatic ring conformer: 89.62017243529434 kcal/mol)

>  <smiles>  (5) 
CCC(=O)N(c1ccccc1)C1CCN(C(=O)[C@@H](N)C2Cc3ccccc3C2)CC1

>  <score_type>  (5) 
oracle

>  <origin>  (5) 
autodockgpu

>  <m_score__min__energy>  (5) 
-8.0399999999999991

>  <m_primary>  (5) 
energy

>  <meeko>  (5) 
{"free_energy": -7.88, "intermolecular_energy": -10.26, "internal_energy": -1.68, "cluster_size": 5, "cluster_id": 1, "rank_in_cluster": 4}

>  <energy>  (5) 
-7.87

>  <cluster_rmsd>  (5) 
0.54

>  <rmsd>  (5) 
268.91

>  <cluster>  (5) 
1

$$$$
MCZRVQBLWAUNOI-UKKWOIQDNA-P
     RDKit          3D

 63 66  0  0  0  0  0  0  0  0999 V2000
  138.9490   74.0550  223.0640 H   0  0  0  0  0  0  0  0  0  0  0  0
  139.2770   74.8530  222.5360 O   0  0  0  0  0  0  0  0  0  0  0  0
  138.5600   76.0470  222.3680 C   0  0  0  0  0  0  0  0  0  0  0  0
  139.0550   77.0410  221.6420 N   0  0  0  0  0  0  0  0  0  0  0  0
  139.8990   78.0180  222.2800 C   0  0  0  0  0  0  0  0  0  0  0  0
  139.3460   78.9530  223.1680 C   0  0  0  0  0  0  0  0  0  0  0  0
  138.2681   78.9328  223.3866 H   0  0  0  0  0  0  0  0  0  0  0  0
  140.1640   79.9100  223.7750 C   0  0  0  0  0  0  0  0  0  0  0  0
  139.7298   80.6380  224.4761 H   0  0  0  0  0  0  0  0  0  0  0  0
  141.5330   79.9440  223.4930 C   0  0  0  0  0  0  0  0  0  0  0  0
  142.1749   80.6967  223.9741 H   0  0  0  0  0  0  0  0  0  0  0  0
  142.0870   79.0210  222.5990 C   0  0  0  0  0  0  0  0  0  0  0  0
  143.1638   79.0497  222.3759 H   0  0  0  0  0  0  0  0  0  0  0  0
  141.2720   78.0620  221.9890 C   0  0  0  0  0  0  0  0  0  0  0  0
  141.7069   77.3416  221.2806 H   0  0  0  0  0  0  0  0  0  0  0  0
  138.8290   77.2690  220.1920 C   0  0  0  0  0  0  0  0  0  0  0  0
  137.8980   76.7548  219.9114 H   0  0  0  0  0  0  0  0  0  0  0  0
  138.5390   78.7590  219.8690 C   0  0  0  0  0  0  0  0  0  0  0  0
  137.5854   79.0479  220.3350 H   0  0  0  0  0  0  0  0  0  0  0  0
  139.3652   79.3678  220.2650 H   0  0  0  0  0  0  0  0  0  0  0  0
  138.4470   78.9920  218.3580 C   0  0  0  0  0  0  0  0  0  0  0  0
  137.5316   78.5214  217.9700 H   0  0  0  0  0  0  0  0  0  0  0  0
  138.4191   80.0729  218.1559 H   0  0  0  0  0  0  0  0  0  0  0  0
  139.6160   78.4030  217.6980 N   0  0  0  0  0  0  0  0  0  0  0  0
  140.7620   79.2360  217.4170 C   0  0  0  0  0  0  0  0  0  0  0  0
  140.9330   80.3010  218.0750 O   0  0  0  0  0  0  0  0  0  0  0  0
  141.7190   78.9260  216.2810 C   0  0  2  0  0  0  0  0  0  0  0  0
  141.1796   78.3800  215.4931 H   0  0  0  0  0  0  0  0  0  0  0  0
  142.8830   78.0170  216.7690 C   0  0  0  0  0  0  0  0  0  0  0  0
  143.7776   78.5335  216.3911 H   0  0  0  0  0  0  0  0  0  0  0  0
  142.8010   76.5750  216.2100 C   0  0  0  0  0  0  0  0  0  0  0  0
  141.7721   76.3281  215.9094 H   0  0  0  0  0  0  0  0  0  0  0  0
  143.4186   76.4288  215.3116 H   0  0  0  0  0  0  0  0  0  0  0  0
  143.2350   75.7350  217.3500 C   0  0  0  0  0  0  0  0  0  0  0  0
  143.4870   74.3590  217.3340 C   0  0  0  0  0  0  0  0  0  0  0  0
  143.4038   73.7848  216.3994 H   0  0  0  0  0  0  0  0  0  0  0  0
  143.8480   73.7250  218.5330 C   0  0  0  0  0  0  0  0  0  0  0  0
  144.0554   72.6448  218.5422 H   0  0  0  0  0  0  0  0  0  0  0  0
  143.9450   74.4690  219.7230 C   0  0  0  0  0  0  0  0  0  0  0  0
  144.2349   73.9697  220.6593 H   0  0  0  0  0  0  0  0  0  0  0  0
  143.6730   75.8470  219.7200 C   0  0  0  0  0  0  0  0  0  0  0  0
  143.7374   76.4338  220.6482 H   0  0  0  0  0  0  0  0  0  0  0  0
  143.3190   76.4570  218.5140 C   0  0  0  0  0  0  0  0  0  0  0  0
  142.9500   77.8760  218.3110 C   0  0  0  0  0  0  0  0  0  0  0  0
  141.9746   78.0977  218.7686 H   0  0  0  0  0  0  0  0  0  0  0  0
  143.6632   78.5740  218.7739 H   0  0  0  0  0  0  0  0  0  0  0  0
  142.2390   80.1860  215.7320 N   0  0  0  0  0  0  0  0  0  0  0  0
  143.2770   80.1350  215.6210 H   0  0  0  0  0  0  0  0  0  0  0  0
  142.0040   80.9890  216.3620 H   0  0  0  0  0  0  0  0  0  0  0  0
  141.8210   80.3590  214.7880 H   0  0  0  0  0  0  0  0  0  0  0  0
  139.7370   76.9460  217.8310 C   0  0  0  0  0  0  0  0  0  0  0  0
  138.8315   76.4651  217.4325 H   0  0  0  0  0  0  0  0  0  0  0  0
  140.6154   76.5983  217.2675 H   0  0  0  0  0  0  0  0  0  0  0  0
  139.9010   76.5800  219.3070 C   0  0  0  0  0  0  0  0  0  0  0  0
  139.8064   75.4896  219.4165 H   0  0  0  0  0  0  0  0  0  0  0  0
  140.8918   76.9250  219.6376 H   0  0  0  0  0  0  0  0  0  0  0  0
  137.2200   76.0710  223.0750 C   0  0  0  0  0  0  0  0  0  0  0  0
  137.3845   76.0545  224.1625 H   0  0  0  0  0  0  0  0  0  0  0  0
  136.6392   75.1897  222.7651 H   0  0  0  0  0  0  0  0  0  0  0  0
  136.4400   77.3310  222.7040 C   0  0  0  0  0  0  0  0  0  0  0  0
  136.1202   77.8476  223.6210 H   0  0  0  0  0  0  0  0  0  0  0  0
  137.0827   77.9991  222.1119 H   0  0  0  0  0  0  0  0  0  0  0  0
  135.5554   77.0536  222.1119 H   0  0  0  0  0  0  0  0  0  0  0  0
  1  2  1  0
  2  3  1  0
  3  4  2  0
  4  5  1  0
  5  6  2  0
  6  7  1  0
  6  8  1  0
  8  9  1  0
  8 10  2  0
 10 11  1  0
 10 12  1  0
 12 13  1  0
 12 14  2  0
 14 15  1  0
  4 16  1  0
 16 17  1  0
 16 18  1  0
 18 19  1  0
 18 20  1  0
 18 21  1  0
 21 22  1  0
 21 23  1  0
 21 24  1  0
 24 25  1  0
 25 26  2  0
 25 27  1  0
 27 28  1  6
 27 29  1  0
 29 30  1  0
 29 31  1  0
 31 32  1  0
 31 33  1  0
 31 34  1  0
 34 35  2  0
 35 36  1  0
 35 37  1  0
 37 38  1  0
 37 39  2  0
 39 40  1  0
 39 41  1  0
 41 42  1  0
 41 43  2  0
 43 44  1  0
 44 45  1  0
 44 46  1  0
 27 47  1  0
 47 48  1  0
 47 49  1  0
 47 50  1  0
 24 51  1  0
 51 52  1  0
 51 53  1  0
 51 54  1  0
 54 55  1  0
 54 56  1  0
  3 57  1  0
 57 58  1  0
 57 59  1  0
 57 60  1  0
 60 61  1  0
 60 62  1  0
 60 63  1  0
 14  5  1  0
 54 16  1  0
 44 29  1  0
 43 34  1  0
M  CHG  2   4   1  47   1
M  END
>  <UniqueID>  (6) 
43

>  <SMILES>  (6) 
CC/C(O)=[N+](/c1ccccc1)C1CCN(C(=O)[C@@H]([NH3+])C2Cc3ccccc3C2)CC1

>  <Energy>  (6) 
89.62017243529434

>  <Genealogy>  (6) 
CCC(=O)[NH+](c1ccccc1)C1CCN(C(=O)[C@@H]([NH3+])C2Cc3ccccc3C2)CC1 (protonated)
CCC(O)=[N+](c1ccccc1)C1CCN(C(=O)[C@@H]([NH3+])C2Cc3ccccc3C2)CC1 (tautomer)
CC/C(O)=[N+](/c1ccccc1)C1CCN(C(=O)[C@@H]([NH3+])C2Cc3ccccc3C2)CC1 (cis-trans isomerization)
CC/C(O)=[N+](/c1ccccc1)C1CCN(C(=O)[C@@H]([NH3+])C2Cc3ccccc3C2)CC1 (3D coordinates assigned)
CC/C(O)=[N+](/c1ccccc1)C1CCN(C(=O)[C@@H]([NH3+])C2Cc3ccccc3C2)CC1 (nonaromatic ring conformer: 89.62017243529434 kcal/mol)

>  <smiles>  (6) 
CCC(=O)N(c1ccccc1)C1CCN(C(=O)[C@@H](N)C2Cc3ccccc3C2)CC1

>  <score_type>  (6) 
oracle

>  <origin>  (6) 
autodockgpu

>  <m_score__min__energy>  (6) 
-8.0399999999999991

>  <m_primary>  (6) 
energy

>  <meeko>  (6) 
{"free_energy": -6.45, "intermolecular_energy": -8.84, "internal_energy": -2.83, "cluster_size": 8, "cluster_id": 3, "rank_in_cluster": 4}

>  <energy>  (6) 
-7.55

>  <cluster_rmsd>  (6) 
0.0

>  <rmsd>  (6) 
268.76

>  <cluster>  (6) 
2

$$$$
MCZRVQBLWAUNOI-UKKWOIQDNA-P
     RDKit          3D

 63 66  0  0  0  0  0  0  0  0999 V2000
  138.9640   73.9680  223.0210 H   0  0  0  0  0  0  0  0  0  0  0  0
  139.2030   74.7020  222.3660 O   0  0  0  0  0  0  0  0  0  0  0  0
  138.5470   75.9390  222.2820 C   0  0  0  0  0  0  0  0  0  0  0  0
  139.0480   76.9250  221.5490 N   0  0  0  0  0  0  0  0  0  0  0  0
  139.8650   77.9230  222.1880 C   0  0  0  0  0  0  0  0  0  0  0  0
  139.2910   78.8260  223.0960 C   0  0  0  0  0  0  0  0  0  0  0  0
  138.2177   78.7636  223.3288 H   0  0  0  0  0  0  0  0  0  0  0  0
  140.0820   79.8050  223.7050 C   0  0  0  0  0  0  0  0  0  0  0  0
  139.6317   80.5076  224.4217 H   0  0  0  0  0  0  0  0  0  0  0  0
  141.4450   79.8920  223.4040 C   0  0  0  0  0  0  0  0  0  0  0  0
  142.0663   80.6610  223.8864 H   0  0  0  0  0  0  0  0  0  0  0  0
  142.0190   79.0020  222.4900 C   0  0  0  0  0  0  0  0  0  0  0  0
  143.0907   79.0730  222.2525 H   0  0  0  0  0  0  0  0  0  0  0  0
  141.2310   78.0220  221.8780 C   0  0  0  0  0  0  0  0  0  0  0  0
  141.6817   77.3281  221.1531 H   0  0  0  0  0  0  0  0  0  0  0  0
  138.8540   77.1230  220.0890 C   0  0  0  0  0  0  0  0  0  0  0  0
  137.9749   76.5370  219.7829 H   0  0  0  0  0  0  0  0  0  0  0  0
  138.4630   78.5840  219.7410 C   0  0  0  0  0  0  0  0  0  0  0  0
  137.4749   78.8029  220.1720 H   0  0  0  0  0  0  0  0  0  0  0  0
  139.2269   79.2568  220.1579 H   0  0  0  0  0  0  0  0  0  0  0  0
  138.4050   78.7980  218.2260 C   0  0  0  0  0  0  0  0  0  0  0  0
  137.5413   78.2566  217.8125 H   0  0  0  0  0  0  0  0  0  0  0  0
  138.3027   79.8722  218.0122 H   0  0  0  0  0  0  0  0  0  0  0  0
  139.6370   78.2940  217.6110 N   0  0  0  0  0  0  0  0  0  0  0  0
  140.7250   79.2090  217.3580 C   0  0  0  0  0  0  0  0  0  0  0  0
  140.7920   80.2890  218.0110 O   0  0  0  0  0  0  0  0  0  0  0  0
  141.7400   78.9630  216.2590 C   0  0  2  0  0  0  0  0  0  0  0  0
  141.2535   78.4239  215.4327 H   0  0  0  0  0  0  0  0  0  0  0  0
  142.9100   78.0770  216.7720 C   0  0  0  0  0  0  0  0  0  0  0  0
  143.8021   78.6156  216.4196 H   0  0  0  0  0  0  0  0  0  0  0  0
  142.8740   76.6360  216.2040 C   0  0  0  0  0  0  0  0  0  0  0  0
  141.8590   76.3690  215.8747 H   0  0  0  0  0  0  0  0  0  0  0  0
  143.5187   76.5082  215.3220 H   0  0  0  0  0  0  0  0  0  0  0  0
  143.2950   75.7990  217.3500 C   0  0  0  0  0  0  0  0  0  0  0  0
  143.5780   74.4290  217.3330 C   0  0  0  0  0  0  0  0  0  0  0  0
  143.5326   73.8588  216.3934 H   0  0  0  0  0  0  0  0  0  0  0  0
  143.9210   73.7960  218.5380 C   0  0  0  0  0  0  0  0  0  0  0  0
  144.1503   72.7202  218.5471 H   0  0  0  0  0  0  0  0  0  0  0  0
  143.9720   74.5350  219.7340 C   0  0  0  0  0  0  0  0  0  0  0  0
  144.2493   74.0369  220.6747 H   0  0  0  0  0  0  0  0  0  0  0  0
  143.6700   75.9070  219.7310 C   0  0  0  0  0  0  0  0  0  0  0  0
  143.6969   76.4896  220.6637 H   0  0  0  0  0  0  0  0  0  0  0  0
  143.3350   76.5160  218.5200 C   0  0  0  0  0  0  0  0  0  0  0  0
  142.9410   77.9280  218.3150 C   0  0  0  0  0  0  0  0  0  0  0  0
  141.9498   78.1262  218.7488 H   0  0  0  0  0  0  0  0  0  0  0  0
  143.6273   78.6381  218.7995 H   0  0  0  0  0  0  0  0  0  0  0  0
  142.2430   80.2550  215.7700 N   0  0  0  0  0  0  0  0  0  0  0  0
  143.2690   80.2000  215.5830 H   0  0  0  0  0  0  0  0  0  0  0  0
  142.0660   81.0110  216.4740 H   0  0  0  0  0  0  0  0  0  0  0  0
  141.7630   80.5050  214.8740 H   0  0  0  0  0  0  0  0  0  0  0  0
  139.8630   76.8510  217.7630 C   0  0  0  0  0  0  0  0  0  0  0  0
  139.0100   76.2997  217.3405 H   0  0  0  0  0  0  0  0  0  0  0  0
  140.7831   76.5659  217.2318 H   0  0  0  0  0  0  0  0  0  0  0  0
  140.0050   76.5110  219.2480 C   0  0  0  0  0  0  0  0  0  0  0  0
  139.9906   75.4175  219.3664 H   0  0  0  0  0  0  0  0  0  0  0  0
  140.9548   76.9338  219.6074 H   0  0  0  0  0  0  0  0  0  0  0  0
  137.2630   76.0170  223.0820 C   0  0  0  0  0  0  0  0  0  0  0  0
  137.5043   76.2348  224.1329 H   0  0  0  0  0  0  0  0  0  0  0  0
  136.7374   75.0538  223.0044 H   0  0  0  0  0  0  0  0  0  0  0  0
  136.3560   77.1190  222.5360 C   0  0  0  0  0  0  0  0  0  0  0  0
  135.9029   77.6695  223.3736 H   0  0  0  0  0  0  0  0  0  0  0  0
  136.9496   77.8111  221.9207 H   0  0  0  0  0  0  0  0  0  0  0  0
  135.5626   76.6696  221.9207 H   0  0  0  0  0  0  0  0  0  0  0  0
  1  2  1  0
  2  3  1  0
  3  4  2  0
  4  5  1  0
  5  6  2  0
  6  7  1  0
  6  8  1  0
  8  9  1  0
  8 10  2  0
 10 11  1  0
 10 12  1  0
 12 13  1  0
 12 14  2  0
 14 15  1  0
  4 16  1  0
 16 17  1  0
 16 18  1  0
 18 19  1  0
 18 20  1  0
 18 21  1  0
 21 22  1  0
 21 23  1  0
 21 24  1  0
 24 25  1  0
 25 26  2  0
 25 27  1  0
 27 28  1  6
 27 29  1  0
 29 30  1  0
 29 31  1  0
 31 32  1  0
 31 33  1  0
 31 34  1  0
 34 35  2  0
 35 36  1  0
 35 37  1  0
 37 38  1  0
 37 39  2  0
 39 40  1  0
 39 41  1  0
 41 42  1  0
 41 43  2  0
 43 44  1  0
 44 45  1  0
 44 46  1  0
 27 47  1  0
 47 48  1  0
 47 49  1  0
 47 50  1  0
 24 51  1  0
 51 52  1  0
 51 53  1  0
 51 54  1  0
 54 55  1  0
 54 56  1  0
  3 57  1  0
 57 58  1  0
 57 59  1  0
 57 60  1  0
 60 61  1  0
 60 62  1  0
 60 63  1  0
 14  5  1  0
 54 16  1  0
 44 29  1  0
 43 34  1  0
M  CHG  2   4   1  47   1
M  END
>  <UniqueID>  (7) 
43

>  <SMILES>  (7) 
CC/C(O)=[N+](/c1ccccc1)C1CCN(C(=O)[C@@H]([NH3+])C2Cc3ccccc3C2)CC1

>  <Energy>  (7) 
89.62017243529434

>  <Genealogy>  (7) 
CCC(=O)[NH+](c1ccccc1)C1CCN(C(=O)[C@@H]([NH3+])C2Cc3ccccc3C2)CC1 (protonated)
CCC(O)=[N+](c1ccccc1)C1CCN(C(=O)[C@@H]([NH3+])C2Cc3ccccc3C2)CC1 (tautomer)
CC/C(O)=[N+](/c1ccccc1)C1CCN(C(=O)[C@@H]([NH3+])C2Cc3ccccc3C2)CC1 (cis-trans isomerization)
CC/C(O)=[N+](/c1ccccc1)C1CCN(C(=O)[C@@H]([NH3+])C2Cc3ccccc3C2)CC1 (3D coordinates assigned)
CC/C(O)=[N+](/c1ccccc1)C1CCN(C(=O)[C@@H]([NH3+])C2Cc3ccccc3C2)CC1 (nonaromatic ring conformer: 89.62017243529434 kcal/mol)

>  <smiles>  (7) 
CCC(=O)N(c1ccccc1)C1CCN(C(=O)[C@@H](N)C2Cc3ccccc3C2)CC1

>  <score_type>  (7) 
oracle

>  <origin>  (7) 
autodockgpu

>  <m_score__min__energy>  (7) 
-8.0399999999999991

>  <m_primary>  (7) 
energy

>  <meeko>  (7) 
{"free_energy": -6.41, "intermolecular_energy": -8.8, "internal_energy": -2.84, "cluster_size": 8, "cluster_id": 3, "rank_in_cluster": 8}

>  <energy>  (7) 
-6.61

>  <cluster_rmsd>  (7) 
0.0

>  <rmsd>  (7) 
268.34

>  <cluster>  (7) 
3

$$$$
MCZRVQBLWAUNOI-UKKWOIQDNA-P
     RDKit          3D

 63 66  0  0  0  0  0  0  0  0999 V2000
  139.0450   74.0980  223.0550 H   0  0  0  0  0  0  0  0  0  0  0  0
  139.3540   74.8800  222.4930 O   0  0  0  0  0  0  0  0  0  0  0  0
  138.6570   76.0900  222.3590 C   0  0  0  0  0  0  0  0  0  0  0  0
  139.1620   77.0900  221.6480 N   0  0  0  0  0  0  0  0  0  0  0  0
  140.0150   78.0490  222.3010 C   0  0  0  0  0  0  0  0  0  0  0  0
  139.4740   78.9600  223.2210 C   0  0  0  0  0  0  0  0  0  0  0  0
  138.3991   78.9338  223.4530 H   0  0  0  0  0  0  0  0  0  0  0  0
  140.3000   79.9010  223.8430 C   0  0  0  0  0  0  0  0  0  0  0  0
  139.8753   80.6107  224.5683 H   0  0  0  0  0  0  0  0  0  0  0  0
  141.6660   79.9410  223.5440 C   0  0  0  0  0  0  0  0  0  0  0  0
  142.3151   80.6799  224.0366 H   0  0  0  0  0  0  0  0  0  0  0  0
  142.2070   79.0420  222.6190 C   0  0  0  0  0  0  0  0  0  0  0  0
  143.2810   79.0751  222.3838 H   0  0  0  0  0  0  0  0  0  0  0  0
  141.3830   78.1010  221.9930 C   0  0  0  0  0  0  0  0  0  0  0  0
  141.8078   77.4010  221.2585 H   0  0  0  0  0  0  0  0  0  0  0  0
  138.9380   77.3420  220.2010 C   0  0  0  0  0  0  0  0  0  0  0  0
  137.9666   76.9039  219.9282 H   0  0  0  0  0  0  0  0  0  0  0  0
  138.7630   78.8520  219.8880 C   0  0  0  0  0  0  0  0  0  0  0  0
  137.8404   79.2126  220.3662 H   0  0  0  0  0  0  0  0  0  0  0  0
  139.6391   79.3914  220.2772 H   0  0  0  0  0  0  0  0  0  0  0  0
  138.6730   79.1000  218.3790 C   0  0  0  0  0  0  0  0  0  0  0  0
  137.7192   78.7051  217.9990 H   0  0  0  0  0  0  0  0  0  0  0  0
  138.7278   80.1808  218.1818 H   0  0  0  0  0  0  0  0  0  0  0  0
  139.7850   78.4240  217.7040 N   0  0  0  0  0  0  0  0  0  0  0  0
  140.9890   79.1660  217.4120 C   0  0  0  0  0  0  0  0  0  0  0  0
  141.2500   80.2110  218.0740 O   0  0  0  0  0  0  0  0  0  0  0  0
  141.9060   78.7880  216.2650 C   0  0  2  0  0  0  0  0  0  0  0  0
  141.3124   78.3172  215.4675 H   0  0  0  0  0  0  0  0  0  0  0  0
  142.9740   77.7550  216.7260 C   0  0  0  0  0  0  0  0  0  0  0  0
  143.8990   78.1299  216.2635 H   0  0  0  0  0  0  0  0  0  0  0  0
  142.6660   76.3130  216.2530 C   0  0  0  0  0  0  0  0  0  0  0  0
  141.5950   76.1921  216.0333 H   0  0  0  0  0  0  0  0  0  0  0  0
  143.1942   76.0454  215.3260 H   0  0  0  0  0  0  0  0  0  0  0  0
  143.0670   75.4750  217.4060 C   0  0  0  0  0  0  0  0  0  0  0  0
  143.1370   74.0790  217.4490 C   0  0  0  0  0  0  0  0  0  0  0  0
  142.9141   73.4792  216.5543 H   0  0  0  0  0  0  0  0  0  0  0  0
  143.4970   73.4570  218.6550 C   0  0  0  0  0  0  0  0  0  0  0  0
  143.5626   72.3603  218.7098 H   0  0  0  0  0  0  0  0  0  0  0  0
  143.7740   74.2360  219.7940 C   0  0  0  0  0  0  0  0  0  0  0  0
  144.0622   73.7461  220.7358 H   0  0  0  0  0  0  0  0  0  0  0  0
  143.6840   75.6360  219.7330 C   0  0  0  0  0  0  0  0  0  0  0  0
  143.8906   76.2508  220.6215 H   0  0  0  0  0  0  0  0  0  0  0  0
  143.3270   76.2320  218.5220 C   0  0  0  0  0  0  0  0  0  0  0  0
  143.1320   77.6770  218.2660 C   0  0  0  0  0  0  0  0  0  0  0  0
  142.2288   78.0475  218.7729 H   0  0  0  0  0  0  0  0  0  0  0  0
  143.9610   78.2940  218.6429 H   0  0  0  0  0  0  0  0  0  0  0  0
  142.5480   80.0020  215.7420 N   0  0  0  0  0  0  0  0  0  0  0  0
  141.8490   80.6010  215.2490 H   0  0  0  0  0  0  0  0  0  0  0  0
  143.3150   79.7550  215.0730 H   0  0  0  0  0  0  0  0  0  0  0  0
  142.9510   80.5570  216.5320 H   0  0  0  0  0  0  0  0  0  0  0  0
  139.7920   76.9610  217.8290 C   0  0  0  0  0  0  0  0  0  0  0  0
  138.8467   76.5551  217.4395 H   0  0  0  0  0  0  0  0  0  0  0  0
  140.6332   76.5477  217.2532 H   0  0  0  0  0  0  0  0  0  0  0  0
  139.9440   76.5760  219.3020 C   0  0  0  0  0  0  0  0  0  0  0  0
  139.7665   75.4956  219.4084 H   0  0  0  0  0  0  0  0  0  0  0  0
  140.9622   76.8412  219.6229 H   0  0  0  0  0  0  0  0  0  0  0  0
  137.3260   76.1220  223.0820 C   0  0  0  0  0  0  0  0  0  0  0  0
  137.5037   76.1250  224.1675 H   0  0  0  0  0  0  0  0  0  0  0  0
  136.7441   75.2336  222.7953 H   0  0  0  0  0  0  0  0  0  0  0  0
  136.5380   77.3740  222.6980 C   0  0  0  0  0  0  0  0  0  0  0  0
  136.2101   77.8949  223.6097 H   0  0  0  0  0  0  0  0  0  0  0  0
  137.1785   78.0425  222.1040 H   0  0  0  0  0  0  0  0  0  0  0  0
  135.6582   77.0857  222.1040 H   0  0  0  0  0  0  0  0  0  0  0  0
  1  2  1  0
  2  3  1  0
  3  4  2  0
  4  5  1  0
  5  6  2  0
  6  7  1  0
  6  8  1  0
  8  9  1  0
  8 10  2  0
 10 11  1  0
 10 12  1  0
 12 13  1  0
 12 14  2  0
 14 15  1  0
  4 16  1  0
 16 17  1  0
 16 18  1  0
 18 19  1  0
 18 20  1  0
 18 21  1  0
 21 22  1  0
 21 23  1  0
 21 24  1  0
 24 25  1  0
 25 26  2  0
 25 27  1  0
 27 28  1  6
 27 29  1  0
 29 30  1  0
 29 31  1  0
 31 32  1  0
 31 33  1  0
 31 34  1  0
 34 35  2  0
 35 36  1  0
 35 37  1  0
 37 38  1  0
 37 39  2  0
 39 40  1  0
 39 41  1  0
 41 42  1  0
 41 43  2  0
 43 44  1  0
 44 45  1  0
 44 46  1  0
 27 47  1  0
 47 48  1  0
 47 49  1  0
 47 50  1  0
 24 51  1  0
 51 52  1  0
 51 53  1  0
 51 54  1  0
 54 55  1  0
 54 56  1  0
  3 57  1  0
 57 58  1  0
 57 59  1  0
 57 60  1  0
 60 61  1  0
 60 62  1  0
 60 63  1  0
 14  5  1  0
 54 16  1  0
 44 29  1  0
 43 34  1  0
M  CHG  2   4   1  47   1
M  END
>  <UniqueID>  (8) 
43

>  <SMILES>  (8) 
CC/C(O)=[N+](/c1ccccc1)C1CCN(C(=O)[C@@H]([NH3+])C2Cc3ccccc3C2)CC1

>  <Energy>  (8) 
89.62017243529434

>  <Genealogy>  (8) 
CCC(=O)[NH+](c1ccccc1)C1CCN(C(=O)[C@@H]([NH3+])C2Cc3ccccc3C2)CC1 (protonated)
CCC(O)=[N+](c1ccccc1)C1CCN(C(=O)[C@@H]([NH3+])C2Cc3ccccc3C2)CC1 (tautomer)
CC/C(O)=[N+](/c1ccccc1)C1CCN(C(=O)[C@@H]([NH3+])C2Cc3ccccc3C2)CC1 (cis-trans isomerization)
CC/C(O)=[N+](/c1ccccc1)C1CCN(C(=O)[C@@H]([NH3+])C2Cc3ccccc3C2)CC1 (3D coordinates assigned)
CC/C(O)=[N+](/c1ccccc1)C1CCN(C(=O)[C@@H]([NH3+])C2Cc3ccccc3C2)CC1 (nonaromatic ring conformer: 89.62017243529434 kcal/mol)

>  <smiles>  (8) 
CCC(=O)N(c1ccccc1)C1CCN(C(=O)[C@@H](N)C2Cc3ccccc3C2)CC1

>  <score_type>  (8) 
oracle

>  <origin>  (8) 
autodockgpu

>  <m_score__min__energy>  (8) 
-8.0399999999999991

>  <m_primary>  (8) 
energy

>  <meeko>  (8) 
{"free_energy": -6.59, "intermolecular_energy": -8.97, "internal_energy": -2.72, "cluster_size": 8, "cluster_id": 3, "rank_in_cluster": 2}

>  <energy>  (8) 
-6.59

>  <cluster_rmsd>  (8) 
0.04

>  <rmsd>  (8) 
268.32

>  <cluster>  (8) 
3

$$$$
MCZRVQBLWAUNOI-UKKWOIQDNA-P
     RDKit          3D

 63 66  0  0  0  0  0  0  0  0999 V2000
  143.6270   80.1490  217.1190 H   0  0  0  0  0  0  0  0  0  0  0  0
  143.4760   80.3960  218.0890 O   0  0  0  0  0  0  0  0  0  0  0  0
  142.2510   80.8250  218.6200 C   0  0  0  0  0  0  0  0  0  0  0  0
  141.5680   80.0560  219.4590 N   0  0  0  0  0  0  0  0  0  0  0  0
  141.7560   80.2300  220.8750 C   0  0  0  0  0  0  0  0  0  0  0  0
  142.1940   79.1560  221.6640 C   0  0  0  0  0  0  0  0  0  0  0  0
  142.4055   78.1823  221.1980 H   0  0  0  0  0  0  0  0  0  0  0  0
  142.3620   79.3220  223.0420 C   0  0  0  0  0  0  0  0  0  0  0  0
  142.7126   78.4806  223.6577 H   0  0  0  0  0  0  0  0  0  0  0  0
  142.0850   80.5560  223.6390 C   0  0  0  0  0  0  0  0  0  0  0  0
  142.2196   80.6849  224.7231 H   0  0  0  0  0  0  0  0  0  0  0  0
  141.6370   81.6260  222.8580 C   0  0  0  0  0  0  0  0  0  0  0  0
  141.4188   82.5961  223.3285 H   0  0  0  0  0  0  0  0  0  0  0  0
  141.4660   81.4640  221.4790 C   0  0  0  0  0  0  0  0  0  0  0  0
  141.1042   82.3038  220.8675 H   0  0  0  0  0  0  0  0  0  0  0  0
  140.5950   78.9970  219.0870 C   0  0  0  0  0  0  0  0  0  0  0  0
  140.2795   79.1796  218.0492 H   0  0  0  0  0  0  0  0  0  0  0  0
  141.2490   77.5900  219.0330 C   0  0  0  0  0  0  0  0  0  0  0  0
  141.9876   77.5691  218.2182 H   0  0  0  0  0  0  0  0  0  0  0  0
  141.7325   77.3943  220.0014 H   0  0  0  0  0  0  0  0  0  0  0  0
  140.2030   76.5000  218.7860 C   0  0  0  0  0  0  0  0  0  0  0  0
  139.8235   76.5832  217.7569 H   0  0  0  0  0  0  0  0  0  0  0  0
  140.6642   75.5117  218.9294 H   0  0  0  0  0  0  0  0  0  0  0  0
  139.0930   76.6610  219.7300 N   0  0  0  0  0  0  0  0  0  0  0  0
  139.0980   75.9050  220.9600 C   0  0  0  0  0  0  0  0  0  0  0  0
  140.1900   75.4540  221.4080 O   0  0  0  0  0  0  0  0  0  0  0  0
  137.8150   75.5450  221.6850 C   0  0  2  0  0  0  0  0  0  0  0  0
  136.9934   75.4829  220.9562 H   0  0  0  0  0  0  0  0  0  0  0  0
  137.4390   76.6410  222.7240 C   0  0  0  0  0  0  0  0  0  0  0  0
  137.1607   76.0565  223.6134 H   0  0  0  0  0  0  0  0  0  0  0  0
  136.2620   77.5360  222.2620 C   0  0  0  0  0  0  0  0  0  0  0  0
  136.1599   77.5163  221.1669 H   0  0  0  0  0  0  0  0  0  0  0  0
  135.2913   77.2046  222.6593 H   0  0  0  0  0  0  0  0  0  0  0  0
  136.6460   78.8860  222.7330 C   0  0  0  0  0  0  0  0  0  0  0  0
  135.8580   80.0410  222.7090 C   0  0  0  0  0  0  0  0  0  0  0  0
  134.8216   80.0048  222.3423 H   0  0  0  0  0  0  0  0  0  0  0  0
  136.4150   81.2480  223.1620 C   0  0  0  0  0  0  0  0  0  0  0  0
  135.8122   82.1681  223.1557 H   0  0  0  0  0  0  0  0  0  0  0  0
  137.7440   81.2810  223.6240 C   0  0  0  0  0  0  0  0  0  0  0  0
  138.1751   82.2264  223.9850 H   0  0  0  0  0  0  0  0  0  0  0  0
  138.5220   80.1120  223.6260 C   0  0  0  0  0  0  0  0  0  0  0  0
  139.5645   80.1322  223.9764 H   0  0  0  0  0  0  0  0  0  0  0  0
  137.9450   78.9230  223.1740 C   0  0  0  0  0  0  0  0  0  0  0  0
  138.6070   77.6040  223.0530 C   0  0  0  0  0  0  0  0  0  0  0  0
  139.3511   77.6105  222.2429 H   0  0  0  0  0  0  0  0  0  0  0  0
  139.1565   77.3159  223.9613 H   0  0  0  0  0  0  0  0  0  0  0  0
  137.9820   74.2410  222.3420 N   0  0  0  0  0  0  0  0  0  0  0  0
  137.8160   73.4660  221.6620 H   0  0  0  0  0  0  0  0  0  0  0  0
  137.3130   74.1410  223.1410 H   0  0  0  0  0  0  0  0  0  0  0  0
  138.9600   74.1510  222.7040 H   0  0  0  0  0  0  0  0  0  0  0  0
  138.3430   77.9160  219.5990 C   0  0  0  0  0  0  0  0  0  0  0  0
  137.9484   78.0023  218.5758 H   0  0  0  0  0  0  0  0  0  0  0  0
  137.5083   77.9209  220.3154 H   0  0  0  0  0  0  0  0  0  0  0  0
  139.2710   79.0970  219.8890 C   0  0  0  0  0  0  0  0  0  0  0  0
  138.7572   80.0299  219.6139 H   0  0  0  0  0  0  0  0  0  0  0  0
  139.5177   79.0840  220.9609 H   0  0  0  0  0  0  0  0  0  0  0  0
  141.8170   82.1990  218.1520 C   0  0  0  0  0  0  0  0  0  0  0  0
  141.5240   82.8024  219.0238 H   0  0  0  0  0  0  0  0  0  0  0  0
  140.9659   82.0879  217.4640 H   0  0  0  0  0  0  0  0  0  0  0  0
  142.9590   82.9000  217.4160 C   0  0  0  0  0  0  0  0  0  0  0  0
  143.6584   83.3293  218.1485 H   0  0  0  0  0  0  0  0  0  0  0  0
  143.4900   82.1721  216.7850 H   0  0  0  0  0  0  0  0  0  0  0  0
  142.5503   83.7030  216.7850 H   0  0  0  0  0  0  0  0  0  0  0  0
  1  2  1  0
  2  3  1  0
  3  4  2  0
  4  5  1  0
  5  6  2  0
  6  7  1  0
  6  8  1  0
  8  9  1  0
  8 10  2  0
 10 11  1  0
 10 12  1  0
 12 13  1  0
 12 14  2  0
 14 15  1  0
  4 16  1  0
 16 17  1  0
 16 18  1  0
 18 19  1  0
 18 20  1  0
 18 21  1  0
 21 22  1  0
 21 23  1  0
 21 24  1  0
 24 25  1  0
 25 26  2  0
 25 27  1  0
 27 28  1  6
 27 29  1  0
 29 30  1  0
 29 31  1  0
 31 32  1  0
 31 33  1  0
 31 34  1  0
 34 35  2  0
 35 36  1  0
 35 37  1  0
 37 38  1  0
 37 39  2  0
 39 40  1  0
 39 41  1  0
 41 42  1  0
 41 43  2  0
 43 44  1  0
 44 45  1  0
 44 46  1  0
 27 47  1  0
 47 48  1  0
 47 49  1  0
 47 50  1  0
 24 51  1  0
 51 52  1  0
 51 53  1  0
 51 54  1  0
 54 55  1  0
 54 56  1  0
  3 57  1  0
 57 58  1  0
 57 59  1  0
 57 60  1  0
 60 61  1  0
 60 62  1  0
 60 63  1  0
 14  5  1  0
 54 16  1  0
 44 29  1  0
 43 34  1  0
M  CHG  2   4   1  47   1
M  END
>  <UniqueID>  (9) 
43

>  <SMILES>  (9) 
CC/C(O)=[N+](/c1ccccc1)C1CCN(C(=O)[C@@H]([NH3+])C2Cc3ccccc3C2)CC1

>  <Energy>  (9) 
89.62017243529434

>  <Genealogy>  (9) 
CCC(=O)[NH+](c1ccccc1)C1CCN(C(=O)[C@@H]([NH3+])C2Cc3ccccc3C2)CC1 (protonated)
CCC(O)=[N+](c1ccccc1)C1CCN(C(=O)[C@@H]([NH3+])C2Cc3ccccc3C2)CC1 (tautomer)
CC/C(O)=[N+](/c1ccccc1)C1CCN(C(=O)[C@@H]([NH3+])C2Cc3ccccc3C2)CC1 (cis-trans isomerization)
CC/C(O)=[N+](/c1ccccc1)C1CCN(C(=O)[C@@H]([NH3+])C2Cc3ccccc3C2)CC1 (3D coordinates assigned)
CC/C(O)=[N+](/c1ccccc1)C1CCN(C(=O)[C@@H]([NH3+])C2Cc3ccccc3C2)CC1 (nonaromatic ring conformer: 89.62017243529434 kcal/mol)

>  <smiles>  (9) 
CCC(=O)N(c1ccccc1)C1CCN(C(=O)[C@@H](N)C2Cc3ccccc3C2)CC1

>  <score_type>  (9) 
oracle

>  <origin>  (9) 
autodockgpu

>  <m_score__min__energy>  (9) 
-8.0399999999999991

>  <m_primary>  (9) 
energy

>  <meeko>  (9) 
{"free_energy": -6.1, "intermolecular_energy": -8.48, "internal_energy": -3.08, "cluster_size": 4, "cluster_id": 5, "rank_in_cluster": 3}

>  <energy>  (9) 
-6.45

>  <cluster_rmsd>  (9) 
0.32

>  <rmsd>  (9) 
268.32

>  <cluster>  (9) 
3

$$$$
MCZRVQBLWAUNOI-UKKWOIQDNA-P
     RDKit          3D

 63 66  0  0  0  0  0  0  0  0999 V2000
  139.0530   74.0410  223.0940 H   0  0  0  0  0  0  0  0  0  0  0  0
  139.4190   74.9000  222.7010 O   0  0  0  0  0  0  0  0  0  0  0  0
  138.6550   76.0470  222.4440 C   0  0  0  0  0  0  0  0  0  0  0  0
  139.1370   77.0310  221.6960 N   0  0  0  0  0  0  0  0  0  0  0  0
  139.9840   78.0210  222.3080 C   0  0  0  0  0  0  0  0  0  0  0  0
  139.4390   78.9670  223.1890 C   0  0  0  0  0  0  0  0  0  0  0  0
  138.3644   78.9447  223.4229 H   0  0  0  0  0  0  0  0  0  0  0  0
  140.2600   79.9380  223.7700 C   0  0  0  0  0  0  0  0  0  0  0  0
  139.8319   80.6751  224.4653 H   0  0  0  0  0  0  0  0  0  0  0  0
  141.6250   79.9730  223.4680 C   0  0  0  0  0  0  0  0  0  0  0  0
  142.2701   80.7355  223.9289 H   0  0  0  0  0  0  0  0  0  0  0  0
  142.1710   79.0400  222.5810 C   0  0  0  0  0  0  0  0  0  0  0  0
  143.2446   79.0706  222.3432 H   0  0  0  0  0  0  0  0  0  0  0  0
  141.3530   78.0680  221.9960 C   0  0  0  0  0  0  0  0  0  0  0  0
  141.7817   77.3401  221.2914 H   0  0  0  0  0  0  0  0  0  0  0  0
  138.8920   77.2340  220.2450 C   0  0  0  0  0  0  0  0  0  0  0  0
  137.9759   76.6867  219.9783 H   0  0  0  0  0  0  0  0  0  0  0  0
  138.5520   78.7100  219.9070 C   0  0  0  0  0  0  0  0  0  0  0  0
  137.5936   78.9738  220.3780 H   0  0  0  0  0  0  0  0  0  0  0  0
  139.3621   79.3489  220.2885 H   0  0  0  0  0  0  0  0  0  0  0  0
  138.4400   78.9230  218.3950 C   0  0  0  0  0  0  0  0  0  0  0  0
  137.5370   78.4191  218.0200 H   0  0  0  0  0  0  0  0  0  0  0  0
  138.3756   80.0001  218.1810 H   0  0  0  0  0  0  0  0  0  0  0  0
  139.6220   78.3640  217.7320 N   0  0  0  0  0  0  0  0  0  0  0  0
  140.7380   79.2300  217.4310 C   0  0  0  0  0  0  0  0  0  0  0  0
  140.8800   80.3070  218.0760 O   0  0  0  0  0  0  0  0  0  0  0  0
  141.6950   78.9370  216.2920 C   0  0  2  0  0  0  0  0  0  0  0  0
  141.1576   78.3973  215.4984 H   0  0  0  0  0  0  0  0  0  0  0  0
  142.8630   78.0270  216.7680 C   0  0  0  0  0  0  0  0  0  0  0  0
  143.7534   78.5359  216.3701 H   0  0  0  0  0  0  0  0  0  0  0  0
  142.7660   76.5810  216.2230 C   0  0  0  0  0  0  0  0  0  0  0  0
  141.7313   76.3359  215.9413 H   0  0  0  0  0  0  0  0  0  0  0  0
  143.3683   76.4245  215.3160 H   0  0  0  0  0  0  0  0  0  0  0  0
  143.2150   75.7490  217.3630 C   0  0  0  0  0  0  0  0  0  0  0  0
  143.4620   74.3720  217.3550 C   0  0  0  0  0  0  0  0  0  0  0  0
  143.3610   73.7901  216.4270 H   0  0  0  0  0  0  0  0  0  0  0  0
  143.8410   73.7470  218.5530 C   0  0  0  0  0  0  0  0  0  0  0  0
  144.0445   72.6661  218.5684 H   0  0  0  0  0  0  0  0  0  0  0  0
  143.9610   74.5020  219.7350 C   0  0  0  0  0  0  0  0  0  0  0  0
  144.2650   74.0102  220.6708 H   0  0  0  0  0  0  0  0  0  0  0  0
  143.6940   75.8810  219.7240 C   0  0  0  0  0  0  0  0  0  0  0  0
  143.7755   76.4759  220.6456 H   0  0  0  0  0  0  0  0  0  0  0  0
  143.3230   76.4810  218.5190 C   0  0  0  0  0  0  0  0  0  0  0  0
  142.9560   77.9000  218.3100 C   0  0  0  0  0  0  0  0  0  0  0  0
  141.9895   78.1297  218.7823 H   0  0  0  0  0  0  0  0  0  0  0  0
  143.6795   78.5993  218.7544 H   0  0  0  0  0  0  0  0  0  0  0  0
  142.2090   80.2060  215.7570 N   0  0  0  0  0  0  0  0  0  0  0  0
  143.2420   80.1480  215.6100 H   0  0  0  0  0  0  0  0  0  0  0  0
  142.0030   80.9950  216.4140 H   0  0  0  0  0  0  0  0  0  0  0  0
  141.7610   80.4070  214.8320 H   0  0  0  0  0  0  0  0  0  0  0  0
  139.7900   76.9130  217.8800 C   0  0  0  0  0  0  0  0  0  0  0  0
  138.8968   76.3992  217.4950 H   0  0  0  0  0  0  0  0  0  0  0  0
  140.6738   76.5862  217.3125 H   0  0  0  0  0  0  0  0  0  0  0  0
  139.9780   76.5700  219.3600 C   0  0  0  0  0  0  0  0  0  0  0  0
  139.9198   75.4785  219.4831 H   0  0  0  0  0  0  0  0  0  0  0  0
  140.9597   76.9509  219.6782 H   0  0  0  0  0  0  0  0  0  0  0  0
  137.2830   76.0360  223.0870 C   0  0  0  0  0  0  0  0  0  0  0  0
  137.3960   75.9799  224.1797 H   0  0  0  0  0  0  0  0  0  0  0  0
  136.7246   75.1633  222.7176 H   0  0  0  0  0  0  0  0  0  0  0  0
  136.5110   77.3050  222.7260 C   0  0  0  0  0  0  0  0  0  0  0  0
  136.1985   77.8186  223.6472 H   0  0  0  0  0  0  0  0  0  0  0  0
  137.1568   77.9716  222.1355 H   0  0  0  0  0  0  0  0  0  0  0  0
  135.6222   77.0380  222.1355 H   0  0  0  0  0  0  0  0  0  0  0  0
  1  2  1  0
  2  3  1  0
  3  4  2  0
  4  5  1  0
  5  6  2  0
  6  7  1  0
  6  8  1  0
  8  9  1  0
  8 10  2  0
 10 11  1  0
 10 12  1  0
 12 13  1  0
 12 14  2  0
 14 15  1  0
  4 16  1  0
 16 17  1  0
 16 18  1  0
 18 19  1  0
 18 20  1  0
 18 21  1  0
 21 22  1  0
 21 23  1  0
 21 24  1  0
 24 25  1  0
 25 26  2  0
 25 27  1  0
 27 28  1  6
 27 29  1  0
 29 30  1  0
 29 31  1  0
 31 32  1  0
 31 33  1  0
 31 34  1  0
 34 35  2  0
 35 36  1  0
 35 37  1  0
 37 38  1  0
 37 39  2  0
 39 40  1  0
 39 41  1  0
 41 42  1  0
 41 43  2  0
 43 44  1  0
 44 45  1  0
 44 46  1  0
 27 47  1  0
 47 48  1  0
 47 49  1  0
 47 50  1  0
 24 51  1  0
 51 52  1  0
 51 53  1  0
 51 54  1  0
 54 55  1  0
 54 56  1  0
  3 57  1  0
 57 58  1  0
 57 59  1  0
 57 60  1  0
 60 61  1  0
 60 62  1  0
 60 63  1  0
 14  5  1  0
 54 16  1  0
 44 29  1  0
 43 34  1  0
M  CHG  2   4   1  47   1
M  END
>  <UniqueID>  (10) 
43

>  <SMILES>  (10) 
CC/C(O)=[N+](/c1ccccc1)C1CCN(C(=O)[C@@H]([NH3+])C2Cc3ccccc3C2)CC1

>  <Energy>  (10) 
89.62017243529434

>  <Genealogy>  (10) 
CCC(=O)[NH+](c1ccccc1)C1CCN(C(=O)[C@@H]([NH3+])C2Cc3ccccc3C2)CC1 (protonated)
CCC(O)=[N+](c1ccccc1)C1CCN(C(=O)[C@@H]([NH3+])C2Cc3ccccc3C2)CC1 (tautomer)
CC/C(O)=[N+](/c1ccccc1)C1CCN(C(=O)[C@@H]([NH3+])C2Cc3ccccc3C2)CC1 (cis-trans isomerization)
CC/C(O)=[N+](/c1ccccc1)C1CCN(C(=O)[C@@H]([NH3+])C2Cc3ccccc3C2)CC1 (3D coordinates assigned)
CC/C(O)=[N+](/c1ccccc1)C1CCN(C(=O)[C@@H]([NH3+])C2Cc3ccccc3C2)CC1 (nonaromatic ring conformer: 89.62017243529434 kcal/mol)

>  <smiles>  (10) 
CCC(=O)N(c1ccccc1)C1CCN(C(=O)[C@@H](N)C2Cc3ccccc3C2)CC1

>  <score_type>  (10) 
oracle

>  <origin>  (10) 
autodockgpu

>  <m_score__min__energy>  (10) 
-8.0399999999999991

>  <m_primary>  (10) 
energy

>  <meeko>  (10) 
{"free_energy": -6.44, "intermolecular_energy": -8.83, "internal_energy": -2.84, "cluster_size": 8, "cluster_id": 3, "rank_in_cluster": 5}

>  <energy>  (10) 
-6.45

>  <cluster_rmsd>  (10) 
0.32

>  <rmsd>  (10) 
268.28

>  <cluster>  (10) 
3

$$$$
MCZRVQBLWAUNOI-UKKWOIQDNA-P
     RDKit          3D

 63 66  0  0  0  0  0  0  0  0999 V2000
  143.6380   80.2470  217.1100 H   0  0  0  0  0  0  0  0  0  0  0  0
  143.3130   79.9470  218.0210 O   0  0  0  0  0  0  0  0  0  0  0  0
  142.1790   80.4570  218.6690 C   0  0  0  0  0  0  0  0  0  0  0  0
  141.4680   79.6970  219.4930 N   0  0  0  0  0  0  0  0  0  0  0  0
  141.5980   79.8970  220.9130 C   0  0  0  0  0  0  0  0  0  0  0  0
  141.4670   81.1840  221.4570 C   0  0  0  0  0  0  0  0  0  0  0  0
  141.2524   82.0393  220.7994 H   0  0  0  0  0  0  0  0  0  0  0  0
  141.6090   81.3800  222.8340 C   0  0  0  0  0  0  0  0  0  0  0  0
  141.5011   82.3886  223.2594 H   0  0  0  0  0  0  0  0  0  0  0  0
  141.8880   80.2950  223.6710 C   0  0  0  0  0  0  0  0  0  0  0  0
  141.9950   80.4501  224.7547 H   0  0  0  0  0  0  0  0  0  0  0  0
  142.0310   79.0130  223.1310 C   0  0  0  0  0  0  0  0  0  0  0  0
  142.2531   78.1609  223.7902 H   0  0  0  0  0  0  0  0  0  0  0  0
  141.8920   78.8130  221.7540 C   0  0  0  0  0  0  0  0  0  0  0  0
  142.0132   77.8053  221.3299 H   0  0  0  0  0  0  0  0  0  0  0  0
  140.5190   78.6230  219.1010 C   0  0  0  0  0  0  0  0  0  0  0  0
  140.2398   78.7862  218.0496 H   0  0  0  0  0  0  0  0  0  0  0  0
  141.1870   77.2230  219.0910 C   0  0  0  0  0  0  0  0  0  0  0  0
  141.9554   77.1982  218.3043 H   0  0  0  0  0  0  0  0  0  0  0  0
  141.6361   77.0455  220.0794 H   0  0  0  0  0  0  0  0  0  0  0  0
  140.1610   76.1190  218.8210 C   0  0  0  0  0  0  0  0  0  0  0  0
  139.8188   76.1843  217.7776 H   0  0  0  0  0  0  0  0  0  0  0  0
  140.6259   75.1374  218.9950 H   0  0  0  0  0  0  0  0  0  0  0  0
  139.0160   76.2820  219.7210 N   0  0  0  0  0  0  0  0  0  0  0  0
  138.9830   75.5430  220.9620 C   0  0  0  0  0  0  0  0  0  0  0  0
  140.0620   75.1100  221.4550 O   0  0  0  0  0  0  0  0  0  0  0  0
  137.6780   75.1820  221.6450 C   0  0  2  0  0  0  0  0  0  0  0  0
  136.8874   75.0864  220.8862 H   0  0  0  0  0  0  0  0  0  0  0  0
  137.2420   76.2980  222.6360 C   0  0  0  0  0  0  0  0  0  0  0  0
  136.8851   75.7308  223.5083 H   0  0  0  0  0  0  0  0  0  0  0  0
  136.1210   77.2060  222.0720 C   0  0  0  0  0  0  0  0  0  0  0  0
  136.1039   77.1719  220.9727 H   0  0  0  0  0  0  0  0  0  0  0  0
  135.1167   76.8969  222.3973 H   0  0  0  0  0  0  0  0  0  0  0  0
  136.4910   78.5560  222.5530 C   0  0  0  0  0  0  0  0  0  0  0  0
  135.7280   79.7240  222.4520 C   0  0  0  0  0  0  0  0  0  0  0  0
  134.7225   79.6998  222.0066 H   0  0  0  0  0  0  0  0  0  0  0  0
  136.2700   80.9280  222.9300 C   0  0  0  0  0  0  0  0  0  0  0  0
  135.6862   81.8580  222.8637 H   0  0  0  0  0  0  0  0  0  0  0  0
  137.5600   80.9460  223.4940 C   0  0  0  0  0  0  0  0  0  0  0  0
  137.9786   81.8893  223.8748 H   0  0  0  0  0  0  0  0  0  0  0  0
  138.3140   79.7640  223.5720 C   0  0  0  0  0  0  0  0  0  0  0  0
  139.3265   79.7717  224.0020 H   0  0  0  0  0  0  0  0  0  0  0  0
  137.7530   78.5790  223.0930 C   0  0  0  0  0  0  0  0  0  0  0  0
  138.3980   77.2470  223.0420 C   0  0  0  0  0  0  0  0  0  0  0  0
  139.2028   77.2287  222.2924 H   0  0  0  0  0  0  0  0  0  0  0  0
  138.8694   76.9635  223.9946 H   0  0  0  0  0  0  0  0  0  0  0  0
  137.8410   73.9000  222.3450 N   0  0  0  0  0  0  0  0  0  0  0  0
  137.1750   73.8360  223.1480 H   0  0  0  0  0  0  0  0  0  0  0  0
  138.8180   73.7970  222.7060 H   0  0  0  0  0  0  0  0  0  0  0  0
  137.6340   73.1100  221.6900 H   0  0  0  0  0  0  0  0  0  0  0  0
  138.2600   77.5280  219.5460 C   0  0  0  0  0  0  0  0  0  0  0  0
  137.9018   77.5967  218.5082 H   0  0  0  0  0  0  0  0  0  0  0  0
  137.4003   77.5343  220.2322 H   0  0  0  0  0  0  0  0  0  0  0  0
  139.1660   78.7230  219.8530 C   0  0  0  0  0  0  0  0  0  0  0  0
  138.6543   79.6469  219.5455 H   0  0  0  0  0  0  0  0  0  0  0  0
  139.3729   78.7288  220.9333 H   0  0  0  0  0  0  0  0  0  0  0  0
  141.8720   81.9030  218.3390 C   0  0  0  0  0  0  0  0  0  0  0  0
  141.7972   82.4793  219.2730 H   0  0  0  0  0  0  0  0  0  0  0  0
  140.9209   81.9476  217.7882 H   0  0  0  0  0  0  0  0  0  0  0  0
  142.9760   82.5000  217.4670 C   0  0  0  0  0  0  0  0  0  0  0  0
  143.7614   82.9247  218.1095 H   0  0  0  0  0  0  0  0  0  0  0  0
  143.4078   81.7125  216.8319 H   0  0  0  0  0  0  0  0  0  0  0  0
  142.5534   83.2925  216.8319 H   0  0  0  0  0  0  0  0  0  0  0  0
  1  2  1  0
  2  3  1  0
  3  4  2  0
  4  5  1  0
  5  6  2  0
  6  7  1  0
  6  8  1  0
  8  9  1  0
  8 10  2  0
 10 11  1  0
 10 12  1  0
 12 13  1  0
 12 14  2  0
 14 15  1  0
  4 16  1  0
 16 17  1  0
 16 18  1  0
 18 19  1  0
 18 20  1  0
 18 21  1  0
 21 22  1  0
 21 23  1  0
 21 24  1  0
 24 25  1  0
 25 26  2  0
 25 27  1  0
 27 28  1  6
 27 29  1  0
 29 30  1  0
 29 31  1  0
 31 32  1  0
 31 33  1  0
 31 34  1  0
 34 35  2  0
 35 36  1  0
 35 37  1  0
 37 38  1  0
 37 39  2  0
 39 40  1  0
 39 41  1  0
 41 42  1  0
 41 43  2  0
 43 44  1  0
 44 45  1  0
 44 46  1  0
 27 47  1  0
 47 48  1  0
 47 49  1  0
 47 50  1  0
 24 51  1  0
 51 52  1  0
 51 53  1  0
 51 54  1  0
 54 55  1  0
 54 56  1  0
  3 57  1  0
 57 58  1  0
 57 59  1  0
 57 60  1  0
 60 61  1  0
 60 62  1  0
 60 63  1  0
 14  5  1  0
 54 16  1  0
 44 29  1  0
 43 34  1  0
M  CHG  2   4   1  47   1
M  END
>  <UniqueID>  (11) 
43

>  <SMILES>  (11) 
CC/C(O)=[N+](/c1ccccc1)C1CCN(C(=O)[C@@H]([NH3+])C2Cc3ccccc3C2)CC1

>  <Energy>  (11) 
89.62017243529434

>  <Genealogy>  (11) 
CCC(=O)[NH+](c1ccccc1)C1CCN(C(=O)[C@@H]([NH3+])C2Cc3ccccc3C2)CC1 (protonated)
CCC(O)=[N+](c1ccccc1)C1CCN(C(=O)[C@@H]([NH3+])C2Cc3ccccc3C2)CC1 (tautomer)
CC/C(O)=[N+](/c1ccccc1)C1CCN(C(=O)[C@@H]([NH3+])C2Cc3ccccc3C2)CC1 (cis-trans isomerization)
CC/C(O)=[N+](/c1ccccc1)C1CCN(C(=O)[C@@H]([NH3+])C2Cc3ccccc3C2)CC1 (3D coordinates assigned)
CC/C(O)=[N+](/c1ccccc1)C1CCN(C(=O)[C@@H]([NH3+])C2Cc3ccccc3C2)CC1 (nonaromatic ring conformer: 89.62017243529434 kcal/mol)

>  <smiles>  (11) 
CCC(=O)N(c1ccccc1)C1CCN(C(=O)[C@@H](N)C2Cc3ccccc3C2)CC1

>  <score_type>  (11) 
oracle

>  <origin>  (11) 
autodockgpu

>  <m_score__min__energy>  (11) 
-8.0399999999999991

>  <m_primary>  (11) 
energy

>  <meeko>  (11) 
{"free_energy": -6.12, "intermolecular_energy": -8.5, "internal_energy": -3.05, "cluster_size": 4, "cluster_id": 5, "rank_in_cluster": 1}

>  <energy>  (11) 
-6.44

>  <cluster_rmsd>  (11) 
0.32

>  <rmsd>  (11) 
268.32

>  <cluster>  (11) 
3

$$$$
MCZRVQBLWAUNOI-UKKWOIQDNA-P
     RDKit          3D

 63 66  0  0  0  0  0  0  0  0999 V2000
  138.8750   74.1630  223.0710 H   0  0  0  0  0  0  0  0  0  0  0  0
  139.2790   75.0060  222.6820 O   0  0  0  0  0  0  0  0  0  0  0  0
  138.5690   76.1890  222.4350 C   0  0  0  0  0  0  0  0  0  0  0  0
  139.0880   77.1490  221.6800 N   0  0  0  0  0  0  0  0  0  0  0  0
  139.9730   78.1100  222.2860 C   0  0  0  0  0  0  0  0  0  0  0  0
  141.3360   78.1200  221.9520 C   0  0  0  0  0  0  0  0  0  0  0  0
  141.7273   77.4005  221.2177 H   0  0  0  0  0  0  0  0  0  0  0  0
  142.1970   79.0440  222.5520 C   0  0  0  0  0  0  0  0  0  0  0  0
  143.2637   79.0559  222.2837 H   0  0  0  0  0  0  0  0  0  0  0  0
  141.7030   79.9530  223.4930 C   0  0  0  0  0  0  0  0  0  0  0  0
  142.3813   80.6808  223.9624 H   0  0  0  0  0  0  0  0  0  0  0  0
  140.3480   79.9380  223.8380 C   0  0  0  0  0  0  0  0  0  0  0  0
  139.9616   80.6528  224.5795 H   0  0  0  0  0  0  0  0  0  0  0  0
  139.4840   79.0150  223.2410 C   0  0  0  0  0  0  0  0  0  0  0  0
  138.4201   78.9980  223.5200 H   0  0  0  0  0  0  0  0  0  0  0  0
  138.8520   77.3520  220.2280 C   0  0  0  0  0  0  0  0  0  0  0  0
  137.9172   76.8362  219.9632 H   0  0  0  0  0  0  0  0  0  0  0  0
  138.5650   78.8370  219.8810 C   0  0  0  0  0  0  0  0  0  0  0  0
  137.6158   79.1374  220.3487 H   0  0  0  0  0  0  0  0  0  0  0  0
  139.3962   79.4495  220.2603 H   0  0  0  0  0  0  0  0  0  0  0  0
  138.4630   79.0440  218.3670 C   0  0  0  0  0  0  0  0  0  0  0  0
  137.5430   78.5703  217.9938 H   0  0  0  0  0  0  0  0  0  0  0  0
  138.4378   80.1213  218.1463 H   0  0  0  0  0  0  0  0  0  0  0  0
  139.6250   78.4390  217.7090 N   0  0  0  0  0  0  0  0  0  0  0  0
  140.7710   79.2630  217.4040 C   0  0  0  0  0  0  0  0  0  0  0  0
  140.9510   80.3380  218.0430 O   0  0  0  0  0  0  0  0  0  0  0  0
  141.7180   78.9290  216.2670 C   0  0  2  0  0  0  0  0  0  0  0  0
  141.1706   78.3734  215.4913 H   0  0  0  0  0  0  0  0  0  0  0  0
  142.8800   78.0210  216.7620 C   0  0  0  0  0  0  0  0  0  0  0  0
  143.7754   78.5312  216.3774 H   0  0  0  0  0  0  0  0  0  0  0  0
  142.7930   76.5740  216.2170 C   0  0  0  0  0  0  0  0  0  0  0  0
  141.7629   76.3274  215.9201 H   0  0  0  0  0  0  0  0  0  0  0  0
  143.4092   76.4177  215.3193 H   0  0  0  0  0  0  0  0  0  0  0  0
  143.2260   75.7430  217.3640 C   0  0  0  0  0  0  0  0  0  0  0  0
  143.4740   74.3670  217.3610 C   0  0  0  0  0  0  0  0  0  0  0  0
  143.3877   73.7843  216.4320 H   0  0  0  0  0  0  0  0  0  0  0  0
  143.8350   73.7430  218.5650 C   0  0  0  0  0  0  0  0  0  0  0  0
  144.0385   72.6621  218.5843 H   0  0  0  0  0  0  0  0  0  0  0  0
  143.9370   74.4990  219.7480 C   0  0  0  0  0  0  0  0  0  0  0  0
  144.2269   74.0080  220.6887 H   0  0  0  0  0  0  0  0  0  0  0  0
  143.6700   75.8780  219.7320 C   0  0  0  0  0  0  0  0  0  0  0  0
  143.7390   76.4739  220.6540 H   0  0  0  0  0  0  0  0  0  0  0  0
  143.3150   76.4770  218.5210 C   0  0  0  0  0  0  0  0  0  0  0  0
  142.9500   77.8950  218.3050 C   0  0  0  0  0  0  0  0  0  0  0  0
  141.9763   78.1242  218.7625 H   0  0  0  0  0  0  0  0  0  0  0  0
  143.6663   78.5952  218.7594 H   0  0  0  0  0  0  0  0  0  0  0  0
  142.2410   80.1770  215.6950 N   0  0  0  0  0  0  0  0  0  0  0  0
  141.9890   80.9900  216.3000 H   0  0  0  0  0  0  0  0  0  0  0  0
  141.8530   80.3350  214.7350 H   0  0  0  0  0  0  0  0  0  0  0  0
  143.2850   80.1290  215.6370 H   0  0  0  0  0  0  0  0  0  0  0  0
  139.7410   76.9840  217.8660 C   0  0  0  0  0  0  0  0  0  0  0  0
  138.8305   76.5000  217.4830 H   0  0  0  0  0  0  0  0  0  0  0  0
  140.6131   76.6223  217.3016 H   0  0  0  0  0  0  0  0  0  0  0  0
  139.9150   76.6440  219.3480 C   0  0  0  0  0  0  0  0  0  0  0  0
  139.8179   75.5560  219.4779 H   0  0  0  0  0  0  0  0  0  0  0  0
  140.9092   76.9918  219.6650 H   0  0  0  0  0  0  0  0  0  0  0  0
  137.2050   76.2440  223.0930 C   0  0  0  0  0  0  0  0  0  0  0  0
  137.3289   76.2109  224.1855 H   0  0  0  0  0  0  0  0  0  0  0  0
  136.6112   75.3833  222.7515 H   0  0  0  0  0  0  0  0  0  0  0  0
  136.4750   77.5300  222.7090 C   0  0  0  0  0  0  0  0  0  0  0  0
  136.1711   78.0653  223.6206 H   0  0  0  0  0  0  0  0  0  0  0  0
  137.1452   78.1687  222.1149 H   0  0  0  0  0  0  0  0  0  0  0  0
  135.5831   77.2819  222.1149 H   0  0  0  0  0  0  0  0  0  0  0  0
  1  2  1  0
  2  3  1  0
  3  4  2  0
  4  5  1  0
  5  6  2  0
  6  7  1  0
  6  8  1  0
  8  9  1  0
  8 10  2  0
 10 11  1  0
 10 12  1  0
 12 13  1  0
 12 14  2  0
 14 15  1  0
  4 16  1  0
 16 17  1  0
 16 18  1  0
 18 19  1  0
 18 20  1  0
 18 21  1  0
 21 22  1  0
 21 23  1  0
 21 24  1  0
 24 25  1  0
 25 26  2  0
 25 27  1  0
 27 28  1  6
 27 29  1  0
 29 30  1  0
 29 31  1  0
 31 32  1  0
 31 33  1  0
 31 34  1  0
 34 35  2  0
 35 36  1  0
 35 37  1  0
 37 38  1  0
 37 39  2  0
 39 40  1  0
 39 41  1  0
 41 42  1  0
 41 43  2  0
 43 44  1  0
 44 45  1  0
 44 46  1  0
 27 47  1  0
 47 48  1  0
 47 49  1  0
 47 50  1  0
 24 51  1  0
 51 52  1  0
 51 53  1  0
 51 54  1  0
 54 55  1  0
 54 56  1  0
  3 57  1  0
 57 58  1  0
 57 59  1  0
 57 60  1  0
 60 61  1  0
 60 62  1  0
 60 63  1  0
 14  5  1  0
 54 16  1  0
 44 29  1  0
 43 34  1  0
M  CHG  2   4   1  47   1
M  END
>  <UniqueID>  (12) 
43

>  <SMILES>  (12) 
CC/C(O)=[N+](/c1ccccc1)C1CCN(C(=O)[C@@H]([NH3+])C2Cc3ccccc3C2)CC1

>  <Energy>  (12) 
89.62017243529434

>  <Genealogy>  (12) 
CCC(=O)[NH+](c1ccccc1)C1CCN(C(=O)[C@@H]([NH3+])C2Cc3ccccc3C2)CC1 (protonated)
CCC(O)=[N+](c1ccccc1)C1CCN(C(=O)[C@@H]([NH3+])C2Cc3ccccc3C2)CC1 (tautomer)
CC/C(O)=[N+](/c1ccccc1)C1CCN(C(=O)[C@@H]([NH3+])C2Cc3ccccc3C2)CC1 (cis-trans isomerization)
CC/C(O)=[N+](/c1ccccc1)C1CCN(C(=O)[C@@H]([NH3+])C2Cc3ccccc3C2)CC1 (3D coordinates assigned)
CC/C(O)=[N+](/c1ccccc1)C1CCN(C(=O)[C@@H]([NH3+])C2Cc3ccccc3C2)CC1 (nonaromatic ring conformer: 89.62017243529434 kcal/mol)

>  <smiles>  (12) 
CCC(=O)N(c1ccccc1)C1CCN(C(=O)[C@@H](N)C2Cc3ccccc3C2)CC1

>  <score_type>  (12) 
oracle

>  <origin>  (12) 
autodockgpu

>  <m_score__min__energy>  (12) 
-8.0399999999999991

>  <m_primary>  (12) 
energy

>  <meeko>  (12) 
{"free_energy": -6.45, "intermolecular_energy": -8.84, "internal_energy": -2.84, "cluster_size": 8, "cluster_id": 3, "rank_in_cluster": 3}

>  <energy>  (12) 
-6.44

>  <cluster_rmsd>  (12) 
0.34

>  <rmsd>  (12) 
268.28

>  <cluster>  (12) 
3

$$$$
MCZRVQBLWAUNOI-UKKWOIQDNA-P
     RDKit          3D

 63 66  0  0  0  0  0  0  0  0999 V2000
  139.0710   74.1080  223.0720 H   0  0  0  0  0  0  0  0  0  0  0  0
  139.3770   74.9010  222.5220 O   0  0  0  0  0  0  0  0  0  0  0  0
  138.6580   76.0960  222.3780 C   0  0  0  0  0  0  0  0  0  0  0  0
  139.1530   77.1060  221.6750 N   0  0  0  0  0  0  0  0  0  0  0  0
  139.9970   78.0680  222.3370 C   0  0  0  0  0  0  0  0  0  0  0  0
  139.4370   79.0100  223.2120 C   0  0  0  0  0  0  0  0  0  0  0  0
  138.3537   79.0074  223.4030 H   0  0  0  0  0  0  0  0  0  0  0  0
  140.2560   79.9530  223.8420 C   0  0  0  0  0  0  0  0  0  0  0  0
  139.8168   80.6870  224.5336 H   0  0  0  0  0  0  0  0  0  0  0  0
  141.6320   79.9640  223.5940 C   0  0  0  0  0  0  0  0  0  0  0  0
  142.2744   80.7049  224.0924 H   0  0  0  0  0  0  0  0  0  0  0  0
  142.1920   79.0340  222.7130 C   0  0  0  0  0  0  0  0  0  0  0  0
  143.2744   79.0448  222.5175 H   0  0  0  0  0  0  0  0  0  0  0  0
  141.3770   78.0900  222.0800 C   0  0  0  0  0  0  0  0  0  0  0  0
  141.8175   77.3644  221.3804 H   0  0  0  0  0  0  0  0  0  0  0  0
  138.9280   77.3680  220.2310 C   0  0  0  0  0  0  0  0  0  0  0  0
  137.9512   76.9412  219.9597 H   0  0  0  0  0  0  0  0  0  0  0  0
  138.7670   78.8810  219.9260 C   0  0  0  0  0  0  0  0  0  0  0  0
  137.8494   79.2482  220.4088 H   0  0  0  0  0  0  0  0  0  0  0  0
  139.6497   79.4095  220.3152 H   0  0  0  0  0  0  0  0  0  0  0  0
  138.6750   79.1380  218.4190 C   0  0  0  0  0  0  0  0  0  0  0  0
  137.7157   78.7556  218.0402 H   0  0  0  0  0  0  0  0  0  0  0  0
  138.7413   80.2192  218.2278 H   0  0  0  0  0  0  0  0  0  0  0  0
  139.7770   78.4540  217.7360 N   0  0  0  0  0  0  0  0  0  0  0  0
  140.9880   79.1840  217.4440 C   0  0  0  0  0  0  0  0  0  0  0  0
  141.2630   80.2220  218.1100 O   0  0  0  0  0  0  0  0  0  0  0  0
  141.8970   78.8010  216.2920 C   0  0  2  0  0  0  0  0  0  0  0  0
  141.2969   78.3277  215.5009 H   0  0  0  0  0  0  0  0  0  0  0  0
  142.9680   77.7690  216.7480 C   0  0  0  0  0  0  0  0  0  0  0  0
  143.8938   78.1528  216.2945 H   0  0  0  0  0  0  0  0  0  0  0  0
  142.6690   76.3300  216.2590 C   0  0  0  0  0  0  0  0  0  0  0  0
  141.5999   76.2065  216.0317 H   0  0  0  0  0  0  0  0  0  0  0  0
  143.2036   76.0734  215.3325 H   0  0  0  0  0  0  0  0  0  0  0  0
  143.0670   75.4830  217.4070 C   0  0  0  0  0  0  0  0  0  0  0  0
  143.1440   74.0870  217.4360 C   0  0  0  0  0  0  0  0  0  0  0  0
  142.9294   73.4953  216.5339 H   0  0  0  0  0  0  0  0  0  0  0  0
  143.5000   73.4550  218.6370 C   0  0  0  0  0  0  0  0  0  0  0  0
  143.5705   72.3581  218.6807 H   0  0  0  0  0  0  0  0  0  0  0  0
  143.7670   74.2230  219.7860 C   0  0  0  0  0  0  0  0  0  0  0  0
  144.0524   73.7249  220.7243 H   0  0  0  0  0  0  0  0  0  0  0  0
  143.6700   75.6240  219.7380 C   0  0  0  0  0  0  0  0  0  0  0  0
  143.8675   76.2310  220.6338 H   0  0  0  0  0  0  0  0  0  0  0  0
  143.3180   76.2300  218.5310 C   0  0  0  0  0  0  0  0  0  0  0  0
  143.1170   77.6760  218.2880 C   0  0  0  0  0  0  0  0  0  0  0  0
  142.2088   78.0367  218.7930 H   0  0  0  0  0  0  0  0  0  0  0  0
  143.9406   78.2934  218.6760 H   0  0  0  0  0  0  0  0  0  0  0  0
  142.5370   80.0130  215.7610 N   0  0  0  0  0  0  0  0  0  0  0  0
  142.9450   80.5810  216.5380 H   0  0  0  0  0  0  0  0  0  0  0  0
  141.8440   80.6000  215.2400 H   0  0  0  0  0  0  0  0  0  0  0  0
  143.3140   79.7470  215.1120 H   0  0  0  0  0  0  0  0  0  0  0  0
  139.7690   76.9910  217.8530 C   0  0  0  0  0  0  0  0  0  0  0  0
  138.8184   76.5972  217.4639 H   0  0  0  0  0  0  0  0  0  0  0  0
  140.6043   76.5722  217.2726 H   0  0  0  0  0  0  0  0  0  0  0  0
  139.9210   76.5960  219.3240 C   0  0  0  0  0  0  0  0  0  0  0  0
  139.7311   75.5172  219.4249 H   0  0  0  0  0  0  0  0  0  0  0  0
  140.9432   76.8479  219.6427 H   0  0  0  0  0  0  0  0  0  0  0  0
  137.3150   76.1010  223.0800 C   0  0  0  0  0  0  0  0  0  0  0  0
  137.4754   76.0718  224.1679 H   0  0  0  0  0  0  0  0  0  0  0  0
  136.7420   75.2195  222.7566 H   0  0  0  0  0  0  0  0  0  0  0  0
  136.5270   77.3600  222.7220 C   0  0  0  0  0  0  0  0  0  0  0  0
  136.2089   77.8681  223.6443 H   0  0  0  0  0  0  0  0  0  0  0  0
  137.1637   78.0357  222.1320 H   0  0  0  0  0  0  0  0  0  0  0  0
  135.6410   77.0827  222.1320 H   0  0  0  0  0  0  0  0  0  0  0  0
  1  2  1  0
  2  3  1  0
  3  4  2  0
  4  5  1  0
  5  6  2  0
  6  7  1  0
  6  8  1  0
  8  9  1  0
  8 10  2  0
 10 11  1  0
 10 12  1  0
 12 13  1  0
 12 14  2  0
 14 15  1  0
  4 16  1  0
 16 17  1  0
 16 18  1  0
 18 19  1  0
 18 20  1  0
 18 21  1  0
 21 22  1  0
 21 23  1  0
 21 24  1  0
 24 25  1  0
 25 26  2  0
 25 27  1  0
 27 28  1  6
 27 29  1  0
 29 30  1  0
 29 31  1  0
 31 32  1  0
 31 33  1  0
 31 34  1  0
 34 35  2  0
 35 36  1  0
 35 37  1  0
 37 38  1  0
 37 39  2  0
 39 40  1  0
 39 41  1  0
 41 42  1  0
 41 43  2  0
 43 44  1  0
 44 45  1  0
 44 46  1  0
 27 47  1  0
 47 48  1  0
 47 49  1  0
 47 50  1  0
 24 51  1  0
 51 52  1  0
 51 53  1  0
 51 54  1  0
 54 55  1  0
 54 56  1  0
  3 57  1  0
 57 58  1  0
 57 59  1  0
 57 60  1  0
 60 61  1  0
 60 62  1  0
 60 63  1  0
 14  5  1  0
 54 16  1  0
 44 29  1  0
 43 34  1  0
M  CHG  2   4   1  47   1
M  END
>  <UniqueID>  (13) 
43

>  <SMILES>  (13) 
CC/C(O)=[N+](/c1ccccc1)C1CCN(C(=O)[C@@H]([NH3+])C2Cc3ccccc3C2)CC1

>  <Energy>  (13) 
89.62017243529434

>  <Genealogy>  (13) 
CCC(=O)[NH+](c1ccccc1)C1CCN(C(=O)[C@@H]([NH3+])C2Cc3ccccc3C2)CC1 (protonated)
CCC(O)=[N+](c1ccccc1)C1CCN(C(=O)[C@@H]([NH3+])C2Cc3ccccc3C2)CC1 (tautomer)
CC/C(O)=[N+](/c1ccccc1)C1CCN(C(=O)[C@@H]([NH3+])C2Cc3ccccc3C2)CC1 (cis-trans isomerization)
CC/C(O)=[N+](/c1ccccc1)C1CCN(C(=O)[C@@H]([NH3+])C2Cc3ccccc3C2)CC1 (3D coordinates assigned)
CC/C(O)=[N+](/c1ccccc1)C1CCN(C(=O)[C@@H]([NH3+])C2Cc3ccccc3C2)CC1 (nonaromatic ring conformer: 89.62017243529434 kcal/mol)

>  <smiles>  (13) 
CCC(=O)N(c1ccccc1)C1CCN(C(=O)[C@@H](N)C2Cc3ccccc3C2)CC1

>  <score_type>  (13) 
oracle

>  <origin>  (13) 
autodockgpu

>  <m_score__min__energy>  (13) 
-8.0399999999999991

>  <m_primary>  (13) 
energy

>  <meeko>  (13) 
{"free_energy": -6.61, "intermolecular_energy": -9.0, "internal_energy": -2.68, "cluster_size": 8, "cluster_id": 3, "rank_in_cluster": 1}

>  <energy>  (13) 
-6.43

>  <cluster_rmsd>  (13) 
0.33

>  <rmsd>  (13) 
268.27

>  <cluster>  (13) 
3

$$$$
MCZRVQBLWAUNOI-UKKWOIQDNA-P
     RDKit          3D

 63 66  0  0  0  0  0  0  0  0999 V2000
  136.2380   82.7950  223.5620 H   0  0  0  0  0  0  0  0  0  0  0  0
  137.2020   82.7480  223.2580 O   0  0  0  0  0  0  0  0  0  0  0  0
  138.0350   81.6320  223.4190 C   0  0  0  0  0  0  0  0  0  0  0  0
  138.9840   81.3580  222.5330 N   0  0  0  0  0  0  0  0  0  0  0  0
  140.0700   80.4950  222.9180 C   0  0  0  0  0  0  0  0  0  0  0  0
  141.2420   81.0400  223.4650 C   0  0  0  0  0  0  0  0  0  0  0  0
  141.3263   82.1270  223.6113 H   0  0  0  0  0  0  0  0  0  0  0  0
  142.3020   80.2030  223.8240 C   0  0  0  0  0  0  0  0  0  0  0  0
  143.2175   80.6313  224.2580 H   0  0  0  0  0  0  0  0  0  0  0  0
  142.2000   78.8210  223.6320 C   0  0  0  0  0  0  0  0  0  0  0  0
  143.0341   78.1634  223.9180 H   0  0  0  0  0  0  0  0  0  0  0  0
  141.0390   78.2750  223.0770 C   0  0  0  0  0  0  0  0  0  0  0  0
  140.9610   77.1884  222.9250 H   0  0  0  0  0  0  0  0  0  0  0  0
  139.9770   79.1090  222.7150 C   0  0  0  0  0  0  0  0  0  0  0  0
  139.0674   78.6787  222.2706 H   0  0  0  0  0  0  0  0  0  0  0  0
  139.0540   81.8590  221.1360 C   0  0  0  0  0  0  0  0  0  0  0  0
  138.2469   82.5940  221.0003 H   0  0  0  0  0  0  0  0  0  0  0  0
  140.3460   82.6760  220.8690 C   0  0  0  0  0  0  0  0  0  0  0  0
  140.3236   83.5913  221.4788 H   0  0  0  0  0  0  0  0  0  0  0  0
  141.2123   82.0524  221.1348 H   0  0  0  0  0  0  0  0  0  0  0  0
  140.4640   83.0630  219.3930 C   0  0  0  0  0  0  0  0  0  0  0  0
  139.6990   83.8150  219.1493 H   0  0  0  0  0  0  0  0  0  0  0  0
  141.4639   83.4805  219.2034 H   0  0  0  0  0  0  0  0  0  0  0  0
  140.2650   81.8750  218.5560 N   0  0  0  0  0  0  0  0  0  0  0  0
  141.4170   81.1300  218.1040 C   0  0  0  0  0  0  0  0  0  0  0  0
  142.5080   81.2300  218.7330 O   0  0  0  0  0  0  0  0  0  0  0  0
  141.3880   80.3040  216.8330 C   0  0  2  0  0  0  0  0  0  0  0  0
  140.4799   80.5506  216.2634 H   0  0  0  0  0  0  0  0  0  0  0  0
  141.3380   78.7840  217.1590 C   0  0  0  0  0  0  0  0  0  0  0  0
  140.8558   78.3539  216.2688 H   0  0  0  0  0  0  0  0  0  0  0  0
  140.5230   78.4650  218.4370 C   0  0  0  0  0  0  0  0  0  0  0  0
  140.4619   79.3454  219.0936 H   0  0  0  0  0  0  0  0  0  0  0  0
  139.4830   78.1797  218.2202 H   0  0  0  0  0  0  0  0  0  0  0  0
  141.2950   77.3780  219.0810 C   0  0  0  0  0  0  0  0  0  0  0  0
  140.9150   76.6180  220.1920 C   0  0  0  0  0  0  0  0  0  0  0  0
  139.9351   76.7722  220.6675 H   0  0  0  0  0  0  0  0  0  0  0  0
  141.8070   75.6550  220.6890 C   0  0  0  0  0  0  0  0  0  0  0  0
  141.5265   75.0435  221.5593 H   0  0  0  0  0  0  0  0  0  0  0  0
  143.0600   75.4710  220.0750 C   0  0  0  0  0  0  0  0  0  0  0  0
  143.7541   74.7107  220.4626 H   0  0  0  0  0  0  0  0  0  0  0  0
  143.4270   76.2550  218.9690 C   0  0  0  0  0  0  0  0  0  0  0  0
  144.4083   76.1239  218.4896 H   0  0  0  0  0  0  0  0  0  0  0  0
  142.5220   77.2040  218.4900 C   0  0  0  0  0  0  0  0  0  0  0  0
  142.7370   78.1540  217.3750 C   0  0  0  0  0  0  0  0  0  0  0  0
  143.4753   78.9217  217.6498 H   0  0  0  0  0  0  0  0  0  0  0  0
  143.1319   77.6690  216.4701 H   0  0  0  0  0  0  0  0  0  0  0  0
  142.5730   80.6230  216.0240 N   0  0  0  0  0  0  0  0  0  0  0  0
  142.3380   81.3390  215.3000 H   0  0  0  0  0  0  0  0  0  0  0  0
  142.9370   79.7640  215.5470 H   0  0  0  0  0  0  0  0  0  0  0  0
  143.3240   81.0160  216.6380 H   0  0  0  0  0  0  0  0  0  0  0  0
  138.9390   81.2560  218.6610 C   0  0  0  0  0  0  0  0  0  0  0  0
  138.1671   81.9972  218.4066 H   0  0  0  0  0  0  0  0  0  0  0  0
  138.8748   80.4063  217.9653 H   0  0  0  0  0  0  0  0  0  0  0  0
  138.7190   80.7610  220.0930 C   0  0  0  0  0  0  0  0  0  0  0  0
  137.6657   80.4666  220.2108 H   0  0  0  0  0  0  0  0  0  0  0  0
  139.3885   79.9059  220.2675 H   0  0  0  0  0  0  0  0  0  0  0  0
  137.7440   80.8140  224.6610 C   0  0  0  0  0  0  0  0  0  0  0  0
  138.6777   80.3560  225.0196 H   0  0  0  0  0  0  0  0  0  0  0  0
  137.0107   80.0338  224.4088 H   0  0  0  0  0  0  0  0  0  0  0  0
  137.1630   81.7000  225.7630 C   0  0  0  0  0  0  0  0  0  0  0  0
  137.4336   81.2873  226.7461 H   0  0  0  0  0  0  0  0  0  0  0  0
  137.5697   82.7176  225.6679 H   0  0  0  0  0  0  0  0  0  0  0  0
  136.0676   81.7326  225.6679 H   0  0  0  0  0  0  0  0  0  0  0  0
  1  2  1  0
  2  3  1  0
  3  4  2  0
  4  5  1  0
  5  6  2  0
  6  7  1  0
  6  8  1  0
  8  9  1  0
  8 10  2  0
 10 11  1  0
 10 12  1  0
 12 13  1  0
 12 14  2  0
 14 15  1  0
  4 16  1  0
 16 17  1  0
 16 18  1  0
 18 19  1  0
 18 20  1  0
 18 21  1  0
 21 22  1  0
 21 23  1  0
 21 24  1  0
 24 25  1  0
 25 26  2  0
 25 27  1  0
 27 28  1  6
 27 29  1  0
 29 30  1  0
 29 31  1  0
 31 32  1  0
 31 33  1  0
 31 34  1  0
 34 35  2  0
 35 36  1  0
 35 37  1  0
 37 38  1  0
 37 39  2  0
 39 40  1  0
 39 41  1  0
 41 42  1  0
 41 43  2  0
 43 44  1  0
 44 45  1  0
 44 46  1  0
 27 47  1  0
 47 48  1  0
 47 49  1  0
 47 50  1  0
 24 51  1  0
 51 52  1  0
 51 53  1  0
 51 54  1  0
 54 55  1  0
 54 56  1  0
  3 57  1  0
 57 58  1  0
 57 59  1  0
 57 60  1  0
 60 61  1  0
 60 62  1  0
 60 63  1  0
 14  5  1  0
 54 16  1  0
 44 29  1  0
 43 34  1  0
M  CHG  2   4   1  47   1
M  END
>  <UniqueID>  (14) 
43

>  <SMILES>  (14) 
CC/C(O)=[N+](/c1ccccc1)C1CCN(C(=O)[C@@H]([NH3+])C2Cc3ccccc3C2)CC1

>  <Energy>  (14) 
89.62017243529434

>  <Genealogy>  (14) 
CCC(=O)[NH+](c1ccccc1)C1CCN(C(=O)[C@@H]([NH3+])C2Cc3ccccc3C2)CC1 (protonated)
CCC(O)=[N+](c1ccccc1)C1CCN(C(=O)[C@@H]([NH3+])C2Cc3ccccc3C2)CC1 (tautomer)
CC/C(O)=[N+](/c1ccccc1)C1CCN(C(=O)[C@@H]([NH3+])C2Cc3ccccc3C2)CC1 (cis-trans isomerization)
CC/C(O)=[N+](/c1ccccc1)C1CCN(C(=O)[C@@H]([NH3+])C2Cc3ccccc3C2)CC1 (3D coordinates assigned)
CC/C(O)=[N+](/c1ccccc1)C1CCN(C(=O)[C@@H]([NH3+])C2Cc3ccccc3C2)CC1 (nonaromatic ring conformer: 89.62017243529434 kcal/mol)

>  <smiles>  (14) 
CCC(=O)N(c1ccccc1)C1CCN(C(=O)[C@@H](N)C2Cc3ccccc3C2)CC1

>  <score_type>  (14) 
oracle

>  <origin>  (14) 
autodockgpu

>  <m_score__min__energy>  (14) 
-8.0399999999999991

>  <m_primary>  (14) 
energy

>  <meeko>  (14) 
{"free_energy": -6.6, "intermolecular_energy": -8.99, "internal_energy": -2.61, "cluster_size": 2, "cluster_id": 4, "rank_in_cluster": 2}

>  <energy>  (14) 
-6.41

>  <cluster_rmsd>  (14) 
0.38

>  <rmsd>  (14) 
268.23

>  <cluster>  (14) 
3

$$$$
MCZRVQBLWAUNOI-UKKWOIQDNA-P
     RDKit          3D

 63 66  0  0  0  0  0  0  0  0999 V2000
  146.5060   74.1100  218.7100 H   0  0  0  0  0  0  0  0  0  0  0  0
  146.3050   73.1670  219.0170 O   0  0  0  0  0  0  0  0  0  0  0  0
  145.2450   72.8140  219.8650 C   0  0  0  0  0  0  0  0  0  0  0  0
  144.3220   71.9440  219.4740 N   0  0  0  0  0  0  0  0  0  0  0  0
  144.7060   70.5760  219.2450 C   0  0  0  0  0  0  0  0  0  0  0  0
  144.1470   69.5490  220.0200 C   0  0  0  0  0  0  0  0  0  0  0  0
  143.4050   69.7880  220.7961 H   0  0  0  0  0  0  0  0  0  0  0  0
  144.5320   68.2220  219.8070 C   0  0  0  0  0  0  0  0  0  0  0  0
  144.0876   67.4175  220.4114 H   0  0  0  0  0  0  0  0  0  0  0  0
  145.4810   67.9160  218.8270 C   0  0  0  0  0  0  0  0  0  0  0  0
  145.7804   66.8709  218.6590 H   0  0  0  0  0  0  0  0  0  0  0  0
  146.0500   68.9380  218.0600 C   0  0  0  0  0  0  0  0  0  0  0  0
  146.7978   68.6963  217.2903 H   0  0  0  0  0  0  0  0  0  0  0  0
  145.6690   70.2660  218.2710 C   0  0  0  0  0  0  0  0  0  0  0  0
  146.1241   71.0695  217.6733 H   0  0  0  0  0  0  0  0  0  0  0  0
  142.8850   72.2340  219.2360 C   0  0  0  0  0  0  0  0  0  0  0  0
  142.5988   71.7614  218.2848 H   0  0  0  0  0  0  0  0  0  0  0  0
  141.9660   71.5470  220.2810 C   0  0  0  0  0  0  0  0  0  0  0  0
  142.0404   70.4561  220.1614 H   0  0  0  0  0  0  0  0  0  0  0  0
  142.2944   71.8516  221.2857 H   0  0  0  0  0  0  0  0  0  0  0  0
  140.5060   71.9700  220.1010 C   0  0  0  0  0  0  0  0  0  0  0  0
  140.1108   71.5352  219.1710 H   0  0  0  0  0  0  0  0  0  0  0  0
  139.9137   71.6115  220.9557 H   0  0  0  0  0  0  0  0  0  0  0  0
  140.4230   73.4310  220.0300 N   0  0  0  0  0  0  0  0  0  0  0  0
  140.1400   74.1810  221.2310 C   0  0  0  0  0  0  0  0  0  0  0  0
  140.3720   73.6600  222.3580 O   0  0  0  0  0  0  0  0  0  0  0  0
  139.4760   75.5440  221.1870 C   0  0  2  0  0  0  0  0  0  0  0  0
  138.9443   75.6552  220.2305 H   0  0  0  0  0  0  0  0  0  0  0  0
  140.5350   76.6810  221.2700 C   0  0  0  0  0  0  0  0  0  0  0  0
  141.3323   76.3283  220.5992 H   0  0  0  0  0  0  0  0  0  0  0  0
  141.0770   76.9000  222.7040 C   0  0  0  0  0  0  0  0  0  0  0  0
  140.3679   76.5201  223.4542 H   0  0  0  0  0  0  0  0  0  0  0  0
  142.0223   76.3690  222.8896 H   0  0  0  0  0  0  0  0  0  0  0  0
  141.2140   78.3710  222.8030 C   0  0  0  0  0  0  0  0  0  0  0  0
  141.8080   79.0930  223.8430 C   0  0  0  0  0  0  0  0  0  0  0  0
  142.2713   78.5717  224.6937 H   0  0  0  0  0  0  0  0  0  0  0  0
  141.8020   80.4960  223.7810 C   0  0  0  0  0  0  0  0  0  0  0  0
  142.2675   81.0835  224.5860 H   0  0  0  0  0  0  0  0  0  0  0  0
  141.2010   81.1510  222.6900 C   0  0  0  0  0  0  0  0  0  0  0  0
  141.2043   82.2499  222.6407 H   0  0  0  0  0  0  0  0  0  0  0  0
  140.5970   80.4060  221.6640 C   0  0  0  0  0  0  0  0  0  0  0  0
  140.1169   80.9105  220.8126 H   0  0  0  0  0  0  0  0  0  0  0  0
  140.6180   79.0120  221.7460 C   0  0  0  0  0  0  0  0  0  0  0  0
  140.0010   78.0570  220.7980 C   0  0  0  0  0  0  0  0  0  0  0  0
  138.9034   78.0950  220.8604 H   0  0  0  0  0  0  0  0  0  0  0  0
  140.2487   78.2752  219.7487 H   0  0  0  0  0  0  0  0  0  0  0  0
  138.5150   75.6480  222.2940 N   0  0  0  0  0  0  0  0  0  0  0  0
  137.5370   75.5590  221.9380 H   0  0  0  0  0  0  0  0  0  0  0  0
  138.6150   76.5670  222.7860 H   0  0  0  0  0  0  0  0  0  0  0  0
  138.6810   74.8750  222.9800 H   0  0  0  0  0  0  0  0  0  0  0  0
  141.1180   74.0390  218.8880 C   0  0  0  0  0  0  0  0  0  0  0  0
  140.7199   73.6209  217.9517 H   0  0  0  0  0  0  0  0  0  0  0  0
  140.9600   75.1275  218.9000 H   0  0  0  0  0  0  0  0  0  0  0  0
  142.6160   73.7400  218.9840 C   0  0  0  0  0  0  0  0  0  0  0  0
  143.0997   74.0357  218.0413 H   0  0  0  0  0  0  0  0  0  0  0  0
  143.0255   74.3082  219.8322 H   0  0  0  0  0  0  0  0  0  0  0  0
  145.2730   73.5030  221.2140 C   0  0  0  0  0  0  0  0  0  0  0  0
  144.5271   73.0361  221.8741 H   0  0  0  0  0  0  0  0  0  0  0  0
  145.0416   74.5691  221.0729 H   0  0  0  0  0  0  0  0  0  0  0  0
  146.6560   73.3790  221.8520 C   0  0  0  0  0  0  0  0  0  0  0  0
  146.5566   73.3879  222.9475 H   0  0  0  0  0  0  0  0  0  0  0  0
  147.1233   72.4354  221.5339 H   0  0  0  0  0  0  0  0  0  0  0  0
  147.2837   74.2245  221.5339 H   0  0  0  0  0  0  0  0  0  0  0  0
  1  2  1  0
  2  3  1  0
  3  4  2  0
  4  5  1  0
  5  6  2  0
  6  7  1  0
  6  8  1  0
  8  9  1  0
  8 10  2  0
 10 11  1  0
 10 12  1  0
 12 13  1  0
 12 14  2  0
 14 15  1  0
  4 16  1  0
 16 17  1  0
 16 18  1  0
 18 19  1  0
 18 20  1  0
 18 21  1  0
 21 22  1  0
 21 23  1  0
 21 24  1  0
 24 25  1  0
 25 26  2  0
 25 27  1  0
 27 28  1  6
 27 29  1  0
 29 30  1  0
 29 31  1  0
 31 32  1  0
 31 33  1  0
 31 34  1  0
 34 35  2  0
 35 36  1  0
 35 37  1  0
 37 38  1  0
 37 39  2  0
 39 40  1  0
 39 41  1  0
 41 42  1  0
 41 43  2  0
 43 44  1  0
 44 45  1  0
 44 46  1  0
 27 47  1  0
 47 48  1  0
 47 49  1  0
 47 50  1  0
 24 51  1  0
 51 52  1  0
 51 53  1  0
 51 54  1  0
 54 55  1  0
 54 56  1  0
  3 57  1  0
 57 58  1  0
 57 59  1  0
 57 60  1  0
 60 61  1  0
 60 62  1  0
 60 63  1  0
 14  5  1  0
 54 16  1  0
 44 29  1  0
 43 34  1  0
M  CHG  2   4   1  47   1
M  END
>  <UniqueID>  (15) 
43

>  <SMILES>  (15) 
CC/C(O)=[N+](/c1ccccc1)C1CCN(C(=O)[C@@H]([NH3+])C2Cc3ccccc3C2)CC1

>  <Energy>  (15) 
89.62017243529434

>  <Genealogy>  (15) 
CCC(=O)[NH+](c1ccccc1)C1CCN(C(=O)[C@@H]([NH3+])C2Cc3ccccc3C2)CC1 (protonated)
CCC(O)=[N+](c1ccccc1)C1CCN(C(=O)[C@@H]([NH3+])C2Cc3ccccc3C2)CC1 (tautomer)
CC/C(O)=[N+](/c1ccccc1)C1CCN(C(=O)[C@@H]([NH3+])C2Cc3ccccc3C2)CC1 (cis-trans isomerization)
CC/C(O)=[N+](/c1ccccc1)C1CCN(C(=O)[C@@H]([NH3+])C2Cc3ccccc3C2)CC1 (3D coordinates assigned)
CC/C(O)=[N+](/c1ccccc1)C1CCN(C(=O)[C@@H]([NH3+])C2Cc3ccccc3C2)CC1 (nonaromatic ring conformer: 89.62017243529434 kcal/mol)

>  <smiles>  (15) 
CCC(=O)N(c1ccccc1)C1CCN(C(=O)[C@@H](N)C2Cc3ccccc3C2)CC1

>  <score_type>  (15) 
oracle

>  <origin>  (15) 
autodockgpu

>  <m_score__min__energy>  (15) 
-8.0399999999999991

>  <m_primary>  (15) 
energy

>  <meeko>  (15) 
{"free_energy": -8.04, "intermolecular_energy": -10.43, "internal_energy": -1.67, "cluster_size": 5, "cluster_id": 1, "rank_in_cluster": 1}

>  <energy>  (15) 
-6.61

>  <cluster_rmsd>  (15) 
0.0

>  <rmsd>  (15) 
269.5

>  <cluster>  (15) 
4

$$$$
MCZRVQBLWAUNOI-UKKWOIQDNA-P
     RDKit          3D

 63 66  0  0  0  0  0  0  0  0999 V2000
  143.6510   80.1070  217.0990 H   0  0  0  0  0  0  0  0  0  0  0  0
  143.3450   79.9810  218.0560 O   0  0  0  0  0  0  0  0  0  0  0  0
  142.2110   80.5860  218.6150 C   0  0  0  0  0  0  0  0  0  0  0  0
  141.4450   79.9280  219.4760 N   0  0  0  0  0  0  0  0  0  0  0  0
  141.6760   80.0990  220.8870 C   0  0  0  0  0  0  0  0  0  0  0  0
  142.0050   78.9920  221.6850 C   0  0  0  0  0  0  0  0  0  0  0  0
  142.0976   77.9946  221.2305 H   0  0  0  0  0  0  0  0  0  0  0  0
  142.2150   79.1570  223.0570 C   0  0  0  0  0  0  0  0  0  0  0  0
  142.4807   78.2900  223.6797 H   0  0  0  0  0  0  0  0  0  0  0  0
  142.0880   80.4220  223.6400 C   0  0  0  0  0  0  0  0  0  0  0  0
  142.2562   80.5496  224.7195 H   0  0  0  0  0  0  0  0  0  0  0  0
  141.7470   81.5250  222.8500 C   0  0  0  0  0  0  0  0  0  0  0  0
  141.6447   82.5192  223.3094 H   0  0  0  0  0  0  0  0  0  0  0  0
  141.5360   81.3650  221.4770 C   0  0  0  0  0  0  0  0  0  0  0  0
  141.2601   82.2319  220.8587 H   0  0  0  0  0  0  0  0  0  0  0  0
  140.3350   79.0020  219.1360 C   0  0  0  0  0  0  0  0  0  0  0  0
  139.9276   79.3081  218.1612 H   0  0  0  0  0  0  0  0  0  0  0  0
  140.8330   77.5530  218.8900 C   0  0  0  0  0  0  0  0  0  0  0  0
  141.4723   77.5409  217.9949 H   0  0  0  0  0  0  0  0  0  0  0  0
  141.3970   77.2247  219.7755 H   0  0  0  0  0  0  0  0  0  0  0  0
  139.6610   76.5900  218.6790 C   0  0  0  0  0  0  0  0  0  0  0  0
  139.1817   76.8028  217.7121 H   0  0  0  0  0  0  0  0  0  0  0  0
  140.0328   75.5548  218.6854 H   0  0  0  0  0  0  0  0  0  0  0  0
  138.6830   76.7630  219.7570 N   0  0  0  0  0  0  0  0  0  0  0  0
  138.7450   75.8990  220.9120 C   0  0  0  0  0  0  0  0  0  0  0  0
  139.8280   75.3110  221.1900 O   0  0  0  0  0  0  0  0  0  0  0  0
  137.5200   75.5930  221.7510 C   0  0  2  0  0  0  0  0  0  0  0  0
  136.6292   75.6051  221.1058 H   0  0  0  0  0  0  0  0  0  0  0  0
  137.3160   76.6730  222.8520 C   0  0  0  0  0  0  0  0  0  0  0  0
  137.1236   76.0752  223.7551 H   0  0  0  0  0  0  0  0  0  0  0  0
  136.1290   77.6230  222.5570 C   0  0  0  0  0  0  0  0  0  0  0  0
  135.8946   77.6368  221.4823 H   0  0  0  0  0  0  0  0  0  0  0  0
  135.2009   77.3172  223.0621 H   0  0  0  0  0  0  0  0  0  0  0  0
  136.6210   78.9450  223.0080 C   0  0  0  0  0  0  0  0  0  0  0  0
  135.8830   80.1290  223.1050 C   0  0  0  0  0  0  0  0  0  0  0  0
  134.8093   80.1416  222.8662 H   0  0  0  0  0  0  0  0  0  0  0  0
  136.5390   81.3010  223.5130 C   0  0  0  0  0  0  0  0  0  0  0  0
  135.9774   82.2428  223.5999 H   0  0  0  0  0  0  0  0  0  0  0  0
  137.9140   81.2730  223.8110 C   0  0  0  0  0  0  0  0  0  0  0  0
  138.4227   82.1917  224.1383 H   0  0  0  0  0  0  0  0  0  0  0  0
  138.6390   80.0760  223.6920 C   0  0  0  0  0  0  0  0  0  0  0  0
  139.7163   80.0480  223.9125 H   0  0  0  0  0  0  0  0  0  0  0  0
  137.9640   78.9220  223.2880 C   0  0  0  0  0  0  0  0  0  0  0  0
  138.5530   77.5830  223.0580 C   0  0  0  0  0  0  0  0  0  0  0  0
  139.1936   77.5838  222.1638 H   0  0  0  0  0  0  0  0  0  0  0  0
  139.1960   77.2503  223.8862 H   0  0  0  0  0  0  0  0  0  0  0  0
  137.6690   74.2600  222.3530 N   0  0  0  0  0  0  0  0  0  0  0  0
  137.4640   73.5160  221.6470 H   0  0  0  0  0  0  0  0  0  0  0  0
  137.0170   74.1450  223.1650 H   0  0  0  0  0  0  0  0  0  0  0  0
  138.6530   74.1300  222.6840 H   0  0  0  0  0  0  0  0  0  0  0  0
  138.0540   78.0880  219.8200 C   0  0  0  0  0  0  0  0  0  0  0  0
  137.5596   78.3052  218.8617 H   0  0  0  0  0  0  0  0  0  0  0  0
  137.3084   78.1020  220.6286 H   0  0  0  0  0  0  0  0  0  0  0  0
  139.1240   79.1480  220.0940 C   0  0  0  0  0  0  0  0  0  0  0  0
  138.6805   80.1455  219.9584 H   0  0  0  0  0  0  0  0  0  0  0  0
  139.4840   79.0133  221.1246 H   0  0  0  0  0  0  0  0  0  0  0  0
  141.9720   82.0080  218.1490 C   0  0  0  0  0  0  0  0  0  0  0  0
  141.8463   82.6598  219.0261 H   0  0  0  0  0  0  0  0  0  0  0  0
  141.0655   82.0302  217.5263 H   0  0  0  0  0  0  0  0  0  0  0  0
  143.1540   82.5060  217.3180 C   0  0  0  0  0  0  0  0  0  0  0  0
  143.9573   82.8444  217.9890 H   0  0  0  0  0  0  0  0  0  0  0  0
  143.5265   81.6883  216.6834 H   0  0  0  0  0  0  0  0  0  0  0  0
  142.8290   83.3437  216.6834 H   0  0  0  0  0  0  0  0  0  0  0  0
  1  2  1  0
  2  3  1  0
  3  4  2  0
  4  5  1  0
  5  6  2  0
  6  7  1  0
  6  8  1  0
  8  9  1  0
  8 10  2  0
 10 11  1  0
 10 12  1  0
 12 13  1  0
 12 14  2  0
 14 15  1  0
  4 16  1  0
 16 17  1  0
 16 18  1  0
 18 19  1  0
 18 20  1  0
 18 21  1  0
 21 22  1  0
 21 23  1  0
 21 24  1  0
 24 25  1  0
 25 26  2  0
 25 27  1  0
 27 28  1  6
 27 29  1  0
 29 30  1  0
 29 31  1  0
 31 32  1  0
 31 33  1  0
 31 34  1  0
 34 35  2  0
 35 36  1  0
 35 37  1  0
 37 38  1  0
 37 39  2  0
 39 40  1  0
 39 41  1  0
 41 42  1  0
 41 43  2  0
 43 44  1  0
 44 45  1  0
 44 46  1  0
 27 47  1  0
 47 48  1  0
 47 49  1  0
 47 50  1  0
 24 51  1  0
 51 52  1  0
 51 53  1  0
 51 54  1  0
 54 55  1  0
 54 56  1  0
  3 57  1  0
 57 58  1  0
 57 59  1  0
 57 60  1  0
 60 61  1  0
 60 62  1  0
 60 63  1  0
 14  5  1  0
 54 16  1  0
 44 29  1  0
 43 34  1  0
M  CHG  2   4   1  47   1
M  END
>  <UniqueID>  (16) 
43

>  <SMILES>  (16) 
CC/C(O)=[N+](/c1ccccc1)C1CCN(C(=O)[C@@H]([NH3+])C2Cc3ccccc3C2)CC1

>  <Energy>  (16) 
89.62017243529434

>  <Genealogy>  (16) 
CCC(=O)[NH+](c1ccccc1)C1CCN(C(=O)[C@@H]([NH3+])C2Cc3ccccc3C2)CC1 (protonated)
CCC(O)=[N+](c1ccccc1)C1CCN(C(=O)[C@@H]([NH3+])C2Cc3ccccc3C2)CC1 (tautomer)
CC/C(O)=[N+](/c1ccccc1)C1CCN(C(=O)[C@@H]([NH3+])C2Cc3ccccc3C2)CC1 (cis-trans isomerization)
CC/C(O)=[N+](/c1ccccc1)C1CCN(C(=O)[C@@H]([NH3+])C2Cc3ccccc3C2)CC1 (3D coordinates assigned)
CC/C(O)=[N+](/c1ccccc1)C1CCN(C(=O)[C@@H]([NH3+])C2Cc3ccccc3C2)CC1 (nonaromatic ring conformer: 89.62017243529434 kcal/mol)

>  <smiles>  (16) 
CCC(=O)N(c1ccccc1)C1CCN(C(=O)[C@@H](N)C2Cc3ccccc3C2)CC1

>  <score_type>  (16) 
oracle

>  <origin>  (16) 
autodockgpu

>  <m_score__min__energy>  (16) 
-8.0399999999999991

>  <m_primary>  (16) 
energy

>  <meeko>  (16) 
{"free_energy": -6.1, "intermolecular_energy": -8.49, "internal_energy": -3.07, "cluster_size": 4, "cluster_id": 5, "rank_in_cluster": 2}

>  <energy>  (16) 
-6.6

>  <cluster_rmsd>  (16) 
0.05

>  <rmsd>  (16) 
269.49

>  <cluster>  (16) 
4

$$$$
MCZRVQBLWAUNOI-UKKWOIQDNA-P
     RDKit          3D

 63 66  0  0  0  0  0  0  0  0999 V2000
  146.3560   74.0990  218.4600 H   0  0  0  0  0  0  0  0  0  0  0  0
  146.1300   73.1450  218.7110 O   0  0  0  0  0  0  0  0  0  0  0  0
  145.1100   72.7750  219.6000 C   0  0  0  0  0  0  0  0  0  0  0  0
  144.2770   71.7860  219.3050 N   0  0  0  0  0  0  0  0  0  0  0  0
  144.8140   70.4770  219.0390 C   0  0  0  0  0  0  0  0  0  0  0  0
  144.4130   69.3800  219.8160 C   0  0  0  0  0  0  0  0  0  0  0  0
  143.6773   69.5169  220.6222 H   0  0  0  0  0  0  0  0  0  0  0  0
  144.9480   68.1130  219.5660 C   0  0  0  0  0  0  0  0  0  0  0  0
  144.6284   67.2527  220.1725 H   0  0  0  0  0  0  0  0  0  0  0  0
  145.8890   67.9370  218.5460 C   0  0  0  0  0  0  0  0  0  0  0  0
  146.3058   66.9383  218.3489 H   0  0  0  0  0  0  0  0  0  0  0  0
  146.3000   69.0300  217.7770 C   0  0  0  0  0  0  0  0  0  0  0  0
  147.0415   68.8910  216.9764 H   0  0  0  0  0  0  0  0  0  0  0  0
  145.7690   70.3000  218.0250 C   0  0  0  0  0  0  0  0  0  0  0  0
  146.0998   71.1607  217.4252 H   0  0  0  0  0  0  0  0  0  0  0  0
  142.7970   71.8800  219.2150 C   0  0  0  0  0  0  0  0  0  0  0  0
  142.4719   71.2658  218.3623 H   0  0  0  0  0  0  0  0  0  0  0  0
  142.0910   71.2250  220.4320 C   0  0  0  0  0  0  0  0  0  0  0  0
  142.2899   70.1432  220.4219 H   0  0  0  0  0  0  0  0  0  0  0  0
  142.4848   71.6850  221.3503 H   0  0  0  0  0  0  0  0  0  0  0  0
  140.5780   71.4540  220.3880 C   0  0  0  0  0  0  0  0  0  0  0  0
  140.1423   70.8670  219.5661 H   0  0  0  0  0  0  0  0  0  0  0  0
  140.1319   71.1372  221.3423 H   0  0  0  0  0  0  0  0  0  0  0  0
  140.3040   72.8780  220.1700 N   0  0  0  0  0  0  0  0  0  0  0  0
  140.0590   73.7310  221.3090 C   0  0  0  0  0  0  0  0  0  0  0  0
  140.4760   73.3800  222.4490 O   0  0  0  0  0  0  0  0  0  0  0  0
  139.2270   74.9940  221.2000 C   0  0  2  0  0  0  0  0  0  0  0  0
  138.6458   74.9633  220.2666 H   0  0  0  0  0  0  0  0  0  0  0  0
  140.1360   76.2550  221.1450 C   0  0  0  0  0  0  0  0  0  0  0  0
  140.7237   76.0985  220.2284 H   0  0  0  0  0  0  0  0  0  0  0  0
  141.0620   76.3880  222.3790 C   0  0  0  0  0  0  0  0  0  0  0  0
  140.6586   75.8272  223.2350 H   0  0  0  0  0  0  0  0  0  0  0  0
  142.0694   75.9827  222.2033 H   0  0  0  0  0  0  0  0  0  0  0  0
  141.0670   77.8430  222.6550 C   0  0  0  0  0  0  0  0  0  0  0  0
  141.8700   78.5220  223.5770 C   0  0  0  0  0  0  0  0  0  0  0  0
  142.6216   77.9809  224.1705 H   0  0  0  0  0  0  0  0  0  0  0  0
  141.6990   79.9070  223.7310 C   0  0  0  0  0  0  0  0  0  0  0  0
  142.3227   80.4613  224.4477 H   0  0  0  0  0  0  0  0  0  0  0  0
  140.7300   80.5870  222.9690 C   0  0  0  0  0  0  0  0  0  0  0  0
  140.6037   81.6735  223.0858 H   0  0  0  0  0  0  0  0  0  0  0  0
  139.9240   79.8820  222.0600 C   0  0  0  0  0  0  0  0  0  0  0  0
  139.1573   80.4039  221.4685 H   0  0  0  0  0  0  0  0  0  0  0  0
  140.1150   78.5060  221.9220 C   0  0  0  0  0  0  0  0  0  0  0  0
  139.3430   77.5840  221.0590 C   0  0  0  0  0  0  0  0  0  0  0  0
  138.3187   77.4555  221.4389 H   0  0  0  0  0  0  0  0  0  0  0  0
  139.2361   77.9522  220.0280 H   0  0  0  0  0  0  0  0  0  0  0  0
  138.3080   75.0660  222.3440 N   0  0  0  0  0  0  0  0  0  0  0  0
  138.5140   74.3010  223.0260 H   0  0  0  0  0  0  0  0  0  0  0  0
  137.3140   74.9780  222.0270 H   0  0  0  0  0  0  0  0  0  0  0  0
  138.4280   75.9810  222.8380 H   0  0  0  0  0  0  0  0  0  0  0  0
  140.7880   73.4160  218.8930 C   0  0  0  0  0  0  0  0  0  0  0  0
  140.3477   72.8433  218.0635 H   0  0  0  0  0  0  0  0  0  0  0  0
  140.4947   74.4726  218.8058 H   0  0  0  0  0  0  0  0  0  0  0  0
  142.3130   73.3040  218.8370 C   0  0  0  0  0  0  0  0  0  0  0  0
  142.6504   73.5360  217.8161 H   0  0  0  0  0  0  0  0  0  0  0  0
  142.7362   74.0142  219.5626 H   0  0  0  0  0  0  0  0  0  0  0  0
  145.0710   73.5940  220.8750 C   0  0  0  0  0  0  0  0  0  0  0  0
  144.1989   73.2911  221.4731 H   0  0  0  0  0  0  0  0  0  0  0  0
  144.9987   74.6594  220.6111 H   0  0  0  0  0  0  0  0  0  0  0  0
  146.3430   73.3730  221.6930 C   0  0  0  0  0  0  0  0  0  0  0  0
  146.1013   73.4150  222.7653 H   0  0  0  0  0  0  0  0  0  0  0  0
  146.7679   72.3876  221.4512 H   0  0  0  0  0  0  0  0  0  0  0  0
  147.0753   74.1574  221.4512 H   0  0  0  0  0  0  0  0  0  0  0  0
  1  2  1  0
  2  3  1  0
  3  4  2  0
  4  5  1  0
  5  6  2  0
  6  7  1  0
  6  8  1  0
  8  9  1  0
  8 10  2  0
 10 11  1  0
 10 12  1  0
 12 13  1  0
 12 14  2  0
 14 15  1  0
  4 16  1  0
 16 17  1  0
 16 18  1  0
 18 19  1  0
 18 20  1  0
 18 21  1  0
 21 22  1  0
 21 23  1  0
 21 24  1  0
 24 25  1  0
 25 26  2  0
 25 27  1  0
 27 28  1  6
 27 29  1  0
 29 30  1  0
 29 31  1  0
 31 32  1  0
 31 33  1  0
 31 34  1  0
 34 35  2  0
 35 36  1  0
 35 37  1  0
 37 38  1  0
 37 39  2  0
 39 40  1  0
 39 41  1  0
 41 42  1  0
 41 43  2  0
 43 44  1  0
 44 45  1  0
 44 46  1  0
 27 47  1  0
 47 48  1  0
 47 49  1  0
 47 50  1  0
 24 51  1  0
 51 52  1  0
 51 53  1  0
 51 54  1  0
 54 55  1  0
 54 56  1  0
  3 57  1  0
 57 58  1  0
 57 59  1  0
 57 60  1  0
 60 61  1  0
 60 62  1  0
 60 63  1  0
 14  5  1  0
 54 16  1  0
 44 29  1  0
 43 34  1  0
M  CHG  2   4   1  47   1
M  END
>  <UniqueID>  (17) 
43

>  <SMILES>  (17) 
CC/C(O)=[N+](/c1ccccc1)C1CCN(C(=O)[C@@H]([NH3+])C2Cc3ccccc3C2)CC1

>  <Energy>  (17) 
89.62017243529434

>  <Genealogy>  (17) 
CCC(=O)[NH+](c1ccccc1)C1CCN(C(=O)[C@@H]([NH3+])C2Cc3ccccc3C2)CC1 (protonated)
CCC(O)=[N+](c1ccccc1)C1CCN(C(=O)[C@@H]([NH3+])C2Cc3ccccc3C2)CC1 (tautomer)
CC/C(O)=[N+](/c1ccccc1)C1CCN(C(=O)[C@@H]([NH3+])C2Cc3ccccc3C2)CC1 (cis-trans isomerization)
CC/C(O)=[N+](/c1ccccc1)C1CCN(C(=O)[C@@H]([NH3+])C2Cc3ccccc3C2)CC1 (3D coordinates assigned)
CC/C(O)=[N+](/c1ccccc1)C1CCN(C(=O)[C@@H]([NH3+])C2Cc3ccccc3C2)CC1 (nonaromatic ring conformer: 89.62017243529434 kcal/mol)

>  <smiles>  (17) 
CCC(=O)N(c1ccccc1)C1CCN(C(=O)[C@@H](N)C2Cc3ccccc3C2)CC1

>  <score_type>  (17) 
oracle

>  <origin>  (17) 
autodockgpu

>  <m_score__min__energy>  (17) 
-8.0399999999999991

>  <m_primary>  (17) 
energy

>  <meeko>  (17) 
{"free_energy": -7.87, "intermolecular_energy": -10.25, "internal_energy": -1.7, "cluster_size": 5, "cluster_id": 1, "rank_in_cluster": 5}

>  <energy>  (17) 
-6.12

>  <cluster_rmsd>  (17) 
0.0

>  <rmsd>  (17) 
269.09

>  <cluster>  (17) 
5

$$$$
MCZRVQBLWAUNOI-UKKWOIQDNA-P
     RDKit          3D

 63 66  0  0  0  0  0  0  0  0999 V2000
  146.3330   74.1150  218.4030 H   0  0  0  0  0  0  0  0  0  0  0  0
  146.1340   73.1650  218.6910 O   0  0  0  0  0  0  0  0  0  0  0  0
  145.1150   72.8000  219.5830 C   0  0  0  0  0  0  0  0  0  0  0  0
  144.2850   71.8060  219.2960 N   0  0  0  0  0  0  0  0  0  0  0  0
  144.8270   70.4970  219.0400 C   0  0  0  0  0  0  0  0  0  0  0  0
  145.7660   70.3130  218.0140 C   0  0  0  0  0  0  0  0  0  0  0  0
  146.0974   71.1719  217.4120 H   0  0  0  0  0  0  0  0  0  0  0  0
  146.2810   69.0390  217.7560 C   0  0  0  0  0  0  0  0  0  0  0  0
  147.0227   68.8978  216.9561 H   0  0  0  0  0  0  0  0  0  0  0  0
  145.8540   67.9440  218.5140 C   0  0  0  0  0  0  0  0  0  0  0  0
  146.2617   66.9427  218.3111 H   0  0  0  0  0  0  0  0  0  0  0  0
  144.9090   68.1210  219.5300 C   0  0  0  0  0  0  0  0  0  0  0  0
  144.5733   67.2587  220.1247 H   0  0  0  0  0  0  0  0  0  0  0  0
  144.3910   69.3930  219.7900 C   0  0  0  0  0  0  0  0  0  0  0  0
  143.6410   69.5292  220.5830 H   0  0  0  0  0  0  0  0  0  0  0  0
  142.8040   71.8930  219.2060 C   0  0  0  0  0  0  0  0  0  0  0  0
  142.4801   71.2773  218.3539 H   0  0  0  0  0  0  0  0  0  0  0  0
  142.1020   71.2350  220.4230 C   0  0  0  0  0  0  0  0  0  0  0  0
  142.3057   70.1541  220.4131 H   0  0  0  0  0  0  0  0  0  0  0  0
  142.4941   71.6960  221.3416 H   0  0  0  0  0  0  0  0  0  0  0  0
  140.5870   71.4580  220.3780 C   0  0  0  0  0  0  0  0  0  0  0  0
  140.1543   70.8692  219.5558 H   0  0  0  0  0  0  0  0  0  0  0  0
  140.1418   71.1395  221.3321 H   0  0  0  0  0  0  0  0  0  0  0  0
  140.3070   72.8800  220.1600 N   0  0  0  0  0  0  0  0  0  0  0  0
  140.0590   73.7320  221.2990 C   0  0  0  0  0  0  0  0  0  0  0  0
  140.4760   73.3830  222.4390 O   0  0  0  0  0  0  0  0  0  0  0  0
  139.2210   74.9920  221.1900 C   0  0  2  0  0  0  0  0  0  0  0  0
  138.6394   74.9590  220.2569 H   0  0  0  0  0  0  0  0  0  0  0  0
  140.1250   76.2570  221.1350 C   0  0  0  0  0  0  0  0  0  0  0  0
  140.7123   76.1037  220.2176 H   0  0  0  0  0  0  0  0  0  0  0  0
  141.0530   76.3930  222.3670 C   0  0  0  0  0  0  0  0  0  0  0  0
  140.6537   75.8300  223.2235 H   0  0  0  0  0  0  0  0  0  0  0  0
  142.0616   75.9919  222.1887 H   0  0  0  0  0  0  0  0  0  0  0  0
  141.0530   77.8470  222.6440 C   0  0  0  0  0  0  0  0  0  0  0  0
  141.8560   78.5290  223.5650 C   0  0  0  0  0  0  0  0  0  0  0  0
  142.6115   77.9909  224.1563 H   0  0  0  0  0  0  0  0  0  0  0  0
  141.6790   79.9130  223.7200 C   0  0  0  0  0  0  0  0  0  0  0  0
  142.3021   80.4698  224.4353 H   0  0  0  0  0  0  0  0  0  0  0  0
  140.7050   80.5890  222.9610 C   0  0  0  0  0  0  0  0  0  0  0  0
  140.5735   81.6746  223.0798 H   0  0  0  0  0  0  0  0  0  0  0  0
  139.9010   79.8820  222.0530 C   0  0  0  0  0  0  0  0  0  0  0  0
  139.1314   80.4015  221.4632 H   0  0  0  0  0  0  0  0  0  0  0  0
  140.0970   78.5070  221.9130 C   0  0  0  0  0  0  0  0  0  0  0  0
  139.3260   77.5820  221.0510 C   0  0  0  0  0  0  0  0  0  0  0  0
  138.3032   77.4491  221.4333 H   0  0  0  0  0  0  0  0  0  0  0  0
  139.2145   77.9500  220.0204 H   0  0  0  0  0  0  0  0  0  0  0  0
  138.3020   75.0600  222.3360 N   0  0  0  0  0  0  0  0  0  0  0  0
  137.3110   74.9880  222.0130 H   0  0  0  0  0  0  0  0  0  0  0  0
  138.4250   75.9610  222.8550 H   0  0  0  0  0  0  0  0  0  0  0  0
  138.4900   74.2630  222.9870 H   0  0  0  0  0  0  0  0  0  0  0  0
  140.7890   73.4210  218.8840 C   0  0  0  0  0  0  0  0  0  0  0  0
  140.3510   72.8474  218.0538 H   0  0  0  0  0  0  0  0  0  0  0  0
  140.4916   74.4765  218.7978 H   0  0  0  0  0  0  0  0  0  0  0  0
  142.3150   73.3150  218.8280 C   0  0  0  0  0  0  0  0  0  0  0  0
  142.6516   73.5483  217.8071 H   0  0  0  0  0  0  0  0  0  0  0  0
  142.7356   74.0270  219.5534 H   0  0  0  0  0  0  0  0  0  0  0  0
  145.0720   73.6300  220.8500 C   0  0  0  0  0  0  0  0  0  0  0  0
  144.1828   73.3517  221.4348 H   0  0  0  0  0  0  0  0  0  0  0  0
  145.0286   74.6944  220.5760 H   0  0  0  0  0  0  0  0  0  0  0  0
  146.3240   73.3880  221.6930 C   0  0  0  0  0  0  0  0  0  0  0  0
  146.0628   73.4385  222.7603 H   0  0  0  0  0  0  0  0  0  0  0  0
  146.7346   72.3939  221.4626 H   0  0  0  0  0  0  0  0  0  0  0  0
  147.0755   74.1575  221.4626 H   0  0  0  0  0  0  0  0  0  0  0  0
  1  2  1  0
  2  3  1  0
  3  4  2  0
  4  5  1  0
  5  6  2  0
  6  7  1  0
  6  8  1  0
  8  9  1  0
  8 10  2  0
 10 11  1  0
 10 12  1  0
 12 13  1  0
 12 14  2  0
 14 15  1  0
  4 16  1  0
 16 17  1  0
 16 18  1  0
 18 19  1  0
 18 20  1  0
 18 21  1  0
 21 22  1  0
 21 23  1  0
 21 24  1  0
 24 25  1  0
 25 26  2  0
 25 27  1  0
 27 28  1  6
 27 29  1  0
 29 30  1  0
 29 31  1  0
 31 32  1  0
 31 33  1  0
 31 34  1  0
 34 35  2  0
 35 36  1  0
 35 37  1  0
 37 38  1  0
 37 39  2  0
 39 40  1  0
 39 41  1  0
 41 42  1  0
 41 43  2  0
 43 44  1  0
 44 45  1  0
 44 46  1  0
 27 47  1  0
 47 48  1  0
 47 49  1  0
 47 50  1  0
 24 51  1  0
 51 52  1  0
 51 53  1  0
 51 54  1  0
 54 55  1  0
 54 56  1  0
  3 57  1  0
 57 58  1  0
 57 59  1  0
 57 60  1  0
 60 61  1  0
 60 62  1  0
 60 63  1  0
 14  5  1  0
 54 16  1  0
 44 29  1  0
 43 34  1  0
M  CHG  2   4   1  47   1
M  END
>  <UniqueID>  (18) 
43

>  <SMILES>  (18) 
CC/C(O)=[N+](/c1ccccc1)C1CCN(C(=O)[C@@H]([NH3+])C2Cc3ccccc3C2)CC1

>  <Energy>  (18) 
89.62017243529434

>  <Genealogy>  (18) 
CCC(=O)[NH+](c1ccccc1)C1CCN(C(=O)[C@@H]([NH3+])C2Cc3ccccc3C2)CC1 (protonated)
CCC(O)=[N+](c1ccccc1)C1CCN(C(=O)[C@@H]([NH3+])C2Cc3ccccc3C2)CC1 (tautomer)
CC/C(O)=[N+](/c1ccccc1)C1CCN(C(=O)[C@@H]([NH3+])C2Cc3ccccc3C2)CC1 (cis-trans isomerization)
CC/C(O)=[N+](/c1ccccc1)C1CCN(C(=O)[C@@H]([NH3+])C2Cc3ccccc3C2)CC1 (3D coordinates assigned)
CC/C(O)=[N+](/c1ccccc1)C1CCN(C(=O)[C@@H]([NH3+])C2Cc3ccccc3C2)CC1 (nonaromatic ring conformer: 89.62017243529434 kcal/mol)

>  <smiles>  (18) 
CCC(=O)N(c1ccccc1)C1CCN(C(=O)[C@@H](N)C2Cc3ccccc3C2)CC1

>  <score_type>  (18) 
oracle

>  <origin>  (18) 
autodockgpu

>  <m_score__min__energy>  (18) 
-8.0399999999999991

>  <m_primary>  (18) 
energy

>  <meeko>  (18) 
{"free_energy": -7.9, "intermolecular_energy": -10.29, "internal_energy": -1.69, "cluster_size": 5, "cluster_id": 1, "rank_in_cluster": 3}

>  <energy>  (18) 
-6.1

>  <cluster_rmsd>  (18) 
0.44

>  <rmsd>  (18) 
269.23

>  <cluster>  (18) 
5

$$$$
MCZRVQBLWAUNOI-UKKWOIQDNA-P
     RDKit          3D

 63 66  0  0  0  0  0  0  0  0999 V2000
  143.5730   80.5110  216.9860 H   0  0  0  0  0  0  0  0  0  0  0  0
  143.3410   80.3290  217.9550 O   0  0  0  0  0  0  0  0  0  0  0  0
  142.2030   80.8220  218.6080 C   0  0  0  0  0  0  0  0  0  0  0  0
  141.5190   80.0600  219.4510 N   0  0  0  0  0  0  0  0  0  0  0  0
  141.7120   80.2390  220.8670 C   0  0  0  0  0  0  0  0  0  0  0  0
  141.4680   81.4880  221.4580 C   0  0  0  0  0  0  0  0  0  0  0  0
  141.1169   82.3288  220.8417 H   0  0  0  0  0  0  0  0  0  0  0  0
  141.6710   81.6640  222.8300 C   0  0  0  0  0  0  0  0  0  0  0  0
  141.4726   82.6416  223.2936 H   0  0  0  0  0  0  0  0  0  0  0  0
  142.1260   80.5990  223.6140 C   0  0  0  0  0  0  0  0  0  0  0  0
  142.2827   80.7394  224.6937 H   0  0  0  0  0  0  0  0  0  0  0  0
  142.3820   79.3560  223.0270 C   0  0  0  0  0  0  0  0  0  0  0  0
  142.7408   78.5196  223.6448 H   0  0  0  0  0  0  0  0  0  0  0  0
  142.1820   79.1760  221.6550 C   0  0  0  0  0  0  0  0  0  0  0  0
  142.3931   78.2006  221.1923 H   0  0  0  0  0  0  0  0  0  0  0  0
  140.5400   79.0040  219.0870 C   0  0  0  0  0  0  0  0  0  0  0  0
  140.1651   79.2266  218.0771 H   0  0  0  0  0  0  0  0  0  0  0  0
  141.2070   77.6110  218.9350 C   0  0  0  0  0  0  0  0  0  0  0  0
  141.8999   77.6368  218.0810 H   0  0  0  0  0  0  0  0  0  0  0  0
  141.7452   77.3804  219.8662 H   0  0  0  0  0  0  0  0  0  0  0  0
  140.1630   76.5170  218.6970 C   0  0  0  0  0  0  0  0  0  0  0  0
  139.7262   76.6392  217.6949 H   0  0  0  0  0  0  0  0  0  0  0  0
  140.6435   75.5302  218.7705 H   0  0  0  0  0  0  0  0  0  0  0  0
  139.1050   76.6210  219.7070 N   0  0  0  0  0  0  0  0  0  0  0  0
  139.1870   75.8120  220.9000 C   0  0  0  0  0  0  0  0  0  0  0  0
  140.3070   75.3590  221.2680 O   0  0  0  0  0  0  0  0  0  0  0  0
  137.9500   75.4030  221.6770 C   0  0  2  0  0  0  0  0  0  0  0  0
  137.1034   75.3039  220.9817 H   0  0  0  0  0  0  0  0  0  0  0  0
  137.5700   76.4860  222.7270 C   0  0  0  0  0  0  0  0  0  0  0  0
  137.3516   75.8943  223.6282 H   0  0  0  0  0  0  0  0  0  0  0  0
  136.3400   77.3300  222.3080 C   0  0  0  0  0  0  0  0  0  0  0  0
  136.1968   77.3012  221.2177 H   0  0  0  0  0  0  0  0  0  0  0  0
  135.3997   76.9608  222.7434 H   0  0  0  0  0  0  0  0  0  0  0  0
  136.6860   78.6970  222.7600 C   0  0  0  0  0  0  0  0  0  0  0  0
  135.8510   79.8190  222.7630 C   0  0  0  0  0  0  0  0  0  0  0  0
  134.8035   79.7387  222.4370 H   0  0  0  0  0  0  0  0  0  0  0  0
  136.3750   81.0500  223.1900 C   0  0  0  0  0  0  0  0  0  0  0  0
  135.7349   81.9444  223.2047 H   0  0  0  0  0  0  0  0  0  0  0  0
  137.7180   81.1400  223.5990 C   0  0  0  0  0  0  0  0  0  0  0  0
  138.1235   82.1043  223.9390 H   0  0  0  0  0  0  0  0  0  0  0  0
  138.5430   80.0040  223.5750 C   0  0  0  0  0  0  0  0  0  0  0  0
  139.5963   80.0688  223.8854 H   0  0  0  0  0  0  0  0  0  0  0  0
  137.9990   78.7900  223.1490 C   0  0  0  0  0  0  0  0  0  0  0  0
  138.7090   77.4990  223.0070 C   0  0  0  0  0  0  0  0  0  0  0  0
  139.4202   77.5320  222.1685 H   0  0  0  0  0  0  0  0  0  0  0  0
  139.3043   77.2385  223.8946 H   0  0  0  0  0  0  0  0  0  0  0  0
  138.1990   74.1100  222.3320 N   0  0  0  0  0  0  0  0  0  0  0  0
  138.1220   73.3310  221.6410 H   0  0  0  0  0  0  0  0  0  0  0  0
  137.5100   73.9490  223.1050 H   0  0  0  0  0  0  0  0  0  0  0  0
  139.1670   74.0960  222.7300 H   0  0  0  0  0  0  0  0  0  0  0  0
  138.3330   77.8690  219.6730 C   0  0  0  0  0  0  0  0  0  0  0  0
  137.8808   77.9936  218.6780 H   0  0  0  0  0  0  0  0  0  0  0  0
  137.5395   77.8304  220.4338 H   0  0  0  0  0  0  0  0  0  0  0  0
  139.2610   79.0500  219.9630 C   0  0  0  0  0  0  0  0  0  0  0  0
  138.7214   79.9862  219.7569 H   0  0  0  0  0  0  0  0  0  0  0  0
  139.5664   78.9947  221.0183 H   0  0  0  0  0  0  0  0  0  0  0  0
  141.8590   82.2560  218.2580 C   0  0  0  0  0  0  0  0  0  0  0  0
  141.7078   82.8285  219.1850 H   0  0  0  0  0  0  0  0  0  0  0  0
  140.9402   82.2638  217.6531 H   0  0  0  0  0  0  0  0  0  0  0  0
  142.9880   82.8960  217.4500 C   0  0  0  0  0  0  0  0  0  0  0  0
  143.7356   83.3198  218.1366 H   0  0  0  0  0  0  0  0  0  0  0  0
  143.4633   82.1330  216.8160 H   0  0  0  0  0  0  0  0  0  0  0  0
  142.5775   83.6957  216.8160 H   0  0  0  0  0  0  0  0  0  0  0  0
  1  2  1  0
  2  3  1  0
  3  4  2  0
  4  5  1  0
  5  6  2  0
  6  7  1  0
  6  8  1  0
  8  9  1  0
  8 10  2  0
 10 11  1  0
 10 12  1  0
 12 13  1  0
 12 14  2  0
 14 15  1  0
  4 16  1  0
 16 17  1  0
 16 18  1  0
 18 19  1  0
 18 20  1  0
 18 21  1  0
 21 22  1  0
 21 23  1  0
 21 24  1  0
 24 25  1  0
 25 26  2  0
 25 27  1  0
 27 28  1  6
 27 29  1  0
 29 30  1  0
 29 31  1  0
 31 32  1  0
 31 33  1  0
 31 34  1  0
 34 35  2  0
 35 36  1  0
 35 37  1  0
 37 38  1  0
 37 39  2  0
 39 40  1  0
 39 41  1  0
 41 42  1  0
 41 43  2  0
 43 44  1  0
 44 45  1  0
 44 46  1  0
 27 47  1  0
 47 48  1  0
 47 49  1  0
 47 50  1  0
 24 51  1  0
 51 52  1  0
 51 53  1  0
 51 54  1  0
 54 55  1  0
 54 56  1  0
  3 57  1  0
 57 58  1  0
 57 59  1  0
 57 60  1  0
 60 61  1  0
 60 62  1  0
 60 63  1  0
 14  5  1  0
 54 16  1  0
 44 29  1  0
 43 34  1  0
M  CHG  2   4   1  47   1
M  END
>  <UniqueID>  (19) 
43

>  <SMILES>  (19) 
CC/C(O)=[N+](/c1ccccc1)C1CCN(C(=O)[C@@H]([NH3+])C2Cc3ccccc3C2)CC1

>  <Energy>  (19) 
89.62017243529434

>  <Genealogy>  (19) 
CCC(=O)[NH+](c1ccccc1)C1CCN(C(=O)[C@@H]([NH3+])C2Cc3ccccc3C2)CC1 (protonated)
CCC(O)=[N+](c1ccccc1)C1CCN(C(=O)[C@@H]([NH3+])C2Cc3ccccc3C2)CC1 (tautomer)
CC/C(O)=[N+](/c1ccccc1)C1CCN(C(=O)[C@@H]([NH3+])C2Cc3ccccc3C2)CC1 (cis-trans isomerization)
CC/C(O)=[N+](/c1ccccc1)C1CCN(C(=O)[C@@H]([NH3+])C2Cc3ccccc3C2)CC1 (3D coordinates assigned)
CC/C(O)=[N+](/c1ccccc1)C1CCN(C(=O)[C@@H]([NH3+])C2Cc3ccccc3C2)CC1 (nonaromatic ring conformer: 89.62017243529434 kcal/mol)

>  <smiles>  (19) 
CCC(=O)N(c1ccccc1)C1CCN(C(=O)[C@@H](N)C2Cc3ccccc3C2)CC1

>  <score_type>  (19) 
oracle

>  <origin>  (19) 
autodockgpu

>  <m_score__min__energy>  (19) 
-8.0399999999999991

>  <m_primary>  (19) 
energy

>  <meeko>  (19) 
{"free_energy": -6.07, "intermolecular_energy": -8.46, "internal_energy": -3.06, "cluster_size": 4, "cluster_id": 5, "rank_in_cluster": 4}

>  <energy>  (19) 
-6.1

>  <cluster_rmsd>  (19) 
0.38

>  <rmsd>  (19) 
269.26

>  <cluster>  (19) 
5

$$$$
MCZRVQBLWAUNOI-UKKWOIQDNA-P
     RDKit          3D

 63 66  0  0  0  0  0  0  0  0999 V2000
  136.2040   82.7600  223.3880 H   0  0  0  0  0  0  0  0  0  0  0  0
  137.2100   82.7680  223.2790 O   0  0  0  0  0  0  0  0  0  0  0  0
  138.0360   81.6450  223.4340 C   0  0  0  0  0  0  0  0  0  0  0  0
  138.9830   81.3700  222.5460 N   0  0  0  0  0  0  0  0  0  0  0  0
  140.0660   80.5020  222.9280 C   0  0  0  0  0  0  0  0  0  0  0  0
  141.2450   81.0410  223.4640 C   0  0  0  0  0  0  0  0  0  0  0  0
  141.3383   82.1280  223.6044 H   0  0  0  0  0  0  0  0  0  0  0  0
  142.3020   80.1970  223.8200 C   0  0  0  0  0  0  0  0  0  0  0  0
  143.2232   80.6203  224.2468 H   0  0  0  0  0  0  0  0  0  0  0  0
  142.1890   78.8160  223.6340 C   0  0  0  0  0  0  0  0  0  0  0  0
  143.0207   78.1539  223.9167 H   0  0  0  0  0  0  0  0  0  0  0  0
  141.0200   78.2750  223.0890 C   0  0  0  0  0  0  0  0  0  0  0  0
  140.9329   77.1882  222.9428 H   0  0  0  0  0  0  0  0  0  0  0  0
  139.9620   79.1160  222.7300 C   0  0  0  0  0  0  0  0  0  0  0  0
  139.0469   78.6910  222.2918 H   0  0  0  0  0  0  0  0  0  0  0  0
  139.0550   81.8770  221.1510 C   0  0  0  0  0  0  0  0  0  0  0  0
  138.2500   82.6147  221.0176 H   0  0  0  0  0  0  0  0  0  0  0  0
  140.3490   82.6920  220.8880 C   0  0  0  0  0  0  0  0  0  0  0  0
  140.3287   83.6047  221.5016 H   0  0  0  0  0  0  0  0  0  0  0  0
  141.2139   82.0655  221.1515 H   0  0  0  0  0  0  0  0  0  0  0  0
  140.4680   83.0850  219.4130 C   0  0  0  0  0  0  0  0  0  0  0  0
  139.7040   83.8388  219.1720 H   0  0  0  0  0  0  0  0  0  0  0  0
  141.4683   83.5023  219.2252 H   0  0  0  0  0  0  0  0  0  0  0  0
  140.2680   81.9010  218.5720 N   0  0  0  0  0  0  0  0  0  0  0  0
  141.4180   81.1560  218.1180 C   0  0  0  0  0  0  0  0  0  0  0  0
  142.5090   81.2520  218.7480 O   0  0  0  0  0  0  0  0  0  0  0  0
  141.3890   80.3340  216.8430 C   0  0  2  0  0  0  0  0  0  0  0  0
  140.4824   80.5837  216.2723 H   0  0  0  0  0  0  0  0  0  0  0  0
  141.3360   78.8130  217.1650 C   0  0  0  0  0  0  0  0  0  0  0  0
  140.8700   78.3847  216.2653 H   0  0  0  0  0  0  0  0  0  0  0  0
  140.4990   78.4880  218.4260 C   0  0  0  0  0  0  0  0  0  0  0  0
  140.4236   79.3660  219.0843 H   0  0  0  0  0  0  0  0  0  0  0  0
  139.4638   78.2009  218.1894 H   0  0  0  0  0  0  0  0  0  0  0  0
  141.2620   77.4010  219.0800 C   0  0  0  0  0  0  0  0  0  0  0  0
  140.8630   76.6370  220.1820 C   0  0  0  0  0  0  0  0  0  0  0  0
  139.8745   76.7880  220.6402 H   0  0  0  0  0  0  0  0  0  0  0  0
  141.7480   75.6740  220.6920 C   0  0  0  0  0  0  0  0  0  0  0  0
  141.4528   75.0587  221.5547 H   0  0  0  0  0  0  0  0  0  0  0  0
  143.0120   75.4950  220.1010 C   0  0  0  0  0  0  0  0  0  0  0  0
  143.7006   74.7353  220.4993 H   0  0  0  0  0  0  0  0  0  0  0  0
  143.3980   76.2830  219.0040 C   0  0  0  0  0  0  0  0  0  0  0  0
  144.3881   76.1553  218.5422 H   0  0  0  0  0  0  0  0  0  0  0  0
  142.5000   77.2310  218.5120 C   0  0  0  0  0  0  0  0  0  0  0  0
  142.7330   78.1850  217.4040 C   0  0  0  0  0  0  0  0  0  0  0  0
  143.4647   78.9533  217.6944 H   0  0  0  0  0  0  0  0  0  0  0  0
  143.1452   77.7038  216.5048 H   0  0  0  0  0  0  0  0  0  0  0  0
  142.5750   80.6540  216.0370 N   0  0  0  0  0  0  0  0  0  0  0  0
  143.3270   81.0580  216.6390 H   0  0  0  0  0  0  0  0  0  0  0  0
  142.3360   81.3420  215.2840 H   0  0  0  0  0  0  0  0  0  0  0  0
  142.9480   79.7810  215.5950 H   0  0  0  0  0  0  0  0  0  0  0  0
  138.9400   81.2820  218.6740 C   0  0  0  0  0  0  0  0  0  0  0  0
  138.1688   82.0246  218.4213 H   0  0  0  0  0  0  0  0  0  0  0  0
  138.8754   80.4347  217.9755 H   0  0  0  0  0  0  0  0  0  0  0  0
  138.7190   80.7830  220.1040 C   0  0  0  0  0  0  0  0  0  0  0  0
  137.6653   80.4896  220.2205 H   0  0  0  0  0  0  0  0  0  0  0  0
  139.3876   79.9266  220.2758 H   0  0  0  0  0  0  0  0  0  0  0  0
  137.7400   80.8220  224.6710 C   0  0  0  0  0  0  0  0  0  0  0  0
  138.6790   80.3986  225.0570 H   0  0  0  0  0  0  0  0  0  0  0  0
  137.0418   80.0156  224.4024 H   0  0  0  0  0  0  0  0  0  0  0  0
  137.0980   81.6910  225.7530 C   0  0  0  0  0  0  0  0  0  0  0  0
  137.3801   81.3091  226.7453 H   0  0  0  0  0  0  0  0  0  0  0  0
  137.4484   82.7282  225.6461 H   0  0  0  0  0  0  0  0  0  0  0  0
  136.0036   81.6608  225.6461 H   0  0  0  0  0  0  0  0  0  0  0  0
  1  2  1  0
  2  3  1  0
  3  4  2  0
  4  5  1  0
  5  6  2  0
  6  7  1  0
  6  8  1  0
  8  9  1  0
  8 10  2  0
 10 11  1  0
 10 12  1  0
 12 13  1  0
 12 14  2  0
 14 15  1  0
  4 16  1  0
 16 17  1  0
 16 18  1  0
 18 19  1  0
 18 20  1  0
 18 21  1  0
 21 22  1  0
 21 23  1  0
 21 24  1  0
 24 25  1  0
 25 26  2  0
 25 27  1  0
 27 28  1  6
 27 29  1  0
 29 30  1  0
 29 31  1  0
 31 32  1  0
 31 33  1  0
 31 34  1  0
 34 35  2  0
 35 36  1  0
 35 37  1  0
 37 38  1  0
 37 39  2  0
 39 40  1  0
 39 41  1  0
 41 42  1  0
 41 43  2  0
 43 44  1  0
 44 45  1  0
 44 46  1  0
 27 47  1  0
 47 48  1  0
 47 49  1  0
 47 50  1  0
 24 51  1  0
 51 52  1  0
 51 53  1  0
 51 54  1  0
 54 55  1  0
 54 56  1  0
  3 57  1  0
 57 58  1  0
 57 59  1  0
 57 60  1  0
 60 61  1  0
 60 62  1  0
 60 63  1  0
 14  5  1  0
 54 16  1  0
 44 29  1  0
 43 34  1  0
M  CHG  2   4   1  47   1
M  END
>  <UniqueID>  (20) 
43

>  <SMILES>  (20) 
CC/C(O)=[N+](/c1ccccc1)C1CCN(C(=O)[C@@H]([NH3+])C2Cc3ccccc3C2)CC1

>  <Energy>  (20) 
89.62017243529434

>  <Genealogy>  (20) 
CCC(=O)[NH+](c1ccccc1)C1CCN(C(=O)[C@@H]([NH3+])C2Cc3ccccc3C2)CC1 (protonated)
CCC(O)=[N+](c1ccccc1)C1CCN(C(=O)[C@@H]([NH3+])C2Cc3ccccc3C2)CC1 (tautomer)
CC/C(O)=[N+](/c1ccccc1)C1CCN(C(=O)[C@@H]([NH3+])C2Cc3ccccc3C2)CC1 (cis-trans isomerization)
CC/C(O)=[N+](/c1ccccc1)C1CCN(C(=O)[C@@H]([NH3+])C2Cc3ccccc3C2)CC1 (3D coordinates assigned)
CC/C(O)=[N+](/c1ccccc1)C1CCN(C(=O)[C@@H]([NH3+])C2Cc3ccccc3C2)CC1 (nonaromatic ring conformer: 89.62017243529434 kcal/mol)

>  <smiles>  (20) 
CCC(=O)N(c1ccccc1)C1CCN(C(=O)[C@@H](N)C2Cc3ccccc3C2)CC1

>  <score_type>  (20) 
oracle

>  <origin>  (20) 
autodockgpu

>  <m_score__min__energy>  (20) 
-8.0399999999999991

>  <m_primary>  (20) 
energy

>  <meeko>  (20) 
{"free_energy": -6.61, "intermolecular_energy": -9.0, "internal_energy": -2.59, "cluster_size": 2, "cluster_id": 4, "rank_in_cluster": 1}

>  <energy>  (20) 
-6.07

>  <cluster_rmsd>  (20) 
0.38

>  <rmsd>  (20) 
269.25

>  <cluster>  (20) 
5

$$$$
MCZRVQBLWAUNOI-QBLXWANANA-P
     RDKit          3D

 63 66  0  0  0  0  0  0  0  0999 V2000
  138.6320   67.9190  222.0510 H   0  0  0  0  0  0  0  0  0  0  0  0
  139.1970   68.7560  222.1160 O   0  0  0  0  0  0  0  0  0  0  0  0
  138.7330   69.9000  222.7740 C   0  0  0  0  0  0  0  0  0  0  0  0
  139.5920   70.8060  223.1980 N   0  0  0  0  0  0  0  0  0  0  0  0
  140.0900   70.7650  224.5510 C   0  0  0  0  0  0  0  0  0  0  0  0
  140.6980   71.8990  225.1140 C   0  0  0  0  0  0  0  0  0  0  0  0
  140.7989   72.8196  224.5204 H   0  0  0  0  0  0  0  0  0  0  0  0
  141.1750   71.8600  226.4270 C   0  0  0  0  0  0  0  0  0  0  0  0
  141.6431   72.7524  226.8679 H   0  0  0  0  0  0  0  0  0  0  0  0
  141.0580   70.6870  227.1820 C   0  0  0  0  0  0  0  0  0  0  0  0
  141.4402   70.6558  228.2130 H   0  0  0  0  0  0  0  0  0  0  0  0
  140.4550   69.5550  226.6250 C   0  0  0  0  0  0  0  0  0  0  0  0
  140.3590   68.6351  227.2205 H   0  0  0  0  0  0  0  0  0  0  0  0
  139.9740   69.5900  225.3130 C   0  0  0  0  0  0  0  0  0  0  0  0
  139.5040   68.6964  224.8764 H   0  0  0  0  0  0  0  0  0  0  0  0
  139.9880   71.9280  222.3080 C   0  0  0  0  0  0  0  0  0  0  0  0
  140.3958   72.7127  222.9621 H   0  0  0  0  0  0  0  0  0  0  0  0
  141.0690   71.4710  221.3060 C   0  0  0  0  0  0  0  0  0  0  0  0
  141.9838   71.2256  221.8655 H   0  0  0  0  0  0  0  0  0  0  0  0
  140.6696   70.5990  220.7673 H   0  0  0  0  0  0  0  0  0  0  0  0
  141.4110   72.5470  220.2520 C   0  0  0  0  0  0  0  0  0  0  0  0
  142.4899   72.7572  220.2938 H   0  0  0  0  0  0  0  0  0  0  0  0
  141.1233   72.1624  219.2624 H   0  0  0  0  0  0  0  0  0  0  0  0
  140.6730   73.7940  220.4920 N   0  0  0  0  0  0  0  0  0  0  0  0
  141.3580   74.9580  220.9820 C   0  0  0  0  0  0  0  0  0  0  0  0
  141.2740   75.2400  222.2080 O   0  0  0  0  0  0  0  0  0  0  0  0
  142.1710   75.8730  220.0790 C   0  0  2  0  0  0  0  0  0  0  0  0
  141.6346   75.8706  219.1187 H   0  0  0  0  0  0  0  0  0  0  0  0
  143.5990   75.3510  219.7240 C   0  0  0  0  0  0  0  0  0  0  0  0
  144.2124   76.2548  219.8542 H   0  0  0  0  0  0  0  0  0  0  0  0
  143.6970   74.8100  218.2720 C   0  0  0  0  0  0  0  0  0  0  0  0
  142.7107   74.8168  217.7851 H   0  0  0  0  0  0  0  0  0  0  0  0
  144.3546   75.4213  217.6365 H   0  0  0  0  0  0  0  0  0  0  0  0
  144.1920   73.4260  218.4370 C   0  0  0  0  0  0  0  0  0  0  0  0
  144.3950   72.4840  217.4240 C   0  0  0  0  0  0  0  0  0  0  0  0
  144.1847   72.7363  216.3742 H   0  0  0  0  0  0  0  0  0  0  0  0
  144.8730   71.2080  217.7720 C   0  0  0  0  0  0  0  0  0  0  0  0
  145.0431   70.4537  216.9896 H   0  0  0  0  0  0  0  0  0  0  0  0
  145.1340   70.8940  219.1170 C   0  0  0  0  0  0  0  0  0  0  0  0
  145.5029   69.8930  219.3852 H   0  0  0  0  0  0  0  0  0  0  0  0
  144.9250   71.8550  220.1190 C   0  0  0  0  0  0  0  0  0  0  0  0
  145.1294   71.6189  221.1738 H   0  0  0  0  0  0  0  0  0  0  0  0
  144.4520   73.1180  219.7500 C   0  0  0  0  0  0  0  0  0  0  0  0
  144.1550   74.2450  220.6600 C   0  0  0  0  0  0  0  0  0  0  0  0
  143.4044   73.9542  221.4097 H   0  0  0  0  0  0  0  0  0  0  0  0
  145.0389   74.5754  221.2253 H   0  0  0  0  0  0  0  0  0  0  0  0
  142.1980   77.2510  220.5890 N   0  0  0  0  0  0  0  0  0  0  0  0
  142.0600   77.2520  221.6280 H   0  0  0  0  0  0  0  0  0  0  0  0
  143.0980   77.7300  220.3680 H   0  0  0  0  0  0  0  0  0  0  0  0
  141.4150   77.7980  220.1620 H   0  0  0  0  0  0  0  0  0  0  0  0
  139.2140   73.7170  220.6320 C   0  0  0  0  0  0  0  0  0  0  0  0
  138.8471   74.6585  221.0668 H   0  0  0  0  0  0  0  0  0  0  0  0
  138.7814   73.5495  219.6346 H   0  0  0  0  0  0  0  0  0  0  0  0
  138.7910   72.5460  221.5440 C   0  0  0  0  0  0  0  0  0  0  0  0
  138.0581   72.9158  222.2761 H   0  0  0  0  0  0  0  0  0  0  0  0
  138.3618   71.7614  220.9036 H   0  0  0  0  0  0  0  0  0  0  0  0
  137.2360   70.0240  222.9800 C   0  0  0  0  0  0  0  0  0  0  0  0
  136.7143   69.4926  222.1704 H   0  0  0  0  0  0  0  0  0  0  0  0
  136.9639   71.0898  222.9724 H   0  0  0  0  0  0  0  0  0  0  0  0
  136.8270   69.4210  224.3210 C   0  0  0  0  0  0  0  0  0  0  0  0
  137.2403   70.0303  225.1383 H   0  0  0  0  0  0  0  0  0  0  0  0
  135.7297   69.4032  224.3956 H   0  0  0  0  0  0  0  0  0  0  0  0
  137.2163   68.3949  224.3956 H   0  0  0  0  0  0  0  0  0  0  0  0
  1  2  1  0
  2  3  1  0
  3  4  2  0
  4  5  1  0
  5  6  2  0
  6  7  1  0
  6  8  1  0
  8  9  1  0
  8 10  2  0
 10 11  1  0
 10 12  1  0
 12 13  1  0
 12 14  2  0
 14 15  1  0
  4 16  1  0
 16 17  1  0
 16 18  1  0
 18 19  1  0
 18 20  1  0
 18 21  1  0
 21 22  1  0
 21 23  1  0
 21 24  1  0
 24 25  1  0
 25 26  2  0
 25 27  1  0
 27 28  1  6
 27 29  1  0
 29 30  1  0
 29 31  1  0
 31 32  1  0
 31 33  1  0
 31 34  1  0
 34 35  2  0
 35 36  1  0
 35 37  1  0
 37 38  1  0
 37 39  2  0
 39 40  1  0
 39 41  1  0
 41 42  1  0
 41 43  2  0
 43 44  1  0
 44 45  1  0
 44 46  1  0
 27 47  1  0
 47 48  1  0
 47 49  1  0
 47 50  1  0
 24 51  1  0
 51 52  1  0
 51 53  1  0
 51 54  1  0
 54 55  1  0
 54 56  1  0
  3 57  1  0
 57 58  1  0
 57 59  1  0
 57 60  1  0
 60 61  1  0
 60 62  1  0
 60 63  1  0
 14  5  1  0
 54 16  1  0
 44 29  1  0
 43 34  1  0
M  CHG  2   4   1  47   1
M  END
>  <UniqueID>  (21) 
44

>  <SMILES>  (21) 
CC/C(O)=[N+](\c1ccccc1)C1CCN(C(=O)[C@@H]([NH3+])C2Cc3ccccc3C2)CC1

>  <Energy>  (21) 
90.78915616593795

>  <Genealogy>  (21) 
CCC(=O)[NH+](c1ccccc1)C1CCN(C(=O)[C@@H]([NH3+])C2Cc3ccccc3C2)CC1 (protonated)
CCC(O)=[N+](c1ccccc1)C1CCN(C(=O)[C@@H]([NH3+])C2Cc3ccccc3C2)CC1 (tautomer)
CC/C(O)=[N+](\c1ccccc1)C1CCN(C(=O)[C@@H]([NH3+])C2Cc3ccccc3C2)CC1 (cis-trans isomerization)
CC/C(O)=[N+](\c1ccccc1)C1CCN(C(=O)[C@@H]([NH3+])C2Cc3ccccc3C2)CC1 (3D coordinates assigned)
CC/C(O)=[N+](\c1ccccc1)C1CCN(C(=O)[C@@H]([NH3+])C2Cc3ccccc3C2)CC1 (nonaromatic ring conformer: 90.78915616593795 kcal/mol)

>  <smiles>  (21) 
CCC(=O)N(c1ccccc1)C1CCN(C(=O)[C@@H](N)C2Cc3ccccc3C2)CC1

>  <score_type>  (21) 
oracle

>  <origin>  (21) 
autodockgpu

>  <m_score__min__energy>  (21) 
-8.1699999999999999

>  <m_primary>  (21) 
energy

>  <meeko>  (21) 
{"free_energy": -6.51, "intermolecular_energy": -8.89, "internal_energy": -2.19, "cluster_size": 5, "cluster_id": 3, "rank_in_cluster": 4}

>  <energy>  (21) 
-8.17

>  <cluster_rmsd>  (21) 
0.0

>  <rmsd>  (21) 
271.53

>  <cluster>  (21) 
1

$$$$
MCZRVQBLWAUNOI-QBLXWANANA-P
     RDKit          3D

 63 66  0  0  0  0  0  0  0  0999 V2000
  144.0710   77.2870  219.9540 H   0  0  0  0  0  0  0  0  0  0  0  0
  143.3030   77.1590  219.3070 O   0  0  0  0  0  0  0  0  0  0  0  0
  142.1270   77.9110  219.4120 C   0  0  0  0  0  0  0  0  0  0  0  0
  141.3850   77.8170  220.4980 N   0  0  0  0  0  0  0  0  0  0  0  0
  141.6000   78.7110  221.6100 C   0  0  0  0  0  0  0  0  0  0  0  0
  141.9320   80.0560  221.3800 C   0  0  0  0  0  0  0  0  0  0  0  0
  142.0324   80.4285  220.3499 H   0  0  0  0  0  0  0  0  0  0  0  0
  142.1350   80.9220  222.4580 C   0  0  0  0  0  0  0  0  0  0  0  0
  142.3880   81.9767  222.2747 H   0  0  0  0  0  0  0  0  0  0  0  0
  142.0170   80.4500  223.7700 C   0  0  0  0  0  0  0  0  0  0  0  0
  142.1830   81.1319  224.6170 H   0  0  0  0  0  0  0  0  0  0  0  0
  141.6880   79.1110  224.0040 C   0  0  0  0  0  0  0  0  0  0  0  0
  141.5919   78.7415  225.0356 H   0  0  0  0  0  0  0  0  0  0  0  0
  141.4810   78.2410  222.9290 C   0  0  0  0  0  0  0  0  0  0  0  0
  141.2248   77.1877  223.1160 H   0  0  0  0  0  0  0  0  0  0  0  0
  140.3760   76.7340  220.6170 C   0  0  0  0  0  0  0  0  0  0  0  0
  140.7005   76.0997  221.4551 H   0  0  0  0  0  0  0  0  0  0  0  0
  138.9810   77.3210  220.9180 C   0  0  0  0  0  0  0  0  0  0  0  0
  139.0049   77.7871  221.9141 H   0  0  0  0  0  0  0  0  0  0  0  0
  138.7549   78.0509  220.1267 H   0  0  0  0  0  0  0  0  0  0  0  0
  137.8590   76.2590  220.8990 C   0  0  0  0  0  0  0  0  0  0  0  0
  137.3368   76.2739  221.8670 H   0  0  0  0  0  0  0  0  0  0  0  0
  137.1693   76.5015  220.0771 H   0  0  0  0  0  0  0  0  0  0  0  0
  138.3950   74.9110  220.6670 N   0  0  0  0  0  0  0  0  0  0  0  0
  138.4230   73.9490  221.7330 C   0  0  0  0  0  0  0  0  0  0  0  0
  139.5090   73.7490  222.3420 O   0  0  0  0  0  0  0  0  0  0  0  0
  137.1970   73.1500  222.1500 C   0  0  2  0  0  0  0  0  0  0  0  0
  136.9575   72.5245  221.2774 H   0  0  0  0  0  0  0  0  0  0  0  0
  135.9070   73.9960  222.3840 C   0  0  0  0  0  0  0  0  0  0  0  0
  135.6881   74.3631  221.3704 H   0  0  0  0  0  0  0  0  0  0  0  0
  136.1300   75.1730  223.3720 C   0  0  0  0  0  0  0  0  0  0  0  0
  137.1458   75.1425  223.7929 H   0  0  0  0  0  0  0  0  0  0  0  0
  136.0298   76.1556  222.8878 H   0  0  0  0  0  0  0  0  0  0  0  0
  135.1170   74.9540  224.4280 C   0  0  0  0  0  0  0  0  0  0  0  0
  134.9410   75.7110  225.5890 C   0  0  0  0  0  0  0  0  0  0  0  0
  135.5906   76.5736  225.7985 H   0  0  0  0  0  0  0  0  0  0  0  0
  133.9190   75.3510  226.4850 C   0  0  0  0  0  0  0  0  0  0  0  0
  133.7623   75.9366  227.4029 H   0  0  0  0  0  0  0  0  0  0  0  0
  133.0970   74.2440  226.2100 C   0  0  0  0  0  0  0  0  0  0  0  0
  132.3011   73.9626  226.9153 H   0  0  0  0  0  0  0  0  0  0  0  0
  133.2900   73.4970  225.0370 C   0  0  0  0  0  0  0  0  0  0  0  0
  132.6504   72.6306  224.8127 H   0  0  0  0  0  0  0  0  0  0  0  0
  134.3100   73.8750  224.1600 C   0  0  0  0  0  0  0  0  0  0  0  0
  134.6740   73.2030  222.8940 C   0  0  0  0  0  0  0  0  0  0  0  0
  134.9342   72.1492  223.0723 H   0  0  0  0  0  0  0  0  0  0  0  0
  133.8477   73.1953  222.1679 H   0  0  0  0  0  0  0  0  0  0  0  0
  137.4900   72.2650  223.2870 N   0  0  0  0  0  0  0  0  0  0  0  0
  137.0000   72.6110  224.1460 H   0  0  0  0  0  0  0  0  0  0  0  0
  137.1930   71.2820  223.1010 H   0  0  0  0  0  0  0  0  0  0  0  0
  138.5190   72.2730  223.4810 H   0  0  0  0  0  0  0  0  0  0  0  0
  139.2620   74.7040  219.5000 C   0  0  0  0  0  0  0  0  0  0  0  0
  139.7869   73.7437  219.6112 H   0  0  0  0  0  0  0  0  0  0  0  0
  138.6314   74.7053  218.5987 H   0  0  0  0  0  0  0  0  0  0  0  0
  140.3060   75.8320  219.3600 C   0  0  0  0  0  0  0  0  0  0  0  0
  141.2948   75.3791  219.1952 H   0  0  0  0  0  0  0  0  0  0  0  0
  140.0042   76.4636  218.5115 H   0  0  0  0  0  0  0  0  0  0  0  0
  141.7600   78.7940  218.2370 C   0  0  0  0  0  0  0  0  0  0  0  0
  140.6958   79.0638  218.3059 H   0  0  0  0  0  0  0  0  0  0  0  0
  141.9529   78.2426  217.3049 H   0  0  0  0  0  0  0  0  0  0  0  0
  142.6020   80.0680  218.2390 C   0  0  0  0  0  0  0  0  0  0  0  0
  142.8034   80.3728  219.2766 H   0  0  0  0  0  0  0  0  0  0  0  0
  143.5538   79.8792  217.7209 H   0  0  0  0  0  0  0  0  0  0  0  0
  142.0553   80.8697  217.7209 H   0  0  0  0  0  0  0  0  0  0  0  0
  1  2  1  0
  2  3  1  0
  3  4  2  0
  4  5  1  0
  5  6  2  0
  6  7  1  0
  6  8  1  0
  8  9  1  0
  8 10  2  0
 10 11  1  0
 10 12  1  0
 12 13  1  0
 12 14  2  0
 14 15  1  0
  4 16  1  0
 16 17  1  0
 16 18  1  0
 18 19  1  0
 18 20  1  0
 18 21  1  0
 21 22  1  0
 21 23  1  0
 21 24  1  0
 24 25  1  0
 25 26  2  0
 25 27  1  0
 27 28  1  6
 27 29  1  0
 29 30  1  0
 29 31  1  0
 31 32  1  0
 31 33  1  0
 31 34  1  0
 34 35  2  0
 35 36  1  0
 35 37  1  0
 37 38  1  0
 37 39  2  0
 39 40  1  0
 39 41  1  0
 41 42  1  0
 41 43  2  0
 43 44  1  0
 44 45  1  0
 44 46  1  0
 27 47  1  0
 47 48  1  0
 47 49  1  0
 47 50  1  0
 24 51  1  0
 51 52  1  0
 51 53  1  0
 51 54  1  0
 54 55  1  0
 54 56  1  0
  3 57  1  0
 57 58  1  0
 57 59  1  0
 57 60  1  0
 60 61  1  0
 60 62  1  0
 60 63  1  0
 14  5  1  0
 54 16  1  0
 44 29  1  0
 43 34  1  0
M  CHG  2   4   1  47   1
M  END
>  <UniqueID>  (22) 
44

>  <SMILES>  (22) 
CC/C(O)=[N+](\c1ccccc1)C1CCN(C(=O)[C@@H]([NH3+])C2Cc3ccccc3C2)CC1

>  <Energy>  (22) 
90.78915616593795

>  <Genealogy>  (22) 
CCC(=O)[NH+](c1ccccc1)C1CCN(C(=O)[C@@H]([NH3+])C2Cc3ccccc3C2)CC1 (protonated)
CCC(O)=[N+](c1ccccc1)C1CCN(C(=O)[C@@H]([NH3+])C2Cc3ccccc3C2)CC1 (tautomer)
CC/C(O)=[N+](\c1ccccc1)C1CCN(C(=O)[C@@H]([NH3+])C2Cc3ccccc3C2)CC1 (cis-trans isomerization)
CC/C(O)=[N+](\c1ccccc1)C1CCN(C(=O)[C@@H]([NH3+])C2Cc3ccccc3C2)CC1 (3D coordinates assigned)
CC/C(O)=[N+](\c1ccccc1)C1CCN(C(=O)[C@@H]([NH3+])C2Cc3ccccc3C2)CC1 (nonaromatic ring conformer: 90.78915616593795 kcal/mol)

>  <smiles>  (22) 
CCC(=O)N(c1ccccc1)C1CCN(C(=O)[C@@H](N)C2Cc3ccccc3C2)CC1

>  <score_type>  (22) 
oracle

>  <origin>  (22) 
autodockgpu

>  <m_score__min__energy>  (22) 
-8.1699999999999999

>  <m_primary>  (22) 
energy

>  <meeko>  (22) 
{"free_energy": -6.94, "intermolecular_energy": -9.33, "internal_energy": -1.78, "cluster_size": 1, "cluster_id": 4, "rank_in_cluster": 1}

>  <energy>  (22) 
-7.97

>  <cluster_rmsd>  (22) 
0.62

>  <rmsd>  (22) 
271.57

>  <cluster>  (22) 
1

$$$$
MCZRVQBLWAUNOI-QBLXWANANA-P
     RDKit          3D

 63 66  0  0  0  0  0  0  0  0999 V2000
  139.3880   67.7390  222.0920 H   0  0  0  0  0  0  0  0  0  0  0  0
  139.5980   68.6840  221.7960 O   0  0  0  0  0  0  0  0  0  0  0  0
  139.0090   69.7910  222.4170 C   0  0  0  0  0  0  0  0  0  0  0  0
  139.7700   70.7530  222.9010 N   0  0  0  0  0  0  0  0  0  0  0  0
  140.1880   70.7300  224.2810 C   0  0  0  0  0  0  0  0  0  0  0  0
  140.7330   71.8820  224.8720 C   0  0  0  0  0  0  0  0  0  0  0  0
  140.8442   72.8027  224.2804 H   0  0  0  0  0  0  0  0  0  0  0  0
  141.1340   71.8600  226.2100 C   0  0  0  0  0  0  0  0  0  0  0  0
  141.5536   72.7658  226.6721 H   0  0  0  0  0  0  0  0  0  0  0  0
  141.0030   70.6880  226.9640 C   0  0  0  0  0  0  0  0  0  0  0  0
  141.3245   70.6714  228.0158 H   0  0  0  0  0  0  0  0  0  0  0  0
  140.4630   69.5380  226.3790 C   0  0  0  0  0  0  0  0  0  0  0  0
  140.3568   68.6180  226.9726 H   0  0  0  0  0  0  0  0  0  0  0  0
  140.0580   69.5560  225.0410 C   0  0  0  0  0  0  0  0  0  0  0  0
  139.6368   68.6491  224.5826 H   0  0  0  0  0  0  0  0  0  0  0  0
  140.1310   71.9140  222.0470 C   0  0  0  0  0  0  0  0  0  0  0  0
  140.5810   72.6619  222.7164 H   0  0  0  0  0  0  0  0  0  0  0  0
  141.1530   71.4990  220.9690 C   0  0  0  0  0  0  0  0  0  0  0  0
  142.0928   71.2186  221.4672 H   0  0  0  0  0  0  0  0  0  0  0  0
  140.7164   70.6585  220.4097 H   0  0  0  0  0  0  0  0  0  0  0  0
  141.4520   72.6230  219.9520 C   0  0  0  0  0  0  0  0  0  0  0  0
  142.5338   72.8220  219.9477 H   0  0  0  0  0  0  0  0  0  0  0  0
  141.1098   72.2902  218.9610 H   0  0  0  0  0  0  0  0  0  0  0  0
  140.7410   73.8620  220.2910 N   0  0  0  0  0  0  0  0  0  0  0  0
  141.4620   74.9950  220.8020 C   0  0  0  0  0  0  0  0  0  0  0  0
  141.4450   75.2170  222.0430 O   0  0  0  0  0  0  0  0  0  0  0  0
  142.2370   75.9460  219.9020 C   0  0  2  0  0  0  0  0  0  0  0  0
  141.6630   75.9772  218.9641 H   0  0  0  0  0  0  0  0  0  0  0  0
  143.6500   75.4440  219.4710 C   0  0  0  0  0  0  0  0  0  0  0  0
  144.2180   76.3840  219.4100 H   0  0  0  0  0  0  0  0  0  0  0  0
  143.6340   74.7060  218.1050 C   0  0  0  0  0  0  0  0  0  0  0  0
  142.6052   74.5996  217.7305 H   0  0  0  0  0  0  0  0  0  0  0  0
  144.1878   75.2489  217.3249 H   0  0  0  0  0  0  0  0  0  0  0  0
  144.2240   73.3820  218.4040 C   0  0  0  0  0  0  0  0  0  0  0  0
  144.3790   72.3150  217.5140 C   0  0  0  0  0  0  0  0  0  0  0  0
  144.0492   72.4051  216.4685 H   0  0  0  0  0  0  0  0  0  0  0  0
  144.9640   71.1250  217.9800 C   0  0  0  0  0  0  0  0  0  0  0  0
  145.0992   70.2752  217.2948 H   0  0  0  0  0  0  0  0  0  0  0  0
  145.3770   71.0180  219.3200 C   0  0  0  0  0  0  0  0  0  0  0  0
  145.8287   70.0827  219.6822 H   0  0  0  0  0  0  0  0  0  0  0  0
  145.2140   72.1020  220.1960 C   0  0  0  0  0  0  0  0  0  0  0  0
  145.5375   72.0284  221.2448 H   0  0  0  0  0  0  0  0  0  0  0  0
  144.6330   73.2770  219.7110 C   0  0  0  0  0  0  0  0  0  0  0  0
  144.3620   74.5080  220.4840 C   0  0  0  0  0  0  0  0  0  0  0  0
  143.7090   74.2937  221.3428 H   0  0  0  0  0  0  0  0  0  0  0  0
  145.2772   74.9549  220.8996 H   0  0  0  0  0  0  0  0  0  0  0  0
  142.2820   77.3040  220.4640 N   0  0  0  0  0  0  0  0  0  0  0  0
  143.2020   77.7540  220.2420 H   0  0  0  0  0  0  0  0  0  0  0  0
  141.5150   77.9050  220.0930 H   0  0  0  0  0  0  0  0  0  0  0  0
  142.1940   77.2550  221.5060 H   0  0  0  0  0  0  0  0  0  0  0  0
  139.2900   73.7900  220.5040 C   0  0  0  0  0  0  0  0  0  0  0  0
  138.9564   74.7119  221.0029 H   0  0  0  0  0  0  0  0  0  0  0  0
  138.8039   73.6753  219.5239 H   0  0  0  0  0  0  0  0  0  0  0  0
  138.9030   72.5790  221.3790 C   0  0  0  0  0  0  0  0  0  0  0  0
  138.2138   72.9185  222.1663 H   0  0  0  0  0  0  0  0  0  0  0  0
  138.4322   71.8306  220.7246 H   0  0  0  0  0  0  0  0  0  0  0  0
  137.4960   69.8090  222.5140 C   0  0  0  0  0  0  0  0  0  0  0  0
  137.0763   69.1461  221.7430 H   0  0  0  0  0  0  0  0  0  0  0  0
  137.1429   70.8397  222.3625 H   0  0  0  0  0  0  0  0  0  0  0  0
  137.0410   69.3300  223.8890 C   0  0  0  0  0  0  0  0  0  0  0  0
  137.5754   69.8926  224.6686 H   0  0  0  0  0  0  0  0  0  0  0  0
  135.9585   69.4946  223.9949 H   0  0  0  0  0  0  0  0  0  0  0  0
  137.2609   68.2574  223.9949 H   0  0  0  0  0  0  0  0  0  0  0  0
  1  2  1  0
  2  3  1  0
  3  4  2  0
  4  5  1  0
  5  6  2  0
  6  7  1  0
  6  8  1  0
  8  9  1  0
  8 10  2  0
 10 11  1  0
 10 12  1  0
 12 13  1  0
 12 14  2  0
 14 15  1  0
  4 16  1  0
 16 17  1  0
 16 18  1  0
 18 19  1  0
 18 20  1  0
 18 21  1  0
 21 22  1  0
 21 23  1  0
 21 24  1  0
 24 25  1  0
 25 26  2  0
 25 27  1  0
 27 28  1  6
 27 29  1  0
 29 30  1  0
 29 31  1  0
 31 32  1  0
 31 33  1  0
 31 34  1  0
 34 35  2  0
 35 36  1  0
 35 37  1  0
 37 38  1  0
 37 39  2  0
 39 40  1  0
 39 41  1  0
 41 42  1  0
 41 43  2  0
 43 44  1  0
 44 45  1  0
 44 46  1  0
 27 47  1  0
 47 48  1  0
 47 49  1  0
 47 50  1  0
 24 51  1  0
 51 52  1  0
 51 53  1  0
 51 54  1  0
 54 55  1  0
 54 56  1  0
  3 57  1  0
 57 58  1  0
 57 59  1  0
 57 60  1  0
 60 61  1  0
 60 62  1  0
 60 63  1  0
 14  5  1  0
 54 16  1  0
 44 29  1  0
 43 34  1  0
M  CHG  2   4   1  47   1
M  END
>  <UniqueID>  (23) 
44

>  <SMILES>  (23) 
CC/C(O)=[N+](\c1ccccc1)C1CCN(C(=O)[C@@H]([NH3+])C2Cc3ccccc3C2)CC1

>  <Energy>  (23) 
90.78915616593795

>  <Genealogy>  (23) 
CCC(=O)[NH+](c1ccccc1)C1CCN(C(=O)[C@@H]([NH3+])C2Cc3ccccc3C2)CC1 (protonated)
CCC(O)=[N+](c1ccccc1)C1CCN(C(=O)[C@@H]([NH3+])C2Cc3ccccc3C2)CC1 (tautomer)
CC/C(O)=[N+](\c1ccccc1)C1CCN(C(=O)[C@@H]([NH3+])C2Cc3ccccc3C2)CC1 (cis-trans isomerization)
CC/C(O)=[N+](\c1ccccc1)C1CCN(C(=O)[C@@H]([NH3+])C2Cc3ccccc3C2)CC1 (3D coordinates assigned)
CC/C(O)=[N+](\c1ccccc1)C1CCN(C(=O)[C@@H]([NH3+])C2Cc3ccccc3C2)CC1 (nonaromatic ring conformer: 90.78915616593795 kcal/mol)

>  <smiles>  (23) 
CCC(=O)N(c1ccccc1)C1CCN(C(=O)[C@@H](N)C2Cc3ccccc3C2)CC1

>  <score_type>  (23) 
oracle

>  <origin>  (23) 
autodockgpu

>  <m_score__min__energy>  (23) 
-8.1699999999999999

>  <m_primary>  (23) 
energy

>  <meeko>  (23) 
{"free_energy": -6.51, "intermolecular_energy": -8.89, "internal_energy": -2.26, "cluster_size": 5, "cluster_id": 3, "rank_in_cluster": 3}

>  <energy>  (23) 
-7.24

>  <cluster_rmsd>  (23) 
1.33

>  <rmsd>  (23) 
271.33

>  <cluster>  (23) 
1

$$$$
MCZRVQBLWAUNOI-QBLXWANANA-P
     RDKit          3D

 63 66  0  0  0  0  0  0  0  0999 V2000
  139.5800   67.1250  223.9260 H   0  0  0  0  0  0  0  0  0  0  0  0
  139.2300   67.7900  224.6040 O   0  0  0  0  0  0  0  0  0  0  0  0
  138.5790   68.9630  224.2050 C   0  0  0  0  0  0  0  0  0  0  0  0
  139.1670   70.1300  224.3750 N   0  0  0  0  0  0  0  0  0  0  0  0
  139.8050   70.4520  225.6290 C   0  0  0  0  0  0  0  0  0  0  0  0
  139.5370   69.6850  226.7740 C   0  0  0  0  0  0  0  0  0  0  0  0
  138.8360   68.8392  226.7166 H   0  0  0  0  0  0  0  0  0  0  0  0
  140.1590   69.9940  227.9860 C   0  0  0  0  0  0  0  0  0  0  0  0
  139.9527   69.3863  228.8794 H   0  0  0  0  0  0  0  0  0  0  0  0
  141.0440   71.0750  228.0660 C   0  0  0  0  0  0  0  0  0  0  0  0
  141.5287   71.3198  229.0227 H   0  0  0  0  0  0  0  0  0  0  0  0
  141.3120   71.8440  226.9290 C   0  0  0  0  0  0  0  0  0  0  0  0
  142.0096   72.6922  226.9915 H   0  0  0  0  0  0  0  0  0  0  0  0
  140.6940   71.5360  225.7120 C   0  0  0  0  0  0  0  0  0  0  0  0
  140.9047   72.1435  224.8195 H   0  0  0  0  0  0  0  0  0  0  0  0
  139.1030   71.1580  223.3040 C   0  0  0  0  0  0  0  0  0  0  0  0
  139.7983   71.9576  223.5993 H   0  0  0  0  0  0  0  0  0  0  0  0
  139.5410   70.5580  221.9510 C   0  0  0  0  0  0  0  0  0  0  0  0
  140.6059   70.2897  222.0149 H   0  0  0  0  0  0  0  0  0  0  0  0
  138.9068   69.6798  221.7600 H   0  0  0  0  0  0  0  0  0  0  0  0
  139.3490   71.5330  220.7670 C   0  0  0  0  0  0  0  0  0  0  0  0
  140.3146   71.6716  220.2587 H   0  0  0  0  0  0  0  0  0  0  0  0
  138.6032   71.1010  220.0835 H   0  0  0  0  0  0  0  0  0  0  0  0
  138.8560   72.8400  221.2170 N   0  0  0  0  0  0  0  0  0  0  0  0
  139.7220   73.9860  221.2000 C   0  0  0  0  0  0  0  0  0  0  0  0
  140.2580   74.3590  222.2790 O   0  0  0  0  0  0  0  0  0  0  0  0
  140.0100   74.7780  219.9330 C   0  0  2  0  0  0  0  0  0  0  0  0
  139.2252   74.4726  219.2253 H   0  0  0  0  0  0  0  0  0  0  0  0
  141.3440   74.4080  219.2120 C   0  0  0  0  0  0  0  0  0  0  0  0
  141.0581   74.4755  218.1519 H   0  0  0  0  0  0  0  0  0  0  0  0
  141.8440   72.9830  219.5690 C   0  0  0  0  0  0  0  0  0  0  0  0
  141.2032   72.5252  220.3370 H   0  0  0  0  0  0  0  0  0  0  0  0
  141.8229   72.2996  218.7073 H   0  0  0  0  0  0  0  0  0  0  0  0
  143.2120   73.2010  220.0880 C   0  0  0  0  0  0  0  0  0  0  0  0
  144.0770   72.2310  220.6040 C   0  0  0  0  0  0  0  0  0  0  0  0
  143.7687   71.1763  220.6554 H   0  0  0  0  0  0  0  0  0  0  0  0
  145.3480   72.6280  221.0560 C   0  0  0  0  0  0  0  0  0  0  0  0
  146.0441   71.8798  221.4629 H   0  0  0  0  0  0  0  0  0  0  0  0
  145.7310   73.9790  220.9890 C   0  0  0  0  0  0  0  0  0  0  0  0
  146.7246   74.2859  221.3475 H   0  0  0  0  0  0  0  0  0  0  0  0
  144.8490   74.9370  220.4660 C   0  0  0  0  0  0  0  0  0  0  0  0
  145.1416   75.9958  220.4080 H   0  0  0  0  0  0  0  0  0  0  0  0
  143.5910   74.5200  220.0200 C   0  0  0  0  0  0  0  0  0  0  0  0
  142.5270   75.3810  219.4610 C   0  0  0  0  0  0  0  0  0  0  0  0
  142.2429   76.1657  220.1777 H   0  0  0  0  0  0  0  0  0  0  0  0
  142.8437   75.9031  218.5461 H   0  0  0  0  0  0  0  0  0  0  0  0
  139.8890   76.2250  220.1610 N   0  0  0  0  0  0  0  0  0  0  0  0
  140.6500   76.7340  219.6510 H   0  0  0  0  0  0  0  0  0  0  0  0
  138.9660   76.5930  219.8430 H   0  0  0  0  0  0  0  0  0  0  0  0
  139.9960   76.4290  221.1820 H   0  0  0  0  0  0  0  0  0  0  0  0
  137.6520   72.8730  222.0570 C   0  0  0  0  0  0  0  0  0  0  0  0
  137.5700   73.8655  222.5242 H   0  0  0  0  0  0  0  0  0  0  0  0
  136.7811   72.6661  221.4177 H   0  0  0  0  0  0  0  0  0  0  0  0
  137.7020   71.8010  223.1650 C   0  0  0  0  0  0  0  0  0  0  0  0
  137.4326   72.2705  224.1226 H   0  0  0  0  0  0  0  0  0  0  0  0
  136.9940   71.0046  222.8920 H   0  0  0  0  0  0  0  0  0  0  0  0
  137.1950   68.8180  223.6020 C   0  0  0  0  0  0  0  0  0  0  0  0
  137.0154   67.7604  223.3588 H   0  0  0  0  0  0  0  0  0  0  0  0
  137.1384   69.4323  222.6913 H   0  0  0  0  0  0  0  0  0  0  0  0
  136.1290   69.2950  224.5850 C   0  0  0  0  0  0  0  0  0  0  0  0
  136.4825   69.1368  225.6146 H   0  0  0  0  0  0  0  0  0  0  0  0
  135.9350   70.3658  224.4244 H   0  0  0  0  0  0  0  0  0  0  0  0
  135.2013   68.7261  224.4244 H   0  0  0  0  0  0  0  0  0  0  0  0
  1  2  1  0
  2  3  1  0
  3  4  2  0
  4  5  1  0
  5  6  2  0
  6  7  1  0
  6  8  1  0
  8  9  1  0
  8 10  2  0
 10 11  1  0
 10 12  1  0
 12 13  1  0
 12 14  2  0
 14 15  1  0
  4 16  1  0
 16 17  1  0
 16 18  1  0
 18 19  1  0
 18 20  1  0
 18 21  1  0
 21 22  1  0
 21 23  1  0
 21 24  1  0
 24 25  1  0
 25 26  2  0
 25 27  1  0
 27 28  1  6
 27 29  1  0
 29 30  1  0
 29 31  1  0
 31 32  1  0
 31 33  1  0
 31 34  1  0
 34 35  2  0
 35 36  1  0
 35 37  1  0
 37 38  1  0
 37 39  2  0
 39 40  1  0
 39 41  1  0
 41 42  1  0
 41 43  2  0
 43 44  1  0
 44 45  1  0
 44 46  1  0
 27 47  1  0
 47 48  1  0
 47 49  1  0
 47 50  1  0
 24 51  1  0
 51 52  1  0
 51 53  1  0
 51 54  1  0
 54 55  1  0
 54 56  1  0
  3 57  1  0
 57 58  1  0
 57 59  1  0
 57 60  1  0
 60 61  1  0
 60 62  1  0
 60 63  1  0
 14  5  1  0
 54 16  1  0
 44 29  1  0
 43 34  1  0
M  CHG  2   4   1  47   1
M  END
>  <UniqueID>  (24) 
44

>  <SMILES>  (24) 
CC/C(O)=[N+](\c1ccccc1)C1CCN(C(=O)[C@@H]([NH3+])C2Cc3ccccc3C2)CC1

>  <Energy>  (24) 
90.78915616593795

>  <Genealogy>  (24) 
CCC(=O)[NH+](c1ccccc1)C1CCN(C(=O)[C@@H]([NH3+])C2Cc3ccccc3C2)CC1 (protonated)
CCC(O)=[N+](c1ccccc1)C1CCN(C(=O)[C@@H]([NH3+])C2Cc3ccccc3C2)CC1 (tautomer)
CC/C(O)=[N+](\c1ccccc1)C1CCN(C(=O)[C@@H]([NH3+])C2Cc3ccccc3C2)CC1 (cis-trans isomerization)
CC/C(O)=[N+](\c1ccccc1)C1CCN(C(=O)[C@@H]([NH3+])C2Cc3ccccc3C2)CC1 (3D coordinates assigned)
CC/C(O)=[N+](\c1ccccc1)C1CCN(C(=O)[C@@H]([NH3+])C2Cc3ccccc3C2)CC1 (nonaromatic ring conformer: 90.78915616593795 kcal/mol)

>  <smiles>  (24) 
CCC(=O)N(c1ccccc1)C1CCN(C(=O)[C@@H](N)C2Cc3ccccc3C2)CC1

>  <score_type>  (24) 
oracle

>  <origin>  (24) 
autodockgpu

>  <m_score__min__energy>  (24) 
-8.1699999999999999

>  <m_primary>  (24) 
energy

>  <meeko>  (24) 
{"free_energy": -7.2, "intermolecular_energy": -9.59, "internal_energy": -1.66, "cluster_size": 5, "cluster_id": 3, "rank_in_cluster": 1}

>  <energy>  (24) 
-7.2

>  <cluster_rmsd>  (24) 
1.34

>  <rmsd>  (24) 
271.32

>  <cluster>  (24) 
1

$$$$
MCZRVQBLWAUNOI-QBLXWANANA-P
     RDKit          3D

 63 66  0  0  0  0  0  0  0  0999 V2000
  144.1620   77.2490  220.0170 H   0  0  0  0  0  0  0  0  0  0  0  0
  143.3110   76.7770  219.7380 O   0  0  0  0  0  0  0  0  0  0  0  0
  142.0720   77.4270  219.7710 C   0  0  0  0  0  0  0  0  0  0  0  0
  141.2250   77.1740  220.7480 N   0  0  0  0  0  0  0  0  0  0  0  0
  140.9590   78.1670  221.7610 C   0  0  0  0  0  0  0  0  0  0  0  0
  139.8770   79.0500  221.6170 C   0  0  0  0  0  0  0  0  0  0  0  0
  139.2322   78.9881  220.7279 H   0  0  0  0  0  0  0  0  0  0  0  0
  139.6180   80.0070  222.6010 C   0  0  0  0  0  0  0  0  0  0  0  0
  138.7647   80.6921  222.4892 H   0  0  0  0  0  0  0  0  0  0  0  0
  140.4420   80.0960  223.7290 C   0  0  0  0  0  0  0  0  0  0  0  0
  140.2401   80.8547  224.4995 H   0  0  0  0  0  0  0  0  0  0  0  0
  141.5220   79.2200  223.8760 C   0  0  0  0  0  0  0  0  0  0  0  0
  142.1667   79.2876  224.7647 H   0  0  0  0  0  0  0  0  0  0  0  0
  141.7840   78.2580  222.8950 C   0  0  0  0  0  0  0  0  0  0  0  0
  142.6363   77.5723  223.0112 H   0  0  0  0  0  0  0  0  0  0  0  0
  140.5990   75.8310  220.8610 C   0  0  0  0  0  0  0  0  0  0  0  0
  141.3963   75.1436  221.1800 H   0  0  0  0  0  0  0  0  0  0  0  0
  139.4710   75.8440  221.9140 C   0  0  0  0  0  0  0  0  0  0  0  0
  139.9171   76.0251  222.9030 H   0  0  0  0  0  0  0  0  0  0  0  0
  138.7651   76.6383  221.6297 H   0  0  0  0  0  0  0  0  0  0  0  0
  138.6780   74.5190  221.9670 C   0  0  0  0  0  0  0  0  0  0  0  0
  138.7180   74.1200  222.9913 H   0  0  0  0  0  0  0  0  0  0  0  0
  137.6406   74.7272  221.6662 H   0  0  0  0  0  0  0  0  0  0  0  0
  139.2310   73.5200  221.0450 N   0  0  0  0  0  0  0  0  0  0  0  0
  139.9440   72.3810  221.5530 C   0  0  0  0  0  0  0  0  0  0  0  0
  141.2050   72.3930  221.5280 O   0  0  0  0  0  0  0  0  0  0  0  0
  139.2390   71.1530  222.1100 C   0  0  2  0  0  0  0  0  0  0  0  0
  138.2491   71.1539  221.6303 H   0  0  0  0  0  0  0  0  0  0  0  0
  138.9260   71.2080  223.6380 C   0  0  0  0  0  0  0  0  0  0  0  0
  138.2206   72.0500  223.6967 H   0  0  0  0  0  0  0  0  0  0  0  0
  140.1910   71.4710  224.5010 C   0  0  0  0  0  0  0  0  0  0  0  0
  141.0952   71.4861  223.8748 H   0  0  0  0  0  0  0  0  0  0  0  0
  140.1593   72.4441  225.0129 H   0  0  0  0  0  0  0  0  0  0  0  0
  140.2240   70.3320  225.4450 C   0  0  0  0  0  0  0  0  0  0  0  0
  141.2080   70.0680  226.4020 C   0  0  0  0  0  0  0  0  0  0  0  0
  142.0722   70.7388  226.5164 H   0  0  0  0  0  0  0  0  0  0  0  0
  141.0730   68.9290  227.2160 C   0  0  0  0  0  0  0  0  0  0  0  0
  141.8349   68.7049  227.9771 H   0  0  0  0  0  0  0  0  0  0  0  0
  139.9660   68.0760  227.0590 C   0  0  0  0  0  0  0  0  0  0  0  0
  139.8659   67.1838  227.6946 H   0  0  0  0  0  0  0  0  0  0  0  0
  138.9890   68.3610  226.0930 C   0  0  0  0  0  0  0  0  0  0  0  0
  138.1187   67.7006  225.9648 H   0  0  0  0  0  0  0  0  0  0  0  0
  139.1420   69.4990  225.2970 C   0  0  0  0  0  0  0  0  0  0  0  0
  138.2320   69.9490  224.2220 C   0  0  0  0  0  0  0  0  0  0  0  0
  138.1230   69.1710  223.4520 H   0  0  0  0  0  0  0  0  0  0  0  0
  137.2170   70.1599  224.5899 H   0  0  0  0  0  0  0  0  0  0  0  0
  139.9340   69.9140  221.7330 N   0  0  0  0  0  0  0  0  0  0  0  0
  140.0600   69.3030  222.5760 H   0  0  0  0  0  0  0  0  0  0  0  0
  139.4120   69.3810  221.0050 H   0  0  0  0  0  0  0  0  0  0  0  0
  140.8850   70.1450  221.3610 H   0  0  0  0  0  0  0  0  0  0  0  0
  139.4150   73.9040  219.6400 C   0  0  0  0  0  0  0  0  0  0  0  0
  140.0695   73.1672  219.1514 H   0  0  0  0  0  0  0  0  0  0  0  0
  138.4262   73.9316  219.1587 H   0  0  0  0  0  0  0  0  0  0  0  0
  140.0530   75.3030  219.5120 C   0  0  0  0  0  0  0  0  0  0  0  0
  140.8834   75.2476  218.7927 H   0  0  0  0  0  0  0  0  0  0  0  0
  139.2703   75.9977  219.1732 H   0  0  0  0  0  0  0  0  0  0  0  0
  141.7650   78.3930  218.6430 C   0  0  0  0  0  0  0  0  0  0  0  0
  140.6832   78.3843  218.4439 H   0  0  0  0  0  0  0  0  0  0  0  0
  142.3193   78.0790  217.7462 H   0  0  0  0  0  0  0  0  0  0  0  0
  142.1950   79.8090  219.0170 C   0  0  0  0  0  0  0  0  0  0  0  0
  142.2245   79.9060  220.1123 H   0  0  0  0  0  0  0  0  0  0  0  0
  143.1946   80.0097  218.6041 H   0  0  0  0  0  0  0  0  0  0  0  0
  141.4758   80.5317  218.6041 H   0  0  0  0  0  0  0  0  0  0  0  0
  1  2  1  0
  2  3  1  0
  3  4  2  0
  4  5  1  0
  5  6  2  0
  6  7  1  0
  6  8  1  0
  8  9  1  0
  8 10  2  0
 10 11  1  0
 10 12  1  0
 12 13  1  0
 12 14  2  0
 14 15  1  0
  4 16  1  0
 16 17  1  0
 16 18  1  0
 18 19  1  0
 18 20  1  0
 18 21  1  0
 21 22  1  0
 21 23  1  0
 21 24  1  0
 24 25  1  0
 25 26  2  0
 25 27  1  0
 27 28  1  6
 27 29  1  0
 29 30  1  0
 29 31  1  0
 31 32  1  0
 31 33  1  0
 31 34  1  0
 34 35  2  0
 35 36  1  0
 35 37  1  0
 37 38  1  0
 37 39  2  0
 39 40  1  0
 39 41  1  0
 41 42  1  0
 41 43  2  0
 43 44  1  0
 44 45  1  0
 44 46  1  0
 27 47  1  0
 47 48  1  0
 47 49  1  0
 47 50  1  0
 24 51  1  0
 51 52  1  0
 51 53  1  0
 51 54  1  0
 54 55  1  0
 54 56  1  0
  3 57  1  0
 57 58  1  0
 57 59  1  0
 57 60  1  0
 60 61  1  0
 60 62  1  0
 60 63  1  0
 14  5  1  0
 54 16  1  0
 44 29  1  0
 43 34  1  0
M  CHG  2   4   1  47   1
M  END
>  <UniqueID>  (25) 
44

>  <SMILES>  (25) 
CC/C(O)=[N+](\c1ccccc1)C1CCN(C(=O)[C@@H]([NH3+])C2Cc3ccccc3C2)CC1

>  <Energy>  (25) 
90.78915616593795

>  <Genealogy>  (25) 
CCC(=O)[NH+](c1ccccc1)C1CCN(C(=O)[C@@H]([NH3+])C2Cc3ccccc3C2)CC1 (protonated)
CCC(O)=[N+](c1ccccc1)C1CCN(C(=O)[C@@H]([NH3+])C2Cc3ccccc3C2)CC1 (tautomer)
CC/C(O)=[N+](\c1ccccc1)C1CCN(C(=O)[C@@H]([NH3+])C2Cc3ccccc3C2)CC1 (cis-trans isomerization)
CC/C(O)=[N+](\c1ccccc1)C1CCN(C(=O)[C@@H]([NH3+])C2Cc3ccccc3C2)CC1 (3D coordinates assigned)
CC/C(O)=[N+](\c1ccccc1)C1CCN(C(=O)[C@@H]([NH3+])C2Cc3ccccc3C2)CC1 (nonaromatic ring conformer: 90.78915616593795 kcal/mol)

>  <smiles>  (25) 
CCC(=O)N(c1ccccc1)C1CCN(C(=O)[C@@H](N)C2Cc3ccccc3C2)CC1

>  <score_type>  (25) 
oracle

>  <origin>  (25) 
autodockgpu

>  <m_score__min__energy>  (25) 
-8.1699999999999999

>  <m_primary>  (25) 
energy

>  <meeko>  (25) 
{"free_energy": -7.1, "intermolecular_energy": -9.48, "internal_energy": -1.7, "cluster_size": 5, "cluster_id": 1, "rank_in_cluster": 5}

>  <energy>  (25) 
-7.1

>  <cluster_rmsd>  (25) 
1.35

>  <rmsd>  (25) 
271.29

>  <cluster>  (25) 
1

$$$$
MCZRVQBLWAUNOI-QBLXWANANA-P
     RDKit          3D

 63 66  0  0  0  0  0  0  0  0999 V2000
  146.5990   74.1390  218.1420 H   0  0  0  0  0  0  0  0  0  0  0  0
  146.3240   73.2680  218.5790 O   0  0  0  0  0  0  0  0  0  0  0  0
  145.4260   73.2420  219.6520 C   0  0  0  0  0  0  0  0  0  0  0  0
  144.3240   72.5220  219.5680 N   0  0  0  0  0  0  0  0  0  0  0  0
  144.3850   71.1360  219.1740 C   0  0  0  0  0  0  0  0  0  0  0  0
  144.7890   70.7890  217.8740 C   0  0  0  0  0  0  0  0  0  0  0  0
  145.0561   71.5761  217.1535 H   0  0  0  0  0  0  0  0  0  0  0  0
  144.8520   69.4460  217.4950 C   0  0  0  0  0  0  0  0  0  0  0  0
  145.1767   69.1771  216.4790 H   0  0  0  0  0  0  0  0  0  0  0  0
  144.5030   68.4420  218.4050 C   0  0  0  0  0  0  0  0  0  0  0  0
  144.5473   67.3854  218.1022 H   0  0  0  0  0  0  0  0  0  0  0  0
  144.0980   68.7820  219.6990 C   0  0  0  0  0  0  0  0  0  0  0  0
  143.8276   67.9919  220.4150 H   0  0  0  0  0  0  0  0  0  0  0  0
  144.0360   70.1250  220.0850 C   0  0  0  0  0  0  0  0  0  0  0  0
  143.7137   70.3899  221.1028 H   0  0  0  0  0  0  0  0  0  0  0  0
  143.0020   73.1590  219.7980 C   0  0  0  0  0  0  0  0  0  0  0  0
  142.8719   73.2165  220.8888 H   0  0  0  0  0  0  0  0  0  0  0  0
  142.9700   74.5790  219.1950 C   0  0  0  0  0  0  0  0  0  0  0  0
  143.6810   75.2104  219.7481 H   0  0  0  0  0  0  0  0  0  0  0  0
  143.2387   74.4903  218.1320 H   0  0  0  0  0  0  0  0  0  0  0  0
  141.5730   75.2350  219.2640 C   0  0  0  0  0  0  0  0  0  0  0  0
  141.6535   76.1902  219.8036 H   0  0  0  0  0  0  0  0  0  0  0  0
  141.2163   75.3934  218.2356 H   0  0  0  0  0  0  0  0  0  0  0  0
  140.6060   74.3760  219.9580 N   0  0  0  0  0  0  0  0  0  0  0  0
  140.1400   74.7240  221.2720 C   0  0  0  0  0  0  0  0  0  0  0  0
  140.6420   74.1390  222.2690 O   0  0  0  0  0  0  0  0  0  0  0  0
  139.0530   75.7620  221.5080 C   0  0  2  0  0  0  0  0  0  0  0  0
  138.2530   75.4979  220.8007 H   0  0  0  0  0  0  0  0  0  0  0  0
  139.4420   77.2240  221.1230 C   0  0  0  0  0  0  0  0  0  0  0  0
  139.0667   77.2961  220.0915 H   0  0  0  0  0  0  0  0  0  0  0  0
  140.9730   77.4740  221.1830 C   0  0  0  0  0  0  0  0  0  0  0  0
  141.4985   76.5892  221.5715 H   0  0  0  0  0  0  0  0  0  0  0  0
  141.4076   77.6760  220.1929 H   0  0  0  0  0  0  0  0  0  0  0  0
  141.1140   78.6180  222.1100 C   0  0  0  0  0  0  0  0  0  0  0  0
  142.3090   79.1960  222.5500 C   0  0  0  0  0  0  0  0  0  0  0  0
  143.2790   78.8067  222.2070 H   0  0  0  0  0  0  0  0  0  0  0  0
  142.2480   80.2840  223.4390 C   0  0  0  0  0  0  0  0  0  0  0  0
  143.1764   80.7551  223.7941 H   0  0  0  0  0  0  0  0  0  0  0  0
  141.0030   80.7710  223.8750 C   0  0  0  0  0  0  0  0  0  0  0  0
  140.9598   81.6192  224.5741 H   0  0  0  0  0  0  0  0  0  0  0  0
  139.8150   80.1770  223.4200 C   0  0  0  0  0  0  0  0  0  0  0  0
  138.8367   80.5531  223.7539 H   0  0  0  0  0  0  0  0  0  0  0  0
  139.8990   79.0990  222.5350 C   0  0  0  0  0  0  0  0  0  0  0  0
  138.7660   78.3380  221.9670 C   0  0  0  0  0  0  0  0  0  0  0  0
  138.1489   77.9019  222.7664 H   0  0  0  0  0  0  0  0  0  0  0  0
  138.0913   78.9689  221.3697 H   0  0  0  0  0  0  0  0  0  0  0  0
  138.5110   75.6770  222.8720 N   0  0  0  0  0  0  0  0  0  0  0  0
  139.2400   75.3010  223.5240 H   0  0  0  0  0  0  0  0  0  0  0  0
  138.1920   76.6060  223.2220 H   0  0  0  0  0  0  0  0  0  0  0  0
  137.6990   75.0170  222.8860 H   0  0  0  0  0  0  0  0  0  0  0  0
  140.4550   72.9900  219.4950 C   0  0  0  0  0  0  0  0  0  0  0  0
  139.9151   72.4145  220.2614 H   0  0  0  0  0  0  0  0  0  0  0  0
  139.8967   73.0028  218.5473 H   0  0  0  0  0  0  0  0  0  0  0  0
  141.8230   72.3240  219.2400 C   0  0  0  0  0  0  0  0  0  0  0  0
  141.8301   71.3362  219.7239 H   0  0  0  0  0  0  0  0  0  0  0  0
  141.9572   72.2419  218.1513 H   0  0  0  0  0  0  0  0  0  0  0  0
  145.7740   74.0770  220.8680 C   0  0  0  0  0  0  0  0  0  0  0  0
  144.8464   74.3832  221.3738 H   0  0  0  0  0  0  0  0  0  0  0  0
  146.3389   74.9623  220.5405 H   0  0  0  0  0  0  0  0  0  0  0  0
  146.6350   73.2760  221.8410 C   0  0  0  0  0  0  0  0  0  0  0  0
  146.3578   73.5339  222.8738 H   0  0  0  0  0  0  0  0  0  0  0  0
  146.4721   72.2008  221.6752 H   0  0  0  0  0  0  0  0  0  0  0  0
  147.6956   73.5160  221.6752 H   0  0  0  0  0  0  0  0  0  0  0  0
  1  2  1  0
  2  3  1  0
  3  4  2  0
  4  5  1  0
  5  6  2  0
  6  7  1  0
  6  8  1  0
  8  9  1  0
  8 10  2  0
 10 11  1  0
 10 12  1  0
 12 13  1  0
 12 14  2  0
 14 15  1  0
  4 16  1  0
 16 17  1  0
 16 18  1  0
 18 19  1  0
 18 20  1  0
 18 21  1  0
 21 22  1  0
 21 23  1  0
 21 24  1  0
 24 25  1  0
 25 26  2  0
 25 27  1  0
 27 28  1  6
 27 29  1  0
 29 30  1  0
 29 31  1  0
 31 32  1  0
 31 33  1  0
 31 34  1  0
 34 35  2  0
 35 36  1  0
 35 37  1  0
 37 38  1  0
 37 39  2  0
 39 40  1  0
 39 41  1  0
 41 42  1  0
 41 43  2  0
 43 44  1  0
 44 45  1  0
 44 46  1  0
 27 47  1  0
 47 48  1  0
 47 49  1  0
 47 50  1  0
 24 51  1  0
 51 52  1  0
 51 53  1  0
 51 54  1  0
 54 55  1  0
 54 56  1  0
  3 57  1  0
 57 58  1  0
 57 59  1  0
 57 60  1  0
 60 61  1  0
 60 62  1  0
 60 63  1  0
 14  5  1  0
 54 16  1  0
 44 29  1  0
 43 34  1  0
M  CHG  2   4   1  47   1
M  END
>  <UniqueID>  (26) 
44

>  <SMILES>  (26) 
CC/C(O)=[N+](\c1ccccc1)C1CCN(C(=O)[C@@H]([NH3+])C2Cc3ccccc3C2)CC1

>  <Energy>  (26) 
90.78915616593795

>  <Genealogy>  (26) 
CCC(=O)[NH+](c1ccccc1)C1CCN(C(=O)[C@@H]([NH3+])C2Cc3ccccc3C2)CC1 (protonated)
CCC(O)=[N+](c1ccccc1)C1CCN(C(=O)[C@@H]([NH3+])C2Cc3ccccc3C2)CC1 (tautomer)
CC/C(O)=[N+](\c1ccccc1)C1CCN(C(=O)[C@@H]([NH3+])C2Cc3ccccc3C2)CC1 (cis-trans isomerization)
CC/C(O)=[N+](\c1ccccc1)C1CCN(C(=O)[C@@H]([NH3+])C2Cc3ccccc3C2)CC1 (3D coordinates assigned)
CC/C(O)=[N+](\c1ccccc1)C1CCN(C(=O)[C@@H]([NH3+])C2Cc3ccccc3C2)CC1 (nonaromatic ring conformer: 90.78915616593795 kcal/mol)

>  <smiles>  (26) 
CCC(=O)N(c1ccccc1)C1CCN(C(=O)[C@@H](N)C2Cc3ccccc3C2)CC1

>  <score_type>  (26) 
oracle

>  <origin>  (26) 
autodockgpu

>  <m_score__min__energy>  (26) 
-8.1699999999999999

>  <m_primary>  (26) 
energy

>  <meeko>  (26) 
{"free_energy": -7.75, "intermolecular_energy": -10.13, "internal_energy": -1.72, "cluster_size": 5, "cluster_id": 2, "rank_in_cluster": 4}

>  <energy>  (26) 
-7.93

>  <cluster_rmsd>  (26) 
0.0

>  <rmsd>  (26) 
271.0

>  <cluster>  (26) 
2

$$$$
MCZRVQBLWAUNOI-QBLXWANANA-P
     RDKit          3D

 63 66  0  0  0  0  0  0  0  0999 V2000
  136.8600   72.8400  224.2480 H   0  0  0  0  0  0  0  0  0  0  0  0
  136.6700   71.9120  223.8920 O   0  0  0  0  0  0  0  0  0  0  0  0
  137.6670   71.1530  223.2670 C   0  0  0  0  0  0  0  0  0  0  0  0
  138.9300   71.5180  223.3690 N   0  0  0  0  0  0  0  0  0  0  0  0
  139.7530   71.0130  224.4400 C   0  0  0  0  0  0  0  0  0  0  0  0
  140.6810   71.8550  225.0750 C   0  0  0  0  0  0  0  0  0  0  0  0
  140.7831   72.9016  224.7523 H   0  0  0  0  0  0  0  0  0  0  0  0
  141.4740   71.3660  226.1150 C   0  0  0  0  0  0  0  0  0  0  0  0
  142.1945   72.0301  226.6148 H   0  0  0  0  0  0  0  0  0  0  0  0
  141.3540   70.0320  226.5230 C   0  0  0  0  0  0  0  0  0  0  0  0
  141.9830   69.6474  227.3393 H   0  0  0  0  0  0  0  0  0  0  0  0
  140.4340   69.1890  225.8920 C   0  0  0  0  0  0  0  0  0  0  0  0
  140.3380   68.1417  226.2144 H   0  0  0  0  0  0  0  0  0  0  0  0
  139.6360   69.6750  224.8520 C   0  0  0  0  0  0  0  0  0  0  0  0
  138.9153   69.0086  224.3555 H   0  0  0  0  0  0  0  0  0  0  0  0
  139.4910   72.5210  222.4270 C   0  0  0  0  0  0  0  0  0  0  0  0
  140.0537   73.2406  223.0398 H   0  0  0  0  0  0  0  0  0  0  0  0
  140.4390   71.8440  221.4150 C   0  0  0  0  0  0  0  0  0  0  0  0
  141.3127   71.4558  221.9591 H   0  0  0  0  0  0  0  0  0  0  0  0
  139.8722   71.0414  220.9204 H   0  0  0  0  0  0  0  0  0  0  0  0
  140.9340   72.8060  220.3120 C   0  0  0  0  0  0  0  0  0  0  0  0
  142.0339   72.8193  220.3171 H   0  0  0  0  0  0  0  0  0  0  0  0
  140.5501   72.4480  219.3454 H   0  0  0  0  0  0  0  0  0  0  0  0
  140.4400   74.1720  220.5250 N   0  0  0  0  0  0  0  0  0  0  0  0
  141.3380   75.2090  220.9530 C   0  0  0  0  0  0  0  0  0  0  0  0
  141.3460   75.5420  222.1690 O   0  0  0  0  0  0  0  0  0  0  0  0
  142.2720   75.9330  219.9940 C   0  0  2  0  0  0  0  0  0  0  0  0
  141.7098   76.0027  219.0511 H   0  0  0  0  0  0  0  0  0  0  0  0
  143.5660   75.1470  219.6140 C   0  0  0  0  0  0  0  0  0  0  0  0
  144.3130   75.9521  219.5536 H   0  0  0  0  0  0  0  0  0  0  0  0
  143.4370   74.3960  218.2610 C   0  0  0  0  0  0  0  0  0  0  0  0
  142.4180   74.4899  217.8576 H   0  0  0  0  0  0  0  0  0  0  0  0
  144.1088   74.7983  217.4885 H   0  0  0  0  0  0  0  0  0  0  0  0
  143.7400   72.9880  218.6010 C   0  0  0  0  0  0  0  0  0  0  0  0
  143.7010   71.8910  217.7350 C   0  0  0  0  0  0  0  0  0  0  0  0
  143.4241   72.0212  216.6784 H   0  0  0  0  0  0  0  0  0  0  0  0
  144.0220   70.6190  218.2390 C   0  0  0  0  0  0  0  0  0  0  0  0
  144.0002   69.7435  217.5734 H   0  0  0  0  0  0  0  0  0  0  0  0
  144.3710   70.4630  219.5920 C   0  0  0  0  0  0  0  0  0  0  0  0
  144.6172   69.4650  219.9837 H   0  0  0  0  0  0  0  0  0  0  0  0
  144.4060   71.5780  220.4440 C   0  0  0  0  0  0  0  0  0  0  0  0
  144.6804   71.4652  221.5032 H   0  0  0  0  0  0  0  0  0  0  0  0
  144.0860   72.8330  219.9220 C   0  0  0  0  0  0  0  0  0  0  0  0
  144.0490   74.1110  220.6640 C   0  0  0  0  0  0  0  0  0  0  0  0
  143.3447   74.0525  221.5069 H   0  0  0  0  0  0  0  0  0  0  0  0
  145.0247   74.3746  221.0981 H   0  0  0  0  0  0  0  0  0  0  0  0
  142.5700   77.2960  220.4560 N   0  0  0  0  0  0  0  0  0  0  0  0
  142.2930   77.4030  221.4610 H   0  0  0  0  0  0  0  0  0  0  0  0
  143.5830   77.5270  220.3590 H   0  0  0  0  0  0  0  0  0  0  0  0
  142.0150   77.9850  219.8970 H   0  0  0  0  0  0  0  0  0  0  0  0
  138.9960   74.3640  220.7060 C   0  0  0  0  0  0  0  0  0  0  0  0
  138.8182   75.3698  221.1144 H   0  0  0  0  0  0  0  0  0  0  0  0
  138.5081   74.2451  219.7273 H   0  0  0  0  0  0  0  0  0  0  0  0
  138.4000   73.3190  221.6720 C   0  0  0  0  0  0  0  0  0  0  0  0
  137.7693   73.8384  222.4085 H   0  0  0  0  0  0  0  0  0  0  0  0
  137.8165   72.6042  221.0733 H   0  0  0  0  0  0  0  0  0  0  0  0
  137.2220   69.9380  222.4780 C   0  0  0  0  0  0  0  0  0  0  0  0
  138.0938   69.4948  221.9744 H   0  0  0  0  0  0  0  0  0  0  0  0
  136.4729   70.2518  221.7361 H   0  0  0  0  0  0  0  0  0  0  0  0
  136.5940   68.8980  223.4020 C   0  0  0  0  0  0  0  0  0  0  0  0
  136.7677   69.1856  224.4494 H   0  0  0  0  0  0  0  0  0  0  0  0
  135.5120   68.8437  223.2112 H   0  0  0  0  0  0  0  0  0  0  0  0
  137.0497   67.9152  223.2112 H   0  0  0  0  0  0  0  0  0  0  0  0
  1  2  1  0
  2  3  1  0
  3  4  2  0
  4  5  1  0
  5  6  2  0
  6  7  1  0
  6  8  1  0
  8  9  1  0
  8 10  2  0
 10 11  1  0
 10 12  1  0
 12 13  1  0
 12 14  2  0
 14 15  1  0
  4 16  1  0
 16 17  1  0
 16 18  1  0
 18 19  1  0
 18 20  1  0
 18 21  1  0
 21 22  1  0
 21 23  1  0
 21 24  1  0
 24 25  1  0
 25 26  2  0
 25 27  1  0
 27 28  1  6
 27 29  1  0
 29 30  1  0
 29 31  1  0
 31 32  1  0
 31 33  1  0
 31 34  1  0
 34 35  2  0
 35 36  1  0
 35 37  1  0
 37 38  1  0
 37 39  2  0
 39 40  1  0
 39 41  1  0
 41 42  1  0
 41 43  2  0
 43 44  1  0
 44 45  1  0
 44 46  1  0
 27 47  1  0
 47 48  1  0
 47 49  1  0
 47 50  1  0
 24 51  1  0
 51 52  1  0
 51 53  1  0
 51 54  1  0
 54 55  1  0
 54 56  1  0
  3 57  1  0
 57 58  1  0
 57 59  1  0
 57 60  1  0
 60 61  1  0
 60 62  1  0
 60 63  1  0
 14  5  1  0
 54 16  1  0
 44 29  1  0
 43 34  1  0
M  CHG  2   4   1  47   1
M  END
>  <UniqueID>  (27) 
44

>  <SMILES>  (27) 
CC/C(O)=[N+](\c1ccccc1)C1CCN(C(=O)[C@@H]([NH3+])C2Cc3ccccc3C2)CC1

>  <Energy>  (27) 
90.78915616593795

>  <Genealogy>  (27) 
CCC(=O)[NH+](c1ccccc1)C1CCN(C(=O)[C@@H]([NH3+])C2Cc3ccccc3C2)CC1 (protonated)
CCC(O)=[N+](c1ccccc1)C1CCN(C(=O)[C@@H]([NH3+])C2Cc3ccccc3C2)CC1 (tautomer)
CC/C(O)=[N+](\c1ccccc1)C1CCN(C(=O)[C@@H]([NH3+])C2Cc3ccccc3C2)CC1 (cis-trans isomerization)
CC/C(O)=[N+](\c1ccccc1)C1CCN(C(=O)[C@@H]([NH3+])C2Cc3ccccc3C2)CC1 (3D coordinates assigned)
CC/C(O)=[N+](\c1ccccc1)C1CCN(C(=O)[C@@H]([NH3+])C2Cc3ccccc3C2)CC1 (nonaromatic ring conformer: 90.78915616593795 kcal/mol)

>  <smiles>  (27) 
CCC(=O)N(c1ccccc1)C1CCN(C(=O)[C@@H](N)C2Cc3ccccc3C2)CC1

>  <score_type>  (27) 
oracle

>  <origin>  (27) 
autodockgpu

>  <m_score__min__energy>  (27) 
-8.1699999999999999

>  <m_primary>  (27) 
energy

>  <meeko>  (27) 
{"free_energy": -6.65, "intermolecular_energy": -9.03, "internal_energy": -2.22, "cluster_size": 4, "cluster_id": 5, "rank_in_cluster": 4}

>  <energy>  (27) 
-7.87

>  <cluster_rmsd>  (27) 
0.52

>  <rmsd>  (27) 
271.08

>  <cluster>  (27) 
2

$$$$
MCZRVQBLWAUNOI-QBLXWANANA-P
     RDKit          3D

 63 66  0  0  0  0  0  0  0  0999 V2000
  139.7540   67.8790  221.8660 H   0  0  0  0  0  0  0  0  0  0  0  0
  139.5790   68.8540  221.6560 O   0  0  0  0  0  0  0  0  0  0  0  0
  139.0320   69.7180  222.6120 C   0  0  0  0  0  0  0  0  0  0  0  0
  139.7540   70.7130  223.0870 N   0  0  0  0  0  0  0  0  0  0  0  0
  140.1770   70.7160  224.4660 C   0  0  0  0  0  0  0  0  0  0  0  0
  140.7060   71.8850  225.0390 C   0  0  0  0  0  0  0  0  0  0  0  0
  140.8020   72.7986  224.4340 H   0  0  0  0  0  0  0  0  0  0  0  0
  141.1100   71.8880  226.3760 C   0  0  0  0  0  0  0  0  0  0  0  0
  141.5164   72.8066  226.8242 H   0  0  0  0  0  0  0  0  0  0  0  0
  140.9990   70.7250  227.1470 C   0  0  0  0  0  0  0  0  0  0  0  0
  141.3230   70.7285  228.1982 H   0  0  0  0  0  0  0  0  0  0  0  0
  140.4760   69.5590  226.5800 C   0  0  0  0  0  0  0  0  0  0  0  0
  140.3861   68.6460  227.1870 H   0  0  0  0  0  0  0  0  0  0  0  0
  140.0670   69.5510  225.2430 C   0  0  0  0  0  0  0  0  0  0  0  0
  139.6586   68.6312  224.7990 H   0  0  0  0  0  0  0  0  0  0  0  0
  140.0660   71.8820  222.2240 C   0  0  0  0  0  0  0  0  0  0  0  0
  140.5460   72.6280  222.8745 H   0  0  0  0  0  0  0  0  0  0  0  0
  141.0340   71.4780  221.0920 C   0  0  0  0  0  0  0  0  0  0  0  0
  141.9991   71.1985  221.5397 H   0  0  0  0  0  0  0  0  0  0  0  0
  140.5731   70.6390  220.5500 H   0  0  0  0  0  0  0  0  0  0  0  0
  141.2760   72.6100  220.0690 C   0  0  0  0  0  0  0  0  0  0  0  0
  142.3554   72.8138  220.0107 H   0  0  0  0  0  0  0  0  0  0  0  0
  140.8849   72.2825  219.0944 H   0  0  0  0  0  0  0  0  0  0  0  0
  140.5780   73.8440  220.4530 N   0  0  0  0  0  0  0  0  0  0  0  0
  141.3200   74.9760  220.9340 C   0  0  0  0  0  0  0  0  0  0  0  0
  141.3650   75.1900  222.1760 O   0  0  0  0  0  0  0  0  0  0  0  0
  142.0440   75.9370  220.0030 C   0  0  2  0  0  0  0  0  0  0  0  0
  141.4203   75.9756  219.0977 H   0  0  0  0  0  0  0  0  0  0  0  0
  143.4330   75.4420  219.4930 C   0  0  0  0  0  0  0  0  0  0  0  0
  143.9910   76.3853  219.3990 H   0  0  0  0  0  0  0  0  0  0  0  0
  143.3440   74.7020  218.1310 C   0  0  0  0  0  0  0  0  0  0  0  0
  142.2963   74.5895  217.8154 H   0  0  0  0  0  0  0  0  0  0  0  0
  143.8500   75.2470  217.3205 H   0  0  0  0  0  0  0  0  0  0  0  0
  143.9570   73.3820  218.3970 C   0  0  0  0  0  0  0  0  0  0  0  0
  144.0670   72.3150  217.5010 C   0  0  0  0  0  0  0  0  0  0  0  0
  143.6780   72.4022  216.4758 H   0  0  0  0  0  0  0  0  0  0  0  0
  144.6840   71.1280  217.9340 C   0  0  0  0  0  0  0  0  0  0  0  0
  144.7845   70.2781  217.2430 H   0  0  0  0  0  0  0  0  0  0  0  0
  145.1730   71.0250  219.2490 C   0  0  0  0  0  0  0  0  0  0  0  0
  145.6495   70.0926  219.5860 H   0  0  0  0  0  0  0  0  0  0  0  0
  145.0540   72.1100  220.1320 C   0  0  0  0  0  0  0  0  0  0  0  0
  145.4367   72.0398  221.1609 H   0  0  0  0  0  0  0  0  0  0  0  0
  144.4400   73.2810  219.6790 C   0  0  0  0  0  0  0  0  0  0  0  0
  144.2070   74.5110  220.4650 C   0  0  0  0  0  0  0  0  0  0  0  0
  143.6053   74.2942  221.3599 H   0  0  0  0  0  0  0  0  0  0  0  0
  145.1419   74.9633  220.8274 H   0  0  0  0  0  0  0  0  0  0  0  0
  142.1170   77.2900  220.5740 N   0  0  0  0  0  0  0  0  0  0  0  0
  143.0400   77.7280  220.3430 H   0  0  0  0  0  0  0  0  0  0  0  0
  141.3530   77.9050  220.2160 H   0  0  0  0  0  0  0  0  0  0  0  0
  142.0410   77.2350  221.6160 H   0  0  0  0  0  0  0  0  0  0  0  0
  139.1400   73.7640  220.7390 C   0  0  0  0  0  0  0  0  0  0  0  0
  138.8284   74.6809  221.2608 H   0  0  0  0  0  0  0  0  0  0  0  0
  138.6052   73.6540  219.7841 H   0  0  0  0  0  0  0  0  0  0  0  0
  138.8030   72.5450  221.6240 C   0  0  0  0  0  0  0  0  0  0  0  0
  138.1530   72.8757  222.4475 H   0  0  0  0  0  0  0  0  0  0  0  0
  138.3029   71.7987  220.9892 H   0  0  0  0  0  0  0  0  0  0  0  0
  137.6120   69.4400  223.0670 C   0  0  0  0  0  0  0  0  0  0  0  0
  137.6159   68.5906  223.7659 H   0  0  0  0  0  0  0  0  0  0  0  0
  136.9967   69.2046  222.1861 H   0  0  0  0  0  0  0  0  0  0  0  0
  137.0240   70.6620  223.7660 C   0  0  0  0  0  0  0  0  0  0  0  0
  137.0887   70.5275  224.8558 H   0  0  0  0  0  0  0  0  0  0  0  0
  137.5890   71.5592  223.4731 H   0  0  0  0  0  0  0  0  0  0  0  0
  135.9703   70.7803  223.4731 H   0  0  0  0  0  0  0  0  0  0  0  0
  1  2  1  0
  2  3  1  0
  3  4  2  0
  4  5  1  0
  5  6  2  0
  6  7  1  0
  6  8  1  0
  8  9  1  0
  8 10  2  0
 10 11  1  0
 10 12  1  0
 12 13  1  0
 12 14  2  0
 14 15  1  0
  4 16  1  0
 16 17  1  0
 16 18  1  0
 18 19  1  0
 18 20  1  0
 18 21  1  0
 21 22  1  0
 21 23  1  0
 21 24  1  0
 24 25  1  0
 25 26  2  0
 25 27  1  0
 27 28  1  6
 27 29  1  0
 29 30  1  0
 29 31  1  0
 31 32  1  0
 31 33  1  0
 31 34  1  0
 34 35  2  0
 35 36  1  0
 35 37  1  0
 37 38  1  0
 37 39  2  0
 39 40  1  0
 39 41  1  0
 41 42  1  0
 41 43  2  0
 43 44  1  0
 44 45  1  0
 44 46  1  0
 27 47  1  0
 47 48  1  0
 47 49  1  0
 47 50  1  0
 24 51  1  0
 51 52  1  0
 51 53  1  0
 51 54  1  0
 54 55  1  0
 54 56  1  0
  3 57  1  0
 57 58  1  0
 57 59  1  0
 57 60  1  0
 60 61  1  0
 60 62  1  0
 60 63  1  0
 14  5  1  0
 54 16  1  0
 44 29  1  0
 43 34  1  0
M  CHG  2   4   1  47   1
M  END
>  <UniqueID>  (28) 
44

>  <SMILES>  (28) 
CC/C(O)=[N+](\c1ccccc1)C1CCN(C(=O)[C@@H]([NH3+])C2Cc3ccccc3C2)CC1

>  <Energy>  (28) 
90.78915616593795

>  <Genealogy>  (28) 
CCC(=O)[NH+](c1ccccc1)C1CCN(C(=O)[C@@H]([NH3+])C2Cc3ccccc3C2)CC1 (protonated)
CCC(O)=[N+](c1ccccc1)C1CCN(C(=O)[C@@H]([NH3+])C2Cc3ccccc3C2)CC1 (tautomer)
CC/C(O)=[N+](\c1ccccc1)C1CCN(C(=O)[C@@H]([NH3+])C2Cc3ccccc3C2)CC1 (cis-trans isomerization)
CC/C(O)=[N+](\c1ccccc1)C1CCN(C(=O)[C@@H]([NH3+])C2Cc3ccccc3C2)CC1 (3D coordinates assigned)
CC/C(O)=[N+](\c1ccccc1)C1CCN(C(=O)[C@@H]([NH3+])C2Cc3ccccc3C2)CC1 (nonaromatic ring conformer: 90.78915616593795 kcal/mol)

>  <smiles>  (28) 
CCC(=O)N(c1ccccc1)C1CCN(C(=O)[C@@H](N)C2Cc3ccccc3C2)CC1

>  <score_type>  (28) 
oracle

>  <origin>  (28) 
autodockgpu

>  <m_score__min__energy>  (28) 
-8.1699999999999999

>  <m_primary>  (28) 
energy

>  <meeko>  (28) 
{"free_energy": -6.53, "intermolecular_energy": -8.92, "internal_energy": -2.27, "cluster_size": 5, "cluster_id": 3, "rank_in_cluster": 2}

>  <energy>  (28) 
-7.8

>  <cluster_rmsd>  (28) 
0.11

>  <rmsd>  (28) 
270.99

>  <cluster>  (28) 
2

$$$$
MCZRVQBLWAUNOI-QBLXWANANA-P
     RDKit          3D

 63 66  0  0  0  0  0  0  0  0999 V2000
  144.2680   77.1600  219.7900 H   0  0  0  0  0  0  0  0  0  0  0  0
  143.3390   76.7630  219.7280 O   0  0  0  0  0  0  0  0  0  0  0  0
  142.1960   77.5560  219.8710 C   0  0  0  0  0  0  0  0  0  0  0  0
  141.3310   77.2940  220.8310 N   0  0  0  0  0  0  0  0  0  0  0  0
  141.0460   78.2760  221.8480 C   0  0  0  0  0  0  0  0  0  0  0  0
  140.0170   79.2120  221.6570 C   0  0  0  0  0  0  0  0  0  0  0  0
  139.4291   79.1990  220.7274 H   0  0  0  0  0  0  0  0  0  0  0  0
  139.7380   80.1600  222.6450 C   0  0  0  0  0  0  0  0  0  0  0  0
  138.9255   80.8862  222.4954 H   0  0  0  0  0  0  0  0  0  0  0  0
  140.4910   80.1870  223.8250 C   0  0  0  0  0  0  0  0  0  0  0  0
  140.2745   80.9380  224.5990 H   0  0  0  0  0  0  0  0  0  0  0  0
  141.5190   79.2580  224.0190 C   0  0  0  0  0  0  0  0  0  0  0  0
  142.1079   79.2766  224.9479 H   0  0  0  0  0  0  0  0  0  0  0  0
  141.7990   78.3060  223.0340 C   0  0  0  0  0  0  0  0  0  0  0  0
  142.6102   77.5792  223.1878 H   0  0  0  0  0  0  0  0  0  0  0  0
  140.7050   75.9490  220.9200 C   0  0  0  0  0  0  0  0  0  0  0  0
  141.4962   75.2604  221.2516 H   0  0  0  0  0  0  0  0  0  0  0  0
  139.5530   75.9530  221.9470 C   0  0  0  0  0  0  0  0  0  0  0  0
  139.9760   76.1280  222.9472 H   0  0  0  0  0  0  0  0  0  0  0  0
  138.8526   76.7481  221.6517 H   0  0  0  0  0  0  0  0  0  0  0  0
  138.7610   74.6270  221.9730 C   0  0  0  0  0  0  0  0  0  0  0  0
  138.7789   74.2207  222.9951 H   0  0  0  0  0  0  0  0  0  0  0  0
  137.7302   74.8360  221.6508 H   0  0  0  0  0  0  0  0  0  0  0  0
  139.3360   73.6350  221.0560 N   0  0  0  0  0  0  0  0  0  0  0  0
  140.0390   72.4930  221.5710 C   0  0  0  0  0  0  0  0  0  0  0  0
  141.3000   72.5070  221.5740 O   0  0  0  0  0  0  0  0  0  0  0  0
  139.3230   71.2610  222.1030 C   0  0  2  0  0  0  0  0  0  0  0  0
  138.3365   71.2766  221.6167 H   0  0  0  0  0  0  0  0  0  0  0  0
  139.0000   71.2920  223.6300 C   0  0  0  0  0  0  0  0  0  0  0  0
  138.3141   72.1490  223.7011 H   0  0  0  0  0  0  0  0  0  0  0  0
  140.2630   71.5080  224.5070 C   0  0  0  0  0  0  0  0  0  0  0  0
  141.1722   71.5146  223.8878 H   0  0  0  0  0  0  0  0  0  0  0  0
  140.2492   72.4712  225.0382 H   0  0  0  0  0  0  0  0  0  0  0  0
  140.2630   70.3510  225.4280 C   0  0  0  0  0  0  0  0  0  0  0  0
  141.2340   70.0450  226.3860 C   0  0  0  0  0  0  0  0  0  0  0  0
  142.1130   70.6928  226.5189 H   0  0  0  0  0  0  0  0  0  0  0  0
  141.0670   68.8940  227.1770 C   0  0  0  0  0  0  0  0  0  0  0  0
  141.8176   68.6379  227.9392 H   0  0  0  0  0  0  0  0  0  0  0  0
  139.9420   68.0700  226.9950 C   0  0  0  0  0  0  0  0  0  0  0  0
  139.8168   67.1681  227.6122 H   0  0  0  0  0  0  0  0  0  0  0  0
  138.9780   68.3960  226.0270 C   0  0  0  0  0  0  0  0  0  0  0  0
  138.0941   67.7581  225.8793 H   0  0  0  0  0  0  0  0  0  0  0  0
  139.1630   69.5460  225.2550 C   0  0  0  0  0  0  0  0  0  0  0  0
  138.2720   70.0370  224.1830 C   0  0  0  0  0  0  0  0  0  0  0  0
  138.1518   69.2772  223.3967 H   0  0  0  0  0  0  0  0  0  0  0  0
  137.2588   70.2630  224.5468 H   0  0  0  0  0  0  0  0  0  0  0  0
  140.0140   70.0240  221.7110 N   0  0  0  0  0  0  0  0  0  0  0  0
  140.1250   69.3960  222.5430 H   0  0  0  0  0  0  0  0  0  0  0  0
  139.4960   69.5080  220.9660 H   0  0  0  0  0  0  0  0  0  0  0  0
  140.9710   70.2540  221.3550 H   0  0  0  0  0  0  0  0  0  0  0  0
  139.5510   74.0300  219.6580 C   0  0  0  0  0  0  0  0  0  0  0  0
  140.2178   73.2981  219.1788 H   0  0  0  0  0  0  0  0  0  0  0  0
  138.5733   74.0595  219.1547 H   0  0  0  0  0  0  0  0  0  0  0  0
  140.1890   75.4310  219.5550 C   0  0  0  0  0  0  0  0  0  0  0  0
  141.0348   75.3828  218.8533 H   0  0  0  0  0  0  0  0  0  0  0  0
  139.4125   76.1271  219.2050 H   0  0  0  0  0  0  0  0  0  0  0  0
  142.0070   78.6870  218.8790 C   0  0  0  0  0  0  0  0  0  0  0  0
  142.5376   79.5793  219.2426 H   0  0  0  0  0  0  0  0  0  0  0  0
  140.9317   78.8974  218.7813 H   0  0  0  0  0  0  0  0  0  0  0  0
  142.5590   78.2980  217.5100 C   0  0  0  0  0  0  0  0  0  0  0  0
  143.4519   77.6688  217.6400 H   0  0  0  0  0  0  0  0  0  0  0  0
  141.7941   77.7383  216.9518 H   0  0  0  0  0  0  0  0  0  0  0  0
  142.8288   79.2066  216.9518 H   0  0  0  0  0  0  0  0  0  0  0  0
  1  2  1  0
  2  3  1  0
  3  4  2  0
  4  5  1  0
  5  6  2  0
  6  7  1  0
  6  8  1  0
  8  9  1  0
  8 10  2  0
 10 11  1  0
 10 12  1  0
 12 13  1  0
 12 14  2  0
 14 15  1  0
  4 16  1  0
 16 17  1  0
 16 18  1  0
 18 19  1  0
 18 20  1  0
 18 21  1  0
 21 22  1  0
 21 23  1  0
 21 24  1  0
 24 25  1  0
 25 26  2  0
 25 27  1  0
 27 28  1  6
 27 29  1  0
 29 30  1  0
 29 31  1  0
 31 32  1  0
 31 33  1  0
 31 34  1  0
 34 35  2  0
 35 36  1  0
 35 37  1  0
 37 38  1  0
 37 39  2  0
 39 40  1  0
 39 41  1  0
 41 42  1  0
 41 43  2  0
 43 44  1  0
 44 45  1  0
 44 46  1  0
 27 47  1  0
 47 48  1  0
 47 49  1  0
 47 50  1  0
 24 51  1  0
 51 52  1  0
 51 53  1  0
 51 54  1  0
 54 55  1  0
 54 56  1  0
  3 57  1  0
 57 58  1  0
 57 59  1  0
 57 60  1  0
 60 61  1  0
 60 62  1  0
 60 63  1  0
 14  5  1  0
 54 16  1  0
 44 29  1  0
 43 34  1  0
M  CHG  2   4   1  47   1
M  END
>  <UniqueID>  (29) 
44

>  <SMILES>  (29) 
CC/C(O)=[N+](\c1ccccc1)C1CCN(C(=O)[C@@H]([NH3+])C2Cc3ccccc3C2)CC1

>  <Energy>  (29) 
90.78915616593795

>  <Genealogy>  (29) 
CCC(=O)[NH+](c1ccccc1)C1CCN(C(=O)[C@@H]([NH3+])C2Cc3ccccc3C2)CC1 (protonated)
CCC(O)=[N+](c1ccccc1)C1CCN(C(=O)[C@@H]([NH3+])C2Cc3ccccc3C2)CC1 (tautomer)
CC/C(O)=[N+](\c1ccccc1)C1CCN(C(=O)[C@@H]([NH3+])C2Cc3ccccc3C2)CC1 (cis-trans isomerization)
CC/C(O)=[N+](\c1ccccc1)C1CCN(C(=O)[C@@H]([NH3+])C2Cc3ccccc3C2)CC1 (3D coordinates assigned)
CC/C(O)=[N+](\c1ccccc1)C1CCN(C(=O)[C@@H]([NH3+])C2Cc3ccccc3C2)CC1 (nonaromatic ring conformer: 90.78915616593795 kcal/mol)

>  <smiles>  (29) 
CCC(=O)N(c1ccccc1)C1CCN(C(=O)[C@@H](N)C2Cc3ccccc3C2)CC1

>  <score_type>  (29) 
oracle

>  <origin>  (29) 
autodockgpu

>  <m_score__min__energy>  (29) 
-8.1699999999999999

>  <m_primary>  (29) 
energy

>  <meeko>  (29) 
{"free_energy": -7.2, "intermolecular_energy": -9.59, "internal_energy": -1.65, "cluster_size": 5, "cluster_id": 1, "rank_in_cluster": 4}

>  <energy>  (29) 
-7.75

>  <cluster_rmsd>  (29) 
0.35

>  <rmsd>  (29) 
271.09

>  <cluster>  (29) 
2

$$$$
MCZRVQBLWAUNOI-QBLXWANANA-P
     RDKit          3D

 63 66  0  0  0  0  0  0  0  0999 V2000
  146.3310   74.1990  217.7340 H   0  0  0  0  0  0  0  0  0  0  0  0
  146.3070   73.2790  218.1560 O   0  0  0  0  0  0  0  0  0  0  0  0
  145.7100   73.0650  219.4040 C   0  0  0  0  0  0  0  0  0  0  0  0
  144.6470   72.2910  219.4980 N   0  0  0  0  0  0  0  0  0  0  0  0
  144.7620   70.8640  219.3210 C   0  0  0  0  0  0  0  0  0  0  0  0
  144.0210   69.9900  220.1320 C   0  0  0  0  0  0  0  0  0  0  0  0
  143.3534   70.3937  220.9075 H   0  0  0  0  0  0  0  0  0  0  0  0
  144.1300   68.6090  219.9560 C   0  0  0  0  0  0  0  0  0  0  0  0
  143.5415   67.9273  220.5877 H   0  0  0  0  0  0  0  0  0  0  0  0
  144.9860   68.0900  218.9780 C   0  0  0  0  0  0  0  0  0  0  0  0
  145.0750   67.0016  218.8458 H   0  0  0  0  0  0  0  0  0  0  0  0
  145.7280   68.9560  218.1690 C   0  0  0  0  0  0  0  0  0  0  0  0
  146.3978   68.5481  217.3976 H   0  0  0  0  0  0  0  0  0  0  0  0
  145.6200   70.3400  218.3390 C   0  0  0  0  0  0  0  0  0  0  0  0
  146.2072   71.0191  217.7034 H   0  0  0  0  0  0  0  0  0  0  0  0
  143.3050   72.8950  219.7040 C   0  0  0  0  0  0  0  0  0  0  0  0
  143.1533   72.9481  220.7922 H   0  0  0  0  0  0  0  0  0  0  0  0
  143.2490   74.3150  219.1000 C   0  0  0  0  0  0  0  0  0  0  0  0
  143.9337   74.9636  219.6662 H   0  0  0  0  0  0  0  0  0  0  0  0
  143.5396   74.2335  218.0422 H   0  0  0  0  0  0  0  0  0  0  0  0
  141.8350   74.9360  219.1430 C   0  0  0  0  0  0  0  0  0  0  0  0
  141.8814   75.8922  219.6848 H   0  0  0  0  0  0  0  0  0  0  0  0
  141.4939   75.0870  218.1082 H   0  0  0  0  0  0  0  0  0  0  0  0
  140.8770   74.0520  219.8180 N   0  0  0  0  0  0  0  0  0  0  0  0
  140.3770   74.3870  221.1230 C   0  0  0  0  0  0  0  0  0  0  0  0
  140.8750   73.8140  222.1300 O   0  0  0  0  0  0  0  0  0  0  0  0
  139.2610   75.3980  221.3400 C   0  0  2  0  0  0  0  0  0  0  0  0
  138.4868   75.1246  220.6080 H   0  0  0  0  0  0  0  0  0  0  0  0
  139.6270   76.8730  220.9810 C   0  0  0  0  0  0  0  0  0  0  0  0
  139.3737   76.9188  219.9116 H   0  0  0  0  0  0  0  0  0  0  0  0
  141.1280   77.1930  221.2180 C   0  0  0  0  0  0  0  0  0  0  0  0
  141.6421   76.3367  221.6790 H   0  0  0  0  0  0  0  0  0  0  0  0
  141.6680   77.4051  220.2834 H   0  0  0  0  0  0  0  0  0  0  0  0
  141.1070   78.3520  222.1390 C   0  0  0  0  0  0  0  0  0  0  0  0
  142.2140   78.9880  222.7080 C   0  0  0  0  0  0  0  0  0  0  0  0
  143.2341   78.6400  222.4881 H   0  0  0  0  0  0  0  0  0  0  0  0
  142.0000   80.0800  223.5660 C   0  0  0  0  0  0  0  0  0  0  0  0
  142.8581   80.5967  224.0206 H   0  0  0  0  0  0  0  0  0  0  0  0
  140.6920   80.5140  223.8450 C   0  0  0  0  0  0  0  0  0  0  0  0
  140.5286   81.3663  224.5210 H   0  0  0  0  0  0  0  0  0  0  0  0
  139.5940   79.8610  223.2620 C   0  0  0  0  0  0  0  0  0  0  0  0
  138.5672   80.1944  223.4730 H   0  0  0  0  0  0  0  0  0  0  0  0
  139.8300   78.7800  222.4090 C   0  0  0  0  0  0  0  0  0  0  0  0
  138.8070   77.9620  221.7230 C   0  0  0  0  0  0  0  0  0  0  0  0
  138.1201   77.5053  222.4507 H   0  0  0  0  0  0  0  0  0  0  0  0
  138.1798   78.5554  221.0414 H   0  0  0  0  0  0  0  0  0  0  0  0
  138.6840   75.2850  222.6870 N   0  0  0  0  0  0  0  0  0  0  0  0
  137.7050   74.9150  222.6280 H   0  0  0  0  0  0  0  0  0  0  0  0
  139.2460   74.6560  223.3000 H   0  0  0  0  0  0  0  0  0  0  0  0
  138.6410   76.2330  223.1300 H   0  0  0  0  0  0  0  0  0  0  0  0
  140.7690   72.6650  219.3520 C   0  0  0  0  0  0  0  0  0  0  0  0
  140.2285   72.0758  220.1075 H   0  0  0  0  0  0  0  0  0  0  0  0
  140.2292   72.6654  218.3936 H   0  0  0  0  0  0  0  0  0  0  0  0
  142.1580   72.0320  219.1230 C   0  0  0  0  0  0  0  0  0  0  0  0
  142.1798   71.0442  219.6066 H   0  0  0  0  0  0  0  0  0  0  0  0
  142.3152   71.9537  218.0371 H   0  0  0  0  0  0  0  0  0  0  0  0
  146.3260   73.7670  220.5980 C   0  0  0  0  0  0  0  0  0  0  0  0
  145.9291   74.7910  220.6598 H   0  0  0  0  0  0  0  0  0  0  0  0
  147.4185   73.7896  220.4716 H   0  0  0  0  0  0  0  0  0  0  0  0
  145.9950   73.0220  221.8880 C   0  0  0  0  0  0  0  0  0  0  0  0
  146.2714   73.6442  222.7520 H   0  0  0  0  0  0  0  0  0  0  0  0
  144.9167   72.8071  221.9209 H   0  0  0  0  0  0  0  0  0  0  0  0
  146.5583   72.0777  221.9209 H   0  0  0  0  0  0  0  0  0  0  0  0
  1  2  1  0
  2  3  1  0
  3  4  2  0
  4  5  1  0
  5  6  2  0
  6  7  1  0
  6  8  1  0
  8  9  1  0
  8 10  2  0
 10 11  1  0
 10 12  1  0
 12 13  1  0
 12 14  2  0
 14 15  1  0
  4 16  1  0
 16 17  1  0
 16 18  1  0
 18 19  1  0
 18 20  1  0
 18 21  1  0
 21 22  1  0
 21 23  1  0
 21 24  1  0
 24 25  1  0
 25 26  2  0
 25 27  1  0
 27 28  1  6
 27 29  1  0
 29 30  1  0
 29 31  1  0
 31 32  1  0
 31 33  1  0
 31 34  1  0
 34 35  2  0
 35 36  1  0
 35 37  1  0
 37 38  1  0
 37 39  2  0
 39 40  1  0
 39 41  1  0
 41 42  1  0
 41 43  2  0
 43 44  1  0
 44 45  1  0
 44 46  1  0
 27 47  1  0
 47 48  1  0
 47 49  1  0
 47 50  1  0
 24 51  1  0
 51 52  1  0
 51 53  1  0
 51 54  1  0
 54 55  1  0
 54 56  1  0
  3 57  1  0
 57 58  1  0
 57 59  1  0
 57 60  1  0
 60 61  1  0
 60 62  1  0
 60 63  1  0
 14  5  1  0
 54 16  1  0
 44 29  1  0
 43 34  1  0
M  CHG  2   4   1  47   1
M  END
>  <UniqueID>  (30) 
44

>  <SMILES>  (30) 
CC/C(O)=[N+](\c1ccccc1)C1CCN(C(=O)[C@@H]([NH3+])C2Cc3ccccc3C2)CC1

>  <Energy>  (30) 
90.78915616593795

>  <Genealogy>  (30) 
CCC(=O)[NH+](c1ccccc1)C1CCN(C(=O)[C@@H]([NH3+])C2Cc3ccccc3C2)CC1 (protonated)
CCC(O)=[N+](c1ccccc1)C1CCN(C(=O)[C@@H]([NH3+])C2Cc3ccccc3C2)CC1 (tautomer)
CC/C(O)=[N+](\c1ccccc1)C1CCN(C(=O)[C@@H]([NH3+])C2Cc3ccccc3C2)CC1 (cis-trans isomerization)
CC/C(O)=[N+](\c1ccccc1)C1CCN(C(=O)[C@@H]([NH3+])C2Cc3ccccc3C2)CC1 (3D coordinates assigned)
CC/C(O)=[N+](\c1ccccc1)C1CCN(C(=O)[C@@H]([NH3+])C2Cc3ccccc3C2)CC1 (nonaromatic ring conformer: 90.78915616593795 kcal/mol)

>  <smiles>  (30) 
CCC(=O)N(c1ccccc1)C1CCN(C(=O)[C@@H](N)C2Cc3ccccc3C2)CC1

>  <score_type>  (30) 
oracle

>  <origin>  (30) 
autodockgpu

>  <m_score__min__energy>  (30) 
-8.1699999999999999

>  <m_primary>  (30) 
energy

>  <meeko>  (30) 
{"free_energy": -7.72, "intermolecular_energy": -10.11, "internal_energy": -1.67, "cluster_size": 5, "cluster_id": 2, "rank_in_cluster": 5}

>  <energy>  (30) 
-7.72

>  <cluster_rmsd>  (30) 
0.47

>  <rmsd>  (30) 
271.05

>  <cluster>  (30) 
2

$$$$
MCZRVQBLWAUNOI-QBLXWANANA-P
     RDKit          3D

 63 66  0  0  0  0  0  0  0  0999 V2000
  146.6070   74.1270  218.2160 H   0  0  0  0  0  0  0  0  0  0  0  0
  146.3210   73.2480  218.6270 O   0  0  0  0  0  0  0  0  0  0  0  0
  145.4180   73.2020  219.6950 C   0  0  0  0  0  0  0  0  0  0  0  0
  144.3660   72.4110  219.6310 N   0  0  0  0  0  0  0  0  0  0  0  0
  144.5150   71.0230  219.2660 C   0  0  0  0  0  0  0  0  0  0  0  0
  145.1150   70.6760  218.0440 C   0  0  0  0  0  0  0  0  0  0  0  0
  145.4674   71.4640  217.3622 H   0  0  0  0  0  0  0  0  0  0  0  0
  145.2650   69.3320  217.6930 C   0  0  0  0  0  0  0  0  0  0  0  0
  145.7436   69.0633  216.7397 H   0  0  0  0  0  0  0  0  0  0  0  0
  144.8070   68.3270  218.5530 C   0  0  0  0  0  0  0  0  0  0  0  0
  144.9192   67.2695  218.2719 H   0  0  0  0  0  0  0  0  0  0  0  0
  144.2070   68.6670  219.7690 C   0  0  0  0  0  0  0  0  0  0  0  0
  143.8515   67.8763  220.4460 H   0  0  0  0  0  0  0  0  0  0  0  0
  144.0580   70.0110  220.1260 C   0  0  0  0  0  0  0  0  0  0  0  0
  143.5822   70.2759  221.0818 H   0  0  0  0  0  0  0  0  0  0  0  0
  143.0050   72.9640  219.8550 C   0  0  0  0  0  0  0  0  0  0  0  0
  142.9442   73.2136  220.9246 H   0  0  0  0  0  0  0  0  0  0  0  0
  142.7910   74.2370  219.0080 C   0  0  0  0  0  0  0  0  0  0  0  0
  143.4718   75.0197  219.3739 H   0  0  0  0  0  0  0  0  0  0  0  0
  142.9942   73.9721  217.9599 H   0  0  0  0  0  0  0  0  0  0  0  0
  141.3430   74.7730  219.0760 C   0  0  0  0  0  0  0  0  0  0  0  0
  141.3645   75.8161  219.4247 H   0  0  0  0  0  0  0  0  0  0  0  0
  140.9031   74.7038  218.0702 H   0  0  0  0  0  0  0  0  0  0  0  0
  140.5160   73.9810  219.9940 N   0  0  0  0  0  0  0  0  0  0  0  0
  140.1080   74.5290  221.2580 C   0  0  0  0  0  0  0  0  0  0  0  0
  140.7330   74.1880  222.2990 O   0  0  0  0  0  0  0  0  0  0  0  0
  138.9420   75.4970  221.3940 C   0  0  2  0  0  0  0  0  0  0  0  0
  138.2280   75.1895  220.6158 H   0  0  0  0  0  0  0  0  0  0  0  0
  139.2730   76.9820  221.0470 C   0  0  0  0  0  0  0  0  0  0  0  0
  138.8248   77.0889  220.0481 H   0  0  0  0  0  0  0  0  0  0  0  0
  140.7990   77.2650  221.0120 C   0  0  0  0  0  0  0  0  0  0  0  0
  141.3681   76.3766  221.3231 H   0  0  0  0  0  0  0  0  0  0  0  0
  141.1581   77.5200  220.0040 H   0  0  0  0  0  0  0  0  0  0  0  0
  140.9830   78.3710  221.9770 C   0  0  0  0  0  0  0  0  0  0  0  0
  142.1930   78.9570  222.3570 C   0  0  0  0  0  0  0  0  0  0  0  0
  143.1438   78.6050  221.9302 H   0  0  0  0  0  0  0  0  0  0  0  0
  142.1740   80.0050  223.2950 C   0  0  0  0  0  0  0  0  0  0  0  0
  143.1156   80.4818  223.6050 H   0  0  0  0  0  0  0  0  0  0  0  0
  140.9530   80.4440  223.8370 C   0  0  0  0  0  0  0  0  0  0  0  0
  140.9420   81.2609  224.5736 H   0  0  0  0  0  0  0  0  0  0  0  0
  139.7490   79.8430  223.4410 C   0  0  0  0  0  0  0  0  0  0  0  0
  138.7896   80.1820  223.8590 H   0  0  0  0  0  0  0  0  0  0  0  0
  139.7910   78.8050  222.5050 C   0  0  0  0  0  0  0  0  0  0  0  0
  138.6360   78.0430  221.9850 C   0  0  0  0  0  0  0  0  0  0  0  0
  138.0863   77.5589  222.8056 H   0  0  0  0  0  0  0  0  0  0  0  0
  137.9077   78.6829  221.4652 H   0  0  0  0  0  0  0  0  0  0  0  0
  138.2830   75.3690  222.7020 N   0  0  0  0  0  0  0  0  0  0  0  0
  139.0030   75.2780  223.4590 H   0  0  0  0  0  0  0  0  0  0  0  0
  137.6750   76.1900  222.9130 H   0  0  0  0  0  0  0  0  0  0  0  0
  137.6950   74.5040  222.7150 H   0  0  0  0  0  0  0  0  0  0  0  0
  140.4730   72.5250  219.8050 C   0  0  0  0  0  0  0  0  0  0  0  0
  140.0462   72.0606  220.7062 H   0  0  0  0  0  0  0  0  0  0  0  0
  139.8535   72.3111  218.9216 H   0  0  0  0  0  0  0  0  0  0  0  0
  141.8800   71.9420  219.5600 C   0  0  0  0  0  0  0  0  0  0  0  0
  142.0180   71.0674  220.2127 H   0  0  0  0  0  0  0  0  0  0  0  0
  141.9477   71.6681  218.4968 H   0  0  0  0  0  0  0  0  0  0  0  0
  145.7010   74.1020  220.8820 C   0  0  0  0  0  0  0  0  0  0  0  0
  144.7480   74.4284  221.3238 H   0  0  0  0  0  0  0  0  0  0  0  0
  146.2783   74.9728  220.5378 H   0  0  0  0  0  0  0  0  0  0  0  0
  146.5150   73.3570  221.9380 C   0  0  0  0  0  0  0  0  0  0  0  0
  146.1815   73.6623  222.9408 H   0  0  0  0  0  0  0  0  0  0  0  0
  146.3685   72.2735  221.8169 H   0  0  0  0  0  0  0  0  0  0  0  0
  147.5813   73.5986  221.8169 H   0  0  0  0  0  0  0  0  0  0  0  0
  1  2  1  0
  2  3  1  0
  3  4  2  0
  4  5  1  0
  5  6  2  0
  6  7  1  0
  6  8  1  0
  8  9  1  0
  8 10  2  0
 10 11  1  0
 10 12  1  0
 12 13  1  0
 12 14  2  0
 14 15  1  0
  4 16  1  0
 16 17  1  0
 16 18  1  0
 18 19  1  0
 18 20  1  0
 18 21  1  0
 21 22  1  0
 21 23  1  0
 21 24  1  0
 24 25  1  0
 25 26  2  0
 25 27  1  0
 27 28  1  6
 27 29  1  0
 29 30  1  0
 29 31  1  0
 31 32  1  0
 31 33  1  0
 31 34  1  0
 34 35  2  0
 35 36  1  0
 35 37  1  0
 37 38  1  0
 37 39  2  0
 39 40  1  0
 39 41  1  0
 41 42  1  0
 41 43  2  0
 43 44  1  0
 44 45  1  0
 44 46  1  0
 27 47  1  0
 47 48  1  0
 47 49  1  0
 47 50  1  0
 24 51  1  0
 51 52  1  0
 51 53  1  0
 51 54  1  0
 54 55  1  0
 54 56  1  0
  3 57  1  0
 57 58  1  0
 57 59  1  0
 57 60  1  0
 60 61  1  0
 60 62  1  0
 60 63  1  0
 14  5  1  0
 54 16  1  0
 44 29  1  0
 43 34  1  0
M  CHG  2   4   1  47   1
M  END
>  <UniqueID>  (31) 
44

>  <SMILES>  (31) 
CC/C(O)=[N+](\c1ccccc1)C1CCN(C(=O)[C@@H]([NH3+])C2Cc3ccccc3C2)CC1

>  <Energy>  (31) 
90.78915616593795

>  <Genealogy>  (31) 
CCC(=O)[NH+](c1ccccc1)C1CCN(C(=O)[C@@H]([NH3+])C2Cc3ccccc3C2)CC1 (protonated)
CCC(O)=[N+](c1ccccc1)C1CCN(C(=O)[C@@H]([NH3+])C2Cc3ccccc3C2)CC1 (tautomer)
CC/C(O)=[N+](\c1ccccc1)C1CCN(C(=O)[C@@H]([NH3+])C2Cc3ccccc3C2)CC1 (cis-trans isomerization)
CC/C(O)=[N+](\c1ccccc1)C1CCN(C(=O)[C@@H]([NH3+])C2Cc3ccccc3C2)CC1 (3D coordinates assigned)
CC/C(O)=[N+](\c1ccccc1)C1CCN(C(=O)[C@@H]([NH3+])C2Cc3ccccc3C2)CC1 (nonaromatic ring conformer: 90.78915616593795 kcal/mol)

>  <smiles>  (31) 
CCC(=O)N(c1ccccc1)C1CCN(C(=O)[C@@H](N)C2Cc3ccccc3C2)CC1

>  <score_type>  (31) 
oracle

>  <origin>  (31) 
autodockgpu

>  <m_score__min__energy>  (31) 
-8.1699999999999999

>  <m_primary>  (31) 
energy

>  <meeko>  (31) 
{"free_energy": -7.93, "intermolecular_energy": -10.32, "internal_energy": -1.55, "cluster_size": 5, "cluster_id": 2, "rank_in_cluster": 1}

>  <energy>  (31) 
-7.2

>  <cluster_rmsd>  (31) 
0.0

>  <rmsd>  (31) 
270.99

>  <cluster>  (31) 
3

$$$$
MCZRVQBLWAUNOI-QBLXWANANA-P
     RDKit          3D

 63 66  0  0  0  0  0  0  0  0999 V2000
  143.9490   77.6820  219.3490 H   0  0  0  0  0  0  0  0  0  0  0  0
  143.0170   77.4580  219.0230 O   0  0  0  0  0  0  0  0  0  0  0  0
  141.8960   78.1550  219.4870 C   0  0  0  0  0  0  0  0  0  0  0  0
  141.3990   77.8810  220.6770 N   0  0  0  0  0  0  0  0  0  0  0  0
  141.5910   78.7950  221.7770 C   0  0  0  0  0  0  0  0  0  0  0  0
  141.7620   80.1670  221.5330 C   0  0  0  0  0  0  0  0  0  0  0  0
  141.7542   80.5460  220.5004 H   0  0  0  0  0  0  0  0  0  0  0  0
  141.9420   81.0520  222.5990 C   0  0  0  0  0  0  0  0  0  0  0  0
  142.0682   82.1274  222.4048 H   0  0  0  0  0  0  0  0  0  0  0  0
  141.9620   80.5720  223.9140 C   0  0  0  0  0  0  0  0  0  0  0  0
  142.1098   81.2692  224.7519 H   0  0  0  0  0  0  0  0  0  0  0  0
  141.7940   79.2060  224.1620 C   0  0  0  0  0  0  0  0  0  0  0  0
  141.8058   78.8301  225.1957 H   0  0  0  0  0  0  0  0  0  0  0  0
  141.6110   78.3170  223.0980 C   0  0  0  0  0  0  0  0  0  0  0  0
  141.4826   77.2425  223.2956 H   0  0  0  0  0  0  0  0  0  0  0  0
  140.7100   76.5870  220.9150 C   0  0  0  0  0  0  0  0  0  0  0  0
  141.4032   75.9711  221.5068 H   0  0  0  0  0  0  0  0  0  0  0  0
  139.4030   76.8050  221.7050 C   0  0  0  0  0  0  0  0  0  0  0  0
  139.6584   77.1715  222.7102 H   0  0  0  0  0  0  0  0  0  0  0  0
  138.7974   77.5317  221.1436 H   0  0  0  0  0  0  0  0  0  0  0  0
  138.5610   75.5170  221.8500 C   0  0  0  0  0  0  0  0  0  0  0  0
  138.3884   75.3219  222.9187 H   0  0  0  0  0  0  0  0  0  0  0  0
  137.6094   75.6668  221.3189 H   0  0  0  0  0  0  0  0  0  0  0  0
  139.2390   74.3580  221.2580 N   0  0  0  0  0  0  0  0  0  0  0  0
  139.7960   73.3350  222.1000 C   0  0  0  0  0  0  0  0  0  0  0  0
  141.0370   73.3390  222.3200 O   0  0  0  0  0  0  0  0  0  0  0  0
  138.9480   72.2390  222.7280 C   0  0  2  0  0  0  0  0  0  0  0  0
  138.4348   72.7267  223.5699 H   0  0  0  0  0  0  0  0  0  0  0  0
  139.7540   71.0780  223.3900 C   0  0  0  0  0  0  0  0  0  0  0  0
  140.2659   70.6326  222.5242 H   0  0  0  0  0  0  0  0  0  0  0  0
  138.8420   70.0410  224.0980 C   0  0  0  0  0  0  0  0  0  0  0  0
  137.7909   70.3644  224.0739 H   0  0  0  0  0  0  0  0  0  0  0  0
  138.8686   69.0541  223.6129 H   0  0  0  0  0  0  0  0  0  0  0  0
  139.3490   70.0050  225.4880 C   0  0  0  0  0  0  0  0  0  0  0  0
  138.8240   69.2650  226.5510 C   0  0  0  0  0  0  0  0  0  0  0  0
  137.9434   68.6222  226.4048 H   0  0  0  0  0  0  0  0  0  0  0  0
  139.4420   69.3570  227.8110 C   0  0  0  0  0  0  0  0  0  0  0  0
  139.0469   68.7794  228.6597 H   0  0  0  0  0  0  0  0  0  0  0  0
  140.5640   70.1860  227.9880 C   0  0  0  0  0  0  0  0  0  0  0  0
  141.0416   70.2596  228.9762 H   0  0  0  0  0  0  0  0  0  0  0  0
  141.0760   70.9200  226.9060 C   0  0  0  0  0  0  0  0  0  0  0  0
  141.9546   71.5692  227.0348 H   0  0  0  0  0  0  0  0  0  0  0  0
  140.4480   70.8100  225.6620 C   0  0  0  0  0  0  0  0  0  0  0  0
  140.8290   71.5160  224.4200 C   0  0  0  0  0  0  0  0  0  0  0  0
  140.8068   72.6058  224.5679 H   0  0  0  0  0  0  0  0  0  0  0  0
  141.8507   71.2728  224.0928 H   0  0  0  0  0  0  0  0  0  0  0  0
  137.9300   71.7410  221.7920 N   0  0  0  0  0  0  0  0  0  0  0  0
  136.9710   71.9440  222.1640 H   0  0  0  0  0  0  0  0  0  0  0  0
  138.0250   72.1730  220.8480 H   0  0  0  0  0  0  0  0  0  0  0  0
  138.0220   70.7030  221.6950 H   0  0  0  0  0  0  0  0  0  0  0  0
  139.7050   74.4650  219.8690 C   0  0  0  0  0  0  0  0  0  0  0  0
  140.4113   73.6466  219.6656 H   0  0  0  0  0  0  0  0  0  0  0  0
  138.8289   74.4021  219.2068 H   0  0  0  0  0  0  0  0  0  0  0  0
  140.4110   75.8120  219.6080 C   0  0  0  0  0  0  0  0  0  0  0  0
  141.3605   75.6178  219.0878 H   0  0  0  0  0  0  0  0  0  0  0  0
  139.7359   76.4311  218.9989 H   0  0  0  0  0  0  0  0  0  0  0  0
  141.2940   79.1950  218.5620 C   0  0  0  0  0  0  0  0  0  0  0  0
  140.4887   79.7262  219.0904 H   0  0  0  0  0  0  0  0  0  0  0  0
  140.8946   78.6888  217.6708 H   0  0  0  0  0  0  0  0  0  0  0  0
  142.3550   80.2010  218.1230 C   0  0  0  0  0  0  0  0  0  0  0  0
  142.8262   80.6478  219.0108 H   0  0  0  0  0  0  0  0  0  0  0  0
  143.1196   79.6883  217.5209 H   0  0  0  0  0  0  0  0  0  0  0  0
  141.8837   80.9918  217.5209 H   0  0  0  0  0  0  0  0  0  0  0  0
  1  2  1  0
  2  3  1  0
  3  4  2  0
  4  5  1  0
  5  6  2  0
  6  7  1  0
  6  8  1  0
  8  9  1  0
  8 10  2  0
 10 11  1  0
 10 12  1  0
 12 13  1  0
 12 14  2  0
 14 15  1  0
  4 16  1  0
 16 17  1  0
 16 18  1  0
 18 19  1  0
 18 20  1  0
 18 21  1  0
 21 22  1  0
 21 23  1  0
 21 24  1  0
 24 25  1  0
 25 26  2  0
 25 27  1  0
 27 28  1  1
 27 29  1  0
 29 30  1  0
 29 31  1  0
 31 32  1  0
 31 33  1  0
 31 34  1  0
 34 35  2  0
 35 36  1  0
 35 37  1  0
 37 38  1  0
 37 39  2  0
 39 40  1  0
 39 41  1  0
 41 42  1  0
 41 43  2  0
 43 44  1  0
 44 45  1  0
 44 46  1  0
 27 47  1  0
 47 48  1  0
 47 49  1  0
 47 50  1  0
 24 51  1  0
 51 52  1  0
 51 53  1  0
 51 54  1  0
 54 55  1  0
 54 56  1  0
  3 57  1  0
 57 58  1  0
 57 59  1  0
 57 60  1  0
 60 61  1  0
 60 62  1  0
 60 63  1  0
 14  5  1  0
 54 16  1  0
 44 29  1  0
 43 34  1  0
M  CHG  2   4   1  47   1
M  END
>  <UniqueID>  (32) 
44

>  <SMILES>  (32) 
CC/C(O)=[N+](\c1ccccc1)C1CCN(C(=O)[C@@H]([NH3+])C2Cc3ccccc3C2)CC1

>  <Energy>  (32) 
90.78915616593795

>  <Genealogy>  (32) 
CCC(=O)[NH+](c1ccccc1)C1CCN(C(=O)[C@@H]([NH3+])C2Cc3ccccc3C2)CC1 (protonated)
CCC(O)=[N+](c1ccccc1)C1CCN(C(=O)[C@@H]([NH3+])C2Cc3ccccc3C2)CC1 (tautomer)
CC/C(O)=[N+](\c1ccccc1)C1CCN(C(=O)[C@@H]([NH3+])C2Cc3ccccc3C2)CC1 (cis-trans isomerization)
CC/C(O)=[N+](\c1ccccc1)C1CCN(C(=O)[C@@H]([NH3+])C2Cc3ccccc3C2)CC1 (3D coordinates assigned)
CC/C(O)=[N+](\c1ccccc1)C1CCN(C(=O)[C@@H]([NH3+])C2Cc3ccccc3C2)CC1 (nonaromatic ring conformer: 90.78915616593795 kcal/mol)

>  <smiles>  (32) 
CCC(=O)N(c1ccccc1)C1CCN(C(=O)[C@@H](N)C2Cc3ccccc3C2)CC1

>  <score_type>  (32) 
oracle

>  <origin>  (32) 
autodockgpu

>  <m_score__min__energy>  (32) 
-8.1699999999999999

>  <m_primary>  (32) 
energy

>  <meeko>  (32) 
{"free_energy": -8.17, "intermolecular_energy": -10.55, "internal_energy": -0.75, "cluster_size": 5, "cluster_id": 1, "rank_in_cluster": 1}

>  <energy>  (32) 
-6.53

>  <cluster_rmsd>  (32) 
1.73

>  <rmsd>  (32) 
270.83

>  <cluster>  (32) 
3

$$$$
MCZRVQBLWAUNOI-QBLXWANANA-P
     RDKit          3D

 63 66  0  0  0  0  0  0  0  0999 V2000
  146.6360   74.0650  218.3750 H   0  0  0  0  0  0  0  0  0  0  0  0
  146.3210   73.1820  218.7560 O   0  0  0  0  0  0  0  0  0  0  0  0
  145.3760   73.1290  219.7870 C   0  0  0  0  0  0  0  0  0  0  0  0
  144.3120   72.3600  219.6620 N   0  0  0  0  0  0  0  0  0  0  0  0
  144.4460   70.9910  219.2280 C   0  0  0  0  0  0  0  0  0  0  0  0
  144.8980   70.7030  217.9300 C   0  0  0  0  0  0  0  0  0  0  0  0
  145.1471   71.5235  217.2409 H   0  0  0  0  0  0  0  0  0  0  0  0
  145.0320   69.3770  217.5120 C   0  0  0  0  0  0  0  0  0  0  0  0
  145.3943   69.1551  216.4974 H   0  0  0  0  0  0  0  0  0  0  0  0
  144.7060   68.3300  218.3820 C   0  0  0  0  0  0  0  0  0  0  0  0
  144.8061   67.2865  218.0488 H   0  0  0  0  0  0  0  0  0  0  0  0
  144.2530   68.6110  219.6750 C   0  0  0  0  0  0  0  0  0  0  0  0
  144.0011   67.7879  220.3599 H   0  0  0  0  0  0  0  0  0  0  0  0
  144.1200   69.9370  220.0980 C   0  0  0  0  0  0  0  0  0  0  0  0
  143.7594   70.1555  221.1140 H   0  0  0  0  0  0  0  0  0  0  0  0
  142.9570   72.9260  219.8870 C   0  0  0  0  0  0  0  0  0  0  0  0
  142.9159   73.2198  220.9462 H   0  0  0  0  0  0  0  0  0  0  0  0
  142.7300   74.1640  218.9940 C   0  0  0  0  0  0  0  0  0  0  0  0
  143.4189   74.9589  219.3156 H   0  0  0  0  0  0  0  0  0  0  0  0
  142.9133   73.8567  217.9538 H   0  0  0  0  0  0  0  0  0  0  0  0
  141.2850   74.7060  219.0670 C   0  0  0  0  0  0  0  0  0  0  0  0
  141.3150   75.7619  219.3740 H   0  0  0  0  0  0  0  0  0  0  0  0
  140.8269   74.5986  218.0727 H   0  0  0  0  0  0  0  0  0  0  0  0
  140.4730   73.9530  220.0300 N   0  0  0  0  0  0  0  0  0  0  0  0
  140.0880   74.5530  221.2780 C   0  0  0  0  0  0  0  0  0  0  0  0
  140.7310   74.2520  222.3200 O   0  0  0  0  0  0  0  0  0  0  0  0
  138.9270   75.5280  221.3960 C   0  0  2  0  0  0  0  0  0  0  0  0
  138.2218   75.2225  220.6090 H   0  0  0  0  0  0  0  0  0  0  0  0
  139.2720   77.0110  221.0500 C   0  0  0  0  0  0  0  0  0  0  0  0
  138.8224   77.1241  220.0525 H   0  0  0  0  0  0  0  0  0  0  0  0
  140.8010   77.2780  221.0120 C   0  0  0  0  0  0  0  0  0  0  0  0
  141.3616   76.3838  221.3221 H   0  0  0  0  0  0  0  0  0  0  0  0
  141.1614   77.5290  220.0035 H   0  0  0  0  0  0  0  0  0  0  0  0
  140.9970   78.3820  221.9770 C   0  0  0  0  0  0  0  0  0  0  0  0
  142.2150   78.9550  222.3560 C   0  0  0  0  0  0  0  0  0  0  0  0
  143.1614   78.5930  221.9279 H   0  0  0  0  0  0  0  0  0  0  0  0
  142.2080   80.0020  223.2940 C   0  0  0  0  0  0  0  0  0  0  0  0
  143.1550   80.4696  223.6016 H   0  0  0  0  0  0  0  0  0  0  0  0
  140.9930   80.4530  223.8400 C   0  0  0  0  0  0  0  0  0  0  0  0
  140.9922   81.2692  224.5775 H   0  0  0  0  0  0  0  0  0  0  0  0
  139.7810   79.8640  223.4460 C   0  0  0  0  0  0  0  0  0  0  0  0
  138.8258   80.2117  223.8663 H   0  0  0  0  0  0  0  0  0  0  0  0
  139.8120   78.8270  222.5090 C   0  0  0  0  0  0  0  0  0  0  0  0
  138.6480   78.0770  221.9900 C   0  0  0  0  0  0  0  0  0  0  0  0
  138.0949   77.5976  222.8111 H   0  0  0  0  0  0  0  0  0  0  0  0
  137.9254   78.7249  221.4722 H   0  0  0  0  0  0  0  0  0  0  0  0
  138.2500   75.4080  222.6960 N   0  0  0  0  0  0  0  0  0  0  0  0
  138.9590   75.3670  223.4670 H   0  0  0  0  0  0  0  0  0  0  0  0
  137.6050   76.2090  222.8740 H   0  0  0  0  0  0  0  0  0  0  0  0
  137.6970   74.5200  222.7220 H   0  0  0  0  0  0  0  0  0  0  0  0
  140.4230   72.4920  219.9000 C   0  0  0  0  0  0  0  0  0  0  0  0
  140.0114   72.0651  220.8265 H   0  0  0  0  0  0  0  0  0  0  0  0
  139.7871   72.2450  219.0371 H   0  0  0  0  0  0  0  0  0  0  0  0
  141.8250   71.8950  219.6530 C   0  0  0  0  0  0  0  0  0  0  0  0
  141.9731   71.0468  220.3375 H   0  0  0  0  0  0  0  0  0  0  0  0
  141.8732   71.5779  218.6008 H   0  0  0  0  0  0  0  0  0  0  0  0
  145.6300   73.9920  221.0070 C   0  0  0  0  0  0  0  0  0  0  0  0
  144.6926   74.1054  221.5713 H   0  0  0  0  0  0  0  0  0  0  0  0
  145.9960   74.9752  220.6763 H   0  0  0  0  0  0  0  0  0  0  0  0
  146.6830   73.3520  221.9070 C   0  0  0  0  0  0  0  0  0  0  0  0
  146.4133   73.5159  222.9608 H   0  0  0  0  0  0  0  0  0  0  0  0
  146.7309   72.2719  221.7045 H   0  0  0  0  0  0  0  0  0  0  0  0
  147.6639   73.8069  221.7045 H   0  0  0  0  0  0  0  0  0  0  0  0
  1  2  1  0
  2  3  1  0
  3  4  2  0
  4  5  1  0
  5  6  2  0
  6  7  1  0
  6  8  1  0
  8  9  1  0
  8 10  2  0
 10 11  1  0
 10 12  1  0
 12 13  1  0
 12 14  2  0
 14 15  1  0
  4 16  1  0
 16 17  1  0
 16 18  1  0
 18 19  1  0
 18 20  1  0
 18 21  1  0
 21 22  1  0
 21 23  1  0
 21 24  1  0
 24 25  1  0
 25 26  2  0
 25 27  1  0
 27 28  1  6
 27 29  1  0
 29 30  1  0
 29 31  1  0
 31 32  1  0
 31 33  1  0
 31 34  1  0
 34 35  2  0
 35 36  1  0
 35 37  1  0
 37 38  1  0
 37 39  2  0
 39 40  1  0
 39 41  1  0
 41 42  1  0
 41 43  2  0
 43 44  1  0
 44 45  1  0
 44 46  1  0
 27 47  1  0
 47 48  1  0
 47 49  1  0
 47 50  1  0
 24 51  1  0
 51 52  1  0
 51 53  1  0
 51 54  1  0
 54 55  1  0
 54 56  1  0
  3 57  1  0
 57 58  1  0
 57 59  1  0
 57 60  1  0
 60 61  1  0
 60 62  1  0
 60 63  1  0
 14  5  1  0
 54 16  1  0
 44 29  1  0
 43 34  1  0
M  CHG  2   4   1  47   1
M  END
>  <UniqueID>  (33) 
44

>  <SMILES>  (33) 
CC/C(O)=[N+](\c1ccccc1)C1CCN(C(=O)[C@@H]([NH3+])C2Cc3ccccc3C2)CC1

>  <Energy>  (33) 
90.78915616593795

>  <Genealogy>  (33) 
CCC(=O)[NH+](c1ccccc1)C1CCN(C(=O)[C@@H]([NH3+])C2Cc3ccccc3C2)CC1 (protonated)
CCC(O)=[N+](c1ccccc1)C1CCN(C(=O)[C@@H]([NH3+])C2Cc3ccccc3C2)CC1 (tautomer)
CC/C(O)=[N+](\c1ccccc1)C1CCN(C(=O)[C@@H]([NH3+])C2Cc3ccccc3C2)CC1 (cis-trans isomerization)
CC/C(O)=[N+](\c1ccccc1)C1CCN(C(=O)[C@@H]([NH3+])C2Cc3ccccc3C2)CC1 (3D coordinates assigned)
CC/C(O)=[N+](\c1ccccc1)C1CCN(C(=O)[C@@H]([NH3+])C2Cc3ccccc3C2)CC1 (nonaromatic ring conformer: 90.78915616593795 kcal/mol)

>  <smiles>  (33) 
CCC(=O)N(c1ccccc1)C1CCN(C(=O)[C@@H](N)C2Cc3ccccc3C2)CC1

>  <score_type>  (33) 
oracle

>  <origin>  (33) 
autodockgpu

>  <m_score__min__energy>  (33) 
-8.1699999999999999

>  <m_primary>  (33) 
energy

>  <meeko>  (33) 
{"free_energy": -7.8, "intermolecular_energy": -10.19, "internal_energy": -1.59, "cluster_size": 5, "cluster_id": 2, "rank_in_cluster": 3}

>  <energy>  (33) 
-6.51

>  <cluster_rmsd>  (33) 
1.78

>  <rmsd>  (33) 
270.8

>  <cluster>  (33) 
3

$$$$
MCZRVQBLWAUNOI-QBLXWANANA-P
     RDKit          3D

 63 66  0  0  0  0  0  0  0  0999 V2000
  136.9140   72.9580  224.3470 H   0  0  0  0  0  0  0  0  0  0  0  0
  136.6740   72.1780  223.7480 O   0  0  0  0  0  0  0  0  0  0  0  0
  137.6350   71.2400  223.3540 C   0  0  0  0  0  0  0  0  0  0  0  0
  138.9160   71.5420  223.4270 N   0  0  0  0  0  0  0  0  0  0  0  0
  139.7370   70.9980  224.4810 C   0  0  0  0  0  0  0  0  0  0  0  0
  139.6280   69.6420  224.8320 C   0  0  0  0  0  0  0  0  0  0  0  0
  138.9121   68.9943  224.3049 H   0  0  0  0  0  0  0  0  0  0  0  0
  140.4270   69.1150  225.8490 C   0  0  0  0  0  0  0  0  0  0  0  0
  140.3441   68.0512  226.1163 H   0  0  0  0  0  0  0  0  0  0  0  0
  141.3330   69.9370  226.5290 C   0  0  0  0  0  0  0  0  0  0  0  0
  141.9570   69.5211  227.3338 H   0  0  0  0  0  0  0  0  0  0  0  0
  141.4440   71.2880  226.1840 C   0  0  0  0  0  0  0  0  0  0  0  0
  142.1590   71.9332  226.7155 H   0  0  0  0  0  0  0  0  0  0  0  0
  140.6480   71.8200  225.1650 C   0  0  0  0  0  0  0  0  0  0  0  0
  140.7352   72.8837  224.8985 H   0  0  0  0  0  0  0  0  0  0  0  0
  139.5050   72.5160  222.4720 C   0  0  0  0  0  0  0  0  0  0  0  0
  139.9977   73.2881  223.0812 H   0  0  0  0  0  0  0  0  0  0  0  0
  140.5450   71.8240  221.5640 C   0  0  0  0  0  0  0  0  0  0  0  0
  141.3923   71.4995  222.1859 H   0  0  0  0  0  0  0  0  0  0  0  0
  140.0431   70.9747  221.0775 H   0  0  0  0  0  0  0  0  0  0  0  0
  141.0800   72.7460  220.4460 C   0  0  0  0  0  0  0  0  0  0  0  0
  142.1757   72.8031  220.5245 H   0  0  0  0  0  0  0  0  0  0  0  0
  140.7764   72.3228  219.4771 H   0  0  0  0  0  0  0  0  0  0  0  0
  140.5240   74.1010  220.5490 N   0  0  0  0  0  0  0  0  0  0  0  0
  141.3530   75.1930  220.9790 C   0  0  0  0  0  0  0  0  0  0  0  0
  141.2650   75.5890  222.1730 O   0  0  0  0  0  0  0  0  0  0  0  0
  142.3250   75.9020  220.0470 C   0  0  2  0  0  0  0  0  0  0  0  0
  141.8204   75.9152  219.0697 H   0  0  0  0  0  0  0  0  0  0  0  0
  143.6600   75.1380  219.7810 C   0  0  0  0  0  0  0  0  0  0  0  0
  144.4056   75.9421  219.8682 H   0  0  0  0  0  0  0  0  0  0  0  0
  143.7040   74.4790  218.3760 C   0  0  0  0  0  0  0  0  0  0  0  0
  142.7424   74.6024  217.8562 H   0  0  0  0  0  0  0  0  0  0  0  0
  144.4643   74.9298  217.7212 H   0  0  0  0  0  0  0  0  0  0  0  0
  143.9700   73.0510  218.6570 C   0  0  0  0  0  0  0  0  0  0  0  0
  144.0440   72.0140  217.7220 C   0  0  0  0  0  0  0  0  0  0  0  0
  143.9007   72.2152  216.6501 H   0  0  0  0  0  0  0  0  0  0  0  0
  144.3050   70.7090  218.1770 C   0  0  0  0  0  0  0  0  0  0  0  0
  144.3700   69.8797  217.4573 H   0  0  0  0  0  0  0  0  0  0  0  0
  144.4830   70.4620  219.5500 C   0  0  0  0  0  0  0  0  0  0  0  0
  144.6829   69.4394  219.9026 H   0  0  0  0  0  0  0  0  0  0  0  0
  144.4060   71.5180  220.4710 C   0  0  0  0  0  0  0  0  0  0  0  0
  144.5462   71.3344  221.5465 H   0  0  0  0  0  0  0  0  0  0  0  0
  144.1480   72.8070  219.9970 C   0  0  0  0  0  0  0  0  0  0  0  0
  144.0120   74.0330  220.8120 C   0  0  0  0  0  0  0  0  0  0  0  0
  143.2076   73.9211  221.5539 H   0  0  0  0  0  0  0  0  0  0  0  0
  144.9241   74.2635  221.3820 H   0  0  0  0  0  0  0  0  0  0  0  0
  142.5580   77.2920  220.4650 N   0  0  0  0  0  0  0  0  0  0  0  0
  143.5790   77.5190  220.3990 H   0  0  0  0  0  0  0  0  0  0  0  0
  142.0230   77.9690  219.8790 H   0  0  0  0  0  0  0  0  0  0  0  0
  142.2690   77.4110  221.4640 H   0  0  0  0  0  0  0  0  0  0  0  0
  139.0650   74.2460  220.6230 C   0  0  0  0  0  0  0  0  0  0  0  0
  138.8243   75.2640  220.9633 H   0  0  0  0  0  0  0  0  0  0  0  0
  138.6494   74.0577  219.6221 H   0  0  0  0  0  0  0  0  0  0  0  0
  138.4420   73.2300  221.6030 C   0  0  0  0  0  0  0  0  0  0  0  0
  137.7438   73.7620  222.2660 H   0  0  0  0  0  0  0  0  0  0  0  0
  137.9278   72.4623  221.0062 H   0  0  0  0  0  0  0  0  0  0  0  0
  137.1320   69.9060  222.8380 C   0  0  0  0  0  0  0  0  0  0  0  0
  137.9902   69.2436  222.6516 H   0  0  0  0  0  0  0  0  0  0  0  0
  136.5720   70.0743  221.9063 H   0  0  0  0  0  0  0  0  0  0  0  0
  136.2050   69.2510  223.8580 C   0  0  0  0  0  0  0  0  0  0  0  0
  136.5484   69.4936  224.8745 H   0  0  0  0  0  0  0  0  0  0  0  0
  135.1809   69.6271  223.7174 H   0  0  0  0  0  0  0  0  0  0  0  0
  136.2175   68.1601  223.7174 H   0  0  0  0  0  0  0  0  0  0  0  0
  1  2  1  0
  2  3  1  0
  3  4  2  0
  4  5  1  0
  5  6  2  0
  6  7  1  0
  6  8  1  0
  8  9  1  0
  8 10  2  0
 10 11  1  0
 10 12  1  0
 12 13  1  0
 12 14  2  0
 14 15  1  0
  4 16  1  0
 16 17  1  0
 16 18  1  0
 18 19  1  0
 18 20  1  0
 18 21  1  0
 21 22  1  0
 21 23  1  0
 21 24  1  0
 24 25  1  0
 25 26  2  0
 25 27  1  0
 27 28  1  6
 27 29  1  0
 29 30  1  0
 29 31  1  0
 31 32  1  0
 31 33  1  0
 31 34  1  0
 34 35  2  0
 35 36  1  0
 35 37  1  0
 37 38  1  0
 37 39  2  0
 39 40  1  0
 39 41  1  0
 41 42  1  0
 41 43  2  0
 43 44  1  0
 44 45  1  0
 44 46  1  0
 27 47  1  0
 47 48  1  0
 47 49  1  0
 47 50  1  0
 24 51  1  0
 51 52  1  0
 51 53  1  0
 51 54  1  0
 54 55  1  0
 54 56  1  0
  3 57  1  0
 57 58  1  0
 57 59  1  0
 57 60  1  0
 60 61  1  0
 60 62  1  0
 60 63  1  0
 14  5  1  0
 54 16  1  0
 44 29  1  0
 43 34  1  0
M  CHG  2   4   1  47   1
M  END
>  <UniqueID>  (34) 
44

>  <SMILES>  (34) 
CC/C(O)=[N+](\c1ccccc1)C1CCN(C(=O)[C@@H]([NH3+])C2Cc3ccccc3C2)CC1

>  <Energy>  (34) 
90.78915616593795

>  <Genealogy>  (34) 
CCC(=O)[NH+](c1ccccc1)C1CCN(C(=O)[C@@H]([NH3+])C2Cc3ccccc3C2)CC1 (protonated)
CCC(O)=[N+](c1ccccc1)C1CCN(C(=O)[C@@H]([NH3+])C2Cc3ccccc3C2)CC1 (tautomer)
CC/C(O)=[N+](\c1ccccc1)C1CCN(C(=O)[C@@H]([NH3+])C2Cc3ccccc3C2)CC1 (cis-trans isomerization)
CC/C(O)=[N+](\c1ccccc1)C1CCN(C(=O)[C@@H]([NH3+])C2Cc3ccccc3C2)CC1 (3D coordinates assigned)
CC/C(O)=[N+](\c1ccccc1)C1CCN(C(=O)[C@@H]([NH3+])C2Cc3ccccc3C2)CC1 (nonaromatic ring conformer: 90.78915616593795 kcal/mol)

>  <smiles>  (34) 
CCC(=O)N(c1ccccc1)C1CCN(C(=O)[C@@H](N)C2Cc3ccccc3C2)CC1

>  <score_type>  (34) 
oracle

>  <origin>  (34) 
autodockgpu

>  <m_score__min__energy>  (34) 
-8.1699999999999999

>  <m_primary>  (34) 
energy

>  <meeko>  (34) 
{"free_energy": -6.82, "intermolecular_energy": -9.21, "internal_energy": -2.1, "cluster_size": 4, "cluster_id": 5, "rank_in_cluster": 2}

>  <energy>  (34) 
-6.51

>  <cluster_rmsd>  (34) 
1.74

>  <rmsd>  (34) 
270.87

>  <cluster>  (34) 
3

$$$$
MCZRVQBLWAUNOI-QBLXWANANA-P
     RDKit          3D

 63 66  0  0  0  0  0  0  0  0999 V2000
  136.6720   69.4200  222.2970 H   0  0  0  0  0  0  0  0  0  0  0  0
  137.3140   70.1560  222.5630 O   0  0  0  0  0  0  0  0  0  0  0  0
  138.7000   69.9810  222.4800 C   0  0  0  0  0  0  0  0  0  0  0  0
  139.5080   70.9050  222.9580 N   0  0  0  0  0  0  0  0  0  0  0  0
  139.9180   70.8740  224.3410 C   0  0  0  0  0  0  0  0  0  0  0  0
  139.4950   69.8290  225.1790 C   0  0  0  0  0  0  0  0  0  0  0  0
  138.8461   69.0347  224.7815 H   0  0  0  0  0  0  0  0  0  0  0  0
  139.8970   69.7970  226.5160 C   0  0  0  0  0  0  0  0  0  0  0  0
  139.5703   68.9732  227.1677 H   0  0  0  0  0  0  0  0  0  0  0  0
  140.7150   70.8110  227.0290 C   0  0  0  0  0  0  0  0  0  0  0  0
  141.0253   70.7871  228.0841 H   0  0  0  0  0  0  0  0  0  0  0  0
  141.1370   71.8540  226.1990 C   0  0  0  0  0  0  0  0  0  0  0  0
  141.7826   72.6486  226.6012 H   0  0  0  0  0  0  0  0  0  0  0  0
  140.7400   71.8890  224.8590 C   0  0  0  0  0  0  0  0  0  0  0  0
  141.0716   72.7123  224.2092 H   0  0  0  0  0  0  0  0  0  0  0  0
  139.9360   72.0370  222.0960 C   0  0  0  0  0  0  0  0  0  0  0  0
  140.4171   72.7692  222.7612 H   0  0  0  0  0  0  0  0  0  0  0  0
  140.9460   71.5570  221.0320 C   0  0  0  0  0  0  0  0  0  0  0  0
  141.8659   71.2352  221.5421 H   0  0  0  0  0  0  0  0  0  0  0  0
  140.4731   70.7326  220.4783 H   0  0  0  0  0  0  0  0  0  0  0  0
  141.3100   72.6530  220.0060 C   0  0  0  0  0  0  0  0  0  0  0  0
  142.4005   72.7971  220.0097 H   0  0  0  0  0  0  0  0  0  0  0  0
  140.9596   72.3265  219.0157 H   0  0  0  0  0  0  0  0  0  0  0  0
  140.6600   73.9300  220.3240 N   0  0  0  0  0  0  0  0  0  0  0  0
  141.4340   75.0310  220.8290 C   0  0  0  0  0  0  0  0  0  0  0  0
  141.4170   75.2680  222.0680 O   0  0  0  0  0  0  0  0  0  0  0  0
  142.2650   75.9320  219.9270 C   0  0  2  0  0  0  0  0  0  0  0  0
  141.7064   75.9770  218.9805 H   0  0  0  0  0  0  0  0  0  0  0  0
  143.6590   75.3570  219.5240 C   0  0  0  0  0  0  0  0  0  0  0  0
  144.2892   76.2586  219.5302 H   0  0  0  0  0  0  0  0  0  0  0  0
  143.6490   74.6860  218.1230 C   0  0  0  0  0  0  0  0  0  0  0  0
  142.6310   74.6656  217.7068 H   0  0  0  0  0  0  0  0  0  0  0  0
  144.2667   75.2268  217.3909 H   0  0  0  0  0  0  0  0  0  0  0  0
  144.1400   73.3140  218.3780 C   0  0  0  0  0  0  0  0  0  0  0  0
  144.2620   72.2820  217.4440 C   0  0  0  0  0  0  0  0  0  0  0  0
  143.9810   72.4427  216.3927 H   0  0  0  0  0  0  0  0  0  0  0  0
  144.7500   71.0350  217.8710 C   0  0  0  0  0  0  0  0  0  0  0  0
  144.8567   70.2110  217.1501 H   0  0  0  0  0  0  0  0  0  0  0  0
  145.1020   70.8390  219.2180 C   0  0  0  0  0  0  0  0  0  0  0  0
  145.4788   69.8602  219.5496 H   0  0  0  0  0  0  0  0  0  0  0  0
  144.9740   71.8890  220.1410 C   0  0  0  0  0  0  0  0  0  0  0  0
  145.2500   71.7450  221.1961 H   0  0  0  0  0  0  0  0  0  0  0  0
  144.4890   73.1210  219.6930 C   0  0  0  0  0  0  0  0  0  0  0  0
  144.2680   74.3300  220.5150 C   0  0  0  0  0  0  0  0  0  0  0  0
  143.5690   74.1200  221.3380 H   0  0  0  0  0  0  0  0  0  0  0  0
  145.1930   74.6951  220.9851 H   0  0  0  0  0  0  0  0  0  0  0  0
  142.3650   77.2940  220.4690 N   0  0  0  0  0  0  0  0  0  0  0  0
  143.3200   77.6840  220.2830 H   0  0  0  0  0  0  0  0  0  0  0  0
  141.6530   77.9320  220.0530 H   0  0  0  0  0  0  0  0  0  0  0  0
  142.2270   77.2700  221.5070 H   0  0  0  0  0  0  0  0  0  0  0  0
  139.2060   73.9350  220.5240 C   0  0  0  0  0  0  0  0  0  0  0  0
  138.9159   74.8782  221.0100 H   0  0  0  0  0  0  0  0  0  0  0  0
  138.7235   73.8347  219.5406 H   0  0  0  0  0  0  0  0  0  0  0  0
  138.7490   72.7550  221.4080 C   0  0  0  0  0  0  0  0  0  0  0  0
  138.0700   73.1377  222.1842 H   0  0  0  0  0  0  0  0  0  0  0  0
  138.2470   72.0238  220.7573 H   0  0  0  0  0  0  0  0  0  0  0  0
  139.2000   68.7150  221.8120 C   0  0  0  0  0  0  0  0  0  0  0  0
  140.2962   68.7574  221.7314 H   0  0  0  0  0  0  0  0  0  0  0  0
  138.7477   68.6391  220.8122 H   0  0  0  0  0  0  0  0  0  0  0  0
  138.8040   67.4860  222.6260 C   0  0  0  0  0  0  0  0  0  0  0  0
  138.8785   67.7172  223.6989 H   0  0  0  0  0  0  0  0  0  0  0  0
  137.7692   67.2030  222.3829 H   0  0  0  0  0  0  0  0  0  0  0  0
  139.4789   66.6521  222.3829 H   0  0  0  0  0  0  0  0  0  0  0  0
  1  2  1  0
  2  3  1  0
  3  4  2  0
  4  5  1  0
  5  6  2  0
  6  7  1  0
  6  8  1  0
  8  9  1  0
  8 10  2  0
 10 11  1  0
 10 12  1  0
 12 13  1  0
 12 14  2  0
 14 15  1  0
  4 16  1  0
 16 17  1  0
 16 18  1  0
 18 19  1  0
 18 20  1  0
 18 21  1  0
 21 22  1  0
 21 23  1  0
 21 24  1  0
 24 25  1  0
 25 26  2  0
 25 27  1  0
 27 28  1  6
 27 29  1  0
 29 30  1  0
 29 31  1  0
 31 32  1  0
 31 33  1  0
 31 34  1  0
 34 35  2  0
 35 36  1  0
 35 37  1  0
 37 38  1  0
 37 39  2  0
 39 40  1  0
 39 41  1  0
 41 42  1  0
 41 43  2  0
 43 44  1  0
 44 45  1  0
 44 46  1  0
 27 47  1  0
 47 48  1  0
 47 49  1  0
 47 50  1  0
 24 51  1  0
 51 52  1  0
 51 53  1  0
 51 54  1  0
 54 55  1  0
 54 56  1  0
  3 57  1  0
 57 58  1  0
 57 59  1  0
 57 60  1  0
 60 61  1  0
 60 62  1  0
 60 63  1  0
 14  5  1  0
 54 16  1  0
 44 29  1  0
 43 34  1  0
M  CHG  2   4   1  47   1
M  END
>  <UniqueID>  (35) 
44

>  <SMILES>  (35) 
CC/C(O)=[N+](\c1ccccc1)C1CCN(C(=O)[C@@H]([NH3+])C2Cc3ccccc3C2)CC1

>  <Energy>  (35) 
90.78915616593795

>  <Genealogy>  (35) 
CCC(=O)[NH+](c1ccccc1)C1CCN(C(=O)[C@@H]([NH3+])C2Cc3ccccc3C2)CC1 (protonated)
CCC(O)=[N+](c1ccccc1)C1CCN(C(=O)[C@@H]([NH3+])C2Cc3ccccc3C2)CC1 (tautomer)
CC/C(O)=[N+](\c1ccccc1)C1CCN(C(=O)[C@@H]([NH3+])C2Cc3ccccc3C2)CC1 (cis-trans isomerization)
CC/C(O)=[N+](\c1ccccc1)C1CCN(C(=O)[C@@H]([NH3+])C2Cc3ccccc3C2)CC1 (3D coordinates assigned)
CC/C(O)=[N+](\c1ccccc1)C1CCN(C(=O)[C@@H]([NH3+])C2Cc3ccccc3C2)CC1 (nonaromatic ring conformer: 90.78915616593795 kcal/mol)

>  <smiles>  (35) 
CCC(=O)N(c1ccccc1)C1CCN(C(=O)[C@@H](N)C2Cc3ccccc3C2)CC1

>  <score_type>  (35) 
oracle

>  <origin>  (35) 
autodockgpu

>  <m_score__min__energy>  (35) 
-8.1699999999999999

>  <m_primary>  (35) 
energy

>  <meeko>  (35) 
{"free_energy": -6.45, "intermolecular_energy": -8.83, "internal_energy": -2.29, "cluster_size": 5, "cluster_id": 3, "rank_in_cluster": 5}

>  <energy>  (35) 
-6.45

>  <cluster_rmsd>  (35) 
1.96

>  <rmsd>  (35) 
270.72

>  <cluster>  (35) 
3

$$$$
MCZRVQBLWAUNOI-QBLXWANANA-P
     RDKit          3D

 63 66  0  0  0  0  0  0  0  0999 V2000
  144.1070   77.1800  219.7640 H   0  0  0  0  0  0  0  0  0  0  0  0
  143.1430   77.0960  219.4690 O   0  0  0  0  0  0  0  0  0  0  0  0
  142.1950   78.0740  219.7900 C   0  0  0  0  0  0  0  0  0  0  0  0
  141.4540   77.9390  220.8720 N   0  0  0  0  0  0  0  0  0  0  0  0
  141.4370   78.9710  221.8800 C   0  0  0  0  0  0  0  0  0  0  0  0
  140.3920   79.9080  221.9130 C   0  0  0  0  0  0  0  0  0  0  0  0
  139.5862   79.8576  221.1659 H   0  0  0  0  0  0  0  0  0  0  0  0
  140.3730   80.9040  222.8920 C   0  0  0  0  0  0  0  0  0  0  0  0
  139.5481   81.6311  222.9200 H   0  0  0  0  0  0  0  0  0  0  0  0
  141.4030   80.9780  223.8380 C   0  0  0  0  0  0  0  0  0  0  0  0
  141.3904   81.7669  224.6044 H   0  0  0  0  0  0  0  0  0  0  0  0
  142.4470   80.0490  223.8080 C   0  0  0  0  0  0  0  0  0  0  0  0
  143.2537   80.1056  224.5537 H   0  0  0  0  0  0  0  0  0  0  0  0
  142.4680   79.0480  222.8320 C   0  0  0  0  0  0  0  0  0  0  0  0
  143.2923   78.3200  222.8093 H   0  0  0  0  0  0  0  0  0  0  0  0
  140.6960   76.6820  221.1020 C   0  0  0  0  0  0  0  0  0  0  0  0
  141.4309   75.9326  221.4313 H   0  0  0  0  0  0  0  0  0  0  0  0
  139.6300   76.8840  222.2000 C   0  0  0  0  0  0  0  0  0  0  0  0
  140.1422   77.0766  223.1542 H   0  0  0  0  0  0  0  0  0  0  0  0
  138.9992   77.7314  221.8933 H   0  0  0  0  0  0  0  0  0  0  0  0
  138.7040   75.6600  222.3770 C   0  0  0  0  0  0  0  0  0  0  0  0
  138.7531   75.3235  223.4231 H   0  0  0  0  0  0  0  0  0  0  0  0
  137.6806   75.9612  222.1088 H   0  0  0  0  0  0  0  0  0  0  0  0
  139.1010   74.5500  221.5000 N   0  0  0  0  0  0  0  0  0  0  0  0
  139.7140   73.3740  222.0530 C   0  0  0  0  0  0  0  0  0  0  0  0
  140.9650   73.2470  221.9720 O   0  0  0  0  0  0  0  0  0  0  0  0
  138.9110   72.2680  222.7210 C   0  0  2  0  0  0  0  0  0  0  0  0
  138.4029   72.7583  223.5645 H   0  0  0  0  0  0  0  0  0  0  0  0
  139.7640   71.1430  223.3860 C   0  0  0  0  0  0  0  0  0  0  0  0
  140.3152   70.7345  222.5262 H   0  0  0  0  0  0  0  0  0  0  0  0
  138.8930   70.0520  224.0660 C   0  0  0  0  0  0  0  0  0  0  0  0
  137.8272   70.3211  224.0247 H   0  0  0  0  0  0  0  0  0  0  0  0
  138.9796   69.0732  223.5716 H   0  0  0  0  0  0  0  0  0  0  0  0
  139.3750   70.0270  225.4650 C   0  0  0  0  0  0  0  0  0  0  0  0
  138.8690   69.2490  226.5100 C   0  0  0  0  0  0  0  0  0  0  0  0
  138.0261   68.5630  226.3400 H   0  0  0  0  0  0  0  0  0  0  0  0
  139.4570   69.3590  227.7830 C   0  0  0  0  0  0  0  0  0  0  0  0
  139.0762   68.7526  228.6180 H   0  0  0  0  0  0  0  0  0  0  0  0
  140.5310   70.2430  227.9900 C   0  0  0  0  0  0  0  0  0  0  0  0
  140.9856   70.3303  228.9879 H   0  0  0  0  0  0  0  0  0  0  0  0
  141.0240   71.0140  226.9260 C   0  0  0  0  0  0  0  0  0  0  0  0
  141.8650   71.7064  227.0787 H   0  0  0  0  0  0  0  0  0  0  0  0
  140.4270   70.8860  225.6690 C   0  0  0  0  0  0  0  0  0  0  0  0
  140.7940   71.6250  224.4420 C   0  0  0  0  0  0  0  0  0  0  0  0
  140.7114   72.7104  224.6007 H   0  0  0  0  0  0  0  0  0  0  0  0
  141.8332   71.4394  224.1328 H   0  0  0  0  0  0  0  0  0  0  0  0
  137.8870   71.7230  221.8180 N   0  0  0  0  0  0  0  0  0  0  0  0
  137.9330   72.2070  220.8890 H   0  0  0  0  0  0  0  0  0  0  0  0
  138.0060   70.6970  221.6700 H   0  0  0  0  0  0  0  0  0  0  0  0
  136.9370   71.8940  222.2210 H   0  0  0  0  0  0  0  0  0  0  0  0
  139.2540   74.8240  220.0660 C   0  0  0  0  0  0  0  0  0  0  0  0
  139.8014   73.9913  219.6002 H   0  0  0  0  0  0  0  0  0  0  0  0
  138.2506   74.9297  219.6277 H   0  0  0  0  0  0  0  0  0  0  0  0
  140.0290   76.1340  219.8160 C   0  0  0  0  0  0  0  0  0  0  0  0
  140.8112   75.9438  219.0663 H   0  0  0  0  0  0  0  0  0  0  0  0
  139.3083   76.8876  219.4656 H   0  0  0  0  0  0  0  0  0  0  0  0
  142.0600   79.2490  218.8410 C   0  0  0  0  0  0  0  0  0  0  0  0
  142.8162   80.0067  219.0939 H   0  0  0  0  0  0  0  0  0  0  0  0
  141.0495   79.6718  218.9414 H   0  0  0  0  0  0  0  0  0  0  0  0
  142.2640   78.7990  217.3970 C   0  0  0  0  0  0  0  0  0  0  0  0
  142.7182   77.7972  217.3858 H   0  0  0  0  0  0  0  0  0  0  0  0
  141.2924   78.7669  216.8822 H   0  0  0  0  0  0  0  0  0  0  0  0
  142.9284   79.5086  216.8822 H   0  0  0  0  0  0  0  0  0  0  0  0
  1  2  1  0
  2  3  1  0
  3  4  2  0
  4  5  1  0
  5  6  2  0
  6  7  1  0
  6  8  1  0
  8  9  1  0
  8 10  2  0
 10 11  1  0
 10 12  1  0
 12 13  1  0
 12 14  2  0
 14 15  1  0
  4 16  1  0
 16 17  1  0
 16 18  1  0
 18 19  1  0
 18 20  1  0
 18 21  1  0
 21 22  1  0
 21 23  1  0
 21 24  1  0
 24 25  1  0
 25 26  2  0
 25 27  1  0
 27 28  1  1
 27 29  1  0
 29 30  1  0
 29 31  1  0
 31 32  1  0
 31 33  1  0
 31 34  1  0
 34 35  2  0
 35 36  1  0
 35 37  1  0
 37 38  1  0
 37 39  2  0
 39 40  1  0
 39 41  1  0
 41 42  1  0
 41 43  2  0
 43 44  1  0
 44 45  1  0
 44 46  1  0
 27 47  1  0
 47 48  1  0
 47 49  1  0
 47 50  1  0
 24 51  1  0
 51 52  1  0
 51 53  1  0
 51 54  1  0
 54 55  1  0
 54 56  1  0
  3 57  1  0
 57 58  1  0
 57 59  1  0
 57 60  1  0
 60 61  1  0
 60 62  1  0
 60 63  1  0
 14  5  1  0
 54 16  1  0
 44 29  1  0
 43 34  1  0
M  CHG  2   4   1  47   1
M  END
>  <UniqueID>  (36) 
44

>  <SMILES>  (36) 
CC/C(O)=[N+](\c1ccccc1)C1CCN(C(=O)[C@@H]([NH3+])C2Cc3ccccc3C2)CC1

>  <Energy>  (36) 
90.78915616593795

>  <Genealogy>  (36) 
CCC(=O)[NH+](c1ccccc1)C1CCN(C(=O)[C@@H]([NH3+])C2Cc3ccccc3C2)CC1 (protonated)
CCC(O)=[N+](c1ccccc1)C1CCN(C(=O)[C@@H]([NH3+])C2Cc3ccccc3C2)CC1 (tautomer)
CC/C(O)=[N+](\c1ccccc1)C1CCN(C(=O)[C@@H]([NH3+])C2Cc3ccccc3C2)CC1 (cis-trans isomerization)
CC/C(O)=[N+](\c1ccccc1)C1CCN(C(=O)[C@@H]([NH3+])C2Cc3ccccc3C2)CC1 (3D coordinates assigned)
CC/C(O)=[N+](\c1ccccc1)C1CCN(C(=O)[C@@H]([NH3+])C2Cc3ccccc3C2)CC1 (nonaromatic ring conformer: 90.78915616593795 kcal/mol)

>  <smiles>  (36) 
CCC(=O)N(c1ccccc1)C1CCN(C(=O)[C@@H](N)C2Cc3ccccc3C2)CC1

>  <score_type>  (36) 
oracle

>  <origin>  (36) 
autodockgpu

>  <m_score__min__energy>  (36) 
-8.1699999999999999

>  <m_primary>  (36) 
energy

>  <meeko>  (36) 
{"free_energy": -7.97, "intermolecular_energy": -10.36, "internal_energy": -0.94, "cluster_size": 5, "cluster_id": 1, "rank_in_cluster": 2}

>  <energy>  (36) 
-6.94

>  <cluster_rmsd>  (36) 
0.0

>  <rmsd>  (36) 
270.83

>  <cluster>  (36) 
4

$$$$
MCZRVQBLWAUNOI-QBLXWANANA-P
     RDKit          3D

 63 66  0  0  0  0  0  0  0  0999 V2000
  144.2680   77.1350  219.7980 H   0  0  0  0  0  0  0  0  0  0  0  0
  143.3310   76.7520  219.7570 O   0  0  0  0  0  0  0  0  0  0  0  0
  142.2040   77.5700  219.8900 C   0  0  0  0  0  0  0  0  0  0  0  0
  141.3210   77.3220  220.8380 N   0  0  0  0  0  0  0  0  0  0  0  0
  141.0160   78.3200  221.8330 C   0  0  0  0  0  0  0  0  0  0  0  0
  141.8090   78.4310  222.9870 C   0  0  0  0  0  0  0  0  0  0  0  0
  142.6621   77.7524  223.1344 H   0  0  0  0  0  0  0  0  0  0  0  0
  141.5160   79.4020  223.9480 C   0  0  0  0  0  0  0  0  0  0  0  0
  142.1437   79.4917  224.8469 H   0  0  0  0  0  0  0  0  0  0  0  0
  140.4250   80.2610  223.7690 C   0  0  0  0  0  0  0  0  0  0  0  0
  140.1920   81.0205  224.5298 H   0  0  0  0  0  0  0  0  0  0  0  0
  139.6320   80.1530  222.6230 C   0  0  0  0  0  0  0  0  0  0  0  0
  138.7777   80.8311  222.4805 H   0  0  0  0  0  0  0  0  0  0  0  0
  139.9230   79.1840  221.6570 C   0  0  0  0  0  0  0  0  0  0  0  0
  139.2947   79.0987  220.7581 H   0  0  0  0  0  0  0  0  0  0  0  0
  140.6950   75.9780  220.9360 C   0  0  0  0  0  0  0  0  0  0  0  0
  141.4784   75.2979  221.3017 H   0  0  0  0  0  0  0  0  0  0  0  0
  139.5170   75.9990  221.9320 C   0  0  0  0  0  0  0  0  0  0  0  0
  139.9136   76.1938  222.9393 H   0  0  0  0  0  0  0  0  0  0  0  0
  138.8233   76.7868  221.6032 H   0  0  0  0  0  0  0  0  0  0  0  0
  138.7260   74.6720  221.9630 C   0  0  0  0  0  0  0  0  0  0  0  0
  138.7168   74.2859  222.9930 H   0  0  0  0  0  0  0  0  0  0  0  0
  137.7039   74.8725  221.6093 H   0  0  0  0  0  0  0  0  0  0  0  0
  139.3270   73.6640  221.0820 N   0  0  0  0  0  0  0  0  0  0  0  0
  140.0180   72.5340  221.6390 C   0  0  0  0  0  0  0  0  0  0  0  0
  141.2790   72.5510  221.6760 O   0  0  0  0  0  0  0  0  0  0  0  0
  139.2910   71.3100  222.1760 C   0  0  2  0  0  0  0  0  0  0  0  0
  138.2947   71.3476  221.7113 H   0  0  0  0  0  0  0  0  0  0  0  0
  139.0020   71.3340  223.7090 C   0  0  0  0  0  0  0  0  0  0  0  0
  138.3541   72.2177  223.8054 H   0  0  0  0  0  0  0  0  0  0  0  0
  140.2910   71.4860  224.5610 C   0  0  0  0  0  0  0  0  0  0  0  0
  141.1863   71.4639  223.9223 H   0  0  0  0  0  0  0  0  0  0  0  0
  140.3280   72.4415  225.1047 H   0  0  0  0  0  0  0  0  0  0  0  0
  140.2630   70.3160  225.4680 C   0  0  0  0  0  0  0  0  0  0  0  0
  141.2400   69.9570  226.4000 C   0  0  0  0  0  0  0  0  0  0  0  0
  142.1483   70.5655  226.5219 H   0  0  0  0  0  0  0  0  0  0  0  0
  141.0410   68.8040  227.1790 C   0  0  0  0  0  0  0  0  0  0  0  0
  141.7963   68.5064  227.9213 H   0  0  0  0  0  0  0  0  0  0  0  0
  139.8790   68.0300  227.0120 C   0  0  0  0  0  0  0  0  0  0  0  0
  139.7295   67.1259  227.6204 H   0  0  0  0  0  0  0  0  0  0  0  0
  138.9090   68.4090  226.0700 C   0  0  0  0  0  0  0  0  0  0  0  0
  137.9960   67.8108  225.9337 H   0  0  0  0  0  0  0  0  0  0  0  0
  139.1260   69.5610  225.3090 C   0  0  0  0  0  0  0  0  0  0  0  0
  138.2340   70.1040  224.2620 C   0  0  0  0  0  0  0  0  0  0  0  0
  138.0652   69.3605  223.4691 H   0  0  0  0  0  0  0  0  0  0  0  0
  137.2393   70.3678  224.6507 H   0  0  0  0  0  0  0  0  0  0  0  0
  139.9490   70.0640  221.7580 N   0  0  0  0  0  0  0  0  0  0  0  0
  140.9200   70.2670  221.4200 H   0  0  0  0  0  0  0  0  0  0  0  0
  140.0010   69.3720  222.5370 H   0  0  0  0  0  0  0  0  0  0  0  0
  139.4170   69.6360  220.9650 H   0  0  0  0  0  0  0  0  0  0  0  0
  139.5790   74.0310  219.6830 C   0  0  0  0  0  0  0  0  0  0  0  0
  140.2593   73.2907  219.2368 H   0  0  0  0  0  0  0  0  0  0  0  0
  138.6152   74.0486  219.1531 H   0  0  0  0  0  0  0  0  0  0  0  0
  140.2180   75.4310  219.5690 C   0  0  0  0  0  0  0  0  0  0  0  0
  141.0830   75.3699  218.8922 H   0  0  0  0  0  0  0  0  0  0  0  0
  139.4505   76.1183  219.1834 H   0  0  0  0  0  0  0  0  0  0  0  0
  142.0520   78.7090  218.9010 C   0  0  0  0  0  0  0  0  0  0  0  0
  142.6106   79.5829  219.2675 H   0  0  0  0  0  0  0  0  0  0  0  0
  140.9840   78.9535  218.8033 H   0  0  0  0  0  0  0  0  0  0  0  0
  142.5920   78.3070  217.5310 C   0  0  0  0  0  0  0  0  0  0  0  0
  143.4683   77.6546  217.6593 H   0  0  0  0  0  0  0  0  0  0  0  0
  141.8121   77.7679  216.9732 H   0  0  0  0  0  0  0  0  0  0  0  0
  142.8847   79.2088  216.9732 H   0  0  0  0  0  0  0  0  0  0  0  0
  1  2  1  0
  2  3  1  0
  3  4  2  0
  4  5  1  0
  5  6  2  0
  6  7  1  0
  6  8  1  0
  8  9  1  0
  8 10  2  0
 10 11  1  0
 10 12  1  0
 12 13  1  0
 12 14  2  0
 14 15  1  0
  4 16  1  0
 16 17  1  0
 16 18  1  0
 18 19  1  0
 18 20  1  0
 18 21  1  0
 21 22  1  0
 21 23  1  0
 21 24  1  0
 24 25  1  0
 25 26  2  0
 25 27  1  0
 27 28  1  6
 27 29  1  0
 29 30  1  0
 29 31  1  0
 31 32  1  0
 31 33  1  0
 31 34  1  0
 34 35  2  0
 35 36  1  0
 35 37  1  0
 37 38  1  0
 37 39  2  0
 39 40  1  0
 39 41  1  0
 41 42  1  0
 41 43  2  0
 43 44  1  0
 44 45  1  0
 44 46  1  0
 27 47  1  0
 47 48  1  0
 47 49  1  0
 47 50  1  0
 24 51  1  0
 51 52  1  0
 51 53  1  0
 51 54  1  0
 54 55  1  0
 54 56  1  0
  3 57  1  0
 57 58  1  0
 57 59  1  0
 57 60  1  0
 60 61  1  0
 60 62  1  0
 60 63  1  0
 14  5  1  0
 54 16  1  0
 44 29  1  0
 43 34  1  0
M  CHG  2   4   1  47   1
M  END
>  <UniqueID>  (37) 
44

>  <SMILES>  (37) 
CC/C(O)=[N+](\c1ccccc1)C1CCN(C(=O)[C@@H]([NH3+])C2Cc3ccccc3C2)CC1

>  <Energy>  (37) 
90.78915616593795

>  <Genealogy>  (37) 
CCC(=O)[NH+](c1ccccc1)C1CCN(C(=O)[C@@H]([NH3+])C2Cc3ccccc3C2)CC1 (protonated)
CCC(O)=[N+](c1ccccc1)C1CCN(C(=O)[C@@H]([NH3+])C2Cc3ccccc3C2)CC1 (tautomer)
CC/C(O)=[N+](\c1ccccc1)C1CCN(C(=O)[C@@H]([NH3+])C2Cc3ccccc3C2)CC1 (cis-trans isomerization)
CC/C(O)=[N+](\c1ccccc1)C1CCN(C(=O)[C@@H]([NH3+])C2Cc3ccccc3C2)CC1 (3D coordinates assigned)
CC/C(O)=[N+](\c1ccccc1)C1CCN(C(=O)[C@@H]([NH3+])C2Cc3ccccc3C2)CC1 (nonaromatic ring conformer: 90.78915616593795 kcal/mol)

>  <smiles>  (37) 
CCC(=O)N(c1ccccc1)C1CCN(C(=O)[C@@H](N)C2Cc3ccccc3C2)CC1

>  <score_type>  (37) 
oracle

>  <origin>  (37) 
autodockgpu

>  <m_score__min__energy>  (37) 
-8.1699999999999999

>  <m_primary>  (37) 
energy

>  <meeko>  (37) 
{"free_energy": -7.24, "intermolecular_energy": -9.63, "internal_energy": -1.57, "cluster_size": 5, "cluster_id": 1, "rank_in_cluster": 3}

>  <energy>  (37) 
-6.83

>  <cluster_rmsd>  (37) 
0.0

>  <rmsd>  (37) 
270.89

>  <cluster>  (37) 
5

$$$$
MCZRVQBLWAUNOI-QBLXWANANA-P
     RDKit          3D

 63 66  0  0  0  0  0  0  0  0999 V2000
  146.3730   74.2990  217.7960 H   0  0  0  0  0  0  0  0  0  0  0  0
  146.2880   73.3600  218.1630 O   0  0  0  0  0  0  0  0  0  0  0  0
  145.7300   73.1170  219.4230 C   0  0  0  0  0  0  0  0  0  0  0  0
  144.6630   72.3510  219.5320 N   0  0  0  0  0  0  0  0  0  0  0  0
  144.7740   70.9190  219.3960 C   0  0  0  0  0  0  0  0  0  0  0  0
  143.9000   70.0730  220.0980 C   0  0  0  0  0  0  0  0  0  0  0  0
  143.1317   70.5030  220.7574 H   0  0  0  0  0  0  0  0  0  0  0  0
  144.0040   68.6870  219.9610 C   0  0  0  0  0  0  0  0  0  0  0  0
  143.3116   68.0279  220.5053 H   0  0  0  0  0  0  0  0  0  0  0  0
  144.9880   68.1350  219.1320 C   0  0  0  0  0  0  0  0  0  0  0  0
  145.0734   67.0430  219.0307 H   0  0  0  0  0  0  0  0  0  0  0  0
  145.8620   68.9730  218.4330 C   0  0  0  0  0  0  0  0  0  0  0  0
  146.6320   68.5389  217.7782 H   0  0  0  0  0  0  0  0  0  0  0  0
  145.7600   70.3610  218.5640 C   0  0  0  0  0  0  0  0  0  0  0  0
  146.4519   71.0171  218.0155 H   0  0  0  0  0  0  0  0  0  0  0  0
  143.3230   72.9650  219.7120 C   0  0  0  0  0  0  0  0  0  0  0  0
  143.1066   72.9239  220.7897 H   0  0  0  0  0  0  0  0  0  0  0  0
  143.3300   74.4330  219.2360 C   0  0  0  0  0  0  0  0  0  0  0  0
  143.9910   75.0123  219.8974 H   0  0  0  0  0  0  0  0  0  0  0  0
  143.6825   74.4381  218.1940 H   0  0  0  0  0  0  0  0  0  0  0  0
  141.9280   75.0820  219.2510 C   0  0  0  0  0  0  0  0  0  0  0  0
  141.9594   75.9854  219.8778 H   0  0  0  0  0  0  0  0  0  0  0  0
  141.6532   75.3319  218.2156 H   0  0  0  0  0  0  0  0  0  0  0  0
  140.9140   74.1650  219.7870 N   0  0  0  0  0  0  0  0  0  0  0  0
  140.3420   74.3950  221.0850 C   0  0  0  0  0  0  0  0  0  0  0  0
  140.7680   73.7230  222.0640 O   0  0  0  0  0  0  0  0  0  0  0  0
  139.2340   75.4090  221.3250 C   0  0  2  0  0  0  0  0  0  0  0  0
  138.4480   75.1435  220.6027 H   0  0  0  0  0  0  0  0  0  0  0  0
  139.6010   76.8840  220.9710 C   0  0  0  0  0  0  0  0  0  0  0  0
  139.3861   76.9204  219.8928 H   0  0  0  0  0  0  0  0  0  0  0  0
  141.0890   77.2190  221.2590 C   0  0  0  0  0  0  0  0  0  0  0  0
  141.5939   76.3699  221.7428 H   0  0  0  0  0  0  0  0  0  0  0  0
  141.6590   77.4311  220.3425 H   0  0  0  0  0  0  0  0  0  0  0  0
  141.0270   78.3820  222.1710 C   0  0  0  0  0  0  0  0  0  0  0  0
  142.1080   79.0310  222.7750 C   0  0  0  0  0  0  0  0  0  0  0  0
  143.1381   78.6907  222.5929 H   0  0  0  0  0  0  0  0  0  0  0  0
  141.8550   80.1260  223.6190 C   0  0  0  0  0  0  0  0  0  0  0  0
  142.6922   80.6520  224.1010 H   0  0  0  0  0  0  0  0  0  0  0  0
  140.5340   80.5510  223.8490 C   0  0  0  0  0  0  0  0  0  0  0  0
  140.3398   81.4055  224.5139 H   0  0  0  0  0  0  0  0  0  0  0  0
  139.4630   79.8860  223.2310 C   0  0  0  0  0  0  0  0  0  0  0  0
  138.4267   80.2128  223.4024 H   0  0  0  0  0  0  0  0  0  0  0  0
  139.7380   78.8010  222.3940 C   0  0  0  0  0  0  0  0  0  0  0  0
  138.7460   77.9710  221.6770 C   0  0  0  0  0  0  0  0  0  0  0  0
  138.0372   77.5130  222.3825 H   0  0  0  0  0  0  0  0  0  0  0  0
  138.1386   78.5554  220.9702 H   0  0  0  0  0  0  0  0  0  0  0  0
  138.6770   75.2900  222.6800 N   0  0  0  0  0  0  0  0  0  0  0  0
  138.4370   76.2390  223.0550 H   0  0  0  0  0  0  0  0  0  0  0  0
  137.8200   74.6940  222.6980 H   0  0  0  0  0  0  0  0  0  0  0  0
  139.3910   74.8660  223.3170 H   0  0  0  0  0  0  0  0  0  0  0  0
  140.8090   72.8270  219.1920 C   0  0  0  0  0  0  0  0  0  0  0  0
  140.2132   72.1858  219.8583 H   0  0  0  0  0  0  0  0  0  0  0  0
  140.3281   72.9251  218.2076 H   0  0  0  0  0  0  0  0  0  0  0  0
  142.1970   72.1850  218.9890 C   0  0  0  0  0  0  0  0  0  0  0  0
  142.1713   71.1578  219.3816 H   0  0  0  0  0  0  0  0  0  0  0  0
  142.4182   72.2009  217.9116 H   0  0  0  0  0  0  0  0  0  0  0  0
  146.3930   73.7800  220.6150 C   0  0  0  0  0  0  0  0  0  0  0  0
  146.0722   74.8308  220.6690 H   0  0  0  0  0  0  0  0  0  0  0  0
  147.4845   73.7213  220.4918 H   0  0  0  0  0  0  0  0  0  0  0  0
  146.0050   73.0700  221.9090 C   0  0  0  0  0  0  0  0  0  0  0  0
  146.3335   73.6711  222.7697 H   0  0  0  0  0  0  0  0  0  0  0  0
  144.9128   72.9443  221.9450 H   0  0  0  0  0  0  0  0  0  0  0  0
  146.4891   72.0829  221.9450 H   0  0  0  0  0  0  0  0  0  0  0  0
  1  2  1  0
  2  3  1  0
  3  4  2  0
  4  5  1  0
  5  6  2  0
  6  7  1  0
  6  8  1  0
  8  9  1  0
  8 10  2  0
 10 11  1  0
 10 12  1  0
 12 13  1  0
 12 14  2  0
 14 15  1  0
  4 16  1  0
 16 17  1  0
 16 18  1  0
 18 19  1  0
 18 20  1  0
 18 21  1  0
 21 22  1  0
 21 23  1  0
 21 24  1  0
 24 25  1  0
 25 26  2  0
 25 27  1  0
 27 28  1  6
 27 29  1  0
 29 30  1  0
 29 31  1  0
 31 32  1  0
 31 33  1  0
 31 34  1  0
 34 35  2  0
 35 36  1  0
 35 37  1  0
 37 38  1  0
 37 39  2  0
 39 40  1  0
 39 41  1  0
 41 42  1  0
 41 43  2  0
 43 44  1  0
 44 45  1  0
 44 46  1  0
 27 47  1  0
 47 48  1  0
 47 49  1  0
 47 50  1  0
 24 51  1  0
 51 52  1  0
 51 53  1  0
 51 54  1  0
 54 55  1  0
 54 56  1  0
  3 57  1  0
 57 58  1  0
 57 59  1  0
 57 60  1  0
 60 61  1  0
 60 62  1  0
 60 63  1  0
 14  5  1  0
 54 16  1  0
 44 29  1  0
 43 34  1  0
M  CHG  2   4   1  47   1
M  END
>  <UniqueID>  (38) 
44

>  <SMILES>  (38) 
CC/C(O)=[N+](\c1ccccc1)C1CCN(C(=O)[C@@H]([NH3+])C2Cc3ccccc3C2)CC1

>  <Energy>  (38) 
90.78915616593795

>  <Genealogy>  (38) 
CCC(=O)[NH+](c1ccccc1)C1CCN(C(=O)[C@@H]([NH3+])C2Cc3ccccc3C2)CC1 (protonated)
CCC(O)=[N+](c1ccccc1)C1CCN(C(=O)[C@@H]([NH3+])C2Cc3ccccc3C2)CC1 (tautomer)
CC/C(O)=[N+](\c1ccccc1)C1CCN(C(=O)[C@@H]([NH3+])C2Cc3ccccc3C2)CC1 (cis-trans isomerization)
CC/C(O)=[N+](\c1ccccc1)C1CCN(C(=O)[C@@H]([NH3+])C2Cc3ccccc3C2)CC1 (3D coordinates assigned)
CC/C(O)=[N+](\c1ccccc1)C1CCN(C(=O)[C@@H]([NH3+])C2Cc3ccccc3C2)CC1 (nonaromatic ring conformer: 90.78915616593795 kcal/mol)

>  <smiles>  (38) 
CCC(=O)N(c1ccccc1)C1CCN(C(=O)[C@@H](N)C2Cc3ccccc3C2)CC1

>  <score_type>  (38) 
oracle

>  <origin>  (38) 
autodockgpu

>  <m_score__min__energy>  (38) 
-8.1699999999999999

>  <m_primary>  (38) 
energy

>  <meeko>  (38) 
{"free_energy": -7.87, "intermolecular_energy": -10.25, "internal_energy": -1.63, "cluster_size": 5, "cluster_id": 2, "rank_in_cluster": 2}

>  <energy>  (38) 
-6.82

>  <cluster_rmsd>  (38) 
0.32

>  <rmsd>  (38) 
270.9

>  <cluster>  (38) 
5

$$$$
MCZRVQBLWAUNOI-QBLXWANANA-P
     RDKit          3D

 63 66  0  0  0  0  0  0  0  0999 V2000
  136.9030   72.8780  224.2260 H   0  0  0  0  0  0  0  0  0  0  0  0
  136.6910   71.9680  223.8370 O   0  0  0  0  0  0  0  0  0  0  0  0
  137.6980   71.1410  223.3280 C   0  0  0  0  0  0  0  0  0  0  0  0
  138.9620   71.5000  223.4410 N   0  0  0  0  0  0  0  0  0  0  0  0
  139.7630   71.0190  224.5390 C   0  0  0  0  0  0  0  0  0  0  0  0
  140.6770   71.8760  225.1740 C   0  0  0  0  0  0  0  0  0  0  0  0
  140.7849   72.9152  224.8299 H   0  0  0  0  0  0  0  0  0  0  0  0
  141.4490   71.4120  226.2410 C   0  0  0  0  0  0  0  0  0  0  0  0
  142.1581   72.0884  226.7407 H   0  0  0  0  0  0  0  0  0  0  0  0
  141.3220   70.0870  226.6760 C   0  0  0  0  0  0  0  0  0  0  0  0
  141.9353   69.7213  227.5127 H   0  0  0  0  0  0  0  0  0  0  0  0
  140.4150   69.2290  226.0460 C   0  0  0  0  0  0  0  0  0  0  0  0
  140.3126   68.1893  226.3902 H   0  0  0  0  0  0  0  0  0  0  0  0
  139.6380   69.6910  224.9790 C   0  0  0  0  0  0  0  0  0  0  0  0
  138.9276   69.0131  224.4834 H   0  0  0  0  0  0  0  0  0  0  0  0
  139.5470   72.4710  222.4810 C   0  0  0  0  0  0  0  0  0  0  0  0
  140.0383   73.2465  223.0870 H   0  0  0  0  0  0  0  0  0  0  0  0
  140.5880   71.7810  221.5750 C   0  0  0  0  0  0  0  0  0  0  0  0
  141.4370   71.4620  222.1974 H   0  0  0  0  0  0  0  0  0  0  0  0
  140.0883   70.9286  221.0916 H   0  0  0  0  0  0  0  0  0  0  0  0
  141.1190   72.7000  220.4530 C   0  0  0  0  0  0  0  0  0  0  0  0
  142.2145   72.7614  220.5306 H   0  0  0  0  0  0  0  0  0  0  0  0
  140.8167   72.2717  219.4859 H   0  0  0  0  0  0  0  0  0  0  0  0
  140.5580   74.0530  220.5510 N   0  0  0  0  0  0  0  0  0  0  0  0
  141.3820   75.1510  220.9760 C   0  0  0  0  0  0  0  0  0  0  0  0
  141.2930   75.5510  222.1680 O   0  0  0  0  0  0  0  0  0  0  0  0
  142.3500   75.8590  220.0400 C   0  0  2  0  0  0  0  0  0  0  0  0
  141.8537   75.8452  219.0584 H   0  0  0  0  0  0  0  0  0  0  0  0
  143.7000   75.1140  219.7990 C   0  0  0  0  0  0  0  0  0  0  0  0
  144.4355   75.9168  219.9558 H   0  0  0  0  0  0  0  0  0  0  0  0
  143.8120   74.5210  218.3690 C   0  0  0  0  0  0  0  0  0  0  0  0
  142.8745   74.6651  217.8119 H   0  0  0  0  0  0  0  0  0  0  0  0
  144.5992   75.0044  217.7717 H   0  0  0  0  0  0  0  0  0  0  0  0
  144.0730   73.0820  218.5950 C   0  0  0  0  0  0  0  0  0  0  0  0
  144.1960   72.0900  217.6180 C   0  0  0  0  0  0  0  0  0  0  0  0
  144.1004   72.3402  216.5511 H   0  0  0  0  0  0  0  0  0  0  0  0
  144.4440   70.7670  218.0230 C   0  0  0  0  0  0  0  0  0  0  0  0
  144.5468   69.9724  217.2693 H   0  0  0  0  0  0  0  0  0  0  0  0
  144.5610   70.4570  219.3900 C   0  0  0  0  0  0  0  0  0  0  0  0
  144.7508   69.4198  219.7035 H   0  0  0  0  0  0  0  0  0  0  0  0
  144.4360   71.4690  220.3550 C   0  0  0  0  0  0  0  0  0  0  0  0
  144.5284   71.2365  221.4262 H   0  0  0  0  0  0  0  0  0  0  0  0
  144.1920   72.7770  219.9290 C   0  0  0  0  0  0  0  0  0  0  0  0
  144.0130   73.9640  220.7940 C   0  0  0  0  0  0  0  0  0  0  0  0
  143.1775   73.8148  221.4937 H   0  0  0  0  0  0  0  0  0  0  0  0
  144.8974   74.1715  221.4144 H   0  0  0  0  0  0  0  0  0  0  0  0
  142.5560   77.2600  220.4350 N   0  0  0  0  0  0  0  0  0  0  0  0
  143.5720   77.5070  220.3640 H   0  0  0  0  0  0  0  0  0  0  0  0
  142.0060   77.9170  219.8400 H   0  0  0  0  0  0  0  0  0  0  0  0
  142.2650   77.3890  221.4320 H   0  0  0  0  0  0  0  0  0  0  0  0
  139.0980   74.1920  220.6240 C   0  0  0  0  0  0  0  0  0  0  0  0
  138.8528   75.2106  220.9592 H   0  0  0  0  0  0  0  0  0  0  0  0
  138.6835   73.9969  219.6239 H   0  0  0  0  0  0  0  0  0  0  0  0
  138.4790   73.1780  221.6090 C   0  0  0  0  0  0  0  0  0  0  0  0
  137.7795   73.7103  222.2703 H   0  0  0  0  0  0  0  0  0  0  0  0
  137.9666   72.4059  221.0163 H   0  0  0  0  0  0  0  0  0  0  0  0
  137.2640   69.8590  222.6440 C   0  0  0  0  0  0  0  0  0  0  0  0
  136.4406   70.0809  221.9492 H   0  0  0  0  0  0  0  0  0  0  0  0
  136.9329   69.1429  223.4105 H   0  0  0  0  0  0  0  0  0  0  0  0
  138.4250   69.2450  221.8660 C   0  0  0  0  0  0  0  0  0  0  0  0
  139.1711   68.8504  222.5714 H   0  0  0  0  0  0  0  0  0  0  0  0
  138.0504   68.4271  221.2330 H   0  0  0  0  0  0  0  0  0  0  0  0
  138.8901   70.0150  221.2330 H   0  0  0  0  0  0  0  0  0  0  0  0
  1  2  1  0
  2  3  1  0
  3  4  2  0
  4  5  1  0
  5  6  2  0
  6  7  1  0
  6  8  1  0
  8  9  1  0
  8 10  2  0
 10 11  1  0
 10 12  1  0
 12 13  1  0
 12 14  2  0
 14 15  1  0
  4 16  1  0
 16 17  1  0
 16 18  1  0
 18 19  1  0
 18 20  1  0
 18 21  1  0
 21 22  1  0
 21 23  1  0
 21 24  1  0
 24 25  1  0
 25 26  2  0
 25 27  1  0
 27 28  1  6
 27 29  1  0
 29 30  1  0
 29 31  1  0
 31 32  1  0
 31 33  1  0
 31 34  1  0
 34 35  2  0
 35 36  1  0
 35 37  1  0
 37 38  1  0
 37 39  2  0
 39 40  1  0
 39 41  1  0
 41 42  1  0
 41 43  2  0
 43 44  1  0
 44 45  1  0
 44 46  1  0
 27 47  1  0
 47 48  1  0
 47 49  1  0
 47 50  1  0
 24 51  1  0
 51 52  1  0
 51 53  1  0
 51 54  1  0
 54 55  1  0
 54 56  1  0
  3 57  1  0
 57 58  1  0
 57 59  1  0
 57 60  1  0
 60 61  1  0
 60 62  1  0
 60 63  1  0
 14  5  1  0
 54 16  1  0
 44 29  1  0
 43 34  1  0
M  CHG  2   4   1  47   1
M  END
>  <UniqueID>  (39) 
44

>  <SMILES>  (39) 
CC/C(O)=[N+](\c1ccccc1)C1CCN(C(=O)[C@@H]([NH3+])C2Cc3ccccc3C2)CC1

>  <Energy>  (39) 
90.78915616593795

>  <Genealogy>  (39) 
CCC(=O)[NH+](c1ccccc1)C1CCN(C(=O)[C@@H]([NH3+])C2Cc3ccccc3C2)CC1 (protonated)
CCC(O)=[N+](c1ccccc1)C1CCN(C(=O)[C@@H]([NH3+])C2Cc3ccccc3C2)CC1 (tautomer)
CC/C(O)=[N+](\c1ccccc1)C1CCN(C(=O)[C@@H]([NH3+])C2Cc3ccccc3C2)CC1 (cis-trans isomerization)
CC/C(O)=[N+](\c1ccccc1)C1CCN(C(=O)[C@@H]([NH3+])C2Cc3ccccc3C2)CC1 (3D coordinates assigned)
CC/C(O)=[N+](\c1ccccc1)C1CCN(C(=O)[C@@H]([NH3+])C2Cc3ccccc3C2)CC1 (nonaromatic ring conformer: 90.78915616593795 kcal/mol)

>  <smiles>  (39) 
CCC(=O)N(c1ccccc1)C1CCN(C(=O)[C@@H](N)C2Cc3ccccc3C2)CC1

>  <score_type>  (39) 
oracle

>  <origin>  (39) 
autodockgpu

>  <m_score__min__energy>  (39) 
-8.1699999999999999

>  <m_primary>  (39) 
energy

>  <meeko>  (39) 
{"free_energy": -6.83, "intermolecular_energy": -9.21, "internal_energy": -2.15, "cluster_size": 4, "cluster_id": 5, "rank_in_cluster": 1}

>  <energy>  (39) 
-6.78

>  <cluster_rmsd>  (39) 
0.08

>  <rmsd>  (39) 
270.86

>  <cluster>  (39) 
5

$$$$
MCZRVQBLWAUNOI-QBLXWANANA-P
     RDKit          3D

 63 66  0  0  0  0  0  0  0  0999 V2000
  136.9160   72.8990  224.2600 H   0  0  0  0  0  0  0  0  0  0  0  0
  136.6820   72.0180  223.8230 O   0  0  0  0  0  0  0  0  0  0  0  0
  137.6720   71.1730  223.3080 C   0  0  0  0  0  0  0  0  0  0  0  0
  138.9410   71.5150  223.4060 N   0  0  0  0  0  0  0  0  0  0  0  0
  139.7550   71.0080  224.4840 C   0  0  0  0  0  0  0  0  0  0  0  0
  139.6180   69.6750  224.9050 C   0  0  0  0  0  0  0  0  0  0  0  0
  138.8856   69.0168  224.4147 H   0  0  0  0  0  0  0  0  0  0  0  0
  140.4100   69.1840  225.9450 C   0  0  0  0  0  0  0  0  0  0  0  0
  140.3067   68.1370  226.2660 H   0  0  0  0  0  0  0  0  0  0  0  0
  141.3350   70.0210  226.5800 C   0  0  0  0  0  0  0  0  0  0  0  0
  141.9528   69.6340  227.4038 H   0  0  0  0  0  0  0  0  0  0  0  0
  141.4730   71.3500  226.1660 C   0  0  0  0  0  0  0  0  0  0  0  0
  142.2029   72.0067  226.6621 H   0  0  0  0  0  0  0  0  0  0  0  0
  140.6850   71.8450  225.1230 C   0  0  0  0  0  0  0  0  0  0  0  0
  140.7932   72.8916  224.8020 H   0  0  0  0  0  0  0  0  0  0  0  0
  139.5220   72.4940  222.4510 C   0  0  0  0  0  0  0  0  0  0  0  0
  140.0202   73.2626  223.0601 H   0  0  0  0  0  0  0  0  0  0  0  0
  140.5540   71.8080  221.5310 C   0  0  0  0  0  0  0  0  0  0  0  0
  141.4063   71.4800  222.1441 H   0  0  0  0  0  0  0  0  0  0  0  0
  140.0479   70.9617  221.0436 H   0  0  0  0  0  0  0  0  0  0  0  0
  141.0800   72.7360  220.4140 C   0  0  0  0  0  0  0  0  0  0  0  0
  142.1764   72.7923  220.4836 H   0  0  0  0  0  0  0  0  0  0  0  0
  140.7684   72.3186  219.4451 H   0  0  0  0  0  0  0  0  0  0  0  0
  140.5250   74.0910  220.5300 N   0  0  0  0  0  0  0  0  0  0  0  0
  141.3570   75.1810  220.9590 C   0  0  0  0  0  0  0  0  0  0  0  0
  141.2790   75.5690  222.1560 O   0  0  0  0  0  0  0  0  0  0  0  0
  142.3200   75.8950  220.0230 C   0  0  2  0  0  0  0  0  0  0  0  0
  141.8098   75.9062  219.0485 H   0  0  0  0  0  0  0  0  0  0  0  0
  143.6580   75.1380  219.7500 C   0  0  0  0  0  0  0  0  0  0  0  0
  144.4001   75.9448  219.8411 H   0  0  0  0  0  0  0  0  0  0  0  0
  143.7030   74.4880  218.3400 C   0  0  0  0  0  0  0  0  0  0  0  0
  142.7404   74.6109  217.8221 H   0  0  0  0  0  0  0  0  0  0  0  0
  144.4606   74.9460  217.6871 H   0  0  0  0  0  0  0  0  0  0  0  0
  143.9750   73.0590  218.6120 C   0  0  0  0  0  0  0  0  0  0  0  0
  144.0520   72.0290  217.6700 C   0  0  0  0  0  0  0  0  0  0  0  0
  143.9064   72.2367  216.5996 H   0  0  0  0  0  0  0  0  0  0  0  0
  144.3190   70.7230  218.1160 C   0  0  0  0  0  0  0  0  0  0  0  0
  144.3873   69.8989  217.3906 H   0  0  0  0  0  0  0  0  0  0  0  0
  144.4990   70.4670  219.4870 C   0  0  0  0  0  0  0  0  0  0  0  0
  144.7028   69.4427  219.8322 H   0  0  0  0  0  0  0  0  0  0  0  0
  144.4190   71.5170  220.4160 C   0  0  0  0  0  0  0  0  0  0  0  0
  144.5607   71.3269  221.4902 H   0  0  0  0  0  0  0  0  0  0  0  0
  144.1560   72.8080  219.9500 C   0  0  0  0  0  0  0  0  0  0  0  0
  144.0170   74.0280  220.7740 C   0  0  0  0  0  0  0  0  0  0  0  0
  143.2148   73.9080  221.5170 H   0  0  0  0  0  0  0  0  0  0  0  0
  144.9291   74.2586  221.3439 H   0  0  0  0  0  0  0  0  0  0  0  0
  142.5490   77.2850  220.4410 N   0  0  0  0  0  0  0  0  0  0  0  0
  143.5700   77.5140  220.3840 H   0  0  0  0  0  0  0  0  0  0  0  0
  142.0180   77.9620  219.8490 H   0  0  0  0  0  0  0  0  0  0  0  0
  142.2490   77.4060  221.4360 H   0  0  0  0  0  0  0  0  0  0  0  0
  139.0660   74.2340  220.6160 C   0  0  0  0  0  0  0  0  0  0  0  0
  138.8269   75.2500  220.9633 H   0  0  0  0  0  0  0  0  0  0  0  0
  138.6433   74.0500  219.6173 H   0  0  0  0  0  0  0  0  0  0  0  0
  138.4510   73.2130  221.5950 C   0  0  0  0  0  0  0  0  0  0  0  0
  137.7585   73.7413  222.2669 H   0  0  0  0  0  0  0  0  0  0  0  0
  137.9312   72.4488  220.9985 H   0  0  0  0  0  0  0  0  0  0  0  0
  137.2130   69.8930  222.6380 C   0  0  0  0  0  0  0  0  0  0  0  0
  136.3429   70.1104  222.0010 H   0  0  0  0  0  0  0  0  0  0  0  0
  136.9429   69.1631  223.4154 H   0  0  0  0  0  0  0  0  0  0  0  0
  138.3290   69.3060  221.7790 C   0  0  0  0  0  0  0  0  0  0  0  0
  139.1139   68.8931  222.4297 H   0  0  0  0  0  0  0  0  0  0  0  0
  137.9207   68.5059  221.1440 H   0  0  0  0  0  0  0  0  0  0  0  0
  138.7569   70.0957  221.1440 H   0  0  0  0  0  0  0  0  0  0  0  0
  1  2  1  0
  2  3  1  0
  3  4  2  0
  4  5  1  0
  5  6  2  0
  6  7  1  0
  6  8  1  0
  8  9  1  0
  8 10  2  0
 10 11  1  0
 10 12  1  0
 12 13  1  0
 12 14  2  0
 14 15  1  0
  4 16  1  0
 16 17  1  0
 16 18  1  0
 18 19  1  0
 18 20  1  0
 18 21  1  0
 21 22  1  0
 21 23  1  0
 21 24  1  0
 24 25  1  0
 25 26  2  0
 25 27  1  0
 27 28  1  6
 27 29  1  0
 29 30  1  0
 29 31  1  0
 31 32  1  0
 31 33  1  0
 31 34  1  0
 34 35  2  0
 35 36  1  0
 35 37  1  0
 37 38  1  0
 37 39  2  0
 39 40  1  0
 39 41  1  0
 41 42  1  0
 41 43  2  0
 43 44  1  0
 44 45  1  0
 44 46  1  0
 27 47  1  0
 47 48  1  0
 47 49  1  0
 47 50  1  0
 24 51  1  0
 51 52  1  0
 51 53  1  0
 51 54  1  0
 54 55  1  0
 54 56  1  0
  3 57  1  0
 57 58  1  0
 57 59  1  0
 57 60  1  0
 60 61  1  0
 60 62  1  0
 60 63  1  0
 14  5  1  0
 54 16  1  0
 44 29  1  0
 43 34  1  0
M  CHG  2   4   1  47   1
M  END
>  <UniqueID>  (40) 
44

>  <SMILES>  (40) 
CC/C(O)=[N+](\c1ccccc1)C1CCN(C(=O)[C@@H]([NH3+])C2Cc3ccccc3C2)CC1

>  <Energy>  (40) 
90.78915616593795

>  <Genealogy>  (40) 
CCC(=O)[NH+](c1ccccc1)C1CCN(C(=O)[C@@H]([NH3+])C2Cc3ccccc3C2)CC1 (protonated)
CCC(O)=[N+](c1ccccc1)C1CCN(C(=O)[C@@H]([NH3+])C2Cc3ccccc3C2)CC1 (tautomer)
CC/C(O)=[N+](\c1ccccc1)C1CCN(C(=O)[C@@H]([NH3+])C2Cc3ccccc3C2)CC1 (cis-trans isomerization)
CC/C(O)=[N+](\c1ccccc1)C1CCN(C(=O)[C@@H]([NH3+])C2Cc3ccccc3C2)CC1 (3D coordinates assigned)
CC/C(O)=[N+](\c1ccccc1)C1CCN(C(=O)[C@@H]([NH3+])C2Cc3ccccc3C2)CC1 (nonaromatic ring conformer: 90.78915616593795 kcal/mol)

>  <smiles>  (40) 
CCC(=O)N(c1ccccc1)C1CCN(C(=O)[C@@H](N)C2Cc3ccccc3C2)CC1

>  <score_type>  (40) 
oracle

>  <origin>  (40) 
autodockgpu

>  <m_score__min__energy>  (40) 
-8.1699999999999999

>  <m_primary>  (40) 
energy

>  <meeko>  (40) 
{"free_energy": -6.78, "intermolecular_energy": -9.16, "internal_energy": -2.19, "cluster_size": 4, "cluster_id": 5, "rank_in_cluster": 3}

>  <energy>  (40) 
-6.65

>  <cluster_rmsd>  (40) 
0.32

>  <rmsd>  (40) 
270.84

>  <cluster>  (40) 
5

$$$$
MCZRVQBLWAUNOI-QBLXWANANA-P
     RDKit          3D

 63 66  0  0  0  0  0  0  0  0999 V2000
  138.6320   67.9190  222.0510 H   0  0  0  0  0  0  0  0  0  0  0  0
  139.1970   68.7560  222.1160 O   0  0  0  0  0  0  0  0  0  0  0  0
  138.7330   69.9000  222.7740 C   0  0  0  0  0  0  0  0  0  0  0  0
  139.5920   70.8060  223.1980 N   0  0  0  0  0  0  0  0  0  0  0  0
  140.0900   70.7650  224.5510 C   0  0  0  0  0  0  0  0  0  0  0  0
  140.6980   71.8990  225.1140 C   0  0  0  0  0  0  0  0  0  0  0  0
  140.7989   72.8196  224.5204 H   0  0  0  0  0  0  0  0  0  0  0  0
  141.1750   71.8600  226.4270 C   0  0  0  0  0  0  0  0  0  0  0  0
  141.6431   72.7524  226.8679 H   0  0  0  0  0  0  0  0  0  0  0  0
  141.0580   70.6870  227.1820 C   0  0  0  0  0  0  0  0  0  0  0  0
  141.4402   70.6558  228.2130 H   0  0  0  0  0  0  0  0  0  0  0  0
  140.4550   69.5550  226.6250 C   0  0  0  0  0  0  0  0  0  0  0  0
  140.3590   68.6351  227.2205 H   0  0  0  0  0  0  0  0  0  0  0  0
  139.9740   69.5900  225.3130 C   0  0  0  0  0  0  0  0  0  0  0  0
  139.5040   68.6964  224.8764 H   0  0  0  0  0  0  0  0  0  0  0  0
  139.9880   71.9280  222.3080 C   0  0  0  0  0  0  0  0  0  0  0  0
  140.3958   72.7127  222.9621 H   0  0  0  0  0  0  0  0  0  0  0  0
  141.0690   71.4710  221.3060 C   0  0  0  0  0  0  0  0  0  0  0  0
  141.9838   71.2256  221.8655 H   0  0  0  0  0  0  0  0  0  0  0  0
  140.6696   70.5990  220.7673 H   0  0  0  0  0  0  0  0  0  0  0  0
  141.4110   72.5470  220.2520 C   0  0  0  0  0  0  0  0  0  0  0  0
  142.4899   72.7572  220.2938 H   0  0  0  0  0  0  0  0  0  0  0  0
  141.1233   72.1624  219.2624 H   0  0  0  0  0  0  0  0  0  0  0  0
  140.6730   73.7940  220.4920 N   0  0  0  0  0  0  0  0  0  0  0  0
  141.3580   74.9580  220.9820 C   0  0  0  0  0  0  0  0  0  0  0  0
  141.2740   75.2400  222.2080 O   0  0  0  0  0  0  0  0  0  0  0  0
  142.1710   75.8730  220.0790 C   0  0  2  0  0  0  0  0  0  0  0  0
  141.6346   75.8706  219.1187 H   0  0  0  0  0  0  0  0  0  0  0  0
  143.5990   75.3510  219.7240 C   0  0  0  0  0  0  0  0  0  0  0  0
  144.2124   76.2548  219.8542 H   0  0  0  0  0  0  0  0  0  0  0  0
  143.6970   74.8100  218.2720 C   0  0  0  0  0  0  0  0  0  0  0  0
  142.7107   74.8168  217.7851 H   0  0  0  0  0  0  0  0  0  0  0  0
  144.3546   75.4213  217.6365 H   0  0  0  0  0  0  0  0  0  0  0  0
  144.1920   73.4260  218.4370 C   0  0  0  0  0  0  0  0  0  0  0  0
  144.3950   72.4840  217.4240 C   0  0  0  0  0  0  0  0  0  0  0  0
  144.1847   72.7363  216.3742 H   0  0  0  0  0  0  0  0  0  0  0  0
  144.8730   71.2080  217.7720 C   0  0  0  0  0  0  0  0  0  0  0  0
  145.0431   70.4537  216.9896 H   0  0  0  0  0  0  0  0  0  0  0  0
  145.1340   70.8940  219.1170 C   0  0  0  0  0  0  0  0  0  0  0  0
  145.5029   69.8930  219.3852 H   0  0  0  0  0  0  0  0  0  0  0  0
  144.9250   71.8550  220.1190 C   0  0  0  0  0  0  0  0  0  0  0  0
  145.1294   71.6189  221.1738 H   0  0  0  0  0  0  0  0  0  0  0  0
  144.4520   73.1180  219.7500 C   0  0  0  0  0  0  0  0  0  0  0  0
  144.1550   74.2450  220.6600 C   0  0  0  0  0  0  0  0  0  0  0  0
  143.4044   73.9542  221.4097 H   0  0  0  0  0  0  0  0  0  0  0  0
  145.0389   74.5754  221.2253 H   0  0  0  0  0  0  0  0  0  0  0  0
  142.1980   77.2510  220.5890 N   0  0  0  0  0  0  0  0  0  0  0  0
  142.0600   77.2520  221.6280 H   0  0  0  0  0  0  0  0  0  0  0  0
  143.0980   77.7300  220.3680 H   0  0  0  0  0  0  0  0  0  0  0  0
  141.4150   77.7980  220.1620 H   0  0  0  0  0  0  0  0  0  0  0  0
  139.2140   73.7170  220.6320 C   0  0  0  0  0  0  0  0  0  0  0  0
  138.8471   74.6585  221.0668 H   0  0  0  0  0  0  0  0  0  0  0  0
  138.7814   73.5495  219.6346 H   0  0  0  0  0  0  0  0  0  0  0  0
  138.7910   72.5460  221.5440 C   0  0  0  0  0  0  0  0  0  0  0  0
  138.0581   72.9158  222.2761 H   0  0  0  0  0  0  0  0  0  0  0  0
  138.3618   71.7614  220.9036 H   0  0  0  0  0  0  0  0  0  0  0  0
  137.2360   70.0240  222.9800 C   0  0  0  0  0  0  0  0  0  0  0  0
  136.7143   69.4926  222.1704 H   0  0  0  0  0  0  0  0  0  0  0  0
  136.9639   71.0898  222.9724 H   0  0  0  0  0  0  0  0  0  0  0  0
  136.8270   69.4210  224.3210 C   0  0  0  0  0  0  0  0  0  0  0  0
  137.2403   70.0303  225.1383 H   0  0  0  0  0  0  0  0  0  0  0  0
  135.7297   69.4032  224.3956 H   0  0  0  0  0  0  0  0  0  0  0  0
  137.2163   68.3949  224.3956 H   0  0  0  0  0  0  0  0  0  0  0  0
  1  2  1  0
  2  3  1  0
  3  4  2  0
  4  5  1  0
  5  6  2  0
  6  7  1  0
  6  8  1  0
  8  9  1  0
  8 10  2  0
 10 11  1  0
 10 12  1  0
 12 13  1  0
 12 14  2  0
 14 15  1  0
  4 16  1  0
 16 17  1  0
 16 18  1  0
 18 19  1  0
 18 20  1  0
 18 21  1  0
 21 22  1  0
 21 23  1  0
 21 24  1  0
 24 25  1  0
 25 26  2  0
 25 27  1  0
 27 28  1  6
 27 29  1  0
 29 30  1  0
 29 31  1  0
 31 32  1  0
 31 33  1  0
 31 34  1  0
 34 35  2  0
 35 36  1  0
 35 37  1  0
 37 38  1  0
 37 39  2  0
 39 40  1  0
 39 41  1  0
 41 42  1  0
 41 43  2  0
 43 44  1  0
 44 45  1  0
 44 46  1  0
 27 47  1  0
 47 48  1  0
 47 49  1  0
 47 50  1  0
 24 51  1  0
 51 52  1  0
 51 53  1  0
 51 54  1  0
 54 55  1  0
 54 56  1  0
  3 57  1  0
 57 58  1  0
 57 59  1  0
 57 60  1  0
 60 61  1  0
 60 62  1  0
 60 63  1  0
 14  5  1  0
 54 16  1  0
 44 29  1  0
 43 34  1  0
M  CHG  2   4   1  47   1
M  END
>  <UniqueID>  (41) 
45

>  <SMILES>  (41) 
CC/C(O)=[N+](\c1ccccc1)C1CCN(C(=O)[C@@H]([NH3+])C2Cc3ccccc3C2)CC1

>  <Energy>  (41) 
93.19904003580245

>  <Genealogy>  (41) 
CCC(=O)[NH+](c1ccccc1)C1CCN(C(=O)[C@@H]([NH3+])C2Cc3ccccc3C2)CC1 (protonated)
CCC(O)=[N+](c1ccccc1)C1CCN(C(=O)[C@@H]([NH3+])C2Cc3ccccc3C2)CC1 (tautomer)
CC/C(O)=[N+](\c1ccccc1)C1CCN(C(=O)[C@@H]([NH3+])C2Cc3ccccc3C2)CC1 (cis-trans isomerization)
CC/C(O)=[N+](\c1ccccc1)C1CCN(C(=O)[C@@H]([NH3+])C2Cc3ccccc3C2)CC1 (3D coordinates assigned)
CC/C(O)=[N+](\c1ccccc1)C1CCN(C(=O)[C@@H]([NH3+])C2Cc3ccccc3C2)CC1 (nonaromatic ring conformer: 93.19904003580245 kcal/mol)

>  <smiles>  (41) 
CCC(=O)N(c1ccccc1)C1CCN(C(=O)[C@@H](N)C2Cc3ccccc3C2)CC1

>  <score_type>  (41) 
oracle

>  <origin>  (41) 
autodockgpu

>  <m_score__min__energy>  (41) 
-8.1699999999999999

>  <m_primary>  (41) 
energy

>  <meeko>  (41) 
{"free_energy": -6.51, "intermolecular_energy": -8.89, "internal_energy": -2.19, "cluster_size": 5, "cluster_id": 3, "rank_in_cluster": 4}

>  <energy>  (41) 
-8.17

>  <cluster_rmsd>  (41) 
0.0

>  <rmsd>  (41) 
271.53

>  <cluster>  (41) 
1

$$$$
MCZRVQBLWAUNOI-QBLXWANANA-P
     RDKit          3D

 63 66  0  0  0  0  0  0  0  0999 V2000
  144.0710   77.2870  219.9540 H   0  0  0  0  0  0  0  0  0  0  0  0
  143.3030   77.1590  219.3070 O   0  0  0  0  0  0  0  0  0  0  0  0
  142.1270   77.9110  219.4120 C   0  0  0  0  0  0  0  0  0  0  0  0
  141.3850   77.8170  220.4980 N   0  0  0  0  0  0  0  0  0  0  0  0
  141.6000   78.7110  221.6100 C   0  0  0  0  0  0  0  0  0  0  0  0
  141.9320   80.0560  221.3800 C   0  0  0  0  0  0  0  0  0  0  0  0
  142.0324   80.4285  220.3499 H   0  0  0  0  0  0  0  0  0  0  0  0
  142.1350   80.9220  222.4580 C   0  0  0  0  0  0  0  0  0  0  0  0
  142.3880   81.9767  222.2747 H   0  0  0  0  0  0  0  0  0  0  0  0
  142.0170   80.4500  223.7700 C   0  0  0  0  0  0  0  0  0  0  0  0
  142.1830   81.1319  224.6170 H   0  0  0  0  0  0  0  0  0  0  0  0
  141.6880   79.1110  224.0040 C   0  0  0  0  0  0  0  0  0  0  0  0
  141.5919   78.7415  225.0356 H   0  0  0  0  0  0  0  0  0  0  0  0
  141.4810   78.2410  222.9290 C   0  0  0  0  0  0  0  0  0  0  0  0
  141.2248   77.1877  223.1160 H   0  0  0  0  0  0  0  0  0  0  0  0
  140.3760   76.7340  220.6170 C   0  0  0  0  0  0  0  0  0  0  0  0
  140.7005   76.0997  221.4551 H   0  0  0  0  0  0  0  0  0  0  0  0
  138.9810   77.3210  220.9180 C   0  0  0  0  0  0  0  0  0  0  0  0
  139.0049   77.7871  221.9141 H   0  0  0  0  0  0  0  0  0  0  0  0
  138.7549   78.0509  220.1267 H   0  0  0  0  0  0  0  0  0  0  0  0
  137.8590   76.2590  220.8990 C   0  0  0  0  0  0  0  0  0  0  0  0
  137.3368   76.2739  221.8670 H   0  0  0  0  0  0  0  0  0  0  0  0
  137.1693   76.5015  220.0771 H   0  0  0  0  0  0  0  0  0  0  0  0
  138.3950   74.9110  220.6670 N   0  0  0  0  0  0  0  0  0  0  0  0
  138.4230   73.9490  221.7330 C   0  0  0  0  0  0  0  0  0  0  0  0
  139.5090   73.7490  222.3420 O   0  0  0  0  0  0  0  0  0  0  0  0
  137.1970   73.1500  222.1500 C   0  0  2  0  0  0  0  0  0  0  0  0
  136.9575   72.5245  221.2774 H   0  0  0  0  0  0  0  0  0  0  0  0
  135.9070   73.9960  222.3840 C   0  0  0  0  0  0  0  0  0  0  0  0
  135.6881   74.3631  221.3704 H   0  0  0  0  0  0  0  0  0  0  0  0
  136.1300   75.1730  223.3720 C   0  0  0  0  0  0  0  0  0  0  0  0
  137.1458   75.1425  223.7929 H   0  0  0  0  0  0  0  0  0  0  0  0
  136.0298   76.1556  222.8878 H   0  0  0  0  0  0  0  0  0  0  0  0
  135.1170   74.9540  224.4280 C   0  0  0  0  0  0  0  0  0  0  0  0
  134.9410   75.7110  225.5890 C   0  0  0  0  0  0  0  0  0  0  0  0
  135.5906   76.5736  225.7985 H   0  0  0  0  0  0  0  0  0  0  0  0
  133.9190   75.3510  226.4850 C   0  0  0  0  0  0  0  0  0  0  0  0
  133.7623   75.9366  227.4029 H   0  0  0  0  0  0  0  0  0  0  0  0
  133.0970   74.2440  226.2100 C   0  0  0  0  0  0  0  0  0  0  0  0
  132.3011   73.9626  226.9153 H   0  0  0  0  0  0  0  0  0  0  0  0
  133.2900   73.4970  225.0370 C   0  0  0  0  0  0  0  0  0  0  0  0
  132.6504   72.6306  224.8127 H   0  0  0  0  0  0  0  0  0  0  0  0
  134.3100   73.8750  224.1600 C   0  0  0  0  0  0  0  0  0  0  0  0
  134.6740   73.2030  222.8940 C   0  0  0  0  0  0  0  0  0  0  0  0
  134.9342   72.1492  223.0723 H   0  0  0  0  0  0  0  0  0  0  0  0
  133.8477   73.1953  222.1679 H   0  0  0  0  0  0  0  0  0  0  0  0
  137.4900   72.2650  223.2870 N   0  0  0  0  0  0  0  0  0  0  0  0
  137.0000   72.6110  224.1460 H   0  0  0  0  0  0  0  0  0  0  0  0
  137.1930   71.2820  223.1010 H   0  0  0  0  0  0  0  0  0  0  0  0
  138.5190   72.2730  223.4810 H   0  0  0  0  0  0  0  0  0  0  0  0
  139.2620   74.7040  219.5000 C   0  0  0  0  0  0  0  0  0  0  0  0
  139.7869   73.7437  219.6112 H   0  0  0  0  0  0  0  0  0  0  0  0
  138.6314   74.7053  218.5987 H   0  0  0  0  0  0  0  0  0  0  0  0
  140.3060   75.8320  219.3600 C   0  0  0  0  0  0  0  0  0  0  0  0
  141.2948   75.3791  219.1952 H   0  0  0  0  0  0  0  0  0  0  0  0
  140.0042   76.4636  218.5115 H   0  0  0  0  0  0  0  0  0  0  0  0
  141.7600   78.7940  218.2370 C   0  0  0  0  0  0  0  0  0  0  0  0
  140.6958   79.0638  218.3059 H   0  0  0  0  0  0  0  0  0  0  0  0
  141.9529   78.2426  217.3049 H   0  0  0  0  0  0  0  0  0  0  0  0
  142.6020   80.0680  218.2390 C   0  0  0  0  0  0  0  0  0  0  0  0
  142.8034   80.3728  219.2766 H   0  0  0  0  0  0  0  0  0  0  0  0
  143.5538   79.8792  217.7209 H   0  0  0  0  0  0  0  0  0  0  0  0
  142.0553   80.8697  217.7209 H   0  0  0  0  0  0  0  0  0  0  0  0
  1  2  1  0
  2  3  1  0
  3  4  2  0
  4  5  1  0
  5  6  2  0
  6  7  1  0
  6  8  1  0
  8  9  1  0
  8 10  2  0
 10 11  1  0
 10 12  1  0
 12 13  1  0
 12 14  2  0
 14 15  1  0
  4 16  1  0
 16 17  1  0
 16 18  1  0
 18 19  1  0
 18 20  1  0
 18 21  1  0
 21 22  1  0
 21 23  1  0
 21 24  1  0
 24 25  1  0
 25 26  2  0
 25 27  1  0
 27 28  1  6
 27 29  1  0
 29 30  1  0
 29 31  1  0
 31 32  1  0
 31 33  1  0
 31 34  1  0
 34 35  2  0
 35 36  1  0
 35 37  1  0
 37 38  1  0
 37 39  2  0
 39 40  1  0
 39 41  1  0
 41 42  1  0
 41 43  2  0
 43 44  1  0
 44 45  1  0
 44 46  1  0
 27 47  1  0
 47 48  1  0
 47 49  1  0
 47 50  1  0
 24 51  1  0
 51 52  1  0
 51 53  1  0
 51 54  1  0
 54 55  1  0
 54 56  1  0
  3 57  1  0
 57 58  1  0
 57 59  1  0
 57 60  1  0
 60 61  1  0
 60 62  1  0
 60 63  1  0
 14  5  1  0
 54 16  1  0
 44 29  1  0
 43 34  1  0
M  CHG  2   4   1  47   1
M  END
>  <UniqueID>  (42) 
45

>  <SMILES>  (42) 
CC/C(O)=[N+](\c1ccccc1)C1CCN(C(=O)[C@@H]([NH3+])C2Cc3ccccc3C2)CC1

>  <Energy>  (42) 
93.19904003580245

>  <Genealogy>  (42) 
CCC(=O)[NH+](c1ccccc1)C1CCN(C(=O)[C@@H]([NH3+])C2Cc3ccccc3C2)CC1 (protonated)
CCC(O)=[N+](c1ccccc1)C1CCN(C(=O)[C@@H]([NH3+])C2Cc3ccccc3C2)CC1 (tautomer)
CC/C(O)=[N+](\c1ccccc1)C1CCN(C(=O)[C@@H]([NH3+])C2Cc3ccccc3C2)CC1 (cis-trans isomerization)
CC/C(O)=[N+](\c1ccccc1)C1CCN(C(=O)[C@@H]([NH3+])C2Cc3ccccc3C2)CC1 (3D coordinates assigned)
CC/C(O)=[N+](\c1ccccc1)C1CCN(C(=O)[C@@H]([NH3+])C2Cc3ccccc3C2)CC1 (nonaromatic ring conformer: 93.19904003580245 kcal/mol)

>  <smiles>  (42) 
CCC(=O)N(c1ccccc1)C1CCN(C(=O)[C@@H](N)C2Cc3ccccc3C2)CC1

>  <score_type>  (42) 
oracle

>  <origin>  (42) 
autodockgpu

>  <m_score__min__energy>  (42) 
-8.1699999999999999

>  <m_primary>  (42) 
energy

>  <meeko>  (42) 
{"free_energy": -6.94, "intermolecular_energy": -9.33, "internal_energy": -1.78, "cluster_size": 1, "cluster_id": 4, "rank_in_cluster": 1}

>  <energy>  (42) 
-7.97

>  <cluster_rmsd>  (42) 
0.62

>  <rmsd>  (42) 
271.57

>  <cluster>  (42) 
1

$$$$
MCZRVQBLWAUNOI-QBLXWANANA-P
     RDKit          3D

 63 66  0  0  0  0  0  0  0  0999 V2000
  139.3880   67.7390  222.0920 H   0  0  0  0  0  0  0  0  0  0  0  0
  139.5980   68.6840  221.7960 O   0  0  0  0  0  0  0  0  0  0  0  0
  139.0090   69.7910  222.4170 C   0  0  0  0  0  0  0  0  0  0  0  0
  139.7700   70.7530  222.9010 N   0  0  0  0  0  0  0  0  0  0  0  0
  140.1880   70.7300  224.2810 C   0  0  0  0  0  0  0  0  0  0  0  0
  140.7330   71.8820  224.8720 C   0  0  0  0  0  0  0  0  0  0  0  0
  140.8442   72.8027  224.2804 H   0  0  0  0  0  0  0  0  0  0  0  0
  141.1340   71.8600  226.2100 C   0  0  0  0  0  0  0  0  0  0  0  0
  141.5536   72.7658  226.6721 H   0  0  0  0  0  0  0  0  0  0  0  0
  141.0030   70.6880  226.9640 C   0  0  0  0  0  0  0  0  0  0  0  0
  141.3245   70.6714  228.0158 H   0  0  0  0  0  0  0  0  0  0  0  0
  140.4630   69.5380  226.3790 C   0  0  0  0  0  0  0  0  0  0  0  0
  140.3568   68.6180  226.9726 H   0  0  0  0  0  0  0  0  0  0  0  0
  140.0580   69.5560  225.0410 C   0  0  0  0  0  0  0  0  0  0  0  0
  139.6368   68.6491  224.5826 H   0  0  0  0  0  0  0  0  0  0  0  0
  140.1310   71.9140  222.0470 C   0  0  0  0  0  0  0  0  0  0  0  0
  140.5810   72.6619  222.7164 H   0  0  0  0  0  0  0  0  0  0  0  0
  141.1530   71.4990  220.9690 C   0  0  0  0  0  0  0  0  0  0  0  0
  142.0928   71.2186  221.4672 H   0  0  0  0  0  0  0  0  0  0  0  0
  140.7164   70.6585  220.4097 H   0  0  0  0  0  0  0  0  0  0  0  0
  141.4520   72.6230  219.9520 C   0  0  0  0  0  0  0  0  0  0  0  0
  142.5338   72.8220  219.9477 H   0  0  0  0  0  0  0  0  0  0  0  0
  141.1098   72.2902  218.9610 H   0  0  0  0  0  0  0  0  0  0  0  0
  140.7410   73.8620  220.2910 N   0  0  0  0  0  0  0  0  0  0  0  0
  141.4620   74.9950  220.8020 C   0  0  0  0  0  0  0  0  0  0  0  0
  141.4450   75.2170  222.0430 O   0  0  0  0  0  0  0  0  0  0  0  0
  142.2370   75.9460  219.9020 C   0  0  2  0  0  0  0  0  0  0  0  0
  141.6630   75.9772  218.9641 H   0  0  0  0  0  0  0  0  0  0  0  0
  143.6500   75.4440  219.4710 C   0  0  0  0  0  0  0  0  0  0  0  0
  144.2180   76.3840  219.4100 H   0  0  0  0  0  0  0  0  0  0  0  0
  143.6340   74.7060  218.1050 C   0  0  0  0  0  0  0  0  0  0  0  0
  142.6052   74.5996  217.7305 H   0  0  0  0  0  0  0  0  0  0  0  0
  144.1878   75.2489  217.3249 H   0  0  0  0  0  0  0  0  0  0  0  0
  144.2240   73.3820  218.4040 C   0  0  0  0  0  0  0  0  0  0  0  0
  144.3790   72.3150  217.5140 C   0  0  0  0  0  0  0  0  0  0  0  0
  144.0492   72.4051  216.4685 H   0  0  0  0  0  0  0  0  0  0  0  0
  144.9640   71.1250  217.9800 C   0  0  0  0  0  0  0  0  0  0  0  0
  145.0992   70.2752  217.2948 H   0  0  0  0  0  0  0  0  0  0  0  0
  145.3770   71.0180  219.3200 C   0  0  0  0  0  0  0  0  0  0  0  0
  145.8287   70.0827  219.6822 H   0  0  0  0  0  0  0  0  0  0  0  0
  145.2140   72.1020  220.1960 C   0  0  0  0  0  0  0  0  0  0  0  0
  145.5375   72.0284  221.2448 H   0  0  0  0  0  0  0  0  0  0  0  0
  144.6330   73.2770  219.7110 C   0  0  0  0  0  0  0  0  0  0  0  0
  144.3620   74.5080  220.4840 C   0  0  0  0  0  0  0  0  0  0  0  0
  143.7090   74.2937  221.3428 H   0  0  0  0  0  0  0  0  0  0  0  0
  145.2772   74.9549  220.8996 H   0  0  0  0  0  0  0  0  0  0  0  0
  142.2820   77.3040  220.4640 N   0  0  0  0  0  0  0  0  0  0  0  0
  143.2020   77.7540  220.2420 H   0  0  0  0  0  0  0  0  0  0  0  0
  141.5150   77.9050  220.0930 H   0  0  0  0  0  0  0  0  0  0  0  0
  142.1940   77.2550  221.5060 H   0  0  0  0  0  0  0  0  0  0  0  0
  139.2900   73.7900  220.5040 C   0  0  0  0  0  0  0  0  0  0  0  0
  138.9564   74.7119  221.0029 H   0  0  0  0  0  0  0  0  0  0  0  0
  138.8039   73.6753  219.5239 H   0  0  0  0  0  0  0  0  0  0  0  0
  138.9030   72.5790  221.3790 C   0  0  0  0  0  0  0  0  0  0  0  0
  138.2138   72.9185  222.1663 H   0  0  0  0  0  0  0  0  0  0  0  0
  138.4322   71.8306  220.7246 H   0  0  0  0  0  0  0  0  0  0  0  0
  137.4960   69.8090  222.5140 C   0  0  0  0  0  0  0  0  0  0  0  0
  137.0763   69.1461  221.7430 H   0  0  0  0  0  0  0  0  0  0  0  0
  137.1429   70.8397  222.3625 H   0  0  0  0  0  0  0  0  0  0  0  0
  137.0410   69.3300  223.8890 C   0  0  0  0  0  0  0  0  0  0  0  0
  137.5754   69.8926  224.6686 H   0  0  0  0  0  0  0  0  0  0  0  0
  135.9585   69.4946  223.9949 H   0  0  0  0  0  0  0  0  0  0  0  0
  137.2609   68.2574  223.9949 H   0  0  0  0  0  0  0  0  0  0  0  0
  1  2  1  0
  2  3  1  0
  3  4  2  0
  4  5  1  0
  5  6  2  0
  6  7  1  0
  6  8  1  0
  8  9  1  0
  8 10  2  0
 10 11  1  0
 10 12  1  0
 12 13  1  0
 12 14  2  0
 14 15  1  0
  4 16  1  0
 16 17  1  0
 16 18  1  0
 18 19  1  0
 18 20  1  0
 18 21  1  0
 21 22  1  0
 21 23  1  0
 21 24  1  0
 24 25  1  0
 25 26  2  0
 25 27  1  0
 27 28  1  6
 27 29  1  0
 29 30  1  0
 29 31  1  0
 31 32  1  0
 31 33  1  0
 31 34  1  0
 34 35  2  0
 35 36  1  0
 35 37  1  0
 37 38  1  0
 37 39  2  0
 39 40  1  0
 39 41  1  0
 41 42  1  0
 41 43  2  0
 43 44  1  0
 44 45  1  0
 44 46  1  0
 27 47  1  0
 47 48  1  0
 47 49  1  0
 47 50  1  0
 24 51  1  0
 51 52  1  0
 51 53  1  0
 51 54  1  0
 54 55  1  0
 54 56  1  0
  3 57  1  0
 57 58  1  0
 57 59  1  0
 57 60  1  0
 60 61  1  0
 60 62  1  0
 60 63  1  0
 14  5  1  0
 54 16  1  0
 44 29  1  0
 43 34  1  0
M  CHG  2   4   1  47   1
M  END
>  <UniqueID>  (43) 
45

>  <SMILES>  (43) 
CC/C(O)=[N+](\c1ccccc1)C1CCN(C(=O)[C@@H]([NH3+])C2Cc3ccccc3C2)CC1

>  <Energy>  (43) 
93.19904003580245

>  <Genealogy>  (43) 
CCC(=O)[NH+](c1ccccc1)C1CCN(C(=O)[C@@H]([NH3+])C2Cc3ccccc3C2)CC1 (protonated)
CCC(O)=[N+](c1ccccc1)C1CCN(C(=O)[C@@H]([NH3+])C2Cc3ccccc3C2)CC1 (tautomer)
CC/C(O)=[N+](\c1ccccc1)C1CCN(C(=O)[C@@H]([NH3+])C2Cc3ccccc3C2)CC1 (cis-trans isomerization)
CC/C(O)=[N+](\c1ccccc1)C1CCN(C(=O)[C@@H]([NH3+])C2Cc3ccccc3C2)CC1 (3D coordinates assigned)
CC/C(O)=[N+](\c1ccccc1)C1CCN(C(=O)[C@@H]([NH3+])C2Cc3ccccc3C2)CC1 (nonaromatic ring conformer: 93.19904003580245 kcal/mol)

>  <smiles>  (43) 
CCC(=O)N(c1ccccc1)C1CCN(C(=O)[C@@H](N)C2Cc3ccccc3C2)CC1

>  <score_type>  (43) 
oracle

>  <origin>  (43) 
autodockgpu

>  <m_score__min__energy>  (43) 
-8.1699999999999999

>  <m_primary>  (43) 
energy

>  <meeko>  (43) 
{"free_energy": -6.51, "intermolecular_energy": -8.89, "internal_energy": -2.26, "cluster_size": 5, "cluster_id": 3, "rank_in_cluster": 3}

>  <energy>  (43) 
-7.24

>  <cluster_rmsd>  (43) 
1.33

>  <rmsd>  (43) 
271.33

>  <cluster>  (43) 
1

$$$$
MCZRVQBLWAUNOI-QBLXWANANA-P
     RDKit          3D

 63 66  0  0  0  0  0  0  0  0999 V2000
  139.5800   67.1250  223.9260 H   0  0  0  0  0  0  0  0  0  0  0  0
  139.2300   67.7900  224.6040 O   0  0  0  0  0  0  0  0  0  0  0  0
  138.5790   68.9630  224.2050 C   0  0  0  0  0  0  0  0  0  0  0  0
  139.1670   70.1300  224.3750 N   0  0  0  0  0  0  0  0  0  0  0  0
  139.8050   70.4520  225.6290 C   0  0  0  0  0  0  0  0  0  0  0  0
  139.5370   69.6850  226.7740 C   0  0  0  0  0  0  0  0  0  0  0  0
  138.8360   68.8392  226.7166 H   0  0  0  0  0  0  0  0  0  0  0  0
  140.1590   69.9940  227.9860 C   0  0  0  0  0  0  0  0  0  0  0  0
  139.9527   69.3863  228.8794 H   0  0  0  0  0  0  0  0  0  0  0  0
  141.0440   71.0750  228.0660 C   0  0  0  0  0  0  0  0  0  0  0  0
  141.5287   71.3198  229.0227 H   0  0  0  0  0  0  0  0  0  0  0  0
  141.3120   71.8440  226.9290 C   0  0  0  0  0  0  0  0  0  0  0  0
  142.0096   72.6922  226.9915 H   0  0  0  0  0  0  0  0  0  0  0  0
  140.6940   71.5360  225.7120 C   0  0  0  0  0  0  0  0  0  0  0  0
  140.9047   72.1435  224.8195 H   0  0  0  0  0  0  0  0  0  0  0  0
  139.1030   71.1580  223.3040 C   0  0  0  0  0  0  0  0  0  0  0  0
  139.7983   71.9576  223.5993 H   0  0  0  0  0  0  0  0  0  0  0  0
  139.5410   70.5580  221.9510 C   0  0  0  0  0  0  0  0  0  0  0  0
  140.6059   70.2897  222.0149 H   0  0  0  0  0  0  0  0  0  0  0  0
  138.9068   69.6798  221.7600 H   0  0  0  0  0  0  0  0  0  0  0  0
  139.3490   71.5330  220.7670 C   0  0  0  0  0  0  0  0  0  0  0  0
  140.3146   71.6716  220.2587 H   0  0  0  0  0  0  0  0  0  0  0  0
  138.6032   71.1010  220.0835 H   0  0  0  0  0  0  0  0  0  0  0  0
  138.8560   72.8400  221.2170 N   0  0  0  0  0  0  0  0  0  0  0  0
  139.7220   73.9860  221.2000 C   0  0  0  0  0  0  0  0  0  0  0  0
  140.2580   74.3590  222.2790 O   0  0  0  0  0  0  0  0  0  0  0  0
  140.0100   74.7780  219.9330 C   0  0  2  0  0  0  0  0  0  0  0  0
  139.2252   74.4726  219.2253 H   0  0  0  0  0  0  0  0  0  0  0  0
  141.3440   74.4080  219.2120 C   0  0  0  0  0  0  0  0  0  0  0  0
  141.0581   74.4755  218.1519 H   0  0  0  0  0  0  0  0  0  0  0  0
  141.8440   72.9830  219.5690 C   0  0  0  0  0  0  0  0  0  0  0  0
  141.2032   72.5252  220.3370 H   0  0  0  0  0  0  0  0  0  0  0  0
  141.8229   72.2996  218.7073 H   0  0  0  0  0  0  0  0  0  0  0  0
  143.2120   73.2010  220.0880 C   0  0  0  0  0  0  0  0  0  0  0  0
  144.0770   72.2310  220.6040 C   0  0  0  0  0  0  0  0  0  0  0  0
  143.7687   71.1763  220.6554 H   0  0  0  0  0  0  0  0  0  0  0  0
  145.3480   72.6280  221.0560 C   0  0  0  0  0  0  0  0  0  0  0  0
  146.0441   71.8798  221.4629 H   0  0  0  0  0  0  0  0  0  0  0  0
  145.7310   73.9790  220.9890 C   0  0  0  0  0  0  0  0  0  0  0  0
  146.7246   74.2859  221.3475 H   0  0  0  0  0  0  0  0  0  0  0  0
  144.8490   74.9370  220.4660 C   0  0  0  0  0  0  0  0  0  0  0  0
  145.1416   75.9958  220.4080 H   0  0  0  0  0  0  0  0  0  0  0  0
  143.5910   74.5200  220.0200 C   0  0  0  0  0  0  0  0  0  0  0  0
  142.5270   75.3810  219.4610 C   0  0  0  0  0  0  0  0  0  0  0  0
  142.2429   76.1657  220.1777 H   0  0  0  0  0  0  0  0  0  0  0  0
  142.8437   75.9031  218.5461 H   0  0  0  0  0  0  0  0  0  0  0  0
  139.8890   76.2250  220.1610 N   0  0  0  0  0  0  0  0  0  0  0  0
  140.6500   76.7340  219.6510 H   0  0  0  0  0  0  0  0  0  0  0  0
  138.9660   76.5930  219.8430 H   0  0  0  0  0  0  0  0  0  0  0  0
  139.9960   76.4290  221.1820 H   0  0  0  0  0  0  0  0  0  0  0  0
  137.6520   72.8730  222.0570 C   0  0  0  0  0  0  0  0  0  0  0  0
  137.5700   73.8655  222.5242 H   0  0  0  0  0  0  0  0  0  0  0  0
  136.7811   72.6661  221.4177 H   0  0  0  0  0  0  0  0  0  0  0  0
  137.7020   71.8010  223.1650 C   0  0  0  0  0  0  0  0  0  0  0  0
  137.4326   72.2705  224.1226 H   0  0  0  0  0  0  0  0  0  0  0  0
  136.9940   71.0046  222.8920 H   0  0  0  0  0  0  0  0  0  0  0  0
  137.1950   68.8180  223.6020 C   0  0  0  0  0  0  0  0  0  0  0  0
  137.0154   67.7604  223.3588 H   0  0  0  0  0  0  0  0  0  0  0  0
  137.1384   69.4323  222.6913 H   0  0  0  0  0  0  0  0  0  0  0  0
  136.1290   69.2950  224.5850 C   0  0  0  0  0  0  0  0  0  0  0  0
  136.4825   69.1368  225.6146 H   0  0  0  0  0  0  0  0  0  0  0  0
  135.9350   70.3658  224.4244 H   0  0  0  0  0  0  0  0  0  0  0  0
  135.2013   68.7261  224.4244 H   0  0  0  0  0  0  0  0  0  0  0  0
  1  2  1  0
  2  3  1  0
  3  4  2  0
  4  5  1  0
  5  6  2  0
  6  7  1  0
  6  8  1  0
  8  9  1  0
  8 10  2  0
 10 11  1  0
 10 12  1  0
 12 13  1  0
 12 14  2  0
 14 15  1  0
  4 16  1  0
 16 17  1  0
 16 18  1  0
 18 19  1  0
 18 20  1  0
 18 21  1  0
 21 22  1  0
 21 23  1  0
 21 24  1  0
 24 25  1  0
 25 26  2  0
 25 27  1  0
 27 28  1  6
 27 29  1  0
 29 30  1  0
 29 31  1  0
 31 32  1  0
 31 33  1  0
 31 34  1  0
 34 35  2  0
 35 36  1  0
 35 37  1  0
 37 38  1  0
 37 39  2  0
 39 40  1  0
 39 41  1  0
 41 42  1  0
 41 43  2  0
 43 44  1  0
 44 45  1  0
 44 46  1  0
 27 47  1  0
 47 48  1  0
 47 49  1  0
 47 50  1  0
 24 51  1  0
 51 52  1  0
 51 53  1  0
 51 54  1  0
 54 55  1  0
 54 56  1  0
  3 57  1  0
 57 58  1  0
 57 59  1  0
 57 60  1  0
 60 61  1  0
 60 62  1  0
 60 63  1  0
 14  5  1  0
 54 16  1  0
 44 29  1  0
 43 34  1  0
M  CHG  2   4   1  47   1
M  END
>  <UniqueID>  (44) 
45

>  <SMILES>  (44) 
CC/C(O)=[N+](\c1ccccc1)C1CCN(C(=O)[C@@H]([NH3+])C2Cc3ccccc3C2)CC1

>  <Energy>  (44) 
93.19904003580245

>  <Genealogy>  (44) 
CCC(=O)[NH+](c1ccccc1)C1CCN(C(=O)[C@@H]([NH3+])C2Cc3ccccc3C2)CC1 (protonated)
CCC(O)=[N+](c1ccccc1)C1CCN(C(=O)[C@@H]([NH3+])C2Cc3ccccc3C2)CC1 (tautomer)
CC/C(O)=[N+](\c1ccccc1)C1CCN(C(=O)[C@@H]([NH3+])C2Cc3ccccc3C2)CC1 (cis-trans isomerization)
CC/C(O)=[N+](\c1ccccc1)C1CCN(C(=O)[C@@H]([NH3+])C2Cc3ccccc3C2)CC1 (3D coordinates assigned)
CC/C(O)=[N+](\c1ccccc1)C1CCN(C(=O)[C@@H]([NH3+])C2Cc3ccccc3C2)CC1 (nonaromatic ring conformer: 93.19904003580245 kcal/mol)

>  <smiles>  (44) 
CCC(=O)N(c1ccccc1)C1CCN(C(=O)[C@@H](N)C2Cc3ccccc3C2)CC1

>  <score_type>  (44) 
oracle

>  <origin>  (44) 
autodockgpu

>  <m_score__min__energy>  (44) 
-8.1699999999999999

>  <m_primary>  (44) 
energy

>  <meeko>  (44) 
{"free_energy": -7.2, "intermolecular_energy": -9.59, "internal_energy": -1.66, "cluster_size": 5, "cluster_id": 3, "rank_in_cluster": 1}

>  <energy>  (44) 
-7.2

>  <cluster_rmsd>  (44) 
1.34

>  <rmsd>  (44) 
271.32

>  <cluster>  (44) 
1

$$$$
MCZRVQBLWAUNOI-QBLXWANANA-P
     RDKit          3D

 63 66  0  0  0  0  0  0  0  0999 V2000
  144.1620   77.2490  220.0170 H   0  0  0  0  0  0  0  0  0  0  0  0
  143.3110   76.7770  219.7380 O   0  0  0  0  0  0  0  0  0  0  0  0
  142.0720   77.4270  219.7710 C   0  0  0  0  0  0  0  0  0  0  0  0
  141.2250   77.1740  220.7480 N   0  0  0  0  0  0  0  0  0  0  0  0
  140.9590   78.1670  221.7610 C   0  0  0  0  0  0  0  0  0  0  0  0
  139.8770   79.0500  221.6170 C   0  0  0  0  0  0  0  0  0  0  0  0
  139.2322   78.9881  220.7279 H   0  0  0  0  0  0  0  0  0  0  0  0
  139.6180   80.0070  222.6010 C   0  0  0  0  0  0  0  0  0  0  0  0
  138.7647   80.6921  222.4892 H   0  0  0  0  0  0  0  0  0  0  0  0
  140.4420   80.0960  223.7290 C   0  0  0  0  0  0  0  0  0  0  0  0
  140.2401   80.8547  224.4995 H   0  0  0  0  0  0  0  0  0  0  0  0
  141.5220   79.2200  223.8760 C   0  0  0  0  0  0  0  0  0  0  0  0
  142.1667   79.2876  224.7647 H   0  0  0  0  0  0  0  0  0  0  0  0
  141.7840   78.2580  222.8950 C   0  0  0  0  0  0  0  0  0  0  0  0
  142.6363   77.5723  223.0112 H   0  0  0  0  0  0  0  0  0  0  0  0
  140.5990   75.8310  220.8610 C   0  0  0  0  0  0  0  0  0  0  0  0
  141.3963   75.1436  221.1800 H   0  0  0  0  0  0  0  0  0  0  0  0
  139.4710   75.8440  221.9140 C   0  0  0  0  0  0  0  0  0  0  0  0
  139.9171   76.0251  222.9030 H   0  0  0  0  0  0  0  0  0  0  0  0
  138.7651   76.6383  221.6297 H   0  0  0  0  0  0  0  0  0  0  0  0
  138.6780   74.5190  221.9670 C   0  0  0  0  0  0  0  0  0  0  0  0
  138.7180   74.1200  222.9913 H   0  0  0  0  0  0  0  0  0  0  0  0
  137.6406   74.7272  221.6662 H   0  0  0  0  0  0  0  0  0  0  0  0
  139.2310   73.5200  221.0450 N   0  0  0  0  0  0  0  0  0  0  0  0
  139.9440   72.3810  221.5530 C   0  0  0  0  0  0  0  0  0  0  0  0
  141.2050   72.3930  221.5280 O   0  0  0  0  0  0  0  0  0  0  0  0
  139.2390   71.1530  222.1100 C   0  0  2  0  0  0  0  0  0  0  0  0
  138.2491   71.1539  221.6303 H   0  0  0  0  0  0  0  0  0  0  0  0
  138.9260   71.2080  223.6380 C   0  0  0  0  0  0  0  0  0  0  0  0
  138.2206   72.0500  223.6967 H   0  0  0  0  0  0  0  0  0  0  0  0
  140.1910   71.4710  224.5010 C   0  0  0  0  0  0  0  0  0  0  0  0
  141.0952   71.4861  223.8748 H   0  0  0  0  0  0  0  0  0  0  0  0
  140.1593   72.4441  225.0129 H   0  0  0  0  0  0  0  0  0  0  0  0
  140.2240   70.3320  225.4450 C   0  0  0  0  0  0  0  0  0  0  0  0
  141.2080   70.0680  226.4020 C   0  0  0  0  0  0  0  0  0  0  0  0
  142.0722   70.7388  226.5164 H   0  0  0  0  0  0  0  0  0  0  0  0
  141.0730   68.9290  227.2160 C   0  0  0  0  0  0  0  0  0  0  0  0
  141.8349   68.7049  227.9771 H   0  0  0  0  0  0  0  0  0  0  0  0
  139.9660   68.0760  227.0590 C   0  0  0  0  0  0  0  0  0  0  0  0
  139.8659   67.1838  227.6946 H   0  0  0  0  0  0  0  0  0  0  0  0
  138.9890   68.3610  226.0930 C   0  0  0  0  0  0  0  0  0  0  0  0
  138.1187   67.7006  225.9648 H   0  0  0  0  0  0  0  0  0  0  0  0
  139.1420   69.4990  225.2970 C   0  0  0  0  0  0  0  0  0  0  0  0
  138.2320   69.9490  224.2220 C   0  0  0  0  0  0  0  0  0  0  0  0
  138.1230   69.1710  223.4520 H   0  0  0  0  0  0  0  0  0  0  0  0
  137.2170   70.1599  224.5899 H   0  0  0  0  0  0  0  0  0  0  0  0
  139.9340   69.9140  221.7330 N   0  0  0  0  0  0  0  0  0  0  0  0
  140.0600   69.3030  222.5760 H   0  0  0  0  0  0  0  0  0  0  0  0
  139.4120   69.3810  221.0050 H   0  0  0  0  0  0  0  0  0  0  0  0
  140.8850   70.1450  221.3610 H   0  0  0  0  0  0  0  0  0  0  0  0
  139.4150   73.9040  219.6400 C   0  0  0  0  0  0  0  0  0  0  0  0
  140.0695   73.1672  219.1514 H   0  0  0  0  0  0  0  0  0  0  0  0
  138.4262   73.9316  219.1587 H   0  0  0  0  0  0  0  0  0  0  0  0
  140.0530   75.3030  219.5120 C   0  0  0  0  0  0  0  0  0  0  0  0
  140.8834   75.2476  218.7927 H   0  0  0  0  0  0  0  0  0  0  0  0
  139.2703   75.9977  219.1732 H   0  0  0  0  0  0  0  0  0  0  0  0
  141.7650   78.3930  218.6430 C   0  0  0  0  0  0  0  0  0  0  0  0
  140.6832   78.3843  218.4439 H   0  0  0  0  0  0  0  0  0  0  0  0
  142.3193   78.0790  217.7462 H   0  0  0  0  0  0  0  0  0  0  0  0
  142.1950   79.8090  219.0170 C   0  0  0  0  0  0  0  0  0  0  0  0
  142.2245   79.9060  220.1123 H   0  0  0  0  0  0  0  0  0  0  0  0
  143.1946   80.0097  218.6041 H   0  0  0  0  0  0  0  0  0  0  0  0
  141.4758   80.5317  218.6041 H   0  0  0  0  0  0  0  0  0  0  0  0
  1  2  1  0
  2  3  1  0
  3  4  2  0
  4  5  1  0
  5  6  2  0
  6  7  1  0
  6  8  1  0
  8  9  1  0
  8 10  2  0
 10 11  1  0
 10 12  1  0
 12 13  1  0
 12 14  2  0
 14 15  1  0
  4 16  1  0
 16 17  1  0
 16 18  1  0
 18 19  1  0
 18 20  1  0
 18 21  1  0
 21 22  1  0
 21 23  1  0
 21 24  1  0
 24 25  1  0
 25 26  2  0
 25 27  1  0
 27 28  1  6
 27 29  1  0
 29 30  1  0
 29 31  1  0
 31 32  1  0
 31 33  1  0
 31 34  1  0
 34 35  2  0
 35 36  1  0
 35 37  1  0
 37 38  1  0
 37 39  2  0
 39 40  1  0
 39 41  1  0
 41 42  1  0
 41 43  2  0
 43 44  1  0
 44 45  1  0
 44 46  1  0
 27 47  1  0
 47 48  1  0
 47 49  1  0
 47 50  1  0
 24 51  1  0
 51 52  1  0
 51 53  1  0
 51 54  1  0
 54 55  1  0
 54 56  1  0
  3 57  1  0
 57 58  1  0
 57 59  1  0
 57 60  1  0
 60 61  1  0
 60 62  1  0
 60 63  1  0
 14  5  1  0
 54 16  1  0
 44 29  1  0
 43 34  1  0
M  CHG  2   4   1  47   1
M  END
>  <UniqueID>  (45) 
45

>  <SMILES>  (45) 
CC/C(O)=[N+](\c1ccccc1)C1CCN(C(=O)[C@@H]([NH3+])C2Cc3ccccc3C2)CC1

>  <Energy>  (45) 
93.19904003580245

>  <Genealogy>  (45) 
CCC(=O)[NH+](c1ccccc1)C1CCN(C(=O)[C@@H]([NH3+])C2Cc3ccccc3C2)CC1 (protonated)
CCC(O)=[N+](c1ccccc1)C1CCN(C(=O)[C@@H]([NH3+])C2Cc3ccccc3C2)CC1 (tautomer)
CC/C(O)=[N+](\c1ccccc1)C1CCN(C(=O)[C@@H]([NH3+])C2Cc3ccccc3C2)CC1 (cis-trans isomerization)
CC/C(O)=[N+](\c1ccccc1)C1CCN(C(=O)[C@@H]([NH3+])C2Cc3ccccc3C2)CC1 (3D coordinates assigned)
CC/C(O)=[N+](\c1ccccc1)C1CCN(C(=O)[C@@H]([NH3+])C2Cc3ccccc3C2)CC1 (nonaromatic ring conformer: 93.19904003580245 kcal/mol)

>  <smiles>  (45) 
CCC(=O)N(c1ccccc1)C1CCN(C(=O)[C@@H](N)C2Cc3ccccc3C2)CC1

>  <score_type>  (45) 
oracle

>  <origin>  (45) 
autodockgpu

>  <m_score__min__energy>  (45) 
-8.1699999999999999

>  <m_primary>  (45) 
energy

>  <meeko>  (45) 
{"free_energy": -7.1, "intermolecular_energy": -9.48, "internal_energy": -1.7, "cluster_size": 5, "cluster_id": 1, "rank_in_cluster": 5}

>  <energy>  (45) 
-7.1

>  <cluster_rmsd>  (45) 
1.35

>  <rmsd>  (45) 
271.29

>  <cluster>  (45) 
1

$$$$
MCZRVQBLWAUNOI-QBLXWANANA-P
     RDKit          3D

 63 66  0  0  0  0  0  0  0  0999 V2000
  146.5990   74.1390  218.1420 H   0  0  0  0  0  0  0  0  0  0  0  0
  146.3240   73.2680  218.5790 O   0  0  0  0  0  0  0  0  0  0  0  0
  145.4260   73.2420  219.6520 C   0  0  0  0  0  0  0  0  0  0  0  0
  144.3240   72.5220  219.5680 N   0  0  0  0  0  0  0  0  0  0  0  0
  144.3850   71.1360  219.1740 C   0  0  0  0  0  0  0  0  0  0  0  0
  144.7890   70.7890  217.8740 C   0  0  0  0  0  0  0  0  0  0  0  0
  145.0561   71.5761  217.1535 H   0  0  0  0  0  0  0  0  0  0  0  0
  144.8520   69.4460  217.4950 C   0  0  0  0  0  0  0  0  0  0  0  0
  145.1767   69.1771  216.4790 H   0  0  0  0  0  0  0  0  0  0  0  0
  144.5030   68.4420  218.4050 C   0  0  0  0  0  0  0  0  0  0  0  0
  144.5473   67.3854  218.1022 H   0  0  0  0  0  0  0  0  0  0  0  0
  144.0980   68.7820  219.6990 C   0  0  0  0  0  0  0  0  0  0  0  0
  143.8276   67.9919  220.4150 H   0  0  0  0  0  0  0  0  0  0  0  0
  144.0360   70.1250  220.0850 C   0  0  0  0  0  0  0  0  0  0  0  0
  143.7137   70.3899  221.1028 H   0  0  0  0  0  0  0  0  0  0  0  0
  143.0020   73.1590  219.7980 C   0  0  0  0  0  0  0  0  0  0  0  0
  142.8719   73.2165  220.8888 H   0  0  0  0  0  0  0  0  0  0  0  0
  142.9700   74.5790  219.1950 C   0  0  0  0  0  0  0  0  0  0  0  0
  143.6810   75.2104  219.7481 H   0  0  0  0  0  0  0  0  0  0  0  0
  143.2387   74.4903  218.1320 H   0  0  0  0  0  0  0  0  0  0  0  0
  141.5730   75.2350  219.2640 C   0  0  0  0  0  0  0  0  0  0  0  0
  141.6535   76.1902  219.8036 H   0  0  0  0  0  0  0  0  0  0  0  0
  141.2163   75.3934  218.2356 H   0  0  0  0  0  0  0  0  0  0  0  0
  140.6060   74.3760  219.9580 N   0  0  0  0  0  0  0  0  0  0  0  0
  140.1400   74.7240  221.2720 C   0  0  0  0  0  0  0  0  0  0  0  0
  140.6420   74.1390  222.2690 O   0  0  0  0  0  0  0  0  0  0  0  0
  139.0530   75.7620  221.5080 C   0  0  2  0  0  0  0  0  0  0  0  0
  138.2530   75.4979  220.8007 H   0  0  0  0  0  0  0  0  0  0  0  0
  139.4420   77.2240  221.1230 C   0  0  0  0  0  0  0  0  0  0  0  0
  139.0667   77.2961  220.0915 H   0  0  0  0  0  0  0  0  0  0  0  0
  140.9730   77.4740  221.1830 C   0  0  0  0  0  0  0  0  0  0  0  0
  141.4985   76.5892  221.5715 H   0  0  0  0  0  0  0  0  0  0  0  0
  141.4076   77.6760  220.1929 H   0  0  0  0  0  0  0  0  0  0  0  0
  141.1140   78.6180  222.1100 C   0  0  0  0  0  0  0  0  0  0  0  0
  142.3090   79.1960  222.5500 C   0  0  0  0  0  0  0  0  0  0  0  0
  143.2790   78.8067  222.2070 H   0  0  0  0  0  0  0  0  0  0  0  0
  142.2480   80.2840  223.4390 C   0  0  0  0  0  0  0  0  0  0  0  0
  143.1764   80.7551  223.7941 H   0  0  0  0  0  0  0  0  0  0  0  0
  141.0030   80.7710  223.8750 C   0  0  0  0  0  0  0  0  0  0  0  0
  140.9598   81.6192  224.5741 H   0  0  0  0  0  0  0  0  0  0  0  0
  139.8150   80.1770  223.4200 C   0  0  0  0  0  0  0  0  0  0  0  0
  138.8367   80.5531  223.7539 H   0  0  0  0  0  0  0  0  0  0  0  0
  139.8990   79.0990  222.5350 C   0  0  0  0  0  0  0  0  0  0  0  0
  138.7660   78.3380  221.9670 C   0  0  0  0  0  0  0  0  0  0  0  0
  138.1489   77.9019  222.7664 H   0  0  0  0  0  0  0  0  0  0  0  0
  138.0913   78.9689  221.3697 H   0  0  0  0  0  0  0  0  0  0  0  0
  138.5110   75.6770  222.8720 N   0  0  0  0  0  0  0  0  0  0  0  0
  139.2400   75.3010  223.5240 H   0  0  0  0  0  0  0  0  0  0  0  0
  138.1920   76.6060  223.2220 H   0  0  0  0  0  0  0  0  0  0  0  0
  137.6990   75.0170  222.8860 H   0  0  0  0  0  0  0  0  0  0  0  0
  140.4550   72.9900  219.4950 C   0  0  0  0  0  0  0  0  0  0  0  0
  139.9151   72.4145  220.2614 H   0  0  0  0  0  0  0  0  0  0  0  0
  139.8967   73.0028  218.5473 H   0  0  0  0  0  0  0  0  0  0  0  0
  141.8230   72.3240  219.2400 C   0  0  0  0  0  0  0  0  0  0  0  0
  141.8301   71.3362  219.7239 H   0  0  0  0  0  0  0  0  0  0  0  0
  141.9572   72.2419  218.1513 H   0  0  0  0  0  0  0  0  0  0  0  0
  145.7740   74.0770  220.8680 C   0  0  0  0  0  0  0  0  0  0  0  0
  144.8464   74.3832  221.3738 H   0  0  0  0  0  0  0  0  0  0  0  0
  146.3389   74.9623  220.5405 H   0  0  0  0  0  0  0  0  0  0  0  0
  146.6350   73.2760  221.8410 C   0  0  0  0  0  0  0  0  0  0  0  0
  146.3578   73.5339  222.8738 H   0  0  0  0  0  0  0  0  0  0  0  0
  146.4721   72.2008  221.6752 H   0  0  0  0  0  0  0  0  0  0  0  0
  147.6956   73.5160  221.6752 H   0  0  0  0  0  0  0  0  0  0  0  0
  1  2  1  0
  2  3  1  0
  3  4  2  0
  4  5  1  0
  5  6  2  0
  6  7  1  0
  6  8  1  0
  8  9  1  0
  8 10  2  0
 10 11  1  0
 10 12  1  0
 12 13  1  0
 12 14  2  0
 14 15  1  0
  4 16  1  0
 16 17  1  0
 16 18  1  0
 18 19  1  0
 18 20  1  0
 18 21  1  0
 21 22  1  0
 21 23  1  0
 21 24  1  0
 24 25  1  0
 25 26  2  0
 25 27  1  0
 27 28  1  6
 27 29  1  0
 29 30  1  0
 29 31  1  0
 31 32  1  0
 31 33  1  0
 31 34  1  0
 34 35  2  0
 35 36  1  0
 35 37  1  0
 37 38  1  0
 37 39  2  0
 39 40  1  0
 39 41  1  0
 41 42  1  0
 41 43  2  0
 43 44  1  0
 44 45  1  0
 44 46  1  0
 27 47  1  0
 47 48  1  0
 47 49  1  0
 47 50  1  0
 24 51  1  0
 51 52  1  0
 51 53  1  0
 51 54  1  0
 54 55  1  0
 54 56  1  0
  3 57  1  0
 57 58  1  0
 57 59  1  0
 57 60  1  0
 60 61  1  0
 60 62  1  0
 60 63  1  0
 14  5  1  0
 54 16  1  0
 44 29  1  0
 43 34  1  0
M  CHG  2   4   1  47   1
M  END
>  <UniqueID>  (46) 
45

>  <SMILES>  (46) 
CC/C(O)=[N+](\c1ccccc1)C1CCN(C(=O)[C@@H]([NH3+])C2Cc3ccccc3C2)CC1

>  <Energy>  (46) 
93.19904003580245

>  <Genealogy>  (46) 
CCC(=O)[NH+](c1ccccc1)C1CCN(C(=O)[C@@H]([NH3+])C2Cc3ccccc3C2)CC1 (protonated)
CCC(O)=[N+](c1ccccc1)C1CCN(C(=O)[C@@H]([NH3+])C2Cc3ccccc3C2)CC1 (tautomer)
CC/C(O)=[N+](\c1ccccc1)C1CCN(C(=O)[C@@H]([NH3+])C2Cc3ccccc3C2)CC1 (cis-trans isomerization)
CC/C(O)=[N+](\c1ccccc1)C1CCN(C(=O)[C@@H]([NH3+])C2Cc3ccccc3C2)CC1 (3D coordinates assigned)
CC/C(O)=[N+](\c1ccccc1)C1CCN(C(=O)[C@@H]([NH3+])C2Cc3ccccc3C2)CC1 (nonaromatic ring conformer: 93.19904003580245 kcal/mol)

>  <smiles>  (46) 
CCC(=O)N(c1ccccc1)C1CCN(C(=O)[C@@H](N)C2Cc3ccccc3C2)CC1

>  <score_type>  (46) 
oracle

>  <origin>  (46) 
autodockgpu

>  <m_score__min__energy>  (46) 
-8.1699999999999999

>  <m_primary>  (46) 
energy

>  <meeko>  (46) 
{"free_energy": -7.75, "intermolecular_energy": -10.13, "internal_energy": -1.72, "cluster_size": 5, "cluster_id": 2, "rank_in_cluster": 4}

>  <energy>  (46) 
-7.93

>  <cluster_rmsd>  (46) 
0.0

>  <rmsd>  (46) 
271.0

>  <cluster>  (46) 
2

$$$$
MCZRVQBLWAUNOI-QBLXWANANA-P
     RDKit          3D

 63 66  0  0  0  0  0  0  0  0999 V2000
  136.8600   72.8400  224.2480 H   0  0  0  0  0  0  0  0  0  0  0  0
  136.6700   71.9120  223.8920 O   0  0  0  0  0  0  0  0  0  0  0  0
  137.6670   71.1530  223.2670 C   0  0  0  0  0  0  0  0  0  0  0  0
  138.9300   71.5180  223.3690 N   0  0  0  0  0  0  0  0  0  0  0  0
  139.7530   71.0130  224.4400 C   0  0  0  0  0  0  0  0  0  0  0  0
  140.6810   71.8550  225.0750 C   0  0  0  0  0  0  0  0  0  0  0  0
  140.7831   72.9016  224.7523 H   0  0  0  0  0  0  0  0  0  0  0  0
  141.4740   71.3660  226.1150 C   0  0  0  0  0  0  0  0  0  0  0  0
  142.1945   72.0301  226.6148 H   0  0  0  0  0  0  0  0  0  0  0  0
  141.3540   70.0320  226.5230 C   0  0  0  0  0  0  0  0  0  0  0  0
  141.9830   69.6474  227.3393 H   0  0  0  0  0  0  0  0  0  0  0  0
  140.4340   69.1890  225.8920 C   0  0  0  0  0  0  0  0  0  0  0  0
  140.3380   68.1417  226.2144 H   0  0  0  0  0  0  0  0  0  0  0  0
  139.6360   69.6750  224.8520 C   0  0  0  0  0  0  0  0  0  0  0  0
  138.9153   69.0086  224.3555 H   0  0  0  0  0  0  0  0  0  0  0  0
  139.4910   72.5210  222.4270 C   0  0  0  0  0  0  0  0  0  0  0  0
  140.0537   73.2406  223.0398 H   0  0  0  0  0  0  0  0  0  0  0  0
  140.4390   71.8440  221.4150 C   0  0  0  0  0  0  0  0  0  0  0  0
  141.3127   71.4558  221.9591 H   0  0  0  0  0  0  0  0  0  0  0  0
  139.8722   71.0414  220.9204 H   0  0  0  0  0  0  0  0  0  0  0  0
  140.9340   72.8060  220.3120 C   0  0  0  0  0  0  0  0  0  0  0  0
  142.0339   72.8193  220.3171 H   0  0  0  0  0  0  0  0  0  0  0  0
  140.5501   72.4480  219.3454 H   0  0  0  0  0  0  0  0  0  0  0  0
  140.4400   74.1720  220.5250 N   0  0  0  0  0  0  0  0  0  0  0  0
  141.3380   75.2090  220.9530 C   0  0  0  0  0  0  0  0  0  0  0  0
  141.3460   75.5420  222.1690 O   0  0  0  0  0  0  0  0  0  0  0  0
  142.2720   75.9330  219.9940 C   0  0  2  0  0  0  0  0  0  0  0  0
  141.7098   76.0027  219.0511 H   0  0  0  0  0  0  0  0  0  0  0  0
  143.5660   75.1470  219.6140 C   0  0  0  0  0  0  0  0  0  0  0  0
  144.3130   75.9521  219.5536 H   0  0  0  0  0  0  0  0  0  0  0  0
  143.4370   74.3960  218.2610 C   0  0  0  0  0  0  0  0  0  0  0  0
  142.4180   74.4899  217.8576 H   0  0  0  0  0  0  0  0  0  0  0  0
  144.1088   74.7983  217.4885 H   0  0  0  0  0  0  0  0  0  0  0  0
  143.7400   72.9880  218.6010 C   0  0  0  0  0  0  0  0  0  0  0  0
  143.7010   71.8910  217.7350 C   0  0  0  0  0  0  0  0  0  0  0  0
  143.4241   72.0212  216.6784 H   0  0  0  0  0  0  0  0  0  0  0  0
  144.0220   70.6190  218.2390 C   0  0  0  0  0  0  0  0  0  0  0  0
  144.0002   69.7435  217.5734 H   0  0  0  0  0  0  0  0  0  0  0  0
  144.3710   70.4630  219.5920 C   0  0  0  0  0  0  0  0  0  0  0  0
  144.6172   69.4650  219.9837 H   0  0  0  0  0  0  0  0  0  0  0  0
  144.4060   71.5780  220.4440 C   0  0  0  0  0  0  0  0  0  0  0  0
  144.6804   71.4652  221.5032 H   0  0  0  0  0  0  0  0  0  0  0  0
  144.0860   72.8330  219.9220 C   0  0  0  0  0  0  0  0  0  0  0  0
  144.0490   74.1110  220.6640 C   0  0  0  0  0  0  0  0  0  0  0  0
  143.3447   74.0525  221.5069 H   0  0  0  0  0  0  0  0  0  0  0  0
  145.0247   74.3746  221.0981 H   0  0  0  0  0  0  0  0  0  0  0  0
  142.5700   77.2960  220.4560 N   0  0  0  0  0  0  0  0  0  0  0  0
  142.2930   77.4030  221.4610 H   0  0  0  0  0  0  0  0  0  0  0  0
  143.5830   77.5270  220.3590 H   0  0  0  0  0  0  0  0  0  0  0  0
  142.0150   77.9850  219.8970 H   0  0  0  0  0  0  0  0  0  0  0  0
  138.9960   74.3640  220.7060 C   0  0  0  0  0  0  0  0  0  0  0  0
  138.8182   75.3698  221.1144 H   0  0  0  0  0  0  0  0  0  0  0  0
  138.5081   74.2451  219.7273 H   0  0  0  0  0  0  0  0  0  0  0  0
  138.4000   73.3190  221.6720 C   0  0  0  0  0  0  0  0  0  0  0  0
  137.7693   73.8384  222.4085 H   0  0  0  0  0  0  0  0  0  0  0  0
  137.8165   72.6042  221.0733 H   0  0  0  0  0  0  0  0  0  0  0  0
  137.2220   69.9380  222.4780 C   0  0  0  0  0  0  0  0  0  0  0  0
  138.0938   69.4948  221.9744 H   0  0  0  0  0  0  0  0  0  0  0  0
  136.4729   70.2518  221.7361 H   0  0  0  0  0  0  0  0  0  0  0  0
  136.5940   68.8980  223.4020 C   0  0  0  0  0  0  0  0  0  0  0  0
  136.7677   69.1856  224.4494 H   0  0  0  0  0  0  0  0  0  0  0  0
  135.5120   68.8437  223.2112 H   0  0  0  0  0  0  0  0  0  0  0  0
  137.0497   67.9152  223.2112 H   0  0  0  0  0  0  0  0  0  0  0  0
  1  2  1  0
  2  3  1  0
  3  4  2  0
  4  5  1  0
  5  6  2  0
  6  7  1  0
  6  8  1  0
  8  9  1  0
  8 10  2  0
 10 11  1  0
 10 12  1  0
 12 13  1  0
 12 14  2  0
 14 15  1  0
  4 16  1  0
 16 17  1  0
 16 18  1  0
 18 19  1  0
 18 20  1  0
 18 21  1  0
 21 22  1  0
 21 23  1  0
 21 24  1  0
 24 25  1  0
 25 26  2  0
 25 27  1  0
 27 28  1  6
 27 29  1  0
 29 30  1  0
 29 31  1  0
 31 32  1  0
 31 33  1  0
 31 34  1  0
 34 35  2  0
 35 36  1  0
 35 37  1  0
 37 38  1  0
 37 39  2  0
 39 40  1  0
 39 41  1  0
 41 42  1  0
 41 43  2  0
 43 44  1  0
 44 45  1  0
 44 46  1  0
 27 47  1  0
 47 48  1  0
 47 49  1  0
 47 50  1  0
 24 51  1  0
 51 52  1  0
 51 53  1  0
 51 54  1  0
 54 55  1  0
 54 56  1  0
  3 57  1  0
 57 58  1  0
 57 59  1  0
 57 60  1  0
 60 61  1  0
 60 62  1  0
 60 63  1  0
 14  5  1  0
 54 16  1  0
 44 29  1  0
 43 34  1  0
M  CHG  2   4   1  47   1
M  END
>  <UniqueID>  (47) 
45

>  <SMILES>  (47) 
CC/C(O)=[N+](\c1ccccc1)C1CCN(C(=O)[C@@H]([NH3+])C2Cc3ccccc3C2)CC1

>  <Energy>  (47) 
93.19904003580245

>  <Genealogy>  (47) 
CCC(=O)[NH+](c1ccccc1)C1CCN(C(=O)[C@@H]([NH3+])C2Cc3ccccc3C2)CC1 (protonated)
CCC(O)=[N+](c1ccccc1)C1CCN(C(=O)[C@@H]([NH3+])C2Cc3ccccc3C2)CC1 (tautomer)
CC/C(O)=[N+](\c1ccccc1)C1CCN(C(=O)[C@@H]([NH3+])C2Cc3ccccc3C2)CC1 (cis-trans isomerization)
CC/C(O)=[N+](\c1ccccc1)C1CCN(C(=O)[C@@H]([NH3+])C2Cc3ccccc3C2)CC1 (3D coordinates assigned)
CC/C(O)=[N+](\c1ccccc1)C1CCN(C(=O)[C@@H]([NH3+])C2Cc3ccccc3C2)CC1 (nonaromatic ring conformer: 93.19904003580245 kcal/mol)

>  <smiles>  (47) 
CCC(=O)N(c1ccccc1)C1CCN(C(=O)[C@@H](N)C2Cc3ccccc3C2)CC1

>  <score_type>  (47) 
oracle

>  <origin>  (47) 
autodockgpu

>  <m_score__min__energy>  (47) 
-8.1699999999999999

>  <m_primary>  (47) 
energy

>  <meeko>  (47) 
{"free_energy": -6.65, "intermolecular_energy": -9.03, "internal_energy": -2.22, "cluster_size": 4, "cluster_id": 5, "rank_in_cluster": 4}

>  <energy>  (47) 
-7.87

>  <cluster_rmsd>  (47) 
0.52

>  <rmsd>  (47) 
271.08

>  <cluster>  (47) 
2

$$$$
MCZRVQBLWAUNOI-QBLXWANANA-P
     RDKit          3D

 63 66  0  0  0  0  0  0  0  0999 V2000
  139.7540   67.8790  221.8660 H   0  0  0  0  0  0  0  0  0  0  0  0
  139.5790   68.8540  221.6560 O   0  0  0  0  0  0  0  0  0  0  0  0
  139.0320   69.7180  222.6120 C   0  0  0  0  0  0  0  0  0  0  0  0
  139.7540   70.7130  223.0870 N   0  0  0  0  0  0  0  0  0  0  0  0
  140.1770   70.7160  224.4660 C   0  0  0  0  0  0  0  0  0  0  0  0
  140.7060   71.8850  225.0390 C   0  0  0  0  0  0  0  0  0  0  0  0
  140.8020   72.7986  224.4340 H   0  0  0  0  0  0  0  0  0  0  0  0
  141.1100   71.8880  226.3760 C   0  0  0  0  0  0  0  0  0  0  0  0
  141.5164   72.8066  226.8242 H   0  0  0  0  0  0  0  0  0  0  0  0
  140.9990   70.7250  227.1470 C   0  0  0  0  0  0  0  0  0  0  0  0
  141.3230   70.7285  228.1982 H   0  0  0  0  0  0  0  0  0  0  0  0
  140.4760   69.5590  226.5800 C   0  0  0  0  0  0  0  0  0  0  0  0
  140.3861   68.6460  227.1870 H   0  0  0  0  0  0  0  0  0  0  0  0
  140.0670   69.5510  225.2430 C   0  0  0  0  0  0  0  0  0  0  0  0
  139.6586   68.6312  224.7990 H   0  0  0  0  0  0  0  0  0  0  0  0
  140.0660   71.8820  222.2240 C   0  0  0  0  0  0  0  0  0  0  0  0
  140.5460   72.6280  222.8745 H   0  0  0  0  0  0  0  0  0  0  0  0
  141.0340   71.4780  221.0920 C   0  0  0  0  0  0  0  0  0  0  0  0
  141.9991   71.1985  221.5397 H   0  0  0  0  0  0  0  0  0  0  0  0
  140.5731   70.6390  220.5500 H   0  0  0  0  0  0  0  0  0  0  0  0
  141.2760   72.6100  220.0690 C   0  0  0  0  0  0  0  0  0  0  0  0
  142.3554   72.8138  220.0107 H   0  0  0  0  0  0  0  0  0  0  0  0
  140.8849   72.2825  219.0944 H   0  0  0  0  0  0  0  0  0  0  0  0
  140.5780   73.8440  220.4530 N   0  0  0  0  0  0  0  0  0  0  0  0
  141.3200   74.9760  220.9340 C   0  0  0  0  0  0  0  0  0  0  0  0
  141.3650   75.1900  222.1760 O   0  0  0  0  0  0  0  0  0  0  0  0
  142.0440   75.9370  220.0030 C   0  0  2  0  0  0  0  0  0  0  0  0
  141.4203   75.9756  219.0977 H   0  0  0  0  0  0  0  0  0  0  0  0
  143.4330   75.4420  219.4930 C   0  0  0  0  0  0  0  0  0  0  0  0
  143.9910   76.3853  219.3990 H   0  0  0  0  0  0  0  0  0  0  0  0
  143.3440   74.7020  218.1310 C   0  0  0  0  0  0  0  0  0  0  0  0
  142.2963   74.5895  217.8154 H   0  0  0  0  0  0  0  0  0  0  0  0
  143.8500   75.2470  217.3205 H   0  0  0  0  0  0  0  0  0  0  0  0
  143.9570   73.3820  218.3970 C   0  0  0  0  0  0  0  0  0  0  0  0
  144.0670   72.3150  217.5010 C   0  0  0  0  0  0  0  0  0  0  0  0
  143.6780   72.4022  216.4758 H   0  0  0  0  0  0  0  0  0  0  0  0
  144.6840   71.1280  217.9340 C   0  0  0  0  0  0  0  0  0  0  0  0
  144.7845   70.2781  217.2430 H   0  0  0  0  0  0  0  0  0  0  0  0
  145.1730   71.0250  219.2490 C   0  0  0  0  0  0  0  0  0  0  0  0
  145.6495   70.0926  219.5860 H   0  0  0  0  0  0  0  0  0  0  0  0
  145.0540   72.1100  220.1320 C   0  0  0  0  0  0  0  0  0  0  0  0
  145.4367   72.0398  221.1609 H   0  0  0  0  0  0  0  0  0  0  0  0
  144.4400   73.2810  219.6790 C   0  0  0  0  0  0  0  0  0  0  0  0
  144.2070   74.5110  220.4650 C   0  0  0  0  0  0  0  0  0  0  0  0
  143.6053   74.2942  221.3599 H   0  0  0  0  0  0  0  0  0  0  0  0
  145.1419   74.9633  220.8274 H   0  0  0  0  0  0  0  0  0  0  0  0
  142.1170   77.2900  220.5740 N   0  0  0  0  0  0  0  0  0  0  0  0
  143.0400   77.7280  220.3430 H   0  0  0  0  0  0  0  0  0  0  0  0
  141.3530   77.9050  220.2160 H   0  0  0  0  0  0  0  0  0  0  0  0
  142.0410   77.2350  221.6160 H   0  0  0  0  0  0  0  0  0  0  0  0
  139.1400   73.7640  220.7390 C   0  0  0  0  0  0  0  0  0  0  0  0
  138.8284   74.6809  221.2608 H   0  0  0  0  0  0  0  0  0  0  0  0
  138.6052   73.6540  219.7841 H   0  0  0  0  0  0  0  0  0  0  0  0
  138.8030   72.5450  221.6240 C   0  0  0  0  0  0  0  0  0  0  0  0
  138.1530   72.8757  222.4475 H   0  0  0  0  0  0  0  0  0  0  0  0
  138.3029   71.7987  220.9892 H   0  0  0  0  0  0  0  0  0  0  0  0
  137.6120   69.4400  223.0670 C   0  0  0  0  0  0  0  0  0  0  0  0
  137.6159   68.5906  223.7659 H   0  0  0  0  0  0  0  0  0  0  0  0
  136.9967   69.2046  222.1861 H   0  0  0  0  0  0  0  0  0  0  0  0
  137.0240   70.6620  223.7660 C   0  0  0  0  0  0  0  0  0  0  0  0
  137.0887   70.5275  224.8558 H   0  0  0  0  0  0  0  0  0  0  0  0
  137.5890   71.5592  223.4731 H   0  0  0  0  0  0  0  0  0  0  0  0
  135.9703   70.7803  223.4731 H   0  0  0  0  0  0  0  0  0  0  0  0
  1  2  1  0
  2  3  1  0
  3  4  2  0
  4  5  1  0
  5  6  2  0
  6  7  1  0
  6  8  1  0
  8  9  1  0
  8 10  2  0
 10 11  1  0
 10 12  1  0
 12 13  1  0
 12 14  2  0
 14 15  1  0
  4 16  1  0
 16 17  1  0
 16 18  1  0
 18 19  1  0
 18 20  1  0
 18 21  1  0
 21 22  1  0
 21 23  1  0
 21 24  1  0
 24 25  1  0
 25 26  2  0
 25 27  1  0
 27 28  1  6
 27 29  1  0
 29 30  1  0
 29 31  1  0
 31 32  1  0
 31 33  1  0
 31 34  1  0
 34 35  2  0
 35 36  1  0
 35 37  1  0
 37 38  1  0
 37 39  2  0
 39 40  1  0
 39 41  1  0
 41 42  1  0
 41 43  2  0
 43 44  1  0
 44 45  1  0
 44 46  1  0
 27 47  1  0
 47 48  1  0
 47 49  1  0
 47 50  1  0
 24 51  1  0
 51 52  1  0
 51 53  1  0
 51 54  1  0
 54 55  1  0
 54 56  1  0
  3 57  1  0
 57 58  1  0
 57 59  1  0
 57 60  1  0
 60 61  1  0
 60 62  1  0
 60 63  1  0
 14  5  1  0
 54 16  1  0
 44 29  1  0
 43 34  1  0
M  CHG  2   4   1  47   1
M  END
>  <UniqueID>  (48) 
45

>  <SMILES>  (48) 
CC/C(O)=[N+](\c1ccccc1)C1CCN(C(=O)[C@@H]([NH3+])C2Cc3ccccc3C2)CC1

>  <Energy>  (48) 
93.19904003580245

>  <Genealogy>  (48) 
CCC(=O)[NH+](c1ccccc1)C1CCN(C(=O)[C@@H]([NH3+])C2Cc3ccccc3C2)CC1 (protonated)
CCC(O)=[N+](c1ccccc1)C1CCN(C(=O)[C@@H]([NH3+])C2Cc3ccccc3C2)CC1 (tautomer)
CC/C(O)=[N+](\c1ccccc1)C1CCN(C(=O)[C@@H]([NH3+])C2Cc3ccccc3C2)CC1 (cis-trans isomerization)
CC/C(O)=[N+](\c1ccccc1)C1CCN(C(=O)[C@@H]([NH3+])C2Cc3ccccc3C2)CC1 (3D coordinates assigned)
CC/C(O)=[N+](\c1ccccc1)C1CCN(C(=O)[C@@H]([NH3+])C2Cc3ccccc3C2)CC1 (nonaromatic ring conformer: 93.19904003580245 kcal/mol)

>  <smiles>  (48) 
CCC(=O)N(c1ccccc1)C1CCN(C(=O)[C@@H](N)C2Cc3ccccc3C2)CC1

>  <score_type>  (48) 
oracle

>  <origin>  (48) 
autodockgpu

>  <m_score__min__energy>  (48) 
-8.1699999999999999

>  <m_primary>  (48) 
energy

>  <meeko>  (48) 
{"free_energy": -6.53, "intermolecular_energy": -8.92, "internal_energy": -2.27, "cluster_size": 5, "cluster_id": 3, "rank_in_cluster": 2}

>  <energy>  (48) 
-7.8

>  <cluster_rmsd>  (48) 
0.11

>  <rmsd>  (48) 
270.99

>  <cluster>  (48) 
2

$$$$
MCZRVQBLWAUNOI-QBLXWANANA-P
     RDKit          3D

 63 66  0  0  0  0  0  0  0  0999 V2000
  144.2680   77.1600  219.7900 H   0  0  0  0  0  0  0  0  0  0  0  0
  143.3390   76.7630  219.7280 O   0  0  0  0  0  0  0  0  0  0  0  0
  142.1960   77.5560  219.8710 C   0  0  0  0  0  0  0  0  0  0  0  0
  141.3310   77.2940  220.8310 N   0  0  0  0  0  0  0  0  0  0  0  0
  141.0460   78.2760  221.8480 C   0  0  0  0  0  0  0  0  0  0  0  0
  140.0170   79.2120  221.6570 C   0  0  0  0  0  0  0  0  0  0  0  0
  139.4291   79.1990  220.7274 H   0  0  0  0  0  0  0  0  0  0  0  0
  139.7380   80.1600  222.6450 C   0  0  0  0  0  0  0  0  0  0  0  0
  138.9255   80.8862  222.4954 H   0  0  0  0  0  0  0  0  0  0  0  0
  140.4910   80.1870  223.8250 C   0  0  0  0  0  0  0  0  0  0  0  0
  140.2745   80.9380  224.5990 H   0  0  0  0  0  0  0  0  0  0  0  0
  141.5190   79.2580  224.0190 C   0  0  0  0  0  0  0  0  0  0  0  0
  142.1079   79.2766  224.9479 H   0  0  0  0  0  0  0  0  0  0  0  0
  141.7990   78.3060  223.0340 C   0  0  0  0  0  0  0  0  0  0  0  0
  142.6102   77.5792  223.1878 H   0  0  0  0  0  0  0  0  0  0  0  0
  140.7050   75.9490  220.9200 C   0  0  0  0  0  0  0  0  0  0  0  0
  141.4962   75.2604  221.2516 H   0  0  0  0  0  0  0  0  0  0  0  0
  139.5530   75.9530  221.9470 C   0  0  0  0  0  0  0  0  0  0  0  0
  139.9760   76.1280  222.9472 H   0  0  0  0  0  0  0  0  0  0  0  0
  138.8526   76.7481  221.6517 H   0  0  0  0  0  0  0  0  0  0  0  0
  138.7610   74.6270  221.9730 C   0  0  0  0  0  0  0  0  0  0  0  0
  138.7789   74.2207  222.9951 H   0  0  0  0  0  0  0  0  0  0  0  0
  137.7302   74.8360  221.6508 H   0  0  0  0  0  0  0  0  0  0  0  0
  139.3360   73.6350  221.0560 N   0  0  0  0  0  0  0  0  0  0  0  0
  140.0390   72.4930  221.5710 C   0  0  0  0  0  0  0  0  0  0  0  0
  141.3000   72.5070  221.5740 O   0  0  0  0  0  0  0  0  0  0  0  0
  139.3230   71.2610  222.1030 C   0  0  2  0  0  0  0  0  0  0  0  0
  138.3365   71.2766  221.6167 H   0  0  0  0  0  0  0  0  0  0  0  0
  139.0000   71.2920  223.6300 C   0  0  0  0  0  0  0  0  0  0  0  0
  138.3141   72.1490  223.7011 H   0  0  0  0  0  0  0  0  0  0  0  0
  140.2630   71.5080  224.5070 C   0  0  0  0  0  0  0  0  0  0  0  0
  141.1722   71.5146  223.8878 H   0  0  0  0  0  0  0  0  0  0  0  0
  140.2492   72.4712  225.0382 H   0  0  0  0  0  0  0  0  0  0  0  0
  140.2630   70.3510  225.4280 C   0  0  0  0  0  0  0  0  0  0  0  0
  141.2340   70.0450  226.3860 C   0  0  0  0  0  0  0  0  0  0  0  0
  142.1130   70.6928  226.5189 H   0  0  0  0  0  0  0  0  0  0  0  0
  141.0670   68.8940  227.1770 C   0  0  0  0  0  0  0  0  0  0  0  0
  141.8176   68.6379  227.9392 H   0  0  0  0  0  0  0  0  0  0  0  0
  139.9420   68.0700  226.9950 C   0  0  0  0  0  0  0  0  0  0  0  0
  139.8168   67.1681  227.6122 H   0  0  0  0  0  0  0  0  0  0  0  0
  138.9780   68.3960  226.0270 C   0  0  0  0  0  0  0  0  0  0  0  0
  138.0941   67.7581  225.8793 H   0  0  0  0  0  0  0  0  0  0  0  0
  139.1630   69.5460  225.2550 C   0  0  0  0  0  0  0  0  0  0  0  0
  138.2720   70.0370  224.1830 C   0  0  0  0  0  0  0  0  0  0  0  0
  138.1518   69.2772  223.3967 H   0  0  0  0  0  0  0  0  0  0  0  0
  137.2588   70.2630  224.5468 H   0  0  0  0  0  0  0  0  0  0  0  0
  140.0140   70.0240  221.7110 N   0  0  0  0  0  0  0  0  0  0  0  0
  140.1250   69.3960  222.5430 H   0  0  0  0  0  0  0  0  0  0  0  0
  139.4960   69.5080  220.9660 H   0  0  0  0  0  0  0  0  0  0  0  0
  140.9710   70.2540  221.3550 H   0  0  0  0  0  0  0  0  0  0  0  0
  139.5510   74.0300  219.6580 C   0  0  0  0  0  0  0  0  0  0  0  0
  140.2178   73.2981  219.1788 H   0  0  0  0  0  0  0  0  0  0  0  0
  138.5733   74.0595  219.1547 H   0  0  0  0  0  0  0  0  0  0  0  0
  140.1890   75.4310  219.5550 C   0  0  0  0  0  0  0  0  0  0  0  0
  141.0348   75.3828  218.8533 H   0  0  0  0  0  0  0  0  0  0  0  0
  139.4125   76.1271  219.2050 H   0  0  0  0  0  0  0  0  0  0  0  0
  142.0070   78.6870  218.8790 C   0  0  0  0  0  0  0  0  0  0  0  0
  142.5376   79.5793  219.2426 H   0  0  0  0  0  0  0  0  0  0  0  0
  140.9317   78.8974  218.7813 H   0  0  0  0  0  0  0  0  0  0  0  0
  142.5590   78.2980  217.5100 C   0  0  0  0  0  0  0  0  0  0  0  0
  143.4519   77.6688  217.6400 H   0  0  0  0  0  0  0  0  0  0  0  0
  141.7941   77.7383  216.9518 H   0  0  0  0  0  0  0  0  0  0  0  0
  142.8288   79.2066  216.9518 H   0  0  0  0  0  0  0  0  0  0  0  0
  1  2  1  0
  2  3  1  0
  3  4  2  0
  4  5  1  0
  5  6  2  0
  6  7  1  0
  6  8  1  0
  8  9  1  0
  8 10  2  0
 10 11  1  0
 10 12  1  0
 12 13  1  0
 12 14  2  0
 14 15  1  0
  4 16  1  0
 16 17  1  0
 16 18  1  0
 18 19  1  0
 18 20  1  0
 18 21  1  0
 21 22  1  0
 21 23  1  0
 21 24  1  0
 24 25  1  0
 25 26  2  0
 25 27  1  0
 27 28  1  6
 27 29  1  0
 29 30  1  0
 29 31  1  0
 31 32  1  0
 31 33  1  0
 31 34  1  0
 34 35  2  0
 35 36  1  0
 35 37  1  0
 37 38  1  0
 37 39  2  0
 39 40  1  0
 39 41  1  0
 41 42  1  0
 41 43  2  0
 43 44  1  0
 44 45  1  0
 44 46  1  0
 27 47  1  0
 47 48  1  0
 47 49  1  0
 47 50  1  0
 24 51  1  0
 51 52  1  0
 51 53  1  0
 51 54  1  0
 54 55  1  0
 54 56  1  0
  3 57  1  0
 57 58  1  0
 57 59  1  0
 57 60  1  0
 60 61  1  0
 60 62  1  0
 60 63  1  0
 14  5  1  0
 54 16  1  0
 44 29  1  0
 43 34  1  0
M  CHG  2   4   1  47   1
M  END
>  <UniqueID>  (49) 
45

>  <SMILES>  (49) 
CC/C(O)=[N+](\c1ccccc1)C1CCN(C(=O)[C@@H]([NH3+])C2Cc3ccccc3C2)CC1

>  <Energy>  (49) 
93.19904003580245

>  <Genealogy>  (49) 
CCC(=O)[NH+](c1ccccc1)C1CCN(C(=O)[C@@H]([NH3+])C2Cc3ccccc3C2)CC1 (protonated)
CCC(O)=[N+](c1ccccc1)C1CCN(C(=O)[C@@H]([NH3+])C2Cc3ccccc3C2)CC1 (tautomer)
CC/C(O)=[N+](\c1ccccc1)C1CCN(C(=O)[C@@H]([NH3+])C2Cc3ccccc3C2)CC1 (cis-trans isomerization)
CC/C(O)=[N+](\c1ccccc1)C1CCN(C(=O)[C@@H]([NH3+])C2Cc3ccccc3C2)CC1 (3D coordinates assigned)
CC/C(O)=[N+](\c1ccccc1)C1CCN(C(=O)[C@@H]([NH3+])C2Cc3ccccc3C2)CC1 (nonaromatic ring conformer: 93.19904003580245 kcal/mol)

>  <smiles>  (49) 
CCC(=O)N(c1ccccc1)C1CCN(C(=O)[C@@H](N)C2Cc3ccccc3C2)CC1

>  <score_type>  (49) 
oracle

>  <origin>  (49) 
autodockgpu

>  <m_score__min__energy>  (49) 
-8.1699999999999999

>  <m_primary>  (49) 
energy

>  <meeko>  (49) 
{"free_energy": -7.2, "intermolecular_energy": -9.59, "internal_energy": -1.65, "cluster_size": 5, "cluster_id": 1, "rank_in_cluster": 4}

>  <energy>  (49) 
-7.75

>  <cluster_rmsd>  (49) 
0.35

>  <rmsd>  (49) 
271.09

>  <cluster>  (49) 
2

$$$$
MCZRVQBLWAUNOI-QBLXWANANA-P
     RDKit          3D

 63 66  0  0  0  0  0  0  0  0999 V2000
  146.3310   74.1990  217.7340 H   0  0  0  0  0  0  0  0  0  0  0  0
  146.3070   73.2790  218.1560 O   0  0  0  0  0  0  0  0  0  0  0  0
  145.7100   73.0650  219.4040 C   0  0  0  0  0  0  0  0  0  0  0  0
  144.6470   72.2910  219.4980 N   0  0  0  0  0  0  0  0  0  0  0  0
  144.7620   70.8640  219.3210 C   0  0  0  0  0  0  0  0  0  0  0  0
  144.0210   69.9900  220.1320 C   0  0  0  0  0  0  0  0  0  0  0  0
  143.3534   70.3937  220.9075 H   0  0  0  0  0  0  0  0  0  0  0  0
  144.1300   68.6090  219.9560 C   0  0  0  0  0  0  0  0  0  0  0  0
  143.5415   67.9273  220.5877 H   0  0  0  0  0  0  0  0  0  0  0  0
  144.9860   68.0900  218.9780 C   0  0  0  0  0  0  0  0  0  0  0  0
  145.0750   67.0016  218.8458 H   0  0  0  0  0  0  0  0  0  0  0  0
  145.7280   68.9560  218.1690 C   0  0  0  0  0  0  0  0  0  0  0  0
  146.3978   68.5481  217.3976 H   0  0  0  0  0  0  0  0  0  0  0  0
  145.6200   70.3400  218.3390 C   0  0  0  0  0  0  0  0  0  0  0  0
  146.2072   71.0191  217.7034 H   0  0  0  0  0  0  0  0  0  0  0  0
  143.3050   72.8950  219.7040 C   0  0  0  0  0  0  0  0  0  0  0  0
  143.1533   72.9481  220.7922 H   0  0  0  0  0  0  0  0  0  0  0  0
  143.2490   74.3150  219.1000 C   0  0  0  0  0  0  0  0  0  0  0  0
  143.9337   74.9636  219.6662 H   0  0  0  0  0  0  0  0  0  0  0  0
  143.5396   74.2335  218.0422 H   0  0  0  0  0  0  0  0  0  0  0  0
  141.8350   74.9360  219.1430 C   0  0  0  0  0  0  0  0  0  0  0  0
  141.8814   75.8922  219.6848 H   0  0  0  0  0  0  0  0  0  0  0  0
  141.4939   75.0870  218.1082 H   0  0  0  0  0  0  0  0  0  0  0  0
  140.8770   74.0520  219.8180 N   0  0  0  0  0  0  0  0  0  0  0  0
  140.3770   74.3870  221.1230 C   0  0  0  0  0  0  0  0  0  0  0  0
  140.8750   73.8140  222.1300 O   0  0  0  0  0  0  0  0  0  0  0  0
  139.2610   75.3980  221.3400 C   0  0  2  0  0  0  0  0  0  0  0  0
  138.4868   75.1246  220.6080 H   0  0  0  0  0  0  0  0  0  0  0  0
  139.6270   76.8730  220.9810 C   0  0  0  0  0  0  0  0  0  0  0  0
  139.3737   76.9188  219.9116 H   0  0  0  0  0  0  0  0  0  0  0  0
  141.1280   77.1930  221.2180 C   0  0  0  0  0  0  0  0  0  0  0  0
  141.6421   76.3367  221.6790 H   0  0  0  0  0  0  0  0  0  0  0  0
  141.6680   77.4051  220.2834 H   0  0  0  0  0  0  0  0  0  0  0  0
  141.1070   78.3520  222.1390 C   0  0  0  0  0  0  0  0  0  0  0  0
  142.2140   78.9880  222.7080 C   0  0  0  0  0  0  0  0  0  0  0  0
  143.2341   78.6400  222.4881 H   0  0  0  0  0  0  0  0  0  0  0  0
  142.0000   80.0800  223.5660 C   0  0  0  0  0  0  0  0  0  0  0  0
  142.8581   80.5967  224.0206 H   0  0  0  0  0  0  0  0  0  0  0  0
  140.6920   80.5140  223.8450 C   0  0  0  0  0  0  0  0  0  0  0  0
  140.5286   81.3663  224.5210 H   0  0  0  0  0  0  0  0  0  0  0  0
  139.5940   79.8610  223.2620 C   0  0  0  0  0  0  0  0  0  0  0  0
  138.5672   80.1944  223.4730 H   0  0  0  0  0  0  0  0  0  0  0  0
  139.8300   78.7800  222.4090 C   0  0  0  0  0  0  0  0  0  0  0  0
  138.8070   77.9620  221.7230 C   0  0  0  0  0  0  0  0  0  0  0  0
  138.1201   77.5053  222.4507 H   0  0  0  0  0  0  0  0  0  0  0  0
  138.1798   78.5554  221.0414 H   0  0  0  0  0  0  0  0  0  0  0  0
  138.6840   75.2850  222.6870 N   0  0  0  0  0  0  0  0  0  0  0  0
  137.7050   74.9150  222.6280 H   0  0  0  0  0  0  0  0  0  0  0  0
  139.2460   74.6560  223.3000 H   0  0  0  0  0  0  0  0  0  0  0  0
  138.6410   76.2330  223.1300 H   0  0  0  0  0  0  0  0  0  0  0  0
  140.7690   72.6650  219.3520 C   0  0  0  0  0  0  0  0  0  0  0  0
  140.2285   72.0758  220.1075 H   0  0  0  0  0  0  0  0  0  0  0  0
  140.2292   72.6654  218.3936 H   0  0  0  0  0  0  0  0  0  0  0  0
  142.1580   72.0320  219.1230 C   0  0  0  0  0  0  0  0  0  0  0  0
  142.1798   71.0442  219.6066 H   0  0  0  0  0  0  0  0  0  0  0  0
  142.3152   71.9537  218.0371 H   0  0  0  0  0  0  0  0  0  0  0  0
  146.3260   73.7670  220.5980 C   0  0  0  0  0  0  0  0  0  0  0  0
  145.9291   74.7910  220.6598 H   0  0  0  0  0  0  0  0  0  0  0  0
  147.4185   73.7896  220.4716 H   0  0  0  0  0  0  0  0  0  0  0  0
  145.9950   73.0220  221.8880 C   0  0  0  0  0  0  0  0  0  0  0  0
  146.2714   73.6442  222.7520 H   0  0  0  0  0  0  0  0  0  0  0  0
  144.9167   72.8071  221.9209 H   0  0  0  0  0  0  0  0  0  0  0  0
  146.5583   72.0777  221.9209 H   0  0  0  0  0  0  0  0  0  0  0  0
  1  2  1  0
  2  3  1  0
  3  4  2  0
  4  5  1  0
  5  6  2  0
  6  7  1  0
  6  8  1  0
  8  9  1  0
  8 10  2  0
 10 11  1  0
 10 12  1  0
 12 13  1  0
 12 14  2  0
 14 15  1  0
  4 16  1  0
 16 17  1  0
 16 18  1  0
 18 19  1  0
 18 20  1  0
 18 21  1  0
 21 22  1  0
 21 23  1  0
 21 24  1  0
 24 25  1  0
 25 26  2  0
 25 27  1  0
 27 28  1  6
 27 29  1  0
 29 30  1  0
 29 31  1  0
 31 32  1  0
 31 33  1  0
 31 34  1  0
 34 35  2  0
 35 36  1  0
 35 37  1  0
 37 38  1  0
 37 39  2  0
 39 40  1  0
 39 41  1  0
 41 42  1  0
 41 43  2  0
 43 44  1  0
 44 45  1  0
 44 46  1  0
 27 47  1  0
 47 48  1  0
 47 49  1  0
 47 50  1  0
 24 51  1  0
 51 52  1  0
 51 53  1  0
 51 54  1  0
 54 55  1  0
 54 56  1  0
  3 57  1  0
 57 58  1  0
 57 59  1  0
 57 60  1  0
 60 61  1  0
 60 62  1  0
 60 63  1  0
 14  5  1  0
 54 16  1  0
 44 29  1  0
 43 34  1  0
M  CHG  2   4   1  47   1
M  END
>  <UniqueID>  (50) 
45

>  <SMILES>  (50) 
CC/C(O)=[N+](\c1ccccc1)C1CCN(C(=O)[C@@H]([NH3+])C2Cc3ccccc3C2)CC1

>  <Energy>  (50) 
93.19904003580245

>  <Genealogy>  (50) 
CCC(=O)[NH+](c1ccccc1)C1CCN(C(=O)[C@@H]([NH3+])C2Cc3ccccc3C2)CC1 (protonated)
CCC(O)=[N+](c1ccccc1)C1CCN(C(=O)[C@@H]([NH3+])C2Cc3ccccc3C2)CC1 (tautomer)
CC/C(O)=[N+](\c1ccccc1)C1CCN(C(=O)[C@@H]([NH3+])C2Cc3ccccc3C2)CC1 (cis-trans isomerization)
CC/C(O)=[N+](\c1ccccc1)C1CCN(C(=O)[C@@H]([NH3+])C2Cc3ccccc3C2)CC1 (3D coordinates assigned)
CC/C(O)=[N+](\c1ccccc1)C1CCN(C(=O)[C@@H]([NH3+])C2Cc3ccccc3C2)CC1 (nonaromatic ring conformer: 93.19904003580245 kcal/mol)

>  <smiles>  (50) 
CCC(=O)N(c1ccccc1)C1CCN(C(=O)[C@@H](N)C2Cc3ccccc3C2)CC1

>  <score_type>  (50) 
oracle

>  <origin>  (50) 
autodockgpu

>  <m_score__min__energy>  (50) 
-8.1699999999999999

>  <m_primary>  (50) 
energy

>  <meeko>  (50) 
{"free_energy": -7.72, "intermolecular_energy": -10.11, "internal_energy": -1.67, "cluster_size": 5, "cluster_id": 2, "rank_in_cluster": 5}

>  <energy>  (50) 
-7.72

>  <cluster_rmsd>  (50) 
0.47

>  <rmsd>  (50) 
271.05

>  <cluster>  (50) 
2

$$$$
MCZRVQBLWAUNOI-QBLXWANANA-P
     RDKit          3D

 63 66  0  0  0  0  0  0  0  0999 V2000
  146.6070   74.1270  218.2160 H   0  0  0  0  0  0  0  0  0  0  0  0
  146.3210   73.2480  218.6270 O   0  0  0  0  0  0  0  0  0  0  0  0
  145.4180   73.2020  219.6950 C   0  0  0  0  0  0  0  0  0  0  0  0
  144.3660   72.4110  219.6310 N   0  0  0  0  0  0  0  0  0  0  0  0
  144.5150   71.0230  219.2660 C   0  0  0  0  0  0  0  0  0  0  0  0
  145.1150   70.6760  218.0440 C   0  0  0  0  0  0  0  0  0  0  0  0
  145.4674   71.4640  217.3622 H   0  0  0  0  0  0  0  0  0  0  0  0
  145.2650   69.3320  217.6930 C   0  0  0  0  0  0  0  0  0  0  0  0
  145.7436   69.0633  216.7397 H   0  0  0  0  0  0  0  0  0  0  0  0
  144.8070   68.3270  218.5530 C   0  0  0  0  0  0  0  0  0  0  0  0
  144.9192   67.2695  218.2719 H   0  0  0  0  0  0  0  0  0  0  0  0
  144.2070   68.6670  219.7690 C   0  0  0  0  0  0  0  0  0  0  0  0
  143.8515   67.8763  220.4460 H   0  0  0  0  0  0  0  0  0  0  0  0
  144.0580   70.0110  220.1260 C   0  0  0  0  0  0  0  0  0  0  0  0
  143.5822   70.2759  221.0818 H   0  0  0  0  0  0  0  0  0  0  0  0
  143.0050   72.9640  219.8550 C   0  0  0  0  0  0  0  0  0  0  0  0
  142.9442   73.2136  220.9246 H   0  0  0  0  0  0  0  0  0  0  0  0
  142.7910   74.2370  219.0080 C   0  0  0  0  0  0  0  0  0  0  0  0
  143.4718   75.0197  219.3739 H   0  0  0  0  0  0  0  0  0  0  0  0
  142.9942   73.9721  217.9599 H   0  0  0  0  0  0  0  0  0  0  0  0
  141.3430   74.7730  219.0760 C   0  0  0  0  0  0  0  0  0  0  0  0
  141.3645   75.8161  219.4247 H   0  0  0  0  0  0  0  0  0  0  0  0
  140.9031   74.7038  218.0702 H   0  0  0  0  0  0  0  0  0  0  0  0
  140.5160   73.9810  219.9940 N   0  0  0  0  0  0  0  0  0  0  0  0
  140.1080   74.5290  221.2580 C   0  0  0  0  0  0  0  0  0  0  0  0
  140.7330   74.1880  222.2990 O   0  0  0  0  0  0  0  0  0  0  0  0
  138.9420   75.4970  221.3940 C   0  0  2  0  0  0  0  0  0  0  0  0
  138.2280   75.1895  220.6158 H   0  0  0  0  0  0  0  0  0  0  0  0
  139.2730   76.9820  221.0470 C   0  0  0  0  0  0  0  0  0  0  0  0
  138.8248   77.0889  220.0481 H   0  0  0  0  0  0  0  0  0  0  0  0
  140.7990   77.2650  221.0120 C   0  0  0  0  0  0  0  0  0  0  0  0
  141.3681   76.3766  221.3231 H   0  0  0  0  0  0  0  0  0  0  0  0
  141.1581   77.5200  220.0040 H   0  0  0  0  0  0  0  0  0  0  0  0
  140.9830   78.3710  221.9770 C   0  0  0  0  0  0  0  0  0  0  0  0
  142.1930   78.9570  222.3570 C   0  0  0  0  0  0  0  0  0  0  0  0
  143.1438   78.6050  221.9302 H   0  0  0  0  0  0  0  0  0  0  0  0
  142.1740   80.0050  223.2950 C   0  0  0  0  0  0  0  0  0  0  0  0
  143.1156   80.4818  223.6050 H   0  0  0  0  0  0  0  0  0  0  0  0
  140.9530   80.4440  223.8370 C   0  0  0  0  0  0  0  0  0  0  0  0
  140.9420   81.2609  224.5736 H   0  0  0  0  0  0  0  0  0  0  0  0
  139.7490   79.8430  223.4410 C   0  0  0  0  0  0  0  0  0  0  0  0
  138.7896   80.1820  223.8590 H   0  0  0  0  0  0  0  0  0  0  0  0
  139.7910   78.8050  222.5050 C   0  0  0  0  0  0  0  0  0  0  0  0
  138.6360   78.0430  221.9850 C   0  0  0  0  0  0  0  0  0  0  0  0
  138.0863   77.5589  222.8056 H   0  0  0  0  0  0  0  0  0  0  0  0
  137.9077   78.6829  221.4652 H   0  0  0  0  0  0  0  0  0  0  0  0
  138.2830   75.3690  222.7020 N   0  0  0  0  0  0  0  0  0  0  0  0
  139.0030   75.2780  223.4590 H   0  0  0  0  0  0  0  0  0  0  0  0
  137.6750   76.1900  222.9130 H   0  0  0  0  0  0  0  0  0  0  0  0
  137.6950   74.5040  222.7150 H   0  0  0  0  0  0  0  0  0  0  0  0
  140.4730   72.5250  219.8050 C   0  0  0  0  0  0  0  0  0  0  0  0
  140.0462   72.0606  220.7062 H   0  0  0  0  0  0  0  0  0  0  0  0
  139.8535   72.3111  218.9216 H   0  0  0  0  0  0  0  0  0  0  0  0
  141.8800   71.9420  219.5600 C   0  0  0  0  0  0  0  0  0  0  0  0
  142.0180   71.0674  220.2127 H   0  0  0  0  0  0  0  0  0  0  0  0
  141.9477   71.6681  218.4968 H   0  0  0  0  0  0  0  0  0  0  0  0
  145.7010   74.1020  220.8820 C   0  0  0  0  0  0  0  0  0  0  0  0
  144.7480   74.4284  221.3238 H   0  0  0  0  0  0  0  0  0  0  0  0
  146.2783   74.9728  220.5378 H   0  0  0  0  0  0  0  0  0  0  0  0
  146.5150   73.3570  221.9380 C   0  0  0  0  0  0  0  0  0  0  0  0
  146.1815   73.6623  222.9408 H   0  0  0  0  0  0  0  0  0  0  0  0
  146.3685   72.2735  221.8169 H   0  0  0  0  0  0  0  0  0  0  0  0
  147.5813   73.5986  221.8169 H   0  0  0  0  0  0  0  0  0  0  0  0
  1  2  1  0
  2  3  1  0
  3  4  2  0
  4  5  1  0
  5  6  2  0
  6  7  1  0
  6  8  1  0
  8  9  1  0
  8 10  2  0
 10 11  1  0
 10 12  1  0
 12 13  1  0
 12 14  2  0
 14 15  1  0
  4 16  1  0
 16 17  1  0
 16 18  1  0
 18 19  1  0
 18 20  1  0
 18 21  1  0
 21 22  1  0
 21 23  1  0
 21 24  1  0
 24 25  1  0
 25 26  2  0
 25 27  1  0
 27 28  1  6
 27 29  1  0
 29 30  1  0
 29 31  1  0
 31 32  1  0
 31 33  1  0
 31 34  1  0
 34 35  2  0
 35 36  1  0
 35 37  1  0
 37 38  1  0
 37 39  2  0
 39 40  1  0
 39 41  1  0
 41 42  1  0
 41 43  2  0
 43 44  1  0
 44 45  1  0
 44 46  1  0
 27 47  1  0
 47 48  1  0
 47 49  1  0
 47 50  1  0
 24 51  1  0
 51 52  1  0
 51 53  1  0
 51 54  1  0
 54 55  1  0
 54 56  1  0
  3 57  1  0
 57 58  1  0
 57 59  1  0
 57 60  1  0
 60 61  1  0
 60 62  1  0
 60 63  1  0
 14  5  1  0
 54 16  1  0
 44 29  1  0
 43 34  1  0
M  CHG  2   4   1  47   1
M  END
>  <UniqueID>  (51) 
45

>  <SMILES>  (51) 
CC/C(O)=[N+](\c1ccccc1)C1CCN(C(=O)[C@@H]([NH3+])C2Cc3ccccc3C2)CC1

>  <Energy>  (51) 
93.19904003580245

>  <Genealogy>  (51) 
CCC(=O)[NH+](c1ccccc1)C1CCN(C(=O)[C@@H]([NH3+])C2Cc3ccccc3C2)CC1 (protonated)
CCC(O)=[N+](c1ccccc1)C1CCN(C(=O)[C@@H]([NH3+])C2Cc3ccccc3C2)CC1 (tautomer)
CC/C(O)=[N+](\c1ccccc1)C1CCN(C(=O)[C@@H]([NH3+])C2Cc3ccccc3C2)CC1 (cis-trans isomerization)
CC/C(O)=[N+](\c1ccccc1)C1CCN(C(=O)[C@@H]([NH3+])C2Cc3ccccc3C2)CC1 (3D coordinates assigned)
CC/C(O)=[N+](\c1ccccc1)C1CCN(C(=O)[C@@H]([NH3+])C2Cc3ccccc3C2)CC1 (nonaromatic ring conformer: 93.19904003580245 kcal/mol)

>  <smiles>  (51) 
CCC(=O)N(c1ccccc1)C1CCN(C(=O)[C@@H](N)C2Cc3ccccc3C2)CC1

>  <score_type>  (51) 
oracle

>  <origin>  (51) 
autodockgpu

>  <m_score__min__energy>  (51) 
-8.1699999999999999

>  <m_primary>  (51) 
energy

>  <meeko>  (51) 
{"free_energy": -7.93, "intermolecular_energy": -10.32, "internal_energy": -1.55, "cluster_size": 5, "cluster_id": 2, "rank_in_cluster": 1}

>  <energy>  (51) 
-7.2

>  <cluster_rmsd>  (51) 
0.0

>  <rmsd>  (51) 
270.99

>  <cluster>  (51) 
3

$$$$
MCZRVQBLWAUNOI-QBLXWANANA-P
     RDKit          3D

 63 66  0  0  0  0  0  0  0  0999 V2000
  143.9490   77.6820  219.3490 H   0  0  0  0  0  0  0  0  0  0  0  0
  143.0170   77.4580  219.0230 O   0  0  0  0  0  0  0  0  0  0  0  0
  141.8960   78.1550  219.4870 C   0  0  0  0  0  0  0  0  0  0  0  0
  141.3990   77.8810  220.6770 N   0  0  0  0  0  0  0  0  0  0  0  0
  141.5910   78.7950  221.7770 C   0  0  0  0  0  0  0  0  0  0  0  0
  141.7620   80.1670  221.5330 C   0  0  0  0  0  0  0  0  0  0  0  0
  141.7542   80.5460  220.5004 H   0  0  0  0  0  0  0  0  0  0  0  0
  141.9420   81.0520  222.5990 C   0  0  0  0  0  0  0  0  0  0  0  0
  142.0682   82.1274  222.4048 H   0  0  0  0  0  0  0  0  0  0  0  0
  141.9620   80.5720  223.9140 C   0  0  0  0  0  0  0  0  0  0  0  0
  142.1098   81.2692  224.7519 H   0  0  0  0  0  0  0  0  0  0  0  0
  141.7940   79.2060  224.1620 C   0  0  0  0  0  0  0  0  0  0  0  0
  141.8058   78.8301  225.1957 H   0  0  0  0  0  0  0  0  0  0  0  0
  141.6110   78.3170  223.0980 C   0  0  0  0  0  0  0  0  0  0  0  0
  141.4826   77.2425  223.2956 H   0  0  0  0  0  0  0  0  0  0  0  0
  140.7100   76.5870  220.9150 C   0  0  0  0  0  0  0  0  0  0  0  0
  141.4032   75.9711  221.5068 H   0  0  0  0  0  0  0  0  0  0  0  0
  139.4030   76.8050  221.7050 C   0  0  0  0  0  0  0  0  0  0  0  0
  139.6584   77.1715  222.7102 H   0  0  0  0  0  0  0  0  0  0  0  0
  138.7974   77.5317  221.1436 H   0  0  0  0  0  0  0  0  0  0  0  0
  138.5610   75.5170  221.8500 C   0  0  0  0  0  0  0  0  0  0  0  0
  138.3884   75.3219  222.9187 H   0  0  0  0  0  0  0  0  0  0  0  0
  137.6094   75.6668  221.3189 H   0  0  0  0  0  0  0  0  0  0  0  0
  139.2390   74.3580  221.2580 N   0  0  0  0  0  0  0  0  0  0  0  0
  139.7960   73.3350  222.1000 C   0  0  0  0  0  0  0  0  0  0  0  0
  141.0370   73.3390  222.3200 O   0  0  0  0  0  0  0  0  0  0  0  0
  138.9480   72.2390  222.7280 C   0  0  2  0  0  0  0  0  0  0  0  0
  138.4348   72.7267  223.5699 H   0  0  0  0  0  0  0  0  0  0  0  0
  139.7540   71.0780  223.3900 C   0  0  0  0  0  0  0  0  0  0  0  0
  140.2659   70.6326  222.5242 H   0  0  0  0  0  0  0  0  0  0  0  0
  138.8420   70.0410  224.0980 C   0  0  0  0  0  0  0  0  0  0  0  0
  137.7909   70.3644  224.0739 H   0  0  0  0  0  0  0  0  0  0  0  0
  138.8686   69.0541  223.6129 H   0  0  0  0  0  0  0  0  0  0  0  0
  139.3490   70.0050  225.4880 C   0  0  0  0  0  0  0  0  0  0  0  0
  138.8240   69.2650  226.5510 C   0  0  0  0  0  0  0  0  0  0  0  0
  137.9434   68.6222  226.4048 H   0  0  0  0  0  0  0  0  0  0  0  0
  139.4420   69.3570  227.8110 C   0  0  0  0  0  0  0  0  0  0  0  0
  139.0469   68.7794  228.6597 H   0  0  0  0  0  0  0  0  0  0  0  0
  140.5640   70.1860  227.9880 C   0  0  0  0  0  0  0  0  0  0  0  0
  141.0416   70.2596  228.9762 H   0  0  0  0  0  0  0  0  0  0  0  0
  141.0760   70.9200  226.9060 C   0  0  0  0  0  0  0  0  0  0  0  0
  141.9546   71.5692  227.0348 H   0  0  0  0  0  0  0  0  0  0  0  0
  140.4480   70.8100  225.6620 C   0  0  0  0  0  0  0  0  0  0  0  0
  140.8290   71.5160  224.4200 C   0  0  0  0  0  0  0  0  0  0  0  0
  140.8068   72.6058  224.5679 H   0  0  0  0  0  0  0  0  0  0  0  0
  141.8507   71.2728  224.0928 H   0  0  0  0  0  0  0  0  0  0  0  0
  137.9300   71.7410  221.7920 N   0  0  0  0  0  0  0  0  0  0  0  0
  136.9710   71.9440  222.1640 H   0  0  0  0  0  0  0  0  0  0  0  0
  138.0250   72.1730  220.8480 H   0  0  0  0  0  0  0  0  0  0  0  0
  138.0220   70.7030  221.6950 H   0  0  0  0  0  0  0  0  0  0  0  0
  139.7050   74.4650  219.8690 C   0  0  0  0  0  0  0  0  0  0  0  0
  140.4113   73.6466  219.6656 H   0  0  0  0  0  0  0  0  0  0  0  0
  138.8289   74.4021  219.2068 H   0  0  0  0  0  0  0  0  0  0  0  0
  140.4110   75.8120  219.6080 C   0  0  0  0  0  0  0  0  0  0  0  0
  141.3605   75.6178  219.0878 H   0  0  0  0  0  0  0  0  0  0  0  0
  139.7359   76.4311  218.9989 H   0  0  0  0  0  0  0  0  0  0  0  0
  141.2940   79.1950  218.5620 C   0  0  0  0  0  0  0  0  0  0  0  0
  140.4887   79.7262  219.0904 H   0  0  0  0  0  0  0  0  0  0  0  0
  140.8946   78.6888  217.6708 H   0  0  0  0  0  0  0  0  0  0  0  0
  142.3550   80.2010  218.1230 C   0  0  0  0  0  0  0  0  0  0  0  0
  142.8262   80.6478  219.0108 H   0  0  0  0  0  0  0  0  0  0  0  0
  143.1196   79.6883  217.5209 H   0  0  0  0  0  0  0  0  0  0  0  0
  141.8837   80.9918  217.5209 H   0  0  0  0  0  0  0  0  0  0  0  0
  1  2  1  0
  2  3  1  0
  3  4  2  0
  4  5  1  0
  5  6  2  0
  6  7  1  0
  6  8  1  0
  8  9  1  0
  8 10  2  0
 10 11  1  0
 10 12  1  0
 12 13  1  0
 12 14  2  0
 14 15  1  0
  4 16  1  0
 16 17  1  0
 16 18  1  0
 18 19  1  0
 18 20  1  0
 18 21  1  0
 21 22  1  0
 21 23  1  0
 21 24  1  0
 24 25  1  0
 25 26  2  0
 25 27  1  0
 27 28  1  1
 27 29  1  0
 29 30  1  0
 29 31  1  0
 31 32  1  0
 31 33  1  0
 31 34  1  0
 34 35  2  0
 35 36  1  0
 35 37  1  0
 37 38  1  0
 37 39  2  0
 39 40  1  0
 39 41  1  0
 41 42  1  0
 41 43  2  0
 43 44  1  0
 44 45  1  0
 44 46  1  0
 27 47  1  0
 47 48  1  0
 47 49  1  0
 47 50  1  0
 24 51  1  0
 51 52  1  0
 51 53  1  0
 51 54  1  0
 54 55  1  0
 54 56  1  0
  3 57  1  0
 57 58  1  0
 57 59  1  0
 57 60  1  0
 60 61  1  0
 60 62  1  0
 60 63  1  0
 14  5  1  0
 54 16  1  0
 44 29  1  0
 43 34  1  0
M  CHG  2   4   1  47   1
M  END
>  <UniqueID>  (52) 
45

>  <SMILES>  (52) 
CC/C(O)=[N+](\c1ccccc1)C1CCN(C(=O)[C@@H]([NH3+])C2Cc3ccccc3C2)CC1

>  <Energy>  (52) 
93.19904003580245

>  <Genealogy>  (52) 
CCC(=O)[NH+](c1ccccc1)C1CCN(C(=O)[C@@H]([NH3+])C2Cc3ccccc3C2)CC1 (protonated)
CCC(O)=[N+](c1ccccc1)C1CCN(C(=O)[C@@H]([NH3+])C2Cc3ccccc3C2)CC1 (tautomer)
CC/C(O)=[N+](\c1ccccc1)C1CCN(C(=O)[C@@H]([NH3+])C2Cc3ccccc3C2)CC1 (cis-trans isomerization)
CC/C(O)=[N+](\c1ccccc1)C1CCN(C(=O)[C@@H]([NH3+])C2Cc3ccccc3C2)CC1 (3D coordinates assigned)
CC/C(O)=[N+](\c1ccccc1)C1CCN(C(=O)[C@@H]([NH3+])C2Cc3ccccc3C2)CC1 (nonaromatic ring conformer: 93.19904003580245 kcal/mol)

>  <smiles>  (52) 
CCC(=O)N(c1ccccc1)C1CCN(C(=O)[C@@H](N)C2Cc3ccccc3C2)CC1

>  <score_type>  (52) 
oracle

>  <origin>  (52) 
autodockgpu

>  <m_score__min__energy>  (52) 
-8.1699999999999999

>  <m_primary>  (52) 
energy

>  <meeko>  (52) 
{"free_energy": -8.17, "intermolecular_energy": -10.55, "internal_energy": -0.75, "cluster_size": 5, "cluster_id": 1, "rank_in_cluster": 1}

>  <energy>  (52) 
-6.53

>  <cluster_rmsd>  (52) 
1.73

>  <rmsd>  (52) 
270.83

>  <cluster>  (52) 
3

$$$$
MCZRVQBLWAUNOI-QBLXWANANA-P
     RDKit          3D

 63 66  0  0  0  0  0  0  0  0999 V2000
  146.6360   74.0650  218.3750 H   0  0  0  0  0  0  0  0  0  0  0  0
  146.3210   73.1820  218.7560 O   0  0  0  0  0  0  0  0  0  0  0  0
  145.3760   73.1290  219.7870 C   0  0  0  0  0  0  0  0  0  0  0  0
  144.3120   72.3600  219.6620 N   0  0  0  0  0  0  0  0  0  0  0  0
  144.4460   70.9910  219.2280 C   0  0  0  0  0  0  0  0  0  0  0  0
  144.8980   70.7030  217.9300 C   0  0  0  0  0  0  0  0  0  0  0  0
  145.1471   71.5235  217.2409 H   0  0  0  0  0  0  0  0  0  0  0  0
  145.0320   69.3770  217.5120 C   0  0  0  0  0  0  0  0  0  0  0  0
  145.3943   69.1551  216.4974 H   0  0  0  0  0  0  0  0  0  0  0  0
  144.7060   68.3300  218.3820 C   0  0  0  0  0  0  0  0  0  0  0  0
  144.8061   67.2865  218.0488 H   0  0  0  0  0  0  0  0  0  0  0  0
  144.2530   68.6110  219.6750 C   0  0  0  0  0  0  0  0  0  0  0  0
  144.0011   67.7879  220.3599 H   0  0  0  0  0  0  0  0  0  0  0  0
  144.1200   69.9370  220.0980 C   0  0  0  0  0  0  0  0  0  0  0  0
  143.7594   70.1555  221.1140 H   0  0  0  0  0  0  0  0  0  0  0  0
  142.9570   72.9260  219.8870 C   0  0  0  0  0  0  0  0  0  0  0  0
  142.9159   73.2198  220.9462 H   0  0  0  0  0  0  0  0  0  0  0  0
  142.7300   74.1640  218.9940 C   0  0  0  0  0  0  0  0  0  0  0  0
  143.4189   74.9589  219.3156 H   0  0  0  0  0  0  0  0  0  0  0  0
  142.9133   73.8567  217.9538 H   0  0  0  0  0  0  0  0  0  0  0  0
  141.2850   74.7060  219.0670 C   0  0  0  0  0  0  0  0  0  0  0  0
  141.3150   75.7619  219.3740 H   0  0  0  0  0  0  0  0  0  0  0  0
  140.8269   74.5986  218.0727 H   0  0  0  0  0  0  0  0  0  0  0  0
  140.4730   73.9530  220.0300 N   0  0  0  0  0  0  0  0  0  0  0  0
  140.0880   74.5530  221.2780 C   0  0  0  0  0  0  0  0  0  0  0  0
  140.7310   74.2520  222.3200 O   0  0  0  0  0  0  0  0  0  0  0  0
  138.9270   75.5280  221.3960 C   0  0  2  0  0  0  0  0  0  0  0  0
  138.2218   75.2225  220.6090 H   0  0  0  0  0  0  0  0  0  0  0  0
  139.2720   77.0110  221.0500 C   0  0  0  0  0  0  0  0  0  0  0  0
  138.8224   77.1241  220.0525 H   0  0  0  0  0  0  0  0  0  0  0  0
  140.8010   77.2780  221.0120 C   0  0  0  0  0  0  0  0  0  0  0  0
  141.3616   76.3838  221.3221 H   0  0  0  0  0  0  0  0  0  0  0  0
  141.1614   77.5290  220.0035 H   0  0  0  0  0  0  0  0  0  0  0  0
  140.9970   78.3820  221.9770 C   0  0  0  0  0  0  0  0  0  0  0  0
  142.2150   78.9550  222.3560 C   0  0  0  0  0  0  0  0  0  0  0  0
  143.1614   78.5930  221.9279 H   0  0  0  0  0  0  0  0  0  0  0  0
  142.2080   80.0020  223.2940 C   0  0  0  0  0  0  0  0  0  0  0  0
  143.1550   80.4696  223.6016 H   0  0  0  0  0  0  0  0  0  0  0  0
  140.9930   80.4530  223.8400 C   0  0  0  0  0  0  0  0  0  0  0  0
  140.9922   81.2692  224.5775 H   0  0  0  0  0  0  0  0  0  0  0  0
  139.7810   79.8640  223.4460 C   0  0  0  0  0  0  0  0  0  0  0  0
  138.8258   80.2117  223.8663 H   0  0  0  0  0  0  0  0  0  0  0  0
  139.8120   78.8270  222.5090 C   0  0  0  0  0  0  0  0  0  0  0  0
  138.6480   78.0770  221.9900 C   0  0  0  0  0  0  0  0  0  0  0  0
  138.0949   77.5976  222.8111 H   0  0  0  0  0  0  0  0  0  0  0  0
  137.9254   78.7249  221.4722 H   0  0  0  0  0  0  0  0  0  0  0  0
  138.2500   75.4080  222.6960 N   0  0  0  0  0  0  0  0  0  0  0  0
  138.9590   75.3670  223.4670 H   0  0  0  0  0  0  0  0  0  0  0  0
  137.6050   76.2090  222.8740 H   0  0  0  0  0  0  0  0  0  0  0  0
  137.6970   74.5200  222.7220 H   0  0  0  0  0  0  0  0  0  0  0  0
  140.4230   72.4920  219.9000 C   0  0  0  0  0  0  0  0  0  0  0  0
  140.0114   72.0651  220.8265 H   0  0  0  0  0  0  0  0  0  0  0  0
  139.7871   72.2450  219.0371 H   0  0  0  0  0  0  0  0  0  0  0  0
  141.8250   71.8950  219.6530 C   0  0  0  0  0  0  0  0  0  0  0  0
  141.9731   71.0468  220.3375 H   0  0  0  0  0  0  0  0  0  0  0  0
  141.8732   71.5779  218.6008 H   0  0  0  0  0  0  0  0  0  0  0  0
  145.6300   73.9920  221.0070 C   0  0  0  0  0  0  0  0  0  0  0  0
  144.6926   74.1054  221.5713 H   0  0  0  0  0  0  0  0  0  0  0  0
  145.9960   74.9752  220.6763 H   0  0  0  0  0  0  0  0  0  0  0  0
  146.6830   73.3520  221.9070 C   0  0  0  0  0  0  0  0  0  0  0  0
  146.4133   73.5159  222.9608 H   0  0  0  0  0  0  0  0  0  0  0  0
  146.7309   72.2719  221.7045 H   0  0  0  0  0  0  0  0  0  0  0  0
  147.6639   73.8069  221.7045 H   0  0  0  0  0  0  0  0  0  0  0  0
  1  2  1  0
  2  3  1  0
  3  4  2  0
  4  5  1  0
  5  6  2  0
  6  7  1  0
  6  8  1  0
  8  9  1  0
  8 10  2  0
 10 11  1  0
 10 12  1  0
 12 13  1  0
 12 14  2  0
 14 15  1  0
  4 16  1  0
 16 17  1  0
 16 18  1  0
 18 19  1  0
 18 20  1  0
 18 21  1  0
 21 22  1  0
 21 23  1  0
 21 24  1  0
 24 25  1  0
 25 26  2  0
 25 27  1  0
 27 28  1  6
 27 29  1  0
 29 30  1  0
 29 31  1  0
 31 32  1  0
 31 33  1  0
 31 34  1  0
 34 35  2  0
 35 36  1  0
 35 37  1  0
 37 38  1  0
 37 39  2  0
 39 40  1  0
 39 41  1  0
 41 42  1  0
 41 43  2  0
 43 44  1  0
 44 45  1  0
 44 46  1  0
 27 47  1  0
 47 48  1  0
 47 49  1  0
 47 50  1  0
 24 51  1  0
 51 52  1  0
 51 53  1  0
 51 54  1  0
 54 55  1  0
 54 56  1  0
  3 57  1  0
 57 58  1  0
 57 59  1  0
 57 60  1  0
 60 61  1  0
 60 62  1  0
 60 63  1  0
 14  5  1  0
 54 16  1  0
 44 29  1  0
 43 34  1  0
M  CHG  2   4   1  47   1
M  END
>  <UniqueID>  (53) 
45

>  <SMILES>  (53) 
CC/C(O)=[N+](\c1ccccc1)C1CCN(C(=O)[C@@H]([NH3+])C2Cc3ccccc3C2)CC1

>  <Energy>  (53) 
93.19904003580245

>  <Genealogy>  (53) 
CCC(=O)[NH+](c1ccccc1)C1CCN(C(=O)[C@@H]([NH3+])C2Cc3ccccc3C2)CC1 (protonated)
CCC(O)=[N+](c1ccccc1)C1CCN(C(=O)[C@@H]([NH3+])C2Cc3ccccc3C2)CC1 (tautomer)
CC/C(O)=[N+](\c1ccccc1)C1CCN(C(=O)[C@@H]([NH3+])C2Cc3ccccc3C2)CC1 (cis-trans isomerization)
CC/C(O)=[N+](\c1ccccc1)C1CCN(C(=O)[C@@H]([NH3+])C2Cc3ccccc3C2)CC1 (3D coordinates assigned)
CC/C(O)=[N+](\c1ccccc1)C1CCN(C(=O)[C@@H]([NH3+])C2Cc3ccccc3C2)CC1 (nonaromatic ring conformer: 93.19904003580245 kcal/mol)

>  <smiles>  (53) 
CCC(=O)N(c1ccccc1)C1CCN(C(=O)[C@@H](N)C2Cc3ccccc3C2)CC1

>  <score_type>  (53) 
oracle

>  <origin>  (53) 
autodockgpu

>  <m_score__min__energy>  (53) 
-8.1699999999999999

>  <m_primary>  (53) 
energy

>  <meeko>  (53) 
{"free_energy": -7.8, "intermolecular_energy": -10.19, "internal_energy": -1.59, "cluster_size": 5, "cluster_id": 2, "rank_in_cluster": 3}

>  <energy>  (53) 
-6.51

>  <cluster_rmsd>  (53) 
1.78

>  <rmsd>  (53) 
270.8

>  <cluster>  (53) 
3

$$$$
MCZRVQBLWAUNOI-QBLXWANANA-P
     RDKit          3D

 63 66  0  0  0  0  0  0  0  0999 V2000
  136.9140   72.9580  224.3470 H   0  0  0  0  0  0  0  0  0  0  0  0
  136.6740   72.1780  223.7480 O   0  0  0  0  0  0  0  0  0  0  0  0
  137.6350   71.2400  223.3540 C   0  0  0  0  0  0  0  0  0  0  0  0
  138.9160   71.5420  223.4270 N   0  0  0  0  0  0  0  0  0  0  0  0
  139.7370   70.9980  224.4810 C   0  0  0  0  0  0  0  0  0  0  0  0
  139.6280   69.6420  224.8320 C   0  0  0  0  0  0  0  0  0  0  0  0
  138.9121   68.9943  224.3049 H   0  0  0  0  0  0  0  0  0  0  0  0
  140.4270   69.1150  225.8490 C   0  0  0  0  0  0  0  0  0  0  0  0
  140.3441   68.0512  226.1163 H   0  0  0  0  0  0  0  0  0  0  0  0
  141.3330   69.9370  226.5290 C   0  0  0  0  0  0  0  0  0  0  0  0
  141.9570   69.5211  227.3338 H   0  0  0  0  0  0  0  0  0  0  0  0
  141.4440   71.2880  226.1840 C   0  0  0  0  0  0  0  0  0  0  0  0
  142.1590   71.9332  226.7155 H   0  0  0  0  0  0  0  0  0  0  0  0
  140.6480   71.8200  225.1650 C   0  0  0  0  0  0  0  0  0  0  0  0
  140.7352   72.8837  224.8985 H   0  0  0  0  0  0  0  0  0  0  0  0
  139.5050   72.5160  222.4720 C   0  0  0  0  0  0  0  0  0  0  0  0
  139.9977   73.2881  223.0812 H   0  0  0  0  0  0  0  0  0  0  0  0
  140.5450   71.8240  221.5640 C   0  0  0  0  0  0  0  0  0  0  0  0
  141.3923   71.4995  222.1859 H   0  0  0  0  0  0  0  0  0  0  0  0
  140.0431   70.9747  221.0775 H   0  0  0  0  0  0  0  0  0  0  0  0
  141.0800   72.7460  220.4460 C   0  0  0  0  0  0  0  0  0  0  0  0
  142.1757   72.8031  220.5245 H   0  0  0  0  0  0  0  0  0  0  0  0
  140.7764   72.3228  219.4771 H   0  0  0  0  0  0  0  0  0  0  0  0
  140.5240   74.1010  220.5490 N   0  0  0  0  0  0  0  0  0  0  0  0
  141.3530   75.1930  220.9790 C   0  0  0  0  0  0  0  0  0  0  0  0
  141.2650   75.5890  222.1730 O   0  0  0  0  0  0  0  0  0  0  0  0
  142.3250   75.9020  220.0470 C   0  0  2  0  0  0  0  0  0  0  0  0
  141.8204   75.9152  219.0697 H   0  0  0  0  0  0  0  0  0  0  0  0
  143.6600   75.1380  219.7810 C   0  0  0  0  0  0  0  0  0  0  0  0
  144.4056   75.9421  219.8682 H   0  0  0  0  0  0  0  0  0  0  0  0
  143.7040   74.4790  218.3760 C   0  0  0  0  0  0  0  0  0  0  0  0
  142.7424   74.6024  217.8562 H   0  0  0  0  0  0  0  0  0  0  0  0
  144.4643   74.9298  217.7212 H   0  0  0  0  0  0  0  0  0  0  0  0
  143.9700   73.0510  218.6570 C   0  0  0  0  0  0  0  0  0  0  0  0
  144.0440   72.0140  217.7220 C   0  0  0  0  0  0  0  0  0  0  0  0
  143.9007   72.2152  216.6501 H   0  0  0  0  0  0  0  0  0  0  0  0
  144.3050   70.7090  218.1770 C   0  0  0  0  0  0  0  0  0  0  0  0
  144.3700   69.8797  217.4573 H   0  0  0  0  0  0  0  0  0  0  0  0
  144.4830   70.4620  219.5500 C   0  0  0  0  0  0  0  0  0  0  0  0
  144.6829   69.4394  219.9026 H   0  0  0  0  0  0  0  0  0  0  0  0
  144.4060   71.5180  220.4710 C   0  0  0  0  0  0  0  0  0  0  0  0
  144.5462   71.3344  221.5465 H   0  0  0  0  0  0  0  0  0  0  0  0
  144.1480   72.8070  219.9970 C   0  0  0  0  0  0  0  0  0  0  0  0
  144.0120   74.0330  220.8120 C   0  0  0  0  0  0  0  0  0  0  0  0
  143.2076   73.9211  221.5539 H   0  0  0  0  0  0  0  0  0  0  0  0
  144.9241   74.2635  221.3820 H   0  0  0  0  0  0  0  0  0  0  0  0
  142.5580   77.2920  220.4650 N   0  0  0  0  0  0  0  0  0  0  0  0
  143.5790   77.5190  220.3990 H   0  0  0  0  0  0  0  0  0  0  0  0
  142.0230   77.9690  219.8790 H   0  0  0  0  0  0  0  0  0  0  0  0
  142.2690   77.4110  221.4640 H   0  0  0  0  0  0  0  0  0  0  0  0
  139.0650   74.2460  220.6230 C   0  0  0  0  0  0  0  0  0  0  0  0
  138.8243   75.2640  220.9633 H   0  0  0  0  0  0  0  0  0  0  0  0
  138.6494   74.0577  219.6221 H   0  0  0  0  0  0  0  0  0  0  0  0
  138.4420   73.2300  221.6030 C   0  0  0  0  0  0  0  0  0  0  0  0
  137.7438   73.7620  222.2660 H   0  0  0  0  0  0  0  0  0  0  0  0
  137.9278   72.4623  221.0062 H   0  0  0  0  0  0  0  0  0  0  0  0
  137.1320   69.9060  222.8380 C   0  0  0  0  0  0  0  0  0  0  0  0
  137.9902   69.2436  222.6516 H   0  0  0  0  0  0  0  0  0  0  0  0
  136.5720   70.0743  221.9063 H   0  0  0  0  0  0  0  0  0  0  0  0
  136.2050   69.2510  223.8580 C   0  0  0  0  0  0  0  0  0  0  0  0
  136.5484   69.4936  224.8745 H   0  0  0  0  0  0  0  0  0  0  0  0
  135.1809   69.6271  223.7174 H   0  0  0  0  0  0  0  0  0  0  0  0
  136.2175   68.1601  223.7174 H   0  0  0  0  0  0  0  0  0  0  0  0
  1  2  1  0
  2  3  1  0
  3  4  2  0
  4  5  1  0
  5  6  2  0
  6  7  1  0
  6  8  1  0
  8  9  1  0
  8 10  2  0
 10 11  1  0
 10 12  1  0
 12 13  1  0
 12 14  2  0
 14 15  1  0
  4 16  1  0
 16 17  1  0
 16 18  1  0
 18 19  1  0
 18 20  1  0
 18 21  1  0
 21 22  1  0
 21 23  1  0
 21 24  1  0
 24 25  1  0
 25 26  2  0
 25 27  1  0
 27 28  1  6
 27 29  1  0
 29 30  1  0
 29 31  1  0
 31 32  1  0
 31 33  1  0
 31 34  1  0
 34 35  2  0
 35 36  1  0
 35 37  1  0
 37 38  1  0
 37 39  2  0
 39 40  1  0
 39 41  1  0
 41 42  1  0
 41 43  2  0
 43 44  1  0
 44 45  1  0
 44 46  1  0
 27 47  1  0
 47 48  1  0
 47 49  1  0
 47 50  1  0
 24 51  1  0
 51 52  1  0
 51 53  1  0
 51 54  1  0
 54 55  1  0
 54 56  1  0
  3 57  1  0
 57 58  1  0
 57 59  1  0
 57 60  1  0
 60 61  1  0
 60 62  1  0
 60 63  1  0
 14  5  1  0
 54 16  1  0
 44 29  1  0
 43 34  1  0
M  CHG  2   4   1  47   1
M  END
>  <UniqueID>  (54) 
45

>  <SMILES>  (54) 
CC/C(O)=[N+](\c1ccccc1)C1CCN(C(=O)[C@@H]([NH3+])C2Cc3ccccc3C2)CC1

>  <Energy>  (54) 
93.19904003580245

>  <Genealogy>  (54) 
CCC(=O)[NH+](c1ccccc1)C1CCN(C(=O)[C@@H]([NH3+])C2Cc3ccccc3C2)CC1 (protonated)
CCC(O)=[N+](c1ccccc1)C1CCN(C(=O)[C@@H]([NH3+])C2Cc3ccccc3C2)CC1 (tautomer)
CC/C(O)=[N+](\c1ccccc1)C1CCN(C(=O)[C@@H]([NH3+])C2Cc3ccccc3C2)CC1 (cis-trans isomerization)
CC/C(O)=[N+](\c1ccccc1)C1CCN(C(=O)[C@@H]([NH3+])C2Cc3ccccc3C2)CC1 (3D coordinates assigned)
CC/C(O)=[N+](\c1ccccc1)C1CCN(C(=O)[C@@H]([NH3+])C2Cc3ccccc3C2)CC1 (nonaromatic ring conformer: 93.19904003580245 kcal/mol)

>  <smiles>  (54) 
CCC(=O)N(c1ccccc1)C1CCN(C(=O)[C@@H](N)C2Cc3ccccc3C2)CC1

>  <score_type>  (54) 
oracle

>  <origin>  (54) 
autodockgpu

>  <m_score__min__energy>  (54) 
-8.1699999999999999

>  <m_primary>  (54) 
energy

>  <meeko>  (54) 
{"free_energy": -6.82, "intermolecular_energy": -9.21, "internal_energy": -2.1, "cluster_size": 4, "cluster_id": 5, "rank_in_cluster": 2}

>  <energy>  (54) 
-6.51

>  <cluster_rmsd>  (54) 
1.74

>  <rmsd>  (54) 
270.87

>  <cluster>  (54) 
3

$$$$
MCZRVQBLWAUNOI-QBLXWANANA-P
     RDKit          3D

 63 66  0  0  0  0  0  0  0  0999 V2000
  136.6720   69.4200  222.2970 H   0  0  0  0  0  0  0  0  0  0  0  0
  137.3140   70.1560  222.5630 O   0  0  0  0  0  0  0  0  0  0  0  0
  138.7000   69.9810  222.4800 C   0  0  0  0  0  0  0  0  0  0  0  0
  139.5080   70.9050  222.9580 N   0  0  0  0  0  0  0  0  0  0  0  0
  139.9180   70.8740  224.3410 C   0  0  0  0  0  0  0  0  0  0  0  0
  139.4950   69.8290  225.1790 C   0  0  0  0  0  0  0  0  0  0  0  0
  138.8461   69.0347  224.7815 H   0  0  0  0  0  0  0  0  0  0  0  0
  139.8970   69.7970  226.5160 C   0  0  0  0  0  0  0  0  0  0  0  0
  139.5703   68.9732  227.1677 H   0  0  0  0  0  0  0  0  0  0  0  0
  140.7150   70.8110  227.0290 C   0  0  0  0  0  0  0  0  0  0  0  0
  141.0253   70.7871  228.0841 H   0  0  0  0  0  0  0  0  0  0  0  0
  141.1370   71.8540  226.1990 C   0  0  0  0  0  0  0  0  0  0  0  0
  141.7826   72.6486  226.6012 H   0  0  0  0  0  0  0  0  0  0  0  0
  140.7400   71.8890  224.8590 C   0  0  0  0  0  0  0  0  0  0  0  0
  141.0716   72.7123  224.2092 H   0  0  0  0  0  0  0  0  0  0  0  0
  139.9360   72.0370  222.0960 C   0  0  0  0  0  0  0  0  0  0  0  0
  140.4171   72.7692  222.7612 H   0  0  0  0  0  0  0  0  0  0  0  0
  140.9460   71.5570  221.0320 C   0  0  0  0  0  0  0  0  0  0  0  0
  141.8659   71.2352  221.5421 H   0  0  0  0  0  0  0  0  0  0  0  0
  140.4731   70.7326  220.4783 H   0  0  0  0  0  0  0  0  0  0  0  0
  141.3100   72.6530  220.0060 C   0  0  0  0  0  0  0  0  0  0  0  0
  142.4005   72.7971  220.0097 H   0  0  0  0  0  0  0  0  0  0  0  0
  140.9596   72.3265  219.0157 H   0  0  0  0  0  0  0  0  0  0  0  0
  140.6600   73.9300  220.3240 N   0  0  0  0  0  0  0  0  0  0  0  0
  141.4340   75.0310  220.8290 C   0  0  0  0  0  0  0  0  0  0  0  0
  141.4170   75.2680  222.0680 O   0  0  0  0  0  0  0  0  0  0  0  0
  142.2650   75.9320  219.9270 C   0  0  2  0  0  0  0  0  0  0  0  0
  141.7064   75.9770  218.9805 H   0  0  0  0  0  0  0  0  0  0  0  0
  143.6590   75.3570  219.5240 C   0  0  0  0  0  0  0  0  0  0  0  0
  144.2892   76.2586  219.5302 H   0  0  0  0  0  0  0  0  0  0  0  0
  143.6490   74.6860  218.1230 C   0  0  0  0  0  0  0  0  0  0  0  0
  142.6310   74.6656  217.7068 H   0  0  0  0  0  0  0  0  0  0  0  0
  144.2667   75.2268  217.3909 H   0  0  0  0  0  0  0  0  0  0  0  0
  144.1400   73.3140  218.3780 C   0  0  0  0  0  0  0  0  0  0  0  0
  144.2620   72.2820  217.4440 C   0  0  0  0  0  0  0  0  0  0  0  0
  143.9810   72.4427  216.3927 H   0  0  0  0  0  0  0  0  0  0  0  0
  144.7500   71.0350  217.8710 C   0  0  0  0  0  0  0  0  0  0  0  0
  144.8567   70.2110  217.1501 H   0  0  0  0  0  0  0  0  0  0  0  0
  145.1020   70.8390  219.2180 C   0  0  0  0  0  0  0  0  0  0  0  0
  145.4788   69.8602  219.5496 H   0  0  0  0  0  0  0  0  0  0  0  0
  144.9740   71.8890  220.1410 C   0  0  0  0  0  0  0  0  0  0  0  0
  145.2500   71.7450  221.1961 H   0  0  0  0  0  0  0  0  0  0  0  0
  144.4890   73.1210  219.6930 C   0  0  0  0  0  0  0  0  0  0  0  0
  144.2680   74.3300  220.5150 C   0  0  0  0  0  0  0  0  0  0  0  0
  143.5690   74.1200  221.3380 H   0  0  0  0  0  0  0  0  0  0  0  0
  145.1930   74.6951  220.9851 H   0  0  0  0  0  0  0  0  0  0  0  0
  142.3650   77.2940  220.4690 N   0  0  0  0  0  0  0  0  0  0  0  0
  143.3200   77.6840  220.2830 H   0  0  0  0  0  0  0  0  0  0  0  0
  141.6530   77.9320  220.0530 H   0  0  0  0  0  0  0  0  0  0  0  0
  142.2270   77.2700  221.5070 H   0  0  0  0  0  0  0  0  0  0  0  0
  139.2060   73.9350  220.5240 C   0  0  0  0  0  0  0  0  0  0  0  0
  138.9159   74.8782  221.0100 H   0  0  0  0  0  0  0  0  0  0  0  0
  138.7235   73.8347  219.5406 H   0  0  0  0  0  0  0  0  0  0  0  0
  138.7490   72.7550  221.4080 C   0  0  0  0  0  0  0  0  0  0  0  0
  138.0700   73.1377  222.1842 H   0  0  0  0  0  0  0  0  0  0  0  0
  138.2470   72.0238  220.7573 H   0  0  0  0  0  0  0  0  0  0  0  0
  139.2000   68.7150  221.8120 C   0  0  0  0  0  0  0  0  0  0  0  0
  140.2962   68.7574  221.7314 H   0  0  0  0  0  0  0  0  0  0  0  0
  138.7477   68.6391  220.8122 H   0  0  0  0  0  0  0  0  0  0  0  0
  138.8040   67.4860  222.6260 C   0  0  0  0  0  0  0  0  0  0  0  0
  138.8785   67.7172  223.6989 H   0  0  0  0  0  0  0  0  0  0  0  0
  137.7692   67.2030  222.3829 H   0  0  0  0  0  0  0  0  0  0  0  0
  139.4789   66.6521  222.3829 H   0  0  0  0  0  0  0  0  0  0  0  0
  1  2  1  0
  2  3  1  0
  3  4  2  0
  4  5  1  0
  5  6  2  0
  6  7  1  0
  6  8  1  0
  8  9  1  0
  8 10  2  0
 10 11  1  0
 10 12  1  0
 12 13  1  0
 12 14  2  0
 14 15  1  0
  4 16  1  0
 16 17  1  0
 16 18  1  0
 18 19  1  0
 18 20  1  0
 18 21  1  0
 21 22  1  0
 21 23  1  0
 21 24  1  0
 24 25  1  0
 25 26  2  0
 25 27  1  0
 27 28  1  6
 27 29  1  0
 29 30  1  0
 29 31  1  0
 31 32  1  0
 31 33  1  0
 31 34  1  0
 34 35  2  0
 35 36  1  0
 35 37  1  0
 37 38  1  0
 37 39  2  0
 39 40  1  0
 39 41  1  0
 41 42  1  0
 41 43  2  0
 43 44  1  0
 44 45  1  0
 44 46  1  0
 27 47  1  0
 47 48  1  0
 47 49  1  0
 47 50  1  0
 24 51  1  0
 51 52  1  0
 51 53  1  0
 51 54  1  0
 54 55  1  0
 54 56  1  0
  3 57  1  0
 57 58  1  0
 57 59  1  0
 57 60  1  0
 60 61  1  0
 60 62  1  0
 60 63  1  0
 14  5  1  0
 54 16  1  0
 44 29  1  0
 43 34  1  0
M  CHG  2   4   1  47   1
M  END
>  <UniqueID>  (55) 
45

>  <SMILES>  (55) 
CC/C(O)=[N+](\c1ccccc1)C1CCN(C(=O)[C@@H]([NH3+])C2Cc3ccccc3C2)CC1

>  <Energy>  (55) 
93.19904003580245

>  <Genealogy>  (55) 
CCC(=O)[NH+](c1ccccc1)C1CCN(C(=O)[C@@H]([NH3+])C2Cc3ccccc3C2)CC1 (protonated)
CCC(O)=[N+](c1ccccc1)C1CCN(C(=O)[C@@H]([NH3+])C2Cc3ccccc3C2)CC1 (tautomer)
CC/C(O)=[N+](\c1ccccc1)C1CCN(C(=O)[C@@H]([NH3+])C2Cc3ccccc3C2)CC1 (cis-trans isomerization)
CC/C(O)=[N+](\c1ccccc1)C1CCN(C(=O)[C@@H]([NH3+])C2Cc3ccccc3C2)CC1 (3D coordinates assigned)
CC/C(O)=[N+](\c1ccccc1)C1CCN(C(=O)[C@@H]([NH3+])C2Cc3ccccc3C2)CC1 (nonaromatic ring conformer: 93.19904003580245 kcal/mol)

>  <smiles>  (55) 
CCC(=O)N(c1ccccc1)C1CCN(C(=O)[C@@H](N)C2Cc3ccccc3C2)CC1

>  <score_type>  (55) 
oracle

>  <origin>  (55) 
autodockgpu

>  <m_score__min__energy>  (55) 
-8.1699999999999999

>  <m_primary>  (55) 
energy

>  <meeko>  (55) 
{"free_energy": -6.45, "intermolecular_energy": -8.83, "internal_energy": -2.29, "cluster_size": 5, "cluster_id": 3, "rank_in_cluster": 5}

>  <energy>  (55) 
-6.45

>  <cluster_rmsd>  (55) 
1.96

>  <rmsd>  (55) 
270.72

>  <cluster>  (55) 
3

$$$$
MCZRVQBLWAUNOI-QBLXWANANA-P
     RDKit          3D

 63 66  0  0  0  0  0  0  0  0999 V2000
  144.1070   77.1800  219.7640 H   0  0  0  0  0  0  0  0  0  0  0  0
  143.1430   77.0960  219.4690 O   0  0  0  0  0  0  0  0  0  0  0  0
  142.1950   78.0740  219.7900 C   0  0  0  0  0  0  0  0  0  0  0  0
  141.4540   77.9390  220.8720 N   0  0  0  0  0  0  0  0  0  0  0  0
  141.4370   78.9710  221.8800 C   0  0  0  0  0  0  0  0  0  0  0  0
  140.3920   79.9080  221.9130 C   0  0  0  0  0  0  0  0  0  0  0  0
  139.5862   79.8576  221.1659 H   0  0  0  0  0  0  0  0  0  0  0  0
  140.3730   80.9040  222.8920 C   0  0  0  0  0  0  0  0  0  0  0  0
  139.5481   81.6311  222.9200 H   0  0  0  0  0  0  0  0  0  0  0  0
  141.4030   80.9780  223.8380 C   0  0  0  0  0  0  0  0  0  0  0  0
  141.3904   81.7669  224.6044 H   0  0  0  0  0  0  0  0  0  0  0  0
  142.4470   80.0490  223.8080 C   0  0  0  0  0  0  0  0  0  0  0  0
  143.2537   80.1056  224.5537 H   0  0  0  0  0  0  0  0  0  0  0  0
  142.4680   79.0480  222.8320 C   0  0  0  0  0  0  0  0  0  0  0  0
  143.2923   78.3200  222.8093 H   0  0  0  0  0  0  0  0  0  0  0  0
  140.6960   76.6820  221.1020 C   0  0  0  0  0  0  0  0  0  0  0  0
  141.4309   75.9326  221.4313 H   0  0  0  0  0  0  0  0  0  0  0  0
  139.6300   76.8840  222.2000 C   0  0  0  0  0  0  0  0  0  0  0  0
  140.1422   77.0766  223.1542 H   0  0  0  0  0  0  0  0  0  0  0  0
  138.9992   77.7314  221.8933 H   0  0  0  0  0  0  0  0  0  0  0  0
  138.7040   75.6600  222.3770 C   0  0  0  0  0  0  0  0  0  0  0  0
  138.7531   75.3235  223.4231 H   0  0  0  0  0  0  0  0  0  0  0  0
  137.6806   75.9612  222.1088 H   0  0  0  0  0  0  0  0  0  0  0  0
  139.1010   74.5500  221.5000 N   0  0  0  0  0  0  0  0  0  0  0  0
  139.7140   73.3740  222.0530 C   0  0  0  0  0  0  0  0  0  0  0  0
  140.9650   73.2470  221.9720 O   0  0  0  0  0  0  0  0  0  0  0  0
  138.9110   72.2680  222.7210 C   0  0  2  0  0  0  0  0  0  0  0  0
  138.4029   72.7583  223.5645 H   0  0  0  0  0  0  0  0  0  0  0  0
  139.7640   71.1430  223.3860 C   0  0  0  0  0  0  0  0  0  0  0  0
  140.3152   70.7345  222.5262 H   0  0  0  0  0  0  0  0  0  0  0  0
  138.8930   70.0520  224.0660 C   0  0  0  0  0  0  0  0  0  0  0  0
  137.8272   70.3211  224.0247 H   0  0  0  0  0  0  0  0  0  0  0  0
  138.9796   69.0732  223.5716 H   0  0  0  0  0  0  0  0  0  0  0  0
  139.3750   70.0270  225.4650 C   0  0  0  0  0  0  0  0  0  0  0  0
  138.8690   69.2490  226.5100 C   0  0  0  0  0  0  0  0  0  0  0  0
  138.0261   68.5630  226.3400 H   0  0  0  0  0  0  0  0  0  0  0  0
  139.4570   69.3590  227.7830 C   0  0  0  0  0  0  0  0  0  0  0  0
  139.0762   68.7526  228.6180 H   0  0  0  0  0  0  0  0  0  0  0  0
  140.5310   70.2430  227.9900 C   0  0  0  0  0  0  0  0  0  0  0  0
  140.9856   70.3303  228.9879 H   0  0  0  0  0  0  0  0  0  0  0  0
  141.0240   71.0140  226.9260 C   0  0  0  0  0  0  0  0  0  0  0  0
  141.8650   71.7064  227.0787 H   0  0  0  0  0  0  0  0  0  0  0  0
  140.4270   70.8860  225.6690 C   0  0  0  0  0  0  0  0  0  0  0  0
  140.7940   71.6250  224.4420 C   0  0  0  0  0  0  0  0  0  0  0  0
  140.7114   72.7104  224.6007 H   0  0  0  0  0  0  0  0  0  0  0  0
  141.8332   71.4394  224.1328 H   0  0  0  0  0  0  0  0  0  0  0  0
  137.8870   71.7230  221.8180 N   0  0  0  0  0  0  0  0  0  0  0  0
  137.9330   72.2070  220.8890 H   0  0  0  0  0  0  0  0  0  0  0  0
  138.0060   70.6970  221.6700 H   0  0  0  0  0  0  0  0  0  0  0  0
  136.9370   71.8940  222.2210 H   0  0  0  0  0  0  0  0  0  0  0  0
  139.2540   74.8240  220.0660 C   0  0  0  0  0  0  0  0  0  0  0  0
  139.8014   73.9913  219.6002 H   0  0  0  0  0  0  0  0  0  0  0  0
  138.2506   74.9297  219.6277 H   0  0  0  0  0  0  0  0  0  0  0  0
  140.0290   76.1340  219.8160 C   0  0  0  0  0  0  0  0  0  0  0  0
  140.8112   75.9438  219.0663 H   0  0  0  0  0  0  0  0  0  0  0  0
  139.3083   76.8876  219.4656 H   0  0  0  0  0  0  0  0  0  0  0  0
  142.0600   79.2490  218.8410 C   0  0  0  0  0  0  0  0  0  0  0  0
  142.8162   80.0067  219.0939 H   0  0  0  0  0  0  0  0  0  0  0  0
  141.0495   79.6718  218.9414 H   0  0  0  0  0  0  0  0  0  0  0  0
  142.2640   78.7990  217.3970 C   0  0  0  0  0  0  0  0  0  0  0  0
  142.7182   77.7972  217.3858 H   0  0  0  0  0  0  0  0  0  0  0  0
  141.2924   78.7669  216.8822 H   0  0  0  0  0  0  0  0  0  0  0  0
  142.9284   79.5086  216.8822 H   0  0  0  0  0  0  0  0  0  0  0  0
  1  2  1  0
  2  3  1  0
  3  4  2  0
  4  5  1  0
  5  6  2  0
  6  7  1  0
  6  8  1  0
  8  9  1  0
  8 10  2  0
 10 11  1  0
 10 12  1  0
 12 13  1  0
 12 14  2  0
 14 15  1  0
  4 16  1  0
 16 17  1  0
 16 18  1  0
 18 19  1  0
 18 20  1  0
 18 21  1  0
 21 22  1  0
 21 23  1  0
 21 24  1  0
 24 25  1  0
 25 26  2  0
 25 27  1  0
 27 28  1  1
 27 29  1  0
 29 30  1  0
 29 31  1  0
 31 32  1  0
 31 33  1  0
 31 34  1  0
 34 35  2  0
 35 36  1  0
 35 37  1  0
 37 38  1  0
 37 39  2  0
 39 40  1  0
 39 41  1  0
 41 42  1  0
 41 43  2  0
 43 44  1  0
 44 45  1  0
 44 46  1  0
 27 47  1  0
 47 48  1  0
 47 49  1  0
 47 50  1  0
 24 51  1  0
 51 52  1  0
 51 53  1  0
 51 54  1  0
 54 55  1  0
 54 56  1  0
  3 57  1  0
 57 58  1  0
 57 59  1  0
 57 60  1  0
 60 61  1  0
 60 62  1  0
 60 63  1  0
 14  5  1  0
 54 16  1  0
 44 29  1  0
 43 34  1  0
M  CHG  2   4   1  47   1
M  END
>  <UniqueID>  (56) 
45

>  <SMILES>  (56) 
CC/C(O)=[N+](\c1ccccc1)C1CCN(C(=O)[C@@H]([NH3+])C2Cc3ccccc3C2)CC1

>  <Energy>  (56) 
93.19904003580245

>  <Genealogy>  (56) 
CCC(=O)[NH+](c1ccccc1)C1CCN(C(=O)[C@@H]([NH3+])C2Cc3ccccc3C2)CC1 (protonated)
CCC(O)=[N+](c1ccccc1)C1CCN(C(=O)[C@@H]([NH3+])C2Cc3ccccc3C2)CC1 (tautomer)
CC/C(O)=[N+](\c1ccccc1)C1CCN(C(=O)[C@@H]([NH3+])C2Cc3ccccc3C2)CC1 (cis-trans isomerization)
CC/C(O)=[N+](\c1ccccc1)C1CCN(C(=O)[C@@H]([NH3+])C2Cc3ccccc3C2)CC1 (3D coordinates assigned)
CC/C(O)=[N+](\c1ccccc1)C1CCN(C(=O)[C@@H]([NH3+])C2Cc3ccccc3C2)CC1 (nonaromatic ring conformer: 93.19904003580245 kcal/mol)

>  <smiles>  (56) 
CCC(=O)N(c1ccccc1)C1CCN(C(=O)[C@@H](N)C2Cc3ccccc3C2)CC1

>  <score_type>  (56) 
oracle

>  <origin>  (56) 
autodockgpu

>  <m_score__min__energy>  (56) 
-8.1699999999999999

>  <m_primary>  (56) 
energy

>  <meeko>  (56) 
{"free_energy": -7.97, "intermolecular_energy": -10.36, "internal_energy": -0.94, "cluster_size": 5, "cluster_id": 1, "rank_in_cluster": 2}

>  <energy>  (56) 
-6.94

>  <cluster_rmsd>  (56) 
0.0

>  <rmsd>  (56) 
270.83

>  <cluster>  (56) 
4

$$$$
MCZRVQBLWAUNOI-QBLXWANANA-P
     RDKit          3D

 63 66  0  0  0  0  0  0  0  0999 V2000
  144.2680   77.1350  219.7980 H   0  0  0  0  0  0  0  0  0  0  0  0
  143.3310   76.7520  219.7570 O   0  0  0  0  0  0  0  0  0  0  0  0
  142.2040   77.5700  219.8900 C   0  0  0  0  0  0  0  0  0  0  0  0
  141.3210   77.3220  220.8380 N   0  0  0  0  0  0  0  0  0  0  0  0
  141.0160   78.3200  221.8330 C   0  0  0  0  0  0  0  0  0  0  0  0
  141.8090   78.4310  222.9870 C   0  0  0  0  0  0  0  0  0  0  0  0
  142.6621   77.7524  223.1344 H   0  0  0  0  0  0  0  0  0  0  0  0
  141.5160   79.4020  223.9480 C   0  0  0  0  0  0  0  0  0  0  0  0
  142.1437   79.4917  224.8469 H   0  0  0  0  0  0  0  0  0  0  0  0
  140.4250   80.2610  223.7690 C   0  0  0  0  0  0  0  0  0  0  0  0
  140.1920   81.0205  224.5298 H   0  0  0  0  0  0  0  0  0  0  0  0
  139.6320   80.1530  222.6230 C   0  0  0  0  0  0  0  0  0  0  0  0
  138.7777   80.8311  222.4805 H   0  0  0  0  0  0  0  0  0  0  0  0
  139.9230   79.1840  221.6570 C   0  0  0  0  0  0  0  0  0  0  0  0
  139.2947   79.0987  220.7581 H   0  0  0  0  0  0  0  0  0  0  0  0
  140.6950   75.9780  220.9360 C   0  0  0  0  0  0  0  0  0  0  0  0
  141.4784   75.2979  221.3017 H   0  0  0  0  0  0  0  0  0  0  0  0
  139.5170   75.9990  221.9320 C   0  0  0  0  0  0  0  0  0  0  0  0
  139.9136   76.1938  222.9393 H   0  0  0  0  0  0  0  0  0  0  0  0
  138.8233   76.7868  221.6032 H   0  0  0  0  0  0  0  0  0  0  0  0
  138.7260   74.6720  221.9630 C   0  0  0  0  0  0  0  0  0  0  0  0
  138.7168   74.2859  222.9930 H   0  0  0  0  0  0  0  0  0  0  0  0
  137.7039   74.8725  221.6093 H   0  0  0  0  0  0  0  0  0  0  0  0
  139.3270   73.6640  221.0820 N   0  0  0  0  0  0  0  0  0  0  0  0
  140.0180   72.5340  221.6390 C   0  0  0  0  0  0  0  0  0  0  0  0
  141.2790   72.5510  221.6760 O   0  0  0  0  0  0  0  0  0  0  0  0
  139.2910   71.3100  222.1760 C   0  0  2  0  0  0  0  0  0  0  0  0
  138.2947   71.3476  221.7113 H   0  0  0  0  0  0  0  0  0  0  0  0
  139.0020   71.3340  223.7090 C   0  0  0  0  0  0  0  0  0  0  0  0
  138.3541   72.2177  223.8054 H   0  0  0  0  0  0  0  0  0  0  0  0
  140.2910   71.4860  224.5610 C   0  0  0  0  0  0  0  0  0  0  0  0
  141.1863   71.4639  223.9223 H   0  0  0  0  0  0  0  0  0  0  0  0
  140.3280   72.4415  225.1047 H   0  0  0  0  0  0  0  0  0  0  0  0
  140.2630   70.3160  225.4680 C   0  0  0  0  0  0  0  0  0  0  0  0
  141.2400   69.9570  226.4000 C   0  0  0  0  0  0  0  0  0  0  0  0
  142.1483   70.5655  226.5219 H   0  0  0  0  0  0  0  0  0  0  0  0
  141.0410   68.8040  227.1790 C   0  0  0  0  0  0  0  0  0  0  0  0
  141.7963   68.5064  227.9213 H   0  0  0  0  0  0  0  0  0  0  0  0
  139.8790   68.0300  227.0120 C   0  0  0  0  0  0  0  0  0  0  0  0
  139.7295   67.1259  227.6204 H   0  0  0  0  0  0  0  0  0  0  0  0
  138.9090   68.4090  226.0700 C   0  0  0  0  0  0  0  0  0  0  0  0
  137.9960   67.8108  225.9337 H   0  0  0  0  0  0  0  0  0  0  0  0
  139.1260   69.5610  225.3090 C   0  0  0  0  0  0  0  0  0  0  0  0
  138.2340   70.1040  224.2620 C   0  0  0  0  0  0  0  0  0  0  0  0
  138.0652   69.3605  223.4691 H   0  0  0  0  0  0  0  0  0  0  0  0
  137.2393   70.3678  224.6507 H   0  0  0  0  0  0  0  0  0  0  0  0
  139.9490   70.0640  221.7580 N   0  0  0  0  0  0  0  0  0  0  0  0
  140.9200   70.2670  221.4200 H   0  0  0  0  0  0  0  0  0  0  0  0
  140.0010   69.3720  222.5370 H   0  0  0  0  0  0  0  0  0  0  0  0
  139.4170   69.6360  220.9650 H   0  0  0  0  0  0  0  0  0  0  0  0
  139.5790   74.0310  219.6830 C   0  0  0  0  0  0  0  0  0  0  0  0
  140.2593   73.2907  219.2368 H   0  0  0  0  0  0  0  0  0  0  0  0
  138.6152   74.0486  219.1531 H   0  0  0  0  0  0  0  0  0  0  0  0
  140.2180   75.4310  219.5690 C   0  0  0  0  0  0  0  0  0  0  0  0
  141.0830   75.3699  218.8922 H   0  0  0  0  0  0  0  0  0  0  0  0
  139.4505   76.1183  219.1834 H   0  0  0  0  0  0  0  0  0  0  0  0
  142.0520   78.7090  218.9010 C   0  0  0  0  0  0  0  0  0  0  0  0
  142.6106   79.5829  219.2675 H   0  0  0  0  0  0  0  0  0  0  0  0
  140.9840   78.9535  218.8033 H   0  0  0  0  0  0  0  0  0  0  0  0
  142.5920   78.3070  217.5310 C   0  0  0  0  0  0  0  0  0  0  0  0
  143.4683   77.6546  217.6593 H   0  0  0  0  0  0  0  0  0  0  0  0
  141.8121   77.7679  216.9732 H   0  0  0  0  0  0  0  0  0  0  0  0
  142.8847   79.2088  216.9732 H   0  0  0  0  0  0  0  0  0  0  0  0
  1  2  1  0
  2  3  1  0
  3  4  2  0
  4  5  1  0
  5  6  2  0
  6  7  1  0
  6  8  1  0
  8  9  1  0
  8 10  2  0
 10 11  1  0
 10 12  1  0
 12 13  1  0
 12 14  2  0
 14 15  1  0
  4 16  1  0
 16 17  1  0
 16 18  1  0
 18 19  1  0
 18 20  1  0
 18 21  1  0
 21 22  1  0
 21 23  1  0
 21 24  1  0
 24 25  1  0
 25 26  2  0
 25 27  1  0
 27 28  1  6
 27 29  1  0
 29 30  1  0
 29 31  1  0
 31 32  1  0
 31 33  1  0
 31 34  1  0
 34 35  2  0
 35 36  1  0
 35 37  1  0
 37 38  1  0
 37 39  2  0
 39 40  1  0
 39 41  1  0
 41 42  1  0
 41 43  2  0
 43 44  1  0
 44 45  1  0
 44 46  1  0
 27 47  1  0
 47 48  1  0
 47 49  1  0
 47 50  1  0
 24 51  1  0
 51 52  1  0
 51 53  1  0
 51 54  1  0
 54 55  1  0
 54 56  1  0
  3 57  1  0
 57 58  1  0
 57 59  1  0
 57 60  1  0
 60 61  1  0
 60 62  1  0
 60 63  1  0
 14  5  1  0
 54 16  1  0
 44 29  1  0
 43 34  1  0
M  CHG  2   4   1  47   1
M  END
>  <UniqueID>  (57) 
45

>  <SMILES>  (57) 
CC/C(O)=[N+](\c1ccccc1)C1CCN(C(=O)[C@@H]([NH3+])C2Cc3ccccc3C2)CC1

>  <Energy>  (57) 
93.19904003580245

>  <Genealogy>  (57) 
CCC(=O)[NH+](c1ccccc1)C1CCN(C(=O)[C@@H]([NH3+])C2Cc3ccccc3C2)CC1 (protonated)
CCC(O)=[N+](c1ccccc1)C1CCN(C(=O)[C@@H]([NH3+])C2Cc3ccccc3C2)CC1 (tautomer)
CC/C(O)=[N+](\c1ccccc1)C1CCN(C(=O)[C@@H]([NH3+])C2Cc3ccccc3C2)CC1 (cis-trans isomerization)
CC/C(O)=[N+](\c1ccccc1)C1CCN(C(=O)[C@@H]([NH3+])C2Cc3ccccc3C2)CC1 (3D coordinates assigned)
CC/C(O)=[N+](\c1ccccc1)C1CCN(C(=O)[C@@H]([NH3+])C2Cc3ccccc3C2)CC1 (nonaromatic ring conformer: 93.19904003580245 kcal/mol)

>  <smiles>  (57) 
CCC(=O)N(c1ccccc1)C1CCN(C(=O)[C@@H](N)C2Cc3ccccc3C2)CC1

>  <score_type>  (57) 
oracle

>  <origin>  (57) 
autodockgpu

>  <m_score__min__energy>  (57) 
-8.1699999999999999

>  <m_primary>  (57) 
energy

>  <meeko>  (57) 
{"free_energy": -7.24, "intermolecular_energy": -9.63, "internal_energy": -1.57, "cluster_size": 5, "cluster_id": 1, "rank_in_cluster": 3}

>  <energy>  (57) 
-6.83

>  <cluster_rmsd>  (57) 
0.0

>  <rmsd>  (57) 
270.89

>  <cluster>  (57) 
5

$$$$
MCZRVQBLWAUNOI-QBLXWANANA-P
     RDKit          3D

 63 66  0  0  0  0  0  0  0  0999 V2000
  146.3730   74.2990  217.7960 H   0  0  0  0  0  0  0  0  0  0  0  0
  146.2880   73.3600  218.1630 O   0  0  0  0  0  0  0  0  0  0  0  0
  145.7300   73.1170  219.4230 C   0  0  0  0  0  0  0  0  0  0  0  0
  144.6630   72.3510  219.5320 N   0  0  0  0  0  0  0  0  0  0  0  0
  144.7740   70.9190  219.3960 C   0  0  0  0  0  0  0  0  0  0  0  0
  143.9000   70.0730  220.0980 C   0  0  0  0  0  0  0  0  0  0  0  0
  143.1317   70.5030  220.7574 H   0  0  0  0  0  0  0  0  0  0  0  0
  144.0040   68.6870  219.9610 C   0  0  0  0  0  0  0  0  0  0  0  0
  143.3116   68.0279  220.5053 H   0  0  0  0  0  0  0  0  0  0  0  0
  144.9880   68.1350  219.1320 C   0  0  0  0  0  0  0  0  0  0  0  0
  145.0734   67.0430  219.0307 H   0  0  0  0  0  0  0  0  0  0  0  0
  145.8620   68.9730  218.4330 C   0  0  0  0  0  0  0  0  0  0  0  0
  146.6320   68.5389  217.7782 H   0  0  0  0  0  0  0  0  0  0  0  0
  145.7600   70.3610  218.5640 C   0  0  0  0  0  0  0  0  0  0  0  0
  146.4519   71.0171  218.0155 H   0  0  0  0  0  0  0  0  0  0  0  0
  143.3230   72.9650  219.7120 C   0  0  0  0  0  0  0  0  0  0  0  0
  143.1066   72.9239  220.7897 H   0  0  0  0  0  0  0  0  0  0  0  0
  143.3300   74.4330  219.2360 C   0  0  0  0  0  0  0  0  0  0  0  0
  143.9910   75.0123  219.8974 H   0  0  0  0  0  0  0  0  0  0  0  0
  143.6825   74.4381  218.1940 H   0  0  0  0  0  0  0  0  0  0  0  0
  141.9280   75.0820  219.2510 C   0  0  0  0  0  0  0  0  0  0  0  0
  141.9594   75.9854  219.8778 H   0  0  0  0  0  0  0  0  0  0  0  0
  141.6532   75.3319  218.2156 H   0  0  0  0  0  0  0  0  0  0  0  0
  140.9140   74.1650  219.7870 N   0  0  0  0  0  0  0  0  0  0  0  0
  140.3420   74.3950  221.0850 C   0  0  0  0  0  0  0  0  0  0  0  0
  140.7680   73.7230  222.0640 O   0  0  0  0  0  0  0  0  0  0  0  0
  139.2340   75.4090  221.3250 C   0  0  2  0  0  0  0  0  0  0  0  0
  138.4480   75.1435  220.6027 H   0  0  0  0  0  0  0  0  0  0  0  0
  139.6010   76.8840  220.9710 C   0  0  0  0  0  0  0  0  0  0  0  0
  139.3861   76.9204  219.8928 H   0  0  0  0  0  0  0  0  0  0  0  0
  141.0890   77.2190  221.2590 C   0  0  0  0  0  0  0  0  0  0  0  0
  141.5939   76.3699  221.7428 H   0  0  0  0  0  0  0  0  0  0  0  0
  141.6590   77.4311  220.3425 H   0  0  0  0  0  0  0  0  0  0  0  0
  141.0270   78.3820  222.1710 C   0  0  0  0  0  0  0  0  0  0  0  0
  142.1080   79.0310  222.7750 C   0  0  0  0  0  0  0  0  0  0  0  0
  143.1381   78.6907  222.5929 H   0  0  0  0  0  0  0  0  0  0  0  0
  141.8550   80.1260  223.6190 C   0  0  0  0  0  0  0  0  0  0  0  0
  142.6922   80.6520  224.1010 H   0  0  0  0  0  0  0  0  0  0  0  0
  140.5340   80.5510  223.8490 C   0  0  0  0  0  0  0  0  0  0  0  0
  140.3398   81.4055  224.5139 H   0  0  0  0  0  0  0  0  0  0  0  0
  139.4630   79.8860  223.2310 C   0  0  0  0  0  0  0  0  0  0  0  0
  138.4267   80.2128  223.4024 H   0  0  0  0  0  0  0  0  0  0  0  0
  139.7380   78.8010  222.3940 C   0  0  0  0  0  0  0  0  0  0  0  0
  138.7460   77.9710  221.6770 C   0  0  0  0  0  0  0  0  0  0  0  0
  138.0372   77.5130  222.3825 H   0  0  0  0  0  0  0  0  0  0  0  0
  138.1386   78.5554  220.9702 H   0  0  0  0  0  0  0  0  0  0  0  0
  138.6770   75.2900  222.6800 N   0  0  0  0  0  0  0  0  0  0  0  0
  138.4370   76.2390  223.0550 H   0  0  0  0  0  0  0  0  0  0  0  0
  137.8200   74.6940  222.6980 H   0  0  0  0  0  0  0  0  0  0  0  0
  139.3910   74.8660  223.3170 H   0  0  0  0  0  0  0  0  0  0  0  0
  140.8090   72.8270  219.1920 C   0  0  0  0  0  0  0  0  0  0  0  0
  140.2132   72.1858  219.8583 H   0  0  0  0  0  0  0  0  0  0  0  0
  140.3281   72.9251  218.2076 H   0  0  0  0  0  0  0  0  0  0  0  0
  142.1970   72.1850  218.9890 C   0  0  0  0  0  0  0  0  0  0  0  0
  142.1713   71.1578  219.3816 H   0  0  0  0  0  0  0  0  0  0  0  0
  142.4182   72.2009  217.9116 H   0  0  0  0  0  0  0  0  0  0  0  0
  146.3930   73.7800  220.6150 C   0  0  0  0  0  0  0  0  0  0  0  0
  146.0722   74.8308  220.6690 H   0  0  0  0  0  0  0  0  0  0  0  0
  147.4845   73.7213  220.4918 H   0  0  0  0  0  0  0  0  0  0  0  0
  146.0050   73.0700  221.9090 C   0  0  0  0  0  0  0  0  0  0  0  0
  146.3335   73.6711  222.7697 H   0  0  0  0  0  0  0  0  0  0  0  0
  144.9128   72.9443  221.9450 H   0  0  0  0  0  0  0  0  0  0  0  0
  146.4891   72.0829  221.9450 H   0  0  0  0  0  0  0  0  0  0  0  0
  1  2  1  0
  2  3  1  0
  3  4  2  0
  4  5  1  0
  5  6  2  0
  6  7  1  0
  6  8  1  0
  8  9  1  0
  8 10  2  0
 10 11  1  0
 10 12  1  0
 12 13  1  0
 12 14  2  0
 14 15  1  0
  4 16  1  0
 16 17  1  0
 16 18  1  0
 18 19  1  0
 18 20  1  0
 18 21  1  0
 21 22  1  0
 21 23  1  0
 21 24  1  0
 24 25  1  0
 25 26  2  0
 25 27  1  0
 27 28  1  6
 27 29  1  0
 29 30  1  0
 29 31  1  0
 31 32  1  0
 31 33  1  0
 31 34  1  0
 34 35  2  0
 35 36  1  0
 35 37  1  0
 37 38  1  0
 37 39  2  0
 39 40  1  0
 39 41  1  0
 41 42  1  0
 41 43  2  0
 43 44  1  0
 44 45  1  0
 44 46  1  0
 27 47  1  0
 47 48  1  0
 47 49  1  0
 47 50  1  0
 24 51  1  0
 51 52  1  0
 51 53  1  0
 51 54  1  0
 54 55  1  0
 54 56  1  0
  3 57  1  0
 57 58  1  0
 57 59  1  0
 57 60  1  0
 60 61  1  0
 60 62  1  0
 60 63  1  0
 14  5  1  0
 54 16  1  0
 44 29  1  0
 43 34  1  0
M  CHG  2   4   1  47   1
M  END
>  <UniqueID>  (58) 
45

>  <SMILES>  (58) 
CC/C(O)=[N+](\c1ccccc1)C1CCN(C(=O)[C@@H]([NH3+])C2Cc3ccccc3C2)CC1

>  <Energy>  (58) 
93.19904003580245

>  <Genealogy>  (58) 
CCC(=O)[NH+](c1ccccc1)C1CCN(C(=O)[C@@H]([NH3+])C2Cc3ccccc3C2)CC1 (protonated)
CCC(O)=[N+](c1ccccc1)C1CCN(C(=O)[C@@H]([NH3+])C2Cc3ccccc3C2)CC1 (tautomer)
CC/C(O)=[N+](\c1ccccc1)C1CCN(C(=O)[C@@H]([NH3+])C2Cc3ccccc3C2)CC1 (cis-trans isomerization)
CC/C(O)=[N+](\c1ccccc1)C1CCN(C(=O)[C@@H]([NH3+])C2Cc3ccccc3C2)CC1 (3D coordinates assigned)
CC/C(O)=[N+](\c1ccccc1)C1CCN(C(=O)[C@@H]([NH3+])C2Cc3ccccc3C2)CC1 (nonaromatic ring conformer: 93.19904003580245 kcal/mol)

>  <smiles>  (58) 
CCC(=O)N(c1ccccc1)C1CCN(C(=O)[C@@H](N)C2Cc3ccccc3C2)CC1

>  <score_type>  (58) 
oracle

>  <origin>  (58) 
autodockgpu

>  <m_score__min__energy>  (58) 
-8.1699999999999999

>  <m_primary>  (58) 
energy

>  <meeko>  (58) 
{"free_energy": -7.87, "intermolecular_energy": -10.25, "internal_energy": -1.63, "cluster_size": 5, "cluster_id": 2, "rank_in_cluster": 2}

>  <energy>  (58) 
-6.82

>  <cluster_rmsd>  (58) 
0.32

>  <rmsd>  (58) 
270.9

>  <cluster>  (58) 
5

$$$$
MCZRVQBLWAUNOI-QBLXWANANA-P
     RDKit          3D

 63 66  0  0  0  0  0  0  0  0999 V2000
  136.9030   72.8780  224.2260 H   0  0  0  0  0  0  0  0  0  0  0  0
  136.6910   71.9680  223.8370 O   0  0  0  0  0  0  0  0  0  0  0  0
  137.6980   71.1410  223.3280 C   0  0  0  0  0  0  0  0  0  0  0  0
  138.9620   71.5000  223.4410 N   0  0  0  0  0  0  0  0  0  0  0  0
  139.7630   71.0190  224.5390 C   0  0  0  0  0  0  0  0  0  0  0  0
  140.6770   71.8760  225.1740 C   0  0  0  0  0  0  0  0  0  0  0  0
  140.7849   72.9152  224.8299 H   0  0  0  0  0  0  0  0  0  0  0  0
  141.4490   71.4120  226.2410 C   0  0  0  0  0  0  0  0  0  0  0  0
  142.1581   72.0884  226.7407 H   0  0  0  0  0  0  0  0  0  0  0  0
  141.3220   70.0870  226.6760 C   0  0  0  0  0  0  0  0  0  0  0  0
  141.9353   69.7213  227.5127 H   0  0  0  0  0  0  0  0  0  0  0  0
  140.4150   69.2290  226.0460 C   0  0  0  0  0  0  0  0  0  0  0  0
  140.3126   68.1893  226.3902 H   0  0  0  0  0  0  0  0  0  0  0  0
  139.6380   69.6910  224.9790 C   0  0  0  0  0  0  0  0  0  0  0  0
  138.9276   69.0131  224.4834 H   0  0  0  0  0  0  0  0  0  0  0  0
  139.5470   72.4710  222.4810 C   0  0  0  0  0  0  0  0  0  0  0  0
  140.0383   73.2465  223.0870 H   0  0  0  0  0  0  0  0  0  0  0  0
  140.5880   71.7810  221.5750 C   0  0  0  0  0  0  0  0  0  0  0  0
  141.4370   71.4620  222.1974 H   0  0  0  0  0  0  0  0  0  0  0  0
  140.0883   70.9286  221.0916 H   0  0  0  0  0  0  0  0  0  0  0  0
  141.1190   72.7000  220.4530 C   0  0  0  0  0  0  0  0  0  0  0  0
  142.2145   72.7614  220.5306 H   0  0  0  0  0  0  0  0  0  0  0  0
  140.8167   72.2717  219.4859 H   0  0  0  0  0  0  0  0  0  0  0  0
  140.5580   74.0530  220.5510 N   0  0  0  0  0  0  0  0  0  0  0  0
  141.3820   75.1510  220.9760 C   0  0  0  0  0  0  0  0  0  0  0  0
  141.2930   75.5510  222.1680 O   0  0  0  0  0  0  0  0  0  0  0  0
  142.3500   75.8590  220.0400 C   0  0  2  0  0  0  0  0  0  0  0  0
  141.8537   75.8452  219.0584 H   0  0  0  0  0  0  0  0  0  0  0  0
  143.7000   75.1140  219.7990 C   0  0  0  0  0  0  0  0  0  0  0  0
  144.4355   75.9168  219.9558 H   0  0  0  0  0  0  0  0  0  0  0  0
  143.8120   74.5210  218.3690 C   0  0  0  0  0  0  0  0  0  0  0  0
  142.8745   74.6651  217.8119 H   0  0  0  0  0  0  0  0  0  0  0  0
  144.5992   75.0044  217.7717 H   0  0  0  0  0  0  0  0  0  0  0  0
  144.0730   73.0820  218.5950 C   0  0  0  0  0  0  0  0  0  0  0  0
  144.1960   72.0900  217.6180 C   0  0  0  0  0  0  0  0  0  0  0  0
  144.1004   72.3402  216.5511 H   0  0  0  0  0  0  0  0  0  0  0  0
  144.4440   70.7670  218.0230 C   0  0  0  0  0  0  0  0  0  0  0  0
  144.5468   69.9724  217.2693 H   0  0  0  0  0  0  0  0  0  0  0  0
  144.5610   70.4570  219.3900 C   0  0  0  0  0  0  0  0  0  0  0  0
  144.7508   69.4198  219.7035 H   0  0  0  0  0  0  0  0  0  0  0  0
  144.4360   71.4690  220.3550 C   0  0  0  0  0  0  0  0  0  0  0  0
  144.5284   71.2365  221.4262 H   0  0  0  0  0  0  0  0  0  0  0  0
  144.1920   72.7770  219.9290 C   0  0  0  0  0  0  0  0  0  0  0  0
  144.0130   73.9640  220.7940 C   0  0  0  0  0  0  0  0  0  0  0  0
  143.1775   73.8148  221.4937 H   0  0  0  0  0  0  0  0  0  0  0  0
  144.8974   74.1715  221.4144 H   0  0  0  0  0  0  0  0  0  0  0  0
  142.5560   77.2600  220.4350 N   0  0  0  0  0  0  0  0  0  0  0  0
  143.5720   77.5070  220.3640 H   0  0  0  0  0  0  0  0  0  0  0  0
  142.0060   77.9170  219.8400 H   0  0  0  0  0  0  0  0  0  0  0  0
  142.2650   77.3890  221.4320 H   0  0  0  0  0  0  0  0  0  0  0  0
  139.0980   74.1920  220.6240 C   0  0  0  0  0  0  0  0  0  0  0  0
  138.8528   75.2106  220.9592 H   0  0  0  0  0  0  0  0  0  0  0  0
  138.6835   73.9969  219.6239 H   0  0  0  0  0  0  0  0  0  0  0  0
  138.4790   73.1780  221.6090 C   0  0  0  0  0  0  0  0  0  0  0  0
  137.7795   73.7103  222.2703 H   0  0  0  0  0  0  0  0  0  0  0  0
  137.9666   72.4059  221.0163 H   0  0  0  0  0  0  0  0  0  0  0  0
  137.2640   69.8590  222.6440 C   0  0  0  0  0  0  0  0  0  0  0  0
  136.4406   70.0809  221.9492 H   0  0  0  0  0  0  0  0  0  0  0  0
  136.9329   69.1429  223.4105 H   0  0  0  0  0  0  0  0  0  0  0  0
  138.4250   69.2450  221.8660 C   0  0  0  0  0  0  0  0  0  0  0  0
  139.1711   68.8504  222.5714 H   0  0  0  0  0  0  0  0  0  0  0  0
  138.0504   68.4271  221.2330 H   0  0  0  0  0  0  0  0  0  0  0  0
  138.8901   70.0150  221.2330 H   0  0  0  0  0  0  0  0  0  0  0  0
  1  2  1  0
  2  3  1  0
  3  4  2  0
  4  5  1  0
  5  6  2  0
  6  7  1  0
  6  8  1  0
  8  9  1  0
  8 10  2  0
 10 11  1  0
 10 12  1  0
 12 13  1  0
 12 14  2  0
 14 15  1  0
  4 16  1  0
 16 17  1  0
 16 18  1  0
 18 19  1  0
 18 20  1  0
 18 21  1  0
 21 22  1  0
 21 23  1  0
 21 24  1  0
 24 25  1  0
 25 26  2  0
 25 27  1  0
 27 28  1  6
 27 29  1  0
 29 30  1  0
 29 31  1  0
 31 32  1  0
 31 33  1  0
 31 34  1  0
 34 35  2  0
 35 36  1  0
 35 37  1  0
 37 38  1  0
 37 39  2  0
 39 40  1  0
 39 41  1  0
 41 42  1  0
 41 43  2  0
 43 44  1  0
 44 45  1  0
 44 46  1  0
 27 47  1  0
 47 48  1  0
 47 49  1  0
 47 50  1  0
 24 51  1  0
 51 52  1  0
 51 53  1  0
 51 54  1  0
 54 55  1  0
 54 56  1  0
  3 57  1  0
 57 58  1  0
 57 59  1  0
 57 60  1  0
 60 61  1  0
 60 62  1  0
 60 63  1  0
 14  5  1  0
 54 16  1  0
 44 29  1  0
 43 34  1  0
M  CHG  2   4   1  47   1
M  END
>  <UniqueID>  (59) 
45

>  <SMILES>  (59) 
CC/C(O)=[N+](\c1ccccc1)C1CCN(C(=O)[C@@H]([NH3+])C2Cc3ccccc3C2)CC1

>  <Energy>  (59) 
93.19904003580245

>  <Genealogy>  (59) 
CCC(=O)[NH+](c1ccccc1)C1CCN(C(=O)[C@@H]([NH3+])C2Cc3ccccc3C2)CC1 (protonated)
CCC(O)=[N+](c1ccccc1)C1CCN(C(=O)[C@@H]([NH3+])C2Cc3ccccc3C2)CC1 (tautomer)
CC/C(O)=[N+](\c1ccccc1)C1CCN(C(=O)[C@@H]([NH3+])C2Cc3ccccc3C2)CC1 (cis-trans isomerization)
CC/C(O)=[N+](\c1ccccc1)C1CCN(C(=O)[C@@H]([NH3+])C2Cc3ccccc3C2)CC1 (3D coordinates assigned)
CC/C(O)=[N+](\c1ccccc1)C1CCN(C(=O)[C@@H]([NH3+])C2Cc3ccccc3C2)CC1 (nonaromatic ring conformer: 93.19904003580245 kcal/mol)

>  <smiles>  (59) 
CCC(=O)N(c1ccccc1)C1CCN(C(=O)[C@@H](N)C2Cc3ccccc3C2)CC1

>  <score_type>  (59) 
oracle

>  <origin>  (59) 
autodockgpu

>  <m_score__min__energy>  (59) 
-8.1699999999999999

>  <m_primary>  (59) 
energy

>  <meeko>  (59) 
{"free_energy": -6.83, "intermolecular_energy": -9.21, "internal_energy": -2.15, "cluster_size": 4, "cluster_id": 5, "rank_in_cluster": 1}

>  <energy>  (59) 
-6.78

>  <cluster_rmsd>  (59) 
0.08

>  <rmsd>  (59) 
270.86

>  <cluster>  (59) 
5

$$$$
MCZRVQBLWAUNOI-QBLXWANANA-P
     RDKit          3D

 63 66  0  0  0  0  0  0  0  0999 V2000
  136.9160   72.8990  224.2600 H   0  0  0  0  0  0  0  0  0  0  0  0
  136.6820   72.0180  223.8230 O   0  0  0  0  0  0  0  0  0  0  0  0
  137.6720   71.1730  223.3080 C   0  0  0  0  0  0  0  0  0  0  0  0
  138.9410   71.5150  223.4060 N   0  0  0  0  0  0  0  0  0  0  0  0
  139.7550   71.0080  224.4840 C   0  0  0  0  0  0  0  0  0  0  0  0
  139.6180   69.6750  224.9050 C   0  0  0  0  0  0  0  0  0  0  0  0
  138.8856   69.0168  224.4147 H   0  0  0  0  0  0  0  0  0  0  0  0
  140.4100   69.1840  225.9450 C   0  0  0  0  0  0  0  0  0  0  0  0
  140.3067   68.1370  226.2660 H   0  0  0  0  0  0  0  0  0  0  0  0
  141.3350   70.0210  226.5800 C   0  0  0  0  0  0  0  0  0  0  0  0
  141.9528   69.6340  227.4038 H   0  0  0  0  0  0  0  0  0  0  0  0
  141.4730   71.3500  226.1660 C   0  0  0  0  0  0  0  0  0  0  0  0
  142.2029   72.0067  226.6621 H   0  0  0  0  0  0  0  0  0  0  0  0
  140.6850   71.8450  225.1230 C   0  0  0  0  0  0  0  0  0  0  0  0
  140.7932   72.8916  224.8020 H   0  0  0  0  0  0  0  0  0  0  0  0
  139.5220   72.4940  222.4510 C   0  0  0  0  0  0  0  0  0  0  0  0
  140.0202   73.2626  223.0601 H   0  0  0  0  0  0  0  0  0  0  0  0
  140.5540   71.8080  221.5310 C   0  0  0  0  0  0  0  0  0  0  0  0
  141.4063   71.4800  222.1441 H   0  0  0  0  0  0  0  0  0  0  0  0
  140.0479   70.9617  221.0436 H   0  0  0  0  0  0  0  0  0  0  0  0
  141.0800   72.7360  220.4140 C   0  0  0  0  0  0  0  0  0  0  0  0
  142.1764   72.7923  220.4836 H   0  0  0  0  0  0  0  0  0  0  0  0
  140.7684   72.3186  219.4451 H   0  0  0  0  0  0  0  0  0  0  0  0
  140.5250   74.0910  220.5300 N   0  0  0  0  0  0  0  0  0  0  0  0
  141.3570   75.1810  220.9590 C   0  0  0  0  0  0  0  0  0  0  0  0
  141.2790   75.5690  222.1560 O   0  0  0  0  0  0  0  0  0  0  0  0
  142.3200   75.8950  220.0230 C   0  0  2  0  0  0  0  0  0  0  0  0
  141.8098   75.9062  219.0485 H   0  0  0  0  0  0  0  0  0  0  0  0
  143.6580   75.1380  219.7500 C   0  0  0  0  0  0  0  0  0  0  0  0
  144.4001   75.9448  219.8411 H   0  0  0  0  0  0  0  0  0  0  0  0
  143.7030   74.4880  218.3400 C   0  0  0  0  0  0  0  0  0  0  0  0
  142.7404   74.6109  217.8221 H   0  0  0  0  0  0  0  0  0  0  0  0
  144.4606   74.9460  217.6871 H   0  0  0  0  0  0  0  0  0  0  0  0
  143.9750   73.0590  218.6120 C   0  0  0  0  0  0  0  0  0  0  0  0
  144.0520   72.0290  217.6700 C   0  0  0  0  0  0  0  0  0  0  0  0
  143.9064   72.2367  216.5996 H   0  0  0  0  0  0  0  0  0  0  0  0
  144.3190   70.7230  218.1160 C   0  0  0  0  0  0  0  0  0  0  0  0
  144.3873   69.8989  217.3906 H   0  0  0  0  0  0  0  0  0  0  0  0
  144.4990   70.4670  219.4870 C   0  0  0  0  0  0  0  0  0  0  0  0
  144.7028   69.4427  219.8322 H   0  0  0  0  0  0  0  0  0  0  0  0
  144.4190   71.5170  220.4160 C   0  0  0  0  0  0  0  0  0  0  0  0
  144.5607   71.3269  221.4902 H   0  0  0  0  0  0  0  0  0  0  0  0
  144.1560   72.8080  219.9500 C   0  0  0  0  0  0  0  0  0  0  0  0
  144.0170   74.0280  220.7740 C   0  0  0  0  0  0  0  0  0  0  0  0
  143.2148   73.9080  221.5170 H   0  0  0  0  0  0  0  0  0  0  0  0
  144.9291   74.2586  221.3439 H   0  0  0  0  0  0  0  0  0  0  0  0
  142.5490   77.2850  220.4410 N   0  0  0  0  0  0  0  0  0  0  0  0
  143.5700   77.5140  220.3840 H   0  0  0  0  0  0  0  0  0  0  0  0
  142.0180   77.9620  219.8490 H   0  0  0  0  0  0  0  0  0  0  0  0
  142.2490   77.4060  221.4360 H   0  0  0  0  0  0  0  0  0  0  0  0
  139.0660   74.2340  220.6160 C   0  0  0  0  0  0  0  0  0  0  0  0
  138.8269   75.2500  220.9633 H   0  0  0  0  0  0  0  0  0  0  0  0
  138.6433   74.0500  219.6173 H   0  0  0  0  0  0  0  0  0  0  0  0
  138.4510   73.2130  221.5950 C   0  0  0  0  0  0  0  0  0  0  0  0
  137.7585   73.7413  222.2669 H   0  0  0  0  0  0  0  0  0  0  0  0
  137.9312   72.4488  220.9985 H   0  0  0  0  0  0  0  0  0  0  0  0
  137.2130   69.8930  222.6380 C   0  0  0  0  0  0  0  0  0  0  0  0
  136.3429   70.1104  222.0010 H   0  0  0  0  0  0  0  0  0  0  0  0
  136.9429   69.1631  223.4154 H   0  0  0  0  0  0  0  0  0  0  0  0
  138.3290   69.3060  221.7790 C   0  0  0  0  0  0  0  0  0  0  0  0
  139.1139   68.8931  222.4297 H   0  0  0  0  0  0  0  0  0  0  0  0
  137.9207   68.5059  221.1440 H   0  0  0  0  0  0  0  0  0  0  0  0
  138.7569   70.0957  221.1440 H   0  0  0  0  0  0  0  0  0  0  0  0
  1  2  1  0
  2  3  1  0
  3  4  2  0
  4  5  1  0
  5  6  2  0
  6  7  1  0
  6  8  1  0
  8  9  1  0
  8 10  2  0
 10 11  1  0
 10 12  1  0
 12 13  1  0
 12 14  2  0
 14 15  1  0
  4 16  1  0
 16 17  1  0
 16 18  1  0
 18 19  1  0
 18 20  1  0
 18 21  1  0
 21 22  1  0
 21 23  1  0
 21 24  1  0
 24 25  1  0
 25 26  2  0
 25 27  1  0
 27 28  1  6
 27 29  1  0
 29 30  1  0
 29 31  1  0
 31 32  1  0
 31 33  1  0
 31 34  1  0
 34 35  2  0
 35 36  1  0
 35 37  1  0
 37 38  1  0
 37 39  2  0
 39 40  1  0
 39 41  1  0
 41 42  1  0
 41 43  2  0
 43 44  1  0
 44 45  1  0
 44 46  1  0
 27 47  1  0
 47 48  1  0
 47 49  1  0
 47 50  1  0
 24 51  1  0
 51 52  1  0
 51 53  1  0
 51 54  1  0
 54 55  1  0
 54 56  1  0
  3 57  1  0
 57 58  1  0
 57 59  1  0
 57 60  1  0
 60 61  1  0
 60 62  1  0
 60 63  1  0
 14  5  1  0
 54 16  1  0
 44 29  1  0
 43 34  1  0
M  CHG  2   4   1  47   1
M  END
>  <UniqueID>  (60) 
45

>  <SMILES>  (60) 
CC/C(O)=[N+](\c1ccccc1)C1CCN(C(=O)[C@@H]([NH3+])C2Cc3ccccc3C2)CC1

>  <Energy>  (60) 
93.19904003580245

>  <Genealogy>  (60) 
CCC(=O)[NH+](c1ccccc1)C1CCN(C(=O)[C@@H]([NH3+])C2Cc3ccccc3C2)CC1 (protonated)
CCC(O)=[N+](c1ccccc1)C1CCN(C(=O)[C@@H]([NH3+])C2Cc3ccccc3C2)CC1 (tautomer)
CC/C(O)=[N+](\c1ccccc1)C1CCN(C(=O)[C@@H]([NH3+])C2Cc3ccccc3C2)CC1 (cis-trans isomerization)
CC/C(O)=[N+](\c1ccccc1)C1CCN(C(=O)[C@@H]([NH3+])C2Cc3ccccc3C2)CC1 (3D coordinates assigned)
CC/C(O)=[N+](\c1ccccc1)C1CCN(C(=O)[C@@H]([NH3+])C2Cc3ccccc3C2)CC1 (nonaromatic ring conformer: 93.19904003580245 kcal/mol)

>  <smiles>  (60) 
CCC(=O)N(c1ccccc1)C1CCN(C(=O)[C@@H](N)C2Cc3ccccc3C2)CC1

>  <score_type>  (60) 
oracle

>  <origin>  (60) 
autodockgpu

>  <m_score__min__energy>  (60) 
-8.1699999999999999

>  <m_primary>  (60) 
energy

>  <meeko>  (60) 
{"free_energy": -6.78, "intermolecular_energy": -9.16, "internal_energy": -2.19, "cluster_size": 4, "cluster_id": 5, "rank_in_cluster": 3}

>  <energy>  (60) 
-6.65

>  <cluster_rmsd>  (60) 
0.32

>  <rmsd>  (60) 
270.84

>  <cluster>  (60) 
5

$$$$
LLZHWBREMUWYMR-DSLJWKJINA-P
     RDKit          3D

 63 66  0  0  0  0  0  0  0  0999 V2000
  139.6090   74.0520  222.7630 H   0  0  0  0  0  0  0  0  0  0  0  0
  140.4140   74.2550  222.1830 O   0  0  0  0  0  0  0  0  0  0  0  0
  141.1020   73.2810  221.4520 C   0  0  0  0  0  0  0  0  0  0  0  0
  141.0500   71.9810  221.7920 C   0  0  0  0  0  0  0  0  0  0  0  0
  141.5386   71.2486  221.1326 H   0  0  0  0  0  0  0  0  0  0  0  0
  140.3610   71.4810  223.0220 C   0  0  0  0  0  0  0  0  0  0  0  0
  140.8823   71.8593  223.9137 H   0  0  0  0  0  0  0  0  0  0  0  0
  139.3195   71.8349  223.0284 H   0  0  0  0  0  0  0  0  0  0  0  0
  140.3745   70.3811  223.0284 H   0  0  0  0  0  0  0  0  0  0  0  0
  141.8930   73.6970  220.3240 N   0  0  0  0  0  0  0  0  0  0  0  0
  143.2710   73.2860  220.3000 C   0  0  0  0  0  0  0  0  0  0  0  0
  144.2750   74.1080  220.8370 C   0  0  0  0  0  0  0  0  0  0  0  0
  144.0090   75.0820  221.2735 H   0  0  0  0  0  0  0  0  0  0  0  0
  145.6090   73.6960  220.8200 C   0  0  0  0  0  0  0  0  0  0  0  0
  146.3942   74.3567  221.2162 H   0  0  0  0  0  0  0  0  0  0  0  0
  145.9460   72.4430  220.2990 C   0  0  0  0  0  0  0  0  0  0  0  0
  146.9980   72.1224  220.2758 H   0  0  0  0  0  0  0  0  0  0  0  0
  144.9480   71.5980  219.8080 C   0  0  0  0  0  0  0  0  0  0  0  0
  145.2127   70.6062  219.4126 H   0  0  0  0  0  0  0  0  0  0  0  0
  143.6140   72.0120  219.8190 C   0  0  0  0  0  0  0  0  0  0  0  0
  142.8283   71.3368  219.4491 H   0  0  0  0  0  0  0  0  0  0  0  0
  141.3290   74.6860  219.3680 C   0  0  2  0  0  0  0  0  0  0  0  0
  140.4626   74.1827  218.9142 H   0  0  0  0  0  0  0  0  0  0  0  0
  142.2570   75.0300  218.1850 C   0  0  0  0  0  0  0  0  0  0  0  0
  142.7892   74.1151  217.8854 H   0  0  0  0  0  0  0  0  0  0  0  0
  141.6173   75.4292  217.3841 H   0  0  0  0  0  0  0  0  0  0  0  0
  143.3020   76.1160  218.5040 C   0  0  0  0  0  0  0  0  0  0  0  0
  144.0661   75.6775  219.1627 H   0  0  0  0  0  0  0  0  0  0  0  0
  143.7140   76.4527  217.5413 H   0  0  0  0  0  0  0  0  0  0  0  0
  142.7430   77.3150  219.1730 N   0  0  1  0  0  0  0  0  0  0  0  0
  143.5760   77.8300  219.5320 H   0  0  0  0  0  0  0  0  0  0  0  0
  142.0170   78.1910  218.2580 C   0  0  0  0  0  0  0  0  0  0  0  0
  141.1820   77.7190  217.5000 O   0  0  0  0  0  0  0  0  0  0  0  0
  142.2380   79.7020  218.2000 C   0  0  2  0  0  0  0  0  0  0  0  0
  143.2374   79.9005  218.6145 H   0  0  0  0  0  0  0  0  0  0  0  0
  141.1990   80.4410  219.0940 C   0  0  0  0  0  0  0  0  0  0  0  0
  140.6064   81.0136  218.3653 H   0  0  0  0  0  0  0  0  0  0  0  0
  141.8340   81.4110  220.1270 C   0  0  0  0  0  0  0  0  0  0  0  0
  142.9229   81.4761  219.9853 H   0  0  0  0  0  0  0  0  0  0  0  0
  141.4549   82.4394  220.0332 H   0  0  0  0  0  0  0  0  0  0  0  0
  141.5080   80.7980  221.4360 C   0  0  0  0  0  0  0  0  0  0  0  0
  141.9400   81.2310  222.6930 C   0  0  0  0  0  0  0  0  0  0  0  0
  142.6167   82.0931  222.7869 H   0  0  0  0  0  0  0  0  0  0  0  0
  141.4940   80.5450  223.8320 C   0  0  0  0  0  0  0  0  0  0  0  0
  141.8255   80.8665  224.8304 H   0  0  0  0  0  0  0  0  0  0  0  0
  140.6240   79.4470  223.7020 C   0  0  0  0  0  0  0  0  0  0  0  0
  140.2768   78.9126  224.5986 H   0  0  0  0  0  0  0  0  0  0  0  0
  140.1980   79.0320  222.4300 C   0  0  0  0  0  0  0  0  0  0  0  0
  139.5125   78.1789  222.3191 H   0  0  0  0  0  0  0  0  0  0  0  0
  140.6620   79.7240  221.3070 C   0  0  0  0  0  0  0  0  0  0  0  0
  140.2970   79.4670  219.8960 C   0  0  0  0  0  0  0  0  0  0  0  0
  140.5073   78.4228  219.6213 H   0  0  0  0  0  0  0  0  0  0  0  0
  139.2258   79.6221  219.6999 H   0  0  0  0  0  0  0  0  0  0  0  0
  142.2990   80.2350  216.8250 N   0  0  0  0  0  0  0  0  0  0  0  0
  141.7310   79.6370  216.1820 H   0  0  0  0  0  0  0  0  0  0  0  0
  141.9630   81.2210  216.7670 H   0  0  0  0  0  0  0  0  0  0  0  0
  143.2800   80.2110  216.4720 H   0  0  0  0  0  0  0  0  0  0  0  0
  141.9360   76.9750  220.3640 C   0  0  0  0  0  0  0  0  0  0  0  0
  142.6065   76.5603  221.1311 H   0  0  0  0  0  0  0  0  0  0  0  0
  141.4434   77.9015  220.6939 H   0  0  0  0  0  0  0  0  0  0  0  0
  140.8250   75.9500  220.0850 C   0  0  0  0  0  0  0  0  0  0  0  0
  140.3763   75.6518  221.0440 H   0  0  0  0  0  0  0  0  0  0  0  0
  140.0957   76.4336  219.4185 H   0  0  0  0  0  0  0  0  0  0  0  0
  1  2  1  0
  2  3  1  0
  3  4  2  0
  4  5  1  0
  4  6  1  0
  6  7  1  0
  6  8  1  0
  6  9  1  0
  3 10  1  0
 10 11  1  0
 11 12  2  0
 12 13  1  0
 12 14  1  0
 14 15  1  0
 14 16  2  0
 16 17  1  0
 16 18  1  0
 18 19  1  0
 18 20  2  0
 20 21  1  0
 10 22  1  0
 22 23  1  6
 22 24  1  0
 24 25  1  0
 24 26  1  0
 24 27  1  0
 27 28  1  0
 27 29  1  0
 27 30  1  0
 30 31  1  1
 30 32  1  0
 32 33  2  0
 32 34  1  0
 34 35  1  1
 34 36  1  0
 36 37  1  0
 36 38  1  0
 38 39  1  0
 38 40  1  0
 38 41  1  0
 41 42  2  0
 42 43  1  0
 42 44  1  0
 44 45  1  0
 44 46  2  0
 46 47  1  0
 46 48  1  0
 48 49  1  0
 48 50  2  0
 50 51  1  0
 51 52  1  0
 51 53  1  0
 34 54  1  0
 54 55  1  0
 54 56  1  0
 54 57  1  0
 30 58  1  0
 58 59  1  0
 58 60  1  0
 58 61  1  0
 61 62  1  0
 61 63  1  0
 20 11  1  0
 61 22  1  0
 51 36  1  0
 50 41  1  0
M  CHG  2  30   1  54   1
M  END
>  <UniqueID>  (61) 
46

>  <SMILES>  (61) 
C/C=C(\O)N(c1ccccc1)C1CC[NH+](C(=O)[C@@H]([NH3+])C2Cc3ccccc3C2)CC1

>  <Energy>  (61) 
93.64452830382983

>  <Genealogy>  (61) 
CCC(=O)N(c1ccccc1)C1CC[NH+](C(=O)[C@@H]([NH3+])C2Cc3ccccc3C2)CC1 (protonated)
CC=C(O)N(c1ccccc1)C1CC[NH+](C(=O)[C@@H]([NH3+])C2Cc3ccccc3C2)CC1 (tautomer)
C/C=C(\O)N(c1ccccc1)C1CC[NH+](C(=O)[C@@H]([NH3+])C2Cc3ccccc3C2)CC1 (cis-trans isomerization)
C/C=C(\O)N(c1ccccc1)C1CC[NH+](C(=O)[C@@H]([NH3+])C2Cc3ccccc3C2)CC1 (3D coordinates assigned)
C/C=C(\O)N(c1ccccc1)C1CC[NH+](C(=O)[C@@H]([NH3+])C2Cc3ccccc3C2)CC1 (nonaromatic ring conformer: 93.64452830382983 kcal/mol)

>  <smiles>  (61) 
CCC(=O)N(c1ccccc1)C1CCN(C(=O)[C@@H](N)C2Cc3ccccc3C2)CC1

>  <score_type>  (61) 
oracle

>  <origin>  (61) 
autodockgpu

>  <m_score__min__energy>  (61) 
-9.2599999999999998

>  <m_primary>  (61) 
energy

>  <meeko>  (61) 
{"free_energy": -8.67, "intermolecular_energy": -11.35, "internal_energy": -1.7, "cluster_size": 11, "cluster_id": 2, "rank_in_cluster": 5}

>  <energy>  (61) 
-9.26

>  <cluster_rmsd>  (61) 
0.0

>  <rmsd>  (61) 
269.39

>  <cluster>  (61) 
1

$$$$
LLZHWBREMUWYMR-DSLJWKJINA-P
     RDKit          3D

 63 66  0  0  0  0  0  0  0  0999 V2000
  146.4030   74.0180  218.4070 H   0  0  0  0  0  0  0  0  0  0  0  0
  146.0630   73.2090  218.9140 O   0  0  0  0  0  0  0  0  0  0  0  0
  145.1920   73.2940  220.0060 C   0  0  0  0  0  0  0  0  0  0  0  0
  145.5410   72.8300  221.2180 C   0  0  0  0  0  0  0  0  0  0  0  0
  144.9663   71.9932  221.6415 H   0  0  0  0  0  0  0  0  0  0  0  0
  146.6710   73.3930  222.0210 C   0  0  0  0  0  0  0  0  0  0  0  0
  146.4497   73.2828  223.0929 H   0  0  0  0  0  0  0  0  0  0  0  0
  147.5975   72.8512  221.7802 H   0  0  0  0  0  0  0  0  0  0  0  0
  146.7965   74.4590  221.7802 H   0  0  0  0  0  0  0  0  0  0  0  0
  143.8930   73.8800  219.8060 N   0  0  0  0  0  0  0  0  0  0  0  0
  142.7630   73.1650  220.3360 C   0  0  0  0  0  0  0  0  0  0  0  0
  141.8550   73.7990  221.2010 C   0  0  0  0  0  0  0  0  0  0  0  0
  142.0116   74.8503  221.4843 H   0  0  0  0  0  0  0  0  0  0  0  0
  140.7540   73.1000  221.7030 C   0  0  0  0  0  0  0  0  0  0  0  0
  140.0622   73.5921  222.4025 H   0  0  0  0  0  0  0  0  0  0  0  0
  140.5320   71.7750  221.3160 C   0  0  0  0  0  0  0  0  0  0  0  0
  139.6708   71.2218  221.7189 H   0  0  0  0  0  0  0  0  0  0  0  0
  141.4030   71.1530  220.4180 C   0  0  0  0  0  0  0  0  0  0  0  0
  141.2195   70.1149  220.1037 H   0  0  0  0  0  0  0  0  0  0  0  0
  142.5070   71.8490  219.9190 C   0  0  0  0  0  0  0  0  0  0  0  0
  143.1789   71.3635  219.1959 H   0  0  0  0  0  0  0  0  0  0  0  0
  143.7560   75.0500  218.9010 C   0  0  2  0  0  0  0  0  0  0  0  0
  144.7094   75.1011  218.3547 H   0  0  0  0  0  0  0  0  0  0  0  0
  143.6360   76.4060  219.6260 C   0  0  0  0  0  0  0  0  0  0  0  0
  144.2867   76.3830  220.5126 H   0  0  0  0  0  0  0  0  0  0  0  0
  143.9321   77.1807  218.9034 H   0  0  0  0  0  0  0  0  0  0  0  0
  142.2050   76.7470  220.0840 C   0  0  0  0  0  0  0  0  0  0  0  0
  141.9539   76.1042  220.9406 H   0  0  0  0  0  0  0  0  0  0  0  0
  142.2001   77.8167  220.3402 H   0  0  0  0  0  0  0  0  0  0  0  0
  141.1730   76.5530  219.0380 N   0  0  1  0  0  0  0  0  0  0  0  0
  140.2660   76.5850  219.5520 H   0  0  0  0  0  0  0  0  0  0  0  0
  141.1730   77.6140  218.0360 C   0  0  0  0  0  0  0  0  0  0  0  0
  140.5150   77.4840  217.0130 O   0  0  0  0  0  0  0  0  0  0  0  0
  141.9590   78.9150  218.1990 C   0  0  2  0  0  0  0  0  0  0  0  0
  142.9346   78.6526  218.6341 H   0  0  0  0  0  0  0  0  0  0  0  0
  141.2350   79.8690  219.1950 C   0  0  0  0  0  0  0  0  0  0  0  0
  140.6833   80.5503  218.5306 H   0  0  0  0  0  0  0  0  0  0  0  0
  142.1990   80.6870  220.0970 C   0  0  0  0  0  0  0  0  0  0  0  0
  143.2464   80.5140  219.8087 H   0  0  0  0  0  0  0  0  0  0  0  0
  142.0382   81.7722  220.0161 H   0  0  0  0  0  0  0  0  0  0  0  0
  141.9350   80.1700  221.4590 C   0  0  0  0  0  0  0  0  0  0  0  0
  142.6180   80.5100  222.6300 C   0  0  0  0  0  0  0  0  0  0  0  0
  143.4684   81.2070  222.6002 H   0  0  0  0  0  0  0  0  0  0  0  0
  142.1990   79.9460  223.8440 C   0  0  0  0  0  0  0  0  0  0  0  0
  142.7273   80.1956  224.7760 H   0  0  0  0  0  0  0  0  0  0  0  0
  141.1050   79.0620  223.8730 C   0  0  0  0  0  0  0  0  0  0  0  0
  140.7784   78.6238  224.8276 H   0  0  0  0  0  0  0  0  0  0  0  0
  140.4290   78.7380  222.6850 C   0  0  0  0  0  0  0  0  0  0  0  0
  139.5695   78.0516  222.6986 H   0  0  0  0  0  0  0  0  0  0  0  0
  140.8690   79.3040  221.4860 C   0  0  0  0  0  0  0  0  0  0  0  0
  140.2660   79.1200  220.1460 C   0  0  0  0  0  0  0  0  0  0  0  0
  140.2091   78.0528  219.8856 H   0  0  0  0  0  0  0  0  0  0  0  0
  139.2358   79.5013  220.0884 H   0  0  0  0  0  0  0  0  0  0  0  0
  142.2930   79.5660  216.9170 N   0  0  0  0  0  0  0  0  0  0  0  0
  141.9420   80.5510  216.9110 H   0  0  0  0  0  0  0  0  0  0  0  0
  143.3180   79.5620  216.7260 H   0  0  0  0  0  0  0  0  0  0  0  0
  141.8190   79.0720  216.1290 H   0  0  0  0  0  0  0  0  0  0  0  0
  141.2380   75.2130  218.4200 C   0  0  0  0  0  0  0  0  0  0  0  0
  140.9566   74.4671  219.1779 H   0  0  0  0  0  0  0  0  0  0  0  0
  140.5491   75.2210  217.5625 H   0  0  0  0  0  0  0  0  0  0  0  0
  142.6290   74.8500  217.8750 C   0  0  0  0  0  0  0  0  0  0  0  0
  142.6191   73.7935  217.5689 H   0  0  0  0  0  0  0  0  0  0  0  0
  142.8340   75.5246  217.0307 H   0  0  0  0  0  0  0  0  0  0  0  0
  1  2  1  0
  2  3  1  0
  3  4  2  0
  4  5  1  0
  4  6  1  0
  6  7  1  0
  6  8  1  0
  6  9  1  0
  3 10  1  0
 10 11  1  0
 11 12  2  0
 12 13  1  0
 12 14  1  0
 14 15  1  0
 14 16  2  0
 16 17  1  0
 16 18  1  0
 18 19  1  0
 18 20  2  0
 20 21  1  0
 10 22  1  0
 22 23  1  6
 22 24  1  0
 24 25  1  0
 24 26  1  0
 24 27  1  0
 27 28  1  0
 27 29  1  0
 27 30  1  0
 30 31  1  1
 30 32  1  0
 32 33  2  0
 32 34  1  0
 34 35  1  1
 34 36  1  0
 36 37  1  0
 36 38  1  0
 38 39  1  0
 38 40  1  0
 38 41  1  0
 41 42  2  0
 42 43  1  0
 42 44  1  0
 44 45  1  0
 44 46  2  0
 46 47  1  0
 46 48  1  0
 48 49  1  0
 48 50  2  0
 50 51  1  0
 51 52  1  0
 51 53  1  0
 34 54  1  0
 54 55  1  0
 54 56  1  0
 54 57  1  0
 30 58  1  0
 58 59  1  0
 58 60  1  0
 58 61  1  0
 61 62  1  0
 61 63  1  0
 20 11  1  0
 61 22  1  0
 51 36  1  0
 50 41  1  0
M  CHG  2  30   1  54   1
M  END
>  <UniqueID>  (62) 
46

>  <SMILES>  (62) 
C/C=C(\O)N(c1ccccc1)C1CC[NH+](C(=O)[C@@H]([NH3+])C2Cc3ccccc3C2)CC1

>  <Energy>  (62) 
93.64452830382983

>  <Genealogy>  (62) 
CCC(=O)N(c1ccccc1)C1CC[NH+](C(=O)[C@@H]([NH3+])C2Cc3ccccc3C2)CC1 (protonated)
CC=C(O)N(c1ccccc1)C1CC[NH+](C(=O)[C@@H]([NH3+])C2Cc3ccccc3C2)CC1 (tautomer)
C/C=C(\O)N(c1ccccc1)C1CC[NH+](C(=O)[C@@H]([NH3+])C2Cc3ccccc3C2)CC1 (cis-trans isomerization)
C/C=C(\O)N(c1ccccc1)C1CC[NH+](C(=O)[C@@H]([NH3+])C2Cc3ccccc3C2)CC1 (3D coordinates assigned)
C/C=C(\O)N(c1ccccc1)C1CC[NH+](C(=O)[C@@H]([NH3+])C2Cc3ccccc3C2)CC1 (nonaromatic ring conformer: 93.64452830382983 kcal/mol)

>  <smiles>  (62) 
CCC(=O)N(c1ccccc1)C1CCN(C(=O)[C@@H](N)C2Cc3ccccc3C2)CC1

>  <score_type>  (62) 
oracle

>  <origin>  (62) 
autodockgpu

>  <m_score__min__energy>  (62) 
-9.2599999999999998

>  <m_primary>  (62) 
energy

>  <meeko>  (62) 
{"free_energy": -8.08, "intermolecular_energy": -10.76, "internal_energy": -1.88, "cluster_size": 7, "cluster_id": 1, "rank_in_cluster": 3}

>  <energy>  (62) 
-9.25

>  <cluster_rmsd>  (62) 
0.3

>  <rmsd>  (62) 
269.26

>  <cluster>  (62) 
1

$$$$
LLZHWBREMUWYMR-DSLJWKJINA-P
     RDKit          3D

 63 66  0  0  0  0  0  0  0  0999 V2000
  146.3150   74.0880  218.8190 H   0  0  0  0  0  0  0  0  0  0  0  0
  146.2210   73.0860  218.9360 O   0  0  0  0  0  0  0  0  0  0  0  0
  145.0780   72.3710  218.5640 C   0  0  0  0  0  0  0  0  0  0  0  0
  144.4330   72.6300  217.4120 C   0  0  0  0  0  0  0  0  0  0  0  0
  143.9494   71.7942  216.8852 H   0  0  0  0  0  0  0  0  0  0  0  0
  144.3400   73.9970  216.8110 C   0  0  0  0  0  0  0  0  0  0  0  0
  144.2889   74.7476  217.6135 H   0  0  0  0  0  0  0  0  0  0  0  0
  145.2274   74.1852  216.1888 H   0  0  0  0  0  0  0  0  0  0  0  0
  143.4353   74.0632  216.1888 H   0  0  0  0  0  0  0  0  0  0  0  0
  144.5830   71.3520  219.4510 N   0  0  0  0  0  0  0  0  0  0  0  0
  144.8230   69.9840  219.0770 C   0  0  0  0  0  0  0  0  0  0  0  0
  146.0860   69.3990  219.2680 C   0  0  0  0  0  0  0  0  0  0  0  0
  146.9047   69.9929  219.7005 H   0  0  0  0  0  0  0  0  0  0  0  0
  146.3070   68.0660  218.9110 C   0  0  0  0  0  0  0  0  0  0  0  0
  147.3054   67.6213  219.0350 H   0  0  0  0  0  0  0  0  0  0  0  0
  145.2580   67.2980  218.3960 C   0  0  0  0  0  0  0  0  0  0  0  0
  145.4341   66.2515  218.1063 H   0  0  0  0  0  0  0  0  0  0  0  0
  143.9870   67.8580  218.2490 C   0  0  0  0  0  0  0  0  0  0  0  0
  143.1597   67.2484  217.8567 H   0  0  0  0  0  0  0  0  0  0  0  0
  143.7660   69.1920  218.6000 C   0  0  0  0  0  0  0  0  0  0  0  0
  142.7592   69.6241  218.5023 H   0  0  0  0  0  0  0  0  0  0  0  0
  143.6850   71.7380  220.5700 C   0  0  2  0  0  0  0  0  0  0  0  0
  144.0974   71.2312  221.4549 H   0  0  0  0  0  0  0  0  0  0  0  0
  142.2420   71.2080  220.4420 C   0  0  0  0  0  0  0  0  0  0  0  0
  142.2809   70.2016  219.9997 H   0  0  0  0  0  0  0  0  0  0  0  0
  141.8112   71.2089  221.4541 H   0  0  0  0  0  0  0  0  0  0  0  0
  141.3280   72.0870  219.5670 C   0  0  0  0  0  0  0  0  0  0  0  0
  141.6232   71.9529  218.5159 H   0  0  0  0  0  0  0  0  0  0  0  0
  140.2950   71.7637  219.7631 H   0  0  0  0  0  0  0  0  0  0  0  0
  141.3910   73.5320  219.8870 N   0  0  1  0  0  0  0  0  0  0  0  0
  140.9270   74.0030  219.0810 H   0  0  0  0  0  0  0  0  0  0  0  0
  140.6640   73.8770  221.1040 C   0  0  0  0  0  0  0  0  0  0  0  0
  141.0760   73.4890  222.1890 O   0  0  0  0  0  0  0  0  0  0  0  0
  139.3930   74.7250  221.1030 C   0  0  2  0  0  0  0  0  0  0  0  0
  138.7303   74.3146  220.3269 H   0  0  0  0  0  0  0  0  0  0  0  0
  139.7190   76.1990  220.7190 C   0  0  0  0  0  0  0  0  0  0  0  0
  139.7223   76.1746  219.6193 H   0  0  0  0  0  0  0  0  0  0  0  0
  141.0980   76.6940  221.2340 C   0  0  0  0  0  0  0  0  0  0  0  0
  141.6547   75.8746  221.7122 H   0  0  0  0  0  0  0  0  0  0  0  0
  141.7443   77.0673  220.4260 H   0  0  0  0  0  0  0  0  0  0  0  0
  140.7520   77.7430  222.2210 C   0  0  0  0  0  0  0  0  0  0  0  0
  141.6390   78.4380  223.0480 C   0  0  0  0  0  0  0  0  0  0  0  0
  142.7149   78.2093  223.0335 H   0  0  0  0  0  0  0  0  0  0  0  0
  141.1310   79.4330  223.8970 C   0  0  0  0  0  0  0  0  0  0  0  0
  141.8112   79.9879  224.5599 H   0  0  0  0  0  0  0  0  0  0  0  0
  139.7550   79.7230  223.9030 C   0  0  0  0  0  0  0  0  0  0  0  0
  139.3615   80.5046  224.5695 H   0  0  0  0  0  0  0  0  0  0  0  0
  138.8820   79.0160  223.0590 C   0  0  0  0  0  0  0  0  0  0  0  0
  137.8051   79.2401  223.0520 H   0  0  0  0  0  0  0  0  0  0  0  0
  139.4080   78.0230  222.2290 C   0  0  0  0  0  0  0  0  0  0  0  0
  138.6620   77.2040  221.2470 C   0  0  0  0  0  0  0  0  0  0  0  0
  137.8276   76.6758  221.7315 H   0  0  0  0  0  0  0  0  0  0  0  0
  138.2134   77.8082  220.4447 H   0  0  0  0  0  0  0  0  0  0  0  0
  138.6110   74.6150  222.3510 N   0  0  0  0  0  0  0  0  0  0  0  0
  138.7850   75.4470  222.9600 H   0  0  0  0  0  0  0  0  0  0  0  0
  137.5870   74.5260  222.1700 H   0  0  0  0  0  0  0  0  0  0  0  0
  138.9140   73.7760  222.8920 H   0  0  0  0  0  0  0  0  0  0  0  0
  142.7760   74.0480  219.9100 C   0  0  0  0  0  0  0  0  0  0  0  0
  143.1778   74.0103  218.8867 H   0  0  0  0  0  0  0  0  0  0  0  0
  142.7306   75.0735  220.3054 H   0  0  0  0  0  0  0  0  0  0  0  0
  143.7160   73.2530  220.8300 C   0  0  0  0  0  0  0  0  0  0  0  0
  144.7437   73.6129  220.6739 H   0  0  0  0  0  0  0  0  0  0  0  0
  143.3726   73.4130  221.8627 H   0  0  0  0  0  0  0  0  0  0  0  0
  1  2  1  0
  2  3  1  0
  3  4  2  0
  4  5  1  0
  4  6  1  0
  6  7  1  0
  6  8  1  0
  6  9  1  0
  3 10  1  0
 10 11  1  0
 11 12  2  0
 12 13  1  0
 12 14  1  0
 14 15  1  0
 14 16  2  0
 16 17  1  0
 16 18  1  0
 18 19  1  0
 18 20  2  0
 20 21  1  0
 10 22  1  0
 22 23  1  1
 22 24  1  0
 24 25  1  0
 24 26  1  0
 24 27  1  0
 27 28  1  0
 27 29  1  0
 27 30  1  0
 30 31  1  6
 30 32  1  0
 32 33  2  0
 32 34  1  0
 34 35  1  6
 34 36  1  0
 36 37  1  0
 36 38  1  0
 38 39  1  0
 38 40  1  0
 38 41  1  0
 41 42  2  0
 42 43  1  0
 42 44  1  0
 44 45  1  0
 44 46  2  0
 46 47  1  0
 46 48  1  0
 48 49  1  0
 48 50  2  0
 50 51  1  0
 51 52  1  0
 51 53  1  0
 34 54  1  0
 54 55  1  0
 54 56  1  0
 54 57  1  0
 30 58  1  0
 58 59  1  0
 58 60  1  0
 58 61  1  0
 61 62  1  0
 61 63  1  0
 20 11  1  0
 61 22  1  0
 51 36  1  0
 50 41  1  0
M  CHG  2  30   1  54   1
M  END
>  <UniqueID>  (63) 
46

>  <SMILES>  (63) 
C/C=C(\O)N(c1ccccc1)C1CC[NH+](C(=O)[C@@H]([NH3+])C2Cc3ccccc3C2)CC1

>  <Energy>  (63) 
93.64452830382983

>  <Genealogy>  (63) 
CCC(=O)N(c1ccccc1)C1CC[NH+](C(=O)[C@@H]([NH3+])C2Cc3ccccc3C2)CC1 (protonated)
CC=C(O)N(c1ccccc1)C1CC[NH+](C(=O)[C@@H]([NH3+])C2Cc3ccccc3C2)CC1 (tautomer)
C/C=C(\O)N(c1ccccc1)C1CC[NH+](C(=O)[C@@H]([NH3+])C2Cc3ccccc3C2)CC1 (cis-trans isomerization)
C/C=C(\O)N(c1ccccc1)C1CC[NH+](C(=O)[C@@H]([NH3+])C2Cc3ccccc3C2)CC1 (3D coordinates assigned)
C/C=C(\O)N(c1ccccc1)C1CC[NH+](C(=O)[C@@H]([NH3+])C2Cc3ccccc3C2)CC1 (nonaromatic ring conformer: 93.64452830382983 kcal/mol)

>  <smiles>  (63) 
CCC(=O)N(c1ccccc1)C1CCN(C(=O)[C@@H](N)C2Cc3ccccc3C2)CC1

>  <score_type>  (63) 
oracle

>  <origin>  (63) 
autodockgpu

>  <m_score__min__energy>  (63) 
-9.2599999999999998

>  <m_primary>  (63) 
energy

>  <meeko>  (63) 
{"free_energy": -7.26, "intermolecular_energy": -9.94, "internal_energy": -1.64, "cluster_size": 1, "cluster_id": 3, "rank_in_cluster": 1}

>  <energy>  (63) 
-8.08

>  <cluster_rmsd>  (63) 
1.67

>  <rmsd>  (63) 
269.36

>  <cluster>  (63) 
1

$$$$
LLZHWBREMUWYMR-DSLJWKJINA-P
     RDKit          3D

 63 66  0  0  0  0  0  0  0  0999 V2000
  139.5460   74.0590  222.8760 H   0  0  0  0  0  0  0  0  0  0  0  0
  140.3560   74.2900  222.3140 O   0  0  0  0  0  0  0  0  0  0  0  0
  141.0270   73.3620  221.5120 C   0  0  0  0  0  0  0  0  0  0  0  0
  140.9620   72.0430  221.7620 C   0  0  0  0  0  0  0  0  0  0  0  0
  141.3873   71.3500  221.0212 H   0  0  0  0  0  0  0  0  0  0  0  0
  140.3410   71.4690  222.9960 C   0  0  0  0  0  0  0  0  0  0  0  0
  140.8170   71.9090  223.8847 H   0  0  0  0  0  0  0  0  0  0  0  0
  139.2650   71.6975  223.0053 H   0  0  0  0  0  0  0  0  0  0  0  0
  140.4843   70.3784  223.0053 H   0  0  0  0  0  0  0  0  0  0  0  0
  141.8140   73.8470  220.4080 N   0  0  0  0  0  0  0  0  0  0  0  0
  143.1960   73.4500  220.3630 C   0  0  0  0  0  0  0  0  0  0  0  0
  144.2040   74.3040  220.8380 C   0  0  0  0  0  0  0  0  0  0  0  0
  143.9383   75.2919  221.2423 H   0  0  0  0  0  0  0  0  0  0  0  0
  145.5430   73.9060  220.8000 C   0  0  0  0  0  0  0  0  0  0  0  0
  146.3310   74.5905  221.1471 H   0  0  0  0  0  0  0  0  0  0  0  0
  145.8800   72.6360  220.3200 C   0  0  0  0  0  0  0  0  0  0  0  0
  146.9345   72.3253  220.2803 H   0  0  0  0  0  0  0  0  0  0  0  0
  144.8780   71.7620  219.8910 C   0  0  0  0  0  0  0  0  0  0  0  0
  145.1432   70.7585  219.5268 H   0  0  0  0  0  0  0  0  0  0  0  0
  143.5400   72.1610  219.9240 C   0  0  0  0  0  0  0  0  0  0  0  0
  142.7522   71.4628  219.6048 H   0  0  0  0  0  0  0  0  0  0  0  0
  141.2410   74.8820  219.5090 C   0  0  2  0  0  0  0  0  0  0  0  0
  140.2647   74.4814  219.1984 H   0  0  0  0  0  0  0  0  0  0  0  0
  142.0260   75.0910  218.1970 C   0  0  0  0  0  0  0  0  0  0  0  0
  142.3982   74.1132  217.8573 H   0  0  0  0  0  0  0  0  0  0  0  0
  141.3305   75.5522  217.4803 H   0  0  0  0  0  0  0  0  0  0  0  0
  143.2260   76.0460  218.3300 C   0  0  0  0  0  0  0  0  0  0  0  0
  144.0194   75.5281  218.8889 H   0  0  0  0  0  0  0  0  0  0  0  0
  143.5322   76.3148  217.3083 H   0  0  0  0  0  0  0  0  0  0  0  0
  142.9150   77.3150  219.0310 N   0  0  1  0  0  0  0  0  0  0  0  0
  143.8450   77.7300  219.2530 H   0  0  0  0  0  0  0  0  0  0  0  0
  142.1760   78.2580  218.1970 C   0  0  0  0  0  0  0  0  0  0  0  0
  141.3270   77.8450  217.4200 O   0  0  0  0  0  0  0  0  0  0  0  0
  142.3980   79.7690  218.2510 C   0  0  2  0  0  0  0  0  0  0  0  0
  143.3550   79.9384  218.7661 H   0  0  0  0  0  0  0  0  0  0  0  0
  141.2800   80.4570  219.0900 C   0  0  0  0  0  0  0  0  0  0  0  0
  140.6863   80.9846  218.3290 H   0  0  0  0  0  0  0  0  0  0  0  0
  141.8120   81.4760  220.1330 C   0  0  0  0  0  0  0  0  0  0  0  0
  142.9001   81.6042  220.0356 H   0  0  0  0  0  0  0  0  0  0  0  0
  141.3770   82.4785  220.0077 H   0  0  0  0  0  0  0  0  0  0  0  0
  141.4680   80.8620  221.4360 C   0  0  0  0  0  0  0  0  0  0  0  0
  141.8200   81.3370  222.7030 C   0  0  0  0  0  0  0  0  0  0  0  0
  142.4393   82.2396  222.8112 H   0  0  0  0  0  0  0  0  0  0  0  0
  141.3680   80.6400  223.8340 C   0  0  0  0  0  0  0  0  0  0  0  0
  141.6384   80.9931  224.8401 H   0  0  0  0  0  0  0  0  0  0  0  0
  140.5700   79.4910  223.6850 C   0  0  0  0  0  0  0  0  0  0  0  0
  140.2164   78.9488  224.5744 H   0  0  0  0  0  0  0  0  0  0  0  0
  140.2240   79.0350  222.4020 C   0  0  0  0  0  0  0  0  0  0  0  0
  139.5959   78.1409  222.2756 H   0  0  0  0  0  0  0  0  0  0  0  0
  140.6930   79.7390  221.2890 C   0  0  0  0  0  0  0  0  0  0  0  0
  140.4040   79.4410  219.8680 C   0  0  0  0  0  0  0  0  0  0  0  0
  140.6878   78.4078  219.6189 H   0  0  0  0  0  0  0  0  0  0  0  0
  139.3348   79.5280  219.6246 H   0  0  0  0  0  0  0  0  0  0  0  0
  142.5820   80.3840  216.9210 N   0  0  0  0  0  0  0  0  0  0  0  0
  143.4950   80.8940  216.8840 H   0  0  0  0  0  0  0  0  0  0  0  0
  142.5470   79.6810  216.1510 H   0  0  0  0  0  0  0  0  0  0  0  0
  141.8340   81.0890  216.7450 H   0  0  0  0  0  0  0  0  0  0  0  0
  142.2510   77.0950  220.3330 C   0  0  0  0  0  0  0  0  0  0  0  0
  142.9699   76.6139  221.0125 H   0  0  0  0  0  0  0  0  0  0  0  0
  141.9235   78.0799  220.6972 H   0  0  0  0  0  0  0  0  0  0  0  0
  140.9980   76.2090  220.2460 C   0  0  0  0  0  0  0  0  0  0  0  0
  140.6582   75.9837  221.2677 H   0  0  0  0  0  0  0  0  0  0  0  0
  140.2439   76.7671  219.6717 H   0  0  0  0  0  0  0  0  0  0  0  0
  1  2  1  0
  2  3  1  0
  3  4  2  0
  4  5  1  0
  4  6  1  0
  6  7  1  0
  6  8  1  0
  6  9  1  0
  3 10  1  0
 10 11  1  0
 11 12  2  0
 12 13  1  0
 12 14  1  0
 14 15  1  0
 14 16  2  0
 16 17  1  0
 16 18  1  0
 18 19  1  0
 18 20  2  0
 20 21  1  0
 10 22  1  0
 22 23  1  6
 22 24  1  0
 24 25  1  0
 24 26  1  0
 24 27  1  0
 27 28  1  0
 27 29  1  0
 27 30  1  0
 30 31  1  1
 30 32  1  0
 32 33  2  0
 32 34  1  0
 34 35  1  1
 34 36  1  0
 36 37  1  0
 36 38  1  0
 38 39  1  0
 38 40  1  0
 38 41  1  0
 41 42  2  0
 42 43  1  0
 42 44  1  0
 44 45  1  0
 44 46  2  0
 46 47  1  0
 46 48  1  0
 48 49  1  0
 48 50  2  0
 50 51  1  0
 51 52  1  0
 51 53  1  0
 34 54  1  0
 54 55  1  0
 54 56  1  0
 54 57  1  0
 30 58  1  0
 58 59  1  0
 58 60  1  0
 58 61  1  0
 61 62  1  0
 61 63  1  0
 20 11  1  0
 61 22  1  0
 51 36  1  0
 50 41  1  0
M  CHG  2  30   1  54   1
M  END
>  <UniqueID>  (64) 
46

>  <SMILES>  (64) 
C/C=C(\O)N(c1ccccc1)C1CC[NH+](C(=O)[C@@H]([NH3+])C2Cc3ccccc3C2)CC1

>  <Energy>  (64) 
93.64452830382983

>  <Genealogy>  (64) 
CCC(=O)N(c1ccccc1)C1CC[NH+](C(=O)[C@@H]([NH3+])C2Cc3ccccc3C2)CC1 (protonated)
CC=C(O)N(c1ccccc1)C1CC[NH+](C(=O)[C@@H]([NH3+])C2Cc3ccccc3C2)CC1 (tautomer)
C/C=C(\O)N(c1ccccc1)C1CC[NH+](C(=O)[C@@H]([NH3+])C2Cc3ccccc3C2)CC1 (cis-trans isomerization)
C/C=C(\O)N(c1ccccc1)C1CC[NH+](C(=O)[C@@H]([NH3+])C2Cc3ccccc3C2)CC1 (3D coordinates assigned)
C/C=C(\O)N(c1ccccc1)C1CC[NH+](C(=O)[C@@H]([NH3+])C2Cc3ccccc3C2)CC1 (nonaromatic ring conformer: 93.64452830382983 kcal/mol)

>  <smiles>  (64) 
CCC(=O)N(c1ccccc1)C1CCN(C(=O)[C@@H](N)C2Cc3ccccc3C2)CC1

>  <score_type>  (64) 
oracle

>  <origin>  (64) 
autodockgpu

>  <m_score__min__energy>  (64) 
-9.2599999999999998

>  <m_primary>  (64) 
energy

>  <meeko>  (64) 
{"free_energy": -8.94, "intermolecular_energy": -11.62, "internal_energy": -1.6, "cluster_size": 11, "cluster_id": 2, "rank_in_cluster": 2}

>  <energy>  (64) 
-8.04

>  <cluster_rmsd>  (64) 
1.7

>  <rmsd>  (64) 
269.35

>  <cluster>  (64) 
1

$$$$
LLZHWBREMUWYMR-DSLJWKJINA-P
     RDKit          3D

 63 66  0  0  0  0  0  0  0  0999 V2000
  139.5680   73.8800  222.8520 H   0  0  0  0  0  0  0  0  0  0  0  0
  140.3520   74.1350  222.2630 O   0  0  0  0  0  0  0  0  0  0  0  0
  141.0880   73.2080  221.5170 C   0  0  0  0  0  0  0  0  0  0  0  0
  141.1060   71.9030  221.8420 C   0  0  0  0  0  0  0  0  0  0  0  0
  141.7639   71.2317  221.2705 H   0  0  0  0  0  0  0  0  0  0  0  0
  140.2770   71.3180  222.9410 C   0  0  0  0  0  0  0  0  0  0  0  0
  140.6964   71.6139  223.9139 H   0  0  0  0  0  0  0  0  0  0  0  0
  139.2446   71.6888  222.8587 H   0  0  0  0  0  0  0  0  0  0  0  0
  140.2803   70.2211  222.8587 H   0  0  0  0  0  0  0  0  0  0  0  0
  141.8500   73.6790  220.3910 N   0  0  0  0  0  0  0  0  0  0  0  0
  143.2360   73.3010  220.3320 C   0  0  0  0  0  0  0  0  0  0  0  0
  144.2310   74.1390  220.8610 C   0  0  0  0  0  0  0  0  0  0  0  0
  143.9513   75.0991  221.3193 H   0  0  0  0  0  0  0  0  0  0  0  0
  145.5750   73.7590  220.8080 C   0  0  0  0  0  0  0  0  0  0  0  0
  146.3530   74.4322  221.1973 H   0  0  0  0  0  0  0  0  0  0  0  0
  145.9300   72.5230  220.2600 C   0  0  0  0  0  0  0  0  0  0  0  0
  146.9884   72.2278  220.2096 H   0  0  0  0  0  0  0  0  0  0  0  0
  144.9410   71.6620  219.7760 C   0  0  0  0  0  0  0  0  0  0  0  0
  145.2205   70.6837  219.3578 H   0  0  0  0  0  0  0  0  0  0  0  0
  143.5980   72.0430  219.8230 C   0  0  0  0  0  0  0  0  0  0  0  0
  142.8205   71.3548  219.4598 H   0  0  0  0  0  0  0  0  0  0  0  0
  141.2470   74.6850  219.4780 C   0  0  2  0  0  0  0  0  0  0  0  0
  140.3169   74.2217  219.1172 H   0  0  0  0  0  0  0  0  0  0  0  0
  142.0730   74.9680  218.2060 C   0  0  0  0  0  0  0  0  0  0  0  0
  142.5277   74.0239  217.8714 H   0  0  0  0  0  0  0  0  0  0  0  0
  141.3800   75.3903  217.4634 H   0  0  0  0  0  0  0  0  0  0  0  0
  143.1970   76.0030  218.4070 C   0  0  0  0  0  0  0  0  0  0  0  0
  143.9982   75.5331  218.9963 H   0  0  0  0  0  0  0  0  0  0  0  0
  143.5309   76.3081  217.4043 H   0  0  0  0  0  0  0  0  0  0  0  0
  142.7650   77.2360  219.1080 N   0  0  1  0  0  0  0  0  0  0  0  0
  143.6530   77.7110  219.3780 H   0  0  0  0  0  0  0  0  0  0  0  0
  142.0000   78.1370  218.2520 C   0  0  0  0  0  0  0  0  0  0  0  0
  141.1290   77.6880  217.5200 O   0  0  0  0  0  0  0  0  0  0  0  0
  142.2210   79.6490  218.2260 C   0  0  2  0  0  0  0  0  0  0  0  0
  143.2234   79.8370  218.6381 H   0  0  0  0  0  0  0  0  0  0  0  0
  141.1890   80.3690  219.1430 C   0  0  0  0  0  0  0  0  0  0  0  0
  140.5577   80.9145  218.4262 H   0  0  0  0  0  0  0  0  0  0  0  0
  141.8260   81.3710  220.1440 C   0  0  0  0  0  0  0  0  0  0  0  0
  142.9075   81.4669  219.9672 H   0  0  0  0  0  0  0  0  0  0  0  0
  141.4128   82.3861  220.0497 H   0  0  0  0  0  0  0  0  0  0  0  0
  141.5600   80.7660  221.4700 C   0  0  0  0  0  0  0  0  0  0  0  0
  142.0170   81.2290  222.7070 C   0  0  0  0  0  0  0  0  0  0  0  0
  142.6691   82.1127  222.7688 H   0  0  0  0  0  0  0  0  0  0  0  0
  141.6280   80.5450  223.8680 C   0  0  0  0  0  0  0  0  0  0  0  0
  141.9809   80.8893  224.8513 H   0  0  0  0  0  0  0  0  0  0  0  0
  140.7880   79.4200  223.7790 C   0  0  0  0  0  0  0  0  0  0  0  0
  140.4846   78.8878  224.6927 H   0  0  0  0  0  0  0  0  0  0  0  0
  140.3360   78.9750  222.5260 C   0  0  0  0  0  0  0  0  0  0  0  0
  139.6745   78.0997  222.4471 H   0  0  0  0  0  0  0  0  0  0  0  0
  140.7430   79.6660  221.3810 C   0  0  0  0  0  0  0  0  0  0  0  0
  140.3420   79.3790  219.9850 C   0  0  0  0  0  0  0  0  0  0  0  0
  140.5753   78.3380  219.7169 H   0  0  0  0  0  0  0  0  0  0  0  0
  139.2610   79.4991  219.8207 H   0  0  0  0  0  0  0  0  0  0  0  0
  142.2730   80.2130  216.8630 N   0  0  0  0  0  0  0  0  0  0  0  0
  143.2600   80.2350  216.5190 H   0  0  0  0  0  0  0  0  0  0  0  0
  141.6840   79.6760  216.1890 H   0  0  0  0  0  0  0  0  0  0  0  0
  141.9330   81.2000  216.8680 H   0  0  0  0  0  0  0  0  0  0  0  0
  142.0600   76.9510  220.3750 C   0  0  0  0  0  0  0  0  0  0  0  0
  142.7795   76.5118  221.0817 H   0  0  0  0  0  0  0  0  0  0  0  0
  141.6474   77.9049  220.7352 H   0  0  0  0  0  0  0  0  0  0  0  0
  140.8780   75.9800  220.2190 C   0  0  0  0  0  0  0  0  0  0  0  0
  140.5091   75.7156  221.2210 H   0  0  0  0  0  0  0  0  0  0  0  0
  140.1133   76.4926  219.6169 H   0  0  0  0  0  0  0  0  0  0  0  0
  1  2  1  0
  2  3  1  0
  3  4  2  0
  4  5  1  0
  4  6  1  0
  6  7  1  0
  6  8  1  0
  6  9  1  0
  3 10  1  0
 10 11  1  0
 11 12  2  0
 12 13  1  0
 12 14  1  0
 14 15  1  0
 14 16  2  0
 16 17  1  0
 16 18  1  0
 18 19  1  0
 18 20  2  0
 20 21  1  0
 10 22  1  0
 22 23  1  6
 22 24  1  0
 24 25  1  0
 24 26  1  0
 24 27  1  0
 27 28  1  0
 27 29  1  0
 27 30  1  0
 30 31  1  1
 30 32  1  0
 32 33  2  0
 32 34  1  0
 34 35  1  1
 34 36  1  0
 36 37  1  0
 36 38  1  0
 38 39  1  0
 38 40  1  0
 38 41  1  0
 41 42  2  0
 42 43  1  0
 42 44  1  0
 44 45  1  0
 44 46  2  0
 46 47  1  0
 46 48  1  0
 48 49  1  0
 48 50  2  0
 50 51  1  0
 51 52  1  0
 51 53  1  0
 34 54  1  0
 54 55  1  0
 54 56  1  0
 54 57  1  0
 30 58  1  0
 58 59  1  0
 58 60  1  0
 58 61  1  0
 61 62  1  0
 61 63  1  0
 20 11  1  0
 61 22  1  0
 51 36  1  0
 50 41  1  0
M  CHG  2  30   1  54   1
M  END
>  <UniqueID>  (65) 
46

>  <SMILES>  (65) 
C/C=C(\O)N(c1ccccc1)C1CC[NH+](C(=O)[C@@H]([NH3+])C2Cc3ccccc3C2)CC1

>  <Energy>  (65) 
93.64452830382983

>  <Genealogy>  (65) 
CCC(=O)N(c1ccccc1)C1CC[NH+](C(=O)[C@@H]([NH3+])C2Cc3ccccc3C2)CC1 (protonated)
CC=C(O)N(c1ccccc1)C1CC[NH+](C(=O)[C@@H]([NH3+])C2Cc3ccccc3C2)CC1 (tautomer)
C/C=C(\O)N(c1ccccc1)C1CC[NH+](C(=O)[C@@H]([NH3+])C2Cc3ccccc3C2)CC1 (cis-trans isomerization)
C/C=C(\O)N(c1ccccc1)C1CC[NH+](C(=O)[C@@H]([NH3+])C2Cc3ccccc3C2)CC1 (3D coordinates assigned)
C/C=C(\O)N(c1ccccc1)C1CC[NH+](C(=O)[C@@H]([NH3+])C2Cc3ccccc3C2)CC1 (nonaromatic ring conformer: 93.64452830382983 kcal/mol)

>  <smiles>  (65) 
CCC(=O)N(c1ccccc1)C1CCN(C(=O)[C@@H](N)C2Cc3ccccc3C2)CC1

>  <score_type>  (65) 
oracle

>  <origin>  (65) 
autodockgpu

>  <m_score__min__energy>  (65) 
-9.2599999999999998

>  <m_primary>  (65) 
energy

>  <meeko>  (65) 
{"free_energy": -8.77, "intermolecular_energy": -11.45, "internal_energy": -1.64, "cluster_size": 11, "cluster_id": 2, "rank_in_cluster": 4}

>  <energy>  (65) 
-8.02

>  <cluster_rmsd>  (65) 
1.6

>  <rmsd>  (65) 
269.35

>  <cluster>  (65) 
1

$$$$
LLZHWBREMUWYMR-DSLJWKJINA-P
     RDKit          3D

 63 66  0  0  0  0  0  0  0  0999 V2000
  139.3180   73.9980  222.7790 H   0  0  0  0  0  0  0  0  0  0  0  0
  140.2050   74.2090  222.3360 O   0  0  0  0  0  0  0  0  0  0  0  0
  140.8660   73.3250  221.4770 C   0  0  0  0  0  0  0  0  0  0  0  0
  140.7450   71.9930  221.6120 C   0  0  0  0  0  0  0  0  0  0  0  0
  141.0853   71.5302  222.5501 H   0  0  0  0  0  0  0  0  0  0  0  0
  140.1710   71.1080  220.5510 C   0  0  0  0  0  0  0  0  0  0  0  0
  139.6301   70.2741  221.0222 H   0  0  0  0  0  0  0  0  0  0  0  0
  139.4769   71.6884  219.9254 H   0  0  0  0  0  0  0  0  0  0  0  0
  140.9840   70.7109  219.9254 H   0  0  0  0  0  0  0  0  0  0  0  0
  141.7040   73.8690  220.4410 N   0  0  0  0  0  0  0  0  0  0  0  0
  143.0980   73.5170  220.4720 C   0  0  0  0  0  0  0  0  0  0  0  0
  143.5260   72.2460  220.0550 C   0  0  0  0  0  0  0  0  0  0  0  0
  142.7886   71.5071  219.7083 H   0  0  0  0  0  0  0  0  0  0  0  0
  144.8830   71.9150  220.0780 C   0  0  0  0  0  0  0  0  0  0  0  0
  145.2094   70.9083  219.7779 H   0  0  0  0  0  0  0  0  0  0  0  0
  145.8260   72.8650  220.4830 C   0  0  0  0  0  0  0  0  0  0  0  0
  146.8939   72.6024  220.5102 H   0  0  0  0  0  0  0  0  0  0  0  0
  145.4130   74.1470  220.8530 C   0  0  0  0  0  0  0  0  0  0  0  0
  146.1572   74.8974  221.1580 H   0  0  0  0  0  0  0  0  0  0  0  0
  144.0560   74.4770  220.8360 C   0  0  0  0  0  0  0  0  0  0  0  0
  143.7362   75.4935  221.1090 H   0  0  0  0  0  0  0  0  0  0  0  0
  141.1540   74.9140  219.5380 C   0  0  2  0  0  0  0  0  0  0  0  0
  140.1738   74.5298  219.2192 H   0  0  0  0  0  0  0  0  0  0  0  0
  141.9520   75.1110  218.2320 C   0  0  0  0  0  0  0  0  0  0  0  0
  142.3109   74.1276  217.8941 H   0  0  0  0  0  0  0  0  0  0  0  0
  141.2697   75.5835  217.5100 H   0  0  0  0  0  0  0  0  0  0  0  0
  143.1670   76.0470  218.3760 C   0  0  0  0  0  0  0  0  0  0  0  0
  143.9471   75.5161  218.9414 H   0  0  0  0  0  0  0  0  0  0  0  0
  143.4867   76.3113  217.3572 H   0  0  0  0  0  0  0  0  0  0  0  0
  142.8700   77.3200  219.0750 N   0  0  1  0  0  0  0  0  0  0  0  0
  143.8060   77.7200  219.3050 H   0  0  0  0  0  0  0  0  0  0  0  0
  142.1530   78.2750  218.2370 C   0  0  0  0  0  0  0  0  0  0  0  0
  141.2950   77.8780  217.4610 O   0  0  0  0  0  0  0  0  0  0  0  0
  142.4090   79.7810  218.2830 C   0  0  2  0  0  0  0  0  0  0  0  0
  143.3664   79.9308  218.8035 H   0  0  0  0  0  0  0  0  0  0  0  0
  141.3020   80.5000  219.1100 C   0  0  0  0  0  0  0  0  0  0  0  0
  140.8449   81.1813  218.3773 H   0  0  0  0  0  0  0  0  0  0  0  0
  141.8460   81.3180  220.3120 C   0  0  0  0  0  0  0  0  0  0  0  0
  142.9460   81.3216  220.3174 H   0  0  0  0  0  0  0  0  0  0  0  0
  141.5401   82.3741  220.2802 H   0  0  0  0  0  0  0  0  0  0  0  0
  141.3150   80.6040  221.4970 C   0  0  0  0  0  0  0  0  0  0  0  0
  141.5970   80.8820  222.8370 C   0  0  0  0  0  0  0  0  0  0  0  0
  142.3005   81.6833  223.1071 H   0  0  0  0  0  0  0  0  0  0  0  0
  140.9660   80.1200  223.8310 C   0  0  0  0  0  0  0  0  0  0  0  0
  141.1794   80.3182  224.8918 H   0  0  0  0  0  0  0  0  0  0  0  0
  140.0610   79.1030  223.4760 C   0  0  0  0  0  0  0  0  0  0  0  0
  139.5673   78.5091  224.2593 H   0  0  0  0  0  0  0  0  0  0  0  0
  139.7870   78.8450  222.1230 C   0  0  0  0  0  0  0  0  0  0  0  0
  139.0759   78.0566  221.8355 H   0  0  0  0  0  0  0  0  0  0  0  0
  140.4350   79.6090  221.1490 C   0  0  0  0  0  0  0  0  0  0  0  0
  140.2490   79.5160  219.6820 C   0  0  0  0  0  0  0  0  0  0  0  0
  140.4372   78.4918  219.3277 H   0  0  0  0  0  0  0  0  0  0  0  0
  139.2238   79.7616  219.3678 H   0  0  0  0  0  0  0  0  0  0  0  0
  142.6160   80.3840  216.9510 N   0  0  0  0  0  0  0  0  0  0  0  0
  142.6600   79.6360  216.2200 H   0  0  0  0  0  0  0  0  0  0  0  0
  141.8660   81.0650  216.7030 H   0  0  0  0  0  0  0  0  0  0  0  0
  143.5290   80.8880  216.9220 H   0  0  0  0  0  0  0  0  0  0  0  0
  142.1940   77.1100  220.3720 C   0  0  0  0  0  0  0  0  0  0  0  0
  142.9003   76.6168  221.0560 H   0  0  0  0  0  0  0  0  0  0  0  0
  141.8802   78.0997  220.7352 H   0  0  0  0  0  0  0  0  0  0  0  0
  140.9270   76.2440  220.2750 C   0  0  0  0  0  0  0  0  0  0  0  0
  140.5764   76.0230  221.2939 H   0  0  0  0  0  0  0  0  0  0  0  0
  140.1860   76.8147  219.6961 H   0  0  0  0  0  0  0  0  0  0  0  0
  1  2  1  0
  2  3  1  0
  3  4  2  0
  4  5  1  0
  4  6  1  0
  6  7  1  0
  6  8  1  0
  6  9  1  0
  3 10  1  0
 10 11  1  0
 11 12  2  0
 12 13  1  0
 12 14  1  0
 14 15  1  0
 14 16  2  0
 16 17  1  0
 16 18  1  0
 18 19  1  0
 18 20  2  0
 20 21  1  0
 10 22  1  0
 22 23  1  6
 22 24  1  0
 24 25  1  0
 24 26  1  0
 24 27  1  0
 27 28  1  0
 27 29  1  0
 27 30  1  0
 30 31  1  1
 30 32  1  0
 32 33  2  0
 32 34  1  0
 34 35  1  1
 34 36  1  0
 36 37  1  0
 36 38  1  0
 38 39  1  0
 38 40  1  0
 38 41  1  0
 41 42  2  0
 42 43  1  0
 42 44  1  0
 44 45  1  0
 44 46  2  0
 46 47  1  0
 46 48  1  0
 48 49  1  0
 48 50  2  0
 50 51  1  0
 51 52  1  0
 51 53  1  0
 34 54  1  0
 54 55  1  0
 54 56  1  0
 54 57  1  0
 30 58  1  0
 58 59  1  0
 58 60  1  0
 58 61  1  0
 61 62  1  0
 61 63  1  0
 20 11  1  0
 61 22  1  0
 51 36  1  0
 50 41  1  0
M  CHG  2  30   1  54   1
M  END
>  <UniqueID>  (66) 
46

>  <SMILES>  (66) 
C/C=C(\O)N(c1ccccc1)C1CC[NH+](C(=O)[C@@H]([NH3+])C2Cc3ccccc3C2)CC1

>  <Energy>  (66) 
93.64452830382983

>  <Genealogy>  (66) 
CCC(=O)N(c1ccccc1)C1CC[NH+](C(=O)[C@@H]([NH3+])C2Cc3ccccc3C2)CC1 (protonated)
CC=C(O)N(c1ccccc1)C1CC[NH+](C(=O)[C@@H]([NH3+])C2Cc3ccccc3C2)CC1 (tautomer)
C/C=C(\O)N(c1ccccc1)C1CC[NH+](C(=O)[C@@H]([NH3+])C2Cc3ccccc3C2)CC1 (cis-trans isomerization)
C/C=C(\O)N(c1ccccc1)C1CC[NH+](C(=O)[C@@H]([NH3+])C2Cc3ccccc3C2)CC1 (3D coordinates assigned)
C/C=C(\O)N(c1ccccc1)C1CC[NH+](C(=O)[C@@H]([NH3+])C2Cc3ccccc3C2)CC1 (nonaromatic ring conformer: 93.64452830382983 kcal/mol)

>  <smiles>  (66) 
CCC(=O)N(c1ccccc1)C1CCN(C(=O)[C@@H](N)C2Cc3ccccc3C2)CC1

>  <score_type>  (66) 
oracle

>  <origin>  (66) 
autodockgpu

>  <m_score__min__energy>  (66) 
-9.2599999999999998

>  <m_primary>  (66) 
energy

>  <meeko>  (66) 
{"free_energy": -8.65, "intermolecular_energy": -11.33, "internal_energy": -1.71, "cluster_size": 11, "cluster_id": 2, "rank_in_cluster": 6}

>  <energy>  (66) 
-7.97

>  <cluster_rmsd>  (66) 
1.68

>  <rmsd>  (66) 
269.29

>  <cluster>  (66) 
1

$$$$
LLZHWBREMUWYMR-DSLJWKJINA-P
     RDKit          3D

 63 66  0  0  0  0  0  0  0  0999 V2000
  139.5010   74.0560  222.8500 H   0  0  0  0  0  0  0  0  0  0  0  0
  140.3080   74.2950  222.2860 O   0  0  0  0  0  0  0  0  0  0  0  0
  141.0540   73.3520  221.5710 C   0  0  0  0  0  0  0  0  0  0  0  0
  141.0810   72.0580  221.9340 C   0  0  0  0  0  0  0  0  0  0  0  0
  141.6864   71.3607  221.3362 H   0  0  0  0  0  0  0  0  0  0  0  0
  140.3300   71.5180  223.1090 C   0  0  0  0  0  0  0  0  0  0  0  0
  140.8075   71.8613  224.0386 H   0  0  0  0  0  0  0  0  0  0  0  0
  139.2907   71.8769  223.0764 H   0  0  0  0  0  0  0  0  0  0  0  0
  140.3394   70.4185  223.0764 H   0  0  0  0  0  0  0  0  0  0  0  0
  141.8180   73.7970  220.4350 N   0  0  0  0  0  0  0  0  0  0  0  0
  143.1870   73.3640  220.3550 C   0  0  0  0  0  0  0  0  0  0  0  0
  144.2250   74.1700  220.8510 C   0  0  0  0  0  0  0  0  0  0  0  0
  143.9924   75.1472  221.2992 H   0  0  0  0  0  0  0  0  0  0  0  0
  145.5510   73.7370  220.7780 C   0  0  0  0  0  0  0  0  0  0  0  0
  146.3621   74.3851  221.1415 H   0  0  0  0  0  0  0  0  0  0  0  0
  145.8470   72.4800  220.2430 C   0  0  0  0  0  0  0  0  0  0  0  0
  146.8919   72.1427  220.1770 H   0  0  0  0  0  0  0  0  0  0  0  0
  144.8160   71.6520  219.7920 C   0  0  0  0  0  0  0  0  0  0  0  0
  145.0487   70.6574  219.3838 H   0  0  0  0  0  0  0  0  0  0  0  0
  143.4900   72.0860  219.8590 C   0  0  0  0  0  0  0  0  0  0  0  0
  142.6794   71.4234  219.5216 H   0  0  0  0  0  0  0  0  0  0  0  0
  141.2430   74.8290  219.5340 C   0  0  2  0  0  0  0  0  0  0  0  0
  140.2732   74.4201  219.2142 H   0  0  0  0  0  0  0  0  0  0  0  0
  142.0360   75.0490  218.2290 C   0  0  0  0  0  0  0  0  0  0  0  0
  142.4201   74.0758  217.8893 H   0  0  0  0  0  0  0  0  0  0  0  0
  141.3420   75.5054  217.5078 H   0  0  0  0  0  0  0  0  0  0  0  0
  143.2260   76.0150  218.3750 C   0  0  0  0  0  0  0  0  0  0  0  0
  144.0192   75.5029  218.9395 H   0  0  0  0  0  0  0  0  0  0  0  0
  143.5381   76.2894  217.3565 H   0  0  0  0  0  0  0  0  0  0  0  0
  142.8980   77.2790  219.0760 N   0  0  1  0  0  0  0  0  0  0  0  0
  143.8230   77.7020  219.3070 H   0  0  0  0  0  0  0  0  0  0  0  0
  142.1570   78.2170  218.2400 C   0  0  0  0  0  0  0  0  0  0  0  0
  141.3030   77.8010  217.4690 O   0  0  0  0  0  0  0  0  0  0  0  0
  142.3820   79.7280  218.2820 C   0  0  2  0  0  0  0  0  0  0  0  0
  143.3414   79.8981  218.7925 H   0  0  0  0  0  0  0  0  0  0  0  0
  141.2690   80.4250  219.1200 C   0  0  0  0  0  0  0  0  0  0  0  0
  140.6529   80.9192  218.3544 H   0  0  0  0  0  0  0  0  0  0  0  0
  141.8030   81.4850  220.1200 C   0  0  0  0  0  0  0  0  0  0  0  0
  142.8868   81.6276  219.9977 H   0  0  0  0  0  0  0  0  0  0  0  0
  141.3486   82.4757  219.9714 H   0  0  0  0  0  0  0  0  0  0  0  0
  141.4940   80.9080  221.4480 C   0  0  0  0  0  0  0  0  0  0  0  0
  141.8610   81.4280  222.6920 C   0  0  0  0  0  0  0  0  0  0  0  0
  142.4672   82.3434  222.7598 H   0  0  0  0  0  0  0  0  0  0  0  0
  141.4420   80.7610  223.8530 C   0  0  0  0  0  0  0  0  0  0  0  0
  141.7250   81.1509  224.8419 H   0  0  0  0  0  0  0  0  0  0  0  0
  140.6610   79.5950  223.7560 C   0  0  0  0  0  0  0  0  0  0  0  0
  140.3332   79.0762  224.6689 H   0  0  0  0  0  0  0  0  0  0  0  0
  140.2990   79.0920  222.4950 C   0  0  0  0  0  0  0  0  0  0  0  0
  139.6840   78.1840  222.4093 H   0  0  0  0  0  0  0  0  0  0  0  0
  140.7350   79.7670  221.3520 C   0  0  0  0  0  0  0  0  0  0  0  0
  140.4250   79.4200  219.9460 C   0  0  0  0  0  0  0  0  0  0  0  0
  140.7215   78.3843  219.7238 H   0  0  0  0  0  0  0  0  0  0  0  0
  139.3502   79.4821  219.7204 H   0  0  0  0  0  0  0  0  0  0  0  0
  142.5630   80.3340  216.9470 N   0  0  0  0  0  0  0  0  0  0  0  0
  141.9950   81.2080  216.8690 H   0  0  0  0  0  0  0  0  0  0  0  0
  143.5630   80.5510  216.7430 H   0  0  0  0  0  0  0  0  0  0  0  0
  142.2200   79.6820  216.2080 H   0  0  0  0  0  0  0  0  0  0  0  0
  142.2260   77.0490  220.3730 C   0  0  0  0  0  0  0  0  0  0  0  0
  142.9440   76.5723  221.0566 H   0  0  0  0  0  0  0  0  0  0  0  0
  141.8870   78.0297  220.7381 H   0  0  0  0  0  0  0  0  0  0  0  0
  140.9820   76.1520  220.2730 C   0  0  0  0  0  0  0  0  0  0  0  0
  140.6358   75.9206  221.2911 H   0  0  0  0  0  0  0  0  0  0  0  0
  140.2277   76.7049  219.6939 H   0  0  0  0  0  0  0  0  0  0  0  0
  1  2  1  0
  2  3  1  0
  3  4  2  0
  4  5  1  0
  4  6  1  0
  6  7  1  0
  6  8  1  0
  6  9  1  0
  3 10  1  0
 10 11  1  0
 11 12  2  0
 12 13  1  0
 12 14  1  0
 14 15  1  0
 14 16  2  0
 16 17  1  0
 16 18  1  0
 18 19  1  0
 18 20  2  0
 20 21  1  0
 10 22  1  0
 22 23  1  6
 22 24  1  0
 24 25  1  0
 24 26  1  0
 24 27  1  0
 27 28  1  0
 27 29  1  0
 27 30  1  0
 30 31  1  1
 30 32  1  0
 32 33  2  0
 32 34  1  0
 34 35  1  1
 34 36  1  0
 36 37  1  0
 36 38  1  0
 38 39  1  0
 38 40  1  0
 38 41  1  0
 41 42  2  0
 42 43  1  0
 42 44  1  0
 44 45  1  0
 44 46  2  0
 46 47  1  0
 46 48  1  0
 48 49  1  0
 48 50  2  0
 50 51  1  0
 51 52  1  0
 51 53  1  0
 34 54  1  0
 54 55  1  0
 54 56  1  0
 54 57  1  0
 30 58  1  0
 58 59  1  0
 58 60  1  0
 58 61  1  0
 61 62  1  0
 61 63  1  0
 20 11  1  0
 61 22  1  0
 51 36  1  0
 50 41  1  0
M  CHG  2  30   1  54   1
M  END
>  <UniqueID>  (67) 
46

>  <SMILES>  (67) 
C/C=C(\O)N(c1ccccc1)C1CC[NH+](C(=O)[C@@H]([NH3+])C2Cc3ccccc3C2)CC1

>  <Energy>  (67) 
93.64452830382983

>  <Genealogy>  (67) 
CCC(=O)N(c1ccccc1)C1CC[NH+](C(=O)[C@@H]([NH3+])C2Cc3ccccc3C2)CC1 (protonated)
CC=C(O)N(c1ccccc1)C1CC[NH+](C(=O)[C@@H]([NH3+])C2Cc3ccccc3C2)CC1 (tautomer)
C/C=C(\O)N(c1ccccc1)C1CC[NH+](C(=O)[C@@H]([NH3+])C2Cc3ccccc3C2)CC1 (cis-trans isomerization)
C/C=C(\O)N(c1ccccc1)C1CC[NH+](C(=O)[C@@H]([NH3+])C2Cc3ccccc3C2)CC1 (3D coordinates assigned)
C/C=C(\O)N(c1ccccc1)C1CC[NH+](C(=O)[C@@H]([NH3+])C2Cc3ccccc3C2)CC1 (nonaromatic ring conformer: 93.64452830382983 kcal/mol)

>  <smiles>  (67) 
CCC(=O)N(c1ccccc1)C1CCN(C(=O)[C@@H](N)C2Cc3ccccc3C2)CC1

>  <score_type>  (67) 
oracle

>  <origin>  (67) 
autodockgpu

>  <m_score__min__energy>  (67) 
-9.2599999999999998

>  <m_primary>  (67) 
energy

>  <meeko>  (67) 
{"free_energy": -8.86, "intermolecular_energy": -11.55, "internal_energy": -1.66, "cluster_size": 11, "cluster_id": 2, "rank_in_cluster": 3}

>  <energy>  (67) 
-7.72

>  <cluster_rmsd>  (67) 
1.52

>  <rmsd>  (67) 
269.32

>  <cluster>  (67) 
1

$$$$
LLZHWBREMUWYMR-DSLJWKJINA-P
     RDKit          3D

 63 66  0  0  0  0  0  0  0  0999 V2000
  146.4640   73.8450  218.2990 H   0  0  0  0  0  0  0  0  0  0  0  0
  146.1210   73.0820  218.8690 O   0  0  0  0  0  0  0  0  0  0  0  0
  145.2470   73.2580  219.9470 C   0  0  0  0  0  0  0  0  0  0  0  0
  145.5640   72.8340  221.1830 C   0  0  0  0  0  0  0  0  0  0  0  0
  144.9586   72.0322  221.6310 H   0  0  0  0  0  0  0  0  0  0  0  0
  146.6980   73.3970  221.9800 C   0  0  0  0  0  0  0  0  0  0  0  0
  146.4811   73.2893  223.0530 H   0  0  0  0  0  0  0  0  0  0  0  0
  147.6228   72.8534  221.7365 H   0  0  0  0  0  0  0  0  0  0  0  0
  146.8240   74.4623  221.7365 H   0  0  0  0  0  0  0  0  0  0  0  0
  143.9780   73.8930  219.7080 N   0  0  0  0  0  0  0  0  0  0  0  0
  142.7990   73.1730  220.1060 C   0  0  0  0  0  0  0  0  0  0  0  0
  142.5130   71.9100  219.5650 C   0  0  0  0  0  0  0  0  0  0  0  0
  143.1923   71.4665  218.8221 H   0  0  0  0  0  0  0  0  0  0  0  0
  141.3700   71.2130  219.9650 C   0  0  0  0  0  0  0  0  0  0  0  0
  141.1358   70.2365  219.5160 H   0  0  0  0  0  0  0  0  0  0  0  0
  140.5240   71.7570  220.9360 C   0  0  0  0  0  0  0  0  0  0  0  0
  139.6188   71.2130  221.2437 H   0  0  0  0  0  0  0  0  0  0  0  0
  140.8280   72.9920  221.5160 C   0  0  0  0  0  0  0  0  0  0  0  0
  140.1700   73.4126  222.2907 H   0  0  0  0  0  0  0  0  0  0  0  0
  141.9670   73.6920  221.1120 C   0  0  0  0  0  0  0  0  0  0  0  0
  142.2139   74.6545  221.5838 H   0  0  0  0  0  0  0  0  0  0  0  0
  143.9310   75.1320  218.8880 C   0  0  2  0  0  0  0  0  0  0  0  0
  144.9482   75.2466  218.4854 H   0  0  0  0  0  0  0  0  0  0  0  0
  143.6710   76.4210  219.6950 C   0  0  0  0  0  0  0  0  0  0  0  0
  144.1951   76.3374  220.6585 H   0  0  0  0  0  0  0  0  0  0  0  0
  144.0387   77.2584  219.0838 H   0  0  0  0  0  0  0  0  0  0  0  0
  142.1820   76.6950  219.9760 C   0  0  0  0  0  0  0  0  0  0  0  0
  141.8362   75.9788  220.7359 H   0  0  0  0  0  0  0  0  0  0  0  0
  142.1094   77.7396  220.3131 H   0  0  0  0  0  0  0  0  0  0  0  0
  141.3090   76.5680  218.7850 N   0  0  1  0  0  0  0  0  0  0  0  0
  140.3390   76.5400  219.1690 H   0  0  0  0  0  0  0  0  0  0  0  0
  141.4140   77.7080  217.8800 C   0  0  0  0  0  0  0  0  0  0  0  0
  140.9400   77.6350  216.7540 O   0  0  0  0  0  0  0  0  0  0  0  0
  142.0860   79.0230  218.2700 C   0  0  2  0  0  0  0  0  0  0  0  0
  142.9790   78.7677  218.8594 H   0  0  0  0  0  0  0  0  0  0  0  0
  141.1450   79.8710  219.1770 C   0  0  0  0  0  0  0  0  0  0  0  0
  140.4880   80.3753  218.4531 H   0  0  0  0  0  0  0  0  0  0  0  0
  141.8860   80.9320  220.0350 C   0  0  0  0  0  0  0  0  0  0  0  0
  142.9562   80.9619  219.7823 H   0  0  0  0  0  0  0  0  0  0  0  0
  141.5072   81.9514  219.8697 H   0  0  0  0  0  0  0  0  0  0  0  0
  141.6860   80.4670  221.4260 C   0  0  0  0  0  0  0  0  0  0  0  0
  142.2420   81.0220  222.5820 C   0  0  0  0  0  0  0  0  0  0  0  0
  142.9301   81.8778  222.5177 H   0  0  0  0  0  0  0  0  0  0  0  0
  141.9060   80.4670  223.8260 C   0  0  0  0  0  0  0  0  0  0  0  0
  142.3374   80.8853  224.7474 H   0  0  0  0  0  0  0  0  0  0  0  0
  141.0190   79.3770  223.8990 C   0  0  0  0  0  0  0  0  0  0  0  0
  140.7575   78.9463  224.8768 H   0  0  0  0  0  0  0  0  0  0  0  0
  140.4670   78.8380  222.7250 C   0  0  0  0  0  0  0  0  0  0  0  0
  139.7684   77.9896  222.7719 H   0  0  0  0  0  0  0  0  0  0  0  0
  140.8230   79.4010  221.4960 C   0  0  0  0  0  0  0  0  0  0  0  0
  140.3200   79.0020  220.1610 C   0  0  0  0  0  0  0  0  0  0  0  0
  140.4964   77.9314  219.9802 H   0  0  0  0  0  0  0  0  0  0  0  0
  139.2357   79.1527  220.0536 H   0  0  0  0  0  0  0  0  0  0  0  0
  142.6120   79.7810  217.1170 N   0  0  0  0  0  0  0  0  0  0  0  0
  142.2210   80.7510  217.1160 H   0  0  0  0  0  0  0  0  0  0  0  0
  143.6540   79.8270  217.1140 H   0  0  0  0  0  0  0  0  0  0  0  0
  142.3090   79.3320  216.2240 H   0  0  0  0  0  0  0  0  0  0  0  0
  141.4980   75.2840  218.0770 C   0  0  0  0  0  0  0  0  0  0  0  0
  141.1392   74.4725  218.7271 H   0  0  0  0  0  0  0  0  0  0  0  0
  140.9316   75.3484  217.1362 H   0  0  0  0  0  0  0  0  0  0  0  0
  142.9610   74.9960  217.7030 C   0  0  0  0  0  0  0  0  0  0  0  0
  143.0262   73.9688  217.3149 H   0  0  0  0  0  0  0  0  0  0  0  0
  143.2579   75.7431  216.9522 H   0  0  0  0  0  0  0  0  0  0  0  0
  1  2  1  0
  2  3  1  0
  3  4  2  0
  4  5  1  0
  4  6  1  0
  6  7  1  0
  6  8  1  0
  6  9  1  0
  3 10  1  0
 10 11  1  0
 11 12  2  0
 12 13  1  0
 12 14  1  0
 14 15  1  0
 14 16  2  0
 16 17  1  0
 16 18  1  0
 18 19  1  0
 18 20  2  0
 20 21  1  0
 10 22  1  0
 22 23  1  6
 22 24  1  0
 24 25  1  0
 24 26  1  0
 24 27  1  0
 27 28  1  0
 27 29  1  0
 27 30  1  0
 30 31  1  1
 30 32  1  0
 32 33  2  0
 32 34  1  0
 34 35  1  1
 34 36  1  0
 36 37  1  0
 36 38  1  0
 38 39  1  0
 38 40  1  0
 38 41  1  0
 41 42  2  0
 42 43  1  0
 42 44  1  0
 44 45  1  0
 44 46  2  0
 46 47  1  0
 46 48  1  0
 48 49  1  0
 48 50  2  0
 50 51  1  0
 51 52  1  0
 51 53  1  0
 34 54  1  0
 54 55  1  0
 54 56  1  0
 54 57  1  0
 30 58  1  0
 58 59  1  0
 58 60  1  0
 58 61  1  0
 61 62  1  0
 61 63  1  0
 20 11  1  0
 61 22  1  0
 51 36  1  0
 50 41  1  0
M  CHG  2  30   1  54   1
M  END
>  <UniqueID>  (68) 
46

>  <SMILES>  (68) 
C/C=C(\O)N(c1ccccc1)C1CC[NH+](C(=O)[C@@H]([NH3+])C2Cc3ccccc3C2)CC1

>  <Energy>  (68) 
93.64452830382983

>  <Genealogy>  (68) 
CCC(=O)N(c1ccccc1)C1CC[NH+](C(=O)[C@@H]([NH3+])C2Cc3ccccc3C2)CC1 (protonated)
CC=C(O)N(c1ccccc1)C1CC[NH+](C(=O)[C@@H]([NH3+])C2Cc3ccccc3C2)CC1 (tautomer)
C/C=C(\O)N(c1ccccc1)C1CC[NH+](C(=O)[C@@H]([NH3+])C2Cc3ccccc3C2)CC1 (cis-trans isomerization)
C/C=C(\O)N(c1ccccc1)C1CC[NH+](C(=O)[C@@H]([NH3+])C2Cc3ccccc3C2)CC1 (3D coordinates assigned)
C/C=C(\O)N(c1ccccc1)C1CC[NH+](C(=O)[C@@H]([NH3+])C2Cc3ccccc3C2)CC1 (nonaromatic ring conformer: 93.64452830382983 kcal/mol)

>  <smiles>  (68) 
CCC(=O)N(c1ccccc1)C1CCN(C(=O)[C@@H](N)C2Cc3ccccc3C2)CC1

>  <score_type>  (68) 
oracle

>  <origin>  (68) 
autodockgpu

>  <m_score__min__energy>  (68) 
-9.2599999999999998

>  <m_primary>  (68) 
energy

>  <meeko>  (68) 
{"free_energy": -8.02, "intermolecular_energy": -10.71, "internal_energy": -1.81, "cluster_size": 7, "cluster_id": 1, "rank_in_cluster": 5}

>  <energy>  (68) 
-8.96

>  <cluster_rmsd>  (68) 
0.0

>  <rmsd>  (68) 
269.53

>  <cluster>  (68) 
2

$$$$
LLZHWBREMUWYMR-DSLJWKJINA-P
     RDKit          3D

 63 66  0  0  0  0  0  0  0  0999 V2000
  145.2010   74.4430  218.0640 H   0  0  0  0  0  0  0  0  0  0  0  0
  144.5080   73.8980  218.5640 O   0  0  0  0  0  0  0  0  0  0  0  0
  144.2200   74.0770  219.9210 C   0  0  0  0  0  0  0  0  0  0  0  0
  145.1800   73.9930  220.8590 C   0  0  0  0  0  0  0  0  0  0  0  0
  145.1382   74.6855  221.7126 H   0  0  0  0  0  0  0  0  0  0  0  0
  146.3020   73.0050  220.8000 C   0  0  0  0  0  0  0  0  0  0  0  0
  146.6077   72.7358  221.8218 H   0  0  0  0  0  0  0  0  0  0  0  0
  145.9681   72.1023  220.2674 H   0  0  0  0  0  0  0  0  0  0  0  0
  147.1552   73.4504  220.2674 H   0  0  0  0  0  0  0  0  0  0  0  0
  142.8590   74.3410  220.3070 N   0  0  0  0  0  0  0  0  0  0  0  0
  142.0380   73.2070  220.6340 C   0  0  0  0  0  0  0  0  0  0  0  0
  141.0350   73.3060  221.6120 C   0  0  0  0  0  0  0  0  0  0  0  0
  140.8781   74.2578  222.1406 H   0  0  0  0  0  0  0  0  0  0  0  0
  140.2350   72.2010  221.9170 C   0  0  0  0  0  0  0  0  0  0  0  0
  139.4708   72.2754  222.7047 H   0  0  0  0  0  0  0  0  0  0  0  0
  140.4070   71.0010  221.2200 C   0  0  0  0  0  0  0  0  0  0  0  0
  139.7835   70.1287  221.4656 H   0  0  0  0  0  0  0  0  0  0  0  0
  141.3700   70.9090  220.2120 C   0  0  0  0  0  0  0  0  0  0  0  0
  141.4951   69.9686  219.6553 H   0  0  0  0  0  0  0  0  0  0  0  0
  142.1740   72.0110  219.9110 C   0  0  0  0  0  0  0  0  0  0  0  0
  142.9175   71.9415  219.1033 H   0  0  0  0  0  0  0  0  0  0  0  0
  142.3130   75.7140  220.1460 C   0  0  2  0  0  0  0  0  0  0  0  0
  142.0920   76.0543  221.1684 H   0  0  0  0  0  0  0  0  0  0  0  0
  140.9640   75.7810  219.4010 C   0  0  0  0  0  0  0  0  0  0  0  0
  140.3631   74.9076  219.6945 H   0  0  0  0  0  0  0  0  0  0  0  0
  140.4921   76.7340  219.6825 H   0  0  0  0  0  0  0  0  0  0  0  0
  141.0950   75.7850  217.8670 C   0  0  0  0  0  0  0  0  0  0  0  0
  141.3874   74.7754  217.5425 H   0  0  0  0  0  0  0  0  0  0  0  0
  140.1184   76.0937  217.4657 H   0  0  0  0  0  0  0  0  0  0  0  0
  142.0950   76.7490  217.3480 N   0  0  1  0  0  0  0  0  0  0  0  0
  142.2410   76.4690  216.3540 H   0  0  0  0  0  0  0  0  0  0  0  0
  141.6210   78.1290  217.3750 C   0  0  0  0  0  0  0  0  0  0  0  0
  140.6510   78.4520  216.7030 O   0  0  0  0  0  0  0  0  0  0  0  0
  142.2750   79.2180  218.2250 C   0  0  2  0  0  0  0  0  0  0  0  0
  143.0938   78.7445  218.7865 H   0  0  0  0  0  0  0  0  0  0  0  0
  141.2600   79.7880  219.2590 C   0  0  0  0  0  0  0  0  0  0  0  0
  140.4566   80.1900  218.6242 H   0  0  0  0  0  0  0  0  0  0  0  0
  141.8380   80.9220  220.1490 C   0  0  0  0  0  0  0  0  0  0  0  0
  142.8551   81.1917  219.8284 H   0  0  0  0  0  0  0  0  0  0  0  0
  141.2480   81.8487  220.0933 H   0  0  0  0  0  0  0  0  0  0  0  0
  141.8520   80.3330  221.5080 C   0  0  0  0  0  0  0  0  0  0  0  0
  142.3780   80.9140  222.6660 C   0  0  0  0  0  0  0  0  0  0  0  0
  142.8713   81.8964  222.6255 H   0  0  0  0  0  0  0  0  0  0  0  0
  142.2650   80.2210  223.8800 C   0  0  0  0  0  0  0  0  0  0  0  0
  142.6763   80.6584  224.8017 H   0  0  0  0  0  0  0  0  0  0  0  0
  141.6270   78.9680  223.9220 C   0  0  0  0  0  0  0  0  0  0  0  0
  141.5398   78.4285  224.8766 H   0  0  0  0  0  0  0  0  0  0  0  0
  141.1010   78.4040  222.7480 C   0  0  0  0  0  0  0  0  0  0  0  0
  140.5952   77.4275  222.7727 H   0  0  0  0  0  0  0  0  0  0  0  0
  141.2330   79.1080  221.5480 C   0  0  0  0  0  0  0  0  0  0  0  0
  140.7120   78.7030  220.2220 C   0  0  0  0  0  0  0  0  0  0  0  0
  141.0854   77.7068  219.9424 H   0  0  0  0  0  0  0  0  0  0  0  0
  139.6145   78.6321  220.2009 H   0  0  0  0  0  0  0  0  0  0  0  0
  142.9370   80.2690  217.4260 N   0  0  0  0  0  0  0  0  0  0  0  0
  142.7300   80.1330  216.4100 H   0  0  0  0  0  0  0  0  0  0  0  0
  142.6440   81.2280  217.7140 H   0  0  0  0  0  0  0  0  0  0  0  0
  143.9730   80.2040  217.5350 H   0  0  0  0  0  0  0  0  0  0  0  0
  143.4120   76.6070  218.0030 C   0  0  0  0  0  0  0  0  0  0  0  0
  143.8405   75.6359  217.7144 H   0  0  0  0  0  0  0  0  0  0  0  0
  144.0299   77.4539  217.6698 H   0  0  0  0  0  0  0  0  0  0  0  0
  143.3490   76.6730  219.5370 C   0  0  0  0  0  0  0  0  0  0  0  0
  144.3405   76.4162  219.9383 H   0  0  0  0  0  0  0  0  0  0  0  0
  143.0441   77.6950  219.8064 H   0  0  0  0  0  0  0  0  0  0  0  0
  1  2  1  0
  2  3  1  0
  3  4  2  0
  4  5  1  0
  4  6  1  0
  6  7  1  0
  6  8  1  0
  6  9  1  0
  3 10  1  0
 10 11  1  0
 11 12  2  0
 12 13  1  0
 12 14  1  0
 14 15  1  0
 14 16  2  0
 16 17  1  0
 16 18  1  0
 18 19  1  0
 18 20  2  0
 20 21  1  0
 10 22  1  0
 22 23  1  1
 22 24  1  0
 24 25  1  0
 24 26  1  0
 24 27  1  0
 27 28  1  0
 27 29  1  0
 27 30  1  0
 30 31  1  6
 30 32  1  0
 32 33  2  0
 32 34  1  0
 34 35  1  1
 34 36  1  0
 36 37  1  0
 36 38  1  0
 38 39  1  0
 38 40  1  0
 38 41  1  0
 41 42  2  0
 42 43  1  0
 42 44  1  0
 44 45  1  0
 44 46  2  0
 46 47  1  0
 46 48  1  0
 48 49  1  0
 48 50  2  0
 50 51  1  0
 51 52  1  0
 51 53  1  0
 34 54  1  0
 54 55  1  0
 54 56  1  0
 54 57  1  0
 30 58  1  0
 58 59  1  0
 58 60  1  0
 58 61  1  0
 61 62  1  0
 61 63  1  0
 20 11  1  0
 61 22  1  0
 51 36  1  0
 50 41  1  0
M  CHG  2  30   1  54   1
M  END
>  <UniqueID>  (69) 
46

>  <SMILES>  (69) 
C/C=C(\O)N(c1ccccc1)C1CC[NH+](C(=O)[C@@H]([NH3+])C2Cc3ccccc3C2)CC1

>  <Energy>  (69) 
93.64452830382983

>  <Genealogy>  (69) 
CCC(=O)N(c1ccccc1)C1CC[NH+](C(=O)[C@@H]([NH3+])C2Cc3ccccc3C2)CC1 (protonated)
CC=C(O)N(c1ccccc1)C1CC[NH+](C(=O)[C@@H]([NH3+])C2Cc3ccccc3C2)CC1 (tautomer)
C/C=C(\O)N(c1ccccc1)C1CC[NH+](C(=O)[C@@H]([NH3+])C2Cc3ccccc3C2)CC1 (cis-trans isomerization)
C/C=C(\O)N(c1ccccc1)C1CC[NH+](C(=O)[C@@H]([NH3+])C2Cc3ccccc3C2)CC1 (3D coordinates assigned)
C/C=C(\O)N(c1ccccc1)C1CC[NH+](C(=O)[C@@H]([NH3+])C2Cc3ccccc3C2)CC1 (nonaromatic ring conformer: 93.64452830382983 kcal/mol)

>  <smiles>  (69) 
CCC(=O)N(c1ccccc1)C1CCN(C(=O)[C@@H](N)C2Cc3ccccc3C2)CC1

>  <score_type>  (69) 
oracle

>  <origin>  (69) 
autodockgpu

>  <m_score__min__energy>  (69) 
-9.2599999999999998

>  <m_primary>  (69) 
energy

>  <meeko>  (69) 
{"free_energy": -7.97, "intermolecular_energy": -10.65, "internal_energy": -1.59, "cluster_size": 7, "cluster_id": 1, "rank_in_cluster": 6}

>  <energy>  (69) 
-8.94

>  <cluster_rmsd>  (69) 
0.09

>  <rmsd>  (69) 
269.55

>  <cluster>  (69) 
2

$$$$
LLZHWBREMUWYMR-DSLJWKJINA-P
     RDKit          3D

 63 66  0  0  0  0  0  0  0  0999 V2000
  139.4110   74.0890  222.7940 H   0  0  0  0  0  0  0  0  0  0  0  0
  140.2580   74.3170  222.2870 O   0  0  0  0  0  0  0  0  0  0  0  0
  141.0160   73.3720  221.5890 C   0  0  0  0  0  0  0  0  0  0  0  0
  141.0290   72.0770  221.9510 C   0  0  0  0  0  0  0  0  0  0  0  0
  141.5772   71.3634  221.3183 H   0  0  0  0  0  0  0  0  0  0  0  0
  140.3360   71.5580  223.1700 C   0  0  0  0  0  0  0  0  0  0  0  0
  140.8428   71.9376  224.0695 H   0  0  0  0  0  0  0  0  0  0  0  0
  139.2893   71.8962  223.1687 H   0  0  0  0  0  0  0  0  0  0  0  0
  140.3661   70.4584  223.1687 H   0  0  0  0  0  0  0  0  0  0  0  0
  141.8080   73.8140  220.4710 N   0  0  0  0  0  0  0  0  0  0  0  0
  143.1830   73.3940  220.4340 C   0  0  0  0  0  0  0  0  0  0  0  0
  143.5360   72.1410  219.9070 C   0  0  0  0  0  0  0  0  0  0  0  0
  142.7541   71.4680  219.5253 H   0  0  0  0  0  0  0  0  0  0  0  0
  144.8750   71.7450  219.8650 C   0  0  0  0  0  0  0  0  0  0  0  0
  145.1428   70.7507  219.4781 H   0  0  0  0  0  0  0  0  0  0  0  0
  145.8750   72.6130  220.3150 C   0  0  0  0  0  0  0  0  0  0  0  0
  146.9286   72.2978  220.2904 H   0  0  0  0  0  0  0  0  0  0  0  0
  145.5360   73.8810  220.7960 C   0  0  0  0  0  0  0  0  0  0  0  0
  146.3241   74.5681  221.1377 H   0  0  0  0  0  0  0  0  0  0  0  0
  144.1970   74.2760  220.8430 C   0  0  0  0  0  0  0  0  0  0  0  0
  143.9354   75.2823  221.2019 H   0  0  0  0  0  0  0  0  0  0  0  0
  141.2490   74.8330  219.5440 C   0  0  2  0  0  0  0  0  0  0  0  0
  140.3222   74.3870  219.1540 H   0  0  0  0  0  0  0  0  0  0  0  0
  142.1170   75.1060  218.2990 C   0  0  0  0  0  0  0  0  0  0  0  0
  142.5658   74.1553  217.9752 H   0  0  0  0  0  0  0  0  0  0  0  0
  141.4531   75.5424  217.5382 H   0  0  0  0  0  0  0  0  0  0  0  0
  143.2510   76.1210  218.5350 C   0  0  0  0  0  0  0  0  0  0  0  0
  144.0272   75.6363  219.1454 H   0  0  0  0  0  0  0  0  0  0  0  0
  143.6182   76.4231  217.5431 H   0  0  0  0  0  0  0  0  0  0  0  0
  142.8200   77.3590  219.2270 N   0  0  1  0  0  0  0  0  0  0  0  0
  143.7080   77.8180  219.5250 H   0  0  0  0  0  0  0  0  0  0  0  0
  142.0960   78.2760  218.3530 C   0  0  0  0  0  0  0  0  0  0  0  0
  141.1780   77.8580  217.6600 O   0  0  0  0  0  0  0  0  0  0  0  0
  142.4170   79.7670  218.2600 C   0  0  2  0  0  0  0  0  0  0  0  0
  143.4650   79.8929  218.5697 H   0  0  0  0  0  0  0  0  0  0  0  0
  141.5300   80.5810  219.2480 C   0  0  0  0  0  0  0  0  0  0  0  0
  141.3687   81.5301  218.7158 H   0  0  0  0  0  0  0  0  0  0  0  0
  142.2070   80.8600  220.6170 C   0  0  0  0  0  0  0  0  0  0  0  0
  143.2483   80.5056  220.6183 H   0  0  0  0  0  0  0  0  0  0  0  0
  142.2520   81.9324  220.8578 H   0  0  0  0  0  0  0  0  0  0  0  0
  141.3870   80.0910  221.5820 C   0  0  0  0  0  0  0  0  0  0  0  0
  141.6360   79.9270  222.9470 C   0  0  0  0  0  0  0  0  0  0  0  0
  142.5324   80.3657  223.4096 H   0  0  0  0  0  0  0  0  0  0  0  0
  140.7210   79.1920  223.7170 C   0  0  0  0  0  0  0  0  0  0  0  0
  140.9012   79.0465  224.7923 H   0  0  0  0  0  0  0  0  0  0  0  0
  139.5740   78.6410  223.1170 C   0  0  0  0  0  0  0  0  0  0  0  0
  138.8590   78.0665  223.7243 H   0  0  0  0  0  0  0  0  0  0  0  0
  139.3400   78.8230  221.7440 C   0  0  0  0  0  0  0  0  0  0  0  0
  138.4425   78.4017  221.2674 H   0  0  0  0  0  0  0  0  0  0  0  0
  140.2700   79.5500  220.9950 C   0  0  0  0  0  0  0  0  0  0  0  0
  140.1800   79.8830  219.5540 C   0  0  0  0  0  0  0  0  0  0  0  0
  140.0641   78.9721  218.9483 H   0  0  0  0  0  0  0  0  0  0  0  0
  139.3119   80.5161  219.3182 H   0  0  0  0  0  0  0  0  0  0  0  0
  142.3750   80.2930  216.8800 N   0  0  0  0  0  0  0  0  0  0  0  0
  141.9620   81.2540  216.8740 H   0  0  0  0  0  0  0  0  0  0  0  0
  143.3190   80.3190  216.4370 H   0  0  0  0  0  0  0  0  0  0  0  0
  141.7590   79.6950  216.2870 H   0  0  0  0  0  0  0  0  0  0  0  0
  142.0740   77.0820  220.4720 C   0  0  0  0  0  0  0  0  0  0  0  0
  142.7653   76.6284  221.1975 H   0  0  0  0  0  0  0  0  0  0  0  0
  141.6672   78.0417  220.8234 H   0  0  0  0  0  0  0  0  0  0  0  0
  140.8810   76.1320  220.2790 C   0  0  0  0  0  0  0  0  0  0  0  0
  140.4793   75.8708  221.2692 H   0  0  0  0  0  0  0  0  0  0  0  0
  140.1426   76.6594  219.6573 H   0  0  0  0  0  0  0  0  0  0  0  0
  1  2  1  0
  2  3  1  0
  3  4  2  0
  4  5  1  0
  4  6  1  0
  6  7  1  0
  6  8  1  0
  6  9  1  0
  3 10  1  0
 10 11  1  0
 11 12  2  0
 12 13  1  0
 12 14  1  0
 14 15  1  0
 14 16  2  0
 16 17  1  0
 16 18  1  0
 18 19  1  0
 18 20  2  0
 20 21  1  0
 10 22  1  0
 22 23  1  6
 22 24  1  0
 24 25  1  0
 24 26  1  0
 24 27  1  0
 27 28  1  0
 27 29  1  0
 27 30  1  0
 30 31  1  1
 30 32  1  0
 32 33  2  0
 32 34  1  0
 34 35  1  1
 34 36  1  0
 36 37  1  0
 36 38  1  0
 38 39  1  0
 38 40  1  0
 38 41  1  0
 41 42  2  0
 42 43  1  0
 42 44  1  0
 44 45  1  0
 44 46  2  0
 46 47  1  0
 46 48  1  0
 48 49  1  0
 48 50  2  0
 50 51  1  0
 51 52  1  0
 51 53  1  0
 34 54  1  0
 54 55  1  0
 54 56  1  0
 54 57  1  0
 30 58  1  0
 58 59  1  0
 58 60  1  0
 58 61  1  0
 61 62  1  0
 61 63  1  0
 20 11  1  0
 61 22  1  0
 51 36  1  0
 50 41  1  0
M  CHG  2  30   1  54   1
M  END
>  <UniqueID>  (70) 
46

>  <SMILES>  (70) 
C/C=C(\O)N(c1ccccc1)C1CC[NH+](C(=O)[C@@H]([NH3+])C2Cc3ccccc3C2)CC1

>  <Energy>  (70) 
93.64452830382983

>  <Genealogy>  (70) 
CCC(=O)N(c1ccccc1)C1CC[NH+](C(=O)[C@@H]([NH3+])C2Cc3ccccc3C2)CC1 (protonated)
CC=C(O)N(c1ccccc1)C1CC[NH+](C(=O)[C@@H]([NH3+])C2Cc3ccccc3C2)CC1 (tautomer)
C/C=C(\O)N(c1ccccc1)C1CC[NH+](C(=O)[C@@H]([NH3+])C2Cc3ccccc3C2)CC1 (cis-trans isomerization)
C/C=C(\O)N(c1ccccc1)C1CC[NH+](C(=O)[C@@H]([NH3+])C2Cc3ccccc3C2)CC1 (3D coordinates assigned)
C/C=C(\O)N(c1ccccc1)C1CC[NH+](C(=O)[C@@H]([NH3+])C2Cc3ccccc3C2)CC1 (nonaromatic ring conformer: 93.64452830382983 kcal/mol)

>  <smiles>  (70) 
CCC(=O)N(c1ccccc1)C1CCN(C(=O)[C@@H](N)C2Cc3ccccc3C2)CC1

>  <score_type>  (70) 
oracle

>  <origin>  (70) 
autodockgpu

>  <m_score__min__energy>  (70) 
-9.2599999999999998

>  <m_primary>  (70) 
energy

>  <meeko>  (70) 
{"free_energy": -8.45, "intermolecular_energy": -11.13, "internal_energy": -2.01, "cluster_size": 11, "cluster_id": 2, "rank_in_cluster": 8}

>  <energy>  (70) 
-8.86

>  <cluster_rmsd>  (70) 
0.13

>  <rmsd>  (70) 
269.56

>  <cluster>  (70) 
2

$$$$
LLZHWBREMUWYMR-DSLJWKJINA-P
     RDKit          3D

 63 66  0  0  0  0  0  0  0  0999 V2000
  139.5410   74.1690  222.8780 H   0  0  0  0  0  0  0  0  0  0  0  0
  140.3380   74.3600  222.2830 O   0  0  0  0  0  0  0  0  0  0  0  0
  140.9370   73.3960  221.4650 C   0  0  0  0  0  0  0  0  0  0  0  0
  140.7550   72.0810  221.6820 C   0  0  0  0  0  0  0  0  0  0  0  0
  140.9181   71.3861  220.8451 H   0  0  0  0  0  0  0  0  0  0  0  0
  140.3420   71.5160  223.0040 C   0  0  0  0  0  0  0  0  0  0  0  0
  140.7817   72.1175  223.8133 H   0  0  0  0  0  0  0  0  0  0  0  0
  139.2452   71.5375  223.0854 H   0  0  0  0  0  0  0  0  0  0  0  0
  140.6954   70.4775  223.0854 H   0  0  0  0  0  0  0  0  0  0  0  0
  141.7750   73.8360  220.3820 N   0  0  0  0  0  0  0  0  0  0  0  0
  143.1460   73.3990  220.3930 C   0  0  0  0  0  0  0  0  0  0  0  0
  143.5000   72.1380  219.8870 C   0  0  0  0  0  0  0  0  0  0  0  0
  142.7226   71.4719  219.4846 H   0  0  0  0  0  0  0  0  0  0  0  0
  144.8350   71.7250  219.8920 C   0  0  0  0  0  0  0  0  0  0  0  0
  145.1033   70.7248  219.5209 H   0  0  0  0  0  0  0  0  0  0  0  0
  145.8290   72.5840  220.3690 C   0  0  0  0  0  0  0  0  0  0  0  0
  146.8788   72.2557  220.3822 H   0  0  0  0  0  0  0  0  0  0  0  0
  145.4910   73.8590  220.8290 C   0  0  0  0  0  0  0  0  0  0  0  0
  146.2762   74.5388  221.1913 H   0  0  0  0  0  0  0  0  0  0  0  0
  144.1560   74.2710  220.8290 C   0  0  0  0  0  0  0  0  0  0  0  0
  143.8952   75.2831  221.1721 H   0  0  0  0  0  0  0  0  0  0  0  0
  141.2640   74.8690  219.4430 C   0  0  2  0  0  0  0  0  0  0  0  0
  140.3643   74.4255  218.9916 H   0  0  0  0  0  0  0  0  0  0  0  0
  142.2020   75.1700  218.2550 C   0  0  0  0  0  0  0  0  0  0  0  0
  142.6755   74.2282  217.9407 H   0  0  0  0  0  0  0  0  0  0  0  0
  141.5812   75.6161  217.4641 H   0  0  0  0  0  0  0  0  0  0  0  0
  143.3130   76.1870  218.5770 C   0  0  0  0  0  0  0  0  0  0  0  0
  144.0547   75.6951  219.2235 H   0  0  0  0  0  0  0  0  0  0  0  0
  143.7359   76.5099  217.6142 H   0  0  0  0  0  0  0  0  0  0  0  0
  142.8340   77.4100  219.2650 N   0  0  1  0  0  0  0  0  0  0  0  0
  143.7000   77.8690  219.6230 H   0  0  0  0  0  0  0  0  0  0  0  0
  142.1560   78.3390  218.3670 C   0  0  0  0  0  0  0  0  0  0  0  0
  141.3270   77.9190  217.5720 O   0  0  0  0  0  0  0  0  0  0  0  0
  142.4180   79.8440  218.3730 C   0  0  2  0  0  0  0  0  0  0  0  0
  143.3935   80.0011  218.8564 H   0  0  0  0  0  0  0  0  0  0  0  0
  141.3440   80.5840  219.2230 C   0  0  0  0  0  0  0  0  0  0  0  0
  141.0786   81.4464  218.5938 H   0  0  0  0  0  0  0  0  0  0  0  0
  141.8640   81.0830  220.5990 C   0  0  0  0  0  0  0  0  0  0  0  0
  142.9446   80.9028  220.6982 H   0  0  0  0  0  0  0  0  0  0  0  0
  141.7240   82.1650  220.7394 H   0  0  0  0  0  0  0  0  0  0  0  0
  141.1020   80.2750  221.5800 C   0  0  0  0  0  0  0  0  0  0  0  0
  141.2700   80.2690  222.9670 C   0  0  0  0  0  0  0  0  0  0  0  0
  142.0496   80.8842  223.4400 H   0  0  0  0  0  0  0  0  0  0  0  0
  140.4250   79.4630  223.7450 C   0  0  0  0  0  0  0  0  0  0  0  0
  140.5441   79.4387  224.8383 H   0  0  0  0  0  0  0  0  0  0  0  0
  139.4260   78.6860  223.1310 C   0  0  0  0  0  0  0  0  0  0  0  0
  138.7649   78.0568  223.7451 H   0  0  0  0  0  0  0  0  0  0  0  0
  139.2710   78.7120  221.7350 C   0  0  0  0  0  0  0  0  0  0  0  0
  138.4886   78.1127  221.2465 H   0  0  0  0  0  0  0  0  0  0  0  0
  140.1300   79.5140  220.9790 C   0  0  0  0  0  0  0  0  0  0  0  0
  140.0990   79.7060  219.5110 C   0  0  0  0  0  0  0  0  0  0  0  0
  140.1716   78.7407  218.9885 H   0  0  0  0  0  0  0  0  0  0  0  0
  139.1638   80.1693  219.1636 H   0  0  0  0  0  0  0  0  0  0  0  0
  142.5790   80.4180  217.0220 N   0  0  0  0  0  0  0  0  0  0  0  0
  142.5330   79.6610  216.3010 H   0  0  0  0  0  0  0  0  0  0  0  0
  141.8580   81.1410  216.8100 H   0  0  0  0  0  0  0  0  0  0  0  0
  143.5180   80.8660  216.9310 H   0  0  0  0  0  0  0  0  0  0  0  0
  142.0180   77.1050  220.4590 C   0  0  0  0  0  0  0  0  0  0  0  0
  142.6688   76.6418  221.2153 H   0  0  0  0  0  0  0  0  0  0  0  0
  141.5846   78.0555  220.8035 H   0  0  0  0  0  0  0  0  0  0  0  0
  140.8450   76.1520  220.1790 C   0  0  0  0  0  0  0  0  0  0  0  0
  140.3879   75.8700  221.1390 H   0  0  0  0  0  0  0  0  0  0  0  0
  140.1407   76.6868  219.5248 H   0  0  0  0  0  0  0  0  0  0  0  0
  1  2  1  0
  2  3  1  0
  3  4  2  0
  4  5  1  0
  4  6  1  0
  6  7  1  0
  6  8  1  0
  6  9  1  0
  3 10  1  0
 10 11  1  0
 11 12  2  0
 12 13  1  0
 12 14  1  0
 14 15  1  0
 14 16  2  0
 16 17  1  0
 16 18  1  0
 18 19  1  0
 18 20  2  0
 20 21  1  0
 10 22  1  0
 22 23  1  6
 22 24  1  0
 24 25  1  0
 24 26  1  0
 24 27  1  0
 27 28  1  0
 27 29  1  0
 27 30  1  0
 30 31  1  1
 30 32  1  0
 32 33  2  0
 32 34  1  0
 34 35  1  1
 34 36  1  0
 36 37  1  0
 36 38  1  0
 38 39  1  0
 38 40  1  0
 38 41  1  0
 41 42  2  0
 42 43  1  0
 42 44  1  0
 44 45  1  0
 44 46  2  0
 46 47  1  0
 46 48  1  0
 48 49  1  0
 48 50  2  0
 50 51  1  0
 51 52  1  0
 51 53  1  0
 34 54  1  0
 54 55  1  0
 54 56  1  0
 54 57  1  0
 30 58  1  0
 58 59  1  0
 58 60  1  0
 58 61  1  0
 61 62  1  0
 61 63  1  0
 20 11  1  0
 61 22  1  0
 51 36  1  0
 50 41  1  0
M  CHG  2  30   1  54   1
M  END
>  <UniqueID>  (71) 
46

>  <SMILES>  (71) 
C/C=C(\O)N(c1ccccc1)C1CC[NH+](C(=O)[C@@H]([NH3+])C2Cc3ccccc3C2)CC1

>  <Energy>  (71) 
93.64452830382983

>  <Genealogy>  (71) 
CCC(=O)N(c1ccccc1)C1CC[NH+](C(=O)[C@@H]([NH3+])C2Cc3ccccc3C2)CC1 (protonated)
CC=C(O)N(c1ccccc1)C1CC[NH+](C(=O)[C@@H]([NH3+])C2Cc3ccccc3C2)CC1 (tautomer)
C/C=C(\O)N(c1ccccc1)C1CC[NH+](C(=O)[C@@H]([NH3+])C2Cc3ccccc3C2)CC1 (cis-trans isomerization)
C/C=C(\O)N(c1ccccc1)C1CC[NH+](C(=O)[C@@H]([NH3+])C2Cc3ccccc3C2)CC1 (3D coordinates assigned)
C/C=C(\O)N(c1ccccc1)C1CC[NH+](C(=O)[C@@H]([NH3+])C2Cc3ccccc3C2)CC1 (nonaromatic ring conformer: 93.64452830382983 kcal/mol)

>  <smiles>  (71) 
CCC(=O)N(c1ccccc1)C1CCN(C(=O)[C@@H](N)C2Cc3ccccc3C2)CC1

>  <score_type>  (71) 
oracle

>  <origin>  (71) 
autodockgpu

>  <m_score__min__energy>  (71) 
-9.2599999999999998

>  <m_primary>  (71) 
energy

>  <meeko>  (71) 
{"free_energy": -8.61, "intermolecular_energy": -11.29, "internal_energy": -1.86, "cluster_size": 11, "cluster_id": 2, "rank_in_cluster": 7}

>  <energy>  (71) 
-8.77

>  <cluster_rmsd>  (71) 
0.27

>  <rmsd>  (71) 
269.51

>  <cluster>  (71) 
2

$$$$
LLZHWBREMUWYMR-DSLJWKJINA-P
     RDKit          3D

 63 66  0  0  0  0  0  0  0  0999 V2000
  142.5480   75.6770  221.6340 H   0  0  0  0  0  0  0  0  0  0  0  0
  141.7550   76.0050  221.0970 O   0  0  0  0  0  0  0  0  0  0  0  0
  140.8480   76.9610  221.5670 C   0  0  0  0  0  0  0  0  0  0  0  0
  139.8220   76.6200  222.3660 C   0  0  0  0  0  0  0  0  0  0  0  0
  139.7369   77.1129  223.3457 H   0  0  0  0  0  0  0  0  0  0  0  0
  138.7900   75.6040  221.9900 C   0  0  0  0  0  0  0  0  0  0  0  0
  138.3514   75.1722  222.9017 H   0  0  0  0  0  0  0  0  0  0  0  0
  137.9998   76.0865  221.3960 H   0  0  0  0  0  0  0  0  0  0  0  0
  139.2600   74.8064  221.3960 H   0  0  0  0  0  0  0  0  0  0  0  0
  141.0220   78.3310  221.1650 N   0  0  0  0  0  0  0  0  0  0  0  0
  141.4290   79.2660  222.1780 C   0  0  0  0  0  0  0  0  0  0  0  0
  142.7910   79.4940  222.4380 C   0  0  0  0  0  0  0  0  0  0  0  0
  143.5562   78.9465  221.8682 H   0  0  0  0  0  0  0  0  0  0  0  0
  143.1780   80.4130  223.4170 C   0  0  0  0  0  0  0  0  0  0  0  0
  144.2450   80.5675  223.6353 H   0  0  0  0  0  0  0  0  0  0  0  0
  142.2090   81.1360  224.1190 C   0  0  0  0  0  0  0  0  0  0  0  0
  142.5134   81.8517  224.8969 H   0  0  0  0  0  0  0  0  0  0  0  0
  140.8540   80.9500  223.8330 C   0  0  0  0  0  0  0  0  0  0  0  0
  140.0931   81.5295  224.3763 H   0  0  0  0  0  0  0  0  0  0  0  0
  140.4650   80.0290  222.8580 C   0  0  0  0  0  0  0  0  0  0  0  0
  139.3985   79.9003  222.6212 H   0  0  0  0  0  0  0  0  0  0  0  0
  140.5760   78.7510  219.8100 C   0  0  2  0  0  0  0  0  0  0  0  0
  139.4882   78.5878  219.8034 H   0  0  0  0  0  0  0  0  0  0  0  0
  141.1190   77.8770  218.6610 C   0  0  0  0  0  0  0  0  0  0  0  0
  141.1486   76.8326  219.0051 H   0  0  0  0  0  0  0  0  0  0  0  0
  140.4440   78.0220  217.8047 H   0  0  0  0  0  0  0  0  0  0  0  0
  142.5310   78.2710  218.1870 C   0  0  0  0  0  0  0  0  0  0  0  0
  143.2532   77.9607  218.9565 H   0  0  0  0  0  0  0  0  0  0  0  0
  142.6953   77.7665  217.2234 H   0  0  0  0  0  0  0  0  0  0  0  0
  142.7030   79.7240  217.9450 N   0  0  1  0  0  0  0  0  0  0  0  0
  143.7350   79.8590  217.8720 H   0  0  0  0  0  0  0  0  0  0  0  0
  142.0900   80.1690  216.6970 C   0  0  0  0  0  0  0  0  0  0  0  0
  141.1350   79.5580  216.2380 O   0  0  0  0  0  0  0  0  0  0  0  0
  142.5760   81.3920  215.9200 C   0  0  2  0  0  0  0  0  0  0  0  0
  143.5440   81.6872  216.3510 H   0  0  0  0  0  0  0  0  0  0  0  0
  141.5910   82.5840  216.1050 C   0  0  0  0  0  0  0  0  0  0  0  0
  141.7055   83.1500  215.1687 H   0  0  0  0  0  0  0  0  0  0  0  0
  141.9310   83.4990  217.3130 C   0  0  0  0  0  0  0  0  0  0  0  0
  142.8769   83.1918  217.7831 H   0  0  0  0  0  0  0  0  0  0  0  0
  142.0650   84.5519  217.0242 H   0  0  0  0  0  0  0  0  0  0  0  0
  140.7920   83.3000  218.2400 C   0  0  0  0  0  0  0  0  0  0  0  0
  140.6610   83.8260  219.5280 C   0  0  0  0  0  0  0  0  0  0  0  0
  141.4633   84.4359  219.9689 H   0  0  0  0  0  0  0  0  0  0  0  0
  139.4860   83.5610  220.2480 C   0  0  0  0  0  0  0  0  0  0  0  0
  139.3647   83.9608  221.2656 H   0  0  0  0  0  0  0  0  0  0  0  0
  138.4630   82.7860  219.6730 C   0  0  0  0  0  0  0  0  0  0  0  0
  137.5432   82.5822  220.2409 H   0  0  0  0  0  0  0  0  0  0  0  0
  138.6140   82.2720  218.3750 C   0  0  0  0  0  0  0  0  0  0  0  0
  137.8169   81.6697  217.9146 H   0  0  0  0  0  0  0  0  0  0  0  0
  139.7960   82.5400  217.6790 C   0  0  0  0  0  0  0  0  0  0  0  0
  140.1220   82.1240  216.2960 C   0  0  0  0  0  0  0  0  0  0  0  0
  140.0358   81.0330  216.1848 H   0  0  0  0  0  0  0  0  0  0  0  0
  139.4406   82.5592  215.5502 H   0  0  0  0  0  0  0  0  0  0  0  0
  142.8760   81.1070  214.5030 N   0  0  0  0  0  0  0  0  0  0  0  0
  142.6560   81.9420  213.9130 H   0  0  0  0  0  0  0  0  0  0  0  0
  143.8710   80.8320  214.3560 H   0  0  0  0  0  0  0  0  0  0  0  0
  142.2750   80.3270  214.1580 H   0  0  0  0  0  0  0  0  0  0  0  0
  142.2700   80.5450  219.0940 C   0  0  0  0  0  0  0  0  0  0  0  0
  142.9556   80.3567  219.9333 H   0  0  0  0  0  0  0  0  0  0  0  0
  142.2883   81.5943  218.7644 H   0  0  0  0  0  0  0  0  0  0  0  0
  140.8360   80.2460  219.5620 C   0  0  0  0  0  0  0  0  0  0  0  0
  140.6537   80.7922  220.4992 H   0  0  0  0  0  0  0  0  0  0  0  0
  140.1576   80.5654  218.7572 H   0  0  0  0  0  0  0  0  0  0  0  0
  1  2  1  0
  2  3  1  0
  3  4  2  0
  4  5  1  0
  4  6  1  0
  6  7  1  0
  6  8  1  0
  6  9  1  0
  3 10  1  0
 10 11  1  0
 11 12  2  0
 12 13  1  0
 12 14  1  0
 14 15  1  0
 14 16  2  0
 16 17  1  0
 16 18  1  0
 18 19  1  0
 18 20  2  0
 20 21  1  0
 10 22  1  0
 22 23  1  1
 22 24  1  0
 24 25  1  0
 24 26  1  0
 24 27  1  0
 27 28  1  0
 27 29  1  0
 27 30  1  0
 30 31  1  6
 30 32  1  0
 32 33  2  0
 32 34  1  0
 34 35  1  1
 34 36  1  0
 36 37  1  0
 36 38  1  0
 38 39  1  0
 38 40  1  0
 38 41  1  0
 41 42  2  0
 42 43  1  0
 42 44  1  0
 44 45  1  0
 44 46  2  0
 46 47  1  0
 46 48  1  0
 48 49  1  0
 48 50  2  0
 50 51  1  0
 51 52  1  0
 51 53  1  0
 34 54  1  0
 54 55  1  0
 54 56  1  0
 54 57  1  0
 30 58  1  0
 58 59  1  0
 58 60  1  0
 58 61  1  0
 61 62  1  0
 61 63  1  0
 20 11  1  0
 61 22  1  0
 51 36  1  0
 50 41  1  0
M  CHG  2  30   1  54   1
M  END
>  <UniqueID>  (72) 
46

>  <SMILES>  (72) 
C/C=C(\O)N(c1ccccc1)C1CC[NH+](C(=O)[C@@H]([NH3+])C2Cc3ccccc3C2)CC1

>  <Energy>  (72) 
93.64452830382983

>  <Genealogy>  (72) 
CCC(=O)N(c1ccccc1)C1CC[NH+](C(=O)[C@@H]([NH3+])C2Cc3ccccc3C2)CC1 (protonated)
CC=C(O)N(c1ccccc1)C1CC[NH+](C(=O)[C@@H]([NH3+])C2Cc3ccccc3C2)CC1 (tautomer)
C/C=C(\O)N(c1ccccc1)C1CC[NH+](C(=O)[C@@H]([NH3+])C2Cc3ccccc3C2)CC1 (cis-trans isomerization)
C/C=C(\O)N(c1ccccc1)C1CC[NH+](C(=O)[C@@H]([NH3+])C2Cc3ccccc3C2)CC1 (3D coordinates assigned)
C/C=C(\O)N(c1ccccc1)C1CC[NH+](C(=O)[C@@H]([NH3+])C2Cc3ccccc3C2)CC1 (nonaromatic ring conformer: 93.64452830382983 kcal/mol)

>  <smiles>  (72) 
CCC(=O)N(c1ccccc1)C1CCN(C(=O)[C@@H](N)C2Cc3ccccc3C2)CC1

>  <score_type>  (72) 
oracle

>  <origin>  (72) 
autodockgpu

>  <m_score__min__energy>  (72) 
-9.2599999999999998

>  <m_primary>  (72) 
energy

>  <meeko>  (72) 
{"free_energy": -6.78, "intermolecular_energy": -9.47, "internal_energy": -2.31, "cluster_size": 1, "cluster_id": 4, "rank_in_cluster": 1}

>  <energy>  (72) 
-8.67

>  <cluster_rmsd>  (72) 
0.29

>  <rmsd>  (72) 
269.49

>  <cluster>  (72) 
2

$$$$
LLZHWBREMUWYMR-DSLJWKJINA-P
     RDKit          3D

 63 66  0  0  0  0  0  0  0  0999 V2000
  146.3380   73.9410  218.9240 H   0  0  0  0  0  0  0  0  0  0  0  0
  146.0220   73.0250  219.2180 O   0  0  0  0  0  0  0  0  0  0  0  0
  145.1050   72.8230  220.2550 C   0  0  0  0  0  0  0  0  0  0  0  0
  145.4540   72.9930  221.5420 C   0  0  0  0  0  0  0  0  0  0  0  0
  144.6895   72.8304  222.3161 H   0  0  0  0  0  0  0  0  0  0  0  0
  146.8290   73.3920  221.9750 C   0  0  0  0  0  0  0  0  0  0  0  0
  146.8777   73.4061  223.0738 H   0  0  0  0  0  0  0  0  0  0  0  0
  147.5605   72.6691  221.5848 H   0  0  0  0  0  0  0  0  0  0  0  0
  147.0599   74.3942  221.5848 H   0  0  0  0  0  0  0  0  0  0  0  0
  143.7680   72.4070  219.9210 N   0  0  0  0  0  0  0  0  0  0  0  0
  143.5550   71.0040  219.6900 C   0  0  0  0  0  0  0  0  0  0  0  0
  142.2570   70.4690  219.6700 C   0  0  0  0  0  0  0  0  0  0  0  0
  141.3918   71.1266  219.8403 H   0  0  0  0  0  0  0  0  0  0  0  0
  142.0580   69.1060  219.4350 C   0  0  0  0  0  0  0  0  0  0  0  0
  141.0409   68.6872  219.4497 H   0  0  0  0  0  0  0  0  0  0  0  0
  143.1540   68.2750  219.1810 C   0  0  0  0  0  0  0  0  0  0  0  0
  142.9992   67.2003  219.0046 H   0  0  0  0  0  0  0  0  0  0  0  0
  144.4450   68.8080  219.1510 C   0  0  0  0  0  0  0  0  0  0  0  0
  145.3044   68.1554  218.9375 H   0  0  0  0  0  0  0  0  0  0  0  0
  144.6450   70.1690  219.3920 C   0  0  0  0  0  0  0  0  0  0  0  0
  145.6606   70.5892  219.3483 H   0  0  0  0  0  0  0  0  0  0  0  0
  142.7410   73.4400  219.6250 C   0  0  2  0  0  0  0  0  0  0  0  0
  141.7920   73.0068  219.9738 H   0  0  0  0  0  0  0  0  0  0  0  0
  142.5280   73.7150  218.1220 C   0  0  0  0  0  0  0  0  0  0  0  0
  142.6215   72.7627  217.5794 H   0  0  0  0  0  0  0  0  0  0  0  0
  141.5295   74.1648  218.0191 H   0  0  0  0  0  0  0  0  0  0  0  0
  143.5320   74.7160  217.5200 C   0  0  0  0  0  0  0  0  0  0  0  0
  144.5092   74.2177  217.4370 H   0  0  0  0  0  0  0  0  0  0  0  0
  143.1278   75.0231  216.5441 H   0  0  0  0  0  0  0  0  0  0  0  0
  143.7060   75.9520  218.3190 N   0  0  1  0  0  0  0  0  0  0  0  0
  144.5640   76.4000  217.9300 H   0  0  0  0  0  0  0  0  0  0  0  0
  142.5930   76.8840  218.1740 C   0  0  0  0  0  0  0  0  0  0  0  0
  141.4950   76.4700  217.8280 O   0  0  0  0  0  0  0  0  0  0  0  0
  142.7190   78.3820  218.4500 C   0  0  2  0  0  0  0  0  0  0  0  0
  143.6509   78.5304  219.0153 H   0  0  0  0  0  0  0  0  0  0  0  0
  141.5400   78.8760  219.3410 C   0  0  0  0  0  0  0  0  0  0  0  0
  140.7035   78.9488  218.6304 H   0  0  0  0  0  0  0  0  0  0  0  0
  141.7850   80.2600  219.9990 C   0  0  0  0  0  0  0  0  0  0  0  0
  142.7278   80.7013  219.6433 H   0  0  0  0  0  0  0  0  0  0  0  0
  140.9988   80.9903  219.7571 H   0  0  0  0  0  0  0  0  0  0  0  0
  141.8580   79.9570  221.4470 C   0  0  0  0  0  0  0  0  0  0  0  0
  142.1650   80.8530  222.4740 C   0  0  0  0  0  0  0  0  0  0  0  0
  142.4162   81.8998  222.2478 H   0  0  0  0  0  0  0  0  0  0  0  0
  142.1470   80.3930  223.7990 C   0  0  0  0  0  0  0  0  0  0  0  0
  142.3915   81.0808  224.6219 H   0  0  0  0  0  0  0  0  0  0  0  0
  141.8170   79.0540  224.0780 C   0  0  0  0  0  0  0  0  0  0  0  0
  141.8024   78.6976  225.1186 H   0  0  0  0  0  0  0  0  0  0  0  0
  141.5060   78.1710  223.0300 C   0  0  0  0  0  0  0  0  0  0  0  0
  141.2417   77.1238  223.2388 H   0  0  0  0  0  0  0  0  0  0  0  0
  141.5390   78.6490  221.7180 C   0  0  0  0  0  0  0  0  0  0  0  0
  141.2050   77.8900  220.4910 C   0  0  0  0  0  0  0  0  0  0  0  0
  141.8162   76.9785  220.4158 H   0  0  0  0  0  0  0  0  0  0  0  0
  140.1576   77.5544  220.4711 H   0  0  0  0  0  0  0  0  0  0  0  0
  142.8960   79.1920  217.2280 N   0  0  0  0  0  0  0  0  0  0  0  0
  143.4460   80.0550  217.4450 H   0  0  0  0  0  0  0  0  0  0  0  0
  143.3720   78.6610  216.4660 H   0  0  0  0  0  0  0  0  0  0  0  0
  141.9690   79.5070  216.8680 H   0  0  0  0  0  0  0  0  0  0  0  0
  144.0070   75.6720  219.7390 C   0  0  0  0  0  0  0  0  0  0  0  0
  145.0014   75.2054  219.7979 H   0  0  0  0  0  0  0  0  0  0  0  0
  143.9624   76.6327  220.2729 H   0  0  0  0  0  0  0  0  0  0  0  0
  142.9910   74.7360  220.4120 C   0  0  0  0  0  0  0  0  0  0  0  0
  143.3694   74.4704  221.4101 H   0  0  0  0  0  0  0  0  0  0  0  0
  142.0341   75.2763  220.4605 H   0  0  0  0  0  0  0  0  0  0  0  0
  1  2  1  0
  2  3  1  0
  3  4  2  0
  4  5  1  0
  4  6  1  0
  6  7  1  0
  6  8  1  0
  6  9  1  0
  3 10  1  0
 10 11  1  0
 11 12  2  0
 12 13  1  0
 12 14  1  0
 14 15  1  0
 14 16  2  0
 16 17  1  0
 16 18  1  0
 18 19  1  0
 18 20  2  0
 20 21  1  0
 10 22  1  0
 22 23  1  1
 22 24  1  0
 24 25  1  0
 24 26  1  0
 24 27  1  0
 27 28  1  0
 27 29  1  0
 27 30  1  0
 30 31  1  6
 30 32  1  0
 32 33  2  0
 32 34  1  0
 34 35  1  1
 34 36  1  0
 36 37  1  0
 36 38  1  0
 38 39  1  0
 38 40  1  0
 38 41  1  0
 41 42  2  0
 42 43  1  0
 42 44  1  0
 44 45  1  0
 44 46  2  0
 46 47  1  0
 46 48  1  0
 48 49  1  0
 48 50  2  0
 50 51  1  0
 51 52  1  0
 51 53  1  0
 34 54  1  0
 54 55  1  0
 54 56  1  0
 54 57  1  0
 30 58  1  0
 58 59  1  0
 58 60  1  0
 58 61  1  0
 61 62  1  0
 61 63  1  0
 20 11  1  0
 61 22  1  0
 51 36  1  0
 50 41  1  0
M  CHG  2  30   1  54   1
M  END
>  <UniqueID>  (73) 
46

>  <SMILES>  (73) 
C/C=C(\O)N(c1ccccc1)C1CC[NH+](C(=O)[C@@H]([NH3+])C2Cc3ccccc3C2)CC1

>  <Energy>  (73) 
93.64452830382983

>  <Genealogy>  (73) 
CCC(=O)N(c1ccccc1)C1CC[NH+](C(=O)[C@@H]([NH3+])C2Cc3ccccc3C2)CC1 (protonated)
CC=C(O)N(c1ccccc1)C1CC[NH+](C(=O)[C@@H]([NH3+])C2Cc3ccccc3C2)CC1 (tautomer)
C/C=C(\O)N(c1ccccc1)C1CC[NH+](C(=O)[C@@H]([NH3+])C2Cc3ccccc3C2)CC1 (cis-trans isomerization)
C/C=C(\O)N(c1ccccc1)C1CC[NH+](C(=O)[C@@H]([NH3+])C2Cc3ccccc3C2)CC1 (3D coordinates assigned)
C/C=C(\O)N(c1ccccc1)C1CC[NH+](C(=O)[C@@H]([NH3+])C2Cc3ccccc3C2)CC1 (nonaromatic ring conformer: 93.64452830382983 kcal/mol)

>  <smiles>  (73) 
CCC(=O)N(c1ccccc1)C1CCN(C(=O)[C@@H](N)C2Cc3ccccc3C2)CC1

>  <score_type>  (73) 
oracle

>  <origin>  (73) 
autodockgpu

>  <m_score__min__energy>  (73) 
-9.2599999999999998

>  <m_primary>  (73) 
energy

>  <meeko>  (73) 
{"free_energy": -9.26, "intermolecular_energy": -11.95, "internal_energy": -1.13, "cluster_size": 7, "cluster_id": 1, "rank_in_cluster": 1}

>  <energy>  (73) 
-8.65

>  <cluster_rmsd>  (73) 
0.42

>  <rmsd>  (73) 
269.44

>  <cluster>  (73) 
2

$$$$
LLZHWBREMUWYMR-DSLJWKJINA-P
     RDKit          3D

 63 66  0  0  0  0  0  0  0  0999 V2000
  146.2950   74.0350  218.6450 H   0  0  0  0  0  0  0  0  0  0  0  0
  145.9190   73.1430  218.9420 O   0  0  0  0  0  0  0  0  0  0  0  0
  144.9790   73.0060  219.9690 C   0  0  0  0  0  0  0  0  0  0  0  0
  145.2980   73.2600  221.2500 C   0  0  0  0  0  0  0  0  0  0  0  0
  144.4832   73.3465  221.9839 H   0  0  0  0  0  0  0  0  0  0  0  0
  146.7060   73.4310  221.7280 C   0  0  0  0  0  0  0  0  0  0  0  0
  146.7221   73.4330  222.8279 H   0  0  0  0  0  0  0  0  0  0  0  0
  147.3236   72.6013  221.3537 H   0  0  0  0  0  0  0  0  0  0  0  0
  147.1070   74.3845  221.3537 H   0  0  0  0  0  0  0  0  0  0  0  0
  143.6500   72.5680  219.6320 N   0  0  0  0  0  0  0  0  0  0  0  0
  143.4460   71.1530  219.4750 C   0  0  0  0  0  0  0  0  0  0  0  0
  144.5390   70.2780  219.3700 C   0  0  0  0  0  0  0  0  0  0  0  0
  145.5638   70.6767  219.3996 H   0  0  0  0  0  0  0  0  0  0  0  0
  144.3320   68.9030  219.2280 C   0  0  0  0  0  0  0  0  0  0  0  0
  145.1914   68.2254  219.1171 H   0  0  0  0  0  0  0  0  0  0  0  0
  143.0320   68.3900  219.2270 C   0  0  0  0  0  0  0  0  0  0  0  0
  142.8682   67.3091  219.1048 H   0  0  0  0  0  0  0  0  0  0  0  0
  141.9400   69.2480  219.3810 C   0  0  0  0  0  0  0  0  0  0  0  0
  140.9182   68.8408  219.3951 H   0  0  0  0  0  0  0  0  0  0  0  0
  142.1460   70.6230  219.5170 C   0  0  0  0  0  0  0  0  0  0  0  0
  141.2858   71.2940  219.6577 H   0  0  0  0  0  0  0  0  0  0  0  0
  142.6260   73.5780  219.2600 C   0  0  2  0  0  0  0  0  0  0  0  0
  141.6595   73.0864  219.4452 H   0  0  0  0  0  0  0  0  0  0  0  0
  142.6090   73.9460  217.7620 C   0  0  0  0  0  0  0  0  0  0  0  0
  142.8202   73.0367  217.1801 H   0  0  0  0  0  0  0  0  0  0  0  0
  141.6143   74.3643  217.5486 H   0  0  0  0  0  0  0  0  0  0  0  0
  143.6380   75.0220  217.3690 C   0  0  0  0  0  0  0  0  0  0  0  0
  144.6395   74.5676  217.3932 H   0  0  0  0  0  0  0  0  0  0  0  0
  143.3576   75.3784  216.3668 H   0  0  0  0  0  0  0  0  0  0  0  0
  143.6430   76.2080  218.2590 N   0  0  1  0  0  0  0  0  0  0  0  0
  144.5250   76.7130  218.0220 H   0  0  0  0  0  0  0  0  0  0  0  0
  142.5180   77.1050  218.0170 C   0  0  0  0  0  0  0  0  0  0  0  0
  141.4790   76.6630  217.5460 O   0  0  0  0  0  0  0  0  0  0  0  0
  142.5590   78.5980  218.3390 C   0  0  2  0  0  0  0  0  0  0  0  0
  143.4911   78.7853  218.8923 H   0  0  0  0  0  0  0  0  0  0  0  0
  141.3700   78.9910  219.2660 C   0  0  0  0  0  0  0  0  0  0  0  0
  140.5147   79.0249  218.5752 H   0  0  0  0  0  0  0  0  0  0  0  0
  141.5390   80.3730  219.9540 C   0  0  0  0  0  0  0  0  0  0  0  0
  142.4432   80.8834  219.5908 H   0  0  0  0  0  0  0  0  0  0  0  0
  140.7022   81.0562  219.7465 H   0  0  0  0  0  0  0  0  0  0  0  0
  141.6630   80.0400  221.3930 C   0  0  0  0  0  0  0  0  0  0  0  0
  141.9330   80.9290  222.4370 C   0  0  0  0  0  0  0  0  0  0  0  0
  142.1099   81.9955  222.2337 H   0  0  0  0  0  0  0  0  0  0  0  0
  141.9740   80.4350  223.7490 C   0  0  0  0  0  0  0  0  0  0  0  0
  142.1907   81.1166  224.5847 H   0  0  0  0  0  0  0  0  0  0  0  0
  141.7390   79.0710  224.0000 C   0  0  0  0  0  0  0  0  0  0  0  0
  141.7714   78.6888  225.0310 H   0  0  0  0  0  0  0  0  0  0  0  0
  141.4630   78.1960  222.9360 C   0  0  0  0  0  0  0  0  0  0  0  0
  141.2718   77.1290  223.1229 H   0  0  0  0  0  0  0  0  0  0  0  0
  141.4360   78.7070  221.6360 C   0  0  0  0  0  0  0  0  0  0  0  0
  141.1260   77.9580  220.3970 C   0  0  0  0  0  0  0  0  0  0  0  0
  141.7941   77.0911  220.2862 H   0  0  0  0  0  0  0  0  0  0  0  0
  140.1026   77.5547  220.3898 H   0  0  0  0  0  0  0  0  0  0  0  0
  142.6630   79.4550  217.1410 N   0  0  0  0  0  0  0  0  0  0  0  0
  142.9760   78.8890  216.3190 H   0  0  0  0  0  0  0  0  0  0  0  0
  141.7620   79.9280  216.9130 H   0  0  0  0  0  0  0  0  0  0  0  0
  143.3840   80.1950  217.2900 H   0  0  0  0  0  0  0  0  0  0  0  0
  143.7600   75.8440  219.6870 C   0  0  0  0  0  0  0  0  0  0  0  0
  144.7574   75.4116  219.8548 H   0  0  0  0  0  0  0  0  0  0  0  0
  143.5989   76.7641  220.2680 H   0  0  0  0  0  0  0  0  0  0  0  0
  142.7050   74.8270  220.1530 C   0  0  0  0  0  0  0  0  0  0  0  0
  142.9548   74.5092  221.1760 H   0  0  0  0  0  0  0  0  0  0  0  0
  141.7264   75.3266  220.1006 H   0  0  0  0  0  0  0  0  0  0  0  0
  1  2  1  0
  2  3  1  0
  3  4  2  0
  4  5  1  0
  4  6  1  0
  6  7  1  0
  6  8  1  0
  6  9  1  0
  3 10  1  0
 10 11  1  0
 11 12  2  0
 12 13  1  0
 12 14  1  0
 14 15  1  0
 14 16  2  0
 16 17  1  0
 16 18  1  0
 18 19  1  0
 18 20  2  0
 20 21  1  0
 10 22  1  0
 22 23  1  1
 22 24  1  0
 24 25  1  0
 24 26  1  0
 24 27  1  0
 27 28  1  0
 27 29  1  0
 27 30  1  0
 30 31  1  6
 30 32  1  0
 32 33  2  0
 32 34  1  0
 34 35  1  1
 34 36  1  0
 36 37  1  0
 36 38  1  0
 38 39  1  0
 38 40  1  0
 38 41  1  0
 41 42  2  0
 42 43  1  0
 42 44  1  0
 44 45  1  0
 44 46  2  0
 46 47  1  0
 46 48  1  0
 48 49  1  0
 48 50  2  0
 50 51  1  0
 51 52  1  0
 51 53  1  0
 34 54  1  0
 54 55  1  0
 54 56  1  0
 54 57  1  0
 30 58  1  0
 58 59  1  0
 58 60  1  0
 58 61  1  0
 61 62  1  0
 61 63  1  0
 20 11  1  0
 61 22  1  0
 51 36  1  0
 50 41  1  0
M  CHG  2  30   1  54   1
M  END
>  <UniqueID>  (74) 
46

>  <SMILES>  (74) 
C/C=C(\O)N(c1ccccc1)C1CC[NH+](C(=O)[C@@H]([NH3+])C2Cc3ccccc3C2)CC1

>  <Energy>  (74) 
93.64452830382983

>  <Genealogy>  (74) 
CCC(=O)N(c1ccccc1)C1CC[NH+](C(=O)[C@@H]([NH3+])C2Cc3ccccc3C2)CC1 (protonated)
CC=C(O)N(c1ccccc1)C1CC[NH+](C(=O)[C@@H]([NH3+])C2Cc3ccccc3C2)CC1 (tautomer)
C/C=C(\O)N(c1ccccc1)C1CC[NH+](C(=O)[C@@H]([NH3+])C2Cc3ccccc3C2)CC1 (cis-trans isomerization)
C/C=C(\O)N(c1ccccc1)C1CC[NH+](C(=O)[C@@H]([NH3+])C2Cc3ccccc3C2)CC1 (3D coordinates assigned)
C/C=C(\O)N(c1ccccc1)C1CC[NH+](C(=O)[C@@H]([NH3+])C2Cc3ccccc3C2)CC1 (nonaromatic ring conformer: 93.64452830382983 kcal/mol)

>  <smiles>  (74) 
CCC(=O)N(c1ccccc1)C1CCN(C(=O)[C@@H](N)C2Cc3ccccc3C2)CC1

>  <score_type>  (74) 
oracle

>  <origin>  (74) 
autodockgpu

>  <m_score__min__energy>  (74) 
-9.2599999999999998

>  <m_primary>  (74) 
energy

>  <meeko>  (74) 
{"free_energy": -9.25, "intermolecular_energy": -11.94, "internal_energy": -1.17, "cluster_size": 7, "cluster_id": 1, "rank_in_cluster": 2}

>  <energy>  (74) 
-8.61

>  <cluster_rmsd>  (74) 
0.43

>  <rmsd>  (74) 
269.45

>  <cluster>  (74) 
2

$$$$
LLZHWBREMUWYMR-DSLJWKJINA-P
     RDKit          3D

 63 66  0  0  0  0  0  0  0  0999 V2000
  139.3800   74.0310  222.7580 H   0  0  0  0  0  0  0  0  0  0  0  0
  140.2300   74.2770  222.2660 O   0  0  0  0  0  0  0  0  0  0  0  0
  141.0000   73.3550  221.5490 C   0  0  0  0  0  0  0  0  0  0  0  0
  141.0460   72.0580  221.9000 C   0  0  0  0  0  0  0  0  0  0  0  0
  141.6320   71.3686  221.2744 H   0  0  0  0  0  0  0  0  0  0  0  0
  140.3410   71.5040  223.0980 C   0  0  0  0  0  0  0  0  0  0  0  0
  140.8211   71.8813  224.0130 H   0  0  0  0  0  0  0  0  0  0  0  0
  139.2869   71.8179  223.0809 H   0  0  0  0  0  0  0  0  0  0  0  0
  140.3968   70.4055  223.0809 H   0  0  0  0  0  0  0  0  0  0  0  0
  141.7660   73.8230  220.4250 N   0  0  0  0  0  0  0  0  0  0  0  0
  143.1380   73.3990  220.3420 C   0  0  0  0  0  0  0  0  0  0  0  0
  144.1700   74.2040  220.8500 C   0  0  0  0  0  0  0  0  0  0  0  0
  143.9311   75.1744  221.3095 H   0  0  0  0  0  0  0  0  0  0  0  0
  145.4990   73.7790  220.7750 C   0  0  0  0  0  0  0  0  0  0  0  0
  146.3060   74.4266  221.1483 H   0  0  0  0  0  0  0  0  0  0  0  0
  145.8020   72.5300  220.2250 C   0  0  0  0  0  0  0  0  0  0  0  0
  146.8488   72.1990  220.1568 H   0  0  0  0  0  0  0  0  0  0  0  0
  144.7770   71.7020  219.7620 C   0  0  0  0  0  0  0  0  0  0  0  0
  145.0161   70.7136  219.3426 H   0  0  0  0  0  0  0  0  0  0  0  0
  143.4480   72.1280  219.8310 C   0  0  0  0  0  0  0  0  0  0  0  0
  142.6415   71.4654  219.4838 H   0  0  0  0  0  0  0  0  0  0  0  0
  141.1890   74.8690  219.5400 C   0  0  2  0  0  0  0  0  0  0  0  0
  140.1946   74.4905  219.2609 H   0  0  0  0  0  0  0  0  0  0  0  0
  141.9370   75.0560  218.2030 C   0  0  0  0  0  0  0  0  0  0  0  0
  142.2758   74.0691  217.8549 H   0  0  0  0  0  0  0  0  0  0  0  0
  141.2306   75.5306  217.5061 H   0  0  0  0  0  0  0  0  0  0  0  0
  143.1630   75.9840  218.2970 C   0  0  0  0  0  0  0  0  0  0  0  0
  143.9605   75.4493  218.8338 H   0  0  0  0  0  0  0  0  0  0  0  0
  143.4444   76.2429  217.2656 H   0  0  0  0  0  0  0  0  0  0  0  0
  142.9030   77.2610  219.0020 N   0  0  1  0  0  0  0  0  0  0  0  0
  143.8500   77.6550  219.1940 H   0  0  0  0  0  0  0  0  0  0  0  0
  142.1600   78.2190  218.1890 C   0  0  0  0  0  0  0  0  0  0  0  0
  141.3060   77.8200  217.4090 O   0  0  0  0  0  0  0  0  0  0  0  0
  142.3850   79.7280  218.2660 C   0  0  2  0  0  0  0  0  0  0  0  0
  143.3425   79.8870  218.7836 H   0  0  0  0  0  0  0  0  0  0  0  0
  141.2680   80.4050  219.1150 C   0  0  0  0  0  0  0  0  0  0  0  0
  140.6610   80.9250  218.3593 H   0  0  0  0  0  0  0  0  0  0  0  0
  141.8000   81.4310  220.1520 C   0  0  0  0  0  0  0  0  0  0  0  0
  142.8857   81.5706  220.0432 H   0  0  0  0  0  0  0  0  0  0  0  0
  141.3528   82.4286  220.0301 H   0  0  0  0  0  0  0  0  0  0  0  0
  141.4760   80.8150  221.4600 C   0  0  0  0  0  0  0  0  0  0  0  0
  141.8350   81.2940  222.7220 C   0  0  0  0  0  0  0  0  0  0  0  0
  142.4459   82.2032  222.8232 H   0  0  0  0  0  0  0  0  0  0  0  0
  141.4020   80.5940  223.8580 C   0  0  0  0  0  0  0  0  0  0  0  0
  141.6784   80.9514  224.8609 H   0  0  0  0  0  0  0  0  0  0  0  0
  140.6150   79.4360  223.7180 C   0  0  0  0  0  0  0  0  0  0  0  0
  140.2764   78.8908  224.6114 H   0  0  0  0  0  0  0  0  0  0  0  0
  140.2610   78.9750  222.4390 C   0  0  0  0  0  0  0  0  0  0  0  0
  139.6415   78.0740  222.3194 H   0  0  0  0  0  0  0  0  0  0  0  0
  140.7110   79.6830  221.3220 C   0  0  0  0  0  0  0  0  0  0  0  0
  140.4110   79.3810  219.9030 C   0  0  0  0  0  0  0  0  0  0  0  0
  140.7031   78.3506  219.6519 H   0  0  0  0  0  0  0  0  0  0  0  0
  139.3385   79.4571  219.6705 H   0  0  0  0  0  0  0  0  0  0  0  0
  142.5710   80.3640  216.9460 N   0  0  0  0  0  0  0  0  0  0  0  0
  141.7790   81.0180  216.7470 H   0  0  0  0  0  0  0  0  0  0  0  0
  143.4730   80.8830  216.8800 H   0  0  0  0  0  0  0  0  0  0  0  0
  142.5610   79.6400  216.1940 H   0  0  0  0  0  0  0  0  0  0  0  0
  142.2760   77.0600  220.3250 C   0  0  0  0  0  0  0  0  0  0  0  0
  143.0047   76.5638  220.9829 H   0  0  0  0  0  0  0  0  0  0  0  0
  141.9835   78.0532  220.6966 H   0  0  0  0  0  0  0  0  0  0  0  0
  141.0000   76.2030  220.2800 C   0  0  0  0  0  0  0  0  0  0  0  0
  140.6872   75.9882  221.3125 H   0  0  0  0  0  0  0  0  0  0  0  0
  140.2414   76.7771  219.7278 H   0  0  0  0  0  0  0  0  0  0  0  0
  1  2  1  0
  2  3  1  0
  3  4  2  0
  4  5  1  0
  4  6  1  0
  6  7  1  0
  6  8  1  0
  6  9  1  0
  3 10  1  0
 10 11  1  0
 11 12  2  0
 12 13  1  0
 12 14  1  0
 14 15  1  0
 14 16  2  0
 16 17  1  0
 16 18  1  0
 18 19  1  0
 18 20  2  0
 20 21  1  0
 10 22  1  0
 22 23  1  6
 22 24  1  0
 24 25  1  0
 24 26  1  0
 24 27  1  0
 27 28  1  0
 27 29  1  0
 27 30  1  0
 30 31  1  1
 30 32  1  0
 32 33  2  0
 32 34  1  0
 34 35  1  1
 34 36  1  0
 36 37  1  0
 36 38  1  0
 38 39  1  0
 38 40  1  0
 38 41  1  0
 41 42  2  0
 42 43  1  0
 42 44  1  0
 44 45  1  0
 44 46  2  0
 46 47  1  0
 46 48  1  0
 48 49  1  0
 48 50  2  0
 50 51  1  0
 51 52  1  0
 51 53  1  0
 34 54  1  0
 54 55  1  0
 54 56  1  0
 54 57  1  0
 30 58  1  0
 58 59  1  0
 58 60  1  0
 58 61  1  0
 61 62  1  0
 61 63  1  0
 20 11  1  0
 61 22  1  0
 51 36  1  0
 50 41  1  0
M  CHG  2  30   1  54   1
M  END
>  <UniqueID>  (75) 
46

>  <SMILES>  (75) 
C/C=C(\O)N(c1ccccc1)C1CC[NH+](C(=O)[C@@H]([NH3+])C2Cc3ccccc3C2)CC1

>  <Energy>  (75) 
93.64452830382983

>  <Genealogy>  (75) 
CCC(=O)N(c1ccccc1)C1CC[NH+](C(=O)[C@@H]([NH3+])C2Cc3ccccc3C2)CC1 (protonated)
CC=C(O)N(c1ccccc1)C1CC[NH+](C(=O)[C@@H]([NH3+])C2Cc3ccccc3C2)CC1 (tautomer)
C/C=C(\O)N(c1ccccc1)C1CC[NH+](C(=O)[C@@H]([NH3+])C2Cc3ccccc3C2)CC1 (cis-trans isomerization)
C/C=C(\O)N(c1ccccc1)C1CC[NH+](C(=O)[C@@H]([NH3+])C2Cc3ccccc3C2)CC1 (3D coordinates assigned)
C/C=C(\O)N(c1ccccc1)C1CC[NH+](C(=O)[C@@H]([NH3+])C2Cc3ccccc3C2)CC1 (nonaromatic ring conformer: 93.64452830382983 kcal/mol)

>  <smiles>  (75) 
CCC(=O)N(c1ccccc1)C1CCN(C(=O)[C@@H](N)C2Cc3ccccc3C2)CC1

>  <score_type>  (75) 
oracle

>  <origin>  (75) 
autodockgpu

>  <m_score__min__energy>  (75) 
-9.2599999999999998

>  <m_primary>  (75) 
energy

>  <meeko>  (75) 
{"free_energy": -8.96, "intermolecular_energy": -11.65, "internal_energy": -1.62, "cluster_size": 11, "cluster_id": 2, "rank_in_cluster": 1}

>  <energy>  (75) 
-8.45

>  <cluster_rmsd>  (75) 
0.48

>  <rmsd>  (75) 
269.45

>  <cluster>  (75) 
2

$$$$
LLZHWBREMUWYMR-DSLJWKJINA-P
     RDKit          3D

 63 66  0  0  0  0  0  0  0  0999 V2000
  139.4810   74.0760  222.8220 H   0  0  0  0  0  0  0  0  0  0  0  0
  140.3550   74.2220  222.3310 O   0  0  0  0  0  0  0  0  0  0  0  0
  140.9030   73.2930  221.4410 C   0  0  0  0  0  0  0  0  0  0  0  0
  140.6700   71.9750  221.5710 C   0  0  0  0  0  0  0  0  0  0  0  0
  140.9357   71.3127  220.7338 H   0  0  0  0  0  0  0  0  0  0  0  0
  140.0680   71.3640  222.7960 C   0  0  0  0  0  0  0  0  0  0  0  0
  140.5166   71.8193  223.6912 H   0  0  0  0  0  0  0  0  0  0  0  0
  138.9825   71.5420  222.7989 H   0  0  0  0  0  0  0  0  0  0  0  0
  140.2620   70.2813  222.7989 H   0  0  0  0  0  0  0  0  0  0  0  0
  141.7450   73.7730  220.3770 N   0  0  0  0  0  0  0  0  0  0  0  0
  143.1260   73.3720  220.4010 C   0  0  0  0  0  0  0  0  0  0  0  0
  143.5190   72.1220  219.8970 C   0  0  0  0  0  0  0  0  0  0  0  0
  142.7639   71.4359  219.4858 H   0  0  0  0  0  0  0  0  0  0  0  0
  144.8640   71.7450  219.9150 C   0  0  0  0  0  0  0  0  0  0  0  0
  145.1624   70.7528  219.5456 H   0  0  0  0  0  0  0  0  0  0  0  0
  145.8310   72.6300  220.4030 C   0  0  0  0  0  0  0  0  0  0  0  0
  146.8890   72.3298  220.4262 H   0  0  0  0  0  0  0  0  0  0  0  0
  145.4540   73.8950  220.8610 C   0  0  0  0  0  0  0  0  0  0  0  0
  146.2167   74.5956  221.2317 H   0  0  0  0  0  0  0  0  0  0  0  0
  144.1080   74.2700  220.8480 C   0  0  0  0  0  0  0  0  0  0  0  0
  143.8164   75.2741  221.1898 H   0  0  0  0  0  0  0  0  0  0  0  0
  141.2190   74.8060  219.4460 C   0  0  2  0  0  0  0  0  0  0  0  0
  140.3380   74.3455  218.9751 H   0  0  0  0  0  0  0  0  0  0  0  0
  142.1650   75.1500  218.2770 C   0  0  0  0  0  0  0  0  0  0  0  0
  142.6682   74.2261  217.9558 H   0  0  0  0  0  0  0  0  0  0  0  0
  141.5436   75.5914  217.4839 H   0  0  0  0  0  0  0  0  0  0  0  0
  143.2440   76.1920  218.6300 C   0  0  0  0  0  0  0  0  0  0  0  0
  143.9899   75.7106  219.2796 H   0  0  0  0  0  0  0  0  0  0  0  0
  143.6716   76.5409  217.6785 H   0  0  0  0  0  0  0  0  0  0  0  0
  142.7220   77.3900  219.3290 N   0  0  1  0  0  0  0  0  0  0  0  0
  143.5700   77.8660  219.7060 H   0  0  0  0  0  0  0  0  0  0  0  0
  142.0320   78.3140  218.4360 C   0  0  0  0  0  0  0  0  0  0  0  0
  141.1190   77.9090  217.7300 O   0  0  0  0  0  0  0  0  0  0  0  0
  142.3840   79.7980  218.3380 C   0  0  2  0  0  0  0  0  0  0  0  0
  143.4357   79.9028  218.6427 H   0  0  0  0  0  0  0  0  0  0  0  0
  141.5170   80.6320  219.3280 C   0  0  0  0  0  0  0  0  0  0  0  0
  141.3850   81.5878  218.7997 H   0  0  0  0  0  0  0  0  0  0  0  0
  142.1970   80.8860  220.7010 C   0  0  0  0  0  0  0  0  0  0  0  0
  143.2280   80.5025  220.7044 H   0  0  0  0  0  0  0  0  0  0  0  0
  142.2716   81.9556  220.9470 H   0  0  0  0  0  0  0  0  0  0  0  0
  141.3520   80.1360  221.6590 C   0  0  0  0  0  0  0  0  0  0  0  0
  141.5910   79.9580  223.0240 C   0  0  0  0  0  0  0  0  0  0  0  0
  142.4982   80.3680  223.4918 H   0  0  0  0  0  0  0  0  0  0  0  0
  140.6530   79.2470  223.7870 C   0  0  0  0  0  0  0  0  0  0  0  0
  140.8251   79.0918  224.8623 H   0  0  0  0  0  0  0  0  0  0  0  0
  139.4930   78.7320  223.1810 C   0  0  0  0  0  0  0  0  0  0  0  0
  138.7597   78.1756  223.7833 H   0  0  0  0  0  0  0  0  0  0  0  0
  139.2690   78.9270  221.8070 C   0  0  0  0  0  0  0  0  0  0  0  0
  138.3619   78.5331  221.3253 H   0  0  0  0  0  0  0  0  0  0  0  0
  140.2210   79.6310  221.0650 C   0  0  0  0  0  0  0  0  0  0  0  0
  140.1460   79.9720  219.6260 C   0  0  0  0  0  0  0  0  0  0  0  0
  140.0062   79.0673  219.0161 H   0  0  0  0  0  0  0  0  0  0  0  0
  139.2974   80.6307  219.3895 H   0  0  0  0  0  0  0  0  0  0  0  0
  142.3480   80.3220  216.9580 N   0  0  0  0  0  0  0  0  0  0  0  0
  143.3110   80.3280  216.5500 H   0  0  0  0  0  0  0  0  0  0  0  0
  141.7140   79.7690  216.3410 H   0  0  0  0  0  0  0  0  0  0  0  0
  142.0140   81.3100  216.9570 H   0  0  0  0  0  0  0  0  0  0  0  0
  141.8980   77.0450  220.5070 C   0  0  0  0  0  0  0  0  0  0  0  0
  142.5503   76.5872  221.2653 H   0  0  0  0  0  0  0  0  0  0  0  0
  141.4351   77.9782  220.8604 H   0  0  0  0  0  0  0  0  0  0  0  0
  140.7550   76.0660  220.1950 C   0  0  0  0  0  0  0  0  0  0  0  0
  140.2915   75.7572  221.1436 H   0  0  0  0  0  0  0  0  0  0  0  0
  140.0463   76.5921  219.5385 H   0  0  0  0  0  0  0  0  0  0  0  0
  1  2  1  0
  2  3  1  0
  3  4  2  0
  4  5  1  0
  4  6  1  0
  6  7  1  0
  6  8  1  0
  6  9  1  0
  3 10  1  0
 10 11  1  0
 11 12  2  0
 12 13  1  0
 12 14  1  0
 14 15  1  0
 14 16  2  0
 16 17  1  0
 16 18  1  0
 18 19  1  0
 18 20  2  0
 20 21  1  0
 10 22  1  0
 22 23  1  6
 22 24  1  0
 24 25  1  0
 24 26  1  0
 24 27  1  0
 27 28  1  0
 27 29  1  0
 27 30  1  0
 30 31  1  1
 30 32  1  0
 32 33  2  0
 32 34  1  0
 34 35  1  1
 34 36  1  0
 36 37  1  0
 36 38  1  0
 38 39  1  0
 38 40  1  0
 38 41  1  0
 41 42  2  0
 42 43  1  0
 42 44  1  0
 44 45  1  0
 44 46  2  0
 46 47  1  0
 46 48  1  0
 48 49  1  0
 48 50  2  0
 50 51  1  0
 51 52  1  0
 51 53  1  0
 34 54  1  0
 54 55  1  0
 54 56  1  0
 54 57  1  0
 30 58  1  0
 58 59  1  0
 58 60  1  0
 58 61  1  0
 61 62  1  0
 61 63  1  0
 20 11  1  0
 61 22  1  0
 51 36  1  0
 50 41  1  0
M  CHG  2  30   1  54   1
M  END
>  <UniqueID>  (76) 
46

>  <SMILES>  (76) 
C/C=C(\O)N(c1ccccc1)C1CC[NH+](C(=O)[C@@H]([NH3+])C2Cc3ccccc3C2)CC1

>  <Energy>  (76) 
93.64452830382983

>  <Genealogy>  (76) 
CCC(=O)N(c1ccccc1)C1CC[NH+](C(=O)[C@@H]([NH3+])C2Cc3ccccc3C2)CC1 (protonated)
CC=C(O)N(c1ccccc1)C1CC[NH+](C(=O)[C@@H]([NH3+])C2Cc3ccccc3C2)CC1 (tautomer)
C/C=C(\O)N(c1ccccc1)C1CC[NH+](C(=O)[C@@H]([NH3+])C2Cc3ccccc3C2)CC1 (cis-trans isomerization)
C/C=C(\O)N(c1ccccc1)C1CC[NH+](C(=O)[C@@H]([NH3+])C2Cc3ccccc3C2)CC1 (3D coordinates assigned)
C/C=C(\O)N(c1ccccc1)C1CC[NH+](C(=O)[C@@H]([NH3+])C2Cc3ccccc3C2)CC1 (nonaromatic ring conformer: 93.64452830382983 kcal/mol)

>  <smiles>  (76) 
CCC(=O)N(c1ccccc1)C1CCN(C(=O)[C@@H](N)C2Cc3ccccc3C2)CC1

>  <score_type>  (76) 
oracle

>  <origin>  (76) 
autodockgpu

>  <m_score__min__energy>  (76) 
-9.2599999999999998

>  <m_primary>  (76) 
energy

>  <meeko>  (76) 
{"free_energy": -8.34, "intermolecular_energy": -11.02, "internal_energy": -1.98, "cluster_size": 11, "cluster_id": 2, "rank_in_cluster": 10}

>  <energy>  (76) 
-8.39

>  <cluster_rmsd>  (76) 
0.47

>  <rmsd>  (76) 
269.48

>  <cluster>  (76) 
2

$$$$
LLZHWBREMUWYMR-DSLJWKJINA-P
     RDKit          3D

 63 66  0  0  0  0  0  0  0  0999 V2000
  139.5790   74.1440  223.0160 H   0  0  0  0  0  0  0  0  0  0  0  0
  140.2260   74.3680  222.2700 O   0  0  0  0  0  0  0  0  0  0  0  0
  140.8820   73.3990  221.5040 C   0  0  0  0  0  0  0  0  0  0  0  0
  140.7680   72.0880  221.7830 C   0  0  0  0  0  0  0  0  0  0  0  0
  140.9949   71.3628  220.9876 H   0  0  0  0  0  0  0  0  0  0  0  0
  140.3480   71.5670  223.1210 C   0  0  0  0  0  0  0  0  0  0  0  0
  140.8272   72.1614  223.9129 H   0  0  0  0  0  0  0  0  0  0  0  0
  139.2548   71.6419  223.2170 H   0  0  0  0  0  0  0  0  0  0  0  0
  140.6532   70.5146  223.2170 H   0  0  0  0  0  0  0  0  0  0  0  0
  141.7080   73.8310  220.4070 N   0  0  0  0  0  0  0  0  0  0  0  0
  143.0670   73.3620  220.3840 C   0  0  0  0  0  0  0  0  0  0  0  0
  143.3830   72.1060  219.8410 C   0  0  0  0  0  0  0  0  0  0  0  0
  142.5836   71.4683  219.4356 H   0  0  0  0  0  0  0  0  0  0  0  0
  144.7080   71.6620  219.8130 C   0  0  0  0  0  0  0  0  0  0  0  0
  144.9464   70.6654  219.4130 H   0  0  0  0  0  0  0  0  0  0  0  0
  145.7300   72.4860  220.2940 C   0  0  0  0  0  0  0  0  0  0  0  0
  146.7718   72.1332  220.2812 H   0  0  0  0  0  0  0  0  0  0  0  0
  145.4300   73.7570  220.7910 C   0  0  0  0  0  0  0  0  0  0  0  0
  146.2370   74.4096  221.1555 H   0  0  0  0  0  0  0  0  0  0  0  0
  144.1050   74.1990  220.8250 C   0  0  0  0  0  0  0  0  0  0  0  0
  143.8737   75.2073  221.1989 H   0  0  0  0  0  0  0  0  0  0  0  0
  141.2010   74.8840  219.4890 C   0  0  2  0  0  0  0  0  0  0  0  0
  140.2839   74.4643  219.0500 H   0  0  0  0  0  0  0  0  0  0  0  0
  142.1210   75.1780  218.2870 C   0  0  0  0  0  0  0  0  0  0  0  0
  142.5680   74.2299  217.9535 H   0  0  0  0  0  0  0  0  0  0  0  0
  141.4943   75.6460  217.5136 H   0  0  0  0  0  0  0  0  0  0  0  0
  143.2600   76.1680  218.5970 C   0  0  0  0  0  0  0  0  0  0  0  0
  144.0038   75.6538  219.2234 H   0  0  0  0  0  0  0  0  0  0  0  0
  143.6710   76.4921  217.6295 H   0  0  0  0  0  0  0  0  0  0  0  0
  142.8200   77.3930  219.3070 N   0  0  1  0  0  0  0  0  0  0  0  0
  143.7020   77.8290  219.6530 H   0  0  0  0  0  0  0  0  0  0  0  0
  142.1450   78.3460  218.4330 C   0  0  0  0  0  0  0  0  0  0  0  0
  141.2460   77.9630  217.6960 O   0  0  0  0  0  0  0  0  0  0  0  0
  142.4960   79.8320  218.3920 C   0  0  2  0  0  0  0  0  0  0  0  0
  143.5282   79.9318  218.7588 H   0  0  0  0  0  0  0  0  0  0  0  0
  141.5710   80.6390  219.3510 C   0  0  0  0  0  0  0  0  0  0  0  0
  141.4270   81.5896  218.8166 H   0  0  0  0  0  0  0  0  0  0  0  0
  142.1960   80.9150  220.7450 C   0  0  0  0  0  0  0  0  0  0  0  0
  143.2380   80.5645  220.7832 H   0  0  0  0  0  0  0  0  0  0  0  0
  142.2277   81.9866  220.9912 H   0  0  0  0  0  0  0  0  0  0  0  0
  141.3450   80.1400  221.6760 C   0  0  0  0  0  0  0  0  0  0  0  0
  141.5450   79.9710  223.0490 C   0  0  0  0  0  0  0  0  0  0  0  0
  142.4226   80.4105  223.5457 H   0  0  0  0  0  0  0  0  0  0  0  0
  140.6050   79.2300  223.7820 C   0  0  0  0  0  0  0  0  0  0  0  0
  140.7468   79.0804  224.8625 H   0  0  0  0  0  0  0  0  0  0  0  0
  139.4820   78.6780  223.1390 C   0  0  0  0  0  0  0  0  0  0  0  0
  138.7471   78.0992  223.7177 H   0  0  0  0  0  0  0  0  0  0  0  0
  139.2980   78.8650  221.7590 C   0  0  0  0  0  0  0  0  0  0  0  0
  138.4201   78.4423  221.2484 H   0  0  0  0  0  0  0  0  0  0  0  0
  140.2510   79.5980  221.0470 C   0  0  0  0  0  0  0  0  0  0  0  0
  140.2120   79.9360  219.6050 C   0  0  0  0  0  0  0  0  0  0  0  0
  140.1207   79.0271  218.9921 H   0  0  0  0  0  0  0  0  0  0  0  0
  139.3512   80.5674  219.3399 H   0  0  0  0  0  0  0  0  0  0  0  0
  142.5360   80.3900  217.0250 N   0  0  0  0  0  0  0  0  0  0  0  0
  143.5260   80.5510  216.7310 H   0  0  0  0  0  0  0  0  0  0  0  0
  142.0640   79.7710  216.3310 H   0  0  0  0  0  0  0  0  0  0  0  0
  142.0590   81.3180  217.0020 H   0  0  0  0  0  0  0  0  0  0  0  0
  142.0220   77.0920  220.5140 C   0  0  0  0  0  0  0  0  0  0  0  0
  142.6777   76.6065  221.2518 H   0  0  0  0  0  0  0  0  0  0  0  0
  141.6163   78.0475  220.8779 H   0  0  0  0  0  0  0  0  0  0  0  0
  140.8230   76.1670  220.2470 C   0  0  0  0  0  0  0  0  0  0  0  0
  140.3788   75.8838  221.2126 H   0  0  0  0  0  0  0  0  0  0  0  0
  140.1172   76.7237  219.6130 H   0  0  0  0  0  0  0  0  0  0  0  0
  1  2  1  0
  2  3  1  0
  3  4  2  0
  4  5  1  0
  4  6  1  0
  6  7  1  0
  6  8  1  0
  6  9  1  0
  3 10  1  0
 10 11  1  0
 11 12  2  0
 12 13  1  0
 12 14  1  0
 14 15  1  0
 14 16  2  0
 16 17  1  0
 16 18  1  0
 18 19  1  0
 18 20  2  0
 20 21  1  0
 10 22  1  0
 22 23  1  6
 22 24  1  0
 24 25  1  0
 24 26  1  0
 24 27  1  0
 27 28  1  0
 27 29  1  0
 27 30  1  0
 30 31  1  1
 30 32  1  0
 32 33  2  0
 32 34  1  0
 34 35  1  1
 34 36  1  0
 36 37  1  0
 36 38  1  0
 38 39  1  0
 38 40  1  0
 38 41  1  0
 41 42  2  0
 42 43  1  0
 42 44  1  0
 44 45  1  0
 44 46  2  0
 46 47  1  0
 46 48  1  0
 48 49  1  0
 48 50  2  0
 50 51  1  0
 51 52  1  0
 51 53  1  0
 34 54  1  0
 54 55  1  0
 54 56  1  0
 54 57  1  0
 30 58  1  0
 58 59  1  0
 58 60  1  0
 58 61  1  0
 61 62  1  0
 61 63  1  0
 20 11  1  0
 61 22  1  0
 51 36  1  0
 50 41  1  0
M  CHG  2  30   1  54   1
M  END
>  <UniqueID>  (77) 
46

>  <SMILES>  (77) 
C/C=C(\O)N(c1ccccc1)C1CC[NH+](C(=O)[C@@H]([NH3+])C2Cc3ccccc3C2)CC1

>  <Energy>  (77) 
93.64452830382983

>  <Genealogy>  (77) 
CCC(=O)N(c1ccccc1)C1CC[NH+](C(=O)[C@@H]([NH3+])C2Cc3ccccc3C2)CC1 (protonated)
CC=C(O)N(c1ccccc1)C1CC[NH+](C(=O)[C@@H]([NH3+])C2Cc3ccccc3C2)CC1 (tautomer)
C/C=C(\O)N(c1ccccc1)C1CC[NH+](C(=O)[C@@H]([NH3+])C2Cc3ccccc3C2)CC1 (cis-trans isomerization)
C/C=C(\O)N(c1ccccc1)C1CC[NH+](C(=O)[C@@H]([NH3+])C2Cc3ccccc3C2)CC1 (3D coordinates assigned)
C/C=C(\O)N(c1ccccc1)C1CC[NH+](C(=O)[C@@H]([NH3+])C2Cc3ccccc3C2)CC1 (nonaromatic ring conformer: 93.64452830382983 kcal/mol)

>  <smiles>  (77) 
CCC(=O)N(c1ccccc1)C1CCN(C(=O)[C@@H](N)C2Cc3ccccc3C2)CC1

>  <score_type>  (77) 
oracle

>  <origin>  (77) 
autodockgpu

>  <m_score__min__energy>  (77) 
-9.2599999999999998

>  <m_primary>  (77) 
energy

>  <meeko>  (77) 
{"free_energy": -8.39, "intermolecular_energy": -11.07, "internal_energy": -1.95, "cluster_size": 11, "cluster_id": 2, "rank_in_cluster": 9}

>  <energy>  (77) 
-8.34

>  <cluster_rmsd>  (77) 
0.52

>  <rmsd>  (77) 
269.44

>  <cluster>  (77) 
2

$$$$
LLZHWBREMUWYMR-DSLJWKJINA-P
     RDKit          3D

 63 66  0  0  0  0  0  0  0  0999 V2000
  139.2780   73.9910  222.8130 H   0  0  0  0  0  0  0  0  0  0  0  0
  140.0390   74.2580  222.2010 O   0  0  0  0  0  0  0  0  0  0  0  0
  140.8860   73.3360  221.5780 C   0  0  0  0  0  0  0  0  0  0  0  0
  140.9760   72.0650  222.0070 C   0  0  0  0  0  0  0  0  0  0  0  0
  141.5573   71.3510  221.4051 H   0  0  0  0  0  0  0  0  0  0  0  0
  140.3260   71.5720  223.2610 C   0  0  0  0  0  0  0  0  0  0  0  0
  140.8593   71.9765  224.1339 H   0  0  0  0  0  0  0  0  0  0  0  0
  139.2776   71.9041  223.2856 H   0  0  0  0  0  0  0  0  0  0  0  0
  140.3631   70.4729  223.2856 H   0  0  0  0  0  0  0  0  0  0  0  0
  141.6850   73.7770  220.4650 N   0  0  0  0  0  0  0  0  0  0  0  0
  143.0540   73.3410  220.4260 C   0  0  0  0  0  0  0  0  0  0  0  0
  143.3950   72.0950  219.8750 C   0  0  0  0  0  0  0  0  0  0  0  0
  142.6069   71.4396  219.4757 H   0  0  0  0  0  0  0  0  0  0  0  0
  144.7290   71.6830  219.8310 C   0  0  0  0  0  0  0  0  0  0  0  0
  144.9864   70.6938  219.4246 H   0  0  0  0  0  0  0  0  0  0  0  0
  145.7370   72.5290  220.3040 C   0  0  0  0  0  0  0  0  0  0  0  0
  146.7867   72.2013  220.2787 H   0  0  0  0  0  0  0  0  0  0  0  0
  145.4110   73.7910  220.8090 C   0  0  0  0  0  0  0  0  0  0  0  0
  146.2057   74.4615  221.1680 H   0  0  0  0  0  0  0  0  0  0  0  0
  144.0770   74.2010  220.8580 C   0  0  0  0  0  0  0  0  0  0  0  0
  143.8261   75.2027  221.2369 H   0  0  0  0  0  0  0  0  0  0  0  0
  141.1390   74.8090  219.5450 C   0  0  2  0  0  0  0  0  0  0  0  0
  140.2383   74.3531  219.1081 H   0  0  0  0  0  0  0  0  0  0  0  0
  142.0470   75.1360  218.3420 C   0  0  0  0  0  0  0  0  0  0  0  0
  142.5282   74.2047  218.0088 H   0  0  0  0  0  0  0  0  0  0  0  0
  141.4028   75.5805  217.5690 H   0  0  0  0  0  0  0  0  0  0  0  0
  143.1490   76.1670  218.6500 C   0  0  0  0  0  0  0  0  0  0  0  0
  143.9112   75.6813  219.2770 H   0  0  0  0  0  0  0  0  0  0  0  0
  143.5477   76.5043  217.6819 H   0  0  0  0  0  0  0  0  0  0  0  0
  142.6650   77.3760  219.3580 N   0  0  1  0  0  0  0  0  0  0  0  0
  143.5300   77.8450  219.7030 H   0  0  0  0  0  0  0  0  0  0  0  0
  141.9540   78.3020  218.4820 C   0  0  0  0  0  0  0  0  0  0  0  0
  141.0040   77.9050  217.8210 O   0  0  0  0  0  0  0  0  0  0  0  0
  142.3300   79.7770  218.3490 C   0  0  2  0  0  0  0  0  0  0  0  0
  143.3938   79.8660  218.6145 H   0  0  0  0  0  0  0  0  0  0  0  0
  141.5150   80.6420  219.3560 C   0  0  0  0  0  0  0  0  0  0  0  0
  141.4896   81.6297  218.8725 H   0  0  0  0  0  0  0  0  0  0  0  0
  142.1730   80.7650  220.7570 C   0  0  0  0  0  0  0  0  0  0  0  0
  143.1629   80.2855  220.7683 H   0  0  0  0  0  0  0  0  0  0  0  0
  142.3399   81.8098  221.0580 H   0  0  0  0  0  0  0  0  0  0  0  0
  141.2320   80.0540  221.6540 C   0  0  0  0  0  0  0  0  0  0  0  0
  141.4120   79.7900  223.0150 C   0  0  0  0  0  0  0  0  0  0  0  0
  142.3387   80.0897  223.5262 H   0  0  0  0  0  0  0  0  0  0  0  0
  140.3890   79.1360  223.7160 C   0  0  0  0  0  0  0  0  0  0  0  0
  140.5128   78.9140  224.7862 H   0  0  0  0  0  0  0  0  0  0  0  0
  139.2050   78.7630  223.0550 C   0  0  0  0  0  0  0  0  0  0  0  0
  138.4048   78.2509  223.6095 H   0  0  0  0  0  0  0  0  0  0  0  0
  139.0420   79.0430  221.6880 C   0  0  0  0  0  0  0  0  0  0  0  0
  138.1169   78.7607  221.1641 H   0  0  0  0  0  0  0  0  0  0  0  0
  140.0780   79.6870  221.0070 C   0  0  0  0  0  0  0  0  0  0  0  0
  140.0790   80.1020  219.5850 C   0  0  0  0  0  0  0  0  0  0  0  0
  139.8734   79.2449  218.9269 H   0  0  0  0  0  0  0  0  0  0  0  0
  139.3036   80.8491  219.3602 H   0  0  0  0  0  0  0  0  0  0  0  0
  142.2530   80.2810  216.9630 N   0  0  0  0  0  0  0  0  0  0  0  0
  143.2030   80.2770  216.5260 H   0  0  0  0  0  0  0  0  0  0  0  0
  141.5990   79.7220  216.3740 H   0  0  0  0  0  0  0  0  0  0  0  0
  141.9220   81.2700  216.9580 H   0  0  0  0  0  0  0  0  0  0  0  0
  141.8780   77.0480  220.5660 C   0  0  0  0  0  0  0  0  0  0  0  0
  142.5508   76.5877  221.3046 H   0  0  0  0  0  0  0  0  0  0  0  0
  141.4379   77.9886  220.9287 H   0  0  0  0  0  0  0  0  0  0  0  0
  140.7140   76.0800  220.3000 C   0  0  0  0  0  0  0  0  0  0  0  0
  140.2792   75.7832  221.2659 H   0  0  0  0  0  0  0  0  0  0  0  0
  139.9893   76.6094  219.6639 H   0  0  0  0  0  0  0  0  0  0  0  0
  1  2  1  0
  2  3  1  0
  3  4  2  0
  4  5  1  0
  4  6  1  0
  6  7  1  0
  6  8  1  0
  6  9  1  0
  3 10  1  0
 10 11  1  0
 11 12  2  0
 12 13  1  0
 12 14  1  0
 14 15  1  0
 14 16  2  0
 16 17  1  0
 16 18  1  0
 18 19  1  0
 18 20  2  0
 20 21  1  0
 10 22  1  0
 22 23  1  6
 22 24  1  0
 24 25  1  0
 24 26  1  0
 24 27  1  0
 27 28  1  0
 27 29  1  0
 27 30  1  0
 30 31  1  1
 30 32  1  0
 32 33  2  0
 32 34  1  0
 34 35  1  1
 34 36  1  0
 36 37  1  0
 36 38  1  0
 38 39  1  0
 38 40  1  0
 38 41  1  0
 41 42  2  0
 42 43  1  0
 42 44  1  0
 44 45  1  0
 44 46  2  0
 46 47  1  0
 46 48  1  0
 48 49  1  0
 48 50  2  0
 50 51  1  0
 51 52  1  0
 51 53  1  0
 34 54  1  0
 54 55  1  0
 54 56  1  0
 54 57  1  0
 30 58  1  0
 58 59  1  0
 58 60  1  0
 58 61  1  0
 61 62  1  0
 61 63  1  0
 20 11  1  0
 61 22  1  0
 51 36  1  0
 50 41  1  0
M  CHG  2  30   1  54   1
M  END
>  <UniqueID>  (78) 
46

>  <SMILES>  (78) 
C/C=C(\O)N(c1ccccc1)C1CC[NH+](C(=O)[C@@H]([NH3+])C2Cc3ccccc3C2)CC1

>  <Energy>  (78) 
93.64452830382983

>  <Genealogy>  (78) 
CCC(=O)N(c1ccccc1)C1CC[NH+](C(=O)[C@@H]([NH3+])C2Cc3ccccc3C2)CC1 (protonated)
CC=C(O)N(c1ccccc1)C1CC[NH+](C(=O)[C@@H]([NH3+])C2Cc3ccccc3C2)CC1 (tautomer)
C/C=C(\O)N(c1ccccc1)C1CC[NH+](C(=O)[C@@H]([NH3+])C2Cc3ccccc3C2)CC1 (cis-trans isomerization)
C/C=C(\O)N(c1ccccc1)C1CC[NH+](C(=O)[C@@H]([NH3+])C2Cc3ccccc3C2)CC1 (3D coordinates assigned)
C/C=C(\O)N(c1ccccc1)C1CC[NH+](C(=O)[C@@H]([NH3+])C2Cc3ccccc3C2)CC1 (nonaromatic ring conformer: 93.64452830382983 kcal/mol)

>  <smiles>  (78) 
CCC(=O)N(c1ccccc1)C1CCN(C(=O)[C@@H](N)C2Cc3ccccc3C2)CC1

>  <score_type>  (78) 
oracle

>  <origin>  (78) 
autodockgpu

>  <m_score__min__energy>  (78) 
-9.2599999999999998

>  <m_primary>  (78) 
energy

>  <meeko>  (78) 
{"free_energy": -8.28, "intermolecular_energy": -10.96, "internal_energy": -1.97, "cluster_size": 11, "cluster_id": 2, "rank_in_cluster": 11}

>  <energy>  (78) 
-8.28

>  <cluster_rmsd>  (78) 
0.57

>  <rmsd>  (78) 
269.41

>  <cluster>  (78) 
2

$$$$
LLZHWBREMUWYMR-DSLJWKJINA-P
     RDKit          3D

 63 66  0  0  0  0  0  0  0  0999 V2000
  146.4080   74.0340  218.4070 H   0  0  0  0  0  0  0  0  0  0  0  0
  146.0400   73.2260  218.8940 O   0  0  0  0  0  0  0  0  0  0  0  0
  145.1650   73.3140  219.9820 C   0  0  0  0  0  0  0  0  0  0  0  0
  145.5090   72.8540  221.1970 C   0  0  0  0  0  0  0  0  0  0  0  0
  144.9119   72.0407  221.6352 H   0  0  0  0  0  0  0  0  0  0  0  0
  146.6620   73.3910  221.9840 C   0  0  0  0  0  0  0  0  0  0  0  0
  146.4500   73.2923  223.0588 H   0  0  0  0  0  0  0  0  0  0  0  0
  147.5712   72.8237  221.7360 H   0  0  0  0  0  0  0  0  0  0  0  0
  146.8128   74.4520  221.7360 H   0  0  0  0  0  0  0  0  0  0  0  0
  143.8670   73.8990  219.7750 N   0  0  0  0  0  0  0  0  0  0  0  0
  142.7370   73.2010  220.3260 C   0  0  0  0  0  0  0  0  0  0  0  0
  141.8620   73.8420  221.2180 C   0  0  0  0  0  0  0  0  0  0  0  0
  142.0446   74.8875  221.5072 H   0  0  0  0  0  0  0  0  0  0  0  0
  140.7610   73.1590  221.7400 C   0  0  0  0  0  0  0  0  0  0  0  0
  140.0955   73.6573  222.4602 H   0  0  0  0  0  0  0  0  0  0  0  0
  140.5050   71.8420  221.3470 C   0  0  0  0  0  0  0  0  0  0  0  0
  139.6435   71.3009  221.7654 H   0  0  0  0  0  0  0  0  0  0  0  0
  141.3430   71.2130  220.4230 C   0  0  0  0  0  0  0  0  0  0  0  0
  141.1332   70.1814  220.1040 H   0  0  0  0  0  0  0  0  0  0  0  0
  142.4470   71.8930  219.9040 C   0  0  0  0  0  0  0  0  0  0  0  0
  143.0926   71.4018  219.1611 H   0  0  0  0  0  0  0  0  0  0  0  0
  143.7300   75.0500  218.8450 C   0  0  2  0  0  0  0  0  0  0  0  0
  144.6613   75.0555  218.2597 H   0  0  0  0  0  0  0  0  0  0  0  0
  143.6830   76.4280  219.5370 C   0  0  0  0  0  0  0  0  0  0  0  0
  144.3694   76.4072  220.3963 H   0  0  0  0  0  0  0  0  0  0  0  0
  143.9725   77.1735  218.7817 H   0  0  0  0  0  0  0  0  0  0  0  0
  142.2840   76.8270  220.0440 C   0  0  0  0  0  0  0  0  0  0  0  0
  142.0486   76.2143  220.9267 H   0  0  0  0  0  0  0  0  0  0  0  0
  142.3238   77.9024  220.2719 H   0  0  0  0  0  0  0  0  0  0  0  0
  141.2040   76.6410  219.0470 N   0  0  1  0  0  0  0  0  0  0  0  0
  140.3210   76.7150  219.5970 H   0  0  0  0  0  0  0  0  0  0  0  0
  141.1960   77.6740  218.0170 C   0  0  0  0  0  0  0  0  0  0  0  0
  140.5690   77.4960  216.9820 O   0  0  0  0  0  0  0  0  0  0  0  0
  141.9330   79.0040  218.1660 C   0  0  2  0  0  0  0  0  0  0  0  0
  142.9253   78.7791  218.5840 H   0  0  0  0  0  0  0  0  0  0  0  0
  141.1920   79.9310  219.1750 C   0  0  0  0  0  0  0  0  0  0  0  0
  140.6270   80.6113  218.5208 H   0  0  0  0  0  0  0  0  0  0  0  0
  142.1410   80.7550  220.0870 C   0  0  0  0  0  0  0  0  0  0  0  0
  143.1913   80.6057  219.7961 H   0  0  0  0  0  0  0  0  0  0  0  0
  141.9602   81.8380  220.0206 H   0  0  0  0  0  0  0  0  0  0  0  0
  141.8870   80.2140  221.4430 C   0  0  0  0  0  0  0  0  0  0  0  0
  142.5640   80.5510  222.6180 C   0  0  0  0  0  0  0  0  0  0  0  0
  143.4009   81.2645  222.5972 H   0  0  0  0  0  0  0  0  0  0  0  0
  142.1570   79.9630  223.8240 C   0  0  0  0  0  0  0  0  0  0  0  0
  142.6807   80.2104  224.7592 H   0  0  0  0  0  0  0  0  0  0  0  0
  141.0800   79.0570  223.8410 C   0  0  0  0  0  0  0  0  0  0  0  0
  140.7626   78.5989  224.7894 H   0  0  0  0  0  0  0  0  0  0  0  0
  140.4100   78.7370  222.6490 C   0  0  0  0  0  0  0  0  0  0  0  0
  139.5639   78.0340  222.6532 H   0  0  0  0  0  0  0  0  0  0  0  0
  140.8380   79.3280  221.4580 C   0  0  0  0  0  0  0  0  0  0  0  0
  140.2380   79.1500  220.1160 C   0  0  0  0  0  0  0  0  0  0  0  0
  140.2021   78.0855  219.8413 H   0  0  0  0  0  0  0  0  0  0  0  0
  139.2004   79.5114  220.0636 H   0  0  0  0  0  0  0  0  0  0  0  0
  142.2180   79.6670  216.8770 N   0  0  0  0  0  0  0  0  0  0  0  0
  143.2500   79.6910  216.7050 H   0  0  0  0  0  0  0  0  0  0  0  0
  141.7450   79.1950  216.0760 H   0  0  0  0  0  0  0  0  0  0  0  0
  141.8920   80.6580  216.9020 H   0  0  0  0  0  0  0  0  0  0  0  0
  141.2000   75.2830  218.4630 C   0  0  0  0  0  0  0  0  0  0  0  0
  140.9269   74.5666  219.2517 H   0  0  0  0  0  0  0  0  0  0  0  0
  140.4762   75.2913  217.6347 H   0  0  0  0  0  0  0  0  0  0  0  0
  142.5540   74.8610  217.8720 C   0  0  0  0  0  0  0  0  0  0  0  0
  142.4977   73.7979  217.5953 H   0  0  0  0  0  0  0  0  0  0  0  0
  142.7446   75.5071  217.0024 H   0  0  0  0  0  0  0  0  0  0  0  0
  1  2  1  0
  2  3  1  0
  3  4  2  0
  4  5  1  0
  4  6  1  0
  6  7  1  0
  6  8  1  0
  6  9  1  0
  3 10  1  0
 10 11  1  0
 11 12  2  0
 12 13  1  0
 12 14  1  0
 14 15  1  0
 14 16  2  0
 16 17  1  0
 16 18  1  0
 18 19  1  0
 18 20  2  0
 20 21  1  0
 10 22  1  0
 22 23  1  6
 22 24  1  0
 24 25  1  0
 24 26  1  0
 24 27  1  0
 27 28  1  0
 27 29  1  0
 27 30  1  0
 30 31  1  1
 30 32  1  0
 32 33  2  0
 32 34  1  0
 34 35  1  1
 34 36  1  0
 36 37  1  0
 36 38  1  0
 38 39  1  0
 38 40  1  0
 38 41  1  0
 41 42  2  0
 42 43  1  0
 42 44  1  0
 44 45  1  0
 44 46  2  0
 46 47  1  0
 46 48  1  0
 48 49  1  0
 48 50  2  0
 50 51  1  0
 51 52  1  0
 51 53  1  0
 34 54  1  0
 54 55  1  0
 54 56  1  0
 54 57  1  0
 30 58  1  0
 58 59  1  0
 58 60  1  0
 58 61  1  0
 61 62  1  0
 61 63  1  0
 20 11  1  0
 61 22  1  0
 51 36  1  0
 50 41  1  0
M  CHG  2  30   1  54   1
M  END
>  <UniqueID>  (79) 
46

>  <SMILES>  (79) 
C/C=C(\O)N(c1ccccc1)C1CC[NH+](C(=O)[C@@H]([NH3+])C2Cc3ccccc3C2)CC1

>  <Energy>  (79) 
93.64452830382983

>  <Genealogy>  (79) 
CCC(=O)N(c1ccccc1)C1CC[NH+](C(=O)[C@@H]([NH3+])C2Cc3ccccc3C2)CC1 (protonated)
CC=C(O)N(c1ccccc1)C1CC[NH+](C(=O)[C@@H]([NH3+])C2Cc3ccccc3C2)CC1 (tautomer)
C/C=C(\O)N(c1ccccc1)C1CC[NH+](C(=O)[C@@H]([NH3+])C2Cc3ccccc3C2)CC1 (cis-trans isomerization)
C/C=C(\O)N(c1ccccc1)C1CC[NH+](C(=O)[C@@H]([NH3+])C2Cc3ccccc3C2)CC1 (3D coordinates assigned)
C/C=C(\O)N(c1ccccc1)C1CC[NH+](C(=O)[C@@H]([NH3+])C2Cc3ccccc3C2)CC1 (nonaromatic ring conformer: 93.64452830382983 kcal/mol)

>  <smiles>  (79) 
CCC(=O)N(c1ccccc1)C1CCN(C(=O)[C@@H](N)C2Cc3ccccc3C2)CC1

>  <score_type>  (79) 
oracle

>  <origin>  (79) 
autodockgpu

>  <m_score__min__energy>  (79) 
-9.2599999999999998

>  <m_primary>  (79) 
energy

>  <meeko>  (79) 
{"free_energy": -8.04, "intermolecular_energy": -10.73, "internal_energy": -1.88, "cluster_size": 7, "cluster_id": 1, "rank_in_cluster": 4}

>  <energy>  (79) 
-7.26

>  <cluster_rmsd>  (79) 
0.0

>  <rmsd>  (79) 
269.01

>  <cluster>  (79) 
3

$$$$
LLZHWBREMUWYMR-DSLJWKJINA-P
     RDKit          3D

 63 66  0  0  0  0  0  0  0  0999 V2000
  146.1360   71.0570  220.0330 H   0  0  0  0  0  0  0  0  0  0  0  0
  145.9300   71.8790  219.4790 O   0  0  0  0  0  0  0  0  0  0  0  0
  145.5330   73.1010  220.0320 C   0  0  0  0  0  0  0  0  0  0  0  0
  146.3490   73.8040  220.8360 C   0  0  0  0  0  0  0  0  0  0  0  0
  146.7823   74.7391  220.4515 H   0  0  0  0  0  0  0  0  0  0  0  0
  146.6980   73.3790  222.2280 C   0  0  0  0  0  0  0  0  0  0  0  0
  146.1714   74.0203  222.9501 H   0  0  0  0  0  0  0  0  0  0  0  0
  146.3954   72.3322  222.3785 H   0  0  0  0  0  0  0  0  0  0  0  0
  147.7837   73.4721  222.3785 H   0  0  0  0  0  0  0  0  0  0  0  0
  144.2140   73.5940  219.7370 N   0  0  0  0  0  0  0  0  0  0  0  0
  143.1040   72.7430  220.0730 C   0  0  0  0  0  0  0  0  0  0  0  0
  142.1690   73.1350  221.0450 C   0  0  0  0  0  0  0  0  0  0  0  0
  142.2884   74.0984  221.5623 H   0  0  0  0  0  0  0  0  0  0  0  0
  141.0880   72.3070  221.3580 C   0  0  0  0  0  0  0  0  0  0  0  0
  140.3741   72.6059  222.1397 H   0  0  0  0  0  0  0  0  0  0  0  0
  140.9140   71.0980  220.6770 C   0  0  0  0  0  0  0  0  0  0  0  0
  140.0689   70.4411  220.9304 H   0  0  0  0  0  0  0  0  0  0  0  0
  141.8130   70.7240  219.6750 C   0  0  0  0  0  0  0  0  0  0  0  0
  141.6672   69.7797  219.1300 H   0  0  0  0  0  0  0  0  0  0  0  0
  142.8970   71.5490  219.3650 C   0  0  0  0  0  0  0  0  0  0  0  0
  143.5917   71.2614  218.5621 H   0  0  0  0  0  0  0  0  0  0  0  0
  144.0670   74.8310  218.9250 C   0  0  2  0  0  0  0  0  0  0  0  0
  145.0718   75.0321  218.5250 H   0  0  0  0  0  0  0  0  0  0  0  0
  143.7020   76.0890  219.7400 C   0  0  0  0  0  0  0  0  0  0  0  0
  144.2293   76.0418  220.7042 H   0  0  0  0  0  0  0  0  0  0  0  0
  144.0018   76.9581  219.1360 H   0  0  0  0  0  0  0  0  0  0  0  0
  142.1940   76.2380  220.0190 C   0  0  0  0  0  0  0  0  0  0  0  0
  141.9068   75.4903  220.7729 H   0  0  0  0  0  0  0  0  0  0  0  0
  142.0358   77.2709  220.3628 H   0  0  0  0  0  0  0  0  0  0  0  0
  141.3360   76.0490  218.8260 N   0  0  1  0  0  0  0  0  0  0  0  0
  140.3720   75.9390  219.2080 H   0  0  0  0  0  0  0  0  0  0  0  0
  141.3490   77.1990  217.9280 C   0  0  0  0  0  0  0  0  0  0  0  0
  140.7180   77.1600  216.8810 O   0  0  0  0  0  0  0  0  0  0  0  0
  142.1140   78.4860  218.2340 C   0  0  2  0  0  0  0  0  0  0  0  0
  143.0198   78.2001  218.7887 H   0  0  0  0  0  0  0  0  0  0  0  0
  141.2700   79.4200  219.1520 C   0  0  0  0  0  0  0  0  0  0  0  0
  140.5979   79.9265  218.4437 H   0  0  0  0  0  0  0  0  0  0  0  0
  142.1100   80.4770  219.9170 C   0  0  0  0  0  0  0  0  0  0  0  0
  143.1639   80.4407  219.6041 H   0  0  0  0  0  0  0  0  0  0  0  0
  141.7728   81.5065  219.7261 H   0  0  0  0  0  0  0  0  0  0  0  0
  141.9680   80.0830  221.3380 C   0  0  0  0  0  0  0  0  0  0  0  0
  142.6160   80.6580  222.4340 C   0  0  0  0  0  0  0  0  0  0  0  0
  143.3399   81.4740  222.2922 H   0  0  0  0  0  0  0  0  0  0  0  0
  142.3260   80.1750  223.7190 C   0  0  0  0  0  0  0  0  0  0  0  0
  142.8301   80.6097  224.5947 H   0  0  0  0  0  0  0  0  0  0  0  0
  141.3930   79.1370  223.8910 C   0  0  0  0  0  0  0  0  0  0  0  0
  141.1677   78.7628  224.9006 H   0  0  0  0  0  0  0  0  0  0  0  0
  140.7480   78.5770  222.7750 C   0  0  0  0  0  0  0  0  0  0  0  0
  140.0118   77.7693  222.8998 H   0  0  0  0  0  0  0  0  0  0  0  0
  141.0600   79.0660  221.5040 C   0  0  0  0  0  0  0  0  0  0  0  0
  140.4610   78.6370  220.2190 C   0  0  0  0  0  0  0  0  0  0  0  0
  140.5736   77.5520  220.0774 H   0  0  0  0  0  0  0  0  0  0  0  0
  139.3810   78.8386  220.1655 H   0  0  0  0  0  0  0  0  0  0  0  0
  142.6210   79.1700  217.0280 N   0  0  0  0  0  0  0  0  0  0  0  0
  142.3230   80.1730  217.0300 H   0  0  0  0  0  0  0  0  0  0  0  0
  143.6600   79.1180  216.9500 H   0  0  0  0  0  0  0  0  0  0  0  0
  142.2150   78.7360  216.1700 H   0  0  0  0  0  0  0  0  0  0  0  0
  141.6310   74.7900  218.1100 C   0  0  0  0  0  0  0  0  0  0  0  0
  141.3380   73.9476  218.7539 H   0  0  0  0  0  0  0  0  0  0  0  0
  141.0637   74.8158  217.1679 H   0  0  0  0  0  0  0  0  0  0  0  0
  143.1130   74.6230  217.7370 C   0  0  0  0  0  0  0  0  0  0  0  0
  143.2616   73.6064  217.3439 H   0  0  0  0  0  0  0  0  0  0  0  0
  143.3498   75.3952  216.9903 H   0  0  0  0  0  0  0  0  0  0  0  0
  1  2  1  0
  2  3  1  0
  3  4  2  0
  4  5  1  0
  4  6  1  0
  6  7  1  0
  6  8  1  0
  6  9  1  0
  3 10  1  0
 10 11  1  0
 11 12  2  0
 12 13  1  0
 12 14  1  0
 14 15  1  0
 14 16  2  0
 16 17  1  0
 16 18  1  0
 18 19  1  0
 18 20  2  0
 20 21  1  0
 10 22  1  0
 22 23  1  6
 22 24  1  0
 24 25  1  0
 24 26  1  0
 24 27  1  0
 27 28  1  0
 27 29  1  0
 27 30  1  0
 30 31  1  1
 30 32  1  0
 32 33  2  0
 32 34  1  0
 34 35  1  1
 34 36  1  0
 36 37  1  0
 36 38  1  0
 38 39  1  0
 38 40  1  0
 38 41  1  0
 41 42  2  0
 42 43  1  0
 42 44  1  0
 44 45  1  0
 44 46  2  0
 46 47  1  0
 46 48  1  0
 48 49  1  0
 48 50  2  0
 50 51  1  0
 51 52  1  0
 51 53  1  0
 34 54  1  0
 54 55  1  0
 54 56  1  0
 54 57  1  0
 30 58  1  0
 58 59  1  0
 58 60  1  0
 58 61  1  0
 61 62  1  0
 61 63  1  0
 20 11  1  0
 61 22  1  0
 51 36  1  0
 50 41  1  0
M  CHG  2  30   1  54   1
M  END
>  <UniqueID>  (80) 
46

>  <SMILES>  (80) 
C/C=C(\O)N(c1ccccc1)C1CC[NH+](C(=O)[C@@H]([NH3+])C2Cc3ccccc3C2)CC1

>  <Energy>  (80) 
93.64452830382983

>  <Genealogy>  (80) 
CCC(=O)N(c1ccccc1)C1CC[NH+](C(=O)[C@@H]([NH3+])C2Cc3ccccc3C2)CC1 (protonated)
CC=C(O)N(c1ccccc1)C1CC[NH+](C(=O)[C@@H]([NH3+])C2Cc3ccccc3C2)CC1 (tautomer)
C/C=C(\O)N(c1ccccc1)C1CC[NH+](C(=O)[C@@H]([NH3+])C2Cc3ccccc3C2)CC1 (cis-trans isomerization)
C/C=C(\O)N(c1ccccc1)C1CC[NH+](C(=O)[C@@H]([NH3+])C2Cc3ccccc3C2)CC1 (3D coordinates assigned)
C/C=C(\O)N(c1ccccc1)C1CC[NH+](C(=O)[C@@H]([NH3+])C2Cc3ccccc3C2)CC1 (nonaromatic ring conformer: 93.64452830382983 kcal/mol)

>  <smiles>  (80) 
CCC(=O)N(c1ccccc1)C1CCN(C(=O)[C@@H](N)C2Cc3ccccc3C2)CC1

>  <score_type>  (80) 
oracle

>  <origin>  (80) 
autodockgpu

>  <m_score__min__energy>  (80) 
-9.2599999999999998

>  <m_primary>  (80) 
energy

>  <meeko>  (80) 
{"free_energy": -7.72, "intermolecular_energy": -10.41, "internal_energy": -1.8, "cluster_size": 7, "cluster_id": 1, "rank_in_cluster": 7}

>  <energy>  (80) 
-6.78

>  <cluster_rmsd>  (80) 
0.0

>  <rmsd>  (80) 
269.36

>  <cluster>  (80) 
4

$$$$
