
     RDKit          3D

 37 38  0  0  0  0  0  0  0  0999 V2000
  141.6290   73.2060  220.8630 O   0  0  0  0  0  0  0  0  0  0  0  0
  140.5030   73.5430  221.3190 C   0  0  0  0  0  0  0  0  0  0  0  0
  139.4520   74.0770  220.3980 C   0  0  0  0  0  0  0  0  0  0  0  0
  139.1480   75.5410  220.7270 C   0  0  0  0  0  0  0  0  0  0  0  0
  138.3900   75.7100  222.0490 C   0  0  0  0  0  0  0  0  0  0  0  0
  138.3100   77.0860  222.4310 O   0  0  0  0  0  0  0  0  0  0  0  0
  139.3860   77.9320  222.7570 C   0  0  0  0  0  0  0  0  0  0  0  0
  140.7320   77.5120  222.7120 C   0  0  0  0  0  0  0  0  0  0  0  0
  141.7600   78.3980  223.0450 C   0  0  0  0  0  0  0  0  0  0  0  0
  141.4630   79.7070  223.4310 C   0  0  0  0  0  0  0  0  0  0  0  0
  142.7560   80.8160  223.8490 Cl  0  0  0  0  0  0  0  0  0  0  0  0
  140.1330   80.1320  223.4870 C   0  0  0  0  0  0  0  0  0  0  0  0
  139.0980   79.2490  223.1520 C   0  0  0  0  0  0  0  0  0  0  0  0
  137.4360   79.8140  223.2270 Cl  0  0  0  0  0  0  0  0  0  0  0  0
  140.2100   73.3750  222.7050 N   0  0  0  0  0  0  0  0  0  0  0  0
  140.7120   72.2840  223.4260 N   0  0  0  0  0  0  0  0  0  0  0  0
  139.9450   71.4450  224.0550 C   0  0  0  0  0  0  0  0  0  0  0  0
  140.1910   71.0120  225.4470 C   0  0  0  0  0  0  0  0  0  0  0  0
  140.8460   71.8810  226.3290 C   0  0  0  0  0  0  0  0  0  0  0  0
  141.0750   71.4970  227.6510 C   0  0  0  0  0  0  0  0  0  0  0  0
  140.6250   70.2510  228.0890 C   0  0  0  0  0  0  0  0  0  0  0  0
  139.9590   69.4300  227.2340 N   0  0  0  0  0  0  0  0  0  0  0  0
  139.7290   69.7770  225.9390 C   0  0  0  0  0  0  0  0  0  0  0  0
  139.0060   68.9390  225.1540 F   0  0  0  0  0  0  0  0  0  0  0  0
  139.8092   74.0054  219.3601 H   0  0  0  0  0  0  0  0  0  0  0  0
  138.5334   73.4849  220.5233 H   0  0  0  0  0  0  0  0  0  0  0  0
  140.0986   76.0903  220.7947 H   0  0  0  0  0  0  0  0  0  0  0  0
  138.5051   75.9331  219.9252 H   0  0  0  0  0  0  0  0  0  0  0  0
  137.3716   75.3112  221.9314 H   0  0  0  0  0  0  0  0  0  0  0  0
  138.9344   75.1635  222.8332 H   0  0  0  0  0  0  0  0  0  0  0  0
  140.9736   76.4813  222.4131 H   0  0  0  0  0  0  0  0  0  0  0  0
  142.8070   78.0633  223.0030 H   0  0  0  0  0  0  0  0  0  0  0  0
  139.8982   81.1617  223.7947 H   0  0  0  0  0  0  0  0  0  0  0  0
  139.0707   71.0373  223.5265 H   0  0  0  0  0  0  0  0  0  0  0  0
  141.1807   72.8686  225.9787 H   0  0  0  0  0  0  0  0  0  0  0  0
  141.6051   72.1700  228.3410 H   0  0  0  0  0  0  0  0  0  0  0  0
  140.8090   69.9330  229.1258 H   0  0  0  0  0  0  0  0  0  0  0  0
  1  2  2  0
  2  3  1  0
  3  4  1  0
  4  5  1  0
  5  6  1  0
  6  7  1  0
  7  8  2  0
  8  9  1  0
  9 10  2  0
 10 11  1  0
 10 12  1  0
 12 13  2  0
 13 14  1  0
  2 15  1  0
 15 16  1  0
 16 17  2  0
 17 18  1  0
 18 19  2  0
 19 20  1  0
 20 21  2  0
 21 22  1  0
 22 23  2  0
 23 24  1  0
 13  7  1  0
 23 18  1  0
  3 25  1  0
  3 26  1  0
  4 27  1  0
  4 28  1  0
  5 29  1  0
  5 30  1  0
  8 31  1  0
  9 32  1  0
 12 33  1  0
 17 34  1  0
 19 35  1  0
 20 36  1  0
 21 37  1  0
M  CHG  1  15  -1
M  END
>  <meeko>  (1) 
{"free_energy": -5.96, "intermolecular_energy": -8.65, "internal_energy": -0.61, "cluster_size": 8, "cluster_id": 2, "rank_in_cluster": 7}

$$$$

     RDKit          3D

 37 38  0  0  0  0  0  0  0  0999 V2000
  139.4350   74.5170  222.4270 O   0  0  0  0  0  0  0  0  0  0  0  0
  140.0290   73.5370  221.9010 C   0  0  0  0  0  0  0  0  0  0  0  0
  140.0030   73.3570  220.4150 C   0  0  0  0  0  0  0  0  0  0  0  0
  141.4250   73.4010  219.8480 C   0  0  0  0  0  0  0  0  0  0  0  0
  142.1880   74.6690  220.2500 C   0  0  0  0  0  0  0  0  0  0  0  0
  141.3620   75.8310  220.1380 O   0  0  0  0  0  0  0  0  0  0  0  0
  141.4020   76.9740  220.9580 C   0  0  0  0  0  0  0  0  0  0  0  0
  141.0720   76.9450  222.3290 C   0  0  0  0  0  0  0  0  0  0  0  0
  141.1320   78.1130  223.0950 C   0  0  0  0  0  0  0  0  0  0  0  0
  141.5140   79.3200  222.5070 C   0  0  0  0  0  0  0  0  0  0  0  0
  141.5870   80.7840  223.4710 Cl  0  0  0  0  0  0  0  0  0  0  0  0
  141.8360   79.3620  221.1470 C   0  0  0  0  0  0  0  0  0  0  0  0
  141.7800   78.1950  220.3750 C   0  0  0  0  0  0  0  0  0  0  0  0
  142.1960   78.2790  218.6700 Cl  0  0  0  0  0  0  0  0  0  0  0  0
  140.7650   72.6240  222.7120 N   0  0  0  0  0  0  0  0  0  0  0  0
  140.1710   71.4580  223.2140 N   0  0  0  0  0  0  0  0  0  0  0  0
  139.9310   71.2800  224.4780 C   0  0  0  0  0  0  0  0  0  0  0  0
  139.9740   69.9540  225.1310 C   0  0  0  0  0  0  0  0  0  0  0  0
  140.8210   69.7590  226.2300 C   0  0  0  0  0  0  0  0  0  0  0  0
  140.8650   68.5190  226.8690 C   0  0  0  0  0  0  0  0  0  0  0  0
  140.0430   67.4870  226.4160 C   0  0  0  0  0  0  0  0  0  0  0  0
  139.1990   67.6980  225.3710 N   0  0  0  0  0  0  0  0  0  0  0  0
  139.1410   68.8940  224.7270 C   0  0  0  0  0  0  0  0  0  0  0  0
  138.2350   69.0600  223.7300 F   0  0  0  0  0  0  0  0  0  0  0  0
  139.5470   72.3851  220.1754 H   0  0  0  0  0  0  0  0  0  0  0  0
  139.4143   74.1710  219.9668 H   0  0  0  0  0  0  0  0  0  0  0  0
  141.9783   72.5258  220.2193 H   0  0  0  0  0  0  0  0  0  0  0  0
  141.3435   73.3982  218.7510 H   0  0  0  0  0  0  0  0  0  0  0  0
  142.5256   74.5686  221.2921 H   0  0  0  0  0  0  0  0  0  0  0  0
  143.0462   74.7869  219.5721 H   0  0  0  0  0  0  0  0  0  0  0  0
  140.7658   75.9983  222.7981 H   0  0  0  0  0  0  0  0  0  0  0  0
  140.8773   78.0807  224.1646 H   0  0  0  0  0  0  0  0  0  0  0  0
  142.1339   80.3136  220.6826 H   0  0  0  0  0  0  0  0  0  0  0  0
  139.6838   72.1582  225.0925 H   0  0  0  0  0  0  0  0  0  0  0  0
  141.4524   70.5847  226.5898 H   0  0  0  0  0  0  0  0  0  0  0  0
  141.5412   68.3571  227.7214 H   0  0  0  0  0  0  0  0  0  0  0  0
  140.0776   66.5020  226.9044 H   0  0  0  0  0  0  0  0  0  0  0  0
  1  2  2  0
  2  3  1  0
  3  4  1  0
  4  5  1  0
  5  6  1  0
  6  7  1  0
  7  8  2  0
  8  9  1  0
  9 10  2  0
 10 11  1  0
 10 12  1  0
 12 13  2  0
 13 14  1  0
  2 15  1  0
 15 16  1  0
 16 17  2  0
 17 18  1  0
 18 19  2  0
 19 20  1  0
 20 21  2  0
 21 22  1  0
 22 23  2  0
 23 24  1  0
 13  7  1  0
 23 18  1  0
  3 25  1  0
  3 26  1  0
  4 27  1  0
  4 28  1  0
  5 29  1  0
  5 30  1  0
  8 31  1  0
  9 32  1  0
 12 33  1  0
 17 34  1  0
 19 35  1  0
 20 36  1  0
 21 37  1  0
M  CHG  1  15  -1
M  END
>  <meeko>  (2) 
{"free_energy": -6.09, "intermolecular_energy": -8.77, "internal_energy": -0.68, "cluster_size": 8, "cluster_id": 2, "rank_in_cluster": 6}

$$$$

     RDKit          3D

 37 38  0  0  0  0  0  0  0  0999 V2000
  139.4490   74.9360  222.4340 O   0  0  0  0  0  0  0  0  0  0  0  0
  139.9870   74.0020  221.7810 C   0  0  0  0  0  0  0  0  0  0  0  0
  139.9140   73.9970  220.2860 C   0  0  0  0  0  0  0  0  0  0  0  0
  141.1430   74.6880  219.6890 C   0  0  0  0  0  0  0  0  0  0  0  0
  141.8330   75.6360  220.6780 C   0  0  0  0  0  0  0  0  0  0  0  0
  141.1100   76.8620  220.8120 O   0  0  0  0  0  0  0  0  0  0  0  0
  141.4390   77.9440  221.6490 C   0  0  0  0  0  0  0  0  0  0  0  0
  141.4100   77.8600  223.0570 C   0  0  0  0  0  0  0  0  0  0  0  0
  141.7480   78.9680  223.8390 C   0  0  0  0  0  0  0  0  0  0  0  0
  142.1120   80.1720  223.2310 C   0  0  0  0  0  0  0  0  0  0  0  0
  142.5360   81.5610  224.2160 Cl  0  0  0  0  0  0  0  0  0  0  0  0
  142.1370   80.2690  221.8380 C   0  0  0  0  0  0  0  0  0  0  0  0
  141.8010   79.1620  221.0490 C   0  0  0  0  0  0  0  0  0  0  0  0
  141.8460   79.3140  219.2990 Cl  0  0  0  0  0  0  0  0  0  0  0  0
  140.7040   72.9730  222.4580 N   0  0  0  0  0  0  0  0  0  0  0  0
  140.0630   72.1120  223.3580 N   0  0  0  0  0  0  0  0  0  0  0  0
  140.6960   71.1950  224.0260 C   0  0  0  0  0  0  0  0  0  0  0  0
  140.5590   71.0200  225.4880 C   0  0  0  0  0  0  0  0  0  0  0  0
  141.2010   71.9210  226.3480 C   0  0  0  0  0  0  0  0  0  0  0  0
  141.0730   71.7820  227.7310 C   0  0  0  0  0  0  0  0  0  0  0  0
  140.2840   70.7510  228.2440 C   0  0  0  0  0  0  0  0  0  0  0  0
  139.6390   69.9040  227.4000 N   0  0  0  0  0  0  0  0  0  0  0  0
  139.7510   70.0130  226.0490 C   0  0  0  0  0  0  0  0  0  0  0  0
  139.0340   69.1740  225.2600 F   0  0  0  0  0  0  0  0  0  0  0  0
  139.8734   72.9575  219.9286 H   0  0  0  0  0  0  0  0  0  0  0  0
  139.0110   74.5406  219.9712 H   0  0  0  0  0  0  0  0  0  0  0  0
  141.8642   73.9168  219.3804 H   0  0  0  0  0  0  0  0  0  0  0  0
  140.8006   75.2923  218.8360 H   0  0  0  0  0  0  0  0  0  0  0  0
  141.8935   75.1463  221.6611 H   0  0  0  0  0  0  0  0  0  0  0  0
  142.8384   75.8656  220.2954 H   0  0  0  0  0  0  0  0  0  0  0  0
  141.1196   76.9166  223.5424 H   0  0  0  0  0  0  0  0  0  0  0  0
  141.7274   78.8918  224.9362 H   0  0  0  0  0  0  0  0  0  0  0  0
  142.4214   81.2176  221.3593 H   0  0  0  0  0  0  0  0  0  0  0  0
  141.3659   70.5162  223.4778 H   0  0  0  0  0  0  0  0  0  0  0  0
  141.8071   72.7395  225.9324 H   0  0  0  0  0  0  0  0  0  0  0  0
  141.5885   72.4776  228.4095 H   0  0  0  0  0  0  0  0  0  0  0  0
  140.1844   70.6243  229.3321 H   0  0  0  0  0  0  0  0  0  0  0  0
  1  2  2  0
  2  3  1  0
  3  4  1  0
  4  5  1  0
  5  6  1  0
  6  7  1  0
  7  8  2  0
  8  9  1  0
  9 10  2  0
 10 11  1  0
 10 12  1  0
 12 13  2  0
 13 14  1  0
  2 15  1  0
 15 16  1  0
 16 17  2  0
 17 18  1  0
 18 19  2  0
 19 20  1  0
 20 21  2  0
 21 22  1  0
 22 23  2  0
 23 24  1  0
 13  7  1  0
 23 18  1  0
  3 25  1  0
  3 26  1  0
  4 27  1  0
  4 28  1  0
  5 29  1  0
  5 30  1  0
  8 31  1  0
  9 32  1  0
 12 33  1  0
 17 34  1  0
 19 35  1  0
 20 36  1  0
 21 37  1  0
M  CHG  1  15  -1
M  END
>  <meeko>  (3) 
{"free_energy": -6.42, "intermolecular_energy": -9.1, "internal_energy": -0.62, "cluster_size": 8, "cluster_id": 2, "rank_in_cluster": 2}

$$$$

     RDKit          3D

 37 38  0  0  0  0  0  0  0  0999 V2000
  137.6950   70.3480  224.6630 O   0  0  0  0  0  0  0  0  0  0  0  0
  138.3120   69.4220  224.0690 C   0  0  0  0  0  0  0  0  0  0  0  0
  138.9600   69.6840  222.7470 C   0  0  0  0  0  0  0  0  0  0  0  0
  138.7390   71.1380  222.3220 C   0  0  0  0  0  0  0  0  0  0  0  0
  139.6520   72.1220  223.0640 C   0  0  0  0  0  0  0  0  0  0  0  0
  140.1710   73.1180  222.1800 O   0  0  0  0  0  0  0  0  0  0  0  0
  141.4330   73.1150  221.5570 C   0  0  0  0  0  0  0  0  0  0  0  0
  142.1850   71.9390  221.3560 C   0  0  0  0  0  0  0  0  0  0  0  0
  143.4330   71.9960  220.7290 C   0  0  0  0  0  0  0  0  0  0  0  0
  143.9490   73.2210  220.3020 C   0  0  0  0  0  0  0  0  0  0  0  0
  145.5160   73.2900  219.5160 Cl  0  0  0  0  0  0  0  0  0  0  0  0
  143.2160   74.3940  220.5020 C   0  0  0  0  0  0  0  0  0  0  0  0
  141.9640   74.3420  221.1270 C   0  0  0  0  0  0  0  0  0  0  0  0
  141.0640   75.8340  221.3610 Cl  0  0  0  0  0  0  0  0  0  0  0  0
  138.4320   68.1370  224.6750 N   0  0  0  0  0  0  0  0  0  0  0  0
  139.5760   67.7810  225.4020 N   0  0  0  0  0  0  0  0  0  0  0  0
  139.8280   68.2470  226.5880 C   0  0  0  0  0  0  0  0  0  0  0  0
  140.2350   69.6460  226.8370 C   0  0  0  0  0  0  0  0  0  0  0  0
  140.0630   70.1930  228.1150 C   0  0  0  0  0  0  0  0  0  0  0  0
  140.4540   71.5070  228.3750 C   0  0  0  0  0  0  0  0  0  0  0  0
  141.0360   72.2610  227.3550 C   0  0  0  0  0  0  0  0  0  0  0  0
  141.2300   71.7100  226.1280 N   0  0  0  0  0  0  0  0  0  0  0  0
  140.8530   70.4340  225.8470 C   0  0  0  0  0  0  0  0  0  0  0  0
  141.1280   69.9230  224.6200 F   0  0  0  0  0  0  0  0  0  0  0  0
  140.0398   69.4904  222.8281 H   0  0  0  0  0  0  0  0  0  0  0  0
  138.5121   69.0202  221.9928 H   0  0  0  0  0  0  0  0  0  0  0  0
  138.9357   71.2221  221.2430 H   0  0  0  0  0  0  0  0  0  0  0  0
  137.7000   71.4002  222.5704 H   0  0  0  0  0  0  0  0  0  0  0  0
  139.0750   72.6153  223.8601 H   0  0  0  0  0  0  0  0  0  0  0  0
  140.4973   71.5593  223.4869 H   0  0  0  0  0  0  0  0  0  0  0  0
  141.7870   70.9710  221.6947 H   0  0  0  0  0  0  0  0  0  0  0  0
  144.0103   71.0730  220.5716 H   0  0  0  0  0  0  0  0  0  0  0  0
  143.6232   75.3597  220.1679 H   0  0  0  0  0  0  0  0  0  0  0  0
  139.7340   67.5680  227.4483 H   0  0  0  0  0  0  0  0  0  0  0  0
  139.6182   69.5847  228.9163 H   0  0  0  0  0  0  0  0  0  0  0  0
  140.3051   71.9440  229.3734 H   0  0  0  0  0  0  0  0  0  0  0  0
  141.3378   73.3017  227.5443 H   0  0  0  0  0  0  0  0  0  0  0  0
  1  2  2  0
  2  3  1  0
  3  4  1  0
  4  5  1  0
  5  6  1  0
  6  7  1  0
  7  8  2  0
  8  9  1  0
  9 10  2  0
 10 11  1  0
 10 12  1  0
 12 13  2  0
 13 14  1  0
  2 15  1  0
 15 16  1  0
 16 17  2  0
 17 18  1  0
 18 19  2  0
 19 20  1  0
 20 21  2  0
 21 22  1  0
 22 23  2  0
 23 24  1  0
 13  7  1  0
 23 18  1  0
  3 25  1  0
  3 26  1  0
  4 27  1  0
  4 28  1  0
  5 29  1  0
  5 30  1  0
  8 31  1  0
  9 32  1  0
 12 33  1  0
 17 34  1  0
 19 35  1  0
 20 36  1  0
 21 37  1  0
M  CHG  1  15  -1
M  END
>  <meeko>  (4) 
{"free_energy": -5.86, "intermolecular_energy": -8.55, "internal_energy": -1.01, "cluster_size": 3, "cluster_id": 3, "rank_in_cluster": 3}

$$$$

     RDKit          3D

 37 38  0  0  0  0  0  0  0  0999 V2000
  141.0070   74.7550  221.9730 O   0  0  0  0  0  0  0  0  0  0  0  0
  140.1100   73.8830  221.8170 C   0  0  0  0  0  0  0  0  0  0  0  0
  138.8500   74.2280  221.0870 C   0  0  0  0  0  0  0  0  0  0  0  0
  137.9130   75.0340  221.9920 C   0  0  0  0  0  0  0  0  0  0  0  0
  137.8870   76.5270  221.6440 C   0  0  0  0  0  0  0  0  0  0  0  0
  139.1680   76.9810  221.2020 O   0  0  0  0  0  0  0  0  0  0  0  0
  140.0110   77.8950  221.8630 C   0  0  0  0  0  0  0  0  0  0  0  0
  139.6110   78.6160  223.0070 C   0  0  0  0  0  0  0  0  0  0  0  0
  140.4920   79.5100  223.6230 C   0  0  0  0  0  0  0  0  0  0  0  0
  141.7750   79.7010  223.1050 C   0  0  0  0  0  0  0  0  0  0  0  0
  142.8770   80.8240  223.8800 Cl  0  0  0  0  0  0  0  0  0  0  0  0
  142.1790   78.9970  221.9680 C   0  0  0  0  0  0  0  0  0  0  0  0
  141.3020   78.0990  221.3480 C   0  0  0  0  0  0  0  0  0  0  0  0
  141.8410   77.2250  219.9210 Cl  0  0  0  0  0  0  0  0  0  0  0  0
  140.3100   72.5540  222.2930 N   0  0  0  0  0  0  0  0  0  0  0  0
  140.3870   72.2780  223.6650 N   0  0  0  0  0  0  0  0  0  0  0  0
  140.2800   71.0770  224.1470 C   0  0  0  0  0  0  0  0  0  0  0  0
  140.4830   70.7590  225.5770 C   0  0  0  0  0  0  0  0  0  0  0  0
  140.8860   71.7740  226.4540 C   0  0  0  0  0  0  0  0  0  0  0  0
  141.0700   71.4970  227.8100 C   0  0  0  0  0  0  0  0  0  0  0  0
  140.8270   70.2070  228.2830 C   0  0  0  0  0  0  0  0  0  0  0  0
  140.4020   69.2390  227.4290 N   0  0  0  0  0  0  0  0  0  0  0  0
  140.2220   69.4800  226.1030 C   0  0  0  0  0  0  0  0  0  0  0  0
  139.7390   68.4860  225.3140 F   0  0  0  0  0  0  0  0  0  0  0  0
  139.0983   74.8260  220.1978 H   0  0  0  0  0  0  0  0  0  0  0  0
  138.3447   73.2980  220.7876 H   0  0  0  0  0  0  0  0  0  0  0  0
  136.8943   74.6318  221.8898 H   0  0  0  0  0  0  0  0  0  0  0  0
  138.2878   74.9413  223.0220 H   0  0  0  0  0  0  0  0  0  0  0  0
  137.1517   76.6953  220.8434 H   0  0  0  0  0  0  0  0  0  0  0  0
  137.6135   77.0891  222.5491 H   0  0  0  0  0  0  0  0  0  0  0  0
  138.6002   78.4743  223.4170 H   0  0  0  0  0  0  0  0  0  0  0  0
  140.1738   80.0645  224.5181 H   0  0  0  0  0  0  0  0  0  0  0  0
  143.1887   79.1486  221.5588 H   0  0  0  0  0  0  0  0  0  0  0  0
  140.0263   70.2571  223.4590 H   0  0  0  0  0  0  0  0  0  0  0  0
  141.0579   72.7917  226.0735 H   0  0  0  0  0  0  0  0  0  0  0  0
  141.4031   72.2876  228.4984 H   0  0  0  0  0  0  0  0  0  0  0  0
  140.9794   69.9735  229.3471 H   0  0  0  0  0  0  0  0  0  0  0  0
  1  2  2  0
  2  3  1  0
  3  4  1  0
  4  5  1  0
  5  6  1  0
  6  7  1  0
  7  8  2  0
  8  9  1  0
  9 10  2  0
 10 11  1  0
 10 12  1  0
 12 13  2  0
 13 14  1  0
  2 15  1  0
 15 16  1  0
 16 17  2  0
 17 18  1  0
 18 19  2  0
 19 20  1  0
 20 21  2  0
 21 22  1  0
 22 23  2  0
 23 24  1  0
 13  7  1  0
 23 18  1  0
  3 25  1  0
  3 26  1  0
  4 27  1  0
  4 28  1  0
  5 29  1  0
  5 30  1  0
  8 31  1  0
  9 32  1  0
 12 33  1  0
 17 34  1  0
 19 35  1  0
 20 36  1  0
 21 37  1  0
M  CHG  1  15  -1
M  END
>  <meeko>  (5) 
{"free_energy": -6.14, "intermolecular_energy": -8.82, "internal_energy": -0.73, "cluster_size": 8, "cluster_id": 2, "rank_in_cluster": 5}

$$$$

     RDKit          3D

 37 38  0  0  0  0  0  0  0  0999 V2000
  139.6790   74.2610  222.3420 O   0  0  0  0  0  0  0  0  0  0  0  0
  140.5920   73.4850  221.9480 C   0  0  0  0  0  0  0  0  0  0  0  0
  141.3420   73.7930  220.6900 C   0  0  0  0  0  0  0  0  0  0  0  0
  142.0600   75.1400  220.8130 C   0  0  0  0  0  0  0  0  0  0  0  0
  141.1090   76.3360  220.6850 C   0  0  0  0  0  0  0  0  0  0  0  0
  141.4260   77.3570  221.6340 O   0  0  0  0  0  0  0  0  0  0  0  0
  140.5140   78.1740  222.3270 C   0  0  0  0  0  0  0  0  0  0  0  0
  139.1380   77.8770  222.4210 C   0  0  0  0  0  0  0  0  0  0  0  0
  138.2780   78.7260  223.1250 C   0  0  0  0  0  0  0  0  0  0  0  0
  138.7750   79.8790  223.7360 C   0  0  0  0  0  0  0  0  0  0  0  0
  137.6930   80.9410  224.6180 Cl  0  0  0  0  0  0  0  0  0  0  0  0
  140.1350   80.1860  223.6430 C   0  0  0  0  0  0  0  0  0  0  0  0
  141.0010   79.3400  222.9410 C   0  0  0  0  0  0  0  0  0  0  0  0
  142.7070   79.7510  222.8460 Cl  0  0  0  0  0  0  0  0  0  0  0  0
  140.9430   72.3390  222.7190 N   0  0  0  0  0  0  0  0  0  0  0  0
  139.9600   71.5170  223.2880 N   0  0  0  0  0  0  0  0  0  0  0  0
  139.8570   71.3290  224.5690 C   0  0  0  0  0  0  0  0  0  0  0  0
  139.9590   69.9970  225.2010 C   0  0  0  0  0  0  0  0  0  0  0  0
  140.9230   69.7820  226.1950 C   0  0  0  0  0  0  0  0  0  0  0  0
  141.0260   68.5360  226.8150 C   0  0  0  0  0  0  0  0  0  0  0  0
  140.1470   67.5160  226.4500 C   0  0  0  0  0  0  0  0  0  0  0  0
  139.1920   67.7460  225.5090 N   0  0  0  0  0  0  0  0  0  0  0  0
  139.0740   68.9480  224.8850 C   0  0  0  0  0  0  0  0  0  0  0  0
  138.0630   69.1320  223.9990 F   0  0  0  0  0  0  0  0  0  0  0  0
  142.0842   73.0019  220.5076 H   0  0  0  0  0  0  0  0  0  0  0  0
  140.6299   73.8433  219.8531 H   0  0  0  0  0  0  0  0  0  0  0  0
  142.5528   75.1868  221.7953 H   0  0  0  0  0  0  0  0  0  0  0  0
  142.7850   75.2045  219.9883 H   0  0  0  0  0  0  0  0  0  0  0  0
  141.1917   76.7522  219.6702 H   0  0  0  0  0  0  0  0  0  0  0  0
  140.0844   75.9867  220.8808 H   0  0  0  0  0  0  0  0  0  0  0  0
  138.7394   76.9727  221.9379 H   0  0  0  0  0  0  0  0  0  0  0  0
  137.2072   78.4848  223.1976 H   0  0  0  0  0  0  0  0  0  0  0  0
  140.5260   81.0952  224.1230 H   0  0  0  0  0  0  0  0  0  0  0  0
  139.6856   72.2031  225.2144 H   0  0  0  0  0  0  0  0  0  0  0  0
  141.6005   70.5977  226.4875 H   0  0  0  0  0  0  0  0  0  0  0  0
  141.7927   68.3599  227.5839 H   0  0  0  0  0  0  0  0  0  0  0  0
  140.2262   66.5260  226.9230 H   0  0  0  0  0  0  0  0  0  0  0  0
  1  2  2  0
  2  3  1  0
  3  4  1  0
  4  5  1  0
  5  6  1  0
  6  7  1  0
  7  8  2  0
  8  9  1  0
  9 10  2  0
 10 11  1  0
 10 12  1  0
 12 13  2  0
 13 14  1  0
  2 15  1  0
 15 16  1  0
 16 17  2  0
 17 18  1  0
 18 19  2  0
 19 20  1  0
 20 21  2  0
 21 22  1  0
 22 23  2  0
 23 24  1  0
 13  7  1  0
 23 18  1  0
  3 25  1  0
  3 26  1  0
  4 27  1  0
  4 28  1  0
  5 29  1  0
  5 30  1  0
  8 31  1  0
  9 32  1  0
 12 33  1  0
 17 34  1  0
 19 35  1  0
 20 36  1  0
 21 37  1  0
M  CHG  1  15  -1
M  END
>  <meeko>  (6) 
{"free_energy": -6.17, "intermolecular_energy": -8.86, "internal_energy": -0.51, "cluster_size": 8, "cluster_id": 2, "rank_in_cluster": 4}

$$$$

     RDKit          3D

 37 38  0  0  0  0  0  0  0  0999 V2000
  137.8580   69.7250  225.6070 O   0  0  0  0  0  0  0  0  0  0  0  0
  138.2410   69.0270  224.6290 C   0  0  0  0  0  0  0  0  0  0  0  0
  138.0780   69.5410  223.2330 C   0  0  0  0  0  0  0  0  0  0  0  0
  137.7690   71.0410  223.2500 C   0  0  0  0  0  0  0  0  0  0  0  0
  136.3120   71.3540  222.8890 C   0  0  0  0  0  0  0  0  0  0  0  0
  135.4240   70.9840  223.9460 O   0  0  0  0  0  0  0  0  0  0  0  0
  134.6920   71.8560  224.7730 C   0  0  0  0  0  0  0  0  0  0  0  0
  134.6810   73.2540  224.5930 C   0  0  0  0  0  0  0  0  0  0  0  0
  133.9340   74.0720  225.4460 C   0  0  0  0  0  0  0  0  0  0  0  0
  133.1950   73.5090  226.4880 C   0  0  0  0  0  0  0  0  0  0  0  0
  132.2580   74.5380  227.5570 Cl  0  0  0  0  0  0  0  0  0  0  0  0
  133.2030   72.1250  226.6810 C   0  0  0  0  0  0  0  0  0  0  0  0
  133.9490   71.3010  225.8290 C   0  0  0  0  0  0  0  0  0  0  0  0
  133.9360   69.5640  226.0940 Cl  0  0  0  0  0  0  0  0  0  0  0  0
  138.8720   67.7680  224.8500 N   0  0  0  0  0  0  0  0  0  0  0  0
  139.2460   67.3580  226.1370 N   0  0  0  0  0  0  0  0  0  0  0  0
  140.2970   67.8200  226.7440 C   0  0  0  0  0  0  0  0  0  0  0  0
  140.5180   69.2600  226.9940 C   0  0  0  0  0  0  0  0  0  0  0  0
  141.1910   70.0270  226.0330 C   0  0  0  0  0  0  0  0  0  0  0  0
  141.3980   71.3910  226.2440 C   0  0  0  0  0  0  0  0  0  0  0  0
  140.9090   71.9850  227.4080 C   0  0  0  0  0  0  0  0  0  0  0  0
  140.2270   71.2390  228.3170 N   0  0  0  0  0  0  0  0  0  0  0  0
  140.0170   69.9070  228.1400 C   0  0  0  0  0  0  0  0  0  0  0  0
  139.2770   69.2310  229.0550 F   0  0  0  0  0  0  0  0  0  0  0  0
  139.0085   69.3688  222.6722 H   0  0  0  0  0  0  0  0  0  0  0  0
  137.2435   69.0098  222.7519 H   0  0  0  0  0  0  0  0  0  0  0  0
  137.9720   71.4298  224.2588 H   0  0  0  0  0  0  0  0  0  0  0  0
  138.4069   71.5181  222.4915 H   0  0  0  0  0  0  0  0  0  0  0  0
  136.2137   72.4331  222.6997 H   0  0  0  0  0  0  0  0  0  0  0  0
  136.0445   70.7755  221.9924 H   0  0  0  0  0  0  0  0  0  0  0  0
  135.2639   73.7043  223.7761 H   0  0  0  0  0  0  0  0  0  0  0  0
  133.9286   75.1617  225.2957 H   0  0  0  0  0  0  0  0  0  0  0  0
  132.6224   71.6820  227.5035 H   0  0  0  0  0  0  0  0  0  0  0  0
  141.0592   67.1056  227.0886 H   0  0  0  0  0  0  0  0  0  0  0  0
  141.5568   69.5528  225.1104 H   0  0  0  0  0  0  0  0  0  0  0  0
  141.9414   71.9919  225.4999 H   0  0  0  0  0  0  0  0  0  0  0  0
  141.0754   73.0570  227.5901 H   0  0  0  0  0  0  0  0  0  0  0  0
  1  2  2  0
  2  3  1  0
  3  4  1  0
  4  5  1  0
  5  6  1  0
  6  7  1  0
  7  8  2  0
  8  9  1  0
  9 10  2  0
 10 11  1  0
 10 12  1  0
 12 13  2  0
 13 14  1  0
  2 15  1  0
 15 16  1  0
 16 17  2  0
 17 18  1  0
 18 19  2  0
 19 20  1  0
 20 21  2  0
 21 22  1  0
 22 23  2  0
 23 24  1  0
 13  7  1  0
 23 18  1  0
  3 25  1  0
  3 26  1  0
  4 27  1  0
  4 28  1  0
  5 29  1  0
  5 30  1  0
  8 31  1  0
  9 32  1  0
 12 33  1  0
 17 34  1  0
 19 35  1  0
 20 36  1  0
 21 37  1  0
M  CHG  1  15  -1
M  END
>  <meeko>  (7) 
{"free_energy": -5.99, "intermolecular_energy": -8.67, "internal_energy": -0.92, "cluster_size": 2, "cluster_id": 4, "rank_in_cluster": 2}

$$$$

     RDKit          3D

 37 38  0  0  0  0  0  0  0  0999 V2000
  140.6200   74.7020  220.3370 O   0  0  0  0  0  0  0  0  0  0  0  0
  140.3740   74.5210  221.5600 C   0  0  0  0  0  0  0  0  0  0  0  0
  139.5870   75.5400  222.3240 C   0  0  0  0  0  0  0  0  0  0  0  0
  138.2680   75.8430  221.6070 C   0  0  0  0  0  0  0  0  0  0  0  0
  137.4940   77.0020  222.2460 C   0  0  0  0  0  0  0  0  0  0  0  0
  138.0300   78.2660  221.8500 O   0  0  0  0  0  0  0  0  0  0  0  0
  139.2210   78.8570  222.3110 C   0  0  0  0  0  0  0  0  0  0  0  0
  140.4980   78.4570  221.8650 C   0  0  0  0  0  0  0  0  0  0  0  0
  141.6470   79.0820  222.3580 C   0  0  0  0  0  0  0  0  0  0  0  0
  141.5400   80.1050  223.3030 C   0  0  0  0  0  0  0  0  0  0  0  0
  142.9840   80.8870  223.9200 Cl  0  0  0  0  0  0  0  0  0  0  0  0
  140.2810   80.5050  223.7570 C   0  0  0  0  0  0  0  0  0  0  0  0
  139.1260   79.8840  223.2660 C   0  0  0  0  0  0  0  0  0  0  0  0
  137.5560   80.4120  223.8540 Cl  0  0  0  0  0  0  0  0  0  0  0  0
  140.8030   73.3270  222.2100 N   0  0  0  0  0  0  0  0  0  0  0  0
  139.9650   72.6430  223.1020 N   0  0  0  0  0  0  0  0  0  0  0  0
  140.2200   71.4430  223.5260 C   0  0  0  0  0  0  0  0  0  0  0  0
  140.2780   71.0880  224.9600 C   0  0  0  0  0  0  0  0  0  0  0  0
  141.0200   71.8910  225.8360 C   0  0  0  0  0  0  0  0  0  0  0  0
  141.0760   71.5810  227.1950 C   0  0  0  0  0  0  0  0  0  0  0  0
  140.3670   70.4780  227.6740 C   0  0  0  0  0  0  0  0  0  0  0  0
  139.6220   69.7260  226.8220 N   0  0  0  0  0  0  0  0  0  0  0  0
  139.5560   70.0020  225.4920 C   0  0  0  0  0  0  0  0  0  0  0  0
  138.7460   69.2500  224.7040 F   0  0  0  0  0  0  0  0  0  0  0  0
  139.3716   75.1517  223.3304 H   0  0  0  0  0  0  0  0  0  0  0  0
  140.1759   76.4664  222.3945 H   0  0  0  0  0  0  0  0  0  0  0  0
  138.4887   76.1027  220.5611 H   0  0  0  0  0  0  0  0  0  0  0  0
  137.6378   74.9445  221.6815 H   0  0  0  0  0  0  0  0  0  0  0  0
  136.4411   76.9454  221.9327 H   0  0  0  0  0  0  0  0  0  0  0  0
  137.5803   76.9158  223.3392 H   0  0  0  0  0  0  0  0  0  0  0  0
  140.5902   77.6485  221.1249 H   0  0  0  0  0  0  0  0  0  0  0  0
  142.6386   78.7672  222.0006 H   0  0  0  0  0  0  0  0  0  0  0  0
  140.1967   81.3098  224.5021 H   0  0  0  0  0  0  0  0  0  0  0  0
  140.4016   70.6525  222.7830 H   0  0  0  0  0  0  0  0  0  0  0  0
  141.5601   72.7686  225.4510 H   0  0  0  0  0  0  0  0  0  0  0  0
  141.6726   72.1992  227.8820 H   0  0  0  0  0  0  0  0  0  0  0  0
  140.4115   70.2174  228.7418 H   0  0  0  0  0  0  0  0  0  0  0  0
  1  2  2  0
  2  3  1  0
  3  4  1  0
  4  5  1  0
  5  6  1  0
  6  7  1  0
  7  8  2  0
  8  9  1  0
  9 10  2  0
 10 11  1  0
 10 12  1  0
 12 13  2  0
 13 14  1  0
  2 15  1  0
 15 16  1  0
 16 17  2  0
 17 18  1  0
 18 19  2  0
 19 20  1  0
 20 21  2  0
 21 22  1  0
 22 23  2  0
 23 24  1  0
 13  7  1  0
 23 18  1  0
  3 25  1  0
  3 26  1  0
  4 27  1  0
  4 28  1  0
  5 29  1  0
  5 30  1  0
  8 31  1  0
  9 32  1  0
 12 33  1  0
 17 34  1  0
 19 35  1  0
 20 36  1  0
 21 37  1  0
M  CHG  1  15  -1
M  END
>  <meeko>  (8) 
{"free_energy": -5.79, "intermolecular_energy": -8.47, "internal_energy": -0.6, "cluster_size": 1, "cluster_id": 5, "rank_in_cluster": 1}

$$$$

     RDKit          3D

 37 38  0  0  0  0  0  0  0  0999 V2000
  140.5100   73.7430  222.3450 O   0  0  0  0  0  0  0  0  0  0  0  0
  139.9720   72.6230  222.1360 C   0  0  0  0  0  0  0  0  0  0  0  0
  139.2250   72.3780  220.8620 C   0  0  0  0  0  0  0  0  0  0  0  0
  139.2560   73.6270  219.9770 C   0  0  0  0  0  0  0  0  0  0  0  0
  140.0740   73.4300  218.6960 C   0  0  0  0  0  0  0  0  0  0  0  0
  141.2570   74.2320  218.7050 O   0  0  0  0  0  0  0  0  0  0  0  0
  142.4420   73.9750  219.4200 C   0  0  0  0  0  0  0  0  0  0  0  0
  142.8140   72.6840  219.8480 C   0  0  0  0  0  0  0  0  0  0  0  0
  144.0040   72.4880  220.5540 C   0  0  0  0  0  0  0  0  0  0  0  0
  144.8330   73.5730  220.8470 C   0  0  0  0  0  0  0  0  0  0  0  0
  146.3260   73.3240  221.7340 Cl  0  0  0  0  0  0  0  0  0  0  0  0
  144.4710   74.8580  220.4350 C   0  0  0  0  0  0  0  0  0  0  0  0
  143.2810   75.0600  219.7260 C   0  0  0  0  0  0  0  0  0  0  0  0
  142.8550   76.6870  219.2170 Cl  0  0  0  0  0  0  0  0  0  0  0  0
  140.1110   71.5700  223.0880 N   0  0  0  0  0  0  0  0  0  0  0  0
  140.7030   71.7950  224.3380 N   0  0  0  0  0  0  0  0  0  0  0  0
  140.1950   71.3490  225.4460 C   0  0  0  0  0  0  0  0  0  0  0  0
  140.1350   69.9120  225.7880 C   0  0  0  0  0  0  0  0  0  0  0  0
  140.9490   69.4180  226.8160 C   0  0  0  0  0  0  0  0  0  0  0  0
  140.8980   68.0680  227.1640 C   0  0  0  0  0  0  0  0  0  0  0  0
  140.0130   67.2220  226.4930 C   0  0  0  0  0  0  0  0  0  0  0  0
  139.2030   67.7190  225.5210 N   0  0  0  0  0  0  0  0  0  0  0  0
  139.2380   69.0290  225.1580 C   0  0  0  0  0  0  0  0  0  0  0  0
  138.3620   69.4750  224.2230 F   0  0  0  0  0  0  0  0  0  0  0  0
  139.6920   71.5403  220.3233 H   0  0  0  0  0  0  0  0  0  0  0  0
  138.1791   72.1365  221.1022 H   0  0  0  0  0  0  0  0  0  0  0  0
  138.2238   73.8853  219.6981 H   0  0  0  0  0  0  0  0  0  0  0  0
  139.7367   74.4297  220.5555 H   0  0  0  0  0  0  0  0  0  0  0  0
  140.3600   72.3711  218.6131 H   0  0  0  0  0  0  0  0  0  0  0  0
  139.4551   73.7350  217.8393 H   0  0  0  0  0  0  0  0  0  0  0  0
  142.1633   71.8256  219.6248 H   0  0  0  0  0  0  0  0  0  0  0  0
  144.2884   71.4766  220.8797 H   0  0  0  0  0  0  0  0  0  0  0  0
  145.1226   75.7130  220.6683 H   0  0  0  0  0  0  0  0  0  0  0  0
  139.7894   72.0755  226.1655 H   0  0  0  0  0  0  0  0  0  0  0  0
  141.6302   70.0967  227.3502 H   0  0  0  0  0  0  0  0  0  0  0  0
  141.5484   67.6741  227.9589 H   0  0  0  0  0  0  0  0  0  0  0  0
  139.9712   66.1535  226.7508 H   0  0  0  0  0  0  0  0  0  0  0  0
  1  2  2  0
  2  3  1  0
  3  4  1  0
  4  5  1  0
  5  6  1  0
  6  7  1  0
  7  8  2  0
  8  9  1  0
  9 10  2  0
 10 11  1  0
 10 12  1  0
 12 13  2  0
 13 14  1  0
  2 15  1  0
 15 16  1  0
 16 17  2  0
 17 18  1  0
 18 19  2  0
 19 20  1  0
 20 21  2  0
 21 22  1  0
 22 23  2  0
 23 24  1  0
 13  7  1  0
 23 18  1  0
  3 25  1  0
  3 26  1  0
  4 27  1  0
  4 28  1  0
  5 29  1  0
  5 30  1  0
  8 31  1  0
  9 32  1  0
 12 33  1  0
 17 34  1  0
 19 35  1  0
 20 36  1  0
 21 37  1  0
M  CHG  1  15  -1
M  END
>  <meeko>  (9) 
{"free_energy": -5.7, "intermolecular_energy": -8.38, "internal_energy": -0.84, "cluster_size": 4, "cluster_id": 6, "rank_in_cluster": 1}

$$$$

     RDKit          3D

 37 38  0  0  0  0  0  0  0  0999 V2000
  146.0030   73.6540  221.5480 O   0  0  0  0  0  0  0  0  0  0  0  0
  145.5210   73.7700  220.3890 C   0  0  0  0  0  0  0  0  0  0  0  0
  144.4200   74.7510  220.1310 C   0  0  0  0  0  0  0  0  0  0  0  0
  143.0720   74.1630  220.5580 C   0  0  0  0  0  0  0  0  0  0  0  0
  141.9410   74.4900  219.5750 C   0  0  0  0  0  0  0  0  0  0  0  0
  140.9380   75.3030  220.1890 O   0  0  0  0  0  0  0  0  0  0  0  0
  141.1490   76.4500  220.9750 C   0  0  0  0  0  0  0  0  0  0  0  0
  140.8300   76.5080  222.3480 C   0  0  0  0  0  0  0  0  0  0  0  0
  141.0640   77.6760  223.0800 C   0  0  0  0  0  0  0  0  0  0  0  0
  141.6110   78.7990  222.4550 C   0  0  0  0  0  0  0  0  0  0  0  0
  141.9030   80.2630  223.3760 Cl  0  0  0  0  0  0  0  0  0  0  0  0
  141.9240   78.7550  221.0940 C   0  0  0  0  0  0  0  0  0  0  0  0
  141.6940   77.5880  220.3560 C   0  0  0  0  0  0  0  0  0  0  0  0
  142.1030   77.5620  218.6470 Cl  0  0  0  0  0  0  0  0  0  0  0  0
  146.0510   73.0030  219.3100 N   0  0  0  0  0  0  0  0  0  0  0  0
  146.0470   71.6020  219.3450 N   0  0  0  0  0  0  0  0  0  0  0  0
  144.9730   70.8970  219.1580 C   0  0  0  0  0  0  0  0  0  0  0  0
  144.9570   69.4190  219.1950 C   0  0  0  0  0  0  0  0  0  0  0  0
  146.1720   68.7220  219.1950 C   0  0  0  0  0  0  0  0  0  0  0  0
  146.1800   67.3270  219.2450 C   0  0  0  0  0  0  0  0  0  0  0  0
  144.9680   66.6390  219.3160 C   0  0  0  0  0  0  0  0  0  0  0  0
  143.7970   67.3270  219.3500 N   0  0  0  0  0  0  0  0  0  0  0  0
  143.7600   68.6850  219.2970 C   0  0  0  0  0  0  0  0  0  0  0  0
  142.5620   69.3150  219.3960 F   0  0  0  0  0  0  0  0  0  0  0  0
  144.6121   75.6706  220.7032 H   0  0  0  0  0  0  0  0  0  0  0  0
  144.3869   74.9762  219.0548 H   0  0  0  0  0  0  0  0  0  0  0  0
  143.1719   73.0697  220.6273 H   0  0  0  0  0  0  0  0  0  0  0  0
  142.8078   74.6117  221.5270 H   0  0  0  0  0  0  0  0  0  0  0  0
  142.3604   75.0287  218.7125 H   0  0  0  0  0  0  0  0  0  0  0  0
  141.4752   73.5462  219.2553 H   0  0  0  0  0  0  0  0  0  0  0  0
  140.3945   75.6290  222.8457 H   0  0  0  0  0  0  0  0  0  0  0  0
  140.8166   77.7106  224.1513 H   0  0  0  0  0  0  0  0  0  0  0  0
  142.3524   79.6401  220.6010 H   0  0  0  0  0  0  0  0  0  0  0  0
  144.0282   71.4254  218.9624 H   0  0  0  0  0  0  0  0  0  0  0  0
  147.1220   69.2752  219.1555 H   0  0  0  0  0  0  0  0  0  0  0  0
  147.1318   66.7758  219.2286 H   0  0  0  0  0  0  0  0  0  0  0  0
  144.9607   65.5394  219.3444 H   0  0  0  0  0  0  0  0  0  0  0  0
  1  2  2  0
  2  3  1  0
  3  4  1  0
  4  5  1  0
  5  6  1  0
  6  7  1  0
  7  8  2  0
  8  9  1  0
  9 10  2  0
 10 11  1  0
 10 12  1  0
 12 13  2  0
 13 14  1  0
  2 15  1  0
 15 16  1  0
 16 17  2  0
 17 18  1  0
 18 19  2  0
 19 20  1  0
 20 21  2  0
 21 22  1  0
 22 23  2  0
 23 24  1  0
 13  7  1  0
 23 18  1  0
  3 25  1  0
  3 26  1  0
  4 27  1  0
  4 28  1  0
  5 29  1  0
  5 30  1  0
  8 31  1  0
  9 32  1  0
 12 33  1  0
 17 34  1  0
 19 35  1  0
 20 36  1  0
 21 37  1  0
M  CHG  1  15  -1
M  END
>  <meeko>  (10) 
{"free_energy": -6.11, "intermolecular_energy": -8.79, "internal_energy": -0.62, "cluster_size": 2, "cluster_id": 1, "rank_in_cluster": 2}

$$$$

     RDKit          3D

 37 38  0  0  0  0  0  0  0  0999 V2000
  137.3290   69.1160  224.4970 O   0  0  0  0  0  0  0  0  0  0  0  0
  138.5080   68.8290  224.1550 C   0  0  0  0  0  0  0  0  0  0  0  0
  139.2710   69.7500  223.2560 C   0  0  0  0  0  0  0  0  0  0  0  0
  138.9270   71.2090  223.5710 C   0  0  0  0  0  0  0  0  0  0  0  0
  138.1460   71.8940  222.4430 C   0  0  0  0  0  0  0  0  0  0  0  0
  139.0180   72.6240  221.5770 O   0  0  0  0  0  0  0  0  0  0  0  0
  139.4580   73.9500  221.7490 C   0  0  0  0  0  0  0  0  0  0  0  0
  138.6150   74.9830  222.2100 C   0  0  0  0  0  0  0  0  0  0  0  0
  139.1090   76.2820  222.3630 C   0  0  0  0  0  0  0  0  0  0  0  0
  140.4400   76.5690  222.0540 C   0  0  0  0  0  0  0  0  0  0  0  0
  141.0550   78.2000  222.2470 Cl  0  0  0  0  0  0  0  0  0  0  0  0
  141.2820   75.5550  221.5900 C   0  0  0  0  0  0  0  0  0  0  0  0
  140.7940   74.2520  221.4360 C   0  0  0  0  0  0  0  0  0  0  0  0
  141.8780   72.9970  220.8540 Cl  0  0  0  0  0  0  0  0  0  0  0  0
  139.1340   67.6510  224.6570 N   0  0  0  0  0  0  0  0  0  0  0  0
  139.2130   67.4000  226.0340 N   0  0  0  0  0  0  0  0  0  0  0  0
  140.1900   67.8320  226.7720 C   0  0  0  0  0  0  0  0  0  0  0  0
  140.4670   69.2680  226.9880 C   0  0  0  0  0  0  0  0  0  0  0  0
  141.1610   69.9860  226.0050 C   0  0  0  0  0  0  0  0  0  0  0  0
  141.4210   71.3460  226.1820 C   0  0  0  0  0  0  0  0  0  0  0  0
  140.9640   71.9840  227.3350 C   0  0  0  0  0  0  0  0  0  0  0  0
  140.2620   71.2860  228.2660 N   0  0  0  0  0  0  0  0  0  0  0  0
  140.0000   69.9590  228.1210 C   0  0  0  0  0  0  0  0  0  0  0  0
  139.2430   69.3330  229.0570 F   0  0  0  0  0  0  0  0  0  0  0  0
  140.3492   69.5914  223.4052 H   0  0  0  0  0  0  0  0  0  0  0  0
  138.9987   69.5364  222.2118 H   0  0  0  0  0  0  0  0  0  0  0  0
  138.3180   71.2364  224.4866 H   0  0  0  0  0  0  0  0  0  0  0  0
  139.8752   71.7529  223.6941 H   0  0  0  0  0  0  0  0  0  0  0  0
  137.6174   71.1280  221.8566 H   0  0  0  0  0  0  0  0  0  0  0  0
  137.4328   72.6000  222.8933 H   0  0  0  0  0  0  0  0  0  0  0  0
  137.5639   74.7654  222.4503 H   0  0  0  0  0  0  0  0  0  0  0  0
  138.4466   77.0807  222.7281 H   0  0  0  0  0  0  0  0  0  0  0  0
  142.3303   75.7811  221.3452 H   0  0  0  0  0  0  0  0  0  0  0  0
  140.8432   67.0938  227.2601 H   0  0  0  0  0  0  0  0  0  0  0  0
  141.5018   69.4766  225.0915 H   0  0  0  0  0  0  0  0  0  0  0  0
  141.9805   71.9086  225.4201 H   0  0  0  0  0  0  0  0  0  0  0  0
  141.1720   73.0529  227.4909 H   0  0  0  0  0  0  0  0  0  0  0  0
  1  2  2  0
  2  3  1  0
  3  4  1  0
  4  5  1  0
  5  6  1  0
  6  7  1  0
  7  8  2  0
  8  9  1  0
  9 10  2  0
 10 11  1  0
 10 12  1  0
 12 13  2  0
 13 14  1  0
  2 15  1  0
 15 16  1  0
 16 17  2  0
 17 18  1  0
 18 19  2  0
 19 20  1  0
 20 21  2  0
 21 22  1  0
 22 23  2  0
 23 24  1  0
 13  7  1  0
 23 18  1  0
  3 25  1  0
  3 26  1  0
  4 27  1  0
  4 28  1  0
  5 29  1  0
  5 30  1  0
  8 31  1  0
  9 32  1  0
 12 33  1  0
 17 34  1  0
 19 35  1  0
 20 36  1  0
 21 37  1  0
M  CHG  1  15  -1
M  END
>  <meeko>  (11) 
{"free_energy": -6.27, "intermolecular_energy": -8.96, "internal_energy": -0.98, "cluster_size": 3, "cluster_id": 3, "rank_in_cluster": 2}

$$$$

     RDKit          3D

 37 38  0  0  0  0  0  0  0  0999 V2000
  137.4260   69.3040  224.2680 O   0  0  0  0  0  0  0  0  0  0  0  0
  138.6040   68.8970  224.0800 C   0  0  0  0  0  0  0  0  0  0  0  0
  139.5380   69.6830  223.2140 C   0  0  0  0  0  0  0  0  0  0  0  0
  139.3760   71.1830  223.4790 C   0  0  0  0  0  0  0  0  0  0  0  0
  140.5520   72.0120  222.9500 C   0  0  0  0  0  0  0  0  0  0  0  0
  140.1170   73.2920  222.4840 O   0  0  0  0  0  0  0  0  0  0  0  0
  140.8070   74.1440  221.6020 C   0  0  0  0  0  0  0  0  0  0  0  0
  141.9640   73.7470  220.9000 C   0  0  0  0  0  0  0  0  0  0  0  0
  142.6070   74.6370  220.0340 C   0  0  0  0  0  0  0  0  0  0  0  0
  142.1110   75.9310  219.8620 C   0  0  0  0  0  0  0  0  0  0  0  0
  142.9200   77.0460  218.7760 Cl  0  0  0  0  0  0  0  0  0  0  0  0
  140.9690   76.3380  220.5580 C   0  0  0  0  0  0  0  0  0  0  0  0
  140.3200   75.4500  221.4250 C   0  0  0  0  0  0  0  0  0  0  0  0
  138.8840   75.9900  222.2820 Cl  0  0  0  0  0  0  0  0  0  0  0  0
  139.0670   67.7130  224.7260 N   0  0  0  0  0  0  0  0  0  0  0  0
  139.1600   67.6360  226.1220 N   0  0  0  0  0  0  0  0  0  0  0  0
  140.1800   68.0900  226.7850 C   0  0  0  0  0  0  0  0  0  0  0  0
  140.4030   69.5290  227.0390 C   0  0  0  0  0  0  0  0  0  0  0  0
  139.7250   70.1510  228.0960 C   0  0  0  0  0  0  0  0  0  0  0  0
  139.9330   71.5050  228.3620 C   0  0  0  0  0  0  0  0  0  0  0  0
  140.8370   72.2240  227.5800 C   0  0  0  0  0  0  0  0  0  0  0  0
  141.5150   71.6030  226.5790 N   0  0  0  0  0  0  0  0  0  0  0  0
  141.3270   70.2860  226.2950 C   0  0  0  0  0  0  0  0  0  0  0  0
  142.0790   69.7100  225.3230 F   0  0  0  0  0  0  0  0  0  0  0  0
  140.5738   69.3856  223.4346 H   0  0  0  0  0  0  0  0  0  0  0  0
  139.3032   69.4794  222.1588 H   0  0  0  0  0  0  0  0  0  0  0  0
  138.4540   71.5286  222.9886 H   0  0  0  0  0  0  0  0  0  0  0  0
  139.3367   71.3235  224.5693 H   0  0  0  0  0  0  0  0  0  0  0  0
  141.2828   72.1548  223.7597 H   0  0  0  0  0  0  0  0  0  0  0  0
  141.0065   71.4714  222.1067 H   0  0  0  0  0  0  0  0  0  0  0  0
  142.3631   72.7308  221.0345 H   0  0  0  0  0  0  0  0  0  0  0  0
  143.5059   74.3169  219.4868 H   0  0  0  0  0  0  0  0  0  0  0  0
  140.5793   77.3579  220.4244 H   0  0  0  0  0  0  0  0  0  0  0  0
  140.9131   67.3693  227.1763 H   0  0  0  0  0  0  0  0  0  0  0  0
  139.0272   69.5706  228.7175 H   0  0  0  0  0  0  0  0  0  0  0  0
  139.3895   72.0003  229.1801 H   0  0  0  0  0  0  0  0  0  0  0  0
  141.0013   73.2943  227.7736 H   0  0  0  0  0  0  0  0  0  0  0  0
  1  2  2  0
  2  3  1  0
  3  4  1  0
  4  5  1  0
  5  6  1  0
  6  7  1  0
  7  8  2  0
  8  9  1  0
  9 10  2  0
 10 11  1  0
 10 12  1  0
 12 13  2  0
 13 14  1  0
  2 15  1  0
 15 16  1  0
 16 17  2  0
 17 18  1  0
 18 19  2  0
 19 20  1  0
 20 21  2  0
 21 22  1  0
 22 23  2  0
 23 24  1  0
 13  7  1  0
 23 18  1  0
  3 25  1  0
  3 26  1  0
  4 27  1  0
  4 28  1  0
  5 29  1  0
  5 30  1  0
  8 31  1  0
  9 32  1  0
 12 33  1  0
 17 34  1  0
 19 35  1  0
 20 36  1  0
 21 37  1  0
M  CHG  1  15  -1
M  END
>  <meeko>  (12) 
{"free_energy": -6.48, "intermolecular_energy": -9.16, "internal_energy": -0.94, "cluster_size": 3, "cluster_id": 3, "rank_in_cluster": 1}

$$$$

     RDKit          3D

 37 38  0  0  0  0  0  0  0  0999 V2000
  139.5500   75.0310  222.5470 O   0  0  0  0  0  0  0  0  0  0  0  0
  140.0390   74.0300  221.9580 C   0  0  0  0  0  0  0  0  0  0  0  0
  140.0480   73.9710  220.4630 C   0  0  0  0  0  0  0  0  0  0  0  0
  141.4830   74.0490  219.9340 C   0  0  0  0  0  0  0  0  0  0  0  0
  142.0330   75.4800  219.9110 C   0  0  0  0  0  0  0  0  0  0  0  0
  141.0680   76.4160  220.3990 O   0  0  0  0  0  0  0  0  0  0  0  0
  141.3130   77.5100  221.2490 C   0  0  0  0  0  0  0  0  0  0  0  0
  141.1170   77.4560  222.6440 C   0  0  0  0  0  0  0  0  0  0  0  0
  141.3790   78.5760  223.4390 C   0  0  0  0  0  0  0  0  0  0  0  0
  141.8320   79.7610  222.8560 C   0  0  0  0  0  0  0  0  0  0  0  0
  142.1580   81.1640  223.8570 Cl  0  0  0  0  0  0  0  0  0  0  0  0
  142.0230   79.8290  221.4730 C   0  0  0  0  0  0  0  0  0  0  0  0
  141.7640   78.7100  220.6720 C   0  0  0  0  0  0  0  0  0  0  0  0
  142.0180   78.8250  218.9370 Cl  0  0  0  0  0  0  0  0  0  0  0  0
  140.6270   72.9700  222.7110 N   0  0  0  0  0  0  0  0  0  0  0  0
  139.8340   72.0150  223.3610 N   0  0  0  0  0  0  0  0  0  0  0  0
  140.3360   70.9950  223.9890 C   0  0  0  0  0  0  0  0  0  0  0  0
  140.3950   70.9020  225.4630 C   0  0  0  0  0  0  0  0  0  0  0  0
  141.0600   71.9010  226.1870 C   0  0  0  0  0  0  0  0  0  0  0  0
  141.1150   71.8400  227.5800 C   0  0  0  0  0  0  0  0  0  0  0  0
  140.4830   70.7870  228.2430 C   0  0  0  0  0  0  0  0  0  0  0  0
  139.8110   69.8420  227.5330 N   0  0  0  0  0  0  0  0  0  0  0  0
  139.7470   69.8750  226.1750 C   0  0  0  0  0  0  0  0  0  0  0  0
  139.0110   68.9360  225.5290 F   0  0  0  0  0  0  0  0  0  0  0  0
  139.5917   73.0254  220.1349 H   0  0  0  0  0  0  0  0  0  0  0  0
  139.4757   74.8238  220.0689 H   0  0  0  0  0  0  0  0  0  0  0  0
  142.1288   73.4350  220.5790 H   0  0  0  0  0  0  0  0  0  0  0  0
  141.4731   73.6823  218.8970 H   0  0  0  0  0  0  0  0  0  0  0  0
  142.9313   75.5287  220.5440 H   0  0  0  0  0  0  0  0  0  0  0  0
  142.2752   75.7420  218.8705 H   0  0  0  0  0  0  0  0  0  0  0  0
  140.7558   76.5273  223.1098 H   0  0  0  0  0  0  0  0  0  0  0  0
  141.2277   78.5233  224.5273 H   0  0  0  0  0  0  0  0  0  0  0  0
  142.3774   80.7632  221.0130 H   0  0  0  0  0  0  0  0  0  0  0  0
  140.7366   70.1601  223.3953 H   0  0  0  0  0  0  0  0  0  0  0  0
  141.5401   72.7358  225.6554 H   0  0  0  0  0  0  0  0  0  0  0  0
  141.6508   72.6137  228.1495 H   0  0  0  0  0  0  0  0  0  0  0  0
  140.5285   70.7216  229.3401 H   0  0  0  0  0  0  0  0  0  0  0  0
  1  2  2  0
  2  3  1  0
  3  4  1  0
  4  5  1  0
  5  6  1  0
  6  7  1  0
  7  8  2  0
  8  9  1  0
  9 10  2  0
 10 11  1  0
 10 12  1  0
 12 13  2  0
 13 14  1  0
  2 15  1  0
 15 16  1  0
 16 17  2  0
 17 18  1  0
 18 19  2  0
 19 20  1  0
 20 21  2  0
 21 22  1  0
 22 23  2  0
 23 24  1  0
 13  7  1  0
 23 18  1  0
  3 25  1  0
  3 26  1  0
  4 27  1  0
  4 28  1  0
  5 29  1  0
  5 30  1  0
  8 31  1  0
  9 32  1  0
 12 33  1  0
 17 34  1  0
 19 35  1  0
 20 36  1  0
 21 37  1  0
M  CHG  1  15  -1
M  END
>  <meeko>  (13) 
{"free_energy": -6.27, "intermolecular_energy": -8.96, "internal_energy": -0.65, "cluster_size": 8, "cluster_id": 2, "rank_in_cluster": 3}

$$$$

     RDKit          3D

 37 38  0  0  0  0  0  0  0  0999 V2000
  139.1940   69.8480  223.7040 O   0  0  0  0  0  0  0  0  0  0  0  0
  138.4650   69.0200  224.3150 C   0  0  0  0  0  0  0  0  0  0  0  0
  137.0300   69.3450  224.5860 C   0  0  0  0  0  0  0  0  0  0  0  0
  136.4740   70.2620  223.4920 C   0  0  0  0  0  0  0  0  0  0  0  0
  136.2830   71.7070  223.9650 C   0  0  0  0  0  0  0  0  0  0  0  0
  135.1530   71.8250  224.8320 O   0  0  0  0  0  0  0  0  0  0  0  0
  134.6090   73.0170  225.3480 C   0  0  0  0  0  0  0  0  0  0  0  0
  135.0610   74.2950  224.9610 C   0  0  0  0  0  0  0  0  0  0  0  0
  134.4820   75.4450  225.5060 C   0  0  0  0  0  0  0  0  0  0  0  0
  133.4540   75.3360  226.4450 C   0  0  0  0  0  0  0  0  0  0  0  0
  132.7300   76.7810  227.1280 Cl  0  0  0  0  0  0  0  0  0  0  0  0
  133.0030   74.0740  226.8420 C   0  0  0  0  0  0  0  0  0  0  0  0
  133.5780   72.9190  226.2980 C   0  0  0  0  0  0  0  0  0  0  0  0
  132.9870   71.3460  226.8130 Cl  0  0  0  0  0  0  0  0  0  0  0  0
  138.9910   67.7550  224.7100 N   0  0  0  0  0  0  0  0  0  0  0  0
  139.2010   67.4460  226.0610 N   0  0  0  0  0  0  0  0  0  0  0  0
  140.2310   67.8710  226.7270 C   0  0  0  0  0  0  0  0  0  0  0  0
  140.5030   69.3040  226.9690 C   0  0  0  0  0  0  0  0  0  0  0  0
  141.1780   70.0470  225.9910 C   0  0  0  0  0  0  0  0  0  0  0  0
  141.4320   71.4050  226.1940 C   0  0  0  0  0  0  0  0  0  0  0  0
  140.9880   72.0150  227.3680 C   0  0  0  0  0  0  0  0  0  0  0  0
  140.3040   71.2920  228.2930 N   0  0  0  0  0  0  0  0  0  0  0  0
  140.0490   69.9670  228.1240 C   0  0  0  0  0  0  0  0  0  0  0  0
  139.3090   69.3160  229.0570 F   0  0  0  0  0  0  0  0  0  0  0  0
  136.4456   68.4134  224.6095 H   0  0  0  0  0  0  0  0  0  0  0  0
  136.9580   69.8611  225.5547 H   0  0  0  0  0  0  0  0  0  0  0  0
  137.1738   70.2601  222.6433 H   0  0  0  0  0  0  0  0  0  0  0  0
  135.4846   69.8743  223.2077 H   0  0  0  0  0  0  0  0  0  0  0  0
  137.1849   72.0290  224.5062 H   0  0  0  0  0  0  0  0  0  0  0  0
  136.1111   72.3411  223.0827 H   0  0  0  0  0  0  0  0  0  0  0  0
  135.8740   74.3880  224.2259 H   0  0  0  0  0  0  0  0  0  0  0  0
  134.8371   76.4383  225.1943 H   0  0  0  0  0  0  0  0  0  0  0  0
  132.1948   73.9880  227.5832 H   0  0  0  0  0  0  0  0  0  0  0  0
  140.9356   67.1291  227.1309 H   0  0  0  0  0  0  0  0  0  0  0  0
  141.5083   69.5596  225.0618 H   0  0  0  0  0  0  0  0  0  0  0  0
  141.9764   71.9879  225.4364 H   0  0  0  0  0  0  0  0  0  0  0  0
  141.1918   73.0814  227.5446 H   0  0  0  0  0  0  0  0  0  0  0  0
  1  2  2  0
  2  3  1  0
  3  4  1  0
  4  5  1  0
  5  6  1  0
  6  7  1  0
  7  8  2  0
  8  9  1  0
  9 10  2  0
 10 11  1  0
 10 12  1  0
 12 13  2  0
 13 14  1  0
  2 15  1  0
 15 16  1  0
 16 17  2  0
 17 18  1  0
 18 19  2  0
 19 20  1  0
 20 21  2  0
 21 22  1  0
 22 23  2  0
 23 24  1  0
 13  7  1  0
 23 18  1  0
  3 25  1  0
  3 26  1  0
  4 27  1  0
  4 28  1  0
  5 29  1  0
  5 30  1  0
  8 31  1  0
  9 32  1  0
 12 33  1  0
 17 34  1  0
 19 35  1  0
 20 36  1  0
 21 37  1  0
M  CHG  1  15  -1
M  END
>  <meeko>  (14) 
{"free_energy": -6.34, "intermolecular_energy": -9.03, "internal_energy": -0.78, "cluster_size": 2, "cluster_id": 4, "rank_in_cluster": 1}

$$$$

     RDKit          3D

 37 38  0  0  0  0  0  0  0  0999 V2000
  140.8370   75.2730  222.1180 O   0  0  0  0  0  0  0  0  0  0  0  0
  140.2110   74.2020  221.8900 C   0  0  0  0  0  0  0  0  0  0  0  0
  138.9560   74.2290  221.0750 C   0  0  0  0  0  0  0  0  0  0  0  0
  139.2450   73.7890  219.6370 C   0  0  0  0  0  0  0  0  0  0  0  0
  140.0180   74.8420  218.8350 C   0  0  0  0  0  0  0  0  0  0  0  0
  141.2650   74.3250  218.3640 O   0  0  0  0  0  0  0  0  0  0  0  0
  142.4120   74.0620  219.1360 C   0  0  0  0  0  0  0  0  0  0  0  0
  142.7180   72.7810  219.6400 C   0  0  0  0  0  0  0  0  0  0  0  0
  143.8740   72.5780  220.4010 C   0  0  0  0  0  0  0  0  0  0  0  0
  144.7320   73.6460  220.6720 C   0  0  0  0  0  0  0  0  0  0  0  0
  146.1810   73.3890  221.6280 Cl  0  0  0  0  0  0  0  0  0  0  0  0
  144.4340   74.9210  220.1840 C   0  0  0  0  0  0  0  0  0  0  0  0
  143.2790   75.1300  219.4200 C   0  0  0  0  0  0  0  0  0  0  0  0
  142.9350   76.7440  218.8160 Cl  0  0  0  0  0  0  0  0  0  0  0  0
  140.7180   72.9580  222.3670 N   0  0  0  0  0  0  0  0  0  0  0  0
  140.1110   72.2890  223.4390 N   0  0  0  0  0  0  0  0  0  0  0  0
  140.6340   71.2410  224.0000 C   0  0  0  0  0  0  0  0  0  0  0  0
  140.5400   70.9690  225.4500 C   0  0  0  0  0  0  0  0  0  0  0  0
  141.0850   71.8880  226.3560 C   0  0  0  0  0  0  0  0  0  0  0  0
  140.9940   71.6560  227.7290 C   0  0  0  0  0  0  0  0  0  0  0  0
  140.3380   70.5130  228.1880 C   0  0  0  0  0  0  0  0  0  0  0  0
  139.7820   69.6460  227.3010 N   0  0  0  0  0  0  0  0  0  0  0  0
  139.8610   69.8450  225.9580 C   0  0  0  0  0  0  0  0  0  0  0  0
  139.2350   68.9740  225.1270 F   0  0  0  0  0  0  0  0  0  0  0  0
  138.2186   73.5460  221.5219 H   0  0  0  0  0  0  0  0  0  0  0  0
  138.5605   75.2554  221.0619 H   0  0  0  0  0  0  0  0  0  0  0  0
  139.8392   72.8638  219.6657 H   0  0  0  0  0  0  0  0  0  0  0  0
  138.2769   73.6384  219.1370 H   0  0  0  0  0  0  0  0  0  0  0  0
  139.4102   75.1526  217.9723 H   0  0  0  0  0  0  0  0  0  0  0  0
  140.2242   75.6979  219.4945 H   0  0  0  0  0  0  0  0  0  0  0  0
  142.0439   71.9367  219.4335 H   0  0  0  0  0  0  0  0  0  0  0  0
  144.1078   71.5748  220.7869 H   0  0  0  0  0  0  0  0  0  0  0  0
  145.1083   75.7627  220.4005 H   0  0  0  0  0  0  0  0  0  0  0  0
  141.1727   70.5214  223.3660 H   0  0  0  0  0  0  0  0  0  0  0  0
  141.5857   72.7942  225.9844 H   0  0  0  0  0  0  0  0  0  0  0  0
  141.4352   72.3673  228.4427 H   0  0  0  0  0  0  0  0  0  0  0  0
  140.2709   70.3137  229.2677 H   0  0  0  0  0  0  0  0  0  0  0  0
  1  2  2  0
  2  3  1  0
  3  4  1  0
  4  5  1  0
  5  6  1  0
  6  7  1  0
  7  8  2  0
  8  9  1  0
  9 10  2  0
 10 11  1  0
 10 12  1  0
 12 13  2  0
 13 14  1  0
  2 15  1  0
 15 16  1  0
 16 17  2  0
 17 18  1  0
 18 19  2  0
 19 20  1  0
 20 21  2  0
 21 22  1  0
 22 23  2  0
 23 24  1  0
 13  7  1  0
 23 18  1  0
  3 25  1  0
  3 26  1  0
  4 27  1  0
  4 28  1  0
  5 29  1  0
  5 30  1  0
  8 31  1  0
  9 32  1  0
 12 33  1  0
 17 34  1  0
 19 35  1  0
 20 36  1  0
 21 37  1  0
M  CHG  1  15  -1
M  END
>  <meeko>  (15) 
{"free_energy": -5.54, "intermolecular_energy": -8.22, "internal_energy": -1.19, "cluster_size": 4, "cluster_id": 6, "rank_in_cluster": 2}

$$$$

     RDKit          3D

 37 38  0  0  0  0  0  0  0  0999 V2000
  140.0290   75.0710  222.3060 O   0  0  0  0  0  0  0  0  0  0  0  0
  140.3550   73.9700  221.7860 C   0  0  0  0  0  0  0  0  0  0  0  0
  141.1750   73.9480  220.5340 C   0  0  0  0  0  0  0  0  0  0  0  0
  142.1550   75.1250  220.5180 C   0  0  0  0  0  0  0  0  0  0  0  0
  141.7390   76.2340  219.5440 C   0  0  0  0  0  0  0  0  0  0  0  0
  140.9000   77.1990  220.1830 O   0  0  0  0  0  0  0  0  0  0  0  0
  141.2860   78.1310  221.1630 C   0  0  0  0  0  0  0  0  0  0  0  0
  141.1700   77.8810  222.5470 C   0  0  0  0  0  0  0  0  0  0  0  0
  141.5710   78.8460  223.4760 C   0  0  0  0  0  0  0  0  0  0  0  0
  142.0860   80.0690  223.0410 C   0  0  0  0  0  0  0  0  0  0  0  0
  142.5880   81.2770  224.2100 Cl  0  0  0  0  0  0  0  0  0  0  0  0
  142.1980   80.3310  221.6730 C   0  0  0  0  0  0  0  0  0  0  0  0
  141.8000   79.3680  220.7380 C   0  0  0  0  0  0  0  0  0  0  0  0
  141.9580   79.7250  219.0240 Cl  0  0  0  0  0  0  0  0  0  0  0  0
  139.9830   72.7430  222.4090 N   0  0  0  0  0  0  0  0  0  0  0  0
  140.6710   72.2600  223.5310 N   0  0  0  0  0  0  0  0  0  0  0  0
  140.4000   71.1160  224.0820 C   0  0  0  0  0  0  0  0  0  0  0  0
  140.4300   70.8950  225.5440 C   0  0  0  0  0  0  0  0  0  0  0  0
  141.0650   71.8360  226.3660 C   0  0  0  0  0  0  0  0  0  0  0  0
  141.0920   71.6530  227.7490 C   0  0  0  0  0  0  0  0  0  0  0  0
  140.4630   70.5380  228.3040 C   0  0  0  0  0  0  0  0  0  0  0  0
  139.8200   69.6510  227.5000 N   0  0  0  0  0  0  0  0  0  0  0  0
  139.7830   69.8010  226.1490 C   0  0  0  0  0  0  0  0  0  0  0  0
  139.0740   68.9130  225.4080 F   0  0  0  0  0  0  0  0  0  0  0  0
  141.7398   73.0052  220.4869 H   0  0  0  0  0  0  0  0  0  0  0  0
  140.5041   74.0299  219.6661 H   0  0  0  0  0  0  0  0  0  0  0  0
  142.2099   75.5499  221.5311 H   0  0  0  0  0  0  0  0  0  0  0  0
  143.1291   74.7393  220.1828 H   0  0  0  0  0  0  0  0  0  0  0  0
  142.6417   76.7374  219.1675 H   0  0  0  0  0  0  0  0  0  0  0  0
  141.1750   75.7767  218.7177 H   0  0  0  0  0  0  0  0  0  0  0  0
  140.7617   76.9214  222.8970 H   0  0  0  0  0  0  0  0  0  0  0  0
  141.4805   78.6412  224.5530 H   0  0  0  0  0  0  0  0  0  0  0  0
  142.5997   81.2959  221.3300 H   0  0  0  0  0  0  0  0  0  0  0  0
  140.1353   70.2705  223.4300 H   0  0  0  0  0  0  0  0  0  0  0  0
  141.5431   72.7206  225.9199 H   0  0  0  0  0  0  0  0  0  0  0  0
  141.6042   72.3807  228.3955 H   0  0  0  0  0  0  0  0  0  0  0  0
  140.4876   70.3771  229.3919 H   0  0  0  0  0  0  0  0  0  0  0  0
  1  2  2  0
  2  3  1  0
  3  4  1  0
  4  5  1  0
  5  6  1  0
  6  7  1  0
  7  8  2  0
  8  9  1  0
  9 10  2  0
 10 11  1  0
 10 12  1  0
 12 13  2  0
 13 14  1  0
  2 15  1  0
 15 16  1  0
 16 17  2  0
 17 18  1  0
 18 19  2  0
 19 20  1  0
 20 21  2  0
 21 22  1  0
 22 23  2  0
 23 24  1  0
 13  7  1  0
 23 18  1  0
  3 25  1  0
  3 26  1  0
  4 27  1  0
  4 28  1  0
  5 29  1  0
  5 30  1  0
  8 31  1  0
  9 32  1  0
 12 33  1  0
 17 34  1  0
 19 35  1  0
 20 36  1  0
 21 37  1  0
M  CHG  1  15  -1
M  END
>  <meeko>  (16) 
{"free_energy": -6.52, "intermolecular_energy": -9.21, "internal_energy": -0.64, "cluster_size": 8, "cluster_id": 2, "rank_in_cluster": 1}

$$$$

     RDKit          3D

 37 38  0  0  0  0  0  0  0  0999 V2000
  140.7380   75.6570  222.0550 O   0  0  0  0  0  0  0  0  0  0  0  0
  140.1900   74.6130  221.6100 C   0  0  0  0  0  0  0  0  0  0  0  0
  139.9700   74.4520  220.1390 C   0  0  0  0  0  0  0  0  0  0  0  0
  140.5950   73.1440  219.6450 C   0  0  0  0  0  0  0  0  0  0  0  0
  140.9380   73.1730  218.1510 C   0  0  0  0  0  0  0  0  0  0  0  0
  142.3160   73.4900  217.9400 O   0  0  0  0  0  0  0  0  0  0  0  0
  143.3500   73.4230  218.8930 C   0  0  0  0  0  0  0  0  0  0  0  0
  143.9890   72.2160  219.2460 C   0  0  0  0  0  0  0  0  0  0  0  0
  145.0120   72.2100  220.1990 C   0  0  0  0  0  0  0  0  0  0  0  0
  145.4060   73.4010  220.8140 C   0  0  0  0  0  0  0  0  0  0  0  0
  146.6900   73.3890  222.0100 Cl  0  0  0  0  0  0  0  0  0  0  0  0
  144.7750   74.6010  220.4770 C   0  0  0  0  0  0  0  0  0  0  0  0
  143.7510   74.6130  219.5230 C   0  0  0  0  0  0  0  0  0  0  0  0
  142.9790   76.1390  219.1170 Cl  0  0  0  0  0  0  0  0  0  0  0  0
  139.8170   73.5630  222.4990 N   0  0  0  0  0  0  0  0  0  0  0  0
  140.7230   72.5530  222.8510 N   0  0  0  0  0  0  0  0  0  0  0  0
  140.3450   71.4010  223.3170 C   0  0  0  0  0  0  0  0  0  0  0  0
  140.3330   71.0750  224.7590 C   0  0  0  0  0  0  0  0  0  0  0  0
  141.0610   71.8770  225.6480 C   0  0  0  0  0  0  0  0  0  0  0  0
  141.0520   71.5960  227.0150 C   0  0  0  0  0  0  0  0  0  0  0  0
  140.2940   70.5230  227.4860 C   0  0  0  0  0  0  0  0  0  0  0  0
  139.5640   69.7730  226.6190 N   0  0  0  0  0  0  0  0  0  0  0  0
  139.5610   70.0220  225.2820 C   0  0  0  0  0  0  0  0  0  0  0  0
  138.7640   69.2740  224.4770 F   0  0  0  0  0  0  0  0  0  0  0  0
  138.8894   74.4374  219.9337 H   0  0  0  0  0  0  0  0  0  0  0  0
  140.4436   75.2943  219.6134 H   0  0  0  0  0  0  0  0  0  0  0  0
  141.5185   72.9597  220.2135 H   0  0  0  0  0  0  0  0  0  0  0  0
  139.8537   72.3458  219.7978 H   0  0  0  0  0  0  0  0  0  0  0  0
  140.7270   72.1851  217.7158 H   0  0  0  0  0  0  0  0  0  0  0  0
  140.3256   73.9496  217.6694 H   0  0  0  0  0  0  0  0  0  0  0  0
  143.6807   71.2741  218.7688 H   0  0  0  0  0  0  0  0  0  0  0  0
  145.5080   71.2650  220.4653 H   0  0  0  0  0  0  0  0  0  0  0  0
  145.0836   75.5385  220.9626 H   0  0  0  0  0  0  0  0  0  0  0  0
  140.0178   70.6301  222.6038 H   0  0  0  0  0  0  0  0  0  0  0  0
  141.6412   72.7305  225.2673 H   0  0  0  0  0  0  0  0  0  0  0  0
  141.6359   72.2134  227.7135 H   0  0  0  0  0  0  0  0  0  0  0  0
  140.2874   70.2841  228.5597 H   0  0  0  0  0  0  0  0  0  0  0  0
  1  2  2  0
  2  3  1  0
  3  4  1  0
  4  5  1  0
  5  6  1  0
  6  7  1  0
  7  8  2  0
  8  9  1  0
  9 10  2  0
 10 11  1  0
 10 12  1  0
 12 13  2  0
 13 14  1  0
  2 15  1  0
 15 16  1  0
 16 17  2  0
 17 18  1  0
 18 19  2  0
 19 20  1  0
 20 21  2  0
 21 22  1  0
 22 23  2  0
 23 24  1  0
 13  7  1  0
 23 18  1  0
  3 25  1  0
  3 26  1  0
  4 27  1  0
  4 28  1  0
  5 29  1  0
  5 30  1  0
  8 31  1  0
  9 32  1  0
 12 33  1  0
 17 34  1  0
 19 35  1  0
 20 36  1  0
 21 37  1  0
M  CHG  1  15  -1
M  END
>  <meeko>  (17) 
{"free_energy": -5.41, "intermolecular_energy": -8.09, "internal_energy": -1.07, "cluster_size": 4, "cluster_id": 6, "rank_in_cluster": 4}

$$$$

     RDKit          3D

 37 38  0  0  0  0  0  0  0  0999 V2000
  145.6220   74.0250  221.0630 O   0  0  0  0  0  0  0  0  0  0  0  0
  145.2500   73.5070  219.9750 C   0  0  0  0  0  0  0  0  0  0  0  0
  143.9560   73.9270  219.3520 C   0  0  0  0  0  0  0  0  0  0  0  0
  143.3560   75.1120  220.1130 C   0  0  0  0  0  0  0  0  0  0  0  0
  141.9320   74.8410  220.6130 C   0  0  0  0  0  0  0  0  0  0  0  0
  141.1380   76.0300  220.5900 O   0  0  0  0  0  0  0  0  0  0  0  0
  141.3540   77.2000  221.3410 C   0  0  0  0  0  0  0  0  0  0  0  0
  141.0800   77.2850  222.7220 C   0  0  0  0  0  0  0  0  0  0  0  0
  141.3160   78.4750  223.4180 C   0  0  0  0  0  0  0  0  0  0  0  0
  141.8200   79.5920  222.7480 C   0  0  0  0  0  0  0  0  0  0  0  0
  142.1150   81.0830  223.6240 Cl  0  0  0  0  0  0  0  0  0  0  0  0
  142.0890   79.5210  221.3790 C   0  0  0  0  0  0  0  0  0  0  0  0
  141.8560   78.3320  220.6770 C   0  0  0  0  0  0  0  0  0  0  0  0
  142.2070   78.2720  218.9560 Cl  0  0  0  0  0  0  0  0  0  0  0  0
  146.0780   72.5550  219.3120 N   0  0  0  0  0  0  0  0  0  0  0  0
  145.8890   72.2440  217.9590 N   0  0  0  0  0  0  0  0  0  0  0  0
  145.2640   71.1770  217.5640 C   0  0  0  0  0  0  0  0  0  0  0  0
  145.3990   69.8660  218.2340 C   0  0  0  0  0  0  0  0  0  0  0  0
  146.1740   68.8660  217.6330 C   0  0  0  0  0  0  0  0  0  0  0  0
  146.3270   67.6260  218.2560 C   0  0  0  0  0  0  0  0  0  0  0  0
  145.7180   67.4040  219.4920 C   0  0  0  0  0  0  0  0  0  0  0  0
  144.9970   68.3930  220.0830 N   0  0  0  0  0  0  0  0  0  0  0  0
  144.8280   69.6070  219.4940 C   0  0  0  0  0  0  0  0  0  0  0  0
  144.1480   70.5720  220.1630 F   0  0  0  0  0  0  0  0  0  0  0  0
  144.1354   74.2208  218.3073 H   0  0  0  0  0  0  0  0  0  0  0  0
  143.2508   73.0837  219.3922 H   0  0  0  0  0  0  0  0  0  0  0  0
  143.9962   75.3329  220.9798 H   0  0  0  0  0  0  0  0  0  0  0  0
  143.3048   75.9606  219.4150 H   0  0  0  0  0  0  0  0  0  0  0  0
  141.4632   74.0845  219.9665 H   0  0  0  0  0  0  0  0  0  0  0  0
  141.9910   74.4830  221.6515 H   0  0  0  0  0  0  0  0  0  0  0  0
  140.6784   76.4104  223.2547 H   0  0  0  0  0  0  0  0  0  0  0  0
  141.1041   78.5313  224.4959 H   0  0  0  0  0  0  0  0  0  0  0  0
  142.4848   80.4012  220.8512 H   0  0  0  0  0  0  0  0  0  0  0  0
  144.6021   71.2519  216.6886 H   0  0  0  0  0  0  0  0  0  0  0  0
  146.6637   69.0583  216.6670 H   0  0  0  0  0  0  0  0  0  0  0  0
  146.9208   66.8329  217.7781 H   0  0  0  0  0  0  0  0  0  0  0  0
  145.8216   66.4278  219.9883 H   0  0  0  0  0  0  0  0  0  0  0  0
  1  2  2  0
  2  3  1  0
  3  4  1  0
  4  5  1  0
  5  6  1  0
  6  7  1  0
  7  8  2  0
  8  9  1  0
  9 10  2  0
 10 11  1  0
 10 12  1  0
 12 13  2  0
 13 14  1  0
  2 15  1  0
 15 16  1  0
 16 17  2  0
 17 18  1  0
 18 19  2  0
 19 20  1  0
 20 21  2  0
 21 22  1  0
 22 23  2  0
 23 24  1  0
 13  7  1  0
 23 18  1  0
  3 25  1  0
  3 26  1  0
  4 27  1  0
  4 28  1  0
  5 29  1  0
  5 30  1  0
  8 31  1  0
  9 32  1  0
 12 33  1  0
 17 34  1  0
 19 35  1  0
 20 36  1  0
 21 37  1  0
M  CHG  1  15  -1
M  END
>  <meeko>  (18) 
{"free_energy": -6.57, "intermolecular_energy": -9.25, "internal_energy": -0.57, "cluster_size": 2, "cluster_id": 1, "rank_in_cluster": 1}

$$$$

     RDKit          3D

 37 38  0  0  0  0  0  0  0  0999 V2000
  140.5280   71.1230  221.1060 O   0  0  0  0  0  0  0  0  0  0  0  0
  140.9960   72.1690  221.6310 C   0  0  0  0  0  0  0  0  0  0  0  0
  142.0500   72.9570  220.9180 C   0  0  0  0  0  0  0  0  0  0  0  0
  141.8340   74.4570  221.1370 C   0  0  0  0  0  0  0  0  0  0  0  0
  140.4380   74.9270  220.7090 C   0  0  0  0  0  0  0  0  0  0  0  0
  140.4120   76.3390  220.4820 O   0  0  0  0  0  0  0  0  0  0  0  0
  140.9550   77.3350  221.3140 C   0  0  0  0  0  0  0  0  0  0  0  0
  140.8900   77.2770  222.7220 C   0  0  0  0  0  0  0  0  0  0  0  0
  141.4500   78.2960  223.4980 C   0  0  0  0  0  0  0  0  0  0  0  0
  142.0740   79.3840  222.8840 C   0  0  0  0  0  0  0  0  0  0  0  0
  142.7740   80.6620  223.8620 Cl  0  0  0  0  0  0  0  0  0  0  0  0
  142.1380   79.4560  221.4900 C   0  0  0  0  0  0  0  0  0  0  0  0
  141.5800   78.4370  220.7080 C   0  0  0  0  0  0  0  0  0  0  0  0
  141.6810   78.5530  218.9570 Cl  0  0  0  0  0  0  0  0  0  0  0  0
  140.4940   72.6310  222.8830 N   0  0  0  0  0  0  0  0  0  0  0  0
  139.8740   71.7550  223.7850 N   0  0  0  0  0  0  0  0  0  0  0  0
  140.4600   71.3260  224.8620 C   0  0  0  0  0  0  0  0  0  0  0  0
  140.2760   69.9580  225.3920 C   0  0  0  0  0  0  0  0  0  0  0  0
  140.9910   69.5630  226.5300 C   0  0  0  0  0  0  0  0  0  0  0  0
  140.8210   68.2810  227.0550 C   0  0  0  0  0  0  0  0  0  0  0  0
  139.9180   67.4080  226.4480 C   0  0  0  0  0  0  0  0  0  0  0  0
  139.2030   67.8140  225.3650 N   0  0  0  0  0  0  0  0  0  0  0  0
  139.3540   69.0550  224.8300 C   0  0  0  0  0  0  0  0  0  0  0  0
  138.5680   69.4200  223.7860 F   0  0  0  0  0  0  0  0  0  0  0  0
  143.0395   72.6728  221.3056 H   0  0  0  0  0  0  0  0  0  0  0  0
  141.9899   72.7411  219.8411 H   0  0  0  0  0  0  0  0  0  0  0  0
  141.9665   74.6784  222.2063 H   0  0  0  0  0  0  0  0  0  0  0  0
  142.5675   74.9908  220.5149 H   0  0  0  0  0  0  0  0  0  0  0  0
  140.1547   74.4095  219.7806 H   0  0  0  0  0  0  0  0  0  0  0  0
  139.7296   74.6921  221.5171 H   0  0  0  0  0  0  0  0  0  0  0  0
  140.3959   76.4251  223.2120 H   0  0  0  0  0  0  0  0  0  0  0  0
  141.3990   78.2407  224.5954 H   0  0  0  0  0  0  0  0  0  0  0  0
  142.6273   80.3142  221.0062 H   0  0  0  0  0  0  0  0  0  0  0  0
  141.1249   72.0133  225.4057 H   0  0  0  0  0  0  0  0  0  0  0  0
  141.6881   70.2649  227.0110 H   0  0  0  0  0  0  0  0  0  0  0  0
  141.3934   67.9622  227.9386 H   0  0  0  0  0  0  0  0  0  0  0  0
  139.7843   66.3911  226.8455 H   0  0  0  0  0  0  0  0  0  0  0  0
  1  2  2  0
  2  3  1  0
  3  4  1  0
  4  5  1  0
  5  6  1  0
  6  7  1  0
  7  8  2  0
  8  9  1  0
  9 10  2  0
 10 11  1  0
 10 12  1  0
 12 13  2  0
 13 14  1  0
  2 15  1  0
 15 16  1  0
 16 17  2  0
 17 18  1  0
 18 19  2  0
 19 20  1  0
 20 21  2  0
 21 22  1  0
 22 23  2  0
 23 24  1  0
 13  7  1  0
 23 18  1  0
  3 25  1  0
  3 26  1  0
  4 27  1  0
  4 28  1  0
  5 29  1  0
  5 30  1  0
  8 31  1  0
  9 32  1  0
 12 33  1  0
 17 34  1  0
 19 35  1  0
 20 36  1  0
 21 37  1  0
M  CHG  1  15  -1
M  END
>  <meeko>  (19) 
{"free_energy": -5.91, "intermolecular_energy": -8.59, "internal_energy": -0.54, "cluster_size": 8, "cluster_id": 2, "rank_in_cluster": 8}

$$$$

     RDKit          3D

 37 38  0  0  0  0  0  0  0  0999 V2000
  140.4120   75.2650  222.0170 O   0  0  0  0  0  0  0  0  0  0  0  0
  139.9600   74.0910  221.9450 C   0  0  0  0  0  0  0  0  0  0  0  0
  138.6970   73.8200  221.1900 C   0  0  0  0  0  0  0  0  0  0  0  0
  139.0140   73.4190  219.7460 C   0  0  0  0  0  0  0  0  0  0  0  0
  140.0020   74.3740  219.0660 C   0  0  0  0  0  0  0  0  0  0  0  0
  141.1950   73.6930  218.6690 O   0  0  0  0  0  0  0  0  0  0  0  0
  142.4160   73.6590  219.3660 C   0  0  0  0  0  0  0  0  0  0  0  0
  143.2730   74.7750  219.4650 C   0  0  0  0  0  0  0  0  0  0  0  0
  144.4750   74.6830  220.1730 C   0  0  0  0  0  0  0  0  0  0  0  0
  144.8400   73.4820  220.7850 C   0  0  0  0  0  0  0  0  0  0  0  0
  146.3490   73.3700  221.6720 Cl  0  0  0  0  0  0  0  0  0  0  0  0
  144.0020   72.3680  220.6870 C   0  0  0  0  0  0  0  0  0  0  0  0
  142.7970   72.4540  219.9810 C   0  0  0  0  0  0  0  0  0  0  0  0
  141.7620   71.0370  219.8800 Cl  0  0  0  0  0  0  0  0  0  0  0  0
  140.6720   73.0100  222.5440 N   0  0  0  0  0  0  0  0  0  0  0  0
  140.0550   72.1590  223.4720 N   0  0  0  0  0  0  0  0  0  0  0  0
  140.6980   71.2230  224.1020 C   0  0  0  0  0  0  0  0  0  0  0  0
  140.6000   71.0170  225.5630 C   0  0  0  0  0  0  0  0  0  0  0  0
  141.1820   71.9540  226.4270 C   0  0  0  0  0  0  0  0  0  0  0  0
  141.0890   71.7860  227.8090 C   0  0  0  0  0  0  0  0  0  0  0  0
  140.3920   70.6900  228.3180 C   0  0  0  0  0  0  0  0  0  0  0  0
  139.8020   69.8060  227.4720 N   0  0  0  0  0  0  0  0  0  0  0  0
  139.8830   69.9420  226.1210 C   0  0  0  0  0  0  0  0  0  0  0  0
  139.2210   69.0600  225.3300 F   0  0  0  0  0  0  0  0  0  0  0  0
  138.1493   73.0023  221.6814 H   0  0  0  0  0  0  0  0  0  0  0  0
  138.0839   74.7333  221.1804 H   0  0  0  0  0  0  0  0  0  0  0  0
  139.4483   72.4084  219.7494 H   0  0  0  0  0  0  0  0  0  0  0  0
  138.0728   73.4575  219.1780 H   0  0  0  0  0  0  0  0  0  0  0  0
  139.5246   74.8087  218.1754 H   0  0  0  0  0  0  0  0  0  0  0  0
  140.2747   75.1605  219.7851 H   0  0  0  0  0  0  0  0  0  0  0  0
  142.9939   75.7232  218.9823 H   0  0  0  0  0  0  0  0  0  0  0  0
  145.1354   75.5595  220.2482 H   0  0  0  0  0  0  0  0  0  0  0  0
  144.2905   71.4208  221.1662 H   0  0  0  0  0  0  0  0  0  0  0  0
  141.3467   70.5511  223.5209 H   0  0  0  0  0  0  0  0  0  0  0  0
  141.7136   72.8243  226.0147 H   0  0  0  0  0  0  0  0  0  0  0  0
  141.5603   72.5101  228.4899 H   0  0  0  0  0  0  0  0  0  0  0  0
  140.3201   70.5415  229.4055 H   0  0  0  0  0  0  0  0  0  0  0  0
  1  2  2  0
  2  3  1  0
  3  4  1  0
  4  5  1  0
  5  6  1  0
  6  7  1  0
  7  8  2  0
  8  9  1  0
  9 10  2  0
 10 11  1  0
 10 12  1  0
 12 13  2  0
 13 14  1  0
  2 15  1  0
 15 16  1  0
 16 17  2  0
 17 18  1  0
 18 19  2  0
 19 20  1  0
 20 21  2  0
 21 22  1  0
 22 23  2  0
 23 24  1  0
 13  7  1  0
 23 18  1  0
  3 25  1  0
  3 26  1  0
  4 27  1  0
  4 28  1  0
  5 29  1  0
  5 30  1  0
  8 31  1  0
  9 32  1  0
 12 33  1  0
 17 34  1  0
 19 35  1  0
 20 36  1  0
 21 37  1  0
M  CHG  1  15  -1
M  END
>  <meeko>  (20) 
{"free_energy": -5.48, "intermolecular_energy": -8.16, "internal_energy": -1.24, "cluster_size": 4, "cluster_id": 6, "rank_in_cluster": 3}

$$$$
