
     RDKit          3D

 43 46  0  0  0  0  0  0  0  0999 V2000
  137.8100   73.5930  222.3340 O   0  0  0  0  0  0  0  0  0  0  0  0
  139.0090   73.7710  221.9830 C   0  0  0  0  0  0  0  0  0  0  0  0
  139.4870   75.0820  221.8100 C   0  0  0  0  0  0  0  0  0  0  0  0
  138.6710   76.2150  221.9980 C   0  0  0  0  0  0  0  0  0  0  0  0
  139.1980   77.4970  221.8110 C   0  0  0  0  0  0  0  0  0  0  0  0
  140.5360   77.6620  221.4420 C   0  0  0  0  0  0  0  0  0  0  0  0
  141.3540   76.5450  221.2580 C   0  0  0  0  0  0  0  0  0  0  0  0
  140.8310   75.2560  221.4380 C   0  0  0  0  0  0  0  0  0  0  0  0
  141.6200   74.1760  221.2480 N   0  0  0  0  0  0  0  0  0  0  0  0
  141.1490   72.9110  221.3980 C   0  0  0  0  0  0  0  0  0  0  0  0
  142.0820   71.7990  221.1520 C   0  0  0  0  0  0  0  0  0  0  0  0
  142.8750   71.8060  220.0760 C   0  0  0  0  0  0  0  0  0  0  0  0
  144.2160   72.4250  220.0750 C   0  0  0  0  0  0  0  0  0  0  0  0
  144.6510   73.1370  221.2020 C   0  0  0  0  0  0  0  0  0  0  0  0
  145.8980   73.7700  221.1920 C   0  0  0  0  0  0  0  0  0  0  0  0
  146.6920   73.7010  220.0470 C   0  0  0  0  0  0  0  0  0  0  0  0
  146.2540   73.0180  218.9550 N   0  0  0  0  0  0  0  0  0  0  0  0
  145.0530   72.3770  218.9440 C   0  0  0  0  0  0  0  0  0  0  0  0
  139.8420   72.6940  221.7750 N   0  0  0  0  0  0  0  0  0  0  0  0
  139.3510   71.3130  222.0000 C   0  0  0  0  0  0  0  0  0  0  0  0
  139.5650   70.8860  223.4320 C   0  0  0  0  0  0  0  0  0  0  0  0
  140.4480   71.5950  224.2630 C   0  0  0  0  0  0  0  0  0  0  0  0
  140.7040   71.1470  225.5630 C   0  0  0  0  0  0  0  0  0  0  0  0
  140.0740   69.9960  226.0440 C   0  0  0  0  0  0  0  0  0  0  0  0
  140.4190   69.4190  227.6630 Cl  0  0  0  0  0  0  0  0  0  0  0  0
  139.1770   69.2970  225.2290 C   0  0  0  0  0  0  0  0  0  0  0  0
  138.9120   69.7430  223.9340 C   0  0  0  0  0  0  0  0  0  0  0  0
  137.6183   76.0912  222.2922 H   0  0  0  0  0  0  0  0  0  0  0  0
  138.5568   78.3791  221.9549 H   0  0  0  0  0  0  0  0  0  0  0  0
  140.9452   78.6726  221.2964 H   0  0  0  0  0  0  0  0  0  0  0  0
  142.4081   76.6761  220.9720 H   0  0  0  0  0  0  0  0  0  0  0  0
  142.1268   70.9569  221.8583 H   0  0  0  0  0  0  0  0  0  0  0  0
  142.5136   71.3306  219.1522 H   0  0  0  0  0  0  0  0  0  0  0  0
  144.0110   73.1977  222.0946 H   0  0  0  0  0  0  0  0  0  0  0  0
  146.2496   74.3174  222.0790 H   0  0  0  0  0  0  0  0  0  0  0  0
  147.6726   74.1990  220.0271 H   0  0  0  0  0  0  0  0  0  0  0  0
  144.7360   71.8205  218.0497 H   0  0  0  0  0  0  0  0  0  0  0  0
  138.2761   71.2720  221.7698 H   0  0  0  0  0  0  0  0  0  0  0  0
  139.9133   70.6315  221.3447 H   0  0  0  0  0  0  0  0  0  0  0  0
  140.9398   72.5056  223.8902 H   0  0  0  0  0  0  0  0  0  0  0  0
  141.4020   71.7013  226.2076 H   0  0  0  0  0  0  0  0  0  0  0  0
  138.6793   68.3932  225.6104 H   0  0  0  0  0  0  0  0  0  0  0  0
  138.1917   69.2011  223.3035 H   0  0  0  0  0  0  0  0  0  0  0  0
  1  2  2  0
  2  3  1  0
  3  4  2  0
  4  5  1  0
  5  6  2  0
  6  7  1  0
  7  8  2  0
  8  9  1  0
  9 10  2  0
 10 11  1  0
 11 12  2  0
 12 13  1  0
 13 14  2  0
 14 15  1  0
 15 16  2  0
 16 17  1  0
 17 18  2  0
 10 19  1  0
 19 20  1  0
 20 21  1  0
 21 22  2  0
 22 23  1  0
 23 24  2  0
 24 25  1  0
 24 26  1  0
 26 27  2  0
 19  2  1  0
 27 21  1  0
  8  3  1  0
 18 13  1  0
  4 28  1  0
  5 29  1  0
  6 30  1  0
  7 31  1  0
 11 32  1  0
 12 33  1  0
 14 34  1  0
 15 35  1  0
 16 36  1  0
 18 37  1  0
 20 38  1  0
 20 39  1  0
 22 40  1  0
 23 41  1  0
 26 42  1  0
 27 43  1  0
M  END
>  <meeko>  (1) 
{"free_energy": -7.61, "intermolecular_energy": -9.1, "internal_energy": -1.25, "cluster_size": 5, "cluster_id": 1, "rank_in_cluster": 1}

$$$$

     RDKit          3D

 43 46  0  0  0  0  0  0  0  0999 V2000
  138.1420   73.8440  222.3340 O   0  0  0  0  0  0  0  0  0  0  0  0
  139.3160   73.8820  221.8720 C   0  0  0  0  0  0  0  0  0  0  0  0
  139.8890   75.1250  221.5510 C   0  0  0  0  0  0  0  0  0  0  0  0
  139.1940   76.3400  221.7100 C   0  0  0  0  0  0  0  0  0  0  0  0
  139.8110   77.5500  221.3730 C   0  0  0  0  0  0  0  0  0  0  0  0
  141.1200   77.5610  220.8820 C   0  0  0  0  0  0  0  0  0  0  0  0
  141.8180   76.3610  220.7260 C   0  0  0  0  0  0  0  0  0  0  0  0
  141.2040   75.1440  221.0570 C   0  0  0  0  0  0  0  0  0  0  0  0
  141.8760   73.9830  220.8940 N   0  0  0  0  0  0  0  0  0  0  0  0
  141.3130   72.7830  221.1890 C   0  0  0  0  0  0  0  0  0  0  0  0
  142.1200   71.5730  220.9620 C   0  0  0  0  0  0  0  0  0  0  0  0
  143.0060   71.5290  219.9620 C   0  0  0  0  0  0  0  0  0  0  0  0
  144.2940   72.2500  220.0000 C   0  0  0  0  0  0  0  0  0  0  0  0
  144.6990   72.8800  221.1860 C   0  0  0  0  0  0  0  0  0  0  0  0
  145.8910   73.6100  221.2190 C   0  0  0  0  0  0  0  0  0  0  0  0
  146.6600   73.7190  220.0600 C   0  0  0  0  0  0  0  0  0  0  0  0
  146.2500   73.1140  218.9110 N   0  0  0  0  0  0  0  0  0  0  0  0
  145.1030   72.3820  218.8570 C   0  0  0  0  0  0  0  0  0  0  0  0
  140.0310   72.7190  221.6890 N   0  0  0  0  0  0  0  0  0  0  0  0
  139.4450   71.4110  222.0690 C   0  0  0  0  0  0  0  0  0  0  0  0
  139.6850   71.1110  223.5280 C   0  0  0  0  0  0  0  0  0  0  0  0
  140.6520   71.8260  224.2540 C   0  0  0  0  0  0  0  0  0  0  0  0
  140.9270   71.4880  225.5820 C   0  0  0  0  0  0  0  0  0  0  0  0
  140.2350   70.4430  226.1980 C   0  0  0  0  0  0  0  0  0  0  0  0
  140.6030   70.0010  227.8540 Cl  0  0  0  0  0  0  0  0  0  0  0  0
  139.2550   69.7390  225.4880 C   0  0  0  0  0  0  0  0  0  0  0  0
  138.9710   70.0770  224.1640 C   0  0  0  0  0  0  0  0  0  0  0  0
  138.1653   76.3376  222.0995 H   0  0  0  0  0  0  0  0  0  0  0  0
  139.2638   78.4964  221.4949 H   0  0  0  0  0  0  0  0  0  0  0  0
  141.6004   78.5148  220.6185 H   0  0  0  0  0  0  0  0  0  0  0  0
  142.8493   76.3705  220.3435 H   0  0  0  0  0  0  0  0  0  0  0  0
  141.9932   70.7000  221.6191 H   0  0  0  0  0  0  0  0  0  0  0  0
  142.7650   70.9294  219.0718 H   0  0  0  0  0  0  0  0  0  0  0  0
  144.0784   72.7997  222.0907 H   0  0  0  0  0  0  0  0  0  0  0  0
  146.2196   74.0941  222.1505 H   0  0  0  0  0  0  0  0  0  0  0  0
  147.5978   74.2938  220.0744 H   0  0  0  0  0  0  0  0  0  0  0  0
  144.8084   71.8926  217.9169 H   0  0  0  0  0  0  0  0  0  0  0  0
  138.3615   71.4346  221.8807 H   0  0  0  0  0  0  0  0  0  0  0  0
  139.9253   70.6253  221.4674 H   0  0  0  0  0  0  0  0  0  0  0  0
  141.1946   72.6547  223.7757 H   0  0  0  0  0  0  0  0  0  0  0  0
  141.6905   72.0465  226.1434 H   0  0  0  0  0  0  0  0  0  0  0  0
  138.7079   68.9180  225.9745 H   0  0  0  0  0  0  0  0  0  0  0  0
  138.1871   69.5341  223.6156 H   0  0  0  0  0  0  0  0  0  0  0  0
  1  2  2  0
  2  3  1  0
  3  4  2  0
  4  5  1  0
  5  6  2  0
  6  7  1  0
  7  8  2  0
  8  9  1  0
  9 10  2  0
 10 11  1  0
 11 12  2  0
 12 13  1  0
 13 14  2  0
 14 15  1  0
 15 16  2  0
 16 17  1  0
 17 18  2  0
 10 19  1  0
 19 20  1  0
 20 21  1  0
 21 22  2  0
 22 23  1  0
 23 24  2  0
 24 25  1  0
 24 26  1  0
 26 27  2  0
 19  2  1  0
 27 21  1  0
  8  3  1  0
 18 13  1  0
  4 28  1  0
  5 29  1  0
  6 30  1  0
  7 31  1  0
 11 32  1  0
 12 33  1  0
 14 34  1  0
 15 35  1  0
 16 36  1  0
 18 37  1  0
 20 38  1  0
 20 39  1  0
 22 40  1  0
 23 41  1  0
 26 42  1  0
 27 43  1  0
M  END
>  <meeko>  (2) 
{"free_energy": -7.49, "intermolecular_energy": -8.98, "internal_energy": -1.31, "cluster_size": 5, "cluster_id": 1, "rank_in_cluster": 3}

$$$$

     RDKit          3D

 43 46  0  0  0  0  0  0  0  0999 V2000
  139.1990   67.5460  225.5610 O   0  0  0  0  0  0  0  0  0  0  0  0
  139.4830   68.7150  225.1780 C   0  0  0  0  0  0  0  0  0  0  0  0
  140.0130   69.6310  226.1050 C   0  0  0  0  0  0  0  0  0  0  0  0
  140.2260   69.3000  227.4570 C   0  0  0  0  0  0  0  0  0  0  0  0
  140.7540   70.2510  228.3370 C   0  0  0  0  0  0  0  0  0  0  0  0
  141.0780   71.5310  227.8790 C   0  0  0  0  0  0  0  0  0  0  0  0
  140.8750   71.8670  226.5380 C   0  0  0  0  0  0  0  0  0  0  0  0
  140.3400   70.9210  225.6520 C   0  0  0  0  0  0  0  0  0  0  0  0
  140.1330   71.2500  224.3580 N   0  0  0  0  0  0  0  0  0  0  0  0
  139.6050   70.3680  223.4710 C   0  0  0  0  0  0  0  0  0  0  0  0
  139.4010   70.8270  222.0870 C   0  0  0  0  0  0  0  0  0  0  0  0
  140.3960   71.4160  221.4170 C   0  0  0  0  0  0  0  0  0  0  0  0
  140.6040   72.8780  221.4130 C   0  0  0  0  0  0  0  0  0  0  0  0
  141.7720   73.4100  220.8470 C   0  0  0  0  0  0  0  0  0  0  0  0
  142.0030   74.7880  220.8840 C   0  0  0  0  0  0  0  0  0  0  0  0
  141.0710   75.6230  221.5030 C   0  0  0  0  0  0  0  0  0  0  0  0
  139.9480   75.0940  222.0600 N   0  0  0  0  0  0  0  0  0  0  0  0
  139.6890   73.7580  222.0210 C   0  0  0  0  0  0  0  0  0  0  0  0
  139.2820   69.0890  223.8680 N   0  0  0  0  0  0  0  0  0  0  0  0
  138.7650   68.1110  222.8810 C   0  0  0  0  0  0  0  0  0  0  0  0
  137.2570   68.1410  222.8250 C   0  0  0  0  0  0  0  0  0  0  0  0
  136.5290   69.0150  223.6490 C   0  0  0  0  0  0  0  0  0  0  0  0
  135.1320   68.9810  223.6520 C   0  0  0  0  0  0  0  0  0  0  0  0
  134.4510   68.0820  222.8260 C   0  0  0  0  0  0  0  0  0  0  0  0
  132.6990   68.0200  222.8520 Cl  0  0  0  0  0  0  0  0  0  0  0  0
  135.1690   67.2230  221.9860 C   0  0  0  0  0  0  0  0  0  0  0  0
  136.5630   67.2580  221.9740 C   0  0  0  0  0  0  0  0  0  0  0  0
  139.9770   68.2926  227.8217 H   0  0  0  0  0  0  0  0  0  0  0  0
  140.9147   69.9902  229.3935 H   0  0  0  0  0  0  0  0  0  0  0  0
  141.4933   72.2748  228.5750 H   0  0  0  0  0  0  0  0  0  0  0  0
  141.1348   72.8733  226.1775 H   0  0  0  0  0  0  0  0  0  0  0  0
  138.4242   70.6843  221.6018 H   0  0  0  0  0  0  0  0  0  0  0  0
  141.0903   70.7843  220.8435 H   0  0  0  0  0  0  0  0  0  0  0  0
  142.5068   72.7421  220.3736 H   0  0  0  0  0  0  0  0  0  0  0  0
  142.9111   75.2108  220.4294 H   0  0  0  0  0  0  0  0  0  0  0  0
  141.2446   76.7086  221.5404 H   0  0  0  0  0  0  0  0  0  0  0  0
  138.7626   73.3654  222.4656 H   0  0  0  0  0  0  0  0  0  0  0  0
  139.1664   68.3574  221.8869 H   0  0  0  0  0  0  0  0  0  0  0  0
  139.0833   67.1037  223.1876 H   0  0  0  0  0  0  0  0  0  0  0  0
  137.0608   69.7293  224.2947 H   0  0  0  0  0  0  0  0  0  0  0  0
  134.5674   69.6626  224.3052 H   0  0  0  0  0  0  0  0  0  0  0  0
  134.6323   66.5185  221.3336 H   0  0  0  0  0  0  0  0  0  0  0  0
  137.1225   66.5944  221.2983 H   0  0  0  0  0  0  0  0  0  0  0  0
  1  2  2  0
  2  3  1  0
  3  4  2  0
  4  5  1  0
  5  6  2  0
  6  7  1  0
  7  8  2  0
  8  9  1  0
  9 10  2  0
 10 11  1  0
 11 12  2  0
 12 13  1  0
 13 14  2  0
 14 15  1  0
 15 16  2  0
 16 17  1  0
 17 18  2  0
 10 19  1  0
 19 20  1  0
 20 21  1  0
 21 22  2  0
 22 23  1  0
 23 24  2  0
 24 25  1  0
 24 26  1  0
 26 27  2  0
 19  2  1  0
 27 21  1  0
  8  3  1  0
 18 13  1  0
  4 28  1  0
  5 29  1  0
  6 30  1  0
  7 31  1  0
 11 32  1  0
 12 33  1  0
 14 34  1  0
 15 35  1  0
 16 36  1  0
 18 37  1  0
 20 38  1  0
 20 39  1  0
 22 40  1  0
 23 41  1  0
 26 42  1  0
 27 43  1  0
M  END
>  <meeko>  (3) 
{"free_energy": -7.42, "intermolecular_energy": -8.91, "internal_energy": -1.2, "cluster_size": 1, "cluster_id": 4, "rank_in_cluster": 1}

$$$$

     RDKit          3D

 43 46  0  0  0  0  0  0  0  0999 V2000
  138.0390   75.3430  221.5310 O   0  0  0  0  0  0  0  0  0  0  0  0
  139.1950   74.8530  221.3950 C   0  0  0  0  0  0  0  0  0  0  0  0
  139.4290   73.5240  221.7880 C   0  0  0  0  0  0  0  0  0  0  0  0
  138.4220   72.7130  222.3470 C   0  0  0  0  0  0  0  0  0  0  0  0
  138.7090   71.3960  222.7220 C   0  0  0  0  0  0  0  0  0  0  0  0
  139.9940   70.8760  222.5410 C   0  0  0  0  0  0  0  0  0  0  0  0
  140.9970   71.6710  221.9820 C   0  0  0  0  0  0  0  0  0  0  0  0
  140.7180   72.9940  221.6090 C   0  0  0  0  0  0  0  0  0  0  0  0
  141.6930   73.7660  221.0800 N   0  0  0  0  0  0  0  0  0  0  0  0
  141.4670   75.0550  220.7180 C   0  0  0  0  0  0  0  0  0  0  0  0
  142.5980   75.8200  220.1670 C   0  0  0  0  0  0  0  0  0  0  0  0
  143.3970   75.2750  219.2450 C   0  0  0  0  0  0  0  0  0  0  0  0
  144.3810   74.2200  219.5600 C   0  0  0  0  0  0  0  0  0  0  0  0
  144.9850   74.1930  220.8260 C   0  0  0  0  0  0  0  0  0  0  0  0
  145.9550   73.2300  221.1180 C   0  0  0  0  0  0  0  0  0  0  0  0
  146.3280   72.3120  220.1360 C   0  0  0  0  0  0  0  0  0  0  0  0
  145.7440   72.3560  218.9070 N   0  0  0  0  0  0  0  0  0  0  0  0
  144.7830   73.2710  218.6020 C   0  0  0  0  0  0  0  0  0  0  0  0
  140.2150   75.6110  220.8630 N   0  0  0  0  0  0  0  0  0  0  0  0
  139.9590   76.9980  220.4080 C   0  0  0  0  0  0  0  0  0  0  0  0
  140.6430   78.0000  221.3060 C   0  0  0  0  0  0  0  0  0  0  0  0
  141.2150   79.1660  220.7680 C   0  0  0  0  0  0  0  0  0  0  0  0
  141.9180   80.0490  221.5920 C   0  0  0  0  0  0  0  0  0  0  0  0
  142.0470   79.7820  222.9580 C   0  0  0  0  0  0  0  0  0  0  0  0
  142.9550   80.8760  223.9840 Cl  0  0  0  0  0  0  0  0  0  0  0  0
  141.4620   78.6340  223.5040 C   0  0  0  0  0  0  0  0  0  0  0  0
  140.7530   77.7520  222.6870 C   0  0  0  0  0  0  0  0  0  0  0  0
  137.4083   73.1158  222.4889 H   0  0  0  0  0  0  0  0  0  0  0  0
  137.9204   70.7672  223.1610 H   0  0  0  0  0  0  0  0  0  0  0  0
  140.2152   69.8405  222.8389 H   0  0  0  0  0  0  0  0  0  0  0  0
  142.0063   71.2594  221.8342 H   0  0  0  0  0  0  0  0  0  0  0  0
  142.7863   76.8459  220.5163 H   0  0  0  0  0  0  0  0  0  0  0  0
  143.3183   75.6276  218.2060 H   0  0  0  0  0  0  0  0  0  0  0  0
  144.6950   74.9301  221.5892 H   0  0  0  0  0  0  0  0  0  0  0  0
  146.4205   73.1962  222.1141 H   0  0  0  0  0  0  0  0  0  0  0  0
  147.0936   71.5530  220.3546 H   0  0  0  0  0  0  0  0  0  0  0  0
  144.3198   73.2684  217.6043 H   0  0  0  0  0  0  0  0  0  0  0  0
  140.3399   77.1157  219.3828 H   0  0  0  0  0  0  0  0  0  0  0  0
  138.8750   77.1820  220.4415 H   0  0  0  0  0  0  0  0  0  0  0  0
  141.1089   79.3840  219.6951 H   0  0  0  0  0  0  0  0  0  0  0  0
  142.3707   80.9559  221.1648 H   0  0  0  0  0  0  0  0  0  0  0  0
  141.5612   78.4262  224.5796 H   0  0  0  0  0  0  0  0  0  0  0  0
  140.2789   76.8606  223.1237 H   0  0  0  0  0  0  0  0  0  0  0  0
  1  2  2  0
  2  3  1  0
  3  4  2  0
  4  5  1  0
  5  6  2  0
  6  7  1  0
  7  8  2  0
  8  9  1  0
  9 10  2  0
 10 11  1  0
 11 12  2  0
 12 13  1  0
 13 14  2  0
 14 15  1  0
 15 16  2  0
 16 17  1  0
 17 18  2  0
 10 19  1  0
 19 20  1  0
 20 21  1  0
 21 22  2  0
 22 23  1  0
 23 24  2  0
 24 25  1  0
 24 26  1  0
 26 27  2  0
 19  2  1  0
 27 21  1  0
  8  3  1  0
 18 13  1  0
  4 28  1  0
  5 29  1  0
  6 30  1  0
  7 31  1  0
 11 32  1  0
 12 33  1  0
 14 34  1  0
 15 35  1  0
 16 36  1  0
 18 37  1  0
 20 38  1  0
 20 39  1  0
 22 40  1  0
 23 41  1  0
 26 42  1  0
 27 43  1  0
M  END
>  <meeko>  (4) 
{"free_energy": -7.45, "intermolecular_energy": -8.94, "internal_energy": -1.32, "cluster_size": 2, "cluster_id": 3, "rank_in_cluster": 1}

$$$$

     RDKit          3D

 43 46  0  0  0  0  0  0  0  0999 V2000
  140.3260   71.9750  224.9590 O   0  0  0  0  0  0  0  0  0  0  0  0
  139.7340   70.8620  225.0310 C   0  0  0  0  0  0  0  0  0  0  0  0
  140.0570   69.9780  226.0760 C   0  0  0  0  0  0  0  0  0  0  0  0
  141.0340   70.2790  227.0450 C   0  0  0  0  0  0  0  0  0  0  0  0
  141.3180   69.3620  228.0630 C   0  0  0  0  0  0  0  0  0  0  0  0
  140.6310   68.1470  228.1280 C   0  0  0  0  0  0  0  0  0  0  0  0
  139.6570   67.8420  227.1740 C   0  0  0  0  0  0  0  0  0  0  0  0
  139.3720   68.7540  226.1470 C   0  0  0  0  0  0  0  0  0  0  0  0
  138.4370   68.4530  225.2180 N   0  0  0  0  0  0  0  0  0  0  0  0
  138.1420   69.3020  224.2000 C   0  0  0  0  0  0  0  0  0  0  0  0
  137.1210   68.8760  223.2280 C   0  0  0  0  0  0  0  0  0  0  0  0
  135.9200   69.4640  223.2080 C   0  0  0  0  0  0  0  0  0  0  0  0
  135.1640   69.7840  224.4350 C   0  0  0  0  0  0  0  0  0  0  0  0
  134.9950   71.1240  224.8130 C   0  0  0  0  0  0  0  0  0  0  0  0
  134.3250   71.4370  226.0000 C   0  0  0  0  0  0  0  0  0  0  0  0
  133.8460   70.4060  226.8090 C   0  0  0  0  0  0  0  0  0  0  0  0
  134.0280   69.1100  226.4380 N   0  0  0  0  0  0  0  0  0  0  0  0
  134.6600   68.7770  225.2790 C   0  0  0  0  0  0  0  0  0  0  0  0
  138.7800   70.5180  224.1000 N   0  0  0  0  0  0  0  0  0  0  0  0
  138.4070   71.4680  223.0240 C   0  0  0  0  0  0  0  0  0  0  0  0
  139.6310   71.9870  222.3090 C   0  0  0  0  0  0  0  0  0  0  0  0
  140.5930   71.0970  221.8040 C   0  0  0  0  0  0  0  0  0  0  0  0
  141.7640   71.5850  221.2150 C   0  0  0  0  0  0  0  0  0  0  0  0
  141.9770   72.9620  221.1180 C   0  0  0  0  0  0  0  0  0  0  0  0
  143.4590   73.5720  220.4070 Cl  0  0  0  0  0  0  0  0  0  0  0  0
  141.0140   73.8550  221.5990 C   0  0  0  0  0  0  0  0  0  0  0  0
  139.8400   73.3740  222.1810 C   0  0  0  0  0  0  0  0  0  0  0  0
  141.5744   71.2361  227.0014 H   0  0  0  0  0  0  0  0  0  0  0  0
  142.0851   69.5985  228.8151 H   0  0  0  0  0  0  0  0  0  0  0  0
  140.8572   67.4301  228.9310 H   0  0  0  0  0  0  0  0  0  0  0  0
  139.1138   66.8870  227.2282 H   0  0  0  0  0  0  0  0  0  0  0  0
  137.3474   68.0699  222.5146 H   0  0  0  0  0  0  0  0  0  0  0  0
  135.4761   69.7204  222.2348 H   0  0  0  0  0  0  0  0  0  0  0  0
  135.3896   71.9290  224.1756 H   0  0  0  0  0  0  0  0  0  0  0  0
  134.1769   72.4868  226.2933 H   0  0  0  0  0  0  0  0  0  0  0  0
  133.3212   70.6412  227.7467 H   0  0  0  0  0  0  0  0  0  0  0  0
  134.7769   67.7189  225.0018 H   0  0  0  0  0  0  0  0  0  0  0  0
  137.7587   70.9536  222.2994 H   0  0  0  0  0  0  0  0  0  0  0  0
  137.8797   72.3202  223.4776 H   0  0  0  0  0  0  0  0  0  0  0  0
  140.4249   70.0121  221.8720 H   0  0  0  0  0  0  0  0  0  0  0  0
  142.5179   70.8837  220.8278 H   0  0  0  0  0  0  0  0  0  0  0  0
  141.1822   74.9391  221.5185 H   0  0  0  0  0  0  0  0  0  0  0  0
  139.0765   74.0796  222.5404 H   0  0  0  0  0  0  0  0  0  0  0  0
  1  2  2  0
  2  3  1  0
  3  4  2  0
  4  5  1  0
  5  6  2  0
  6  7  1  0
  7  8  2  0
  8  9  1  0
  9 10  2  0
 10 11  1  0
 11 12  2  0
 12 13  1  0
 13 14  2  0
 14 15  1  0
 15 16  2  0
 16 17  1  0
 17 18  2  0
 10 19  1  0
 19 20  1  0
 20 21  1  0
 21 22  2  0
 22 23  1  0
 23 24  2  0
 24 25  1  0
 24 26  1  0
 26 27  2  0
 19  2  1  0
 27 21  1  0
  8  3  1  0
 18 13  1  0
  4 28  1  0
  5 29  1  0
  6 30  1  0
  7 31  1  0
 11 32  1  0
 12 33  1  0
 14 34  1  0
 15 35  1  0
 16 36  1  0
 18 37  1  0
 20 38  1  0
 20 39  1  0
 22 40  1  0
 23 41  1  0
 26 42  1  0
 27 43  1  0
M  END
>  <meeko>  (5) 
{"free_energy": -7.38, "intermolecular_energy": -8.87, "internal_energy": -1.33, "cluster_size": 3, "cluster_id": 5, "rank_in_cluster": 1}

$$$$

     RDKit          3D

 43 46  0  0  0  0  0  0  0  0999 V2000
  141.4500   71.0190  221.2220 O   0  0  0  0  0  0  0  0  0  0  0  0
  141.6810   72.2600  221.2220 C   0  0  0  0  0  0  0  0  0  0  0  0
  142.9500   72.7220  220.8300 C   0  0  0  0  0  0  0  0  0  0  0  0
  143.9880   71.8480  220.4510 C   0  0  0  0  0  0  0  0  0  0  0  0
  145.2330   72.3620  220.0710 C   0  0  0  0  0  0  0  0  0  0  0  0
  145.4530   73.7420  220.0610 C   0  0  0  0  0  0  0  0  0  0  0  0
  144.4280   74.6160  220.4310 C   0  0  0  0  0  0  0  0  0  0  0  0
  143.1790   74.1080  220.8190 C   0  0  0  0  0  0  0  0  0  0  0  0
  142.1920   74.9540  221.1880 N   0  0  0  0  0  0  0  0  0  0  0  0
  140.9740   74.5020  221.5830 C   0  0  0  0  0  0  0  0  0  0  0  0
  139.9690   75.5020  221.9830 C   0  0  0  0  0  0  0  0  0  0  0  0
  139.9710   76.7200  221.4330 C   0  0  0  0  0  0  0  0  0  0  0  0
  140.5240   77.9070  222.1160 C   0  0  0  0  0  0  0  0  0  0  0  0
  141.8280   78.3310  221.8210 C   0  0  0  0  0  0  0  0  0  0  0  0
  142.3800   79.4210  222.4990 C   0  0  0  0  0  0  0  0  0  0  0  0
  141.6290   80.0690  223.4810 C   0  0  0  0  0  0  0  0  0  0  0  0
  140.3700   79.6410  223.7680 N   0  0  0  0  0  0  0  0  0  0  0  0
  139.8010   78.5930  223.1100 C   0  0  0  0  0  0  0  0  0  0  0  0
  140.7020   73.1520  221.5960 N   0  0  0  0  0  0  0  0  0  0  0  0
  139.3500   72.6690  221.9670 C   0  0  0  0  0  0  0  0  0  0  0  0
  139.4010   71.8120  223.2090 C   0  0  0  0  0  0  0  0  0  0  0  0
  140.5000   71.8830  224.0800 C   0  0  0  0  0  0  0  0  0  0  0  0
  140.5800   71.0290  225.1840 C   0  0  0  0  0  0  0  0  0  0  0  0
  139.5600   70.1070  225.4310 C   0  0  0  0  0  0  0  0  0  0  0  0
  139.6760   69.0160  226.7990 Cl  0  0  0  0  0  0  0  0  0  0  0  0
  138.4520   70.0440  224.5800 C   0  0  0  0  0  0  0  0  0  0  0  0
  138.3630   70.8990  223.4810 C   0  0  0  0  0  0  0  0  0  0  0  0
  143.8198   70.7609  220.4538 H   0  0  0  0  0  0  0  0  0  0  0  0
  146.0422   71.6765  219.7788 H   0  0  0  0  0  0  0  0  0  0  0  0
  146.4337   74.1402  219.7617 H   0  0  0  0  0  0  0  0  0  0  0  0
  144.6001   75.7024  220.4182 H   0  0  0  0  0  0  0  0  0  0  0  0
  139.2124   75.2447  222.7389 H   0  0  0  0  0  0  0  0  0  0  0  0
  139.5420   76.8439  220.4277 H   0  0  0  0  0  0  0  0  0  0  0  0
  142.4168   77.8049  221.0551 H   0  0  0  0  0  0  0  0  0  0  0  0
  143.3973   79.7653  222.2610 H   0  0  0  0  0  0  0  0  0  0  0  0
  142.0553   80.9260  224.0230 H   0  0  0  0  0  0  0  0  0  0  0  0
  138.7748   78.2822  223.3557 H   0  0  0  0  0  0  0  0  0  0  0  0
  138.6980   73.5349  222.1545 H   0  0  0  0  0  0  0  0  0  0  0  0
  138.9567   72.0611  221.1389 H   0  0  0  0  0  0  0  0  0  0  0  0
  141.3010   72.6133  223.8930 H   0  0  0  0  0  0  0  0  0  0  0  0
  141.4470   71.0831  225.8588 H   0  0  0  0  0  0  0  0  0  0  0  0
  137.6489   69.3188  224.7775 H   0  0  0  0  0  0  0  0  0  0  0  0
  137.4805   70.8602  222.8255 H   0  0  0  0  0  0  0  0  0  0  0  0
  1  2  2  0
  2  3  1  0
  3  4  2  0
  4  5  1  0
  5  6  2  0
  6  7  1  0
  7  8  2  0
  8  9  1  0
  9 10  2  0
 10 11  1  0
 11 12  2  0
 12 13  1  0
 13 14  2  0
 14 15  1  0
 15 16  2  0
 16 17  1  0
 17 18  2  0
 10 19  1  0
 19 20  1  0
 20 21  1  0
 21 22  2  0
 22 23  1  0
 23 24  2  0
 24 25  1  0
 24 26  1  0
 26 27  2  0
 19  2  1  0
 27 21  1  0
  8  3  1  0
 18 13  1  0
  4 28  1  0
  5 29  1  0
  6 30  1  0
  7 31  1  0
 11 32  1  0
 12 33  1  0
 14 34  1  0
 15 35  1  0
 16 36  1  0
 18 37  1  0
 20 38  1  0
 20 39  1  0
 22 40  1  0
 23 41  1  0
 26 42  1  0
 27 43  1  0
M  END
>  <meeko>  (6) 
{"free_energy": -7.48, "intermolecular_energy": -8.97, "internal_energy": -1.1, "cluster_size": 5, "cluster_id": 2, "rank_in_cluster": 1}

$$$$

     RDKit          3D

 43 46  0  0  0  0  0  0  0  0999 V2000
  140.2650   72.0180  224.8500 O   0  0  0  0  0  0  0  0  0  0  0  0
  139.6910   70.8940  224.8690 C   0  0  0  0  0  0  0  0  0  0  0  0
  139.9750   69.9960  225.9140 C   0  0  0  0  0  0  0  0  0  0  0  0
  140.8930   70.2960  226.9390 C   0  0  0  0  0  0  0  0  0  0  0  0
  141.1390   69.3650  227.9540 C   0  0  0  0  0  0  0  0  0  0  0  0
  140.4730   68.1360  227.9600 C   0  0  0  0  0  0  0  0  0  0  0  0
  139.5560   67.8320  226.9500 C   0  0  0  0  0  0  0  0  0  0  0  0
  139.3090   68.7580  225.9260 C   0  0  0  0  0  0  0  0  0  0  0  0
  138.4320   68.4590  224.9430 N   0  0  0  0  0  0  0  0  0  0  0  0
  138.1750   69.3210  223.9260 C   0  0  0  0  0  0  0  0  0  0  0  0
  137.2150   68.8970  222.8940 C   0  0  0  0  0  0  0  0  0  0  0  0
  135.9450   68.6370  223.2170 C   0  0  0  0  0  0  0  0  0  0  0  0
  135.2520   69.2990  224.3400 C   0  0  0  0  0  0  0  0  0  0  0  0
  135.2810   70.6980  224.4420 C   0  0  0  0  0  0  0  0  0  0  0  0
  134.6730   71.3330  225.5290 C   0  0  0  0  0  0  0  0  0  0  0  0
  134.0560   70.5620  226.5160 C   0  0  0  0  0  0  0  0  0  0  0  0
  134.0470   69.2050  226.4130 N   0  0  0  0  0  0  0  0  0  0  0  0
  134.6140   68.5630  225.3550 C   0  0  0  0  0  0  0  0  0  0  0  0
  138.7940   70.5510  223.8820 N   0  0  0  0  0  0  0  0  0  0  0  0
  138.4610   71.5140  222.8050 C   0  0  0  0  0  0  0  0  0  0  0  0
  139.7100   72.0260  222.1280 C   0  0  0  0  0  0  0  0  0  0  0  0
  140.6930   71.1300  221.6750 C   0  0  0  0  0  0  0  0  0  0  0  0
  141.8830   71.6130  221.1230 C   0  0  0  0  0  0  0  0  0  0  0  0
  142.0970   72.9890  221.0110 C   0  0  0  0  0  0  0  0  0  0  0  0
  143.6030   73.5930  220.3460 Cl  0  0  0  0  0  0  0  0  0  0  0  0
  141.1130   73.8870  221.4410 C   0  0  0  0  0  0  0  0  0  0  0  0
  139.9200   73.4110  221.9860 C   0  0  0  0  0  0  0  0  0  0  0  0
  141.4171   71.2631  226.9416 H   0  0  0  0  0  0  0  0  0  0  0  0
  141.8597   69.6012  228.7508 H   0  0  0  0  0  0  0  0  0  0  0  0
  140.6708   67.4076  228.7602 H   0  0  0  0  0  0  0  0  0  0  0  0
  139.0282   66.8669  226.9582 H   0  0  0  0  0  0  0  0  0  0  0  0
  137.5454   68.7935  221.8499 H   0  0  0  0  0  0  0  0  0  0  0  0
  135.3914   67.8973  222.6201 H   0  0  0  0  0  0  0  0  0  0  0  0
  135.7824   71.2955  223.6663 H   0  0  0  0  0  0  0  0  0  0  0  0
  134.6807   72.4303  225.6060 H   0  0  0  0  0  0  0  0  0  0  0  0
  133.5771   71.0514  227.3769 H   0  0  0  0  0  0  0  0  0  0  0  0
  134.5732   67.4655  225.2935 H   0  0  0  0  0  0  0  0  0  0  0  0
  137.8274   71.0129  222.0584 H   0  0  0  0  0  0  0  0  0  0  0  0
  137.9307   72.3680  223.2517 H   0  0  0  0  0  0  0  0  0  0  0  0
  140.5257   70.0457  221.7549 H   0  0  0  0  0  0  0  0  0  0  0  0
  142.6527   70.9080  220.7760 H   0  0  0  0  0  0  0  0  0  0  0  0
  141.2807   74.9703  221.3490 H   0  0  0  0  0  0  0  0  0  0  0  0
  139.1416   74.1195  222.3055 H   0  0  0  0  0  0  0  0  0  0  0  0
  1  2  2  0
  2  3  1  0
  3  4  2  0
  4  5  1  0
  5  6  2  0
  6  7  1  0
  7  8  2  0
  8  9  1  0
  9 10  2  0
 10 11  1  0
 11 12  2  0
 12 13  1  0
 13 14  2  0
 14 15  1  0
 15 16  2  0
 16 17  1  0
 17 18  2  0
 10 19  1  0
 19 20  1  0
 20 21  1  0
 21 22  2  0
 22 23  1  0
 23 24  2  0
 24 25  1  0
 24 26  1  0
 26 27  2  0
 19  2  1  0
 27 21  1  0
  8  3  1  0
 18 13  1  0
  4 28  1  0
  5 29  1  0
  6 30  1  0
  7 31  1  0
 11 32  1  0
 12 33  1  0
 14 34  1  0
 15 35  1  0
 16 36  1  0
 18 37  1  0
 20 38  1  0
 20 39  1  0
 22 40  1  0
 23 41  1  0
 26 42  1  0
 27 43  1  0
M  END
>  <meeko>  (7) 
{"free_energy": -7.21, "intermolecular_energy": -8.71, "internal_energy": -1.43, "cluster_size": 3, "cluster_id": 5, "rank_in_cluster": 3}

$$$$

     RDKit          3D

 43 46  0  0  0  0  0  0  0  0999 V2000
  141.4530   71.0070  221.2530 O   0  0  0  0  0  0  0  0  0  0  0  0
  141.5640   72.2640  221.2530 C   0  0  0  0  0  0  0  0  0  0  0  0
  142.7800   72.8450  220.8500 C   0  0  0  0  0  0  0  0  0  0  0  0
  143.8930   72.0750  220.4590 C   0  0  0  0  0  0  0  0  0  0  0  0
  145.0790   72.7060  220.0680 C   0  0  0  0  0  0  0  0  0  0  0  0
  145.1660   74.1010  220.0590 C   0  0  0  0  0  0  0  0  0  0  0  0
  144.0660   74.8720  220.4410 C   0  0  0  0  0  0  0  0  0  0  0  0
  142.8750   74.2470  220.8390 C   0  0  0  0  0  0  0  0  0  0  0  0
  141.8150   74.9950  221.2200 N   0  0  0  0  0  0  0  0  0  0  0  0
  140.6500   74.4280  221.6260 C   0  0  0  0  0  0  0  0  0  0  0  0
  139.5590   75.3270  222.0370 C   0  0  0  0  0  0  0  0  0  0  0  0
  139.5050   76.5810  221.5770 C   0  0  0  0  0  0  0  0  0  0  0  0
  140.0360   77.7340  222.3310 C   0  0  0  0  0  0  0  0  0  0  0  0
  141.4180   77.9750  222.3460 C   0  0  0  0  0  0  0  0  0  0  0  0
  141.9360   79.0330  223.0980 C   0  0  0  0  0  0  0  0  0  0  0  0
  141.0690   79.8320  223.8450 C   0  0  0  0  0  0  0  0  0  0  0  0
  139.7320   79.5810  223.8330 N   0  0  0  0  0  0  0  0  0  0  0  0
  139.1990   78.5690  223.0950 C   0  0  0  0  0  0  0  0  0  0  0  0
  140.5080   73.0590  221.6390 N   0  0  0  0  0  0  0  0  0  0  0  0
  139.2120   72.4480  222.0220 C   0  0  0  0  0  0  0  0  0  0  0  0
  139.3580   71.5930  223.2570 C   0  0  0  0  0  0  0  0  0  0  0  0
  140.3480   71.8810  224.2110 C   0  0  0  0  0  0  0  0  0  0  0  0
  140.5310   71.0380  225.3110 C   0  0  0  0  0  0  0  0  0  0  0  0
  139.7230   69.9100  225.4730 C   0  0  0  0  0  0  0  0  0  0  0  0
  139.9740   68.8380  226.8370 Cl  0  0  0  0  0  0  0  0  0  0  0  0
  138.7210   69.6290  224.5380 C   0  0  0  0  0  0  0  0  0  0  0  0
  138.5280   70.4700  223.4420 C   0  0  0  0  0  0  0  0  0  0  0  0
  143.8296   70.9768  220.4611 H   0  0  0  0  0  0  0  0  0  0  0  0
  145.9470   72.1014  219.7662 H   0  0  0  0  0  0  0  0  0  0  0  0
  146.1011   74.5917  219.7510 H   0  0  0  0  0  0  0  0  0  0  0  0
  144.1336   75.9699  220.4297 H   0  0  0  0  0  0  0  0  0  0  0  0
  138.7831   74.9644  222.7273 H   0  0  0  0  0  0  0  0  0  0  0  0
  139.0451   76.7617  220.5942 H   0  0  0  0  0  0  0  0  0  0  0  0
  142.0945   77.3306  221.7653 H   0  0  0  0  0  0  0  0  0  0  0  0
  143.0174   79.2342  223.1012 H   0  0  0  0  0  0  0  0  0  0  0  0
  141.4668   80.6648  224.4435 H   0  0  0  0  0  0  0  0  0  0  0  0
  138.1116   78.4033  223.0957 H   0  0  0  0  0  0  0  0  0  0  0  0
  138.4834   73.2473  222.2225 H   0  0  0  0  0  0  0  0  0  0  0  0
  138.8684   71.8102  221.1943 H   0  0  0  0  0  0  0  0  0  0  0  0
  140.9812   72.7726  224.0921 H   0  0  0  0  0  0  0  0  0  0  0  0
  141.3132   71.2634  226.0509 H   0  0  0  0  0  0  0  0  0  0  0  0
  138.0833   68.7421  224.6675 H   0  0  0  0  0  0  0  0  0  0  0  0
  137.7258   70.2558  222.7205 H   0  0  0  0  0  0  0  0  0  0  0  0
  1  2  2  0
  2  3  1  0
  3  4  2  0
  4  5  1  0
  5  6  2  0
  6  7  1  0
  7  8  2  0
  8  9  1  0
  9 10  2  0
 10 11  1  0
 11 12  2  0
 12 13  1  0
 13 14  2  0
 14 15  1  0
 15 16  2  0
 16 17  1  0
 17 18  2  0
 10 19  1  0
 19 20  1  0
 20 21  1  0
 21 22  2  0
 22 23  1  0
 23 24  2  0
 24 25  1  0
 24 26  1  0
 26 27  2  0
 19  2  1  0
 27 21  1  0
  8  3  1  0
 18 13  1  0
  4 28  1  0
  5 29  1  0
  6 30  1  0
  7 31  1  0
 11 32  1  0
 12 33  1  0
 14 34  1  0
 15 35  1  0
 16 36  1  0
 18 37  1  0
 20 38  1  0
 20 39  1  0
 22 40  1  0
 23 41  1  0
 26 42  1  0
 27 43  1  0
M  END
>  <meeko>  (8) 
{"free_energy": -7.45, "intermolecular_energy": -8.94, "internal_energy": -1.17, "cluster_size": 5, "cluster_id": 2, "rank_in_cluster": 2}

$$$$

     RDKit          3D

 43 46  0  0  0  0  0  0  0  0999 V2000
  140.8890   73.4620  221.9620 O   0  0  0  0  0  0  0  0  0  0  0  0
  139.7250   73.9370  222.0790 C   0  0  0  0  0  0  0  0  0  0  0  0
  139.5480   75.3320  222.0610 C   0  0  0  0  0  0  0  0  0  0  0  0
  140.6270   76.2290  221.9320 C   0  0  0  0  0  0  0  0  0  0  0  0
  140.3940   77.6090  221.9220 C   0  0  0  0  0  0  0  0  0  0  0  0
  139.0920   78.1040  222.0330 C   0  0  0  0  0  0  0  0  0  0  0  0
  138.0160   77.2220  222.1560 C   0  0  0  0  0  0  0  0  0  0  0  0
  138.2420   75.8380  222.1740 C   0  0  0  0  0  0  0  0  0  0  0  0
  137.2010   74.9860  222.3050 N   0  0  0  0  0  0  0  0  0  0  0  0
  137.3790   73.6400  222.3400 C   0  0  0  0  0  0  0  0  0  0  0  0
  136.1840   72.7950  222.5030 C   0  0  0  0  0  0  0  0  0  0  0  0
  135.7680   72.4400  223.7220 C   0  0  0  0  0  0  0  0  0  0  0  0
  135.0650   73.3680  224.6300 C   0  0  0  0  0  0  0  0  0  0  0  0
  135.3290   74.7440  224.5550 C   0  0  0  0  0  0  0  0  0  0  0  0
  134.7080   75.6260  225.4440 C   0  0  0  0  0  0  0  0  0  0  0  0
  133.8400   75.1230  226.4140 C   0  0  0  0  0  0  0  0  0  0  0  0
  133.6010   73.7850  226.4860 N   0  0  0  0  0  0  0  0  0  0  0  0
  134.1780   72.9060  225.6210 C   0  0  0  0  0  0  0  0  0  0  0  0
  138.6410   73.1000  222.2190 N   0  0  0  0  0  0  0  0  0  0  0  0
  138.8220   71.6290  222.1940 C   0  0  0  0  0  0  0  0  0  0  0  0
  139.2300   71.1080  223.5510 C   0  0  0  0  0  0  0  0  0  0  0  0
  138.4960   70.0840  224.1720 C   0  0  0  0  0  0  0  0  0  0  0  0
  138.8290   69.6620  225.4620 C   0  0  0  0  0  0  0  0  0  0  0  0
  139.9010   70.2520  226.1370 C   0  0  0  0  0  0  0  0  0  0  0  0
  140.2980   69.7420  227.7680 Cl  0  0  0  0  0  0  0  0  0  0  0  0
  140.6500   71.2580  225.5170 C   0  0  0  0  0  0  0  0  0  0  0  0
  140.3260   71.6780  224.2270 C   0  0  0  0  0  0  0  0  0  0  0  0
  141.6533   75.8443  221.8391 H   0  0  0  0  0  0  0  0  0  0  0  0
  141.2391   78.3066  221.8264 H   0  0  0  0  0  0  0  0  0  0  0  0
  138.9143   79.1895  222.0235 H   0  0  0  0  0  0  0  0  0  0  0  0
  136.9912   77.6130  222.2388 H   0  0  0  0  0  0  0  0  0  0  0  0
  135.6305   72.4540  221.6157 H   0  0  0  0  0  0  0  0  0  0  0  0
  135.9575   71.4118  224.0639 H   0  0  0  0  0  0  0  0  0  0  0  0
  136.0255   75.1291  223.7957 H   0  0  0  0  0  0  0  0  0  0  0  0
  134.9018   76.7069  225.3796 H   0  0  0  0  0  0  0  0  0  0  0  0
  133.3488   75.8081  227.1207 H   0  0  0  0  0  0  0  0  0  0  0  0
  133.9506   71.8324  225.6966 H   0  0  0  0  0  0  0  0  0  0  0  0
  137.8744   71.1555  221.8975 H   0  0  0  0  0  0  0  0  0  0  0  0
  139.6173   71.3872  221.4736 H   0  0  0  0  0  0  0  0  0  0  0  0
  137.6560   69.6125  223.6410 H   0  0  0  0  0  0  0  0  0  0  0  0
  138.2466   68.8645  225.9466 H   0  0  0  0  0  0  0  0  0  0  0  0
  141.4961   71.7187  226.0480 H   0  0  0  0  0  0  0  0  0  0  0  0
  140.9283   72.4567  223.7363 H   0  0  0  0  0  0  0  0  0  0  0  0
  1  2  2  0
  2  3  1  0
  3  4  2  0
  4  5  1  0
  5  6  2  0
  6  7  1  0
  7  8  2  0
  8  9  1  0
  9 10  2  0
 10 11  1  0
 11 12  2  0
 12 13  1  0
 13 14  2  0
 14 15  1  0
 15 16  2  0
 16 17  1  0
 17 18  2  0
 10 19  1  0
 19 20  1  0
 20 21  1  0
 21 22  2  0
 22 23  1  0
 23 24  2  0
 24 25  1  0
 24 26  1  0
 26 27  2  0
 19  2  1  0
 27 21  1  0
  8  3  1  0
 18 13  1  0
  4 28  1  0
  5 29  1  0
  6 30  1  0
  7 31  1  0
 11 32  1  0
 12 33  1  0
 14 34  1  0
 15 35  1  0
 16 36  1  0
 18 37  1  0
 20 38  1  0
 20 39  1  0
 22 40  1  0
 23 41  1  0
 26 42  1  0
 27 43  1  0
M  END
>  <meeko>  (9) 
{"free_energy": -7.36, "intermolecular_energy": -8.85, "internal_energy": -1.35, "cluster_size": 3, "cluster_id": 6, "rank_in_cluster": 1}

$$$$

     RDKit          3D

 43 46  0  0  0  0  0  0  0  0999 V2000
  138.2300   75.5550  221.6390 O   0  0  0  0  0  0  0  0  0  0  0  0
  139.3740   75.0690  221.4180 C   0  0  0  0  0  0  0  0  0  0  0  0
  139.6230   73.7240  221.7460 C   0  0  0  0  0  0  0  0  0  0  0  0
  138.6460   72.8960  222.3320 C   0  0  0  0  0  0  0  0  0  0  0  0
  138.9490   71.5650  222.6400 C   0  0  0  0  0  0  0  0  0  0  0  0
  140.2180   71.0490  222.3650 C   0  0  0  0  0  0  0  0  0  0  0  0
  141.1920   71.8620  221.7800 C   0  0  0  0  0  0  0  0  0  0  0  0
  140.8980   73.1980  221.4730 C   0  0  0  0  0  0  0  0  0  0  0  0
  141.8440   73.9870  220.9180 N   0  0  0  0  0  0  0  0  0  0  0  0
  141.6040   75.2900  220.6190 C   0  0  0  0  0  0  0  0  0  0  0  0
  142.7050   76.0720  220.0320 C   0  0  0  0  0  0  0  0  0  0  0  0
  143.5480   75.5060  219.1630 C   0  0  0  0  0  0  0  0  0  0  0  0
  144.4660   74.4120  219.5350 C   0  0  0  0  0  0  0  0  0  0  0  0
  145.0330   74.3900  220.8180 C   0  0  0  0  0  0  0  0  0  0  0  0
  145.9440   73.3870  221.1640 C   0  0  0  0  0  0  0  0  0  0  0  0
  146.2940   72.4230  220.2180 C   0  0  0  0  0  0  0  0  0  0  0  0
  145.7480   72.4620  218.9720 N   0  0  0  0  0  0  0  0  0  0  0  0
  144.8450   73.4160  218.6150 C   0  0  0  0  0  0  0  0  0  0  0  0
  140.3650   75.8430  220.8570 N   0  0  0  0  0  0  0  0  0  0  0  0
  140.0890   77.2470  220.4700 C   0  0  0  0  0  0  0  0  0  0  0  0
  140.7720   78.2140  221.4070 C   0  0  0  0  0  0  0  0  0  0  0  0
  140.6250   78.0830  222.7980 C   0  0  0  0  0  0  0  0  0  0  0  0
  141.1920   79.0280  223.6580 C   0  0  0  0  0  0  0  0  0  0  0  0
  141.9160   80.1030  223.1370 C   0  0  0  0  0  0  0  0  0  0  0  0
  142.6010   81.3040  224.2160 Cl  0  0  0  0  0  0  0  0  0  0  0  0
  142.0840   80.2290  221.7540 C   0  0  0  0  0  0  0  0  0  0  0  0
  141.5270   79.2850  220.8910 C   0  0  0  0  0  0  0  0  0  0  0  0
  137.6442   73.2958  222.5477 H   0  0  0  0  0  0  0  0  0  0  0  0
  138.1846   70.9220  223.1007 H   0  0  0  0  0  0  0  0  0  0  0  0
  140.4503   70.0019  222.6093 H   0  0  0  0  0  0  0  0  0  0  0  0
  142.1896   71.4539  221.5603 H   0  0  0  0  0  0  0  0  0  0  0  0
  142.8344   77.1283  220.3104 H   0  0  0  0  0  0  0  0  0  0  0  0
  143.5580   75.8714  218.1255 H   0  0  0  0  0  0  0  0  0  0  0  0
  144.7608   75.1623  221.5524 H   0  0  0  0  0  0  0  0  0  0  0  0
  146.3808   73.3583  222.1731 H   0  0  0  0  0  0  0  0  0  0  0  0
  147.0115   71.6312  220.4794 H   0  0  0  0  0  0  0  0  0  0  0  0
  144.4101   73.4087  217.6047 H   0  0  0  0  0  0  0  0  0  0  0  0
  140.4574   77.4168  219.4475 H   0  0  0  0  0  0  0  0  0  0  0  0
  139.0035   77.4169  220.5233 H   0  0  0  0  0  0  0  0  0  0  0  0
  140.0617   77.2337  223.2119 H   0  0  0  0  0  0  0  0  0  0  0  0
  141.0679   78.9250  224.7461 H   0  0  0  0  0  0  0  0  0  0  0  0
  142.6569   81.0747  221.3458 H   0  0  0  0  0  0  0  0  0  0  0  0
  141.6778   79.3774  219.8053 H   0  0  0  0  0  0  0  0  0  0  0  0
  1  2  2  0
  2  3  1  0
  3  4  2  0
  4  5  1  0
  5  6  2  0
  6  7  1  0
  7  8  2  0
  8  9  1  0
  9 10  2  0
 10 11  1  0
 11 12  2  0
 12 13  1  0
 13 14  2  0
 14 15  1  0
 15 16  2  0
 16 17  1  0
 17 18  2  0
 10 19  1  0
 19 20  1  0
 20 21  1  0
 21 22  2  0
 22 23  1  0
 23 24  2  0
 24 25  1  0
 24 26  1  0
 26 27  2  0
 19  2  1  0
 27 21  1  0
  8  3  1  0
 18 13  1  0
  4 28  1  0
  5 29  1  0
  6 30  1  0
  7 31  1  0
 11 32  1  0
 12 33  1  0
 14 34  1  0
 15 35  1  0
 16 36  1  0
 18 37  1  0
 20 38  1  0
 20 39  1  0
 22 40  1  0
 23 41  1  0
 26 42  1  0
 27 43  1  0
M  END
>  <meeko>  (10) 
{"free_energy": -7.44, "intermolecular_energy": -8.93, "internal_energy": -1.31, "cluster_size": 2, "cluster_id": 3, "rank_in_cluster": 2}

$$$$

     RDKit          3D

 43 46  0  0  0  0  0  0  0  0999 V2000
  138.8760   67.4090  225.2340 O   0  0  0  0  0  0  0  0  0  0  0  0
  139.0720   68.6510  225.1240 C   0  0  0  0  0  0  0  0  0  0  0  0
  139.8070   69.3200  226.1190 C   0  0  0  0  0  0  0  0  0  0  0  0
  140.3240   68.6590  227.2510 C   0  0  0  0  0  0  0  0  0  0  0  0
  141.0470   69.3740  228.2110 C   0  0  0  0  0  0  0  0  0  0  0  0
  141.2660   70.7450  228.0520 C   0  0  0  0  0  0  0  0  0  0  0  0
  140.7620   71.4080  226.9300 C   0  0  0  0  0  0  0  0  0  0  0  0
  140.0310   70.6990  225.9660 C   0  0  0  0  0  0  0  0  0  0  0  0
  139.5340   71.3440  224.8880 N   0  0  0  0  0  0  0  0  0  0  0  0
  138.8090   70.6970  223.9390 C   0  0  0  0  0  0  0  0  0  0  0  0
  138.2960   71.4900  222.8100 C   0  0  0  0  0  0  0  0  0  0  0  0
  139.0850   71.7760  221.7700 C   0  0  0  0  0  0  0  0  0  0  0  0
  139.8100   73.0560  221.6420 C   0  0  0  0  0  0  0  0  0  0  0  0
  141.1200   73.0620  221.1410 C   0  0  0  0  0  0  0  0  0  0  0  0
  141.8340   74.2620  221.0640 C   0  0  0  0  0  0  0  0  0  0  0  0
  141.2380   75.4440  221.5060 C   0  0  0  0  0  0  0  0  0  0  0  0
  139.9710   75.4230  222.0020 N   0  0  0  0  0  0  0  0  0  0  0  0
  139.2470   74.2730  222.0710 C   0  0  0  0  0  0  0  0  0  0  0  0
  138.5780   69.3430  224.0420 N   0  0  0  0  0  0  0  0  0  0  0  0
  137.8400   68.6310  222.9710 C   0  0  0  0  0  0  0  0  0  0  0  0
  138.7910   67.9480  222.0170 C   0  0  0  0  0  0  0  0  0  0  0  0
  138.9430   66.5510  222.0400 C   0  0  0  0  0  0  0  0  0  0  0  0
  139.8840   65.9320  221.2120 C   0  0  0  0  0  0  0  0  0  0  0  0
  140.6720   66.6990  220.3510 C   0  0  0  0  0  0  0  0  0  0  0  0
  141.8720   65.9240  219.3350 Cl  0  0  0  0  0  0  0  0  0  0  0  0
  140.5120   68.0890  220.3070 C   0  0  0  0  0  0  0  0  0  0  0  0
  139.5690   68.7110  221.1260 C   0  0  0  0  0  0  0  0  0  0  0  0
  140.1587   67.5791  227.3797 H   0  0  0  0  0  0  0  0  0  0  0  0
  141.4451   68.8549  229.0953 H   0  0  0  0  0  0  0  0  0  0  0  0
  141.8354   71.3024  228.8104 H   0  0  0  0  0  0  0  0  0  0  0  0
  140.9387   72.4863  226.8029 H   0  0  0  0  0  0  0  0  0  0  0  0
  137.2565   71.8495  222.8224 H   0  0  0  0  0  0  0  0  0  0  0  0
  139.1994   71.0250  220.9745 H   0  0  0  0  0  0  0  0  0  0  0  0
  141.5859   72.1226  220.8086 H   0  0  0  0  0  0  0  0  0  0  0  0
  142.8565   74.2741  220.6586 H   0  0  0  0  0  0  0  0  0  0  0  0
  141.7924   76.3926  221.4534 H   0  0  0  0  0  0  0  0  0  0  0  0
  138.2194   74.2942  222.4629 H   0  0  0  0  0  0  0  0  0  0  0  0
  137.1847   67.8748  223.4279 H   0  0  0  0  0  0  0  0  0  0  0  0
  137.2473   69.3662  222.4069 H   0  0  0  0  0  0  0  0  0  0  0  0
  138.3195   65.9427  222.7117 H   0  0  0  0  0  0  0  0  0  0  0  0
  140.0040   64.8389  221.2387 H   0  0  0  0  0  0  0  0  0  0  0  0
  141.1306   68.6918  219.6258 H   0  0  0  0  0  0  0  0  0  0  0  0
  139.4331   69.8014  221.0752 H   0  0  0  0  0  0  0  0  0  0  0  0
  1  2  2  0
  2  3  1  0
  3  4  2  0
  4  5  1  0
  5  6  2  0
  6  7  1  0
  7  8  2  0
  8  9  1  0
  9 10  2  0
 10 11  1  0
 11 12  2  0
 12 13  1  0
 13 14  2  0
 14 15  1  0
 15 16  2  0
 16 17  1  0
 17 18  2  0
 10 19  1  0
 19 20  1  0
 20 21  1  0
 21 22  2  0
 22 23  1  0
 23 24  2  0
 24 25  1  0
 24 26  1  0
 26 27  2  0
 19  2  1  0
 27 21  1  0
  8  3  1  0
 18 13  1  0
  4 28  1  0
  5 29  1  0
  6 30  1  0
  7 31  1  0
 11 32  1  0
 12 33  1  0
 14 34  1  0
 15 35  1  0
 16 36  1  0
 18 37  1  0
 20 38  1  0
 20 39  1  0
 22 40  1  0
 23 41  1  0
 26 42  1  0
 27 43  1  0
M  END
>  <meeko>  (11) 
{"free_energy": -7.23, "intermolecular_energy": -8.72, "internal_energy": -1.3, "cluster_size": 1, "cluster_id": 7, "rank_in_cluster": 1}

$$$$

     RDKit          3D

 43 46  0  0  0  0  0  0  0  0999 V2000
  138.8190   73.8940  222.3490 O   0  0  0  0  0  0  0  0  0  0  0  0
  139.8520   73.9090  221.6230 C   0  0  0  0  0  0  0  0  0  0  0  0
  140.4870   75.1360  221.3600 C   0  0  0  0  0  0  0  0  0  0  0  0
  140.0050   76.3600  221.8630 C   0  0  0  0  0  0  0  0  0  0  0  0
  140.6760   77.5520  221.5690 C   0  0  0  0  0  0  0  0  0  0  0  0
  141.8290   77.5350  220.7790 C   0  0  0  0  0  0  0  0  0  0  0  0
  142.3170   76.3250  220.2800 C   0  0  0  0  0  0  0  0  0  0  0  0
  141.6470   75.1270  220.5660 C   0  0  0  0  0  0  0  0  0  0  0  0
  142.1140   73.9590  220.0730 N   0  0  0  0  0  0  0  0  0  0  0  0
  141.4860   72.7790  220.3150 C   0  0  0  0  0  0  0  0  0  0  0  0
  142.0620   71.5620  219.7200 C   0  0  0  0  0  0  0  0  0  0  0  0
  143.2710   71.1320  220.0960 C   0  0  0  0  0  0  0  0  0  0  0  0
  144.4680   71.9960  220.0830 C   0  0  0  0  0  0  0  0  0  0  0  0
  144.8090   72.7220  221.2340 C   0  0  0  0  0  0  0  0  0  0  0  0
  145.9100   73.5830  221.2180 C   0  0  0  0  0  0  0  0  0  0  0  0
  146.6530   73.7240  220.0440 C   0  0  0  0  0  0  0  0  0  0  0  0
  146.3050   73.0240  218.9310 N   0  0  0  0  0  0  0  0  0  0  0  0
  145.2480   72.1650  218.9240 C   0  0  0  0  0  0  0  0  0  0  0  0
  140.3550   72.7390  221.0990 N   0  0  0  0  0  0  0  0  0  0  0  0
  139.7110   71.4410  221.4130 C   0  0  0  0  0  0  0  0  0  0  0  0
  139.8730   71.0920  222.8720 C   0  0  0  0  0  0  0  0  0  0  0  0
  139.1090   70.0630  223.4480 C   0  0  0  0  0  0  0  0  0  0  0  0
  139.2040   69.7980  224.8180 C   0  0  0  0  0  0  0  0  0  0  0  0
  140.0660   70.5510  225.6190 C   0  0  0  0  0  0  0  0  0  0  0  0
  140.1610   70.2370  227.3420 Cl  0  0  0  0  0  0  0  0  0  0  0  0
  140.8450   71.5630  225.0490 C   0  0  0  0  0  0  0  0  0  0  0  0
  140.7610   71.8270  223.6810 C   0  0  0  0  0  0  0  0  0  0  0  0
  139.0999   76.3789  222.4878 H   0  0  0  0  0  0  0  0  0  0  0  0
  140.2946   78.5064  221.9611 H   0  0  0  0  0  0  0  0  0  0  0  0
  142.3524   78.4750  220.5501 H   0  0  0  0  0  0  0  0  0  0  0  0
  143.2272   76.3120  219.6625 H   0  0  0  0  0  0  0  0  0  0  0  0
  141.4944   71.0029  218.9615 H   0  0  0  0  0  0  0  0  0  0  0  0
  143.3783   70.0893  220.4295 H   0  0  0  0  0  0  0  0  0  0  0  0
  144.2094   72.6136  222.1498 H   0  0  0  0  0  0  0  0  0  0  0  0
  146.1887   74.1444  222.1220 H   0  0  0  0  0  0  0  0  0  0  0  0
  147.5196   74.4011  220.0194 H   0  0  0  0  0  0  0  0  0  0  0  0
  145.0037   71.6024  218.0109 H   0  0  0  0  0  0  0  0  0  0  0  0
  138.6387   71.5056  221.1761 H   0  0  0  0  0  0  0  0  0  0  0  0
  140.1939   70.6572  220.8110 H   0  0  0  0  0  0  0  0  0  0  0  0
  138.4339   69.4638  222.8193 H   0  0  0  0  0  0  0  0  0  0  0  0
  138.5991   68.9955  225.2654 H   0  0  0  0  0  0  0  0  0  0  0  0
  141.5258   72.1526  225.6806 H   0  0  0  0  0  0  0  0  0  0  0  0
  141.3898   72.6109  223.2338 H   0  0  0  0  0  0  0  0  0  0  0  0
  1  2  2  0
  2  3  1  0
  3  4  2  0
  4  5  1  0
  5  6  2  0
  6  7  1  0
  7  8  2  0
  8  9  1  0
  9 10  2  0
 10 11  1  0
 11 12  2  0
 12 13  1  0
 13 14  2  0
 14 15  1  0
 15 16  2  0
 16 17  1  0
 17 18  2  0
 10 19  1  0
 19 20  1  0
 20 21  1  0
 21 22  2  0
 22 23  1  0
 23 24  2  0
 24 25  1  0
 24 26  1  0
 26 27  2  0
 19  2  1  0
 27 21  1  0
  8  3  1  0
 18 13  1  0
  4 28  1  0
  5 29  1  0
  6 30  1  0
  7 31  1  0
 11 32  1  0
 12 33  1  0
 14 34  1  0
 15 35  1  0
 16 36  1  0
 18 37  1  0
 20 38  1  0
 20 39  1  0
 22 40  1  0
 23 41  1  0
 26 42  1  0
 27 43  1  0
M  END
>  <meeko>  (12) 
{"free_energy": -7.21, "intermolecular_energy": -8.7, "internal_energy": -1.46, "cluster_size": 5, "cluster_id": 1, "rank_in_cluster": 5}

$$$$

     RDKit          3D

 43 46  0  0  0  0  0  0  0  0999 V2000
  140.9170   74.0950  221.7660 O   0  0  0  0  0  0  0  0  0  0  0  0
  139.8000   74.6330  222.0040 C   0  0  0  0  0  0  0  0  0  0  0  0
  139.7420   76.0170  222.2450 C   0  0  0  0  0  0  0  0  0  0  0  0
  140.8900   76.8330  222.2470 C   0  0  0  0  0  0  0  0  0  0  0  0
  140.7760   78.2050  222.4950 C   0  0  0  0  0  0  0  0  0  0  0  0
  139.5220   78.7750  222.7350 C   0  0  0  0  0  0  0  0  0  0  0  0
  138.3770   77.9750  222.7300 C   0  0  0  0  0  0  0  0  0  0  0  0
  138.4850   76.5980  222.4880 C   0  0  0  0  0  0  0  0  0  0  0  0
  137.3780   75.8230  222.4950 N   0  0  0  0  0  0  0  0  0  0  0  0
  137.4420   74.4840  222.2790 C   0  0  0  0  0  0  0  0  0  0  0  0
  136.1820   73.7230  222.3230 C   0  0  0  0  0  0  0  0  0  0  0  0
  135.7760   73.1500  223.4610 C   0  0  0  0  0  0  0  0  0  0  0  0
  135.0120   73.8770  224.4940 C   0  0  0  0  0  0  0  0  0  0  0  0
  135.0250   75.2790  224.5070 C   0  0  0  0  0  0  0  0  0  0  0  0
  134.3470   75.9760  225.5120 C   0  0  0  0  0  0  0  0  0  0  0  0
  133.6750   75.2650  226.5060 C   0  0  0  0  0  0  0  0  0  0  0  0
  133.6810   73.9040  226.4910 N   0  0  0  0  0  0  0  0  0  0  0  0
  134.3170   73.2000  225.5150 C   0  0  0  0  0  0  0  0  0  0  0  0
  138.6500   73.8750  222.0230 N   0  0  0  0  0  0  0  0  0  0  0  0
  138.7050   72.4240  221.7260 C   0  0  0  0  0  0  0  0  0  0  0  0
  139.0580   71.6290  222.9590 C   0  0  0  0  0  0  0  0  0  0  0  0
  138.1440   70.7090  223.5010 C   0  0  0  0  0  0  0  0  0  0  0  0
  138.4430   70.0360  224.6890 C   0  0  0  0  0  0  0  0  0  0  0  0
  139.6580   70.2680  225.3390 C   0  0  0  0  0  0  0  0  0  0  0  0
  140.0190   69.4460  226.8450 Cl  0  0  0  0  0  0  0  0  0  0  0  0
  140.5830   71.1660  224.7940 C   0  0  0  0  0  0  0  0  0  0  0  0
  140.2920   71.8360  223.6050 C   0  0  0  0  0  0  0  0  0  0  0  0
  141.8783   76.3905  222.0531 H   0  0  0  0  0  0  0  0  0  0  0  0
  141.6759   78.8376  222.5012 H   0  0  0  0  0  0  0  0  0  0  0  0
  139.4371   79.8546  222.9280 H   0  0  0  0  0  0  0  0  0  0  0  0
  137.3907   78.4251  222.9159 H   0  0  0  0  0  0  0  0  0  0  0  0
  135.5708   73.6253  221.4137 H   0  0  0  0  0  0  0  0  0  0  0  0
  136.0218   72.0920  223.6348 H   0  0  0  0  0  0  0  0  0  0  0  0
  135.5688   75.8309  223.7262 H   0  0  0  0  0  0  0  0  0  0  0  0
  134.3437   77.0760  225.5185 H   0  0  0  0  0  0  0  0  0  0  0  0
  133.1403   75.8040  227.3019 H   0  0  0  0  0  0  0  0  0  0  0  0
  134.2882   72.1004  225.5237 H   0  0  0  0  0  0  0  0  0  0  0  0
  137.7224   72.0957  221.3562 H   0  0  0  0  0  0  0  0  0  0  0  0
  139.4817   72.2526  220.9661 H   0  0  0  0  0  0  0  0  0  0  0  0
  137.1897   70.5179  222.9883 H   0  0  0  0  0  0  0  0  0  0  0  0
  137.7208   69.3227  225.1129 H   0  0  0  0  0  0  0  0  0  0  0  0
  141.5413   71.3440  225.3040 H   0  0  0  0  0  0  0  0  0  0  0  0
  141.0288   72.5279  223.1710 H   0  0  0  0  0  0  0  0  0  0  0  0
  1  2  2  0
  2  3  1  0
  3  4  2  0
  4  5  1  0
  5  6  2  0
  6  7  1  0
  7  8  2  0
  8  9  1  0
  9 10  2  0
 10 11  1  0
 11 12  2  0
 12 13  1  0
 13 14  2  0
 14 15  1  0
 15 16  2  0
 16 17  1  0
 17 18  2  0
 10 19  1  0
 19 20  1  0
 20 21  1  0
 21 22  2  0
 22 23  1  0
 23 24  2  0
 24 25  1  0
 24 26  1  0
 26 27  2  0
 19  2  1  0
 27 21  1  0
  8  3  1  0
 18 13  1  0
  4 28  1  0
  5 29  1  0
  6 30  1  0
  7 31  1  0
 11 32  1  0
 12 33  1  0
 14 34  1  0
 15 35  1  0
 16 36  1  0
 18 37  1  0
 20 38  1  0
 20 39  1  0
 22 40  1  0
 23 41  1  0
 26 42  1  0
 27 43  1  0
M  END
>  <meeko>  (13) 
{"free_energy": -7.29, "intermolecular_energy": -8.78, "internal_energy": -1.39, "cluster_size": 3, "cluster_id": 6, "rank_in_cluster": 3}

$$$$

     RDKit          3D

 43 46  0  0  0  0  0  0  0  0999 V2000
  137.0690   72.8320  222.4470 O   0  0  0  0  0  0  0  0  0  0  0  0
  138.2230   73.2870  222.2140 C   0  0  0  0  0  0  0  0  0  0  0  0
  138.4160   74.6790  222.1650 C   0  0  0  0  0  0  0  0  0  0  0  0
  137.3620   75.5950  222.3490 C   0  0  0  0  0  0  0  0  0  0  0  0
  137.6090   76.9710  222.2880 C   0  0  0  0  0  0  0  0  0  0  0  0
  138.9020   77.4440  222.0490 C   0  0  0  0  0  0  0  0  0  0  0  0
  139.9550   76.5430  221.8690 C   0  0  0  0  0  0  0  0  0  0  0  0
  139.7130   75.1630  221.9230 C   0  0  0  0  0  0  0  0  0  0  0  0
  140.7300   74.2920  221.7380 N   0  0  0  0  0  0  0  0  0  0  0  0
  140.5350   72.9480  221.7690 C   0  0  0  0  0  0  0  0  0  0  0  0
  141.7030   72.0820  221.5390 C   0  0  0  0  0  0  0  0  0  0  0  0
  142.3470   72.1120  220.3680 C   0  0  0  0  0  0  0  0  0  0  0  0
  143.7590   72.5260  220.2400 C   0  0  0  0  0  0  0  0  0  0  0  0
  144.1870   73.7180  220.8440 C   0  0  0  0  0  0  0  0  0  0  0  0
  145.5090   74.1460  220.6860 C   0  0  0  0  0  0  0  0  0  0  0  0
  146.3870   73.3880  219.9120 C   0  0  0  0  0  0  0  0  0  0  0  0
  145.9570   72.2400  219.3200 N   0  0  0  0  0  0  0  0  0  0  0  0
  144.6810   71.7910  219.4720 C   0  0  0  0  0  0  0  0  0  0  0  0
  139.2830   72.4310  222.0160 N   0  0  0  0  0  0  0  0  0  0  0  0
  139.0900   70.9640  222.1120 C   0  0  0  0  0  0  0  0  0  0  0  0
  139.3540   70.4710  223.5140 C   0  0  0  0  0  0  0  0  0  0  0  0
  140.0710   71.2640  224.4250 C   0  0  0  0  0  0  0  0  0  0  0  0
  140.3830   70.7690  225.6950 C   0  0  0  0  0  0  0  0  0  0  0  0
  139.9750   69.4850  226.0670 C   0  0  0  0  0  0  0  0  0  0  0  0
  140.3930   68.8550  227.6490 Cl  0  0  0  0  0  0  0  0  0  0  0  0
  139.2420   68.6980  225.1720 C   0  0  0  0  0  0  0  0  0  0  0  0
  138.9210   69.1900  223.9060 C   0  0  0  0  0  0  0  0  0  0  0  0
  136.3429   75.2281  222.5410 H   0  0  0  0  0  0  0  0  0  0  0  0
  136.7823   77.6829  222.4287 H   0  0  0  0  0  0  0  0  0  0  0  0
  139.0912   78.5266  222.0025 H   0  0  0  0  0  0  0  0  0  0  0  0
  140.9732   76.9163  221.6850 H   0  0  0  0  0  0  0  0  0  0  0  0
  142.0479   71.4062  222.3355 H   0  0  0  0  0  0  0  0  0  0  0  0
  141.8015   71.8154  219.4600 H   0  0  0  0  0  0  0  0  0  0  0  0
  143.4829   74.3156  221.4416 H   0  0  0  0  0  0  0  0  0  0  0  0
  145.8533   75.0728  221.1682 H   0  0  0  0  0  0  0  0  0  0  0  0
  147.4280   73.7180  219.7797 H   0  0  0  0  0  0  0  0  0  0  0  0
  144.3697   70.8509  218.9931 H   0  0  0  0  0  0  0  0  0  0  0  0
  138.0542   70.7191  221.8343 H   0  0  0  0  0  0  0  0  0  0  0  0
  139.7999   70.4732  221.4299 H   0  0  0  0  0  0  0  0  0  0  0  0
  140.3881   72.2776  224.1385 H   0  0  0  0  0  0  0  0  0  0  0  0
  140.9506   71.3913  226.4026 H   0  0  0  0  0  0  0  0  0  0  0  0
  138.9179   67.6890  225.4669 H   0  0  0  0  0  0  0  0  0  0  0  0
  138.3282   68.5753  223.2127 H   0  0  0  0  0  0  0  0  0  0  0  0
  1  2  2  0
  2  3  1  0
  3  4  2  0
  4  5  1  0
  5  6  2  0
  6  7  1  0
  7  8  2  0
  8  9  1  0
  9 10  2  0
 10 11  1  0
 11 12  2  0
 12 13  1  0
 13 14  2  0
 14 15  1  0
 15 16  2  0
 16 17  1  0
 17 18  2  0
 10 19  1  0
 19 20  1  0
 20 21  1  0
 21 22  2  0
 22 23  1  0
 23 24  2  0
 24 25  1  0
 24 26  1  0
 26 27  2  0
 19  2  1  0
 27 21  1  0
  8  3  1  0
 18 13  1  0
  4 28  1  0
  5 29  1  0
  6 30  1  0
  7 31  1  0
 11 32  1  0
 12 33  1  0
 14 34  1  0
 15 35  1  0
 16 36  1  0
 18 37  1  0
 20 38  1  0
 20 39  1  0
 22 40  1  0
 23 41  1  0
 26 42  1  0
 27 43  1  0
M  END
>  <meeko>  (14) 
{"free_energy": -7.59, "intermolecular_energy": -9.08, "internal_energy": -1.11, "cluster_size": 5, "cluster_id": 1, "rank_in_cluster": 2}

$$$$

     RDKit          3D

 43 46  0  0  0  0  0  0  0  0999 V2000
  140.2780   71.9860  224.9940 O   0  0  0  0  0  0  0  0  0  0  0  0
  139.6900   70.8710  225.0660 C   0  0  0  0  0  0  0  0  0  0  0  0
  140.0220   69.9850  226.1070 C   0  0  0  0  0  0  0  0  0  0  0  0
  141.0030   70.2860  227.0710 C   0  0  0  0  0  0  0  0  0  0  0  0
  141.2950   69.3670  228.0850 C   0  0  0  0  0  0  0  0  0  0  0  0
  140.6120   68.1490  228.1500 C   0  0  0  0  0  0  0  0  0  0  0  0
  139.6340   67.8450  227.2010 C   0  0  0  0  0  0  0  0  0  0  0  0
  139.3400   68.7580  226.1790 C   0  0  0  0  0  0  0  0  0  0  0  0
  138.4020   68.4570  225.2540 N   0  0  0  0  0  0  0  0  0  0  0  0
  138.0980   69.3080  224.2400 C   0  0  0  0  0  0  0  0  0  0  0  0
  137.0730   68.8820  223.2730 C   0  0  0  0  0  0  0  0  0  0  0  0
  135.8750   69.4760  223.2500 C   0  0  0  0  0  0  0  0  0  0  0  0
  135.1180   69.7980  224.4760 C   0  0  0  0  0  0  0  0  0  0  0  0
  134.9570   71.1380  224.8580 C   0  0  0  0  0  0  0  0  0  0  0  0
  134.2870   71.4520  226.0450 C   0  0  0  0  0  0  0  0  0  0  0  0
  133.7980   70.4220  226.8490 C   0  0  0  0  0  0  0  0  0  0  0  0
  133.9720   69.1260  226.4740 N   0  0  0  0  0  0  0  0  0  0  0  0
  134.6040   68.7920  225.3160 C   0  0  0  0  0  0  0  0  0  0  0  0
  138.7310   70.5270  224.1400 N   0  0  0  0  0  0  0  0  0  0  0  0
  138.3500   71.4790  223.0680 C   0  0  0  0  0  0  0  0  0  0  0  0
  139.5670   71.9930  222.3390 C   0  0  0  0  0  0  0  0  0  0  0  0
  140.5260   71.0990  221.8330 C   0  0  0  0  0  0  0  0  0  0  0  0
  141.6910   71.5840  221.2310 C   0  0  0  0  0  0  0  0  0  0  0  0
  141.9020   72.9600  221.1200 C   0  0  0  0  0  0  0  0  0  0  0  0
  143.3770   73.5660  220.3920 Cl  0  0  0  0  0  0  0  0  0  0  0  0
  140.9420   73.8560  221.6030 C   0  0  0  0  0  0  0  0  0  0  0  0
  139.7740   73.3790  222.1980 C   0  0  0  0  0  0  0  0  0  0  0  0
  141.5405   71.2447  227.0270 H   0  0  0  0  0  0  0  0  0  0  0  0
  142.0650   69.6039  228.8340 H   0  0  0  0  0  0  0  0  0  0  0  0
  140.8451   67.4299  228.9490 H   0  0  0  0  0  0  0  0  0  0  0  0
  139.0939   66.8883  227.2555 H   0  0  0  0  0  0  0  0  0  0  0  0
  137.2939   68.0699  222.5647 H   0  0  0  0  0  0  0  0  0  0  0  0
  135.4348   69.7358  222.2760 H   0  0  0  0  0  0  0  0  0  0  0  0
  135.3579   71.9424  224.2237 H   0  0  0  0  0  0  0  0  0  0  0  0
  134.1469   72.5018  226.3420 H   0  0  0  0  0  0  0  0  0  0  0  0
  133.2719   70.6578  227.7858 H   0  0  0  0  0  0  0  0  0  0  0  0
  134.7134   67.7339  225.0358 H   0  0  0  0  0  0  0  0  0  0  0  0
  137.6913   70.9674  222.3508 H   0  0  0  0  0  0  0  0  0  0  0  0
  137.8320   72.3334  223.5280 H   0  0  0  0  0  0  0  0  0  0  0  0
  140.3596   70.0144  221.9108 H   0  0  0  0  0  0  0  0  0  0  0  0
  142.4428   70.8804  220.8441 H   0  0  0  0  0  0  0  0  0  0  0  0
  141.1088   74.9396  221.5133 H   0  0  0  0  0  0  0  0  0  0  0  0
  139.0129   74.0869  222.5579 H   0  0  0  0  0  0  0  0  0  0  0  0
  1  2  2  0
  2  3  1  0
  3  4  2  0
  4  5  1  0
  5  6  2  0
  6  7  1  0
  7  8  2  0
  8  9  1  0
  9 10  2  0
 10 11  1  0
 11 12  2  0
 12 13  1  0
 13 14  2  0
 14 15  1  0
 15 16  2  0
 16 17  1  0
 17 18  2  0
 10 19  1  0
 19 20  1  0
 20 21  1  0
 21 22  2  0
 22 23  1  0
 23 24  2  0
 24 25  1  0
 24 26  1  0
 26 27  2  0
 19  2  1  0
 27 21  1  0
  8  3  1  0
 18 13  1  0
  4 28  1  0
  5 29  1  0
  6 30  1  0
  7 31  1  0
 11 32  1  0
 12 33  1  0
 14 34  1  0
 15 35  1  0
 16 36  1  0
 18 37  1  0
 20 38  1  0
 20 39  1  0
 22 40  1  0
 23 41  1  0
 26 42  1  0
 27 43  1  0
M  END
>  <meeko>  (15) 
{"free_energy": -7.38, "intermolecular_energy": -8.87, "internal_energy": -1.33, "cluster_size": 3, "cluster_id": 5, "rank_in_cluster": 2}

$$$$

     RDKit          3D

 43 46  0  0  0  0  0  0  0  0999 V2000
  140.9370   73.6370  221.9140 O   0  0  0  0  0  0  0  0  0  0  0  0
  139.7840   74.1340  222.0420 C   0  0  0  0  0  0  0  0  0  0  0  0
  139.6360   75.5320  222.0540 C   0  0  0  0  0  0  0  0  0  0  0  0
  140.7330   76.4090  221.9440 C   0  0  0  0  0  0  0  0  0  0  0  0
  140.5300   77.7930  221.9630 C   0  0  0  0  0  0  0  0  0  0  0  0
  139.2380   78.3140  222.0860 C   0  0  0  0  0  0  0  0  0  0  0  0
  138.1440   77.4520  222.1900 C   0  0  0  0  0  0  0  0  0  0  0  0
  138.3410   76.0640  222.1780 C   0  0  0  0  0  0  0  0  0  0  0  0
  137.2820   75.2310  222.2910 N   0  0  0  0  0  0  0  0  0  0  0  0
  137.4320   73.8810  222.2970 C   0  0  0  0  0  0  0  0  0  0  0  0
  136.2190   73.0590  222.4420 C   0  0  0  0  0  0  0  0  0  0  0  0
  135.8240   72.6430  223.6490 C   0  0  0  0  0  0  0  0  0  0  0  0
  135.0740   73.5030  224.5860 C   0  0  0  0  0  0  0  0  0  0  0  0
  135.2720   74.8920  224.5600 C   0  0  0  0  0  0  0  0  0  0  0  0
  134.6070   75.7110  225.4770 C   0  0  0  0  0  0  0  0  0  0  0  0
  133.7620   75.1330  226.4260 C   0  0  0  0  0  0  0  0  0  0  0  0
  133.5880   73.7830  226.4500 N   0  0  0  0  0  0  0  0  0  0  0  0
  134.2090   72.9650  225.5570 C   0  0  0  0  0  0  0  0  0  0  0  0
  138.6810   73.3180  222.1640 N   0  0  0  0  0  0  0  0  0  0  0  0
  138.8310   71.8440  222.1080 C   0  0  0  0  0  0  0  0  0  0  0  0
  139.2240   71.2850  223.4540 C   0  0  0  0  0  0  0  0  0  0  0  0
  138.4710   70.2570  224.0470 C   0  0  0  0  0  0  0  0  0  0  0  0
  138.7910   69.8000  225.3280 C   0  0  0  0  0  0  0  0  0  0  0  0
  139.8670   70.3580  226.0230 C   0  0  0  0  0  0  0  0  0  0  0  0
  140.2480   69.8040  227.6430 Cl  0  0  0  0  0  0  0  0  0  0  0  0
  140.6350   71.3670  225.4310 C   0  0  0  0  0  0  0  0  0  0  0  0
  140.3250   71.8220  224.1490 C   0  0  0  0  0  0  0  0  0  0  0  0
  141.7510   76.0048  221.8430 H   0  0  0  0  0  0  0  0  0  0  0  0
  141.3899   78.4741  221.8809 H   0  0  0  0  0  0  0  0  0  0  0  0
  139.0834   79.4030  222.1008 H   0  0  0  0  0  0  0  0  0  0  0  0
  137.1275   77.8623  222.2814 H   0  0  0  0  0  0  0  0  0  0  0  0
  135.6343   72.7856  221.5513 H   0  0  0  0  0  0  0  0  0  0  0  0
  136.0681   71.6158  223.9577 H   0  0  0  0  0  0  0  0  0  0  0  0
  135.9510   75.3366  223.8175 H   0  0  0  0  0  0  0  0  0  0  0  0
  134.7483   76.8016  225.4511 H   0  0  0  0  0  0  0  0  0  0  0  0
  133.2368   75.7683  227.1544 H   0  0  0  0  0  0  0  0  0  0  0  0
  134.0342   71.8796  225.5943 H   0  0  0  0  0  0  0  0  0  0  0  0
  137.8744   71.3973  221.7991 H   0  0  0  0  0  0  0  0  0  0  0  0
  139.6233   71.6012  221.3846 H   0  0  0  0  0  0  0  0  0  0  0  0
  137.6269   69.8107  223.5008 H   0  0  0  0  0  0  0  0  0  0  0  0
  138.1947   68.9995  225.7902 H   0  0  0  0  0  0  0  0  0  0  0  0
  141.4847   71.8022  225.9774 H   0  0  0  0  0  0  0  0  0  0  0  0
  140.9422   72.6023  223.6798 H   0  0  0  0  0  0  0  0  0  0  0  0
  1  2  2  0
  2  3  1  0
  3  4  2  0
  4  5  1  0
  5  6  2  0
  6  7  1  0
  7  8  2  0
  8  9  1  0
  9 10  2  0
 10 11  1  0
 11 12  2  0
 12 13  1  0
 13 14  2  0
 14 15  1  0
 15 16  2  0
 16 17  1  0
 17 18  2  0
 10 19  1  0
 19 20  1  0
 20 21  1  0
 21 22  2  0
 22 23  1  0
 23 24  2  0
 24 25  1  0
 24 26  1  0
 26 27  2  0
 19  2  1  0
 27 21  1  0
  8  3  1  0
 18 13  1  0
  4 28  1  0
  5 29  1  0
  6 30  1  0
  7 31  1  0
 11 32  1  0
 12 33  1  0
 14 34  1  0
 15 35  1  0
 16 36  1  0
 18 37  1  0
 20 38  1  0
 20 39  1  0
 22 40  1  0
 23 41  1  0
 26 42  1  0
 27 43  1  0
M  END
>  <meeko>  (16) 
{"free_energy": -7.3, "intermolecular_energy": -8.79, "internal_energy": -1.38, "cluster_size": 3, "cluster_id": 6, "rank_in_cluster": 2}

$$$$

     RDKit          3D

 43 46  0  0  0  0  0  0  0  0999 V2000
  141.5460   71.1030  221.2340 O   0  0  0  0  0  0  0  0  0  0  0  0
  141.7640   72.3420  221.1290 C   0  0  0  0  0  0  0  0  0  0  0  0
  143.0270   72.7830  220.6970 C   0  0  0  0  0  0  0  0  0  0  0  0
  144.0740   71.8920  220.3900 C   0  0  0  0  0  0  0  0  0  0  0  0
  145.3130   72.3850  219.9650 C   0  0  0  0  0  0  0  0  0  0  0  0
  145.5170   73.7620  219.8390 C   0  0  0  0  0  0  0  0  0  0  0  0
  144.4830   74.6530  220.1360 C   0  0  0  0  0  0  0  0  0  0  0  0
  143.2410   74.1660  220.5670 C   0  0  0  0  0  0  0  0  0  0  0  0
  142.2440   75.0290  220.8660 N   0  0  0  0  0  0  0  0  0  0  0  0
  141.0320   74.5990  221.3010 C   0  0  0  0  0  0  0  0  0  0  0  0
  140.0170   75.6180  221.6170 C   0  0  0  0  0  0  0  0  0  0  0  0
  140.2300   76.5050  222.5940 C   0  0  0  0  0  0  0  0  0  0  0  0
  140.9990   77.7490  222.3910 C   0  0  0  0  0  0  0  0  0  0  0  0
  141.5120   78.4350  223.5030 C   0  0  0  0  0  0  0  0  0  0  0  0
  142.1960   79.6410  223.3260 C   0  0  0  0  0  0  0  0  0  0  0  0
  142.3480   80.1610  222.0410 C   0  0  0  0  0  0  0  0  0  0  0  0
  141.8350   79.4940  220.9710 N   0  0  0  0  0  0  0  0  0  0  0  0
  141.1800   78.3090  221.1130 C   0  0  0  0  0  0  0  0  0  0  0  0
  140.7750   73.2520  221.4280 N   0  0  0  0  0  0  0  0  0  0  0  0
  139.4290   72.7870  221.8420 C   0  0  0  0  0  0  0  0  0  0  0  0
  139.5160   71.8510  223.0230 C   0  0  0  0  0  0  0  0  0  0  0  0
  138.5120   70.8940  223.2500 C   0  0  0  0  0  0  0  0  0  0  0  0
  138.5560   70.0860  224.3890 C   0  0  0  0  0  0  0  0  0  0  0  0
  139.6040   70.2190  225.3040 C   0  0  0  0  0  0  0  0  0  0  0  0
  139.6410   69.2250  226.7470 Cl  0  0  0  0  0  0  0  0  0  0  0  0
  140.6180   71.1550  225.0730 C   0  0  0  0  0  0  0  0  0  0  0  0
  140.5840   71.9590  223.9340 C   0  0  0  0  0  0  0  0  0  0  0  0
  143.9176   70.8073  220.4844 H   0  0  0  0  0  0  0  0  0  0  0  0
  146.1292   71.6863  219.7293 H   0  0  0  0  0  0  0  0  0  0  0  0
  146.4930   74.1445  219.5056 H   0  0  0  0  0  0  0  0  0  0  0  0
  144.6432   75.7363  220.0318 H   0  0  0  0  0  0  0  0  0  0  0  0
  139.0776   75.6494  221.0455 H   0  0  0  0  0  0  0  0  0  0  0  0
  139.8147   76.2994  223.5916 H   0  0  0  0  0  0  0  0  0  0  0  0
  141.3757   78.0234  224.5139 H   0  0  0  0  0  0  0  0  0  0  0  0
  142.6110   80.1756  224.1932 H   0  0  0  0  0  0  0  0  0  0  0  0
  142.8827   81.1107  221.8920 H   0  0  0  0  0  0  0  0  0  0  0  0
  140.7911   77.7877  220.2259 H   0  0  0  0  0  0  0  0  0  0  0  0
  138.8174   73.6584  222.1187 H   0  0  0  0  0  0  0  0  0  0  0  0
  138.9726   72.2454  221.0003 H   0  0  0  0  0  0  0  0  0  0  0  0
  137.6891   70.7808  222.5288 H   0  0  0  0  0  0  0  0  0  0  0  0
  137.7640   69.3435  224.5660 H   0  0  0  0  0  0  0  0  0  0  0  0
  141.4444   71.2570  225.7918 H   0  0  0  0  0  0  0  0  0  0  0  0
  141.3938   72.6795  223.7469 H   0  0  0  0  0  0  0  0  0  0  0  0
  1  2  2  0
  2  3  1  0
  3  4  2  0
  4  5  1  0
  5  6  2  0
  6  7  1  0
  7  8  2  0
  8  9  1  0
  9 10  2  0
 10 11  1  0
 11 12  2  0
 12 13  1  0
 13 14  2  0
 14 15  1  0
 15 16  2  0
 16 17  1  0
 17 18  2  0
 10 19  1  0
 19 20  1  0
 20 21  1  0
 21 22  2  0
 22 23  1  0
 23 24  2  0
 24 25  1  0
 24 26  1  0
 26 27  2  0
 19  2  1  0
 27 21  1  0
  8  3  1  0
 18 13  1  0
  4 28  1  0
  5 29  1  0
  6 30  1  0
  7 31  1  0
 11 32  1  0
 12 33  1  0
 14 34  1  0
 15 35  1  0
 16 36  1  0
 18 37  1  0
 20 38  1  0
 20 39  1  0
 22 40  1  0
 23 41  1  0
 26 42  1  0
 27 43  1  0
M  END
>  <meeko>  (17) 
{"free_energy": -7.45, "intermolecular_energy": -8.94, "internal_energy": -1.08, "cluster_size": 5, "cluster_id": 2, "rank_in_cluster": 3}

$$$$

     RDKit          3D

 43 46  0  0  0  0  0  0  0  0999 V2000
  141.4360   71.0390  221.3520 O   0  0  0  0  0  0  0  0  0  0  0  0
  141.5380   72.2970  221.3090 C   0  0  0  0  0  0  0  0  0  0  0  0
  142.7380   72.8730  220.8580 C   0  0  0  0  0  0  0  0  0  0  0  0
  143.8470   72.0990  220.4630 C   0  0  0  0  0  0  0  0  0  0  0  0
  145.0180   72.7250  220.0230 C   0  0  0  0  0  0  0  0  0  0  0  0
  145.0940   74.1200  219.9680 C   0  0  0  0  0  0  0  0  0  0  0  0
  143.9970   74.8950  220.3520 C   0  0  0  0  0  0  0  0  0  0  0  0
  142.8220   74.2750  220.7990 C   0  0  0  0  0  0  0  0  0  0  0  0
  141.7660   75.0270  221.1820 N   0  0  0  0  0  0  0  0  0  0  0  0
  140.6150   74.4660  221.6350 C   0  0  0  0  0  0  0  0  0  0  0  0
  139.5280   75.3690  222.0440 C   0  0  0  0  0  0  0  0  0  0  0  0
  139.4830   76.6250  221.5880 C   0  0  0  0  0  0  0  0  0  0  0  0
  140.0480   77.7680  222.3320 C   0  0  0  0  0  0  0  0  0  0  0  0
  141.4330   77.9880  222.3160 C   0  0  0  0  0  0  0  0  0  0  0  0
  141.9840   79.0370  223.0590 C   0  0  0  0  0  0  0  0  0  0  0  0
  141.1460   79.8470  223.8260 C   0  0  0  0  0  0  0  0  0  0  0  0
  139.8050   79.6160  223.8440 N   0  0  0  0  0  0  0  0  0  0  0  0
  139.2410   78.6140  223.1160 C   0  0  0  0  0  0  0  0  0  0  0  0
  140.4850   73.0960  221.6950 N   0  0  0  0  0  0  0  0  0  0  0  0
  139.2030   72.4890  222.1290 C   0  0  0  0  0  0  0  0  0  0  0  0
  139.4030   71.6030  223.3350 C   0  0  0  0  0  0  0  0  0  0  0  0
  138.5410   70.5180  223.5730 C   0  0  0  0  0  0  0  0  0  0  0  0
  138.6800   69.7510  224.7340 C   0  0  0  0  0  0  0  0  0  0  0  0
  139.6830   70.0540  225.6580 C   0  0  0  0  0  0  0  0  0  0  0  0
  139.8370   69.1090  227.1270 Cl  0  0  0  0  0  0  0  0  0  0  0  0
  140.5580   71.1190  225.4170 C   0  0  0  0  0  0  0  0  0  0  0  0
  140.4290   71.8840  224.2570 C   0  0  0  0  0  0  0  0  0  0  0  0
  143.7919   71.0010  220.5006 H   0  0  0  0  0  0  0  0  0  0  0  0
  145.8829   72.1171  219.7189 H   0  0  0  0  0  0  0  0  0  0  0  0
  146.0176   74.6073  219.6224 H   0  0  0  0  0  0  0  0  0  0  0  0
  144.0553   75.9924  220.3036 H   0  0  0  0  0  0  0  0  0  0  0  0
  138.7470   75.0084  222.7296 H   0  0  0  0  0  0  0  0  0  0  0  0
  139.0041   76.8149  220.6161 H   0  0  0  0  0  0  0  0  0  0  0  0
  142.0864   77.3351  221.7187 H   0  0  0  0  0  0  0  0  0  0  0  0
  143.0682   79.2218  223.0389 H   0  0  0  0  0  0  0  0  0  0  0  0
  141.5695   80.6728  224.4165 H   0  0  0  0  0  0  0  0  0  0  0  0
  138.1514   78.4648  223.1403 H   0  0  0  0  0  0  0  0  0  0  0  0
  138.4944   73.2904  222.3853 H   0  0  0  0  0  0  0  0  0  0  0  0
  138.8101   71.8750  221.3052 H   0  0  0  0  0  0  0  0  0  0  0  0
  137.7550   70.2718  222.8439 H   0  0  0  0  0  0  0  0  0  0  0  0
  137.9985   68.9078  224.9200 H   0  0  0  0  0  0  0  0  0  0  0  0
  141.3496   71.3538  226.1438 H   0  0  0  0  0  0  0  0  0  0  0  0
  141.1307   72.7085  224.0626 H   0  0  0  0  0  0  0  0  0  0  0  0
  1  2  2  0
  2  3  1  0
  3  4  2  0
  4  5  1  0
  5  6  2  0
  6  7  1  0
  7  8  2  0
  8  9  1  0
  9 10  2  0
 10 11  1  0
 11 12  2  0
 12 13  1  0
 13 14  2  0
 14 15  1  0
 15 16  2  0
 16 17  1  0
 17 18  2  0
 10 19  1  0
 19 20  1  0
 20 21  1  0
 21 22  2  0
 22 23  1  0
 23 24  2  0
 24 25  1  0
 24 26  1  0
 26 27  2  0
 19  2  1  0
 27 21  1  0
  8  3  1  0
 18 13  1  0
  4 28  1  0
  5 29  1  0
  6 30  1  0
  7 31  1  0
 11 32  1  0
 12 33  1  0
 14 34  1  0
 15 35  1  0
 16 36  1  0
 18 37  1  0
 20 38  1  0
 20 39  1  0
 22 40  1  0
 23 41  1  0
 26 42  1  0
 27 43  1  0
M  END
>  <meeko>  (18) 
{"free_energy": -7.41, "intermolecular_energy": -8.9, "internal_energy": -1.13, "cluster_size": 5, "cluster_id": 2, "rank_in_cluster": 4}

$$$$

     RDKit          3D

 43 46  0  0  0  0  0  0  0  0999 V2000
  141.2060   71.0040  221.4480 O   0  0  0  0  0  0  0  0  0  0  0  0
  141.2510   72.2640  221.3790 C   0  0  0  0  0  0  0  0  0  0  0  0
  142.3950   72.8810  220.8430 C   0  0  0  0  0  0  0  0  0  0  0  0
  143.5080   72.1460  220.3890 C   0  0  0  0  0  0  0  0  0  0  0  0
  144.6210   72.8110  219.8650 C   0  0  0  0  0  0  0  0  0  0  0  0
  144.6340   74.2070  219.7830 C   0  0  0  0  0  0  0  0  0  0  0  0
  143.5330   74.9430  220.2250 C   0  0  0  0  0  0  0  0  0  0  0  0
  142.4160   74.2830  220.7570 C   0  0  0  0  0  0  0  0  0  0  0  0
  141.3550   74.9980  221.1950 N   0  0  0  0  0  0  0  0  0  0  0  0
  140.2610   74.3980  221.7300 C   0  0  0  0  0  0  0  0  0  0  0  0
  139.1640   75.2630  222.1950 C   0  0  0  0  0  0  0  0  0  0  0  0
  139.0630   76.5220  221.7570 C   0  0  0  0  0  0  0  0  0  0  0  0
  139.7060   77.6620  222.4400 C   0  0  0  0  0  0  0  0  0  0  0  0
  141.0840   77.6250  222.7010 C   0  0  0  0  0  0  0  0  0  0  0  0
  141.6940   78.6750  223.3940 C   0  0  0  0  0  0  0  0  0  0  0  0
  140.9180   79.7470  223.8360 C   0  0  0  0  0  0  0  0  0  0  0  0
  139.5800   79.7660  223.5880 N   0  0  0  0  0  0  0  0  0  0  0  0
  138.9640   78.7660  222.9000 C   0  0  0  0  0  0  0  0  0  0  0  0
  140.1920   73.0250  221.8200 N   0  0  0  0  0  0  0  0  0  0  0  0
  138.9680   72.3740  222.3450 C   0  0  0  0  0  0  0  0  0  0  0  0
  139.2820   71.5180  223.5490 C   0  0  0  0  0  0  0  0  0  0  0  0
  138.5080   70.3810  223.8360 C   0  0  0  0  0  0  0  0  0  0  0  0
  138.7510   69.6390  224.9960 C   0  0  0  0  0  0  0  0  0  0  0  0
  139.7720   70.0200  225.8700 C   0  0  0  0  0  0  0  0  0  0  0  0
  140.0560   69.1050  227.3390 Cl  0  0  0  0  0  0  0  0  0  0  0  0
  140.5610   71.1380  225.5790 C   0  0  0  0  0  0  0  0  0  0  0  0
  140.3270   71.8780  224.4200 C   0  0  0  0  0  0  0  0  0  0  0  0
  143.5014   71.0475  220.4468 H   0  0  0  0  0  0  0  0  0  0  0  0
  145.4898   72.2337  219.5159 H   0  0  0  0  0  0  0  0  0  0  0  0
  145.5120   74.7254  219.3701 H   0  0  0  0  0  0  0  0  0  0  0  0
  143.5418   76.0408  220.1559 H   0  0  0  0  0  0  0  0  0  0  0  0
  138.4230   74.8709  222.9072 H   0  0  0  0  0  0  0  0  0  0  0  0
  138.4751   76.7171  220.8480 H   0  0  0  0  0  0  0  0  0  0  0  0
  141.6850   76.7691  222.3601 H   0  0  0  0  0  0  0  0  0  0  0  0
  142.7764   78.6561  223.5891 H   0  0  0  0  0  0  0  0  0  0  0  0
  141.3876   80.5766  224.3848 H   0  0  0  0  0  0  0  0  0  0  0  0
  137.8832   78.8209  222.7029 H   0  0  0  0  0  0  0  0  0  0  0  0
  138.2442   73.1500  222.6347 H   0  0  0  0  0  0  0  0  0  0  0  0
  138.5494   71.7299  221.5577 H   0  0  0  0  0  0  0  0  0  0  0  0
  137.7084   70.0736  223.1460 H   0  0  0  0  0  0  0  0  0  0  0  0
  138.1374   68.7541  225.2206 H   0  0  0  0  0  0  0  0  0  0  0  0
  141.3677   71.4342  226.2657 H   0  0  0  0  0  0  0  0  0  0  0  0
  140.9613   72.7457  224.1861 H   0  0  0  0  0  0  0  0  0  0  0  0
  1  2  2  0
  2  3  1  0
  3  4  2  0
  4  5  1  0
  5  6  2  0
  6  7  1  0
  7  8  2  0
  8  9  1  0
  9 10  2  0
 10 11  1  0
 11 12  2  0
 12 13  1  0
 13 14  2  0
 14 15  1  0
 15 16  2  0
 16 17  1  0
 17 18  2  0
 10 19  1  0
 19 20  1  0
 20 21  1  0
 21 22  2  0
 22 23  1  0
 23 24  2  0
 24 25  1  0
 24 26  1  0
 26 27  2  0
 19  2  1  0
 27 21  1  0
  8  3  1  0
 18 13  1  0
  4 28  1  0
  5 29  1  0
  6 30  1  0
  7 31  1  0
 11 32  1  0
 12 33  1  0
 14 34  1  0
 15 35  1  0
 16 36  1  0
 18 37  1  0
 20 38  1  0
 20 39  1  0
 22 40  1  0
 23 41  1  0
 26 42  1  0
 27 43  1  0
M  END
>  <meeko>  (19) 
{"free_energy": -7.4, "intermolecular_energy": -8.89, "internal_energy": -1.14, "cluster_size": 5, "cluster_id": 2, "rank_in_cluster": 5}

$$$$

     RDKit          3D

 43 46  0  0  0  0  0  0  0  0999 V2000
  137.5770   73.0100  222.7020 O   0  0  0  0  0  0  0  0  0  0  0  0
  138.7210   73.3140  222.2630 C   0  0  0  0  0  0  0  0  0  0  0  0
  139.0390   74.6680  222.0530 C   0  0  0  0  0  0  0  0  0  0  0  0
  138.1200   75.7070  222.3000 C   0  0  0  0  0  0  0  0  0  0  0  0
  138.4880   77.0370  222.0720 C   0  0  0  0  0  0  0  0  0  0  0  0
  139.7700   77.3440  221.6050 C   0  0  0  0  0  0  0  0  0  0  0  0
  140.6890   76.3200  221.3620 C   0  0  0  0  0  0  0  0  0  0  0  0
  140.3250   74.9840  221.5830 C   0  0  0  0  0  0  0  0  0  0  0  0
  141.2110   73.9940  221.3370 N   0  0  0  0  0  0  0  0  0  0  0  0
  140.8930   72.6870  221.5230 C   0  0  0  0  0  0  0  0  0  0  0  0
  141.9220   71.6810  221.2110 C   0  0  0  0  0  0  0  0  0  0  0  0
  142.6910   71.8140  220.1260 C   0  0  0  0  0  0  0  0  0  0  0  0
  144.0200   72.4570  220.1610 C   0  0  0  0  0  0  0  0  0  0  0  0
  144.1820   73.6750  220.8400 C   0  0  0  0  0  0  0  0  0  0  0  0
  145.4220   74.3190  220.8350 C   0  0  0  0  0  0  0  0  0  0  0  0
  146.4880   73.7490  220.1380 C   0  0  0  0  0  0  0  0  0  0  0  0
  146.3160   72.5750  219.4720 N   0  0  0  0  0  0  0  0  0  0  0  0
  145.1240   71.9170  219.4760 C   0  0  0  0  0  0  0  0  0  0  0  0
  139.6490   72.3330  221.9970 N   0  0  0  0  0  0  0  0  0  0  0  0
  139.3300   70.9090  222.2590 C   0  0  0  0  0  0  0  0  0  0  0  0
  139.6010   70.5470  223.6990 C   0  0  0  0  0  0  0  0  0  0  0  0
  140.3640   71.3980  224.5170 C   0  0  0  0  0  0  0  0  0  0  0  0
  140.6800   71.0190  225.8250 C   0  0  0  0  0  0  0  0  0  0  0  0
  140.2310   69.7960  226.3290 C   0  0  0  0  0  0  0  0  0  0  0  0
  140.6540   69.3100  227.9590 Cl  0  0  0  0  0  0  0  0  0  0  0  0
  139.4530   68.9530  225.5270 C   0  0  0  0  0  0  0  0  0  0  0  0
  139.1280   69.3290  224.2240 C   0  0  0  0  0  0  0  0  0  0  0  0
  137.1120   75.4720  222.6725 H   0  0  0  0  0  0  0  0  0  0  0  0
  137.7659   77.8450  222.2608 H   0  0  0  0  0  0  0  0  0  0  0  0
  140.0549   78.3918  221.4290 H   0  0  0  0  0  0  0  0  0  0  0  0
  141.6982   76.5619  220.9973 H   0  0  0  0  0  0  0  0  0  0  0  0
  142.0586   70.8147  221.8750 H   0  0  0  0  0  0  0  0  0  0  0  0
  142.3180   71.4280  219.1659 H   0  0  0  0  0  0  0  0  0  0  0  0
  143.3323   74.1226  221.3763 H   0  0  0  0  0  0  0  0  0  0  0  0
  145.5567   75.2673  221.3759 H   0  0  0  0  0  0  0  0  0  0  0  0
  147.4678   74.2489  220.1269 H   0  0  0  0  0  0  0  0  0  0  0  0
  145.0238   70.9605  218.9421 H   0  0  0  0  0  0  0  0  0  0  0  0
  138.2669   70.7326  222.0383 H   0  0  0  0  0  0  0  0  0  0  0  0
  139.9675   70.2843  221.6160 H   0  0  0  0  0  0  0  0  0  0  0  0
  140.7136   72.3652  224.1268 H   0  0  0  0  0  0  0  0  0  0  0  0
  141.2836   71.6854  226.4588 H   0  0  0  0  0  0  0  0  0  0  0  0
  139.0970   67.9915  225.9255 H   0  0  0  0  0  0  0  0  0  0  0  0
  138.5001   68.6720  223.6043 H   0  0  0  0  0  0  0  0  0  0  0  0
  1  2  2  0
  2  3  1  0
  3  4  2  0
  4  5  1  0
  5  6  2  0
  6  7  1  0
  7  8  2  0
  8  9  1  0
  9 10  2  0
 10 11  1  0
 11 12  2  0
 12 13  1  0
 13 14  2  0
 14 15  1  0
 15 16  2  0
 16 17  1  0
 17 18  2  0
 10 19  1  0
 19 20  1  0
 20 21  1  0
 21 22  2  0
 22 23  1  0
 23 24  2  0
 24 25  1  0
 24 26  1  0
 26 27  2  0
 19  2  1  0
 27 21  1  0
  8  3  1  0
 18 13  1  0
  4 28  1  0
  5 29  1  0
  6 30  1  0
  7 31  1  0
 11 32  1  0
 12 33  1  0
 14 34  1  0
 15 35  1  0
 16 36  1  0
 18 37  1  0
 20 38  1  0
 20 39  1  0
 22 40  1  0
 23 41  1  0
 26 42  1  0
 27 43  1  0
M  END
>  <meeko>  (20) 
{"free_energy": -7.48, "intermolecular_energy": -8.97, "internal_energy": -1.21, "cluster_size": 5, "cluster_id": 1, "rank_in_cluster": 4}

$$$$
