
     RDKit          3D

 59 64  0  0  0  0  0  0  0  0999 V2000
  133.9110   76.7710  227.4190 N   0  0  0  0  0  0  0  0  0  0  0  0
  132.9210   75.9590  226.7780 C   0  0  0  0  0  0  0  0  0  0  0  0
  131.9050   76.5190  226.2810 O   0  0  0  0  0  0  0  0  0  0  0  0
  133.0560   74.4830  226.6970 C   0  0  0  0  0  0  0  0  0  0  0  0
  132.1980   73.6530  227.4710 C   0  0  0  0  0  0  0  0  0  0  0  0
  132.2850   72.2500  227.3980 C   0  0  0  0  0  0  0  0  0  0  0  0
  133.2390   71.7020  226.5510 C   0  0  0  0  0  0  0  0  0  0  0  0
  133.5210   70.3880  226.2490 C   0  0  0  0  0  0  0  0  0  0  0  0
  134.5460   70.4500  225.3080 C   0  0  0  0  0  0  0  0  0  0  0  0
  135.1550   69.2880  224.6370 C   0  0  0  0  0  0  0  0  0  0  0  0
  134.4760   68.2400  224.4760 O   0  0  0  0  0  0  0  0  0  0  0  0
  136.4860   69.3490  224.1160 N   0  0  0  0  0  0  0  0  0  0  0  0
  137.5430   70.1800  224.6880 C   0  0  0  0  0  0  0  0  0  0  0  0
  138.8760   69.6800  224.0260 C   0  0  1  0  0  0  0  0  0  0  0  0
  139.6850   70.8190  223.4300 C   0  0  0  0  0  0  0  0  0  0  0  0
  140.5540   71.2610  224.5920 C   0  0  0  0  0  0  0  0  0  0  0  0
  140.8660   70.0580  225.3830 N   0  0  0  0  0  0  0  0  0  0  0  0
  140.9340   70.3360  226.8360 C   0  0  2  0  0  0  0  0  0  0  0  0
  139.6410   69.9820  227.5480 C   0  0  0  0  0  0  0  0  0  0  0  0
  139.5760   70.9500  228.7140 C   0  0  0  0  0  0  0  0  0  0  0  0
  140.4300   72.0980  228.4040 N   0  0  0  0  0  0  0  0  0  0  0  0
  141.0670   71.8300  227.1180 C   0  0  0  0  0  0  0  0  0  0  0  0
  139.8370   69.0510  225.0480 C   0  0  0  0  0  0  0  0  0  0  0  0
  138.3930   68.6870  223.0040 C   0  0  0  0  0  0  0  0  0  0  0  0
  139.1390   67.9580  222.0720 C   0  0  0  0  0  0  0  0  0  0  0  0
  138.4660   67.0710  221.2160 C   0  0  0  0  0  0  0  0  0  0  0  0
  137.0710   66.9260  221.3020 C   0  0  0  0  0  0  0  0  0  0  0  0
  136.3410   67.6600  222.2490 C   0  0  0  0  0  0  0  0  0  0  0  0
  137.0370   68.5220  223.1040 C   0  0  0  0  0  0  0  0  0  0  0  0
  134.8730   71.7360  225.0320 N   0  0  0  0  0  0  0  0  0  0  0  0
  134.0700   72.4880  225.7990 C   0  0  0  0  0  0  0  0  0  0  0  0
  134.0030   73.8800  225.8380 C   0  0  0  0  0  0  0  0  0  0  0  0
  133.8170   77.8100  227.4030 H   0  0  0  0  0  0  0  0  0  0  0  0
  134.6960   76.3620  227.9730 H   0  0  0  0  0  0  0  0  0  0  0  0
  131.4546   74.1151  228.1372 H   0  0  0  0  0  0  0  0  0  0  0  0
  131.6185   71.6083  227.9929 H   0  0  0  0  0  0  0  0  0  0  0  0
  133.0419   69.4874  226.6606 H   0  0  0  0  0  0  0  0  0  0  0  0
  137.3697   71.2399  224.4499 H   0  0  0  0  0  0  0  0  0  0  0  0
  137.5770   70.0987  225.7845 H   0  0  0  0  0  0  0  0  0  0  0  0
  140.2991   70.4695  222.5869 H   0  0  0  0  0  0  0  0  0  0  0  0
  139.0613   71.6278  223.0215 H   0  0  0  0  0  0  0  0  0  0  0  0
  141.4821   71.7169  224.2168 H   0  0  0  0  0  0  0  0  0  0  0  0
  140.0332   72.0094  225.2073 H   0  0  0  0  0  0  0  0  0  0  0  0
  141.7938   69.7442  227.1832 H   0  0  0  0  0  0  0  0  0  0  0  0
  138.7783   70.1191  226.8795 H   0  0  0  0  0  0  0  0  0  0  0  0
  139.6150   68.9314  227.8729 H   0  0  0  0  0  0  0  0  0  0  0  0
  138.5391   71.2863  228.8613 H   0  0  0  0  0  0  0  0  0  0  0  0
  139.9205   70.4582  229.6356 H   0  0  0  0  0  0  0  0  0  0  0  0
  139.8350   72.9540  228.3160 H   0  0  0  0  0  0  0  0  0  0  0  0
  140.5678   72.4067  226.3254 H   0  0  0  0  0  0  0  0  0  0  0  0
  142.1267   72.1240  227.1445 H   0  0  0  0  0  0  0  0  0  0  0  0
  140.3136   68.1598  224.6137 H   0  0  0  0  0  0  0  0  0  0  0  0
  139.2895   68.7469  225.9523 H   0  0  0  0  0  0  0  0  0  0  0  0
  140.2308   68.0770  222.0108 H   0  0  0  0  0  0  0  0  0  0  0  0
  139.0330   66.4877  220.4756 H   0  0  0  0  0  0  0  0  0  0  0  0
  136.5493   66.2343  220.6242 H   0  0  0  0  0  0  0  0  0  0  0  0
  135.2477   67.5603  222.3178 H   0  0  0  0  0  0  0  0  0  0  0  0
  135.5710   72.0800  224.3360 H   0  0  0  0  0  0  0  0  0  0  0  0
  134.6706   74.4940  225.2156 H   0  0  0  0  0  0  0  0  0  0  0  0
  1  2  1  0
  2  3  2  0
  2  4  1  0
  4  5  2  0
  5  6  1  0
  6  7  2  0
  7  8  1  0
  8  9  2  0
  9 10  1  0
 10 11  2  0
 10 12  1  0
 12 13  1  0
 14 13  1  1
 14 15  1  0
 15 16  1  0
 16 17  1  0
 17 18  1  0
 18 19  1  0
 19 20  1  0
 20 21  1  0
 21 22  1  0
 17 23  1  0
 14 24  1  0
 24 25  2  0
 25 26  1  0
 26 27  2  0
 27 28  1  0
 28 29  2  0
  9 30  1  0
 30 31  1  0
 31 32  2  0
 32  4  1  0
 31  7  1  0
 29 12  1  0
 23 14  1  0
 29 24  1  0
 22 18  1  0
  1 33  1  0
  1 34  1  0
  5 35  1  0
  6 36  1  0
  8 37  1  0
 13 38  1  0
 13 39  1  0
 15 40  1  0
 15 41  1  0
 16 42  1  0
 16 43  1  0
 18 44  1  1
 19 45  1  0
 19 46  1  0
 20 47  1  0
 20 48  1  0
 21 49  1  0
 22 50  1  0
 22 51  1  0
 23 52  1  0
 23 53  1  0
 25 54  1  0
 26 55  1  0
 27 56  1  0
 28 57  1  0
 30 58  1  0
 32 59  1  0
M  END
>  <meeko>  (1) 
{"free_energy": -8.19, "intermolecular_energy": -9.38, "internal_energy": -1.18, "cluster_size": 1, "cluster_id": 4, "rank_in_cluster": 1}

$$$$

     RDKit          3D

 59 64  0  0  0  0  0  0  0  0999 V2000
  131.7170   73.7620  228.1020 N   0  0  0  0  0  0  0  0  0  0  0  0
  132.8100   73.4980  227.2160 C   0  0  0  0  0  0  0  0  0  0  0  0
  133.3260   72.3460  227.2140 O   0  0  0  0  0  0  0  0  0  0  0  0
  133.3540   74.5450  226.3150 C   0  0  0  0  0  0  0  0  0  0  0  0
  132.6680   75.7850  226.1800 C   0  0  0  0  0  0  0  0  0  0  0  0
  133.1710   76.8060  225.3530 C   0  0  0  0  0  0  0  0  0  0  0  0
  134.3550   76.5630  224.6670 C   0  0  0  0  0  0  0  0  0  0  0  0
  135.0910   77.3760  223.8350 C   0  0  0  0  0  0  0  0  0  0  0  0
  136.2000   76.6110  223.4780 C   0  0  0  0  0  0  0  0  0  0  0  0
  137.3140   77.0740  222.6320 C   0  0  0  0  0  0  0  0  0  0  0  0
  137.7440   76.3300  221.7120 O   0  0  0  0  0  0  0  0  0  0  0  0
  137.8790   78.3770  222.8030 N   0  0  0  0  0  0  0  0  0  0  0  0
  137.0890   79.5750  223.0760 C   0  0  0  0  0  0  0  0  0  0  0  0
  138.1240   80.6700  223.5160 C   0  0  1  0  0  0  0  0  0  0  0  0
  137.9620   81.9620  222.7320 C   0  0  0  0  0  0  0  0  0  0  0  0
  136.9540   82.7360  223.5600 C   0  0  0  0  0  0  0  0  0  0  0  0
  137.1940   82.3920  224.9730 N   0  0  0  0  0  0  0  0  0  0  0  0
  135.9440   82.3330  225.7630 C   0  0  2  0  0  0  0  0  0  0  0  0
  136.1540   82.7700  227.2020 C   0  0  0  0  0  0  0  0  0  0  0  0
  135.1210   81.9850  227.9880 C   0  0  0  0  0  0  0  0  0  0  0  0
  134.7340   80.8160  227.1960 N   0  0  0  0  0  0  0  0  0  0  0  0
  135.4450   80.9000  225.9230 C   0  0  0  0  0  0  0  0  0  0  0  0
  137.9270   81.1080  224.9770 C   0  0  0  0  0  0  0  0  0  0  0  0
  139.4490   79.9930  223.2920 C   0  0  0  0  0  0  0  0  0  0  0  0
  140.7360   80.5120  223.4620 C   0  0  0  0  0  0  0  0  0  0  0  0
  141.8370   79.6820  223.2000 C   0  0  0  0  0  0  0  0  0  0  0  0
  141.6390   78.3570  222.7740 C   0  0  0  0  0  0  0  0  0  0  0  0
  140.3400   77.8520  222.6170 C   0  0  0  0  0  0  0  0  0  0  0  0
  139.2590   78.6930  222.9040 C   0  0  0  0  0  0  0  0  0  0  0  0
  136.1580   75.3930  224.0690 N   0  0  0  0  0  0  0  0  0  0  0  0
  135.0260   75.3770  224.7890 C   0  0  0  0  0  0  0  0  0  0  0  0
  134.5630   74.3480  225.6090 C   0  0  0  0  0  0  0  0  0  0  0  0
  131.3180   72.9870  228.6760 H   0  0  0  0  0  0  0  0  0  0  0  0
  131.3440   74.7250  228.2570 H   0  0  0  0  0  0  0  0  0  0  0  0
  131.7299   75.9475  226.7309 H   0  0  0  0  0  0  0  0  0  0  0  0
  132.6438   77.7662  225.2525 H   0  0  0  0  0  0  0  0  0  0  0  0
  134.8556   78.4036  223.5209 H   0  0  0  0  0  0  0  0  0  0  0  0
  136.5519   79.8955  222.1712 H   0  0  0  0  0  0  0  0  0  0  0  0
  136.3309   79.3952  223.8525 H   0  0  0  0  0  0  0  0  0  0  0  0
  138.9163   82.5045  222.6615 H   0  0  0  0  0  0  0  0  0  0  0  0
  137.6395   81.8021  221.6926 H   0  0  0  0  0  0  0  0  0  0  0  0
  137.0909   83.8166  223.4068 H   0  0  0  0  0  0  0  0  0  0  0  0
  135.9262   82.4782  223.2647 H   0  0  0  0  0  0  0  0  0  0  0  0
  135.2475   82.9823  225.2122 H   0  0  0  0  0  0  0  0  0  0  0  0
  137.1711   82.5223  227.5397 H   0  0  0  0  0  0  0  0  0  0  0  0
  136.0429   83.8567  227.3311 H   0  0  0  0  0  0  0  0  0  0  0  0
  135.5512   81.6594  228.9466 H   0  0  0  0  0  0  0  0  0  0  0  0
  134.2415   82.6133  228.1923 H   0  0  0  0  0  0  0  0  0  0  0  0
  135.0340   79.9480  227.6960 H   0  0  0  0  0  0  0  0  0  0  0  0
  136.2973   80.2046  225.9235 H   0  0  0  0  0  0  0  0  0  0  0  0
  134.7781   80.6295  225.0911 H   0  0  0  0  0  0  0  0  0  0  0  0
  138.9052   81.2379  225.4631 H   0  0  0  0  0  0  0  0  0  0  0  0
  137.3604   80.3457  225.5319 H   0  0  0  0  0  0  0  0  0  0  0  0
  140.8827   81.5502  223.7945 H   0  0  0  0  0  0  0  0  0  0  0  0
  142.8584   80.0696  223.3284 H   0  0  0  0  0  0  0  0  0  0  0  0
  142.5061   77.7139  222.5630 H   0  0  0  0  0  0  0  0  0  0  0  0
  140.1748   76.8192  222.2763 H   0  0  0  0  0  0  0  0  0  0  0  0
  136.8740   74.6350  224.0170 H   0  0  0  0  0  0  0  0  0  0  0  0
  135.1244   73.4068  225.7040 H   0  0  0  0  0  0  0  0  0  0  0  0
  1  2  1  0
  2  3  2  0
  2  4  1  0
  4  5  2  0
  5  6  1  0
  6  7  2  0
  7  8  1  0
  8  9  2  0
  9 10  1  0
 10 11  2  0
 10 12  1  0
 12 13  1  0
 14 13  1  6
 14 15  1  0
 15 16  1  0
 16 17  1  0
 17 18  1  0
 18 19  1  0
 19 20  1  0
 20 21  1  0
 21 22  1  0
 17 23  1  0
 14 24  1  0
 24 25  2  0
 25 26  1  0
 26 27  2  0
 27 28  1  0
 28 29  2  0
  9 30  1  0
 30 31  1  0
 31 32  2  0
 32  4  1  0
 31  7  1  0
 29 12  1  0
 23 14  1  0
 29 24  1  0
 22 18  1  0
  1 33  1  0
  1 34  1  0
  5 35  1  0
  6 36  1  0
  8 37  1  0
 13 38  1  0
 13 39  1  0
 15 40  1  0
 15 41  1  0
 16 42  1  0
 16 43  1  0
 18 44  1  6
 19 45  1  0
 19 46  1  0
 20 47  1  0
 20 48  1  0
 21 49  1  0
 22 50  1  0
 22 51  1  0
 23 52  1  0
 23 53  1  0
 25 54  1  0
 26 55  1  0
 27 56  1  0
 28 57  1  0
 30 58  1  0
 32 59  1  0
M  END
>  <meeko>  (2) 
{"free_energy": -8.56, "intermolecular_energy": -9.75, "internal_energy": -1.29, "cluster_size": 9, "cluster_id": 3, "rank_in_cluster": 8}

$$$$

     RDKit          3D

 59 64  0  0  0  0  0  0  0  0999 V2000
  131.7280   73.8130  228.0970 N   0  0  0  0  0  0  0  0  0  0  0  0
  132.8220   73.5440  227.2130 C   0  0  0  0  0  0  0  0  0  0  0  0
  133.3390   72.3930  227.2190 O   0  0  0  0  0  0  0  0  0  0  0  0
  133.3660   74.5860  226.3050 C   0  0  0  0  0  0  0  0  0  0  0  0
  132.6700   75.8180  226.1490 C   0  0  0  0  0  0  0  0  0  0  0  0
  133.1720   76.8340  225.3150 C   0  0  0  0  0  0  0  0  0  0  0  0
  134.3650   76.5940  224.6440 C   0  0  0  0  0  0  0  0  0  0  0  0
  135.1020   77.4040  223.8090 C   0  0  0  0  0  0  0  0  0  0  0  0
  136.2210   76.6450  223.4730 C   0  0  0  0  0  0  0  0  0  0  0  0
  137.3390   77.1080  222.6320 C   0  0  0  0  0  0  0  0  0  0  0  0
  137.7780   76.3610  221.7190 O   0  0  0  0  0  0  0  0  0  0  0  0
  137.8990   78.4130  222.8020 N   0  0  0  0  0  0  0  0  0  0  0  0
  137.1030   79.6100  223.0640 C   0  0  0  0  0  0  0  0  0  0  0  0
  138.1300   80.7110  223.5060 C   0  0  1  0  0  0  0  0  0  0  0  0
  137.9690   81.9980  222.7160 C   0  0  0  0  0  0  0  0  0  0  0  0
  136.9520   82.7720  223.5330 C   0  0  0  0  0  0  0  0  0  0  0  0
  137.1840   82.4350  224.9490 N   0  0  0  0  0  0  0  0  0  0  0  0
  135.9290   82.3750  225.7300 C   0  0  2  0  0  0  0  0  0  0  0  0
  136.1250   82.8310  227.1660 C   0  0  0  0  0  0  0  0  0  0  0  0
  135.0930   82.0470  227.9530 C   0  0  0  0  0  0  0  0  0  0  0  0
  134.7210   80.8660  227.1730 N   0  0  0  0  0  0  0  0  0  0  0  0
  135.4410   80.9410  225.9040 C   0  0  0  0  0  0  0  0  0  0  0  0
  137.9220   81.1540  224.9640 C   0  0  0  0  0  0  0  0  0  0  0  0
  139.4590   80.0380  223.2940 C   0  0  0  0  0  0  0  0  0  0  0  0
  140.7430   80.5620  223.4710 C   0  0  0  0  0  0  0  0  0  0  0  0
  141.8490   79.7350  223.2190 C   0  0  0  0  0  0  0  0  0  0  0  0
  141.6590   78.4070  222.7980 C   0  0  0  0  0  0  0  0  0  0  0  0
  140.3620   77.8970  222.6340 C   0  0  0  0  0  0  0  0  0  0  0  0
  139.2760   78.7360  222.9110 C   0  0  0  0  0  0  0  0  0  0  0  0
  136.1840   75.4330  224.0780 N   0  0  0  0  0  0  0  0  0  0  0  0
  135.0450   75.4160  224.7860 C   0  0  0  0  0  0  0  0  0  0  0  0
  134.5830   74.3920  225.6130 C   0  0  0  0  0  0  0  0  0  0  0  0
  131.3300   73.0430  228.6750 H   0  0  0  0  0  0  0  0  0  0  0  0
  131.3540   74.7770  228.2440 H   0  0  0  0  0  0  0  0  0  0  0  0
  131.7251   75.9782  226.6889 H   0  0  0  0  0  0  0  0  0  0  0  0
  132.6371   77.7880  225.1979 H   0  0  0  0  0  0  0  0  0  0  0  0
  134.8604   78.4254  223.4798 H   0  0  0  0  0  0  0  0  0  0  0  0
  136.5711   79.9242  222.1539 H   0  0  0  0  0  0  0  0  0  0  0  0
  136.3405   79.4309  223.8364 H   0  0  0  0  0  0  0  0  0  0  0  0
  138.9218   82.5438  222.6502 H   0  0  0  0  0  0  0  0  0  0  0  0
  137.6546   81.8323  221.6750 H   0  0  0  0  0  0  0  0  0  0  0  0
  137.0857   83.8525  223.3758 H   0  0  0  0  0  0  0  0  0  0  0  0
  135.9272   82.5094  223.2317 H   0  0  0  0  0  0  0  0  0  0  0  0
  135.2314   83.0116  225.1660 H   0  0  0  0  0  0  0  0  0  0  0  0
  137.1416   82.5957  227.5141 H   0  0  0  0  0  0  0  0  0  0  0  0
  136.0042   83.9182  227.2816 H   0  0  0  0  0  0  0  0  0  0  0  0
  135.5187   81.7362  228.9185 H   0  0  0  0  0  0  0  0  0  0  0  0
  134.2069   82.6706  228.1429 H   0  0  0  0  0  0  0  0  0  0  0  0
  135.0250   80.0060  227.6860 H   0  0  0  0  0  0  0  0  0  0  0  0
  136.2990   80.2528  225.9192 H   0  0  0  0  0  0  0  0  0  0  0  0
  134.7823   80.6551  225.0707 H   0  0  0  0  0  0  0  0  0  0  0  0
  138.8964   81.2898  225.4560 H   0  0  0  0  0  0  0  0  0  0  0  0
  137.3552   80.3918  225.5188 H   0  0  0  0  0  0  0  0  0  0  0  0
  140.8838   81.6018  223.8012 H   0  0  0  0  0  0  0  0  0  0  0  0
  142.8681   80.1274  223.3514 H   0  0  0  0  0  0  0  0  0  0  0  0
  142.5298   77.7658  222.5966 H   0  0  0  0  0  0  0  0  0  0  0  0
  140.2024   76.8625  222.2958 H   0  0  0  0  0  0  0  0  0  0  0  0
  136.9070   74.6810  224.0410 H   0  0  0  0  0  0  0  0  0  0  0  0
  135.1516   73.4569  225.7238 H   0  0  0  0  0  0  0  0  0  0  0  0
  1  2  1  0
  2  3  2  0
  2  4  1  0
  4  5  2  0
  5  6  1  0
  6  7  2  0
  7  8  1  0
  8  9  2  0
  9 10  1  0
 10 11  2  0
 10 12  1  0
 12 13  1  0
 14 13  1  6
 14 15  1  0
 15 16  1  0
 16 17  1  0
 17 18  1  0
 18 19  1  0
 19 20  1  0
 20 21  1  0
 21 22  1  0
 17 23  1  0
 14 24  1  0
 24 25  2  0
 25 26  1  0
 26 27  2  0
 27 28  1  0
 28 29  2  0
  9 30  1  0
 30 31  1  0
 31 32  2  0
 32  4  1  0
 31  7  1  0
 29 12  1  0
 23 14  1  0
 29 24  1  0
 22 18  1  0
  1 33  1  0
  1 34  1  0
  5 35  1  0
  6 36  1  0
  8 37  1  0
 13 38  1  0
 13 39  1  0
 15 40  1  0
 15 41  1  0
 16 42  1  0
 16 43  1  0
 18 44  1  6
 19 45  1  0
 19 46  1  0
 20 47  1  0
 20 48  1  0
 21 49  1  0
 22 50  1  0
 22 51  1  0
 23 52  1  0
 23 53  1  0
 25 54  1  0
 26 55  1  0
 27 56  1  0
 28 57  1  0
 30 58  1  0
 32 59  1  0
M  END
>  <meeko>  (3) 
{"free_energy": -8.57, "intermolecular_energy": -9.76, "internal_energy": -1.28, "cluster_size": 9, "cluster_id": 3, "rank_in_cluster": 4}

$$$$

     RDKit          3D

 59 64  0  0  0  0  0  0  0  0999 V2000
  131.7140   73.7350  228.0970 N   0  0  0  0  0  0  0  0  0  0  0  0
  132.8200   73.4830  227.2220 C   0  0  0  0  0  0  0  0  0  0  0  0
  133.3540   72.3400  227.2330 O   0  0  0  0  0  0  0  0  0  0  0  0
  133.3550   74.5330  226.3190 C   0  0  0  0  0  0  0  0  0  0  0  0
  132.6620   75.7690  226.1860 C   0  0  0  0  0  0  0  0  0  0  0  0
  133.1570   76.7930  225.3570 C   0  0  0  0  0  0  0  0  0  0  0  0
  134.3390   76.5570  224.6680 C   0  0  0  0  0  0  0  0  0  0  0  0
  135.0690   77.3730  223.8330 C   0  0  0  0  0  0  0  0  0  0  0  0
  136.1800   76.6150  223.4730 C   0  0  0  0  0  0  0  0  0  0  0  0
  137.2900   77.0830  222.6240 C   0  0  0  0  0  0  0  0  0  0  0  0
  137.7080   76.3500  221.6900 O   0  0  0  0  0  0  0  0  0  0  0  0
  137.8630   78.3810  222.8080 N   0  0  0  0  0  0  0  0  0  0  0  0
  137.0790   79.5830  223.0800 C   0  0  0  0  0  0  0  0  0  0  0  0
  138.1180   80.6690  223.5360 C   0  0  1  0  0  0  0  0  0  0  0  0
  137.9720   81.9660  222.7580 C   0  0  0  0  0  0  0  0  0  0  0  0
  136.9620   82.7420  223.5820 C   0  0  0  0  0  0  0  0  0  0  0  0
  137.1880   82.3880  224.9940 N   0  0  0  0  0  0  0  0  0  0  0  0
  135.9300   82.3340  225.7730 C   0  0  2  0  0  0  0  0  0  0  0  0
  136.1240   82.7900  227.2080 C   0  0  0  0  0  0  0  0  0  0  0  0
  135.0870   82.0100  227.9940 C   0  0  0  0  0  0  0  0  0  0  0  0
  134.7120   80.8300  227.2140 N   0  0  0  0  0  0  0  0  0  0  0  0
  135.4350   80.9010  225.9470 C   0  0  0  0  0  0  0  0  0  0  0  0
  137.9110   81.0990  224.9980 C   0  0  0  0  0  0  0  0  0  0  0  0
  139.4390   79.9830  223.3190 C   0  0  0  0  0  0  0  0  0  0  0  0
  140.7290   80.4920  223.5040 C   0  0  0  0  0  0  0  0  0  0  0  0
  141.8260   79.6550  223.2460 C   0  0  0  0  0  0  0  0  0  0  0  0
  141.6230   78.3340  222.8110 C   0  0  0  0  0  0  0  0  0  0  0  0
  140.3210   77.8400  222.6390 C   0  0  0  0  0  0  0  0  0  0  0  0
  139.2430   78.6870  222.9220 C   0  0  0  0  0  0  0  0  0  0  0  0
  136.1470   75.3960  224.0650 N   0  0  0  0  0  0  0  0  0  0  0  0
  135.0180   75.3740  224.7880 C   0  0  0  0  0  0  0  0  0  0  0  0
  134.5630   74.3430  225.6090 C   0  0  0  0  0  0  0  0  0  0  0  0
  131.3230   72.9580  228.6720 H   0  0  0  0  0  0  0  0  0  0  0  0
  131.3240   74.6930  228.2410 H   0  0  0  0  0  0  0  0  0  0  0  0
  131.7248   75.9264  226.7399 H   0  0  0  0  0  0  0  0  0  0  0  0
  132.6241   77.7502  225.2581 H   0  0  0  0  0  0  0  0  0  0  0  0
  134.8273   78.3992  223.5191 H   0  0  0  0  0  0  0  0  0  0  0  0
  136.5527   79.9121  222.1719 H   0  0  0  0  0  0  0  0  0  0  0  0
  136.3124   79.4044  223.8484 H   0  0  0  0  0  0  0  0  0  0  0  0
  138.9306   82.5023  222.6989 H   0  0  0  0  0  0  0  0  0  0  0  0
  137.6577   81.8144  221.7148 H   0  0  0  0  0  0  0  0  0  0  0  0
  137.1074   83.8226  223.4364 H   0  0  0  0  0  0  0  0  0  0  0  0
  135.9350   82.4931  223.2765 H   0  0  0  0  0  0  0  0  0  0  0  0
  135.2366   82.9734  225.2069 H   0  0  0  0  0  0  0  0  0  0  0  0
  137.1390   82.5514  227.5586 H   0  0  0  0  0  0  0  0  0  0  0  0
  136.0065   83.8777  227.3223 H   0  0  0  0  0  0  0  0  0  0  0  0
  135.5098   81.6982  228.9605 H   0  0  0  0  0  0  0  0  0  0  0  0
  134.2030   82.6370  228.1819 H   0  0  0  0  0  0  0  0  0  0  0  0
  135.0120   79.9690  227.7280 H   0  0  0  0  0  0  0  0  0  0  0  0
  136.2900   80.2092  225.9646 H   0  0  0  0  0  0  0  0  0  0  0  0
  134.7770   80.6174  225.1124 H   0  0  0  0  0  0  0  0  0  0  0  0
  138.8855   81.2185  225.4940 H   0  0  0  0  0  0  0  0  0  0  0  0
  137.3341   80.3376  225.5435 H   0  0  0  0  0  0  0  0  0  0  0  0
  140.8805   81.5269  223.8446 H   0  0  0  0  0  0  0  0  0  0  0  0
  142.8490   80.0347  223.3849 H   0  0  0  0  0  0  0  0  0  0  0  0
  142.4873   77.6856  222.6048 H   0  0  0  0  0  0  0  0  0  0  0  0
  140.1513   76.8108  222.2898 H   0  0  0  0  0  0  0  0  0  0  0  0
  136.8680   74.6430  224.0110 H   0  0  0  0  0  0  0  0  0  0  0  0
  135.1298   73.4049  225.7021 H   0  0  0  0  0  0  0  0  0  0  0  0
  1  2  1  0
  2  3  2  0
  2  4  1  0
  4  5  2  0
  5  6  1  0
  6  7  2  0
  7  8  1  0
  8  9  2  0
  9 10  1  0
 10 11  2  0
 10 12  1  0
 12 13  1  0
 14 13  1  6
 14 15  1  0
 15 16  1  0
 16 17  1  0
 17 18  1  0
 18 19  1  0
 19 20  1  0
 20 21  1  0
 21 22  1  0
 17 23  1  0
 14 24  1  0
 24 25  2  0
 25 26  1  0
 26 27  2  0
 27 28  1  0
 28 29  2  0
  9 30  1  0
 30 31  1  0
 31 32  2  0
 32  4  1  0
 31  7  1  0
 29 12  1  0
 23 14  1  0
 29 24  1  0
 22 18  1  0
  1 33  1  0
  1 34  1  0
  5 35  1  0
  6 36  1  0
  8 37  1  0
 13 38  1  0
 13 39  1  0
 15 40  1  0
 15 41  1  0
 16 42  1  0
 16 43  1  0
 18 44  1  6
 19 45  1  0
 19 46  1  0
 20 47  1  0
 20 48  1  0
 21 49  1  0
 22 50  1  0
 22 51  1  0
 23 52  1  0
 23 53  1  0
 25 54  1  0
 26 55  1  0
 27 56  1  0
 28 57  1  0
 30 58  1  0
 32 59  1  0
M  END
>  <meeko>  (4) 
{"free_energy": -8.56, "intermolecular_energy": -9.75, "internal_energy": -1.29, "cluster_size": 9, "cluster_id": 3, "rank_in_cluster": 7}

$$$$

     RDKit          3D

 59 64  0  0  0  0  0  0  0  0999 V2000
  140.3900   67.7650  227.8850 N   0  0  0  0  0  0  0  0  0  0  0  0
  140.2070   69.1320  227.5010 C   0  0  0  0  0  0  0  0  0  0  0  0
  140.2290   70.0220  228.3960 O   0  0  0  0  0  0  0  0  0  0  0  0
  139.9820   69.5220  226.0860 C   0  0  0  0  0  0  0  0  0  0  0  0
  139.1640   68.7090  225.2520 C   0  0  0  0  0  0  0  0  0  0  0  0
  138.9130   69.0640  223.9140 C   0  0  0  0  0  0  0  0  0  0  0  0
  139.4930   70.2300  223.4310 C   0  0  0  0  0  0  0  0  0  0  0  0
  139.3920   70.8380  222.1990 C   0  0  0  0  0  0  0  0  0  0  0  0
  140.1550   71.9980  222.3110 C   0  0  0  0  0  0  0  0  0  0  0  0
  140.3110   73.0170  221.2570 C   0  0  0  0  0  0  0  0  0  0  0  0
  139.2880   73.5010  220.7070 O   0  0  0  0  0  0  0  0  0  0  0  0
  141.6040   73.5040  220.8870 N   0  0  0  0  0  0  0  0  0  0  0  0
  142.8050   72.6730  220.8490 C   0  0  0  0  0  0  0  0  0  0  0  0
  143.8790   73.5200  220.0810 C   0  0  1  0  0  0  0  0  0  0  0  0
  145.1890   73.6170  220.8460 C   0  0  0  0  0  0  0  0  0  0  0  0
  145.9560   72.4030  220.3590 C   0  0  0  0  0  0  0  0  0  0  0  0
  145.5800   72.1860  218.9500 N   0  0  0  0  0  0  0  0  0  0  0  0
  145.5180   70.7510  218.5940 C   0  0  2  0  0  0  0  0  0  0  0  0
  144.2220   70.1030  219.0500 C   0  0  0  0  0  0  0  0  0  0  0  0
  144.5970   68.6570  219.3130 C   0  0  0  0  0  0  0  0  0  0  0  0
  146.0430   68.5910  219.5300 N   0  0  0  0  0  0  0  0  0  0  0  0
  146.5720   69.9390  219.3390 C   0  0  0  0  0  0  0  0  0  0  0  0
  144.2890   72.8760  218.7450 C   0  0  0  0  0  0  0  0  0  0  0  0
  143.1930   74.8460  219.8940 C   0  0  0  0  0  0  0  0  0  0  0  0
  143.6950   76.0170  219.3160 C   0  0  0  0  0  0  0  0  0  0  0  0
  142.8590   77.1420  219.2390 C   0  0  0  0  0  0  0  0  0  0  0  0
  141.5450   77.0830  219.7360 C   0  0  0  0  0  0  0  0  0  0  0  0
  141.0580   75.8970  220.3040 C   0  0  0  0  0  0  0  0  0  0  0  0
  141.9040   74.7830  220.3510 C   0  0  0  0  0  0  0  0  0  0  0  0
  140.6900   72.1090  223.5510 N   0  0  0  0  0  0  0  0  0  0  0  0
  140.2800   71.0230  224.2220 C   0  0  0  0  0  0  0  0  0  0  0  0
  140.5410   70.7080  225.5550 C   0  0  0  0  0  0  0  0  0  0  0  0
  140.6080   67.5320  228.8780 H   0  0  0  0  0  0  0  0  0  0  0  0
  140.2390   66.9740  227.2200 H   0  0  0  0  0  0  0  0  0  0  0  0
  138.7210   67.7885  225.6600 H   0  0  0  0  0  0  0  0  0  0  0  0
  138.2774   68.4379  223.2706 H   0  0  0  0  0  0  0  0  0  0  0  0
  138.8321   70.4852  221.3203 H   0  0  0  0  0  0  0  0  0  0  0  0
  143.1499   72.4495  221.8693 H   0  0  0  0  0  0  0  0  0  0  0  0
  142.6174   71.7084  220.3547 H   0  0  0  0  0  0  0  0  0  0  0  0
  145.7227   74.5470  220.6006 H   0  0  0  0  0  0  0  0  0  0  0  0
  145.0543   73.6368  221.9375 H   0  0  0  0  0  0  0  0  0  0  0  0
  147.0381   72.5848  220.4366 H   0  0  0  0  0  0  0  0  0  0  0  0
  145.7154   71.5191  220.9679 H   0  0  0  0  0  0  0  0  0  0  0  0
  145.6455   70.7397  217.5015 H   0  0  0  0  0  0  0  0  0  0  0  0
  143.8490   70.5817  219.9675 H   0  0  0  0  0  0  0  0  0  0  0  0
  143.4192   70.1996  218.3042 H   0  0  0  0  0  0  0  0  0  0  0  0
  144.0695   68.2923  220.2067 H   0  0  0  0  0  0  0  0  0  0  0  0
  144.3127   68.0291  218.4557 H   0  0  0  0  0  0  0  0  0  0  0  0
  146.2290   68.2890  220.5140 H   0  0  0  0  0  0  0  0  0  0  0  0
  146.7799   70.4014  220.3152 H   0  0  0  0  0  0  0  0  0  0  0  0
  147.5095   69.9065  218.7646 H   0  0  0  0  0  0  0  0  0  0  0  0
  144.3988   73.6528  217.9739 H   0  0  0  0  0  0  0  0  0  0  0  0
  143.5214   72.1615  218.4127 H   0  0  0  0  0  0  0  0  0  0  0  0
  144.7242   76.0553  218.9296 H   0  0  0  0  0  0  0  0  0  0  0  0
  143.2332   78.0730  218.7883 H   0  0  0  0  0  0  0  0  0  0  0  0
  140.8970   77.9700  219.6790 H   0  0  0  0  0  0  0  0  0  0  0  0
  140.0345   75.8434  220.7035 H   0  0  0  0  0  0  0  0  0  0  0  0
  141.2650   72.8950  223.9280 H   0  0  0  0  0  0  0  0  0  0  0  0
  141.1657   71.3651  226.1779 H   0  0  0  0  0  0  0  0  0  0  0  0
  1  2  1  0
  2  3  2  0
  2  4  1  0
  4  5  2  0
  5  6  1  0
  6  7  2  0
  7  8  1  0
  8  9  2  0
  9 10  1  0
 10 11  2  0
 10 12  1  0
 12 13  1  0
 14 13  1  1
 14 15  1  0
 15 16  1  0
 16 17  1  0
 17 18  1  0
 18 19  1  0
 19 20  1  0
 20 21  1  0
 21 22  1  0
 17 23  1  0
 14 24  1  0
 24 25  2  0
 25 26  1  0
 26 27  2  0
 27 28  1  0
 28 29  2  0
  9 30  1  0
 30 31  1  0
 31 32  2  0
 32  4  1  0
 31  7  1  0
 29 12  1  0
 23 14  1  0
 29 24  1  0
 22 18  1  0
  1 33  1  0
  1 34  1  0
  5 35  1  0
  6 36  1  0
  8 37  1  0
 13 38  1  0
 13 39  1  0
 15 40  1  0
 15 41  1  0
 16 42  1  0
 16 43  1  0
 18 44  1  6
 19 45  1  0
 19 46  1  0
 20 47  1  0
 20 48  1  0
 21 49  1  0
 22 50  1  0
 22 51  1  0
 23 52  1  0
 23 53  1  0
 25 54  1  0
 26 55  1  0
 27 56  1  0
 28 57  1  0
 30 58  1  0
 32 59  1  0
M  END
>  <meeko>  (5) 
{"free_energy": -9.16, "intermolecular_energy": -10.35, "internal_energy": -1.17, "cluster_size": 5, "cluster_id": 1, "rank_in_cluster": 1}

$$$$

     RDKit          3D

 59 64  0  0  0  0  0  0  0  0999 V2000
  131.7090   73.7320  228.0850 N   0  0  0  0  0  0  0  0  0  0  0  0
  132.8200   73.4830  227.2160 C   0  0  0  0  0  0  0  0  0  0  0  0
  133.3580   72.3420  227.2310 O   0  0  0  0  0  0  0  0  0  0  0  0
  133.3550   74.5340  226.3150 C   0  0  0  0  0  0  0  0  0  0  0  0
  132.6640   75.7710  226.1850 C   0  0  0  0  0  0  0  0  0  0  0  0
  133.1590   76.7960  225.3570 C   0  0  0  0  0  0  0  0  0  0  0  0
  134.3410   76.5590  224.6670 C   0  0  0  0  0  0  0  0  0  0  0  0
  135.0700   77.3770  223.8320 C   0  0  0  0  0  0  0  0  0  0  0  0
  136.1800   76.6170  223.4700 C   0  0  0  0  0  0  0  0  0  0  0  0
  137.2890   77.0860  222.6200 C   0  0  0  0  0  0  0  0  0  0  0  0
  137.7140   76.3480  221.6930 O   0  0  0  0  0  0  0  0  0  0  0  0
  137.8560   78.3880  222.7970 N   0  0  0  0  0  0  0  0  0  0  0  0
  137.0660   79.5860  223.0700 C   0  0  0  0  0  0  0  0  0  0  0  0
  138.1000   80.6790  223.5160 C   0  0  1  0  0  0  0  0  0  0  0  0
  137.9420   81.9730  222.7350 C   0  0  0  0  0  0  0  0  0  0  0  0
  136.9320   82.7460  223.5620 C   0  0  0  0  0  0  0  0  0  0  0  0
  137.1670   82.3980  224.9740 N   0  0  0  0  0  0  0  0  0  0  0  0
  135.9140   82.3380  225.7600 C   0  0  2  0  0  0  0  0  0  0  0  0
  136.1220   82.7550  227.2050 C   0  0  0  0  0  0  0  0  0  0  0  0
  135.0820   81.9680  227.9780 C   0  0  0  0  0  0  0  0  0  0  0  0
  134.6880   80.8120  227.1700 N   0  0  0  0  0  0  0  0  0  0  0  0
  135.4040   80.9070  225.9010 C   0  0  0  0  0  0  0  0  0  0  0  0
  137.8990   81.1130  224.9780 C   0  0  0  0  0  0  0  0  0  0  0  0
  139.4250   80.0010  223.2950 C   0  0  0  0  0  0  0  0  0  0  0  0
  140.7120   80.5190  223.4710 C   0  0  0  0  0  0  0  0  0  0  0  0
  141.8130   79.6880  223.2100 C   0  0  0  0  0  0  0  0  0  0  0  0
  141.6150   78.3640  222.7800 C   0  0  0  0  0  0  0  0  0  0  0  0
  140.3160   77.8610  222.6170 C   0  0  0  0  0  0  0  0  0  0  0  0
  139.2350   78.7030  222.9030 C   0  0  0  0  0  0  0  0  0  0  0  0
  136.1460   75.3980  224.0590 N   0  0  0  0  0  0  0  0  0  0  0  0
  135.0170   75.3760  224.7840 C   0  0  0  0  0  0  0  0  0  0  0  0
  134.5620   74.3440  225.6030 C   0  0  0  0  0  0  0  0  0  0  0  0
  131.3180   72.9540  228.6600 H   0  0  0  0  0  0  0  0  0  0  0  0
  131.3140   74.6890  228.2270 H   0  0  0  0  0  0  0  0  0  0  0  0
  131.7278   75.9288  226.7406 H   0  0  0  0  0  0  0  0  0  0  0  0
  132.6269   77.7538  225.2595 H   0  0  0  0  0  0  0  0  0  0  0  0
  134.8288   78.4039  223.5199 H   0  0  0  0  0  0  0  0  0  0  0  0
  136.5322   79.9090  222.1640 H   0  0  0  0  0  0  0  0  0  0  0  0
  136.3051   79.4050  223.8435 H   0  0  0  0  0  0  0  0  0  0  0  0
  138.8971   82.5147  222.6690 H   0  0  0  0  0  0  0  0  0  0  0  0
  137.6226   81.8162  221.6941 H   0  0  0  0  0  0  0  0  0  0  0  0
  137.0706   83.8269  223.4122 H   0  0  0  0  0  0  0  0  0  0  0  0
  135.9049   82.4902  223.2627 H   0  0  0  0  0  0  0  0  0  0  0  0
  135.2245   82.9994  225.2149 H   0  0  0  0  0  0  0  0  0  0  0  0
  137.1364   82.4961  227.5427 H   0  0  0  0  0  0  0  0  0  0  0  0
  136.0174   83.8407  227.3473 H   0  0  0  0  0  0  0  0  0  0  0  0
  135.5076   81.6268  228.9332 H   0  0  0  0  0  0  0  0  0  0  0  0
  134.2067   82.6001  228.1884 H   0  0  0  0  0  0  0  0  0  0  0  0
  134.9810   79.9350  227.6600 H   0  0  0  0  0  0  0  0  0  0  0  0
  136.2512   80.2055  225.8958 H   0  0  0  0  0  0  0  0  0  0  0  0
  134.7378   80.6520  225.0636 H   0  0  0  0  0  0  0  0  0  0  0  0
  138.8757   81.2407  225.4676 H   0  0  0  0  0  0  0  0  0  0  0  0
  137.3305   80.3498  225.5296 H   0  0  0  0  0  0  0  0  0  0  0  0
  140.8586   81.5561  223.8070 H   0  0  0  0  0  0  0  0  0  0  0  0
  142.8345   80.0741  223.3424 H   0  0  0  0  0  0  0  0  0  0  0  0
  142.4821   77.7204  222.5707 H   0  0  0  0  0  0  0  0  0  0  0  0
  140.1506   76.8295  222.2726 H   0  0  0  0  0  0  0  0  0  0  0  0
  136.8650   74.6430  224.0030 H   0  0  0  0  0  0  0  0  0  0  0  0
  135.1278   73.4050  225.6933 H   0  0  0  0  0  0  0  0  0  0  0  0
  1  2  1  0
  2  3  2  0
  2  4  1  0
  4  5  2  0
  5  6  1  0
  6  7  2  0
  7  8  1  0
  8  9  2  0
  9 10  1  0
 10 11  2  0
 10 12  1  0
 12 13  1  0
 14 13  1  6
 14 15  1  0
 15 16  1  0
 16 17  1  0
 17 18  1  0
 18 19  1  0
 19 20  1  0
 20 21  1  0
 21 22  1  0
 17 23  1  0
 14 24  1  0
 24 25  2  0
 25 26  1  0
 26 27  2  0
 27 28  1  0
 28 29  2  0
  9 30  1  0
 30 31  1  0
 31 32  2  0
 32  4  1  0
 31  7  1  0
 29 12  1  0
 23 14  1  0
 29 24  1  0
 22 18  1  0
  1 33  1  0
  1 34  1  0
  5 35  1  0
  6 36  1  0
  8 37  1  0
 13 38  1  0
 13 39  1  0
 15 40  1  0
 15 41  1  0
 16 42  1  0
 16 43  1  0
 18 44  1  6
 19 45  1  0
 19 46  1  0
 20 47  1  0
 20 48  1  0
 21 49  1  0
 22 50  1  0
 22 51  1  0
 23 52  1  0
 23 53  1  0
 25 54  1  0
 26 55  1  0
 27 56  1  0
 28 57  1  0
 30 58  1  0
 32 59  1  0
M  END
>  <meeko>  (6) 
{"free_energy": -8.56, "intermolecular_energy": -9.76, "internal_energy": -1.29, "cluster_size": 9, "cluster_id": 3, "rank_in_cluster": 6}

$$$$

     RDKit          3D

 59 64  0  0  0  0  0  0  0  0999 V2000
  140.2950   67.7630  227.8590 N   0  0  0  0  0  0  0  0  0  0  0  0
  140.2500   69.1400  227.4700 C   0  0  0  0  0  0  0  0  0  0  0  0
  140.3820   70.0260  228.3580 O   0  0  0  0  0  0  0  0  0  0  0  0
  140.0420   69.5450  226.0570 C   0  0  0  0  0  0  0  0  0  0  0  0
  139.2750   68.7150  225.1910 C   0  0  0  0  0  0  0  0  0  0  0  0
  139.0390   69.0830  223.8540 C   0  0  0  0  0  0  0  0  0  0  0  0
  139.5830   70.2790  223.4030 C   0  0  0  0  0  0  0  0  0  0  0  0
  139.4860   70.9040  222.1800 C   0  0  0  0  0  0  0  0  0  0  0  0
  140.2000   72.0900  222.3270 C   0  0  0  0  0  0  0  0  0  0  0  0
  140.3390   73.1320  221.2940 C   0  0  0  0  0  0  0  0  0  0  0  0
  139.3070   73.6770  220.8200 O   0  0  0  0  0  0  0  0  0  0  0  0
  141.6280   73.5730  220.8590 N   0  0  0  0  0  0  0  0  0  0  0  0
  142.8160   72.7220  220.8470 C   0  0  0  0  0  0  0  0  0  0  0  0
  143.8820   73.5000  219.9960 C   0  0  1  0  0  0  0  0  0  0  0  0
  145.2120   73.6270  220.7190 C   0  0  0  0  0  0  0  0  0  0  0  0
  145.9480   72.3710  220.2960 C   0  0  0  0  0  0  0  0  0  0  0  0
  145.5330   72.0660  218.9150 N   0  0  0  0  0  0  0  0  0  0  0  0
  145.4410   70.6120  218.6580 C   0  0  2  0  0  0  0  0  0  0  0  0
  144.2010   69.9960  219.2830 C   0  0  0  0  0  0  0  0  0  0  0  0
  144.6080   68.5690  219.5970 C   0  0  0  0  0  0  0  0  0  0  0  0
  146.0680   68.5130  219.6690 N   0  0  0  0  0  0  0  0  0  0  0  0
  146.5690   69.8450  219.3420 C   0  0  0  0  0  0  0  0  0  0  0  0
  144.2460   72.7610  218.6970 C   0  0  0  0  0  0  0  0  0  0  0  0
  143.2090   74.8210  219.7380 C   0  0  0  0  0  0  0  0  0  0  0  0
  143.7120   75.9420  219.0700 C   0  0  0  0  0  0  0  0  0  0  0  0
  142.8900   77.0720  218.9390 C   0  0  0  0  0  0  0  0  0  0  0  0
  141.5890   77.0680  219.4720 C   0  0  0  0  0  0  0  0  0  0  0  0
  141.1000   75.9300  220.1310 C   0  0  0  0  0  0  0  0  0  0  0  0
  141.9320   74.8090  220.2310 C   0  0  0  0  0  0  0  0  0  0  0  0
  140.7030   72.2010  223.5810 N   0  0  0  0  0  0  0  0  0  0  0  0
  140.3210   71.0880  224.2240 C   0  0  0  0  0  0  0  0  0  0  0  0
  140.5650   70.7600  225.5580 C   0  0  0  0  0  0  0  0  0  0  0  0
  140.5060   67.5120  228.8490 H   0  0  0  0  0  0  0  0  0  0  0  0
  140.0500   66.9890  227.2020 H   0  0  0  0  0  0  0  0  0  0  0  0
  138.8603   67.7707  225.5736 H   0  0  0  0  0  0  0  0  0  0  0  0
  138.4424   68.4438  223.1866 H   0  0  0  0  0  0  0  0  0  0  0  0
  138.9597   70.5449  221.2833 H   0  0  0  0  0  0  0  0  0  0  0  0
  143.1843   72.5619  221.8711 H   0  0  0  0  0  0  0  0  0  0  0  0
  142.6022   71.7293  220.4240 H   0  0  0  0  0  0  0  0  0  0  0  0
  145.7525   74.5296  220.3979 H   0  0  0  0  0  0  0  0  0  0  0  0
  145.1064   73.7224  221.8098 H   0  0  0  0  0  0  0  0  0  0  0  0
  147.0343   72.5399  220.3344 H   0  0  0  0  0  0  0  0  0  0  0  0
  145.7099   71.5340  220.9688 H   0  0  0  0  0  0  0  0  0  0  0  0
  145.4568   70.5327  217.5610 H   0  0  0  0  0  0  0  0  0  0  0  0
  143.9205   70.5321  220.2016 H   0  0  0  0  0  0  0  0  0  0  0  0
  143.3263   70.0465  218.6180 H   0  0  0  0  0  0  0  0  0  0  0  0
  144.1760   68.2626  220.5611 H   0  0  0  0  0  0  0  0  0  0  0  0
  144.2408   67.8892  218.8140 H   0  0  0  0  0  0  0  0  0  0  0  0
  146.3550   68.2740  220.6470 H   0  0  0  0  0  0  0  0  0  0  0  0
  146.8726   70.3669  220.2615 H   0  0  0  0  0  0  0  0  0  0  0  0
  147.4436   69.7747  218.6786 H   0  0  0  0  0  0  0  0  0  0  0  0
  144.3455   73.4819  217.8722 H   0  0  0  0  0  0  0  0  0  0  0  0
  143.4597   72.0380  218.4342 H   0  0  0  0  0  0  0  0  0  0  0  0
  144.7310   75.9381  218.6558 H   0  0  0  0  0  0  0  0  0  0  0  0
  143.2652   77.9646  218.4171 H   0  0  0  0  0  0  0  0  0  0  0  0
  140.9527   77.9597  219.3721 H   0  0  0  0  0  0  0  0  0  0  0  0
  140.0867   75.9191  220.5589 H   0  0  0  0  0  0  0  0  0  0  0  0
  141.2380   73.0010  223.9830 H   0  0  0  0  0  0  0  0  0  0  0  0
  141.1497   71.4301  226.2054 H   0  0  0  0  0  0  0  0  0  0  0  0
  1  2  1  0
  2  3  2  0
  2  4  1  0
  4  5  2  0
  5  6  1  0
  6  7  2  0
  7  8  1  0
  8  9  2  0
  9 10  1  0
 10 11  2  0
 10 12  1  0
 12 13  1  0
 14 13  1  1
 14 15  1  0
 15 16  1  0
 16 17  1  0
 17 18  1  0
 18 19  1  0
 19 20  1  0
 20 21  1  0
 21 22  1  0
 17 23  1  0
 14 24  1  0
 24 25  2  0
 25 26  1  0
 26 27  2  0
 27 28  1  0
 28 29  2  0
  9 30  1  0
 30 31  1  0
 31 32  2  0
 32  4  1  0
 31  7  1  0
 29 12  1  0
 23 14  1  0
 29 24  1  0
 22 18  1  0
  1 33  1  0
  1 34  1  0
  5 35  1  0
  6 36  1  0
  8 37  1  0
 13 38  1  0
 13 39  1  0
 15 40  1  0
 15 41  1  0
 16 42  1  0
 16 43  1  0
 18 44  1  6
 19 45  1  0
 19 46  1  0
 20 47  1  0
 20 48  1  0
 21 49  1  0
 22 50  1  0
 22 51  1  0
 23 52  1  0
 23 53  1  0
 25 54  1  0
 26 55  1  0
 27 56  1  0
 28 57  1  0
 30 58  1  0
 32 59  1  0
M  END
>  <meeko>  (7) 
{"free_energy": -9.07, "intermolecular_energy": -10.27, "internal_energy": -1.17, "cluster_size": 5, "cluster_id": 1, "rank_in_cluster": 4}

$$$$

     RDKit          3D

 59 64  0  0  0  0  0  0  0  0999 V2000
  131.7250   73.8150  228.1070 N   0  0  0  0  0  0  0  0  0  0  0  0
  132.8230   73.5540  227.2250 C   0  0  0  0  0  0  0  0  0  0  0  0
  133.3490   72.4070  227.2340 O   0  0  0  0  0  0  0  0  0  0  0  0
  133.3590   74.5990  226.3170 C   0  0  0  0  0  0  0  0  0  0  0  0
  132.6630   75.8310  226.1710 C   0  0  0  0  0  0  0  0  0  0  0  0
  133.1590   76.8500  225.3370 C   0  0  0  0  0  0  0  0  0  0  0  0
  134.3450   76.6130  224.6560 C   0  0  0  0  0  0  0  0  0  0  0  0
  135.0760   77.4260  223.8180 C   0  0  0  0  0  0  0  0  0  0  0  0
  136.1920   76.6680  223.4690 C   0  0  0  0  0  0  0  0  0  0  0  0
  137.3040   77.1340  222.6220 C   0  0  0  0  0  0  0  0  0  0  0  0
  137.7290   76.3950  221.6950 O   0  0  0  0  0  0  0  0  0  0  0  0
  137.8730   78.4340  222.7990 N   0  0  0  0  0  0  0  0  0  0  0  0
  137.0850   79.6360  223.0620 C   0  0  0  0  0  0  0  0  0  0  0  0
  138.1190   80.7270  223.5140 C   0  0  1  0  0  0  0  0  0  0  0  0
  137.9720   82.0190  222.7280 C   0  0  0  0  0  0  0  0  0  0  0  0
  136.9570   82.7970  223.5440 C   0  0  0  0  0  0  0  0  0  0  0  0
  137.1800   82.4530  224.9590 N   0  0  0  0  0  0  0  0  0  0  0  0
  135.9200   82.3990  225.7350 C   0  0  2  0  0  0  0  0  0  0  0  0
  136.1090   82.8610  227.1690 C   0  0  0  0  0  0  0  0  0  0  0  0
  135.0720   82.0830  227.9550 C   0  0  0  0  0  0  0  0  0  0  0  0
  134.7010   80.8990  227.1780 N   0  0  0  0  0  0  0  0  0  0  0  0
  135.4270   80.9670  225.9130 C   0  0  0  0  0  0  0  0  0  0  0  0
  137.9070   81.1660  224.9730 C   0  0  0  0  0  0  0  0  0  0  0  0
  139.4430   80.0440  223.3060 C   0  0  0  0  0  0  0  0  0  0  0  0
  140.7310   80.5580  223.4910 C   0  0  0  0  0  0  0  0  0  0  0  0
  141.8310   79.7220  223.2410 C   0  0  0  0  0  0  0  0  0  0  0  0
  141.6330   78.3980  222.8140 C   0  0  0  0  0  0  0  0  0  0  0  0
  140.3330   77.8990  222.6420 C   0  0  0  0  0  0  0  0  0  0  0  0
  139.2520   78.7450  222.9160 C   0  0  0  0  0  0  0  0  0  0  0  0
  136.1600   75.4540  224.0700 N   0  0  0  0  0  0  0  0  0  0  0  0
  135.0270   75.4340  224.7880 C   0  0  0  0  0  0  0  0  0  0  0  0
  134.5720   74.4070  225.6150 C   0  0  0  0  0  0  0  0  0  0  0  0
  131.3320   73.0420  228.6860 H   0  0  0  0  0  0  0  0  0  0  0  0
  131.3430   74.7760  228.2530 H   0  0  0  0  0  0  0  0  0  0  0  0
  131.7223   75.9896  226.7187 H   0  0  0  0  0  0  0  0  0  0  0  0
  132.6235   77.8047  225.2281 H   0  0  0  0  0  0  0  0  0  0  0  0
  134.8323   78.4489  223.4952 H   0  0  0  0  0  0  0  0  0  0  0  0
  136.5602   79.9583  222.1506 H   0  0  0  0  0  0  0  0  0  0  0  0
  136.3170   79.4598  223.8296 H   0  0  0  0  0  0  0  0  0  0  0  0
  138.9293   82.5577  222.6690 H   0  0  0  0  0  0  0  0  0  0  0  0
  137.6617   81.8604  221.6847 H   0  0  0  0  0  0  0  0  0  0  0  0
  137.0992   83.8771  223.3918 H   0  0  0  0  0  0  0  0  0  0  0  0
  135.9317   82.5427  223.2372 H   0  0  0  0  0  0  0  0  0  0  0  0
  135.2271   83.0348  225.1643 H   0  0  0  0  0  0  0  0  0  0  0  0
  137.1234   82.6256  227.5234 H   0  0  0  0  0  0  0  0  0  0  0  0
  135.9891   83.9489  227.2785 H   0  0  0  0  0  0  0  0  0  0  0  0
  135.4928   81.7756  228.9237 H   0  0  0  0  0  0  0  0  0  0  0  0
  134.1865   82.7092  228.1385 H   0  0  0  0  0  0  0  0  0  0  0  0
  135.0000   80.0410  227.6960 H   0  0  0  0  0  0  0  0  0  0  0  0
  136.2830   80.2766  225.9352 H   0  0  0  0  0  0  0  0  0  0  0  0
  134.7714   80.6797  225.0778 H   0  0  0  0  0  0  0  0  0  0  0  0
  138.8799   81.2917  225.4706 H   0  0  0  0  0  0  0  0  0  0  0  0
  137.3310   80.4064  225.5219 H   0  0  0  0  0  0  0  0  0  0  0  0
  140.8788   81.5955  223.8253 H   0  0  0  0  0  0  0  0  0  0  0  0
  142.8526   80.1053  223.3801 H   0  0  0  0  0  0  0  0  0  0  0  0
  142.4997   77.7509  222.6140 H   0  0  0  0  0  0  0  0  0  0  0  0
  140.1671   76.8668  222.2997 H   0  0  0  0  0  0  0  0  0  0  0  0
  136.8830   74.7020  224.0250 H   0  0  0  0  0  0  0  0  0  0  0  0
  135.1418   73.4718  225.7186 H   0  0  0  0  0  0  0  0  0  0  0  0
  1  2  1  0
  2  3  2  0
  2  4  1  0
  4  5  2  0
  5  6  1  0
  6  7  2  0
  7  8  1  0
  8  9  2  0
  9 10  1  0
 10 11  2  0
 10 12  1  0
 12 13  1  0
 14 13  1  6
 14 15  1  0
 15 16  1  0
 16 17  1  0
 17 18  1  0
 18 19  1  0
 19 20  1  0
 20 21  1  0
 21 22  1  0
 17 23  1  0
 14 24  1  0
 24 25  2  0
 25 26  1  0
 26 27  2  0
 27 28  1  0
 28 29  2  0
  9 30  1  0
 30 31  1  0
 31 32  2  0
 32  4  1  0
 31  7  1  0
 29 12  1  0
 23 14  1  0
 29 24  1  0
 22 18  1  0
  1 33  1  0
  1 34  1  0
  5 35  1  0
  6 36  1  0
  8 37  1  0
 13 38  1  0
 13 39  1  0
 15 40  1  0
 15 41  1  0
 16 42  1  0
 16 43  1  0
 18 44  1  6
 19 45  1  0
 19 46  1  0
 20 47  1  0
 20 48  1  0
 21 49  1  0
 22 50  1  0
 22 51  1  0
 23 52  1  0
 23 53  1  0
 25 54  1  0
 26 55  1  0
 27 56  1  0
 28 57  1  0
 30 58  1  0
 32 59  1  0
M  END
>  <meeko>  (8) 
{"free_energy": -8.57, "intermolecular_energy": -9.77, "internal_energy": -1.29, "cluster_size": 9, "cluster_id": 3, "rank_in_cluster": 2}

$$$$

     RDKit          3D

 59 64  0  0  0  0  0  0  0  0999 V2000
  145.8650   72.9770  221.4440 N   0  0  0  0  0  0  0  0  0  0  0  0
  145.5680   72.9370  220.0440 C   0  0  0  0  0  0  0  0  0  0  0  0
  146.0190   71.9810  219.3550 O   0  0  0  0  0  0  0  0  0  0  0  0
  144.7570   73.9930  219.3880 C   0  0  0  0  0  0  0  0  0  0  0  0
  144.4460   73.8850  218.0030 C   0  0  0  0  0  0  0  0  0  0  0  0
  143.6600   74.8580  217.3580 C   0  0  0  0  0  0  0  0  0  0  0  0
  143.2010   75.9280  218.1140 C   0  0  0  0  0  0  0  0  0  0  0  0
  142.3930   76.9890  217.7680 C   0  0  0  0  0  0  0  0  0  0  0  0
  142.2370   77.7170  218.9450 C   0  0  0  0  0  0  0  0  0  0  0  0
  141.4040   78.9240  219.0940 C   0  0  0  0  0  0  0  0  0  0  0  0
  141.2510   79.6960  218.1110 O   0  0  0  0  0  0  0  0  0  0  0  0
  140.7220   79.2040  220.3190 N   0  0  0  0  0  0  0  0  0  0  0  0
  139.3280   78.8500  220.5720 C   0  0  0  0  0  0  0  0  0  0  0  0
  139.1200   79.0340  222.1170 C   0  0  1  0  0  0  0  0  0  0  0  0
  137.9100   79.8960  222.4350 C   0  0  0  0  0  0  0  0  0  0  0  0
  136.7840   78.8820  222.5130 C   0  0  0  0  0  0  0  0  0  0  0  0
  137.3540   77.6380  223.0580 N   0  0  0  0  0  0  0  0  0  0  0  0
  136.7430   76.4270  222.4660 C   0  0  2  0  0  0  0  0  0  0  0  0
  135.8490   75.6950  223.4510 C   0  0  0  0  0  0  0  0  0  0  0  0
  135.9360   74.2410  223.0290 C   0  0  0  0  0  0  0  0  0  0  0  0
  137.1630   74.0610  222.2530 N   0  0  0  0  0  0  0  0  0  0  0  0
  137.7930   75.3730  222.1280 C   0  0  0  0  0  0  0  0  0  0  0  0
  138.8130   77.7050  222.8280 C   0  0  0  0  0  0  0  0  0  0  0  0
  140.4230   79.6390  222.5630 C   0  0  0  0  0  0  0  0  0  0  0  0
  140.7940   80.0700  223.8410 C   0  0  0  0  0  0  0  0  0  0  0  0
  142.0820   80.5970  224.0250 C   0  0  0  0  0  0  0  0  0  0  0  0
  142.9730   80.6870  222.9410 C   0  0  0  0  0  0  0  0  0  0  0  0
  142.5840   80.2410  221.6690 C   0  0  0  0  0  0  0  0  0  0  0  0
  141.3020   79.7010  221.5150 C   0  0  0  0  0  0  0  0  0  0  0  0
  142.9050   77.1320  219.9690 N   0  0  0  0  0  0  0  0  0  0  0  0
  143.4890   76.0440  219.4460 C   0  0  0  0  0  0  0  0  0  0  0  0
  144.2560   75.0940  220.1210 C   0  0  0  0  0  0  0  0  0  0  0  0
  146.3830   72.1880  221.8860 H   0  0  0  0  0  0  0  0  0  0  0  0
  145.6470   73.8090  222.0370 H   0  0  0  0  0  0  0  0  0  0  0  0
  144.8260   73.0277  217.4280 H   0  0  0  0  0  0  0  0  0  0  0  0
  143.4170   74.7733  216.2885 H   0  0  0  0  0  0  0  0  0  0  0  0
  141.9652   77.2121  216.7795 H   0  0  0  0  0  0  0  0  0  0  0  0
  138.6549   79.5158  220.0119 H   0  0  0  0  0  0  0  0  0  0  0  0
  139.1041   77.8221  220.2505 H   0  0  0  0  0  0  0  0  0  0  0  0
  138.0381   80.4200  223.3937 H   0  0  0  0  0  0  0  0  0  0  0  0
  137.7321   80.6870  221.6916 H   0  0  0  0  0  0  0  0  0  0  0  0
  135.9879   79.2533  223.1750 H   0  0  0  0  0  0  0  0  0  0  0  0
  136.3463   78.7079  221.5190 H   0  0  0  0  0  0  0  0  0  0  0  0
  136.1989   76.8038  221.5874 H   0  0  0  0  0  0  0  0  0  0  0  0
  136.2154   75.8244  224.4801 H   0  0  0  0  0  0  0  0  0  0  0  0
  134.8162   76.0736  223.4420 H   0  0  0  0  0  0  0  0  0  0  0  0
  135.9611   73.5960  223.9197 H   0  0  0  0  0  0  0  0  0  0  0  0
  135.0600   73.9694  222.4217 H   0  0  0  0  0  0  0  0  0  0  0  0
  137.8080   73.4230  222.7740 H   0  0  0  0  0  0  0  0  0  0  0  0
  138.6393   75.4501  222.8265 H   0  0  0  0  0  0  0  0  0  0  0  0
  138.1727   75.5218  221.1064 H   0  0  0  0  0  0  0  0  0  0  0  0
  139.3451   77.6643  223.7899 H   0  0  0  0  0  0  0  0  0  0  0  0
  139.1427   76.8559  222.2113 H   0  0  0  0  0  0  0  0  0  0  0  0
  140.0912   79.9975  224.6841 H   0  0  0  0  0  0  0  0  0  0  0  0
  142.3956   80.9411  225.0216 H   0  0  0  0  0  0  0  0  0  0  0  0
  143.9780   81.1083  223.0907 H   0  0  0  0  0  0  0  0  0  0  0  0
  143.2706   80.3140  220.8127 H   0  0  0  0  0  0  0  0  0  0  0  0
  142.9280   77.4330  220.9690 H   0  0  0  0  0  0  0  0  0  0  0  0
  144.4657   75.1986  221.1957 H   0  0  0  0  0  0  0  0  0  0  0  0
  1  2  1  0
  2  3  2  0
  2  4  1  0
  4  5  2  0
  5  6  1  0
  6  7  2  0
  7  8  1  0
  8  9  2  0
  9 10  1  0
 10 11  2  0
 10 12  1  0
 12 13  1  0
 14 13  1  6
 14 15  1  0
 15 16  1  0
 16 17  1  0
 17 18  1  0
 18 19  1  0
 19 20  1  0
 20 21  1  0
 21 22  1  0
 17 23  1  0
 14 24  1  0
 24 25  2  0
 25 26  1  0
 26 27  2  0
 27 28  1  0
 28 29  2  0
  9 30  1  0
 30 31  1  0
 31 32  2  0
 32  4  1  0
 31  7  1  0
 29 12  1  0
 23 14  1  0
 29 24  1  0
 22 18  1  0
  1 33  1  0
  1 34  1  0
  5 35  1  0
  6 36  1  0
  8 37  1  0
 13 38  1  0
 13 39  1  0
 15 40  1  0
 15 41  1  0
 16 42  1  0
 16 43  1  0
 18 44  1  6
 19 45  1  0
 19 46  1  0
 20 47  1  0
 20 48  1  0
 21 49  1  0
 22 50  1  0
 22 51  1  0
 23 52  1  0
 23 53  1  0
 25 54  1  0
 26 55  1  0
 27 56  1  0
 28 57  1  0
 30 58  1  0
 32 59  1  0
M  END
>  <meeko>  (9) 
{"free_energy": -8.62, "intermolecular_energy": -9.81, "internal_energy": -1.18, "cluster_size": 4, "cluster_id": 2, "rank_in_cluster": 3}

$$$$

     RDKit          3D

 59 64  0  0  0  0  0  0  0  0999 V2000
  145.0940   72.5780  220.8710 N   0  0  0  0  0  0  0  0  0  0  0  0
  145.1990   72.9350  219.4880 C   0  0  0  0  0  0  0  0  0  0  0  0
  145.9280   72.2340  218.7340 O   0  0  0  0  0  0  0  0  0  0  0  0
  144.4830   74.1100  218.9290 C   0  0  0  0  0  0  0  0  0  0  0  0
  144.2320   74.1820  217.5300 C   0  0  0  0  0  0  0  0  0  0  0  0
  143.5350   75.2710  216.9740 C   0  0  0  0  0  0  0  0  0  0  0  0
  143.1050   76.2740  217.8330 C   0  0  0  0  0  0  0  0  0  0  0  0
  142.3770   77.4170  217.5830 C   0  0  0  0  0  0  0  0  0  0  0  0
  142.2100   78.0130  218.8310 C   0  0  0  0  0  0  0  0  0  0  0  0
  141.4430   79.2450  219.0870 C   0  0  0  0  0  0  0  0  0  0  0  0
  141.3660   80.1250  218.1900 O   0  0  0  0  0  0  0  0  0  0  0  0
  140.7400   79.4340  220.3180 N   0  0  0  0  0  0  0  0  0  0  0  0
  139.3610   79.0050  220.5400 C   0  0  0  0  0  0  0  0  0  0  0  0
  139.1340   79.1040  222.0900 C   0  0  1  0  0  0  0  0  0  0  0  0
  137.8830   79.8930  222.4380 C   0  0  0  0  0  0  0  0  0  0  0  0
  136.8040   78.8270  222.4560 C   0  0  0  0  0  0  0  0  0  0  0  0
  137.4280   77.5850  222.9460 N   0  0  0  0  0  0  0  0  0  0  0  0
  136.8770   76.3770  222.2900 C   0  0  2  0  0  0  0  0  0  0  0  0
  135.8810   75.6490  223.1740 C   0  0  0  0  0  0  0  0  0  0  0  0
  136.0050   74.1950  222.7620 C   0  0  0  0  0  0  0  0  0  0  0  0
  137.3070   74.0100  222.1190 N   0  0  0  0  0  0  0  0  0  0  0  0
  137.9520   75.3180  222.0640 C   0  0  0  0  0  0  0  0  0  0  0  0
  138.8840   77.7300  222.7340 C   0  0  0  0  0  0  0  0  0  0  0  0
  140.4040   79.7450  222.5780 C   0  0  0  0  0  0  0  0  0  0  0  0
  140.7460   80.1300  223.8780 C   0  0  0  0  0  0  0  0  0  0  0  0
  142.0070   80.7060  224.1000 C   0  0  0  0  0  0  0  0  0  0  0  0
  142.9010   80.8890  223.0300 C   0  0  0  0  0  0  0  0  0  0  0  0
  142.5420   80.4880  221.7340 C   0  0  0  0  0  0  0  0  0  0  0  0
  141.2870   79.8980  221.5420 C   0  0  0  0  0  0  0  0  0  0  0  0
  142.7930   77.2720  219.8040 N   0  0  0  0  0  0  0  0  0  0  0  0
  143.3370   76.2170  219.1800 C   0  0  0  0  0  0  0  0  0  0  0  0
  144.0130   75.1480  219.7670 C   0  0  0  0  0  0  0  0  0  0  0  0
  145.5590   71.7110  221.2170 H   0  0  0  0  0  0  0  0  0  0  0  0
  144.6280   73.1950  221.5730 H   0  0  0  0  0  0  0  0  0  0  0  0
  144.5880   73.3745  216.8734 H   0  0  0  0  0  0  0  0  0  0  0  0
  143.3371   75.3260  215.8933 H   0  0  0  0  0  0  0  0  0  0  0  0
  142.0088   77.7791  216.6117 H   0  0  0  0  0  0  0  0  0  0  0  0
  138.6623   79.6661  220.0064 H   0  0  0  0  0  0  0  0  0  0  0  0
  139.1863   77.9851  220.1668 H   0  0  0  0  0  0  0  0  0  0  0  0
  137.9799   80.3746  223.4222 H   0  0  0  0  0  0  0  0  0  0  0  0
  137.6744   80.7103  221.7319 H   0  0  0  0  0  0  0  0  0  0  0  0
  135.9869   79.1289  223.1277 H   0  0  0  0  0  0  0  0  0  0  0  0
  136.3811   78.6819  221.4510 H   0  0  0  0  0  0  0  0  0  0  0  0
  136.4310   76.7569  221.3590 H   0  0  0  0  0  0  0  0  0  0  0  0
  136.1374   75.7760  224.2361 H   0  0  0  0  0  0  0  0  0  0  0  0
  134.8568   76.0326  223.0565 H   0  0  0  0  0  0  0  0  0  0  0  0
  135.9332   73.5493  223.6496 H   0  0  0  0  0  0  0  0  0  0  0  0
  135.1965   73.9276  222.0657 H   0  0  0  0  0  0  0  0  0  0  0  0
  137.8900   73.3680  222.7050 H   0  0  0  0  0  0  0  0  0  0  0  0
  138.7195   75.3902  222.8487 H   0  0  0  0  0  0  0  0  0  0  0  0
  138.4387   75.4661  221.0887 H   0  0  0  0  0  0  0  0  0  0  0  0
  139.4100   77.6680  223.6981 H   0  0  0  0  0  0  0  0  0  0  0  0
  139.2577   76.9274  222.0811 H   0  0  0  0  0  0  0  0  0  0  0  0
  140.0413   79.9845  224.7100 H   0  0  0  0  0  0  0  0  0  0  0  0
  142.2969   81.0154  225.1150 H   0  0  0  0  0  0  0  0  0  0  0  0
  143.8845   81.3478  223.2094 H   0  0  0  0  0  0  0  0  0  0  0  0
  143.2306   80.6338  220.8887 H   0  0  0  0  0  0  0  0  0  0  0  0
  142.7870   77.4540  220.8320 H   0  0  0  0  0  0  0  0  0  0  0  0
  144.1766   75.1128  220.8542 H   0  0  0  0  0  0  0  0  0  0  0  0
  1  2  1  0
  2  3  2  0
  2  4  1  0
  4  5  2  0
  5  6  1  0
  6  7  2  0
  7  8  1  0
  8  9  2  0
  9 10  1  0
 10 11  2  0
 10 12  1  0
 12 13  1  0
 14 13  1  6
 14 15  1  0
 15 16  1  0
 16 17  1  0
 17 18  1  0
 18 19  1  0
 19 20  1  0
 20 21  1  0
 21 22  1  0
 17 23  1  0
 14 24  1  0
 24 25  2  0
 25 26  1  0
 26 27  2  0
 27 28  1  0
 28 29  2  0
  9 30  1  0
 30 31  1  0
 31 32  2  0
 32  4  1  0
 31  7  1  0
 29 12  1  0
 23 14  1  0
 29 24  1  0
 22 18  1  0
  1 33  1  0
  1 34  1  0
  5 35  1  0
  6 36  1  0
  8 37  1  0
 13 38  1  0
 13 39  1  0
 15 40  1  0
 15 41  1  0
 16 42  1  0
 16 43  1  0
 18 44  1  6
 19 45  1  0
 19 46  1  0
 20 47  1  0
 20 48  1  0
 21 49  1  0
 22 50  1  0
 22 51  1  0
 23 52  1  0
 23 53  1  0
 25 54  1  0
 26 55  1  0
 27 56  1  0
 28 57  1  0
 30 58  1  0
 32 59  1  0
M  END
>  <meeko>  (10) 
{"free_energy": -8.42, "intermolecular_energy": -9.61, "internal_energy": -1.16, "cluster_size": 4, "cluster_id": 2, "rank_in_cluster": 4}

$$$$

     RDKit          3D

 59 64  0  0  0  0  0  0  0  0999 V2000
  131.7140   73.8090  228.1060 N   0  0  0  0  0  0  0  0  0  0  0  0
  132.8170   73.5510  227.2300 C   0  0  0  0  0  0  0  0  0  0  0  0
  133.3470   72.4060  227.2430 O   0  0  0  0  0  0  0  0  0  0  0  0
  133.3550   74.5970  226.3240 C   0  0  0  0  0  0  0  0  0  0  0  0
  132.6660   75.8340  226.1880 C   0  0  0  0  0  0  0  0  0  0  0  0
  133.1630   76.8540  225.3550 C   0  0  0  0  0  0  0  0  0  0  0  0
  134.3450   76.6120  224.6660 C   0  0  0  0  0  0  0  0  0  0  0  0
  135.0760   77.4250  223.8280 C   0  0  0  0  0  0  0  0  0  0  0  0
  136.1850   76.6620  223.4700 C   0  0  0  0  0  0  0  0  0  0  0  0
  137.2950   77.1240  222.6190 C   0  0  0  0  0  0  0  0  0  0  0  0
  137.7150   76.3840  221.6910 O   0  0  0  0  0  0  0  0  0  0  0  0
  137.8670   78.4240  222.7940 N   0  0  0  0  0  0  0  0  0  0  0  0
  137.0830   79.6270  223.0600 C   0  0  0  0  0  0  0  0  0  0  0  0
  138.1210   80.7160  223.5070 C   0  0  1  0  0  0  0  0  0  0  0  0
  137.9730   82.0080  222.7220 C   0  0  0  0  0  0  0  0  0  0  0  0
  136.9640   82.7880  223.5430 C   0  0  0  0  0  0  0  0  0  0  0  0
  137.1920   82.4440  224.9570 N   0  0  0  0  0  0  0  0  0  0  0  0
  135.9360   82.3930  225.7380 C   0  0  2  0  0  0  0  0  0  0  0  0
  136.1350   82.8490  227.1730 C   0  0  0  0  0  0  0  0  0  0  0  0
  135.0980   82.0720  227.9620 C   0  0  0  0  0  0  0  0  0  0  0  0
  134.7180   80.8930  227.1830 N   0  0  0  0  0  0  0  0  0  0  0  0
  135.4390   80.9610  225.9140 C   0  0  0  0  0  0  0  0  0  0  0  0
  137.9170   81.1550  224.9670 C   0  0  0  0  0  0  0  0  0  0  0  0
  139.4430   80.0300  223.2920 C   0  0  0  0  0  0  0  0  0  0  0  0
  140.7330   80.5420  223.4710 C   0  0  0  0  0  0  0  0  0  0  0  0
  141.8300   79.7040  223.2160 C   0  0  0  0  0  0  0  0  0  0  0  0
  141.6270   78.3800  222.7900 C   0  0  0  0  0  0  0  0  0  0  0  0
  140.3250   77.8840  222.6240 C   0  0  0  0  0  0  0  0  0  0  0  0
  139.2480   78.7320  222.9040 C   0  0  0  0  0  0  0  0  0  0  0  0
  136.1480   75.4450  224.0660 N   0  0  0  0  0  0  0  0  0  0  0  0
  135.0190   75.4290  224.7890 C   0  0  0  0  0  0  0  0  0  0  0  0
  134.5620   74.4010  225.6140 C   0  0  0  0  0  0  0  0  0  0  0  0
  131.3210   73.0350  228.6830 H   0  0  0  0  0  0  0  0  0  0  0  0
  131.3270   74.7690  228.2490 H   0  0  0  0  0  0  0  0  0  0  0  0
  131.7300   75.9960  226.7426 H   0  0  0  0  0  0  0  0  0  0  0  0
  132.6325   77.8122  225.2528 H   0  0  0  0  0  0  0  0  0  0  0  0
  134.8367   78.4509  223.5113 H   0  0  0  0  0  0  0  0  0  0  0  0
  136.5548   79.9501  222.1508 H   0  0  0  0  0  0  0  0  0  0  0  0
  136.3181   79.4525  223.8310 H   0  0  0  0  0  0  0  0  0  0  0  0
  138.9311   82.5446  222.6582 H   0  0  0  0  0  0  0  0  0  0  0  0
  137.6571   81.8502  221.6802 H   0  0  0  0  0  0  0  0  0  0  0  0
  137.1081   83.8678  223.3901 H   0  0  0  0  0  0  0  0  0  0  0  0
  135.9369   82.5355  223.2410 H   0  0  0  0  0  0  0  0  0  0  0  0
  135.2423   83.0333  225.1733 H   0  0  0  0  0  0  0  0  0  0  0  0
  137.1502   82.6078  227.5210 H   0  0  0  0  0  0  0  0  0  0  0  0
  136.0207   83.9371  227.2873 H   0  0  0  0  0  0  0  0  0  0  0  0
  135.5225   81.7592  228.9274 H   0  0  0  0  0  0  0  0  0  0  0  0
  134.2162   82.7014  228.1524 H   0  0  0  0  0  0  0  0  0  0  0  0
  135.0170   80.0310  227.6960 H   0  0  0  0  0  0  0  0  0  0  0  0
  136.2928   80.2677  225.9308 H   0  0  0  0  0  0  0  0  0  0  0  0
  134.7792   80.6774  225.0808 H   0  0  0  0  0  0  0  0  0  0  0  0
  138.8926   81.2787  225.4599 H   0  0  0  0  0  0  0  0  0  0  0  0
  137.3423   80.3964  225.5185 H   0  0  0  0  0  0  0  0  0  0  0  0
  140.8842   81.5793  223.8045 H   0  0  0  0  0  0  0  0  0  0  0  0
  142.8531   80.0852  223.3502 H   0  0  0  0  0  0  0  0  0  0  0  0
  142.4913   77.7308  222.5862 H   0  0  0  0  0  0  0  0  0  0  0  0
  140.1550   76.8525  222.2817 H   0  0  0  0  0  0  0  0  0  0  0  0
  136.8670   74.6890  224.0130 H   0  0  0  0  0  0  0  0  0  0  0  0
  135.1264   73.4617  225.7097 H   0  0  0  0  0  0  0  0  0  0  0  0
  1  2  1  0
  2  3  2  0
  2  4  1  0
  4  5  2  0
  5  6  1  0
  6  7  2  0
  7  8  1  0
  8  9  2  0
  9 10  1  0
 10 11  2  0
 10 12  1  0
 12 13  1  0
 14 13  1  6
 14 15  1  0
 15 16  1  0
 16 17  1  0
 17 18  1  0
 18 19  1  0
 19 20  1  0
 20 21  1  0
 21 22  1  0
 17 23  1  0
 14 24  1  0
 24 25  2  0
 25 26  1  0
 26 27  2  0
 27 28  1  0
 28 29  2  0
  9 30  1  0
 30 31  1  0
 31 32  2  0
 32  4  1  0
 31  7  1  0
 29 12  1  0
 23 14  1  0
 29 24  1  0
 22 18  1  0
  1 33  1  0
  1 34  1  0
  5 35  1  0
  6 36  1  0
  8 37  1  0
 13 38  1  0
 13 39  1  0
 15 40  1  0
 15 41  1  0
 16 42  1  0
 16 43  1  0
 18 44  1  6
 19 45  1  0
 19 46  1  0
 20 47  1  0
 20 48  1  0
 21 49  1  0
 22 50  1  0
 22 51  1  0
 23 52  1  0
 23 53  1  0
 25 54  1  0
 26 55  1  0
 27 56  1  0
 28 57  1  0
 30 58  1  0
 32 59  1  0
M  END
>  <meeko>  (11) 
{"free_energy": -8.58, "intermolecular_energy": -9.77, "internal_energy": -1.29, "cluster_size": 9, "cluster_id": 3, "rank_in_cluster": 1}

$$$$

     RDKit          3D

 59 64  0  0  0  0  0  0  0  0999 V2000
  145.8470   73.0150  221.4230 N   0  0  0  0  0  0  0  0  0  0  0  0
  145.5410   72.9710  220.0240 C   0  0  0  0  0  0  0  0  0  0  0  0
  145.9810   72.0080  219.3370 O   0  0  0  0  0  0  0  0  0  0  0  0
  144.7350   74.0310  219.3680 C   0  0  0  0  0  0  0  0  0  0  0  0
  144.4460   73.9380  217.9780 C   0  0  0  0  0  0  0  0  0  0  0  0
  143.6640   74.9140  217.3330 C   0  0  0  0  0  0  0  0  0  0  0  0
  143.1880   75.9730  218.0940 C   0  0  0  0  0  0  0  0  0  0  0  0
  142.3800   77.0330  217.7490 C   0  0  0  0  0  0  0  0  0  0  0  0
  142.2040   77.7480  218.9320 C   0  0  0  0  0  0  0  0  0  0  0  0
  141.3620   78.9480  219.0820 C   0  0  0  0  0  0  0  0  0  0  0  0
  141.1920   79.7120  218.0960 O   0  0  0  0  0  0  0  0  0  0  0  0
  140.6920   79.2310  220.3130 N   0  0  0  0  0  0  0  0  0  0  0  0
  139.2970   78.8830  220.5760 C   0  0  0  0  0  0  0  0  0  0  0  0
  139.1020   79.0660  222.1230 C   0  0  1  0  0  0  0  0  0  0  0  0
  137.8990   79.9340  222.4520 C   0  0  0  0  0  0  0  0  0  0  0  0
  136.7690   78.9260  222.5380 C   0  0  0  0  0  0  0  0  0  0  0  0
  137.3380   77.6790  223.0770 N   0  0  0  0  0  0  0  0  0  0  0  0
  136.7160   76.4710  222.4890 C   0  0  2  0  0  0  0  0  0  0  0  0
  135.8200   75.7480  223.4780 C   0  0  0  0  0  0  0  0  0  0  0  0
  135.8950   74.2920  223.0590 C   0  0  0  0  0  0  0  0  0  0  0  0
  137.1180   74.1020  222.2780 N   0  0  0  0  0  0  0  0  0  0  0  0
  137.7570   75.4090  222.1490 C   0  0  0  0  0  0  0  0  0  0  0  0
  138.7950   77.7390  222.8360 C   0  0  0  0  0  0  0  0  0  0  0  0
  140.4120   79.6650  222.5600 C   0  0  0  0  0  0  0  0  0  0  0  0
  140.7960   80.0930  223.8350 C   0  0  0  0  0  0  0  0  0  0  0  0
  142.0880   80.6140  224.0090 C   0  0  0  0  0  0  0  0  0  0  0  0
  142.9700   80.7000  222.9180 C   0  0  0  0  0  0  0  0  0  0  0  0
  142.5690   80.2570  221.6490 C   0  0  0  0  0  0  0  0  0  0  0  0
  141.2830   79.7230  221.5050 C   0  0  0  0  0  0  0  0  0  0  0  0
  142.8590   77.1530  219.9580 N   0  0  0  0  0  0  0  0  0  0  0  0
  143.4560   76.0740  219.4320 C   0  0  0  0  0  0  0  0  0  0  0  0
  144.2170   75.1200  220.1060 C   0  0  0  0  0  0  0  0  0  0  0  0
  146.3620   72.2230  221.8640 H   0  0  0  0  0  0  0  0  0  0  0  0
  145.6390   73.8500  222.0130 H   0  0  0  0  0  0  0  0  0  0  0  0
  144.8400   73.0900  217.3986 H   0  0  0  0  0  0  0  0  0  0  0  0
  143.4369   74.8401  216.2592 H   0  0  0  0  0  0  0  0  0  0  0  0
  141.9646   77.2646  216.7572 H   0  0  0  0  0  0  0  0  0  0  0  0
  138.6229   79.5528  220.0219 H   0  0  0  0  0  0  0  0  0  0  0  0
  139.0654   77.8568  220.2546 H   0  0  0  0  0  0  0  0  0  0  0  0
  138.0376   80.4561  223.4102 H   0  0  0  0  0  0  0  0  0  0  0  0
  137.7191   80.7269  221.7111 H   0  0  0  0  0  0  0  0  0  0  0  0
  135.9801   79.3003  223.2070 H   0  0  0  0  0  0  0  0  0  0  0  0
  136.3219   78.7552  221.5476 H   0  0  0  0  0  0  0  0  0  0  0  0
  136.1717   76.8499  221.6114 H   0  0  0  0  0  0  0  0  0  0  0  0
  136.1905   75.8771  224.5056 H   0  0  0  0  0  0  0  0  0  0  0  0
  134.7900   76.1341  223.4712 H   0  0  0  0  0  0  0  0  0  0  0  0
  135.9195   73.6489  223.9511 H   0  0  0  0  0  0  0  0  0  0  0  0
  135.0145   74.0248  222.4562 H   0  0  0  0  0  0  0  0  0  0  0  0
  137.7600   73.4600  222.7980 H   0  0  0  0  0  0  0  0  0  0  0  0
  138.6062   75.4809  222.8445 H   0  0  0  0  0  0  0  0  0  0  0  0
  138.1343   75.5536  221.1259 H   0  0  0  0  0  0  0  0  0  0  0  0
  139.3343   77.6959  223.7938 H   0  0  0  0  0  0  0  0  0  0  0  0
  139.1162   76.8883  222.2170 H   0  0  0  0  0  0  0  0  0  0  0  0
  140.1000   80.0228  224.6839 H   0  0  0  0  0  0  0  0  0  0  0  0
  142.4113   80.9563  225.0031 H   0  0  0  0  0  0  0  0  0  0  0  0
  143.9783   81.1162  223.0599 H   0  0  0  0  0  0  0  0  0  0  0  0
  143.2490   80.3275  220.7873 H   0  0  0  0  0  0  0  0  0  0  0  0
  142.8650   77.4430  220.9620 H   0  0  0  0  0  0  0  0  0  0  0  0
  144.4096   75.2122  221.1851 H   0  0  0  0  0  0  0  0  0  0  0  0
  1  2  1  0
  2  3  2  0
  2  4  1  0
  4  5  2  0
  5  6  1  0
  6  7  2  0
  7  8  1  0
  8  9  2  0
  9 10  1  0
 10 11  2  0
 10 12  1  0
 12 13  1  0
 14 13  1  6
 14 15  1  0
 15 16  1  0
 16 17  1  0
 17 18  1  0
 18 19  1  0
 19 20  1  0
 20 21  1  0
 21 22  1  0
 17 23  1  0
 14 24  1  0
 24 25  2  0
 25 26  1  0
 26 27  2  0
 27 28  1  0
 28 29  2  0
  9 30  1  0
 30 31  1  0
 31 32  2  0
 32  4  1  0
 31  7  1  0
 29 12  1  0
 23 14  1  0
 29 24  1  0
 22 18  1  0
  1 33  1  0
  1 34  1  0
  5 35  1  0
  6 36  1  0
  8 37  1  0
 13 38  1  0
 13 39  1  0
 15 40  1  0
 15 41  1  0
 16 42  1  0
 16 43  1  0
 18 44  1  6
 19 45  1  0
 19 46  1  0
 20 47  1  0
 20 48  1  0
 21 49  1  0
 22 50  1  0
 22 51  1  0
 23 52  1  0
 23 53  1  0
 25 54  1  0
 26 55  1  0
 27 56  1  0
 28 57  1  0
 30 58  1  0
 32 59  1  0
M  END
>  <meeko>  (12) 
{"free_energy": -8.64, "intermolecular_energy": -9.83, "internal_energy": -1.18, "cluster_size": 4, "cluster_id": 2, "rank_in_cluster": 2}

$$$$

     RDKit          3D

 59 64  0  0  0  0  0  0  0  0999 V2000
  145.8270   73.0020  221.4330 N   0  0  0  0  0  0  0  0  0  0  0  0
  145.5300   72.9600  220.0330 C   0  0  0  0  0  0  0  0  0  0  0  0
  145.9710   71.9970  219.3470 O   0  0  0  0  0  0  0  0  0  0  0  0
  144.7310   74.0240  219.3730 C   0  0  0  0  0  0  0  0  0  0  0  0
  144.4690   73.9440  217.9760 C   0  0  0  0  0  0  0  0  0  0  0  0
  143.6950   74.9240  217.3270 C   0  0  0  0  0  0  0  0  0  0  0  0
  143.2000   75.9730  218.0900 C   0  0  0  0  0  0  0  0  0  0  0  0
  142.3940   77.0330  217.7410 C   0  0  0  0  0  0  0  0  0  0  0  0
  142.1920   77.7340  218.9280 C   0  0  0  0  0  0  0  0  0  0  0  0
  141.3430   78.9300  219.0750 C   0  0  0  0  0  0  0  0  0  0  0  0
  141.1610   79.6860  218.0850 O   0  0  0  0  0  0  0  0  0  0  0  0
  140.6770   79.2160  220.3080 N   0  0  0  0  0  0  0  0  0  0  0  0
  139.2820   78.8750  220.5750 C   0  0  0  0  0  0  0  0  0  0  0  0
  139.0920   79.0590  222.1220 C   0  0  1  0  0  0  0  0  0  0  0  0
  137.8950   79.9340  222.4550 C   0  0  0  0  0  0  0  0  0  0  0  0
  136.7590   78.9320  222.5440 C   0  0  0  0  0  0  0  0  0  0  0  0
  137.3230   77.6810  223.0810 N   0  0  0  0  0  0  0  0  0  0  0  0
  136.6920   76.4770  222.4940 C   0  0  2  0  0  0  0  0  0  0  0  0
  135.7920   75.7610  223.4840 C   0  0  0  0  0  0  0  0  0  0  0  0
  135.8560   74.3040  223.0660 C   0  0  0  0  0  0  0  0  0  0  0  0
  137.0780   74.1050  222.2860 N   0  0  0  0  0  0  0  0  0  0  0  0
  137.7260   75.4070  222.1560 C   0  0  0  0  0  0  0  0  0  0  0  0
  138.7800   77.7330  222.8360 C   0  0  0  0  0  0  0  0  0  0  0  0
  140.4060   79.6500  222.5560 C   0  0  0  0  0  0  0  0  0  0  0  0
  140.7960   80.0760  223.8300 C   0  0  0  0  0  0  0  0  0  0  0  0
  142.0910   80.5890  224.0010 C   0  0  0  0  0  0  0  0  0  0  0  0
  142.9710   80.6710  222.9080 C   0  0  0  0  0  0  0  0  0  0  0  0
  142.5640   80.2310  221.6390 C   0  0  0  0  0  0  0  0  0  0  0  0
  141.2750   79.7040  221.4980 C   0  0  0  0  0  0  0  0  0  0  0  0
  142.8300   77.1320  219.9610 N   0  0  0  0  0  0  0  0  0  0  0  0
  143.4430   76.0610  219.4340 C   0  0  0  0  0  0  0  0  0  0  0  0
  144.1950   75.1030  220.1120 C   0  0  0  0  0  0  0  0  0  0  0  0
  146.3370   72.2080  221.8770 H   0  0  0  0  0  0  0  0  0  0  0  0
  145.6190   73.8380  222.0230 H   0  0  0  0  0  0  0  0  0  0  0  0
  144.8775   73.1038  217.3953 H   0  0  0  0  0  0  0  0  0  0  0  0
  143.4886   74.8608  216.2484 H   0  0  0  0  0  0  0  0  0  0  0  0
  141.9967   77.2737  216.7439 H   0  0  0  0  0  0  0  0  0  0  0  0
  138.6096   79.5479  220.0227 H   0  0  0  0  0  0  0  0  0  0  0  0
  139.0448   77.8498  220.2546 H   0  0  0  0  0  0  0  0  0  0  0  0
  138.0396   80.4549  223.4130 H   0  0  0  0  0  0  0  0  0  0  0  0
  137.7175   80.7283  221.7150 H   0  0  0  0  0  0  0  0  0  0  0  0
  135.9743   79.3105  223.2155 H   0  0  0  0  0  0  0  0  0  0  0  0
  136.3078   78.7642  221.5550 H   0  0  0  0  0  0  0  0  0  0  0  0
  136.1501   76.8589  221.6162 H   0  0  0  0  0  0  0  0  0  0  0  0
  136.1644   75.8881  224.5112 H   0  0  0  0  0  0  0  0  0  0  0  0
  134.7648   76.1545  223.4778 H   0  0  0  0  0  0  0  0  0  0  0  0
  135.8751   73.6612  223.9584 H   0  0  0  0  0  0  0  0  0  0  0  0
  134.9738   74.0427  222.4631 H   0  0  0  0  0  0  0  0  0  0  0  0
  137.7160   73.4590  222.8060 H   0  0  0  0  0  0  0  0  0  0  0  0
  138.5752   75.4738  222.8520 H   0  0  0  0  0  0  0  0  0  0  0  0
  138.1050   75.5477  221.1330 H   0  0  0  0  0  0  0  0  0  0  0  0
  139.3217   77.6869  223.7923 H   0  0  0  0  0  0  0  0  0  0  0  0
  139.0951   76.8806  222.2162 H   0  0  0  0  0  0  0  0  0  0  0  0
  140.1017   80.0102  224.6806 H   0  0  0  0  0  0  0  0  0  0  0  0
  142.4188   80.9284  224.9947 H   0  0  0  0  0  0  0  0  0  0  0  0
  143.9820   81.0814  223.0477 H   0  0  0  0  0  0  0  0  0  0  0  0
  143.2421   80.2987  220.7755 H   0  0  0  0  0  0  0  0  0  0  0  0
  142.8170   77.4110  220.9670 H   0  0  0  0  0  0  0  0  0  0  0  0
  144.3671   75.1847  221.1954 H   0  0  0  0  0  0  0  0  0  0  0  0
  1  2  1  0
  2  3  2  0
  2  4  1  0
  4  5  2  0
  5  6  1  0
  6  7  2  0
  7  8  1  0
  8  9  2  0
  9 10  1  0
 10 11  2  0
 10 12  1  0
 12 13  1  0
 14 13  1  6
 14 15  1  0
 15 16  1  0
 16 17  1  0
 17 18  1  0
 18 19  1  0
 19 20  1  0
 20 21  1  0
 21 22  1  0
 17 23  1  0
 14 24  1  0
 24 25  2  0
 25 26  1  0
 26 27  2  0
 27 28  1  0
 28 29  2  0
  9 30  1  0
 30 31  1  0
 31 32  2  0
 32  4  1  0
 31  7  1  0
 29 12  1  0
 23 14  1  0
 29 24  1  0
 22 18  1  0
  1 33  1  0
  1 34  1  0
  5 35  1  0
  6 36  1  0
  8 37  1  0
 13 38  1  0
 13 39  1  0
 15 40  1  0
 15 41  1  0
 16 42  1  0
 16 43  1  0
 18 44  1  6
 19 45  1  0
 19 46  1  0
 20 47  1  0
 20 48  1  0
 21 49  1  0
 22 50  1  0
 22 51  1  0
 23 52  1  0
 23 53  1  0
 25 54  1  0
 26 55  1  0
 27 56  1  0
 28 57  1  0
 30 58  1  0
 32 59  1  0
M  END
>  <meeko>  (13) 
{"free_energy": -8.64, "intermolecular_energy": -9.83, "internal_energy": -1.18, "cluster_size": 4, "cluster_id": 2, "rank_in_cluster": 1}

$$$$

     RDKit          3D

 59 64  0  0  0  0  0  0  0  0999 V2000
  142.7960   80.7010  222.5200 N   0  0  0  0  0  0  0  0  0  0  0  0
  141.5230   80.4330  223.1200 C   0  0  0  0  0  0  0  0  0  0  0  0
  141.0290   81.2920  223.9020 O   0  0  0  0  0  0  0  0  0  0  0  0
  140.7850   79.1740  222.8540 C   0  0  0  0  0  0  0  0  0  0  0  0
  139.3700   79.1410  223.0030 C   0  0  0  0  0  0  0  0  0  0  0  0
  138.6390   77.9690  222.7340 C   0  0  0  0  0  0  0  0  0  0  0  0
  139.3420   76.8430  222.3260 C   0  0  0  0  0  0  0  0  0  0  0  0
  138.8980   75.5920  221.9600 C   0  0  0  0  0  0  0  0  0  0  0  0
  140.0500   74.8940  221.6070 C   0  0  0  0  0  0  0  0  0  0  0  0
  140.0820   73.5130  221.0910 C   0  0  0  0  0  0  0  0  0  0  0  0
  140.7430   73.2550  220.0520 O   0  0  0  0  0  0  0  0  0  0  0  0
  139.4180   72.4510  221.7830 N   0  0  0  0  0  0  0  0  0  0  0  0
  140.0860   71.5510  222.7190 C   0  0  0  0  0  0  0  0  0  0  0  0
  138.9340   70.7940  223.4700 C   0  0  1  0  0  0  0  0  0  0  0  0
  139.1250   69.2870  223.4450 C   0  0  0  0  0  0  0  0  0  0  0  0
  139.9560   69.0310  224.6880 C   0  0  0  0  0  0  0  0  0  0  0  0
  139.5400   70.0170  225.7010 N   0  0  0  0  0  0  0  0  0  0  0  0
  140.6670   70.4730  226.5450 C   0  0  2  0  0  0  0  0  0  0  0  0
  140.2340   70.7640  227.9710 C   0  0  0  0  0  0  0  0  0  0  0  0
  141.1830   71.8520  228.4370 C   0  0  0  0  0  0  0  0  0  0  0  0
  141.7350   72.5160  227.2550 N   0  0  0  0  0  0  0  0  0  0  0  0
  141.2080   71.8220  226.0830 C   0  0  0  0  0  0  0  0  0  0  0  0
  138.8940   71.1280  224.9710 C   0  0  0  0  0  0  0  0  0  0  0  0
  137.6990   71.2550  222.7450 C   0  0  0  0  0  0  0  0  0  0  0  0
  136.3700   70.8660  222.9450 C   0  0  0  0  0  0  0  0  0  0  0  0
  135.3710   71.4460  222.1480 C   0  0  0  0  0  0  0  0  0  0  0  0
  135.7090   72.3970  221.1700 C   0  0  0  0  0  0  0  0  0  0  0  0
  137.0460   72.7800  220.9900 C   0  0  0  0  0  0  0  0  0  0  0  0
  138.0220   72.2030  221.8110 C   0  0  0  0  0  0  0  0  0  0  0  0
  141.1490   75.6760  221.7350 N   0  0  0  0  0  0  0  0  0  0  0  0
  140.7020   76.8610  222.1770 C   0  0  0  0  0  0  0  0  0  0  0  0
  141.4570   78.0070  222.4220 C   0  0  0  0  0  0  0  0  0  0  0  0
  143.2590   81.6220  222.6780 H   0  0  0  0  0  0  0  0  0  0  0  0
  143.3230   79.9760  221.9840 H   0  0  0  0  0  0  0  0  0  0  0  0
  138.8393   80.0460  223.3337 H   0  0  0  0  0  0  0  0  0  0  0  0
  137.5447   77.9455  222.8435 H   0  0  0  0  0  0  0  0  0  0  0  0
  137.8612   75.2248  221.9489 H   0  0  0  0  0  0  0  0  0  0  0  0
  140.7247   70.8380  222.1770 H   0  0  0  0  0  0  0  0  0  0  0  0
  140.7365   72.0985  223.4169 H   0  0  0  0  0  0  0  0  0  0  0  0
  138.1586   68.7645  223.5003 H   0  0  0  0  0  0  0  0  0  0  0  0
  139.6005   68.9243  222.5218 H   0  0  0  0  0  0  0  0  0  0  0  0
  139.7756   68.0111  225.0585 H   0  0  0  0  0  0  0  0  0  0  0  0
  141.0292   69.1274  224.4669 H   0  0  0  0  0  0  0  0  0  0  0  0
  141.4018   69.6574  226.4750 H   0  0  0  0  0  0  0  0  0  0  0  0
  139.1928   71.1177  227.9974 H   0  0  0  0  0  0  0  0  0  0  0  0
  140.2718   69.8708  228.6120 H   0  0  0  0  0  0  0  0  0  0  0  0
  140.6382   72.5821  229.0536 H   0  0  0  0  0  0  0  0  0  0  0  0
  141.9929   71.4162  229.0404 H   0  0  0  0  0  0  0  0  0  0  0  0
  141.4090   73.5100  227.2360 H   0  0  0  0  0  0  0  0  0  0  0  0
  140.3995   72.4141  225.6295 H   0  0  0  0  0  0  0  0  0  0  0  0
  141.9986   71.6821  225.3311 H   0  0  0  0  0  0  0  0  0  0  0  0
  137.8506   71.2361  225.3021 H   0  0  0  0  0  0  0  0  0  0  0  0
  139.4211   72.0733  225.1674 H   0  0  0  0  0  0  0  0  0  0  0  0
  136.1132   70.1203  223.7118 H   0  0  0  0  0  0  0  0  0  0  0  0
  134.3196   71.1552  222.2893 H   0  0  0  0  0  0  0  0  0  0  0  0
  134.9221   72.8425  220.5436 H   0  0  0  0  0  0  0  0  0  0  0  0
  137.3215   73.5170  220.2213 H   0  0  0  0  0  0  0  0  0  0  0  0
  142.1360   75.4300  221.4980 H   0  0  0  0  0  0  0  0  0  0  0  0
  142.5482   78.0037  222.2828 H   0  0  0  0  0  0  0  0  0  0  0  0
  1  2  1  0
  2  3  2  0
  2  4  1  0
  4  5  2  0
  5  6  1  0
  6  7  2  0
  7  8  1  0
  8  9  2  0
  9 10  1  0
 10 11  2  0
 10 12  1  0
 12 13  1  0
 14 13  1  6
 14 15  1  0
 15 16  1  0
 16 17  1  0
 17 18  1  0
 18 19  1  0
 19 20  1  0
 20 21  1  0
 21 22  1  0
 17 23  1  0
 14 24  1  0
 24 25  2  0
 25 26  1  0
 26 27  2  0
 27 28  1  0
 28 29  2  0
  9 30  1  0
 30 31  1  0
 31 32  2  0
 32  4  1  0
 31  7  1  0
 29 12  1  0
 23 14  1  0
 29 24  1  0
 22 18  1  0
  1 33  1  0
  1 34  1  0
  5 35  1  0
  6 36  1  0
  8 37  1  0
 13 38  1  0
 13 39  1  0
 15 40  1  0
 15 41  1  0
 16 42  1  0
 16 43  1  0
 18 44  1  1
 19 45  1  0
 19 46  1  0
 20 47  1  0
 20 48  1  0
 21 49  1  0
 22 50  1  0
 22 51  1  0
 23 52  1  0
 23 53  1  0
 25 54  1  0
 26 55  1  0
 27 56  1  0
 28 57  1  0
 30 58  1  0
 32 59  1  0
M  END
>  <meeko>  (14) 
{"free_energy": -8.13, "intermolecular_energy": -9.32, "internal_energy": -1.27, "cluster_size": 1, "cluster_id": 5, "rank_in_cluster": 1}

$$$$

     RDKit          3D

 59 64  0  0  0  0  0  0  0  0999 V2000
  131.7310   73.8350  228.1160 N   0  0  0  0  0  0  0  0  0  0  0  0
  132.8170   73.5670  227.2230 C   0  0  0  0  0  0  0  0  0  0  0  0
  133.3300   72.4140  227.2200 O   0  0  0  0  0  0  0  0  0  0  0  0
  133.3570   74.6110  226.3160 C   0  0  0  0  0  0  0  0  0  0  0  0
  132.6630   75.8450  226.1700 C   0  0  0  0  0  0  0  0  0  0  0  0
  133.1620   76.8640  225.3370 C   0  0  0  0  0  0  0  0  0  0  0  0
  134.3490   76.6240  224.6560 C   0  0  0  0  0  0  0  0  0  0  0  0
  135.0820   77.4350  223.8190 C   0  0  0  0  0  0  0  0  0  0  0  0
  136.1960   76.6750  223.4710 C   0  0  0  0  0  0  0  0  0  0  0  0
  137.3100   77.1380  222.6250 C   0  0  0  0  0  0  0  0  0  0  0  0
  137.7380   76.3960  221.7020 O   0  0  0  0  0  0  0  0  0  0  0  0
  137.8770   78.4400  222.7980 N   0  0  0  0  0  0  0  0  0  0  0  0
  137.0880   79.6400  223.0630 C   0  0  0  0  0  0  0  0  0  0  0  0
  138.1210   80.7340  223.5090 C   0  0  1  0  0  0  0  0  0  0  0  0
  137.9690   82.0250  222.7220 C   0  0  0  0  0  0  0  0  0  0  0  0
  136.9560   82.8020  223.5410 C   0  0  0  0  0  0  0  0  0  0  0  0
  137.1840   82.4600  224.9560 N   0  0  0  0  0  0  0  0  0  0  0  0
  135.9280   82.4050  225.7360 C   0  0  2  0  0  0  0  0  0  0  0  0
  136.1210   82.8710  227.1680 C   0  0  0  0  0  0  0  0  0  0  0  0
  135.0880   82.0930  227.9600 C   0  0  0  0  0  0  0  0  0  0  0  0
  134.7180   80.9060  227.1870 N   0  0  0  0  0  0  0  0  0  0  0  0
  135.4390   80.9720  225.9190 C   0  0  0  0  0  0  0  0  0  0  0  0
  137.9140   81.1740  224.9680 C   0  0  0  0  0  0  0  0  0  0  0  0
  139.4460   80.0530  223.2970 C   0  0  0  0  0  0  0  0  0  0  0  0
  140.7340   80.5700  223.4760 C   0  0  0  0  0  0  0  0  0  0  0  0
  141.8340   79.7360  223.2240 C   0  0  0  0  0  0  0  0  0  0  0  0
  141.6370   78.4110  222.7990 C   0  0  0  0  0  0  0  0  0  0  0  0
  140.3380   77.9090  222.6320 C   0  0  0  0  0  0  0  0  0  0  0  0
  139.2560   78.7540  222.9100 C   0  0  0  0  0  0  0  0  0  0  0  0
  136.1610   75.4600  224.0710 N   0  0  0  0  0  0  0  0  0  0  0  0
  135.0270   75.4430  224.7880 C   0  0  0  0  0  0  0  0  0  0  0  0
  134.5690   74.4170  225.6140 C   0  0  0  0  0  0  0  0  0  0  0  0
  131.3350   73.0630  228.6950 H   0  0  0  0  0  0  0  0  0  0  0  0
  131.3600   74.7990  228.2710 H   0  0  0  0  0  0  0  0  0  0  0  0
  131.7219   76.0049  226.7167 H   0  0  0  0  0  0  0  0  0  0  0  0
  132.6290   77.8201  225.2286 H   0  0  0  0  0  0  0  0  0  0  0  0
  134.8408   78.4585  223.4960 H   0  0  0  0  0  0  0  0  0  0  0  0
  136.5584   79.9600  222.1535 H   0  0  0  0  0  0  0  0  0  0  0  0
  136.3241   79.4628  223.8344 H   0  0  0  0  0  0  0  0  0  0  0  0
  138.9251   82.5652  222.6588 H   0  0  0  0  0  0  0  0  0  0  0  0
  137.6550   81.8648  221.6800 H   0  0  0  0  0  0  0  0  0  0  0  0
  137.0961   83.8822  223.3872 H   0  0  0  0  0  0  0  0  0  0  0  0
  135.9301   82.5454  223.2381 H   0  0  0  0  0  0  0  0  0  0  0  0
  135.2315   83.0378  225.1664 H   0  0  0  0  0  0  0  0  0  0  0  0
  137.1371   82.6385  227.5195 H   0  0  0  0  0  0  0  0  0  0  0  0
  135.9993   83.9590  227.2750 H   0  0  0  0  0  0  0  0  0  0  0  0
  135.5124   81.7894  228.9284 H   0  0  0  0  0  0  0  0  0  0  0  0
  134.2016   82.7175  228.1450 H   0  0  0  0  0  0  0  0  0  0  0  0
  135.0210   80.0500  227.7070 H   0  0  0  0  0  0  0  0  0  0  0  0
  136.2966   80.2835  225.9397 H   0  0  0  0  0  0  0  0  0  0  0  0
  134.7812   80.6808  225.0869 H   0  0  0  0  0  0  0  0  0  0  0  0
  138.8887   81.3022  225.4615 H   0  0  0  0  0  0  0  0  0  0  0  0
  137.3417   80.4138  225.5198 H   0  0  0  0  0  0  0  0  0  0  0  0
  140.8811   81.6085  223.8073 H   0  0  0  0  0  0  0  0  0  0  0  0
  142.8554   80.1212  223.3598 H   0  0  0  0  0  0  0  0  0  0  0  0
  142.5044   77.7655  222.5966 H   0  0  0  0  0  0  0  0  0  0  0  0
  140.1729   76.8763  222.2909 H   0  0  0  0  0  0  0  0  0  0  0  0
  136.8820   74.7070  224.0260 H   0  0  0  0  0  0  0  0  0  0  0  0
  135.1364   73.4803  225.7169 H   0  0  0  0  0  0  0  0  0  0  0  0
  1  2  1  0
  2  3  2  0
  2  4  1  0
  4  5  2  0
  5  6  1  0
  6  7  2  0
  7  8  1  0
  8  9  2  0
  9 10  1  0
 10 11  2  0
 10 12  1  0
 12 13  1  0
 14 13  1  6
 14 15  1  0
 15 16  1  0
 16 17  1  0
 17 18  1  0
 18 19  1  0
 19 20  1  0
 20 21  1  0
 21 22  1  0
 17 23  1  0
 14 24  1  0
 24 25  2  0
 25 26  1  0
 26 27  2  0
 27 28  1  0
 28 29  2  0
  9 30  1  0
 30 31  1  0
 31 32  2  0
 32  4  1  0
 31  7  1  0
 29 12  1  0
 23 14  1  0
 29 24  1  0
 22 18  1  0
  1 33  1  0
  1 34  1  0
  5 35  1  0
  6 36  1  0
  8 37  1  0
 13 38  1  0
 13 39  1  0
 15 40  1  0
 15 41  1  0
 16 42  1  0
 16 43  1  0
 18 44  1  6
 19 45  1  0
 19 46  1  0
 20 47  1  0
 20 48  1  0
 21 49  1  0
 22 50  1  0
 22 51  1  0
 23 52  1  0
 23 53  1  0
 25 54  1  0
 26 55  1  0
 27 56  1  0
 28 57  1  0
 30 58  1  0
 32 59  1  0
M  END
>  <meeko>  (15) 
{"free_energy": -8.57, "intermolecular_energy": -9.76, "internal_energy": -1.29, "cluster_size": 9, "cluster_id": 3, "rank_in_cluster": 3}

$$$$

     RDKit          3D

 59 64  0  0  0  0  0  0  0  0999 V2000
  131.6480   73.4940  227.9700 N   0  0  0  0  0  0  0  0  0  0  0  0
  132.8560   73.3430  227.2140 C   0  0  0  0  0  0  0  0  0  0  0  0
  133.4940   72.2580  227.3010 O   0  0  0  0  0  0  0  0  0  0  0  0
  133.3750   74.4310  226.3480 C   0  0  0  0  0  0  0  0  0  0  0  0
  132.7200   75.6940  226.3340 C   0  0  0  0  0  0  0  0  0  0  0  0
  133.2020   76.7530  225.5420 C   0  0  0  0  0  0  0  0  0  0  0  0
  134.3350   76.5240  224.7710 C   0  0  0  0  0  0  0  0  0  0  0  0
  135.0430   77.3690  223.9460 C   0  0  0  0  0  0  0  0  0  0  0  0
  136.1050   76.6010  223.4750 C   0  0  0  0  0  0  0  0  0  0  0  0
  137.1800   77.0870  222.5920 C   0  0  0  0  0  0  0  0  0  0  0  0
  137.5550   76.3770  221.6230 O   0  0  0  0  0  0  0  0  0  0  0  0
  137.7670   78.3780  222.7850 N   0  0  0  0  0  0  0  0  0  0  0  0
  136.9940   79.5880  223.0560 C   0  0  0  0  0  0  0  0  0  0  0  0
  138.0420   80.6590  223.5240 C   0  0  1  0  0  0  0  0  0  0  0  0
  137.9170   81.9610  222.7510 C   0  0  0  0  0  0  0  0  0  0  0  0
  136.9090   82.7460  223.5690 C   0  0  0  0  0  0  0  0  0  0  0  0
  137.1200   82.3840  224.9820 N   0  0  0  0  0  0  0  0  0  0  0  0
  135.8560   82.3410  225.7510 C   0  0  2  0  0  0  0  0  0  0  0  0
  136.0430   82.7940  227.1880 C   0  0  0  0  0  0  0  0  0  0  0  0
  134.9920   82.0240  227.9650 C   0  0  0  0  0  0  0  0  0  0  0  0
  134.6120   80.8480  227.1800 N   0  0  0  0  0  0  0  0  0  0  0  0
  135.3460   80.9130  225.9190 C   0  0  0  0  0  0  0  0  0  0  0  0
  137.8290   81.0870  224.9860 C   0  0  0  0  0  0  0  0  0  0  0  0
  139.3570   79.9600  223.3150 C   0  0  0  0  0  0  0  0  0  0  0  0
  140.6510   80.4530  223.5120 C   0  0  0  0  0  0  0  0  0  0  0  0
  141.7400   79.6050  223.2590 C   0  0  0  0  0  0  0  0  0  0  0  0
  141.5250   78.2880  222.8180 C   0  0  0  0  0  0  0  0  0  0  0  0
  140.2190   77.8090  222.6340 C   0  0  0  0  0  0  0  0  0  0  0  0
  139.1490   78.6680  222.9120 C   0  0  0  0  0  0  0  0  0  0  0  0
  136.0630   75.3480  223.9910 N   0  0  0  0  0  0  0  0  0  0  0  0
  134.9760   75.3160  224.7770 C   0  0  0  0  0  0  0  0  0  0  0  0
  134.5330   74.2490  225.5580 C   0  0  0  0  0  0  0  0  0  0  0  0
  131.2780   72.6880  228.5180 H   0  0  0  0  0  0  0  0  0  0  0  0
  131.1550   74.4100  228.0560 H   0  0  0  0  0  0  0  0  0  0  0  0
  131.8226   75.8452  226.9520 H   0  0  0  0  0  0  0  0  0  0  0  0
  132.6979   77.7306  225.5337 H   0  0  0  0  0  0  0  0  0  0  0  0
  134.8190   78.4199  223.7106 H   0  0  0  0  0  0  0  0  0  0  0  0
  136.4785   79.9269  222.1453 H   0  0  0  0  0  0  0  0  0  0  0  0
  136.2191   79.4153  223.8174 H   0  0  0  0  0  0  0  0  0  0  0  0
  138.8822   82.4865  222.7023 H   0  0  0  0  0  0  0  0  0  0  0  0
  137.6093   81.8170  221.7048 H   0  0  0  0  0  0  0  0  0  0  0  0
  137.0679   83.8253  223.4284 H   0  0  0  0  0  0  0  0  0  0  0  0
  135.8816   82.5106  223.2542 H   0  0  0  0  0  0  0  0  0  0  0  0
  135.1731   82.9876  225.1804 H   0  0  0  0  0  0  0  0  0  0  0  0
  137.0526   82.5449  227.5466 H   0  0  0  0  0  0  0  0  0  0  0  0
  135.9356   83.8828  227.3022 H   0  0  0  0  0  0  0  0  0  0  0  0
  135.4037   81.7072  228.9346 H   0  0  0  0  0  0  0  0  0  0  0  0
  134.1127   82.6595  228.1467 H   0  0  0  0  0  0  0  0  0  0  0  0
  134.8990   79.9840  227.6960 H   0  0  0  0  0  0  0  0  0  0  0  0
  136.1941   80.2129  225.9429 H   0  0  0  0  0  0  0  0  0  0  0  0
  134.6924   80.6364  225.0786 H   0  0  0  0  0  0  0  0  0  0  0  0
  138.8012   81.1943  225.4893 H   0  0  0  0  0  0  0  0  0  0  0  0
  137.2396   80.3302  225.5244 H   0  0  0  0  0  0  0  0  0  0  0  0
  140.8118   81.4846  223.8582 H   0  0  0  0  0  0  0  0  0  0  0  0
  142.7662   79.9726  223.4065 H   0  0  0  0  0  0  0  0  0  0  0  0
  142.3835   77.6305  222.6164 H   0  0  0  0  0  0  0  0  0  0  0  0
  140.0401   76.7831  222.2798 H   0  0  0  0  0  0  0  0  0  0  0  0
  136.7520   74.5770  223.8470 H   0  0  0  0  0  0  0  0  0  0  0  0
  135.0713   73.2897  225.5593 H   0  0  0  0  0  0  0  0  0  0  0  0
  1  2  1  0
  2  3  2  0
  2  4  1  0
  4  5  2  0
  5  6  1  0
  6  7  2  0
  7  8  1  0
  8  9  2  0
  9 10  1  0
 10 11  2  0
 10 12  1  0
 12 13  1  0
 14 13  1  6
 14 15  1  0
 15 16  1  0
 16 17  1  0
 17 18  1  0
 18 19  1  0
 19 20  1  0
 20 21  1  0
 21 22  1  0
 17 23  1  0
 14 24  1  0
 24 25  2  0
 25 26  1  0
 26 27  2  0
 27 28  1  0
 28 29  2  0
  9 30  1  0
 30 31  1  0
 31 32  2  0
 32  4  1  0
 31  7  1  0
 29 12  1  0
 23 14  1  0
 29 24  1  0
 22 18  1  0
  1 33  1  0
  1 34  1  0
  5 35  1  0
  6 36  1  0
  8 37  1  0
 13 38  1  0
 13 39  1  0
 15 40  1  0
 15 41  1  0
 16 42  1  0
 16 43  1  0
 18 44  1  6
 19 45  1  0
 19 46  1  0
 20 47  1  0
 20 48  1  0
 21 49  1  0
 22 50  1  0
 22 51  1  0
 23 52  1  0
 23 53  1  0
 25 54  1  0
 26 55  1  0
 27 56  1  0
 28 57  1  0
 30 58  1  0
 32 59  1  0
M  END
>  <meeko>  (16) 
{"free_energy": -8.5, "intermolecular_energy": -9.69, "internal_energy": -1.31, "cluster_size": 9, "cluster_id": 3, "rank_in_cluster": 9}

$$$$

     RDKit          3D

 59 64  0  0  0  0  0  0  0  0999 V2000
  131.7180   73.8220  228.1130 N   0  0  0  0  0  0  0  0  0  0  0  0
  132.8030   73.5530  227.2180 C   0  0  0  0  0  0  0  0  0  0  0  0
  133.3120   72.3980  227.2120 O   0  0  0  0  0  0  0  0  0  0  0  0
  133.3450   74.5970  226.3120 C   0  0  0  0  0  0  0  0  0  0  0  0
  132.6550   75.8340  226.1690 C   0  0  0  0  0  0  0  0  0  0  0  0
  133.1570   76.8520  225.3380 C   0  0  0  0  0  0  0  0  0  0  0  0
  134.3420   76.6100  224.6560 C   0  0  0  0  0  0  0  0  0  0  0  0
  135.0770   77.4210  223.8200 C   0  0  0  0  0  0  0  0  0  0  0  0
  136.1890   76.6580  223.4700 C   0  0  0  0  0  0  0  0  0  0  0  0
  137.3030   77.1200  222.6230 C   0  0  0  0  0  0  0  0  0  0  0  0
  137.7330   76.3750  221.7040 O   0  0  0  0  0  0  0  0  0  0  0  0
  137.8680   78.4230  222.7930 N   0  0  0  0  0  0  0  0  0  0  0  0
  137.0780   79.6220  223.0620 C   0  0  0  0  0  0  0  0  0  0  0  0
  138.1110   80.7180  223.5020 C   0  0  1  0  0  0  0  0  0  0  0  0
  137.9510   82.0080  222.7160 C   0  0  0  0  0  0  0  0  0  0  0  0
  136.9410   82.7840  223.5400 C   0  0  0  0  0  0  0  0  0  0  0  0
  137.1790   82.4430  224.9540 N   0  0  0  0  0  0  0  0  0  0  0  0
  135.9270   82.3850  225.7410 C   0  0  2  0  0  0  0  0  0  0  0  0
  136.1390   82.7970  227.1870 C   0  0  0  0  0  0  0  0  0  0  0  0
  135.0970   82.0110  227.9590 C   0  0  0  0  0  0  0  0  0  0  0  0
  134.6980   80.8600  227.1490 N   0  0  0  0  0  0  0  0  0  0  0  0
  135.4120   80.9560  225.8780 C   0  0  0  0  0  0  0  0  0  0  0  0
  137.9120   81.1590  224.9620 C   0  0  0  0  0  0  0  0  0  0  0  0
  139.4370   80.0400  223.2820 C   0  0  0  0  0  0  0  0  0  0  0  0
  140.7240   80.5600  223.4540 C   0  0  0  0  0  0  0  0  0  0  0  0
  141.8250   79.7290  223.1950 C   0  0  0  0  0  0  0  0  0  0  0  0
  141.6280   78.4030  222.7720 C   0  0  0  0  0  0  0  0  0  0  0  0
  140.3290   77.8990  222.6130 C   0  0  0  0  0  0  0  0  0  0  0  0
  139.2470   78.7400  222.8970 C   0  0  0  0  0  0  0  0  0  0  0  0
  136.1500   75.4430  224.0670 N   0  0  0  0  0  0  0  0  0  0  0  0
  135.0170   75.4270  224.7850 C   0  0  0  0  0  0  0  0  0  0  0  0
  134.5560   74.4010  225.6090 C   0  0  0  0  0  0  0  0  0  0  0  0
  131.3200   73.0500  228.6900 H   0  0  0  0  0  0  0  0  0  0  0  0
  131.3510   74.7870  228.2700 H   0  0  0  0  0  0  0  0  0  0  0  0
  131.7149   75.9962  226.7167 H   0  0  0  0  0  0  0  0  0  0  0  0
  132.6271   77.8101  225.2318 H   0  0  0  0  0  0  0  0  0  0  0  0
  134.8385   78.4458  223.4992 H   0  0  0  0  0  0  0  0  0  0  0  0
  136.5429   79.9407  222.1553 H   0  0  0  0  0  0  0  0  0  0  0  0
  136.3187   79.4436  223.8376 H   0  0  0  0  0  0  0  0  0  0  0  0
  138.9056   82.5502  222.6469 H   0  0  0  0  0  0  0  0  0  0  0  0
  137.6307   81.8462  221.6762 H   0  0  0  0  0  0  0  0  0  0  0  0
  137.0779   83.8643  223.3845 H   0  0  0  0  0  0  0  0  0  0  0  0
  135.9137   82.5258  223.2433 H   0  0  0  0  0  0  0  0  0  0  0  0
  135.2389   83.0503  225.1990 H   0  0  0  0  0  0  0  0  0  0  0  0
  137.1529   82.5334  227.5223 H   0  0  0  0  0  0  0  0  0  0  0  0
  136.0388   83.8827  227.3329 H   0  0  0  0  0  0  0  0  0  0  0  0
  135.5227   81.6653  228.9126 H   0  0  0  0  0  0  0  0  0  0  0  0
  134.2242   82.6456  228.1723 H   0  0  0  0  0  0  0  0  0  0  0  0
  134.9880   79.9800  227.6360 H   0  0  0  0  0  0  0  0  0  0  0  0
  136.2564   80.2511  225.8687 H   0  0  0  0  0  0  0  0  0  0  0  0
  134.7433   80.7061  225.0411 H   0  0  0  0  0  0  0  0  0  0  0  0
  138.8895   81.2899  225.4492 H   0  0  0  0  0  0  0  0  0  0  0  0
  137.3448   80.3979  225.5178 H   0  0  0  0  0  0  0  0  0  0  0  0
  140.8702   81.5987  223.7854 H   0  0  0  0  0  0  0  0  0  0  0  0
  142.8463   80.1169  223.3236 H   0  0  0  0  0  0  0  0  0  0  0  0
  142.4953   77.7588  222.5651 H   0  0  0  0  0  0  0  0  0  0  0  0
  140.1642   76.8660  222.2728 H   0  0  0  0  0  0  0  0  0  0  0  0
  136.8690   74.6870  224.0200 H   0  0  0  0  0  0  0  0  0  0  0  0
  135.1205   73.4623  225.7096 H   0  0  0  0  0  0  0  0  0  0  0  0
  1  2  1  0
  2  3  2  0
  2  4  1  0
  4  5  2  0
  5  6  1  0
  6  7  2  0
  7  8  1  0
  8  9  2  0
  9 10  1  0
 10 11  2  0
 10 12  1  0
 12 13  1  0
 14 13  1  6
 14 15  1  0
 15 16  1  0
 16 17  1  0
 17 18  1  0
 18 19  1  0
 19 20  1  0
 20 21  1  0
 21 22  1  0
 17 23  1  0
 14 24  1  0
 24 25  2  0
 25 26  1  0
 26 27  2  0
 27 28  1  0
 28 29  2  0
  9 30  1  0
 30 31  1  0
 31 32  2  0
 32  4  1  0
 31  7  1  0
 29 12  1  0
 23 14  1  0
 29 24  1  0
 22 18  1  0
  1 33  1  0
  1 34  1  0
  5 35  1  0
  6 36  1  0
  8 37  1  0
 13 38  1  0
 13 39  1  0
 15 40  1  0
 15 41  1  0
 16 42  1  0
 16 43  1  0
 18 44  1  6
 19 45  1  0
 19 46  1  0
 20 47  1  0
 20 48  1  0
 21 49  1  0
 22 50  1  0
 22 51  1  0
 23 52  1  0
 23 53  1  0
 25 54  1  0
 26 55  1  0
 27 56  1  0
 28 57  1  0
 30 58  1  0
 32 59  1  0
M  END
>  <meeko>  (17) 
{"free_energy": -8.56, "intermolecular_energy": -9.76, "internal_energy": -1.29, "cluster_size": 9, "cluster_id": 3, "rank_in_cluster": 5}

$$$$

     RDKit          3D

 59 64  0  0  0  0  0  0  0  0999 V2000
  140.4300   67.7710  227.8940 N   0  0  0  0  0  0  0  0  0  0  0  0
  140.2280   69.1370  227.5150 C   0  0  0  0  0  0  0  0  0  0  0  0
  140.2580   70.0260  228.4100 O   0  0  0  0  0  0  0  0  0  0  0  0
  139.9760   69.5250  226.1040 C   0  0  0  0  0  0  0  0  0  0  0  0
  139.0960   68.7440  225.3050 C   0  0  0  0  0  0  0  0  0  0  0  0
  138.8170   69.1000  223.9720 C   0  0  0  0  0  0  0  0  0  0  0  0
  139.4330   70.2340  223.4600 C   0  0  0  0  0  0  0  0  0  0  0  0
  139.3190   70.8370  222.2270 C   0  0  0  0  0  0  0  0  0  0  0  0
  140.1360   71.9630  222.3030 C   0  0  0  0  0  0  0  0  0  0  0  0
  140.3030   72.9650  221.2360 C   0  0  0  0  0  0  0  0  0  0  0  0
  139.2870   73.4250  220.6530 O   0  0  0  0  0  0  0  0  0  0  0  0
  141.5980   73.4640  220.8880 N   0  0  0  0  0  0  0  0  0  0  0  0
  142.8020   72.6370  220.8430 C   0  0  0  0  0  0  0  0  0  0  0  0
  143.8810   73.5050  220.1030 C   0  0  1  0  0  0  0  0  0  0  0  0
  145.1830   73.5890  220.8810 C   0  0  0  0  0  0  0  0  0  0  0  0
  145.9580   72.3870  220.3750 C   0  0  0  0  0  0  0  0  0  0  0  0
  145.5950   72.2000  218.9590 N   0  0  0  0  0  0  0  0  0  0  0  0
  145.5410   70.7730  218.5720 C   0  0  2  0  0  0  0  0  0  0  0  0
  144.2330   70.1180  218.9790 C   0  0  0  0  0  0  0  0  0  0  0  0
  144.5980   68.6660  219.2220 C   0  0  0  0  0  0  0  0  0  0  0  0
  146.0380   68.5920  219.4770 N   0  0  0  0  0  0  0  0  0  0  0  0
  146.5730   69.9430  219.3280 C   0  0  0  0  0  0  0  0  0  0  0  0
  144.3040   72.8910  218.7580 C   0  0  0  0  0  0  0  0  0  0  0  0
  143.1920   74.8320  219.9380 C   0  0  0  0  0  0  0  0  0  0  0  0
  143.6950   76.0160  219.3900 C   0  0  0  0  0  0  0  0  0  0  0  0
  142.8560   77.1400  219.3300 C   0  0  0  0  0  0  0  0  0  0  0  0
  141.5380   77.0670  219.8130 C   0  0  0  0  0  0  0  0  0  0  0  0
  141.0490   75.8670  220.3520 C   0  0  0  0  0  0  0  0  0  0  0  0
  141.8990   74.7550  220.3820 C   0  0  0  0  0  0  0  0  0  0  0  0
  140.7160   72.0590  223.5250 N   0  0  0  0  0  0  0  0  0  0  0  0
  140.2790   70.9970  224.2180 C   0  0  0  0  0  0  0  0  0  0  0  0
  140.5690   70.6810  225.5450 C   0  0  0  0  0  0  0  0  0  0  0  0
  140.6670   67.5390  228.8830 H   0  0  0  0  0  0  0  0  0  0  0  0
  140.2750   66.9790  227.2320 H   0  0  0  0  0  0  0  0  0  0  0  0
  138.6259   67.8475  225.7355 H   0  0  0  0  0  0  0  0  0  0  0  0
  138.1326   68.4988  223.3555 H   0  0  0  0  0  0  0  0  0  0  0  0
  138.7154   70.5029  221.3703 H   0  0  0  0  0  0  0  0  0  0  0  0
  143.1382   72.3921  221.8613 H   0  0  0  0  0  0  0  0  0  0  0  0
  142.6220   71.6827  220.3263 H   0  0  0  0  0  0  0  0  0  0  0  0
  145.7163   74.5254  220.6602 H   0  0  0  0  0  0  0  0  0  0  0  0
  145.0386   73.5852  221.9715 H   0  0  0  0  0  0  0  0  0  0  0  0
  147.0389   72.5697  220.4662 H   0  0  0  0  0  0  0  0  0  0  0  0
  145.7147   71.4895  220.9626 H   0  0  0  0  0  0  0  0  0  0  0  0
  145.6983   70.7849  217.4834 H   0  0  0  0  0  0  0  0  0  0  0  0
  143.8359   70.5782  219.8958 H   0  0  0  0  0  0  0  0  0  0  0  0
  143.4512   70.2314  218.2135 H   0  0  0  0  0  0  0  0  0  0  0  0
  144.0456   68.2841  220.0932 H   0  0  0  0  0  0  0  0  0  0  0  0
  144.3360   68.0567  218.3444 H   0  0  0  0  0  0  0  0  0  0  0  0
  146.1960   68.2700  220.4590 H   0  0  0  0  0  0  0  0  0  0  0  0
  146.7551   70.3846  220.3189 H   0  0  0  0  0  0  0  0  0  0  0  0
  147.5252   69.9204  218.7778 H   0  0  0  0  0  0  0  0  0  0  0  0
  144.4182   73.6843  218.0046 H   0  0  0  0  0  0  0  0  0  0  0  0
  143.5412   72.1818  218.4042 H   0  0  0  0  0  0  0  0  0  0  0  0
  144.7274   76.0657  219.0135 H   0  0  0  0  0  0  0  0  0  0  0  0
  143.2316   78.0817  218.9032 H   0  0  0  0  0  0  0  0  0  0  0  0
  140.8878   77.9532  219.7684 H   0  0  0  0  0  0  0  0  0  0  0  0
  140.0224   75.8017  220.7416 H   0  0  0  0  0  0  0  0  0  0  0  0
  141.3370   72.8210  223.8760 H   0  0  0  0  0  0  0  0  0  0  0  0
  141.2417   71.3146  226.1417 H   0  0  0  0  0  0  0  0  0  0  0  0
  1  2  1  0
  2  3  2  0
  2  4  1  0
  4  5  2  0
  5  6  1  0
  6  7  2  0
  7  8  1  0
  8  9  2  0
  9 10  1  0
 10 11  2  0
 10 12  1  0
 12 13  1  0
 14 13  1  1
 14 15  1  0
 15 16  1  0
 16 17  1  0
 17 18  1  0
 18 19  1  0
 19 20  1  0
 20 21  1  0
 21 22  1  0
 17 23  1  0
 14 24  1  0
 24 25  2  0
 25 26  1  0
 26 27  2  0
 27 28  1  0
 28 29  2  0
  9 30  1  0
 30 31  1  0
 31 32  2  0
 32  4  1  0
 31  7  1  0
 29 12  1  0
 23 14  1  0
 29 24  1  0
 22 18  1  0
  1 33  1  0
  1 34  1  0
  5 35  1  0
  6 36  1  0
  8 37  1  0
 13 38  1  0
 13 39  1  0
 15 40  1  0
 15 41  1  0
 16 42  1  0
 16 43  1  0
 18 44  1  6
 19 45  1  0
 19 46  1  0
 20 47  1  0
 20 48  1  0
 21 49  1  0
 22 50  1  0
 22 51  1  0
 23 52  1  0
 23 53  1  0
 25 54  1  0
 26 55  1  0
 27 56  1  0
 28 57  1  0
 30 58  1  0
 32 59  1  0
M  END
>  <meeko>  (18) 
{"free_energy": -9.12, "intermolecular_energy": -10.31, "internal_energy": -1.18, "cluster_size": 5, "cluster_id": 1, "rank_in_cluster": 3}

$$$$

     RDKit          3D

 59 64  0  0  0  0  0  0  0  0999 V2000
  140.9500   67.6980  227.0820 N   0  0  0  0  0  0  0  0  0  0  0  0
  139.7930   67.7570  226.2400 C   0  0  0  0  0  0  0  0  0  0  0  0
  138.7990   67.0340  226.5240 O   0  0  0  0  0  0  0  0  0  0  0  0
  139.7440   68.6340  225.0430 C   0  0  0  0  0  0  0  0  0  0  0  0
  139.0840   68.1820  223.8660 C   0  0  0  0  0  0  0  0  0  0  0  0
  138.9990   69.0000  222.7230 C   0  0  0  0  0  0  0  0  0  0  0  0
  139.5850   70.2570  222.7790 C   0  0  0  0  0  0  0  0  0  0  0  0
  139.6230   71.2700  221.8460 C   0  0  0  0  0  0  0  0  0  0  0  0
  140.3100   72.3070  222.4740 C   0  0  0  0  0  0  0  0  0  0  0  0
  140.5600   73.6370  221.8900 C   0  0  0  0  0  0  0  0  0  0  0  0
  139.7010   74.5460  222.0300 O   0  0  0  0  0  0  0  0  0  0  0  0
  141.7860   73.9270  221.2130 N   0  0  0  0  0  0  0  0  0  0  0  0
  142.8890   72.9770  221.0880 C   0  0  0  0  0  0  0  0  0  0  0  0
  143.8500   73.5870  220.0070 C   0  0  1  0  0  0  0  0  0  0  0  0
  145.2890   73.6550  220.4910 C   0  0  0  0  0  0  0  0  0  0  0  0
  145.8500   72.3090  220.0730 C   0  0  0  0  0  0  0  0  0  0  0  0
  145.1860   71.9330  218.8120 N   0  0  0  0  0  0  0  0  0  0  0  0
  144.9460   70.4760  218.7100 C   0  0  2  0  0  0  0  0  0  0  0  0
  143.9430   69.9870  219.7400 C   0  0  0  0  0  0  0  0  0  0  0  0
  144.3580   68.5550  220.0190 C   0  0  0  0  0  0  0  0  0  0  0  0
  145.7600   68.4000  219.6310 N   0  0  0  0  0  0  0  0  0  0  0  0
  146.1950   69.6720  219.0600 C   0  0  0  0  0  0  0  0  0  0  0  0
  143.9350   72.7180  218.7410 C   0  0  0  0  0  0  0  0  0  0  0  0
  143.2420   74.9370  219.7390 C   0  0  0  0  0  0  0  0  0  0  0  0
  143.7060   75.9530  218.8970 C   0  0  0  0  0  0  0  0  0  0  0  0
  142.9590   77.1370  218.7950 C   0  0  0  0  0  0  0  0  0  0  0  0
  141.7690   77.2890  219.5290 C   0  0  0  0  0  0  0  0  0  0  0  0
  141.3170   76.2550  220.3620 C   0  0  0  0  0  0  0  0  0  0  0  0
  142.0690   75.0770  220.4310 C   0  0  0  0  0  0  0  0  0  0  0  0
  140.6670   71.9580  223.7340 N   0  0  0  0  0  0  0  0  0  0  0  0
  140.2210   70.7050  223.9040 C   0  0  0  0  0  0  0  0  0  0  0  0
  140.3140   69.9280  225.0580 C   0  0  0  0  0  0  0  0  0  0  0  0
  140.9290   67.1200  227.9500 H   0  0  0  0  0  0  0  0  0  0  0  0
  141.8520   68.1570  226.8240 H   0  0  0  0  0  0  0  0  0  0  0  0
  138.6335   67.1786  223.8489 H   0  0  0  0  0  0  0  0  0  0  0  0
  138.4845   68.6538  221.8145 H   0  0  0  0  0  0  0  0  0  0  0  0
  139.2034   71.2620  220.8292 H   0  0  0  0  0  0  0  0  0  0  0  0
  143.4124   72.8675  222.0493 H   0  0  0  0  0  0  0  0  0  0  0  0
  142.5342   71.9765  220.7995 H   0  0  0  0  0  0  0  0  0  0  0  0
  145.8319   74.4786  220.0043 H   0  0  0  0  0  0  0  0  0  0  0  0
  145.3760   73.8459  221.5708 H   0  0  0  0  0  0  0  0  0  0  0  0
  146.9365   72.3849  219.9188 H   0  0  0  0  0  0  0  0  0  0  0  0
  145.6693   71.5520  220.8504 H   0  0  0  0  0  0  0  0  0  0  0  0
  144.6063   70.3322  217.6737 H   0  0  0  0  0  0  0  0  0  0  0  0
  143.9980   70.5938  220.6558 H   0  0  0  0  0  0  0  0  0  0  0  0
  142.9051   70.0612  219.3833 H   0  0  0  0  0  0  0  0  0  0  0  0
  144.2421   68.3361  221.0908 H   0  0  0  0  0  0  0  0  0  0  0  0
  143.7269   67.8589  219.4470 H   0  0  0  0  0  0  0  0  0  0  0  0
  146.3320   68.1980  220.4840 H   0  0  0  0  0  0  0  0  0  0  0  0
  146.8021   70.2234  219.7931 H   0  0  0  0  0  0  0  0  0  0  0  0
  146.8071   69.5015  218.1620 H   0  0  0  0  0  0  0  0  0  0  0  0
  143.9464   73.3594  217.8474 H   0  0  0  0  0  0  0  0  0  0  0  0
  143.0651   72.0478  218.6771 H   0  0  0  0  0  0  0  0  0  0  0  0
  144.6377   75.8267  218.3261 H   0  0  0  0  0  0  0  0  0  0  0  0
  143.3056   77.9488  218.1386 H   0  0  0  0  0  0  0  0  0  0  0  0
  141.1910   78.2215  219.4496 H   0  0  0  0  0  0  0  0  0  0  0  0
  140.3926   76.3675  220.9476 H   0  0  0  0  0  0  0  0  0  0  0  0
  141.1500   72.5510  224.4450 H   0  0  0  0  0  0  0  0  0  0  0  0
  140.8180   70.3119  225.9573 H   0  0  0  0  0  0  0  0  0  0  0  0
  1  2  1  0
  2  3  2  0
  2  4  1  0
  4  5  2  0
  5  6  1  0
  6  7  2  0
  7  8  1  0
  8  9  2  0
  9 10  1  0
 10 11  2  0
 10 12  1  0
 12 13  1  0
 14 13  1  1
 14 15  1  0
 15 16  1  0
 16 17  1  0
 17 18  1  0
 18 19  1  0
 19 20  1  0
 20 21  1  0
 21 22  1  0
 17 23  1  0
 14 24  1  0
 24 25  2  0
 25 26  1  0
 26 27  2  0
 27 28  1  0
 28 29  2  0
  9 30  1  0
 30 31  1  0
 31 32  2  0
 32  4  1  0
 31  7  1  0
 29 12  1  0
 23 14  1  0
 29 24  1  0
 22 18  1  0
  1 33  1  0
  1 34  1  0
  5 35  1  0
  6 36  1  0
  8 37  1  0
 13 38  1  0
 13 39  1  0
 15 40  1  0
 15 41  1  0
 16 42  1  0
 16 43  1  0
 18 44  1  6
 19 45  1  0
 19 46  1  0
 20 47  1  0
 20 48  1  0
 21 49  1  0
 22 50  1  0
 22 51  1  0
 23 52  1  0
 23 53  1  0
 25 54  1  0
 26 55  1  0
 27 56  1  0
 28 57  1  0
 30 58  1  0
 32 59  1  0
M  END
>  <meeko>  (19) 
{"free_energy": -9.02, "intermolecular_energy": -10.21, "internal_energy": -1.21, "cluster_size": 5, "cluster_id": 1, "rank_in_cluster": 5}

$$$$

     RDKit          3D

 59 64  0  0  0  0  0  0  0  0999 V2000
  140.3970   67.7700  227.8800 N   0  0  0  0  0  0  0  0  0  0  0  0
  140.2520   69.1430  227.5030 C   0  0  0  0  0  0  0  0  0  0  0  0
  140.3410   70.0310  228.3960 O   0  0  0  0  0  0  0  0  0  0  0  0
  139.9890   69.5430  226.0970 C   0  0  0  0  0  0  0  0  0  0  0  0
  139.0940   68.7740  225.3010 C   0  0  0  0  0  0  0  0  0  0  0  0
  138.8060   69.1410  223.9740 C   0  0  0  0  0  0  0  0  0  0  0  0
  139.4270   70.2730  223.4630 C   0  0  0  0  0  0  0  0  0  0  0  0
  139.3080   70.8840  222.2340 C   0  0  0  0  0  0  0  0  0  0  0  0
  140.1350   72.0020  222.3100 C   0  0  0  0  0  0  0  0  0  0  0  0
  140.3010   73.0090  221.2470 C   0  0  0  0  0  0  0  0  0  0  0  0
  139.2830   73.4870  220.6820 O   0  0  0  0  0  0  0  0  0  0  0  0
  141.5980   73.4930  220.8840 N   0  0  0  0  0  0  0  0  0  0  0  0
  142.7960   72.6580  220.8510 C   0  0  0  0  0  0  0  0  0  0  0  0
  143.8770   73.5030  220.0900 C   0  0  1  0  0  0  0  0  0  0  0  0
  145.1830   73.5950  220.8620 C   0  0  0  0  0  0  0  0  0  0  0  0
  145.9480   72.3780  220.3770 C   0  0  0  0  0  0  0  0  0  0  0  0
  145.5800   72.1640  218.9670 N   0  0  0  0  0  0  0  0  0  0  0  0
  145.5150   70.7300  218.6090 C   0  0  2  0  0  0  0  0  0  0  0  0
  144.2260   70.0790  219.0810 C   0  0  0  0  0  0  0  0  0  0  0  0
  144.6070   68.6330  219.3360 C   0  0  0  0  0  0  0  0  0  0  0  0
  146.0550   68.5680  219.5340 N   0  0  0  0  0  0  0  0  0  0  0  0
  146.5800   69.9170  219.3390 C   0  0  0  0  0  0  0  0  0  0  0  0
  144.2910   72.8590  218.7560 C   0  0  0  0  0  0  0  0  0  0  0  0
  143.1960   74.8310  219.9000 C   0  0  0  0  0  0  0  0  0  0  0  0
  143.7050   76.0010  219.3260 C   0  0  0  0  0  0  0  0  0  0  0  0
  142.8720   77.1280  219.2460 C   0  0  0  0  0  0  0  0  0  0  0  0
  141.5560   77.0730  219.7360 C   0  0  0  0  0  0  0  0  0  0  0  0
  141.0620   75.8880  220.3000 C   0  0  0  0  0  0  0  0  0  0  0  0
  141.9040   74.7710  220.3510 C   0  0  0  0  0  0  0  0  0  0  0  0
  140.7270   72.0850  223.5260 N   0  0  0  0  0  0  0  0  0  0  0  0
  140.2880   71.0230  224.2170 C   0  0  0  0  0  0  0  0  0  0  0  0
  140.5870   70.6960  225.5390 C   0  0  0  0  0  0  0  0  0  0  0  0
  140.6430   67.5270  228.8640 H   0  0  0  0  0  0  0  0  0  0  0  0
  140.1910   66.9850  227.2220 H   0  0  0  0  0  0  0  0  0  0  0  0
  138.6202   67.8789  225.7302 H   0  0  0  0  0  0  0  0  0  0  0  0
  138.1105   68.5497  223.3602 H   0  0  0  0  0  0  0  0  0  0  0  0
  138.6946   70.5600  221.3803 H   0  0  0  0  0  0  0  0  0  0  0  0
  143.1347   72.4316  221.8728 H   0  0  0  0  0  0  0  0  0  0  0  0
  142.6078   71.6948  220.3542 H   0  0  0  0  0  0  0  0  0  0  0  0
  145.7213   74.5233  220.6204 H   0  0  0  0  0  0  0  0  0  0  0  0
  145.0430   73.6146  221.9529 H   0  0  0  0  0  0  0  0  0  0  0  0
  147.0303   72.5554  220.4610 H   0  0  0  0  0  0  0  0  0  0  0  0
  145.6997   71.4943  220.9832 H   0  0  0  0  0  0  0  0  0  0  0  0
  145.6280   70.7216  217.5148 H   0  0  0  0  0  0  0  0  0  0  0  0
  143.8645   70.5552  220.0043 H   0  0  0  0  0  0  0  0  0  0  0  0
  143.4131   70.1758  218.3463 H   0  0  0  0  0  0  0  0  0  0  0  0
  144.0916   68.2656  220.2357 H   0  0  0  0  0  0  0  0  0  0  0  0
  144.3128   68.0069  218.4808 H   0  0  0  0  0  0  0  0  0  0  0  0
  146.2540   68.2650  220.5160 H   0  0  0  0  0  0  0  0  0  0  0  0
  146.8000   70.3776  220.3134 H   0  0  0  0  0  0  0  0  0  0  0  0
  147.5100   69.8867  218.7523 H   0  0  0  0  0  0  0  0  0  0  0  0
  144.4070   73.6360  217.9860 H   0  0  0  0  0  0  0  0  0  0  0  0
  143.5227   72.1474  218.4194 H   0  0  0  0  0  0  0  0  0  0  0  0
  144.7364   76.0370  218.9454 H   0  0  0  0  0  0  0  0  0  0  0  0
  143.2510   78.0583  218.7978 H   0  0  0  0  0  0  0  0  0  0  0  0
  140.9114   77.9624  219.6769 H   0  0  0  0  0  0  0  0  0  0  0  0
  140.0360   75.8374  220.6934 H   0  0  0  0  0  0  0  0  0  0  0  0
  141.3590   72.8390  223.8760 H   0  0  0  0  0  0  0  0  0  0  0  0
  141.2712   71.3197  226.1330 H   0  0  0  0  0  0  0  0  0  0  0  0
  1  2  1  0
  2  3  2  0
  2  4  1  0
  4  5  2  0
  5  6  1  0
  6  7  2  0
  7  8  1  0
  8  9  2  0
  9 10  1  0
 10 11  2  0
 10 12  1  0
 12 13  1  0
 14 13  1  1
 14 15  1  0
 15 16  1  0
 16 17  1  0
 17 18  1  0
 18 19  1  0
 19 20  1  0
 20 21  1  0
 21 22  1  0
 17 23  1  0
 14 24  1  0
 24 25  2  0
 25 26  1  0
 26 27  2  0
 27 28  1  0
 28 29  2  0
  9 30  1  0
 30 31  1  0
 31 32  2  0
 32  4  1  0
 31  7  1  0
 29 12  1  0
 23 14  1  0
 29 24  1  0
 22 18  1  0
  1 33  1  0
  1 34  1  0
  5 35  1  0
  6 36  1  0
  8 37  1  0
 13 38  1  0
 13 39  1  0
 15 40  1  0
 15 41  1  0
 16 42  1  0
 16 43  1  0
 18 44  1  6
 19 45  1  0
 19 46  1  0
 20 47  1  0
 20 48  1  0
 21 49  1  0
 22 50  1  0
 22 51  1  0
 23 52  1  0
 23 53  1  0
 25 54  1  0
 26 55  1  0
 27 56  1  0
 28 57  1  0
 30 58  1  0
 32 59  1  0
M  END
>  <meeko>  (20) 
{"free_energy": -9.13, "intermolecular_energy": -10.33, "internal_energy": -1.17, "cluster_size": 5, "cluster_id": 1, "rank_in_cluster": 2}

$$$$
