
     RDKit          3D

 68 73  0  0  0  0  0  0  0  0999 V2000
  146.0410   67.8670  219.7370 C   0  0  0  0  0  0  0  0  0  0  0  0
  145.2560   68.9440  218.9920 C   0  0  0  0  0  0  0  0  0  0  0  0
  145.8570   70.2800  219.1540 N   0  0  0  0  0  0  0  0  0  0  0  0
  144.9730   71.4270  218.8430 C   0  0  1  0  0  0  0  0  0  0  0  0
  144.2900   71.9110  220.1320 C   0  0  0  0  0  0  0  0  0  0  0  0
  143.4970   73.1200  219.8670 N   0  0  0  0  0  0  0  0  0  0  0  0
  142.3750   73.4460  220.7140 C   0  0  0  0  0  0  0  0  0  0  0  0
  141.7440   72.4770  221.4260 N   0  0  0  0  0  0  0  0  0  0  0  0
  140.6970   72.7770  222.2400 C   0  0  0  0  0  0  0  0  0  0  0  0
  140.0520   71.7440  223.0150 N   0  0  0  0  0  0  0  0  0  0  0  0
  138.9610   70.9430  222.4460 C   0  0  0  0  0  0  0  0  0  0  0  0
  139.2060   69.4680  222.7400 C   0  0  0  0  0  0  0  0  0  0  0  0
  139.4570   69.2420  224.2050 C   0  0  0  0  0  0  0  0  0  0  0  0
  139.2100   67.9760  224.7610 C   0  0  0  0  0  0  0  0  0  0  0  0
  139.4740   67.7340  226.1100 C   0  0  0  0  0  0  0  0  0  0  0  0
  139.9970   68.7480  226.9130 C   0  0  0  0  0  0  0  0  0  0  0  0
  140.2630   70.0070  226.3680 C   0  0  0  0  0  0  0  0  0  0  0  0
  140.0100   70.2620  225.0110 C   0  0  0  0  0  0  0  0  0  0  0  0
  140.3230   71.6360  224.4580 C   0  0  0  0  0  0  0  0  0  0  0  0
  140.2870   74.0690  222.3390 N   0  0  0  0  0  0  0  0  0  0  0  0
  140.9090   75.0520  221.6360 C   0  0  0  0  0  0  0  0  0  0  0  0
  140.4880   76.4230  221.7690 N   0  0  0  0  0  0  0  0  0  0  0  0
  139.1500   76.7110  222.3180 C   0  0  0  0  0  0  0  0  0  0  0  0
  138.6720   78.1200  221.9560 C   0  0  0  0  0  0  0  0  0  0  0  0
  139.7330   79.1260  222.2890 C   0  0  0  0  0  0  0  0  0  0  0  0
  139.4010   80.3810  222.8240 C   0  0  0  0  0  0  0  0  0  0  0  0
  140.4050   81.3130  223.1030 C   0  0  0  0  0  0  0  0  0  0  0  0
  141.7410   81.0040  222.8360 C   0  0  0  0  0  0  0  0  0  0  0  0
  142.0760   79.7630  222.2820 C   0  0  0  0  0  0  0  0  0  0  0  0
  141.0740   78.8160  222.0150 C   0  0  0  0  0  0  0  0  0  0  0  0
  141.4210   77.4950  221.3750 C   0  0  0  0  0  0  0  0  0  0  0  0
  141.9520   74.7330  220.8280 N   0  0  0  0  0  0  0  0  0  0  0  0
  144.0750   74.1430  218.9850 C   0  0  0  0  0  0  0  0  0  0  0  0
  144.7760   73.4870  217.7920 C   0  0  0  0  0  0  0  0  0  0  0  0
  145.6800   72.4900  218.2210 O   0  0  0  0  0  0  0  0  0  0  0  0
  145.9315   68.0173  220.8212 H   0  0  0  0  0  0  0  0  0  0  0  0
  145.6527   66.8749  219.4633 H   0  0  0  0  0  0  0  0  0  0  0  0
  147.1044   67.9329  219.4633 H   0  0  0  0  0  0  0  0  0  0  0  0
  145.2357   68.6916  217.9215 H   0  0  0  0  0  0  0  0  0  0  0  0
  144.2406   68.9759  219.4138 H   0  0  0  0  0  0  0  0  0  0  0  0
  146.1500   70.3580  220.1570 H   0  0  0  0  0  0  0  0  0  0  0  0
  144.2102   71.0879  218.1267 H   0  0  0  0  0  0  0  0  0  0  0  0
  143.6278   71.1187  220.5111 H   0  0  0  0  0  0  0  0  0  0  0  0
  145.0623   72.1466  220.8790 H   0  0  0  0  0  0  0  0  0  0  0  0
  138.0060   71.2526  222.8955 H   0  0  0  0  0  0  0  0  0  0  0  0
  138.9218   71.0980  221.3577 H   0  0  0  0  0  0  0  0  0  0  0  0
  138.3223   68.8891  222.4335 H   0  0  0  0  0  0  0  0  0  0  0  0
  140.0949   69.1432  222.1793 H   0  0  0  0  0  0  0  0  0  0  0  0
  138.8062   67.1707  224.1297 H   0  0  0  0  0  0  0  0  0  0  0  0
  139.2695   66.7427  226.5406 H   0  0  0  0  0  0  0  0  0  0  0  0
  140.2003   68.5561  227.9769 H   0  0  0  0  0  0  0  0  0  0  0  0
  140.6733   70.8033  227.0064 H   0  0  0  0  0  0  0  0  0  0  0  0
  139.7068   72.3772  224.9880 H   0  0  0  0  0  0  0  0  0  0  0  0
  141.3975   71.8173  224.6083 H   0  0  0  0  0  0  0  0  0  0  0  0
  138.4353   75.9789  221.9139 H   0  0  0  0  0  0  0  0  0  0  0  0
  139.2112   76.6444  223.4143 H   0  0  0  0  0  0  0  0  0  0  0  0
  138.4538   78.1645  220.8788 H   0  0  0  0  0  0  0  0  0  0  0  0
  137.7637   78.3509  222.5319 H   0  0  0  0  0  0  0  0  0  0  0  0
  138.3487   80.6314  223.0240 H   0  0  0  0  0  0  0  0  0  0  0  0
  140.1427   82.2908  223.5333 H   0  0  0  0  0  0  0  0  0  0  0  0
  142.5302   81.7364  223.0613 H   0  0  0  0  0  0  0  0  0  0  0  0
  143.1266   79.5290  222.0552 H   0  0  0  0  0  0  0  0  0  0  0  0
  141.3860   77.6110  220.2817 H   0  0  0  0  0  0  0  0  0  0  0  0
  142.4272   77.2089  221.7152 H   0  0  0  0  0  0  0  0  0  0  0  0
  143.2726   74.7996  218.6174 H   0  0  0  0  0  0  0  0  0  0  0  0
  144.8125   74.7283  219.5538 H   0  0  0  0  0  0  0  0  0  0  0  0
  144.0196   73.0291  217.1377 H   0  0  0  0  0  0  0  0  0  0  0  0
  145.3391   74.2599  217.2484 H   0  0  0  0  0  0  0  0  0  0  0  0
  1  2  1  0
  2  3  1  0
  3  4  1  0
  4  5  1  0
  5  6  1  0
  6  7  1  0
  7  8  2  0
  8  9  1  0
  9 10  1  0
 10 11  1  0
 11 12  1  0
 12 13  1  0
 13 14  2  0
 14 15  1  0
 15 16  2  0
 16 17  1  0
 17 18  2  0
 18 19  1  0
  9 20  2  0
 20 21  1  0
 21 22  1  0
 22 23  1  0
 23 24  1  0
 24 25  1  0
 25 26  2  0
 26 27  1  0
 27 28  2  0
 28 29  1  0
 29 30  2  0
 30 31  1  0
 21 32  2  0
  6 33  1  0
 33 34  1  0
 34 35  1  0
 35  4  1  0
 32  7  1  0
 19 10  1  0
 31 22  1  0
 18 13  1  0
 30 25  1  0
  1 36  1  0
  1 37  1  0
  1 38  1  0
  2 39  1  0
  2 40  1  0
  3 41  1  0
  4 42  1  6
  5 43  1  0
  5 44  1  0
 11 45  1  0
 11 46  1  0
 12 47  1  0
 12 48  1  0
 14 49  1  0
 15 50  1  0
 16 51  1  0
 17 52  1  0
 19 53  1  0
 19 54  1  0
 23 55  1  0
 23 56  1  0
 24 57  1  0
 24 58  1  0
 26 59  1  0
 27 60  1  0
 28 61  1  0
 29 62  1  0
 31 63  1  0
 31 64  1  0
 33 65  1  0
 33 66  1  0
 34 67  1  0
 34 68  1  0
M  END
>  <meeko>  (1) 
{"free_energy": -10.22, "intermolecular_energy": -11.71, "internal_energy": -0.87, "cluster_size": 20, "cluster_id": 1, "rank_in_cluster": 4}

$$$$

     RDKit          3D

 68 73  0  0  0  0  0  0  0  0999 V2000
  144.6860   68.9160  219.4270 C   0  0  0  0  0  0  0  0  0  0  0  0
  146.0680   69.3580  218.9520 C   0  0  0  0  0  0  0  0  0  0  0  0
  146.3410   70.7690  219.2790 N   0  0  0  0  0  0  0  0  0  0  0  0
  145.2770   71.7340  218.9170 C   0  0  1  0  0  0  0  0  0  0  0  0
  144.5680   72.2170  220.1920 C   0  0  0  0  0  0  0  0  0  0  0  0
  143.5860   73.2600  219.8670 N   0  0  0  0  0  0  0  0  0  0  0  0
  142.4550   73.4810  220.7360 C   0  0  0  0  0  0  0  0  0  0  0  0
  141.8880   74.7120  220.8290 N   0  0  0  0  0  0  0  0  0  0  0  0
  140.8120   74.9270  221.6320 C   0  0  0  0  0  0  0  0  0  0  0  0
  140.1990   76.2320  221.7010 N   0  0  0  0  0  0  0  0  0  0  0  0
  138.7990   76.4320  221.3050 C   0  0  0  0  0  0  0  0  0  0  0  0
  138.0840   77.2620  222.3650 C   0  0  0  0  0  0  0  0  0  0  0  0
  138.8410   78.5250  222.6650 C   0  0  0  0  0  0  0  0  0  0  0  0
  138.1570   79.6300  223.1990 C   0  0  0  0  0  0  0  0  0  0  0  0
  138.8480   80.7990  223.5220 C   0  0  0  0  0  0  0  0  0  0  0  0
  140.2270   80.8730  223.3280 C   0  0  0  0  0  0  0  0  0  0  0  0
  140.9230   79.7740  222.8130 C   0  0  0  0  0  0  0  0  0  0  0  0
  140.2420   78.5890  222.4920 C   0  0  0  0  0  0  0  0  0  0  0  0
  141.0340   77.4190  221.9490 C   0  0  0  0  0  0  0  0  0  0  0  0
  140.3010   73.8890  222.3450 N   0  0  0  0  0  0  0  0  0  0  0  0
  140.8550   72.6500  222.2610 C   0  0  0  0  0  0  0  0  0  0  0  0
  140.2890   71.5480  222.9960 N   0  0  0  0  0  0  0  0  0  0  0  0
  139.7020   70.4170  222.2530 C   0  0  0  0  0  0  0  0  0  0  0  0
  138.7450   69.5950  223.1200 C   0  0  0  0  0  0  0  0  0  0  0  0
  139.4030   69.2370  224.4180 C   0  0  0  0  0  0  0  0  0  0  0  0
  139.2090   67.9780  225.0080 C   0  0  0  0  0  0  0  0  0  0  0  0
  139.8130   67.6750  226.2320 C   0  0  0  0  0  0  0  0  0  0  0  0
  140.6000   68.6310  226.8800 C   0  0  0  0  0  0  0  0  0  0  0  0
  140.7790   69.8950  226.3080 C   0  0  0  0  0  0  0  0  0  0  0  0
  140.1900   70.2000  225.0700 C   0  0  0  0  0  0  0  0  0  0  0  0
  140.3390   71.5750  224.4700 C   0  0  0  0  0  0  0  0  0  0  0  0
  141.9290   72.4550  221.4550 N   0  0  0  0  0  0  0  0  0  0  0  0
  143.9640   74.2790  218.8800 C   0  0  0  0  0  0  0  0  0  0  0  0
  144.7210   73.6390  217.7120 C   0  0  0  0  0  0  0  0  0  0  0  0
  145.7860   72.8350  218.1780 O   0  0  0  0  0  0  0  0  0  0  0  0
  144.6614   68.9081  220.5267 H   0  0  0  0  0  0  0  0  0  0  0  0
  143.9268   69.6162  219.0483 H   0  0  0  0  0  0  0  0  0  0  0  0
  144.4740   67.9052  219.0483 H   0  0  0  0  0  0  0  0  0  0  0  0
  146.8281   68.7279  219.4369 H   0  0  0  0  0  0  0  0  0  0  0  0
  146.1005   69.2512  217.8577 H   0  0  0  0  0  0  0  0  0  0  0  0
  146.4830   70.8160  220.3160 H   0  0  0  0  0  0  0  0  0  0  0  0
  144.5543   71.2195  218.2666 H   0  0  0  0  0  0  0  0  0  0  0  0
  144.0522   71.3678  220.6639 H   0  0  0  0  0  0  0  0  0  0  0  0
  145.3171   72.6340  220.8811 H   0  0  0  0  0  0  0  0  0  0  0  0
  138.7627   76.9594  220.3404 H   0  0  0  0  0  0  0  0  0  0  0  0
  138.3025   75.4552  221.2081 H   0  0  0  0  0  0  0  0  0  0  0  0
  137.0798   77.5232  221.9997 H   0  0  0  0  0  0  0  0  0  0  0  0
  138.0172   76.6672  223.2879 H   0  0  0  0  0  0  0  0  0  0  0  0
  137.0708   79.5736  223.3635 H   0  0  0  0  0  0  0  0  0  0  0  0
  138.3039   81.6634  223.9303 H   0  0  0  0  0  0  0  0  0  0  0  0
  140.7683   81.7968  223.5803 H   0  0  0  0  0  0  0  0  0  0  0  0
  142.0102   79.8388  222.6587 H   0  0  0  0  0  0  0  0  0  0  0  0
  141.5045   77.7221  221.0020 H   0  0  0  0  0  0  0  0  0  0  0  0
  141.7828   77.1452  222.7068 H   0  0  0  0  0  0  0  0  0  0  0  0
  139.1482   70.8100  221.3876 H   0  0  0  0  0  0  0  0  0  0  0  0
  140.5228   69.7575  221.9347 H   0  0  0  0  0  0  0  0  0  0  0  0
  137.8393   70.1856  223.3222 H   0  0  0  0  0  0  0  0  0  0  0  0
  138.4786   68.6714  222.5852 H   0  0  0  0  0  0  0  0  0  0  0  0
  138.5802   67.2279  224.5060 H   0  0  0  0  0  0  0  0  0  0  0  0
  139.6686   66.6832  226.6854 H   0  0  0  0  0  0  0  0  0  0  0  0
  141.0789   68.3894  227.8403 H   0  0  0  0  0  0  0  0  0  0  0  0
  141.3829   70.6523  226.8294 H   0  0  0  0  0  0  0  0  0  0  0  0
  139.5235   72.2135  224.8405 H   0  0  0  0  0  0  0  0  0  0  0  0
  141.3222   71.9686  224.7674 H   0  0  0  0  0  0  0  0  0  0  0  0
  143.0556   74.7679  218.4983 H   0  0  0  0  0  0  0  0  0  0  0  0
  144.6175   75.0192  219.3649 H   0  0  0  0  0  0  0  0  0  0  0  0
  144.0258   73.0142  217.1321 H   0  0  0  0  0  0  0  0  0  0  0  0
  145.1361   74.4400  217.0827 H   0  0  0  0  0  0  0  0  0  0  0  0
  1  2  1  0
  2  3  1  0
  3  4  1  0
  4  5  1  0
  5  6  1  0
  6  7  1  0
  7  8  2  0
  8  9  1  0
  9 10  1  0
 10 11  1  0
 11 12  1  0
 12 13  1  0
 13 14  2  0
 14 15  1  0
 15 16  2  0
 16 17  1  0
 17 18  2  0
 18 19  1  0
  9 20  2  0
 20 21  1  0
 21 22  1  0
 22 23  1  0
 23 24  1  0
 24 25  1  0
 25 26  2  0
 26 27  1  0
 27 28  2  0
 28 29  1  0
 29 30  2  0
 30 31  1  0
 21 32  2  0
  6 33  1  0
 33 34  1  0
 34 35  1  0
 35  4  1  0
 32  7  1  0
 19 10  1  0
 31 22  1  0
 18 13  1  0
 30 25  1  0
  1 36  1  0
  1 37  1  0
  1 38  1  0
  2 39  1  0
  2 40  1  0
  3 41  1  0
  4 42  1  6
  5 43  1  0
  5 44  1  0
 11 45  1  0
 11 46  1  0
 12 47  1  0
 12 48  1  0
 14 49  1  0
 15 50  1  0
 16 51  1  0
 17 52  1  0
 19 53  1  0
 19 54  1  0
 23 55  1  0
 23 56  1  0
 24 57  1  0
 24 58  1  0
 26 59  1  0
 27 60  1  0
 28 61  1  0
 29 62  1  0
 31 63  1  0
 31 64  1  0
 33 65  1  0
 33 66  1  0
 34 67  1  0
 34 68  1  0
M  END
>  <meeko>  (2) 
{"free_energy": -10.29, "intermolecular_energy": -11.78, "internal_energy": -0.92, "cluster_size": 20, "cluster_id": 1, "rank_in_cluster": 2}

$$$$

     RDKit          3D

 68 73  0  0  0  0  0  0  0  0999 V2000
  145.6580   67.8000  219.6600 C   0  0  0  0  0  0  0  0  0  0  0  0
  144.7700   69.0050  219.3550 C   0  0  0  0  0  0  0  0  0  0  0  0
  145.5490   70.2490  219.2230 N   0  0  0  0  0  0  0  0  0  0  0  0
  144.7600   71.4930  219.0800 C   0  0  1  0  0  0  0  0  0  0  0  0
  143.9980   71.7700  220.3850 C   0  0  0  0  0  0  0  0  0  0  0  0
  143.2980   73.0590  220.3060 N   0  0  0  0  0  0  0  0  0  0  0  0
  142.1290   73.2970  221.1190 C   0  0  0  0  0  0  0  0  0  0  0  0
  141.6330   72.3150  221.9150 N   0  0  0  0  0  0  0  0  0  0  0  0
  140.5430   72.5340  222.6980 C   0  0  0  0  0  0  0  0  0  0  0  0
  140.0410   71.4920  223.5620 N   0  0  0  0  0  0  0  0  0  0  0  0
  138.8820   70.6790  223.1720 C   0  0  0  0  0  0  0  0  0  0  0  0
  139.1880   69.2060  223.4190 C   0  0  0  0  0  0  0  0  0  0  0  0
  139.6710   68.9830  224.8250 C   0  0  0  0  0  0  0  0  0  0  0  0
  139.5300   67.7130  225.4100 C   0  0  0  0  0  0  0  0  0  0  0  0
  140.0080   67.4740  226.7000 C   0  0  0  0  0  0  0  0  0  0  0  0
  140.6390   68.4930  227.4120 C   0  0  0  0  0  0  0  0  0  0  0  0
  140.8010   69.7560  226.8350 C   0  0  0  0  0  0  0  0  0  0  0  0
  140.3330   70.0090  225.5360 C   0  0  0  0  0  0  0  0  0  0  0  0
  140.5390   71.3870  224.9440 C   0  0  0  0  0  0  0  0  0  0  0  0
  139.9500   73.7570  222.6780 N   0  0  0  0  0  0  0  0  0  0  0  0
  140.4370   74.7510  221.8890 C   0  0  0  0  0  0  0  0  0  0  0  0
  139.8220   76.0540  221.8970 N   0  0  0  0  0  0  0  0  0  0  0  0
  138.3670   76.1620  221.6780 C   0  0  0  0  0  0  0  0  0  0  0  0
  137.9550   77.5700  221.2400 C   0  0  0  0  0  0  0  0  0  0  0  0
  138.5420   78.5910  222.1680 C   0  0  0  0  0  0  0  0  0  0  0  0
  137.8130   79.7270  222.5520 C   0  0  0  0  0  0  0  0  0  0  0  0
  138.3900   80.6790  223.3980 C   0  0  0  0  0  0  0  0  0  0  0  0
  139.7010   80.5110  223.8510 C   0  0  0  0  0  0  0  0  0  0  0  0
  140.4410   79.3910  223.4540 C   0  0  0  0  0  0  0  0  0  0  0  0
  139.8610   78.4220  222.6180 C   0  0  0  0  0  0  0  0  0  0  0  0
  140.6660   77.2380  222.1470 C   0  0  0  0  0  0  0  0  0  0  0  0
  141.5250   74.5140  221.1140 N   0  0  0  0  0  0  0  0  0  0  0  0
  144.0030   74.1890  219.6840 C   0  0  0  0  0  0  0  0  0  0  0  0
  144.7640   73.7250  218.4390 C   0  0  0  0  0  0  0  0  0  0  0  0
  145.5730   72.6030  218.7280 O   0  0  0  0  0  0  0  0  0  0  0  0
  145.7483   67.6775  220.7494 H   0  0  0  0  0  0  0  0  0  0  0  0
  145.2095   66.8946  219.2251 H   0  0  0  0  0  0  0  0  0  0  0  0
  146.6556   67.9602  219.2251 H   0  0  0  0  0  0  0  0  0  0  0  0
  144.2337   68.8207  218.4124 H   0  0  0  0  0  0  0  0  0  0  0  0
  144.0704   69.1311  220.1944 H   0  0  0  0  0  0  0  0  0  0  0  0
  146.1330   70.3320  220.0890 H   0  0  0  0  0  0  0  0  0  0  0  0
  144.0427   71.3502  218.2584 H   0  0  0  0  0  0  0  0  0  0  0  0
  143.2636   70.9685  220.5529 H   0  0  0  0  0  0  0  0  0  0  0  0
  144.7166   71.8048  221.2171 H   0  0  0  0  0  0  0  0  0  0  0  0
  138.0076   70.9769  223.7691 H   0  0  0  0  0  0  0  0  0  0  0  0
  138.6675   70.8348  222.1044 H   0  0  0  0  0  0  0  0  0  0  0  0
  138.2738   68.6166  223.2553 H   0  0  0  0  0  0  0  0  0  0  0  0
  139.9798   68.8917  222.7231 H   0  0  0  0  0  0  0  0  0  0  0  0
  139.0407   66.9032  224.8489 H   0  0  0  0  0  0  0  0  0  0  0  0
  139.8865   66.4800  227.1552 H   0  0  0  0  0  0  0  0  0  0  0  0
  141.0102   68.3029  228.4299 H   0  0  0  0  0  0  0  0  0  0  0  0
  141.2983   70.5565  227.4024 H   0  0  0  0  0  0  0  0  0  0  0  0
  140.0063   72.1208  225.5667 H   0  0  0  0  0  0  0  0  0  0  0  0
  141.6215   71.5811  224.9228 H   0  0  0  0  0  0  0  0  0  0  0  0
  138.0716   75.4465  220.8965 H   0  0  0  0  0  0  0  0  0  0  0  0
  137.8631   75.9419  222.6307 H   0  0  0  0  0  0  0  0  0  0  0  0
  138.3195   77.7545  220.2187 H   0  0  0  0  0  0  0  0  0  0  0  0
  136.8581   77.6485  221.2660 H   0  0  0  0  0  0  0  0  0  0  0  0
  136.7852   79.8688  222.1866 H   0  0  0  0  0  0  0  0  0  0  0  0
  137.8109   81.5616  223.7074 H   0  0  0  0  0  0  0  0  0  0  0  0
  140.1518   81.2590  224.5198 H   0  0  0  0  0  0  0  0  0  0  0  0
  141.4789   79.2692  223.7973 H   0  0  0  0  0  0  0  0  0  0  0  0
  141.1816   77.5089  221.2139 H   0  0  0  0  0  0  0  0  0  0  0  0
  141.3830   76.9801  222.9403 H   0  0  0  0  0  0  0  0  0  0  0  0
  143.2712   74.9580  219.3956 H   0  0  0  0  0  0  0  0  0  0  0  0
  144.7214   74.6023  220.4072 H   0  0  0  0  0  0  0  0  0  0  0  0
  144.0408   73.4546  217.6555 H   0  0  0  0  0  0  0  0  0  0  0  0
  145.4124   74.5459  218.0988 H   0  0  0  0  0  0  0  0  0  0  0  0
  1  2  1  0
  2  3  1  0
  3  4  1  0
  4  5  1  0
  5  6  1  0
  6  7  1  0
  7  8  2  0
  8  9  1  0
  9 10  1  0
 10 11  1  0
 11 12  1  0
 12 13  1  0
 13 14  2  0
 14 15  1  0
 15 16  2  0
 16 17  1  0
 17 18  2  0
 18 19  1  0
  9 20  2  0
 20 21  1  0
 21 22  1  0
 22 23  1  0
 23 24  1  0
 24 25  1  0
 25 26  2  0
 26 27  1  0
 27 28  2  0
 28 29  1  0
 29 30  2  0
 30 31  1  0
 21 32  2  0
  6 33  1  0
 33 34  1  0
 34 35  1  0
 35  4  1  0
 32  7  1  0
 19 10  1  0
 31 22  1  0
 18 13  1  0
 30 25  1  0
  1 36  1  0
  1 37  1  0
  1 38  1  0
  2 39  1  0
  2 40  1  0
  3 41  1  0
  4 42  1  6
  5 43  1  0
  5 44  1  0
 11 45  1  0
 11 46  1  0
 12 47  1  0
 12 48  1  0
 14 49  1  0
 15 50  1  0
 16 51  1  0
 17 52  1  0
 19 53  1  0
 19 54  1  0
 23 55  1  0
 23 56  1  0
 24 57  1  0
 24 58  1  0
 26 59  1  0
 27 60  1  0
 28 61  1  0
 29 62  1  0
 31 63  1  0
 31 64  1  0
 33 65  1  0
 33 66  1  0
 34 67  1  0
 34 68  1  0
M  END
>  <meeko>  (3) 
{"free_energy": -9.92, "intermolecular_energy": -11.41, "internal_energy": -0.87, "cluster_size": 20, "cluster_id": 1, "rank_in_cluster": 11}

$$$$

     RDKit          3D

 68 73  0  0  0  0  0  0  0  0999 V2000
  145.5580   67.8460  219.4490 C   0  0  0  0  0  0  0  0  0  0  0  0
  146.0220   69.1730  218.8540 C   0  0  0  0  0  0  0  0  0  0  0  0
  144.9670   69.8230  218.0570 N   0  0  0  0  0  0  0  0  0  0  0  0
  144.6850   71.2380  218.3900 C   0  0  1  0  0  0  0  0  0  0  0  0
  143.8150   71.3030  219.6550 C   0  0  0  0  0  0  0  0  0  0  0  0
  143.6190   72.6990  220.0690 N   0  0  0  0  0  0  0  0  0  0  0  0
  142.4590   73.0630  220.8480 C   0  0  0  0  0  0  0  0  0  0  0  0
  141.8260   72.1390  221.6160 N   0  0  0  0  0  0  0  0  0  0  0  0
  140.7440   72.4770  222.3660 C   0  0  0  0  0  0  0  0  0  0  0  0
  140.0960   71.4930  223.2020 N   0  0  0  0  0  0  0  0  0  0  0  0
  138.9960   70.6690  222.6860 C   0  0  0  0  0  0  0  0  0  0  0  0
  139.2320   69.2110  223.0600 C   0  0  0  0  0  0  0  0  0  0  0  0
  139.4910   69.0670  224.5340 C   0  0  0  0  0  0  0  0  0  0  0  0
  139.2390   67.8350  225.1620 C   0  0  0  0  0  0  0  0  0  0  0  0
  139.5090   67.6680  226.5210 C   0  0  0  0  0  0  0  0  0  0  0  0
  140.0440   68.7210  227.2630 C   0  0  0  0  0  0  0  0  0  0  0  0
  140.3160   69.9460  226.6460 C   0  0  0  0  0  0  0  0  0  0  0  0
  140.0560   70.1260  225.2780 C   0  0  0  0  0  0  0  0  0  0  0  0
  140.3760   71.4650  224.6470 C   0  0  0  0  0  0  0  0  0  0  0  0
  140.2980   73.7610  222.3440 N   0  0  0  0  0  0  0  0  0  0  0  0
  140.9220   74.6990  221.5830 C   0  0  0  0  0  0  0  0  0  0  0  0
  140.4630   76.0640  221.5870 N   0  0  0  0  0  0  0  0  0  0  0  0
  139.0710   76.3510  221.9810 C   0  0  0  0  0  0  0  0  0  0  0  0
  138.6040   77.7220  221.4860 C   0  0  0  0  0  0  0  0  0  0  0  0
  139.6070   78.7730  221.8580 C   0  0  0  0  0  0  0  0  0  0  0  0
  139.1990   80.0490  222.2780 C   0  0  0  0  0  0  0  0  0  0  0  0
  140.1510   81.0220  222.5960 C   0  0  0  0  0  0  0  0  0  0  0  0
  141.5130   80.7320  222.4830 C   0  0  0  0  0  0  0  0  0  0  0  0
  141.9260   79.4690  222.0440 C   0  0  0  0  0  0  0  0  0  0  0  0
  140.9740   78.4820  221.7390 C   0  0  0  0  0  0  0  0  0  0  0  0
  141.4090   77.1340  221.2200 C   0  0  0  0  0  0  0  0  0  0  0  0
  142.0000   74.3420  220.8400 N   0  0  0  0  0  0  0  0  0  0  0  0
  144.7700   73.6080  219.9960 C   0  0  0  0  0  0  0  0  0  0  0  0
  145.5650   73.3620  218.7100 C   0  0  0  0  0  0  0  0  0  0  0  0
  145.8760   71.9920  218.5610 O   0  0  0  0  0  0  0  0  0  0  0  0
  145.5800   67.9088  220.5470 H   0  0  0  0  0  0  0  0  0  0  0  0
  144.5320   67.6329  219.1144 H   0  0  0  0  0  0  0  0  0  0  0  0
  146.2276   67.0400  219.1144 H   0  0  0  0  0  0  0  0  0  0  0  0
  146.3130   69.8466  219.6735 H   0  0  0  0  0  0  0  0  0  0  0  0
  146.8713   68.9659  218.1864 H   0  0  0  0  0  0  0  0  0  0  0  0
  145.2750   69.7800  217.0560 H   0  0  0  0  0  0  0  0  0  0  0  0
  144.1411   71.6870  217.5458 H   0  0  0  0  0  0  0  0  0  0  0  0
  142.8365   70.8458  219.4462 H   0  0  0  0  0  0  0  0  0  0  0  0
  144.3211   70.7576  220.4652 H   0  0  0  0  0  0  0  0  0  0  0  0
  138.0463   71.0103  223.1236 H   0  0  0  0  0  0  0  0  0  0  0  0
  138.9511   70.7630  221.5910 H   0  0  0  0  0  0  0  0  0  0  0  0
  138.3421   68.6225  222.7921 H   0  0  0  0  0  0  0  0  0  0  0  0
  140.1141   68.8475  222.5124 H   0  0  0  0  0  0  0  0  0  0  0  0
  138.8268   66.9981  224.5792 H   0  0  0  0  0  0  0  0  0  0  0  0
  139.2995   66.7041  227.0079 H   0  0  0  0  0  0  0  0  0  0  0  0
  140.2522   68.5876  228.3348 H   0  0  0  0  0  0  0  0  0  0  0  0
  140.7363   70.7738  227.2360 H   0  0  0  0  0  0  0  0  0  0  0  0
  139.7690   72.2397  225.1383 H   0  0  0  0  0  0  0  0  0  0  0  0
  141.4526   71.6467  224.7806 H   0  0  0  0  0  0  0  0  0  0  0  0
  138.4150   75.5776  221.5549 H   0  0  0  0  0  0  0  0  0  0  0  0
  139.0234   76.3532  223.0800 H   0  0  0  0  0  0  0  0  0  0  0  0
  138.4935   77.6955  220.3919 H   0  0  0  0  0  0  0  0  0  0  0  0
  137.6383   77.9641  221.9539 H   0  0  0  0  0  0  0  0  0  0  0  0
  138.1273   80.2838  222.3571 H   0  0  0  0  0  0  0  0  0  0  0  0
  139.8274   82.0170  222.9355 H   0  0  0  0  0  0  0  0  0  0  0  0
  142.2610   81.4967  222.7392 H   0  0  0  0  0  0  0  0  0  0  0  0
  142.9984   79.2486  221.9375 H   0  0  0  0  0  0  0  0  0  0  0  0
  141.4805   77.1829  220.1234 H   0  0  0  0  0  0  0  0  0  0  0  0
  142.3818   76.8951  221.6744 H   0  0  0  0  0  0  0  0  0  0  0  0
  144.4117   74.6479  220.0071 H   0  0  0  0  0  0  0  0  0  0  0  0
  145.4248   73.4242  220.8606 H   0  0  0  0  0  0  0  0  0  0  0  0
  144.9656   73.6905  217.8482 H   0  0  0  0  0  0  0  0  0  0  0  0
  146.5050   73.9307  218.7650 H   0  0  0  0  0  0  0  0  0  0  0  0
  1  2  1  0
  2  3  1  0
  3  4  1  0
  4  5  1  0
  5  6  1  0
  6  7  1  0
  7  8  2  0
  8  9  1  0
  9 10  1  0
 10 11  1  0
 11 12  1  0
 12 13  1  0
 13 14  2  0
 14 15  1  0
 15 16  2  0
 16 17  1  0
 17 18  2  0
 18 19  1  0
  9 20  2  0
 20 21  1  0
 21 22  1  0
 22 23  1  0
 23 24  1  0
 24 25  1  0
 25 26  2  0
 26 27  1  0
 27 28  2  0
 28 29  1  0
 29 30  2  0
 30 31  1  0
 21 32  2  0
  6 33  1  0
 33 34  1  0
 34 35  1  0
 35  4  1  0
 32  7  1  0
 19 10  1  0
 31 22  1  0
 18 13  1  0
 30 25  1  0
  1 36  1  0
  1 37  1  0
  1 38  1  0
  2 39  1  0
  2 40  1  0
  3 41  1  0
  4 42  1  6
  5 43  1  0
  5 44  1  0
 11 45  1  0
 11 46  1  0
 12 47  1  0
 12 48  1  0
 14 49  1  0
 15 50  1  0
 16 51  1  0
 17 52  1  0
 19 53  1  0
 19 54  1  0
 23 55  1  0
 23 56  1  0
 24 57  1  0
 24 58  1  0
 26 59  1  0
 27 60  1  0
 28 61  1  0
 29 62  1  0
 31 63  1  0
 31 64  1  0
 33 65  1  0
 33 66  1  0
 34 67  1  0
 34 68  1  0
M  END
>  <meeko>  (4) 
{"free_energy": -9.8, "intermolecular_energy": -11.29, "internal_energy": -0.89, "cluster_size": 20, "cluster_id": 1, "rank_in_cluster": 15}

$$$$

     RDKit          3D

 68 73  0  0  0  0  0  0  0  0999 V2000
  145.6930   69.1050  217.5640 C   0  0  0  0  0  0  0  0  0  0  0  0
  146.1700   69.3120  218.9990 C   0  0  0  0  0  0  0  0  0  0  0  0
  146.3430   70.7390  219.3260 N   0  0  0  0  0  0  0  0  0  0  0  0
  145.2310   71.6320  218.9270 C   0  0  1  0  0  0  0  0  0  0  0  0
  144.5380   72.1800  220.1850 C   0  0  0  0  0  0  0  0  0  0  0  0
  143.5050   73.1570  219.8140 N   0  0  0  0  0  0  0  0  0  0  0  0
  142.3900   73.3990  220.6990 C   0  0  0  0  0  0  0  0  0  0  0  0
  141.8370   74.6370  220.7880 N   0  0  0  0  0  0  0  0  0  0  0  0
  140.7760   74.8700  221.6050 C   0  0  0  0  0  0  0  0  0  0  0  0
  140.1780   76.1830  221.6710 N   0  0  0  0  0  0  0  0  0  0  0  0
  138.7700   76.3910  221.3090 C   0  0  0  0  0  0  0  0  0  0  0  0
  138.0910   77.2420  222.3750 C   0  0  0  0  0  0  0  0  0  0  0  0
  138.8680   78.5020  222.6370 C   0  0  0  0  0  0  0  0  0  0  0  0
  138.2080   79.6210  223.1730 C   0  0  0  0  0  0  0  0  0  0  0  0
  138.9190   80.7880  223.4600 C   0  0  0  0  0  0  0  0  0  0  0  0
  140.2930   80.8450  223.2290 C   0  0  0  0  0  0  0  0  0  0  0  0
  140.9640   79.7320  222.7130 C   0  0  0  0  0  0  0  0  0  0  0  0
  140.2640   78.5500  222.4270 C   0  0  0  0  0  0  0  0  0  0  0  0
  141.0310   77.3650  221.8800 C   0  0  0  0  0  0  0  0  0  0  0  0
  140.2660   73.8440  222.3360 N   0  0  0  0  0  0  0  0  0  0  0  0
  140.8060   72.5990  222.2560 C   0  0  0  0  0  0  0  0  0  0  0  0
  140.2410   71.5100  223.0100 N   0  0  0  0  0  0  0  0  0  0  0  0
  139.6240   70.3810  222.2880 C   0  0  0  0  0  0  0  0  0  0  0  0
  138.6730   69.5790  223.1800 C   0  0  0  0  0  0  0  0  0  0  0  0
  139.3530   69.2220  224.4670 C   0  0  0  0  0  0  0  0  0  0  0  0
  139.1540   67.9700  225.0700 C   0  0  0  0  0  0  0  0  0  0  0  0
  139.7780   67.6670  226.2840 C   0  0  0  0  0  0  0  0  0  0  0  0
  140.5900   68.6170  226.9100 C   0  0  0  0  0  0  0  0  0  0  0  0
  140.7750   69.8750  226.3250 C   0  0  0  0  0  0  0  0  0  0  0  0
  140.1650   70.1780  225.0960 C   0  0  0  0  0  0  0  0  0  0  0  0
  140.3200   71.5470  224.4830 C   0  0  0  0  0  0  0  0  0  0  0  0
  141.8650   72.3850  221.4350 N   0  0  0  0  0  0  0  0  0  0  0  0
  143.8150   74.1150  218.7430 C   0  0  0  0  0  0  0  0  0  0  0  0
  144.5640   73.4190  217.6040 C   0  0  0  0  0  0  0  0  0  0  0  0
  145.6740   72.6940  218.0950 O   0  0  0  0  0  0  0  0  0  0  0  0
  144.6839   68.6671  217.5726 H   0  0  0  0  0  0  0  0  0  0  0  0
  145.6681   70.0733  217.0426 H   0  0  0  0  0  0  0  0  0  0  0  0
  146.3832   68.4254  217.0426 H   0  0  0  0  0  0  0  0  0  0  0  0
  145.4278   68.8784  219.6854 H   0  0  0  0  0  0  0  0  0  0  0  0
  147.1478   68.8194  219.1050 H   0  0  0  0  0  0  0  0  0  0  0  0
  146.4500   70.7980  220.3670 H   0  0  0  0  0  0  0  0  0  0  0  0
  144.5124   71.0433  218.3378 H   0  0  0  0  0  0  0  0  0  0  0  0
  144.0708   71.3486  220.7332 H   0  0  0  0  0  0  0  0  0  0  0  0
  145.2878   72.6757  220.8192 H   0  0  0  0  0  0  0  0  0  0  0  0
  138.7133   76.9054  220.3383 H   0  0  0  0  0  0  0  0  0  0  0  0
  138.2622   75.4178  221.2389 H   0  0  0  0  0  0  0  0  0  0  0  0
  137.0801   77.5079  222.0324 H   0  0  0  0  0  0  0  0  0  0  0  0
  138.0425   76.6609  223.3077 H   0  0  0  0  0  0  0  0  0  0  0  0
  137.1262   79.5773  223.3674 H   0  0  0  0  0  0  0  0  0  0  0  0
  138.3943   81.6640  223.8691 H   0  0  0  0  0  0  0  0  0  0  0  0
  140.8498   81.7668  223.4530 H   0  0  0  0  0  0  0  0  0  0  0  0
  142.0475   79.7834  222.5301 H   0  0  0  0  0  0  0  0  0  0  0  0
  141.4792   77.6502  220.9168 H   0  0  0  0  0  0  0  0  0  0  0  0
  141.7974   77.0946  222.6213 H   0  0  0  0  0  0  0  0  0  0  0  0
  139.0588   70.7746  221.4303 H   0  0  0  0  0  0  0  0  0  0  0  0
  140.4295   69.7077  221.9594 H   0  0  0  0  0  0  0  0  0  0  0  0
  137.7798   70.1836  223.3959 H   0  0  0  0  0  0  0  0  0  0  0  0
  138.3823   68.6555  222.6579 H   0  0  0  0  0  0  0  0  0  0  0  0
  138.5052   67.2251  224.5860 H   0  0  0  0  0  0  0  0  0  0  0  0
  139.6298   66.6802  226.7468 H   0  0  0  0  0  0  0  0  0  0  0  0
  141.0839   68.3758  227.8629 H   0  0  0  0  0  0  0  0  0  0  0  0
  141.3992   70.6280  226.8284 H   0  0  0  0  0  0  0  0  0  0  0  0
  139.5201   72.1986  224.8645 H   0  0  0  0  0  0  0  0  0  0  0  0
  141.3137   71.9300  224.7585 H   0  0  0  0  0  0  0  0  0  0  0  0
  142.8777   74.5395  218.3541 H   0  0  0  0  0  0  0  0  0  0  0  0
  144.4510   74.9138  219.1522 H   0  0  0  0  0  0  0  0  0  0  0  0
  143.8789   72.7258  217.0939 H   0  0  0  0  0  0  0  0  0  0  0  0
  144.9284   74.1858  216.9046 H   0  0  0  0  0  0  0  0  0  0  0  0
  1  2  1  0
  2  3  1  0
  3  4  1  0
  4  5  1  0
  5  6  1  0
  6  7  1  0
  7  8  2  0
  8  9  1  0
  9 10  1  0
 10 11  1  0
 11 12  1  0
 12 13  1  0
 13 14  2  0
 14 15  1  0
 15 16  2  0
 16 17  1  0
 17 18  2  0
 18 19  1  0
  9 20  2  0
 20 21  1  0
 21 22  1  0
 22 23  1  0
 23 24  1  0
 24 25  1  0
 25 26  2  0
 26 27  1  0
 27 28  2  0
 28 29  1  0
 29 30  2  0
 30 31  1  0
 21 32  2  0
  6 33  1  0
 33 34  1  0
 34 35  1  0
 35  4  1  0
 32  7  1  0
 19 10  1  0
 31 22  1  0
 18 13  1  0
 30 25  1  0
  1 36  1  0
  1 37  1  0
  1 38  1  0
  2 39  1  0
  2 40  1  0
  3 41  1  0
  4 42  1  6
  5 43  1  0
  5 44  1  0
 11 45  1  0
 11 46  1  0
 12 47  1  0
 12 48  1  0
 14 49  1  0
 15 50  1  0
 16 51  1  0
 17 52  1  0
 19 53  1  0
 19 54  1  0
 23 55  1  0
 23 56  1  0
 24 57  1  0
 24 58  1  0
 26 59  1  0
 27 60  1  0
 28 61  1  0
 29 62  1  0
 31 63  1  0
 31 64  1  0
 33 65  1  0
 33 66  1  0
 34 67  1  0
 34 68  1  0
M  END
>  <meeko>  (5) 
{"free_energy": -10.18, "intermolecular_energy": -11.67, "internal_energy": -0.89, "cluster_size": 20, "cluster_id": 1, "rank_in_cluster": 7}

$$$$

     RDKit          3D

 68 73  0  0  0  0  0  0  0  0999 V2000
  146.2600   68.0360  219.7100 C   0  0  0  0  0  0  0  0  0  0  0  0
  145.4300   69.0900  218.9810 C   0  0  0  0  0  0  0  0  0  0  0  0
  145.9540   70.4510  219.1900 N   0  0  0  0  0  0  0  0  0  0  0  0
  145.0280   71.5580  218.8590 C   0  0  1  0  0  0  0  0  0  0  0  0
  144.3450   72.0560  220.1420 C   0  0  0  0  0  0  0  0  0  0  0  0
  143.5080   73.2280  219.8530 N   0  0  0  0  0  0  0  0  0  0  0  0
  142.3860   73.5420  220.7060 C   0  0  0  0  0  0  0  0  0  0  0  0
  141.7560   72.5610  221.4040 N   0  0  0  0  0  0  0  0  0  0  0  0
  140.7100   72.8490  222.2240 C   0  0  0  0  0  0  0  0  0  0  0  0
  140.0660   71.8030  222.9830 N   0  0  0  0  0  0  0  0  0  0  0  0
  138.9610   71.0240  222.4110 C   0  0  0  0  0  0  0  0  0  0  0  0
  139.1970   69.5400  222.6680 C   0  0  0  0  0  0  0  0  0  0  0  0
  139.4660   69.2800  224.1240 C   0  0  0  0  0  0  0  0  0  0  0  0
  139.2160   68.0030  224.6550 C   0  0  0  0  0  0  0  0  0  0  0  0
  139.4950   67.7290  225.9950 C   0  0  0  0  0  0  0  0  0  0  0  0
  140.0370   68.7200  226.8130 C   0  0  0  0  0  0  0  0  0  0  0  0
  140.3060   69.9890  226.2940 C   0  0  0  0  0  0  0  0  0  0  0  0
  140.0380   70.2770  224.9460 C   0  0  0  0  0  0  0  0  0  0  0  0
  140.3560   71.6610  224.4200 C   0  0  0  0  0  0  0  0  0  0  0  0
  140.2980   74.1390  222.3420 N   0  0  0  0  0  0  0  0  0  0  0  0
  140.9200   75.1320  221.6530 C   0  0  0  0  0  0  0  0  0  0  0  0
  140.4970   76.5010  221.8070 N   0  0  0  0  0  0  0  0  0  0  0  0
  139.1690   76.7800  222.3850 C   0  0  0  0  0  0  0  0  0  0  0  0
  138.6810   78.1910  222.0450 C   0  0  0  0  0  0  0  0  0  0  0  0
  139.7450   79.1960  222.3660 C   0  0  0  0  0  0  0  0  0  0  0  0
  139.4200   80.4450  222.9190 C   0  0  0  0  0  0  0  0  0  0  0  0
  140.4270   81.3780  223.1870 C   0  0  0  0  0  0  0  0  0  0  0  0
  141.7580   81.0750  222.8910 C   0  0  0  0  0  0  0  0  0  0  0  0
  142.0860   79.8410  222.3190 C   0  0  0  0  0  0  0  0  0  0  0  0
  141.0810   78.8930  222.0640 C   0  0  0  0  0  0  0  0  0  0  0  0
  141.4190   77.5790  221.4040 C   0  0  0  0  0  0  0  0  0  0  0  0
  141.9620   74.8260  220.8390 N   0  0  0  0  0  0  0  0  0  0  0  0
  144.0380   74.2450  218.9340 C   0  0  0  0  0  0  0  0  0  0  0  0
  144.7460   73.5790  217.7510 C   0  0  0  0  0  0  0  0  0  0  0  0
  145.6900   72.6250  218.1960 O   0  0  0  0  0  0  0  0  0  0  0  0
  146.1530   68.1719  220.7963 H   0  0  0  0  0  0  0  0  0  0  0  0
  145.9069   67.0327  219.4295 H   0  0  0  0  0  0  0  0  0  0  0  0
  147.3181   68.1440  219.4295 H   0  0  0  0  0  0  0  0  0  0  0  0
  145.4411   68.8673  217.9038 H   0  0  0  0  0  0  0  0  0  0  0  0
  144.4077   69.0551  219.3856 H   0  0  0  0  0  0  0  0  0  0  0  0
  146.2000   70.5260  220.2060 H   0  0  0  0  0  0  0  0  0  0  0  0
  144.2677   71.1726  218.1637 H   0  0  0  0  0  0  0  0  0  0  0  0
  143.7154   71.2530  220.5528 H   0  0  0  0  0  0  0  0  0  0  0  0
  145.1180   72.3399  220.8713 H   0  0  0  0  0  0  0  0  0  0  0  0
  138.0147   71.3312  222.8803 H   0  0  0  0  0  0  0  0  0  0  0  0
  138.9089   71.2040  221.3271 H   0  0  0  0  0  0  0  0  0  0  0  0
  138.3041   68.9756  222.3611 H   0  0  0  0  0  0  0  0  0  0  0  0
  140.0747   69.2197  222.0875 H   0  0  0  0  0  0  0  0  0  0  0  0
  138.7982   67.2151  224.0111 H   0  0  0  0  0  0  0  0  0  0  0  0
  139.2871   66.7302  226.4063 H   0  0  0  0  0  0  0  0  0  0  0  0
  140.2532   68.5020  227.8693 H   0  0  0  0  0  0  0  0  0  0  0  0
  140.7303   70.7673  226.9453 H   0  0  0  0  0  0  0  0  0  0  0  0
  139.7537   72.3954  224.9749 H   0  0  0  0  0  0  0  0  0  0  0  0
  141.4339   71.8302  224.5599 H   0  0  0  0  0  0  0  0  0  0  0  0
  138.4484   76.0497  221.9883 H   0  0  0  0  0  0  0  0  0  0  0  0
  139.2515   76.7032  223.4792 H   0  0  0  0  0  0  0  0  0  0  0  0
  138.4418   78.2445  220.9727 H   0  0  0  0  0  0  0  0  0  0  0  0
  137.7837   78.4145  222.6407 H   0  0  0  0  0  0  0  0  0  0  0  0
  138.3711   80.6903  223.1420 H   0  0  0  0  0  0  0  0  0  0  0  0
  140.1706   82.3511  223.6312 H   0  0  0  0  0  0  0  0  0  0  0  0
  142.5494   81.8076  223.1079 H   0  0  0  0  0  0  0  0  0  0  0  0
  143.1325   79.6127  222.0685 H   0  0  0  0  0  0  0  0  0  0  0  0
  141.3613   77.7053  220.3128 H   0  0  0  0  0  0  0  0  0  0  0  0
  142.4329   77.2927  221.7203 H   0  0  0  0  0  0  0  0  0  0  0  0
  143.2082   74.8621  218.5590 H   0  0  0  0  0  0  0  0  0  0  0  0
  144.7614   74.8724  219.4753 H   0  0  0  0  0  0  0  0  0  0  0  0
  143.9975   73.0770  217.1203 H   0  0  0  0  0  0  0  0  0  0  0  0
  145.2755   74.3546  217.1783 H   0  0  0  0  0  0  0  0  0  0  0  0
  1  2  1  0
  2  3  1  0
  3  4  1  0
  4  5  1  0
  5  6  1  0
  6  7  1  0
  7  8  2  0
  8  9  1  0
  9 10  1  0
 10 11  1  0
 11 12  1  0
 12 13  1  0
 13 14  2  0
 14 15  1  0
 15 16  2  0
 16 17  1  0
 17 18  2  0
 18 19  1  0
  9 20  2  0
 20 21  1  0
 21 22  1  0
 22 23  1  0
 23 24  1  0
 24 25  1  0
 25 26  2  0
 26 27  1  0
 27 28  2  0
 28 29  1  0
 29 30  2  0
 30 31  1  0
 21 32  2  0
  6 33  1  0
 33 34  1  0
 34 35  1  0
 35  4  1  0
 32  7  1  0
 19 10  1  0
 31 22  1  0
 18 13  1  0
 30 25  1  0
  1 36  1  0
  1 37  1  0
  1 38  1  0
  2 39  1  0
  2 40  1  0
  3 41  1  0
  4 42  1  6
  5 43  1  0
  5 44  1  0
 11 45  1  0
 11 46  1  0
 12 47  1  0
 12 48  1  0
 14 49  1  0
 15 50  1  0
 16 51  1  0
 17 52  1  0
 19 53  1  0
 19 54  1  0
 23 55  1  0
 23 56  1  0
 24 57  1  0
 24 58  1  0
 26 59  1  0
 27 60  1  0
 28 61  1  0
 29 62  1  0
 31 63  1  0
 31 64  1  0
 33 65  1  0
 33 66  1  0
 34 67  1  0
 34 68  1  0
M  END
>  <meeko>  (6) 
{"free_energy": -10.2, "intermolecular_energy": -11.7, "internal_energy": -0.86, "cluster_size": 20, "cluster_id": 1, "rank_in_cluster": 5}

$$$$

     RDKit          3D

 68 73  0  0  0  0  0  0  0  0999 V2000
  146.2530   67.8390  217.1900 C   0  0  0  0  0  0  0  0  0  0  0  0
  146.0280   69.3420  217.3380 C   0  0  0  0  0  0  0  0  0  0  0  0
  145.1220   69.6590  218.4560 N   0  0  0  0  0  0  0  0  0  0  0  0
  144.7010   71.0750  218.5630 C   0  0  1  0  0  0  0  0  0  0  0  0
  143.9010   71.2740  219.8600 C   0  0  0  0  0  0  0  0  0  0  0  0
  143.5700   72.6940  220.0440 N   0  0  0  0  0  0  0  0  0  0  0  0
  142.4220   73.0710  220.8330 C   0  0  0  0  0  0  0  0  0  0  0  0
  141.7970   72.1570  221.6200 N   0  0  0  0  0  0  0  0  0  0  0  0
  140.7250   72.5060  222.3800 C   0  0  0  0  0  0  0  0  0  0  0  0
  140.0860   71.5340  223.2350 N   0  0  0  0  0  0  0  0  0  0  0  0
  138.9720   70.7130  222.7450 C   0  0  0  0  0  0  0  0  0  0  0  0
  139.2050   69.2570  223.1280 C   0  0  0  0  0  0  0  0  0  0  0  0
  139.4880   69.1230  224.5990 C   0  0  0  0  0  0  0  0  0  0  0  0
  139.2390   67.8990  225.2410 C   0  0  0  0  0  0  0  0  0  0  0  0
  139.5320   67.7420  226.5970 C   0  0  0  0  0  0  0  0  0  0  0  0
  140.0860   68.7980  227.3210 C   0  0  0  0  0  0  0  0  0  0  0  0
  140.3540   70.0160  226.6890 C   0  0  0  0  0  0  0  0  0  0  0  0
  140.0730   70.1860  225.3240 C   0  0  0  0  0  0  0  0  0  0  0  0
  140.3900   71.5170  224.6760 C   0  0  0  0  0  0  0  0  0  0  0  0
  140.2830   73.7910  222.3490 N   0  0  0  0  0  0  0  0  0  0  0  0
  140.8990   74.7190  221.5690 C   0  0  0  0  0  0  0  0  0  0  0  0
  140.4440   76.0850  221.5640 N   0  0  0  0  0  0  0  0  0  0  0  0
  139.0400   76.3750  221.9110 C   0  0  0  0  0  0  0  0  0  0  0  0
  138.5950   77.7500  221.4060 C   0  0  0  0  0  0  0  0  0  0  0  0
  139.5860   78.7960  221.8180 C   0  0  0  0  0  0  0  0  0  0  0  0
  139.1670   80.0710  222.2300 C   0  0  0  0  0  0  0  0  0  0  0  0
  140.1110   81.0390  222.5860 C   0  0  0  0  0  0  0  0  0  0  0  0
  141.4750   80.7460  222.5190 C   0  0  0  0  0  0  0  0  0  0  0  0
  141.9000   79.4840  222.0880 C   0  0  0  0  0  0  0  0  0  0  0  0
  140.9570   78.5010  221.7460 C   0  0  0  0  0  0  0  0  0  0  0  0
  141.4060   77.1540  221.2360 C   0  0  0  0  0  0  0  0  0  0  0  0
  141.9670   74.3510  220.8170 N   0  0  0  0  0  0  0  0  0  0  0  0
  144.6050   73.6890  219.7300 C   0  0  0  0  0  0  0  0  0  0  0  0
  145.3490   73.3010  218.4490 C   0  0  0  0  0  0  0  0  0  0  0  0
  145.8060   71.9650  218.5130 O   0  0  0  0  0  0  0  0  0  0  0  0
  146.3219   67.3787  218.1867 H   0  0  0  0  0  0  0  0  0  0  0  0
  145.4113   67.3948  216.6384 H   0  0  0  0  0  0  0  0  0  0  0  0
  147.1878   67.6608  216.6384 H   0  0  0  0  0  0  0  0  0  0  0  0
  146.9974   69.8299  217.5177 H   0  0  0  0  0  0  0  0  0  0  0  0
  145.5630   69.7080  216.4107 H   0  0  0  0  0  0  0  0  0  0  0  0
  144.2640   69.0730  218.3240 H   0  0  0  0  0  0  0  0  0  0  0  0
  144.0640   71.3096  217.6974 H   0  0  0  0  0  0  0  0  0  0  0  0
  142.9710   70.6890  219.8058 H   0  0  0  0  0  0  0  0  0  0  0  0
  144.5106   70.9361  220.7111 H   0  0  0  0  0  0  0  0  0  0  0  0
  138.0321   71.0644  223.1956 H   0  0  0  0  0  0  0  0  0  0  0  0
  138.9090   70.7977  221.6501 H   0  0  0  0  0  0  0  0  0  0  0  0
  138.3070   68.6721  222.8801 H   0  0  0  0  0  0  0  0  0  0  0  0
  140.0758   68.8837  222.5691 H   0  0  0  0  0  0  0  0  0  0  0  0
  138.8111   67.0600  224.6728 H   0  0  0  0  0  0  0  0  0  0  0  0
  139.3256   66.7835  227.0956 H   0  0  0  0  0  0  0  0  0  0  0  0
  140.3122   68.6722  228.3901 H   0  0  0  0  0  0  0  0  0  0  0  0
  140.7879   70.8466  227.2651 H   0  0  0  0  0  0  0  0  0  0  0  0
  139.7957   72.2996  225.1703 H   0  0  0  0  0  0  0  0  0  0  0  0
  141.4698   71.6934  224.7900 H   0  0  0  0  0  0  0  0  0  0  0  0
  138.3966   75.6057  221.4590 H   0  0  0  0  0  0  0  0  0  0  0  0
  138.9543   76.3725  223.0076 H   0  0  0  0  0  0  0  0  0  0  0  0
  138.5236   77.7288  220.3085 H   0  0  0  0  0  0  0  0  0  0  0  0
  137.6141   77.9927  221.8405 H   0  0  0  0  0  0  0  0  0  0  0  0
  138.0939   80.3089  222.2728 H   0  0  0  0  0  0  0  0  0  0  0  0
  139.7788   82.0332  222.9195 H   0  0  0  0  0  0  0  0  0  0  0  0
  142.2156   81.5074  222.8051 H   0  0  0  0  0  0  0  0  0  0  0  0
  142.9749   79.2616  222.0170 H   0  0  0  0  0  0  0  0  0  0  0  0
  141.5165   77.2080  220.1429 H   0  0  0  0  0  0  0  0  0  0  0  0
  142.3614   76.9097  221.7234 H   0  0  0  0  0  0  0  0  0  0  0  0
  144.1318   74.6722  219.5904 H   0  0  0  0  0  0  0  0  0  0  0  0
  145.3242   73.7296  220.5614 H   0  0  0  0  0  0  0  0  0  0  0  0
  144.6683   73.4076  217.5915 H   0  0  0  0  0  0  0  0  0  0  0  0
  146.2194   73.9638  218.3351 H   0  0  0  0  0  0  0  0  0  0  0  0
  1  2  1  0
  2  3  1  0
  3  4  1  0
  4  5  1  0
  5  6  1  0
  6  7  1  0
  7  8  2  0
  8  9  1  0
  9 10  1  0
 10 11  1  0
 11 12  1  0
 12 13  1  0
 13 14  2  0
 14 15  1  0
 15 16  2  0
 16 17  1  0
 17 18  2  0
 18 19  1  0
  9 20  2  0
 20 21  1  0
 21 22  1  0
 22 23  1  0
 23 24  1  0
 24 25  1  0
 25 26  2  0
 26 27  1  0
 27 28  2  0
 28 29  1  0
 29 30  2  0
 30 31  1  0
 21 32  2  0
  6 33  1  0
 33 34  1  0
 34 35  1  0
 35  4  1  0
 32  7  1  0
 19 10  1  0
 31 22  1  0
 18 13  1  0
 30 25  1  0
  1 36  1  0
  1 37  1  0
  1 38  1  0
  2 39  1  0
  2 40  1  0
  3 41  1  0
  4 42  1  6
  5 43  1  0
  5 44  1  0
 11 45  1  0
 11 46  1  0
 12 47  1  0
 12 48  1  0
 14 49  1  0
 15 50  1  0
 16 51  1  0
 17 52  1  0
 19 53  1  0
 19 54  1  0
 23 55  1  0
 23 56  1  0
 24 57  1  0
 24 58  1  0
 26 59  1  0
 27 60  1  0
 28 61  1  0
 29 62  1  0
 31 63  1  0
 31 64  1  0
 33 65  1  0
 33 66  1  0
 34 67  1  0
 34 68  1  0
M  END
>  <meeko>  (7) 
{"free_energy": -9.49, "intermolecular_energy": -10.98, "internal_energy": -0.83, "cluster_size": 20, "cluster_id": 1, "rank_in_cluster": 20}

$$$$

     RDKit          3D

 68 73  0  0  0  0  0  0  0  0999 V2000
  146.7200   74.8890  215.5640 C   0  0  0  0  0  0  0  0  0  0  0  0
  146.2670   73.7570  216.4830 C   0  0  0  0  0  0  0  0  0  0  0  0
  145.0350   74.0980  217.2160 N   0  0  0  0  0  0  0  0  0  0  0  0
  144.7420   73.2670  218.4070 C   0  0  1  0  0  0  0  0  0  0  0  0
  143.2960   73.5180  218.8630 C   0  0  0  0  0  0  0  0  0  0  0  0
  142.9470   72.6200  219.9720 N   0  0  0  0  0  0  0  0  0  0  0  0
  141.9110   72.9960  220.9060 C   0  0  0  0  0  0  0  0  0  0  0  0
  141.3830   72.0760  221.7550 N   0  0  0  0  0  0  0  0  0  0  0  0
  140.4190   72.4240  222.6490 C   0  0  0  0  0  0  0  0  0  0  0  0
  139.8840   71.4450  223.5660 N   0  0  0  0  0  0  0  0  0  0  0  0
  138.8120   70.5310  223.1560 C   0  0  0  0  0  0  0  0  0  0  0  0
  139.1620   69.1110  223.5830 C   0  0  0  0  0  0  0  0  0  0  0  0
  139.5130   69.0570  225.0440 C   0  0  0  0  0  0  0  0  0  0  0  0
  139.3760   67.8450  225.7420 C   0  0  0  0  0  0  0  0  0  0  0  0
  139.7340   67.7630  227.0890 C   0  0  0  0  0  0  0  0  0  0  0  0
  140.2420   68.8830  227.7470 C   0  0  0  0  0  0  0  0  0  0  0  0
  140.3980   70.0890  227.0590 C   0  0  0  0  0  0  0  0  0  0  0  0
  140.0510   70.1850  225.7020 C   0  0  0  0  0  0  0  0  0  0  0  0
  140.2470   71.5070  224.9920 C   0  0  0  0  0  0  0  0  0  0  0  0
  139.9880   73.7120  222.6880 N   0  0  0  0  0  0  0  0  0  0  0  0
  140.5090   74.6450  221.8480 C   0  0  0  0  0  0  0  0  0  0  0  0
  140.0690   76.0150  221.9170 N   0  0  0  0  0  0  0  0  0  0  0  0
  138.6340   76.2980  222.1030 C   0  0  0  0  0  0  0  0  0  0  0  0
  138.2700   77.7240  221.6810 C   0  0  0  0  0  0  0  0  0  0  0  0
  139.2060   78.7060  222.3200 C   0  0  0  0  0  0  0  0  0  0  0  0
  138.7470   79.9440  222.7950 C   0  0  0  0  0  0  0  0  0  0  0  0
  139.6420   80.8540  223.3640 C   0  0  0  0  0  0  0  0  0  0  0  0
  141.0010   80.5410  223.4470 C   0  0  0  0  0  0  0  0  0  0  0  0
  141.4690   79.3170  222.9550 C   0  0  0  0  0  0  0  0  0  0  0  0
  140.5720   78.3910  222.3980 C   0  0  0  0  0  0  0  0  0  0  0  0
  141.0740   77.0900  221.8230 C   0  0  0  0  0  0  0  0  0  0  0  0
  141.4690   74.2790  220.9620 N   0  0  0  0  0  0  0  0  0  0  0  0
  143.3970   71.2240  219.8970 C   0  0  0  0  0  0  0  0  0  0  0  0
  144.8290   71.1520  219.3590 C   0  0  0  0  0  0  0  0  0  0  0  0
  144.9570   71.8860  218.1580 O   0  0  0  0  0  0  0  0  0  0  0  0
  147.0607   75.7404  216.1715 H   0  0  0  0  0  0  0  0  0  0  0  0
  147.5467   74.5374  214.9292 H   0  0  0  0  0  0  0  0  0  0  0  0
  145.8790   75.2048  214.9292 H   0  0  0  0  0  0  0  0  0  0  0  0
  146.0811   72.8593  215.8751 H   0  0  0  0  0  0  0  0  0  0  0  0
  147.0630   73.5809  217.2215 H   0  0  0  0  0  0  0  0  0  0  0  0
  145.1360   75.0920  217.5310 H   0  0  0  0  0  0  0  0  0  0  0  0
  145.4367   73.5588  219.2084 H   0  0  0  0  0  0  0  0  0  0  0  0
  143.1968   74.5616  219.1964 H   0  0  0  0  0  0  0  0  0  0  0  0
  142.6167   73.3251  218.0196 H   0  0  0  0  0  0  0  0  0  0  0  0
  137.8688   70.8351  223.6333 H   0  0  0  0  0  0  0  0  0  0  0  0
  138.6988   70.5669  222.0624 H   0  0  0  0  0  0  0  0  0  0  0  0
  138.2979   68.4563  223.3965 H   0  0  0  0  0  0  0  0  0  0  0  0
  140.0333   68.7756  223.0013 H   0  0  0  0  0  0  0  0  0  0  0  0
  138.9848   66.9566  225.2246 H   0  0  0  0  0  0  0  0  0  0  0  0
  139.6152   66.8138  227.6321 H   0  0  0  0  0  0  0  0  0  0  0  0
  140.5202   68.8167  228.8092 H   0  0  0  0  0  0  0  0  0  0  0  0
  140.7956   70.9698  227.5845 H   0  0  0  0  0  0  0  0  0  0  0  0
  139.6198   72.2662  225.4822 H   0  0  0  0  0  0  0  0  0  0  0  0
  141.3154   71.7616  225.0524 H   0  0  0  0  0  0  0  0  0  0  0  0
  138.0510   75.5888  221.4971 H   0  0  0  0  0  0  0  0  0  0  0  0
  138.4032   76.1915  223.1732 H   0  0  0  0  0  0  0  0  0  0  0  0
  138.3444   77.8097  220.5869 H   0  0  0  0  0  0  0  0  0  0  0  0
  137.2420   77.9437  222.0049 H   0  0  0  0  0  0  0  0  0  0  0  0
  137.6796   80.1989  222.7193 H   0  0  0  0  0  0  0  0  0  0  0  0
  139.2760   81.8180  223.7470 H   0  0  0  0  0  0  0  0  0  0  0  0
  141.7035   81.2566  223.8991 H   0  0  0  0  0  0  0  0  0  0  0  0
  142.5420   79.0798  223.0048 H   0  0  0  0  0  0  0  0  0  0  0  0
  141.3285   77.2454  220.7642 H   0  0  0  0  0  0  0  0  0  0  0  0
  141.9546   76.7809  222.4052 H   0  0  0  0  0  0  0  0  0  0  0  0
  143.3648   70.7785  220.9022 H   0  0  0  0  0  0  0  0  0  0  0  0
  142.7324   70.6713  219.2167 H   0  0  0  0  0  0  0  0  0  0  0  0
  145.5166   71.5683  220.1099 H   0  0  0  0  0  0  0  0  0  0  0  0
  145.0734   70.0993  219.1538 H   0  0  0  0  0  0  0  0  0  0  0  0
  1  2  1  0
  2  3  1  0
  3  4  1  0
  4  5  1  0
  5  6  1  0
  6  7  1  0
  7  8  2  0
  8  9  1  0
  9 10  1  0
 10 11  1  0
 11 12  1  0
 12 13  1  0
 13 14  2  0
 14 15  1  0
 15 16  2  0
 16 17  1  0
 17 18  2  0
 18 19  1  0
  9 20  2  0
 20 21  1  0
 21 22  1  0
 22 23  1  0
 23 24  1  0
 24 25  1  0
 25 26  2  0
 26 27  1  0
 27 28  2  0
 28 29  1  0
 29 30  2  0
 30 31  1  0
 21 32  2  0
  6 33  1  0
 33 34  1  0
 34 35  1  0
 35  4  1  0
 32  7  1  0
 19 10  1  0
 31 22  1  0
 18 13  1  0
 30 25  1  0
  1 36  1  0
  1 37  1  0
  1 38  1  0
  2 39  1  0
  2 40  1  0
  3 41  1  0
  4 42  1  1
  5 43  1  0
  5 44  1  0
 11 45  1  0
 11 46  1  0
 12 47  1  0
 12 48  1  0
 14 49  1  0
 15 50  1  0
 16 51  1  0
 17 52  1  0
 19 53  1  0
 19 54  1  0
 23 55  1  0
 23 56  1  0
 24 57  1  0
 24 58  1  0
 26 59  1  0
 27 60  1  0
 28 61  1  0
 29 62  1  0
 31 63  1  0
 31 64  1  0
 33 65  1  0
 33 66  1  0
 34 67  1  0
 34 68  1  0
M  END
>  <meeko>  (8) 
{"free_energy": -9.55, "intermolecular_energy": -11.04, "internal_energy": -0.83, "cluster_size": 20, "cluster_id": 1, "rank_in_cluster": 19}

$$$$

     RDKit          3D

 68 73  0  0  0  0  0  0  0  0999 V2000
  146.3980   73.0400  221.7280 C   0  0  0  0  0  0  0  0  0  0  0  0
  146.6790   73.8460  220.4630 C   0  0  0  0  0  0  0  0  0  0  0  0
  146.3380   73.0960  219.2400 N   0  0  0  0  0  0  0  0  0  0  0  0
  145.0310   72.4010  219.2520 C   0  0  1  0  0  0  0  0  0  0  0  0
  143.9880   73.2830  219.9570 C   0  0  0  0  0  0  0  0  0  0  0  0
  142.6580   72.6640  219.8800 N   0  0  0  0  0  0  0  0  0  0  0  0
  141.6590   72.9750  220.8740 C   0  0  0  0  0  0  0  0  0  0  0  0
  141.0920   74.2090  220.9190 N   0  0  0  0  0  0  0  0  0  0  0  0
  140.1380   74.5060  221.8400 C   0  0  0  0  0  0  0  0  0  0  0  0
  139.5220   75.8120  221.8610 N   0  0  0  0  0  0  0  0  0  0  0  0
  138.1540   76.0110  221.3660 C   0  0  0  0  0  0  0  0  0  0  0  0
  137.3650   76.8430  222.3700 C   0  0  0  0  0  0  0  0  0  0  0  0
  138.1000   78.1080  222.7190 C   0  0  0  0  0  0  0  0  0  0  0  0
  137.3800   79.2140  223.1990 C   0  0  0  0  0  0  0  0  0  0  0  0
  138.0470   80.3840  223.5670 C   0  0  0  0  0  0  0  0  0  0  0  0
  139.4360   80.4570  223.4710 C   0  0  0  0  0  0  0  0  0  0  0  0
  140.1660   79.3570  223.0110 C   0  0  0  0  0  0  0  0  0  0  0  0
  139.5090   78.1710  222.6460 C   0  0  0  0  0  0  0  0  0  0  0  0
  140.3380   77.0000  222.1640 C   0  0  0  0  0  0  0  0  0  0  0  0
  139.7480   73.5470  222.7210 N   0  0  0  0  0  0  0  0  0  0  0  0
  140.3030   72.3070  222.6880 C   0  0  0  0  0  0  0  0  0  0  0  0
  139.8630   71.2870  223.6050 N   0  0  0  0  0  0  0  0  0  0  0  0
  139.2300   70.0670  223.0700 C   0  0  0  0  0  0  0  0  0  0  0  0
  138.4070   69.3330  224.1330 C   0  0  0  0  0  0  0  0  0  0  0  0
  139.2250   69.1410  225.3750 C   0  0  0  0  0  0  0  0  0  0  0  0
  139.1420   67.9560  226.1230 C   0  0  0  0  0  0  0  0  0  0  0  0
  139.8940   67.8080  227.2920 C   0  0  0  0  0  0  0  0  0  0  0  0
  140.7200   68.8470  227.7290 C   0  0  0  0  0  0  0  0  0  0  0  0
  140.7910   70.0390  227.0000 C   0  0  0  0  0  0  0  0  0  0  0  0
  140.0510   70.1870  225.8150 C   0  0  0  0  0  0  0  0  0  0  0  0
  140.0840   71.4860  225.0500 C   0  0  0  0  0  0  0  0  0  0  0  0
  141.2550   72.0290  221.7610 N   0  0  0  0  0  0  0  0  0  0  0  0
  142.2630   72.0360  218.6110 C   0  0  0  0  0  0  0  0  0  0  0  0
  143.4370   71.2570  218.0110 C   0  0  0  0  0  0  0  0  0  0  0  0
  144.5970   72.0610  217.9430 O   0  0  0  0  0  0  0  0  0  0  0  0
  146.6135   73.6581  222.6120 H   0  0  0  0  0  0  0  0  0  0  0  0
  145.3409   72.7361  221.7419 H   0  0  0  0  0  0  0  0  0  0  0  0
  147.0370   72.1448  221.7419 H   0  0  0  0  0  0  0  0  0  0  0  0
  146.0819   74.7694  220.4908 H   0  0  0  0  0  0  0  0  0  0  0  0
  147.7560   74.0678  220.4350 H   0  0  0  0  0  0  0  0  0  0  0  0
  146.3310   73.7890  218.4550 H   0  0  0  0  0  0  0  0  0  0  0  0
  145.1498   71.4575  219.8049 H   0  0  0  0  0  0  0  0  0  0  0  0
  144.2706   73.4047  221.0131 H   0  0  0  0  0  0  0  0  0  0  0  0
  143.9547   74.2634  219.4593 H   0  0  0  0  0  0  0  0  0  0  0  0
  138.1866   76.5363  220.4001 H   0  0  0  0  0  0  0  0  0  0  0  0
  137.6658   75.0338  221.2364 H   0  0  0  0  0  0  0  0  0  0  0  0
  136.3893   77.1028  221.9336 H   0  0  0  0  0  0  0  0  0  0  0  0
  137.2320   76.2509  223.2875 H   0  0  0  0  0  0  0  0  0  0  0  0
  136.2848   79.1582  223.2855 H   0  0  0  0  0  0  0  0  0  0  0  0
  137.4757   81.2497  223.9333 H   0  0  0  0  0  0  0  0  0  0  0  0
  139.9584   81.3816  223.7577 H   0  0  0  0  0  0  0  0  0  0  0  0
  141.2615   79.4210  222.9346 H   0  0  0  0  0  0  0  0  0  0  0  0
  140.8744   77.3004  221.2518 H   0  0  0  0  0  0  0  0  0  0  0  0
  141.0318   76.7287  222.9734 H   0  0  0  0  0  0  0  0  0  0  0  0
  138.5668   70.3468  222.2382 H   0  0  0  0  0  0  0  0  0  0  0  0
  140.0288   69.3904  222.7323 H   0  0  0  0  0  0  0  0  0  0  0  0
  137.5125   69.9260  224.3744 H   0  0  0  0  0  0  0  0  0  0  0  0
  138.1089   68.3490  223.7421 H   0  0  0  0  0  0  0  0  0  0  0  0
  138.4831   67.1413  225.7881 H   0  0  0  0  0  0  0  0  0  0  0  0
  139.8355   66.8729  227.8684 H   0  0  0  0  0  0  0  0  0  0  0  0
  141.3147   68.7276  228.6467 H   0  0  0  0  0  0  0  0  0  0  0  0
  141.4278   70.8624  227.3556 H   0  0  0  0  0  0  0  0  0  0  0  0
  139.2970   72.1476  225.4410 H   0  0  0  0  0  0  0  0  0  0  0  0
  141.0818   71.9302  225.1812 H   0  0  0  0  0  0  0  0  0  0  0  0
  141.4260   71.3460  218.7935 H   0  0  0  0  0  0  0  0  0  0  0  0
  141.9587   72.8220  217.9042 H   0  0  0  0  0  0  0  0  0  0  0  0
  143.6446   70.3787  218.6398 H   0  0  0  0  0  0  0  0  0  0  0  0
  143.1662   70.9460  216.9912 H   0  0  0  0  0  0  0  0  0  0  0  0
  1  2  1  0
  2  3  1  0
  3  4  1  0
  4  5  1  0
  5  6  1  0
  6  7  1  0
  7  8  2  0
  8  9  1  0
  9 10  1  0
 10 11  1  0
 11 12  1  0
 12 13  1  0
 13 14  2  0
 14 15  1  0
 15 16  2  0
 16 17  1  0
 17 18  2  0
 18 19  1  0
  9 20  2  0
 20 21  1  0
 21 22  1  0
 22 23  1  0
 23 24  1  0
 24 25  1  0
 25 26  2  0
 26 27  1  0
 27 28  2  0
 28 29  1  0
 29 30  2  0
 30 31  1  0
 21 32  2  0
  6 33  1  0
 33 34  1  0
 34 35  1  0
 35  4  1  0
 32  7  1  0
 19 10  1  0
 31 22  1  0
 18 13  1  0
 30 25  1  0
  1 36  1  0
  1 37  1  0
  1 38  1  0
  2 39  1  0
  2 40  1  0
  3 41  1  0
  4 42  1  1
  5 43  1  0
  5 44  1  0
 11 45  1  0
 11 46  1  0
 12 47  1  0
 12 48  1  0
 14 49  1  0
 15 50  1  0
 16 51  1  0
 17 52  1  0
 19 53  1  0
 19 54  1  0
 23 55  1  0
 23 56  1  0
 24 57  1  0
 24 58  1  0
 26 59  1  0
 27 60  1  0
 28 61  1  0
 29 62  1  0
 31 63  1  0
 31 64  1  0
 33 65  1  0
 33 66  1  0
 34 67  1  0
 34 68  1  0
M  END
>  <meeko>  (9) 
{"free_energy": -10.04, "intermolecular_energy": -11.54, "internal_energy": -0.78, "cluster_size": 20, "cluster_id": 1, "rank_in_cluster": 10}

$$$$

     RDKit          3D

 68 73  0  0  0  0  0  0  0  0999 V2000
  145.7190   67.7210  219.3020 C   0  0  0  0  0  0  0  0  0  0  0  0
  146.0450   69.1760  218.9760 C   0  0  0  0  0  0  0  0  0  0  0  0
  145.0570   69.7750  218.0610 N   0  0  0  0  0  0  0  0  0  0  0  0
  144.7210   71.1950  218.3120 C   0  0  1  0  0  0  0  0  0  0  0  0
  143.9430   71.3120  219.6320 C   0  0  0  0  0  0  0  0  0  0  0  0
  143.6990   72.7240  219.9580 N   0  0  0  0  0  0  0  0  0  0  0  0
  142.5810   73.0880  220.7950 C   0  0  0  0  0  0  0  0  0  0  0  0
  142.0960   74.3570  220.7840 N   0  0  0  0  0  0  0  0  0  0  0  0
  141.0330   74.7050  221.5560 C   0  0  0  0  0  0  0  0  0  0  0  0
  140.5080   76.0490  221.5150 N   0  0  0  0  0  0  0  0  0  0  0  0
  139.0610   76.2970  221.5300 C   0  0  0  0  0  0  0  0  0  0  0  0
  138.7400   77.3880  222.5440 C   0  0  0  0  0  0  0  0  0  0  0  0
  139.5870   78.6080  222.3110 C   0  0  0  0  0  0  0  0  0  0  0  0
  139.1360   79.8580  222.7680 C   0  0  0  0  0  0  0  0  0  0  0  0
  139.9250   80.9970  222.5970 C   0  0  0  0  0  0  0  0  0  0  0  0
  141.1730   80.8990  221.9820 C   0  0  0  0  0  0  0  0  0  0  0  0
  141.6400   79.6580  221.5390 C   0  0  0  0  0  0  0  0  0  0  0  0
  140.8610   78.5020  221.7110 C   0  0  0  0  0  0  0  0  0  0  0  0
  141.4100   77.1770  221.2270 C   0  0  0  0  0  0  0  0  0  0  0  0
  140.4500   73.7620  222.3430 N   0  0  0  0  0  0  0  0  0  0  0  0
  140.9200   72.4870  222.3620 C   0  0  0  0  0  0  0  0  0  0  0  0
  140.2780   71.4860  223.1750 N   0  0  0  0  0  0  0  0  0  0  0  0
  139.4830   70.4310  222.5190 C   0  0  0  0  0  0  0  0  0  0  0  0
  138.5030   69.7630  223.4870 C   0  0  0  0  0  0  0  0  0  0  0  0
  139.2180   69.3450  224.7370 C   0  0  0  0  0  0  0  0  0  0  0  0
  138.9090   68.1360  225.3790 C   0  0  0  0  0  0  0  0  0  0  0  0
  139.5700   67.7770  226.5580 C   0  0  0  0  0  0  0  0  0  0  0  0
  140.5300   68.6300  227.1090 C   0  0  0  0  0  0  0  0  0  0  0  0
  140.8270   69.8470  226.4850 C   0  0  0  0  0  0  0  0  0  0  0  0
  140.1790   70.2050  225.2910 C   0  0  0  0  0  0  0  0  0  0  0  0
  140.4580   71.5350  224.6380 C   0  0  0  0  0  0  0  0  0  0  0  0
  141.9830   72.1580  221.5860 N   0  0  0  0  0  0  0  0  0  0  0  0
  144.7900   73.6820  219.7320 C   0  0  0  0  0  0  0  0  0  0  0  0
  145.5010   73.3790  218.4100 C   0  0  0  0  0  0  0  0  0  0  0  0
  145.8780   72.0190  218.3360 O   0  0  0  0  0  0  0  0  0  0  0  0
  145.6891   67.5876  220.3935 H   0  0  0  0  0  0  0  0  0  0  0  0
  144.7400   67.4598  218.8737 H   0  0  0  0  0  0  0  0  0  0  0  0
  146.4929   67.0670  218.8737 H   0  0  0  0  0  0  0  0  0  0  0  0
  146.0582   69.7545  219.9115 H   0  0  0  0  0  0  0  0  0  0  0  0
  147.0254   69.1995  218.4777 H   0  0  0  0  0  0  0  0  0  0  0  0
  145.4570   69.7010  217.0950 H   0  0  0  0  0  0  0  0  0  0  0  0
  144.0925   71.5508  217.4823 H   0  0  0  0  0  0  0  0  0  0  0  0
  142.9793   70.7910  219.5324 H   0  0  0  0  0  0  0  0  0  0  0  0
  144.5367   70.8565  220.4383 H   0  0  0  0  0  0  0  0  0  0  0  0
  138.7343   76.6189  220.5302 H   0  0  0  0  0  0  0  0  0  0  0  0
  138.5347   75.3723  221.8093 H   0  0  0  0  0  0  0  0  0  0  0  0
  137.6792   77.6639  222.4515 H   0  0  0  0  0  0  0  0  0  0  0  0
  138.9521   77.0021  223.5520 H   0  0  0  0  0  0  0  0  0  0  0  0
  138.1569   79.9394  223.2627 H   0  0  0  0  0  0  0  0  0  0  0  0
  139.5615   81.9740  222.9481 H   0  0  0  0  0  0  0  0  0  0  0  0
  141.7904   81.7991  221.8454 H   0  0  0  0  0  0  0  0  0  0  0  0
  142.6240   79.5864  221.0525 H   0  0  0  0  0  0  0  0  0  0  0  0
  141.5637   77.2359  220.1394 H   0  0  0  0  0  0  0  0  0  0  0  0
  142.3535   76.9930  221.7617 H   0  0  0  0  0  0  0  0  0  0  0  0
  138.9140   70.8787  221.6909 H   0  0  0  0  0  0  0  0  0  0  0  0
  140.1779   69.6601  222.1546 H   0  0  0  0  0  0  0  0  0  0  0  0
  137.7046   70.4743  223.7451 H   0  0  0  0  0  0  0  0  0  0  0  0
  138.0705   68.8738  223.0050 H   0  0  0  0  0  0  0  0  0  0  0  0
  138.1448   67.4689  224.9537 H   0  0  0  0  0  0  0  0  0  0  0  0
  139.3342   66.8228  227.0518 H   0  0  0  0  0  0  0  0  0  0  0  0
  141.0526   68.3447  228.0339 H   0  0  0  0  0  0  0  0  0  0  0  0
  141.5698   70.5250  226.9306 H   0  0  0  0  0  0  0  0  0  0  0  0
  139.7700   72.2854  225.0546 H   0  0  0  0  0  0  0  0  0  0  0  0
  141.5069   71.7973  224.8406 H   0  0  0  0  0  0  0  0  0  0  0  0
  144.3763   74.7006  219.6959 H   0  0  0  0  0  0  0  0  0  0  0  0
  145.5152   73.5976  220.5548 H   0  0  0  0  0  0  0  0  0  0  0  0
  144.8222   73.6097  217.5757 H   0  0  0  0  0  0  0  0  0  0  0  0
  146.4089   73.9973  218.3515 H   0  0  0  0  0  0  0  0  0  0  0  0
  1  2  1  0
  2  3  1  0
  3  4  1  0
  4  5  1  0
  5  6  1  0
  6  7  1  0
  7  8  2  0
  8  9  1  0
  9 10  1  0
 10 11  1  0
 11 12  1  0
 12 13  1  0
 13 14  2  0
 14 15  1  0
 15 16  2  0
 16 17  1  0
 17 18  2  0
 18 19  1  0
  9 20  2  0
 20 21  1  0
 21 22  1  0
 22 23  1  0
 23 24  1  0
 24 25  1  0
 25 26  2  0
 26 27  1  0
 27 28  2  0
 28 29  1  0
 29 30  2  0
 30 31  1  0
 21 32  2  0
  6 33  1  0
 33 34  1  0
 34 35  1  0
 35  4  1  0
 32  7  1  0
 19 10  1  0
 31 22  1  0
 18 13  1  0
 30 25  1  0
  1 36  1  0
  1 37  1  0
  1 38  1  0
  2 39  1  0
  2 40  1  0
  3 41  1  0
  4 42  1  6
  5 43  1  0
  5 44  1  0
 11 45  1  0
 11 46  1  0
 12 47  1  0
 12 48  1  0
 14 49  1  0
 15 50  1  0
 16 51  1  0
 17 52  1  0
 19 53  1  0
 19 54  1  0
 23 55  1  0
 23 56  1  0
 24 57  1  0
 24 58  1  0
 26 59  1  0
 27 60  1  0
 28 61  1  0
 29 62  1  0
 31 63  1  0
 31 64  1  0
 33 65  1  0
 33 66  1  0
 34 67  1  0
 34 68  1  0
M  END
>  <meeko>  (10) 
{"free_energy": -9.71, "intermolecular_energy": -11.2, "internal_energy": -0.89, "cluster_size": 20, "cluster_id": 1, "rank_in_cluster": 17}

$$$$

     RDKit          3D

 68 73  0  0  0  0  0  0  0  0999 V2000
  145.6590   67.7110  219.3370 C   0  0  0  0  0  0  0  0  0  0  0  0
  146.0430   69.1420  218.9680 C   0  0  0  0  0  0  0  0  0  0  0  0
  145.0710   69.7570  218.0460 N   0  0  0  0  0  0  0  0  0  0  0  0
  144.7460   71.1780  218.3040 C   0  0  1  0  0  0  0  0  0  0  0  0
  143.9670   71.2940  219.6230 C   0  0  0  0  0  0  0  0  0  0  0  0
  143.7330   72.7060  219.9560 N   0  0  0  0  0  0  0  0  0  0  0  0
  142.6160   73.0740  220.7930 C   0  0  0  0  0  0  0  0  0  0  0  0
  142.1360   74.3450  220.7820 N   0  0  0  0  0  0  0  0  0  0  0  0
  141.0730   74.6970  221.5530 C   0  0  0  0  0  0  0  0  0  0  0  0
  140.5530   76.0440  221.5120 N   0  0  0  0  0  0  0  0  0  0  0  0
  139.1070   76.2960  221.5320 C   0  0  0  0  0  0  0  0  0  0  0  0
  138.7950   77.3900  222.5460 C   0  0  0  0  0  0  0  0  0  0  0  0
  139.6450   78.6070  222.3070 C   0  0  0  0  0  0  0  0  0  0  0  0
  139.2010   79.8600  222.7640 C   0  0  0  0  0  0  0  0  0  0  0  0
  139.9930   80.9960  222.5880 C   0  0  0  0  0  0  0  0  0  0  0  0
  141.2380   80.8910  221.9680 C   0  0  0  0  0  0  0  0  0  0  0  0
  141.6990   79.6480  221.5250 C   0  0  0  0  0  0  0  0  0  0  0  0
  140.9170   78.4960  221.7030 C   0  0  0  0  0  0  0  0  0  0  0  0
  141.4590   77.1680  221.2190 C   0  0  0  0  0  0  0  0  0  0  0  0
  140.4870   73.7570  222.3400 N   0  0  0  0  0  0  0  0  0  0  0  0
  140.9530   72.4800  222.3600 C   0  0  0  0  0  0  0  0  0  0  0  0
  140.3070   71.4810  223.1730 N   0  0  0  0  0  0  0  0  0  0  0  0
  139.5100   70.4280  222.5170 C   0  0  0  0  0  0  0  0  0  0  0  0
  138.5270   69.7640  223.4850 C   0  0  0  0  0  0  0  0  0  0  0  0
  139.2390   69.3450  224.7350 C   0  0  0  0  0  0  0  0  0  0  0  0
  138.9260   68.1370  225.3780 C   0  0  0  0  0  0  0  0  0  0  0  0
  139.5850   67.7780  226.5580 C   0  0  0  0  0  0  0  0  0  0  0  0
  140.5460   68.6280  227.1090 C   0  0  0  0  0  0  0  0  0  0  0  0
  140.8470   69.8440  226.4850 C   0  0  0  0  0  0  0  0  0  0  0  0
  140.2020   70.2020  225.2900 C   0  0  0  0  0  0  0  0  0  0  0  0
  140.4850   71.5310  224.6360 C   0  0  0  0  0  0  0  0  0  0  0  0
  142.0150   72.1470  221.5840 N   0  0  0  0  0  0  0  0  0  0  0  0
  144.8310   73.6570  219.7370 C   0  0  0  0  0  0  0  0  0  0  0  0
  145.5430   73.3560  218.4150 C   0  0  0  0  0  0  0  0  0  0  0  0
  145.9090   71.9930  218.3350 O   0  0  0  0  0  0  0  0  0  0  0  0
  145.6317   67.6094  220.4320 H   0  0  0  0  0  0  0  0  0  0  0  0
  144.6668   67.4791  218.9224 H   0  0  0  0  0  0  0  0  0  0  0  0
  146.4018   67.0135  218.9224 H   0  0  0  0  0  0  0  0  0  0  0  0
  146.0905   69.7447  219.8870 H   0  0  0  0  0  0  0  0  0  0  0  0
  147.0183   69.1107  218.4603 H   0  0  0  0  0  0  0  0  0  0  0  0
  145.4830   69.6860  217.0850 H   0  0  0  0  0  0  0  0  0  0  0  0
  144.1222   71.5428  217.4747 H   0  0  0  0  0  0  0  0  0  0  0  0
  142.9996   70.7808  219.5192 H   0  0  0  0  0  0  0  0  0  0  0  0
  144.5560   70.8300  220.4278 H   0  0  0  0  0  0  0  0  0  0  0  0
  138.7771   76.6173  220.5330 H   0  0  0  0  0  0  0  0  0  0  0  0
  138.5783   75.3735  221.8141 H   0  0  0  0  0  0  0  0  0  0  0  0
  137.7347   77.6694  222.4585 H   0  0  0  0  0  0  0  0  0  0  0  0
  139.0111   77.0049  223.5535 H   0  0  0  0  0  0  0  0  0  0  0  0
  138.2244   79.9458  223.2629 H   0  0  0  0  0  0  0  0  0  0  0  0
  139.6348   81.9751  222.9387 H   0  0  0  0  0  0  0  0  0  0  0  0
  141.8585   81.7884  221.8274 H   0  0  0  0  0  0  0  0  0  0  0  0
  142.6804   79.5721  221.0340 H   0  0  0  0  0  0  0  0  0  0  0  0
  141.6092   77.2246  220.1308 H   0  0  0  0  0  0  0  0  0  0  0  0
  142.4037   76.9808  221.7505 H   0  0  0  0  0  0  0  0  0  0  0  0
  138.9432   70.8766  221.6878 H   0  0  0  0  0  0  0  0  0  0  0  0
  140.2029   69.6548  222.1538 H   0  0  0  0  0  0  0  0  0  0  0  0
  137.7308   70.4782  223.7418 H   0  0  0  0  0  0  0  0  0  0  0  0
  138.0920   68.8758  223.0035 H   0  0  0  0  0  0  0  0  0  0  0  0
  138.1606   67.4713  224.9527 H   0  0  0  0  0  0  0  0  0  0  0  0
  139.3461   66.8250  227.0526 H   0  0  0  0  0  0  0  0  0  0  0  0
  141.0670   68.3416  228.0345 H   0  0  0  0  0  0  0  0  0  0  0  0
  141.5904   70.5208  226.9315 H   0  0  0  0  0  0  0  0  0  0  0  0
  139.7982   72.2834  225.0509 H   0  0  0  0  0  0  0  0  0  0  0  0
  141.5342   71.7911  224.8398 H   0  0  0  0  0  0  0  0  0  0  0  0
  144.4245   74.6787  219.7052 H   0  0  0  0  0  0  0  0  0  0  0  0
  145.5538   73.5629  220.5608 H   0  0  0  0  0  0  0  0  0  0  0  0
  144.8683   73.5968  217.5802 H   0  0  0  0  0  0  0  0  0  0  0  0
  146.4559   73.9674  218.3617 H   0  0  0  0  0  0  0  0  0  0  0  0
  1  2  1  0
  2  3  1  0
  3  4  1  0
  4  5  1  0
  5  6  1  0
  6  7  1  0
  7  8  2  0
  8  9  1  0
  9 10  1  0
 10 11  1  0
 11 12  1  0
 12 13  1  0
 13 14  2  0
 14 15  1  0
 15 16  2  0
 16 17  1  0
 17 18  2  0
 18 19  1  0
  9 20  2  0
 20 21  1  0
 21 22  1  0
 22 23  1  0
 23 24  1  0
 24 25  1  0
 25 26  2  0
 26 27  1  0
 27 28  2  0
 28 29  1  0
 29 30  2  0
 30 31  1  0
 21 32  2  0
  6 33  1  0
 33 34  1  0
 34 35  1  0
 35  4  1  0
 32  7  1  0
 19 10  1  0
 31 22  1  0
 18 13  1  0
 30 25  1  0
  1 36  1  0
  1 37  1  0
  1 38  1  0
  2 39  1  0
  2 40  1  0
  3 41  1  0
  4 42  1  6
  5 43  1  0
  5 44  1  0
 11 45  1  0
 11 46  1  0
 12 47  1  0
 12 48  1  0
 14 49  1  0
 15 50  1  0
 16 51  1  0
 17 52  1  0
 19 53  1  0
 19 54  1  0
 23 55  1  0
 23 56  1  0
 24 57  1  0
 24 58  1  0
 26 59  1  0
 27 60  1  0
 28 61  1  0
 29 62  1  0
 31 63  1  0
 31 64  1  0
 33 65  1  0
 33 66  1  0
 34 67  1  0
 34 68  1  0
M  END
>  <meeko>  (11) 
{"free_energy": -9.7, "intermolecular_energy": -11.19, "internal_energy": -0.89, "cluster_size": 20, "cluster_id": 1, "rank_in_cluster": 18}

$$$$

     RDKit          3D

 68 73  0  0  0  0  0  0  0  0999 V2000
  145.8740   67.5730  219.3800 C   0  0  0  0  0  0  0  0  0  0  0  0
  144.9940   68.8200  219.3400 C   0  0  0  0  0  0  0  0  0  0  0  0
  145.7840   70.0510  219.1620 N   0  0  0  0  0  0  0  0  0  0  0  0
  145.0080   71.2850  218.9030 C   0  0  1  0  0  0  0  0  0  0  0  0
  144.2810   71.7110  220.1880 C   0  0  0  0  0  0  0  0  0  0  0  0
  143.5960   72.9950  219.9860 N   0  0  0  0  0  0  0  0  0  0  0  0
  142.4490   73.3360  220.7940 C   0  0  0  0  0  0  0  0  0  0  0  0
  141.8120   72.3830  221.5230 N   0  0  0  0  0  0  0  0  0  0  0  0
  140.7420   72.6980  222.3000 C   0  0  0  0  0  0  0  0  0  0  0  0
  140.0900   71.6830  223.0940 N   0  0  0  0  0  0  0  0  0  0  0  0
  138.9920   70.8810  222.5420 C   0  0  0  0  0  0  0  0  0  0  0  0
  139.2260   69.4090  222.8600 C   0  0  0  0  0  0  0  0  0  0  0  0
  139.4780   69.2070  224.3290 C   0  0  0  0  0  0  0  0  0  0  0  0
  139.2220   67.9520  224.9060 C   0  0  0  0  0  0  0  0  0  0  0  0
  139.4870   67.7320  226.2600 C   0  0  0  0  0  0  0  0  0  0  0  0
  140.0190   68.7550  227.0440 C   0  0  0  0  0  0  0  0  0  0  0  0
  140.2940   70.0030  226.4770 C   0  0  0  0  0  0  0  0  0  0  0  0
  140.0410   70.2370  225.1160 C   0  0  0  0  0  0  0  0  0  0  0  0
  140.3640   71.5980  224.5390 C   0  0  0  0  0  0  0  0  0  0  0  0
  140.3130   73.9870  222.3450 N   0  0  0  0  0  0  0  0  0  0  0  0
  140.9410   74.9530  221.6240 C   0  0  0  0  0  0  0  0  0  0  0  0
  140.5000   76.3220  221.6990 N   0  0  0  0  0  0  0  0  0  0  0  0
  139.1500   76.6130  222.2170 C   0  0  0  0  0  0  0  0  0  0  0  0
  138.6590   78.0000  221.7960 C   0  0  0  0  0  0  0  0  0  0  0  0
  139.7010   79.0320  222.1060 C   0  0  0  0  0  0  0  0  0  0  0  0
  139.3450   80.3010  222.5880 C   0  0  0  0  0  0  0  0  0  0  0  0
  140.3320   81.2570  222.8470 C   0  0  0  0  0  0  0  0  0  0  0  0
  141.6760   80.9570  222.6100 C   0  0  0  0  0  0  0  0  0  0  0  0
  142.0360   79.7010  222.1080 C   0  0  0  0  0  0  0  0  0  0  0  0
  141.0500   78.7300  221.8630 C   0  0  0  0  0  0  0  0  0  0  0  0
  141.4240   77.3920  221.2780 C   0  0  0  0  0  0  0  0  0  0  0  0
  142.0070   74.6200  220.8530 N   0  0  0  0  0  0  0  0  0  0  0  0
  144.3010   74.0410  219.2320 C   0  0  0  0  0  0  0  0  0  0  0  0
  145.0270   73.4350  218.0280 C   0  0  0  0  0  0  0  0  0  0  0  0
  145.8280   72.3380  218.4180 O   0  0  0  0  0  0  0  0  0  0  0  0
  146.0697   67.2957  220.4263 H   0  0  0  0  0  0  0  0  0  0  0  0
  145.3593   66.7446  218.8712 H   0  0  0  0  0  0  0  0  0  0  0  0
  146.8270   67.7803  218.8712 H   0  0  0  0  0  0  0  0  0  0  0  0
  144.2869   68.7283  218.5024 H   0  0  0  0  0  0  0  0  0  0  0  0
  144.4660   68.8928  220.3023 H   0  0  0  0  0  0  0  0  0  0  0  0
  146.3300   70.1890  220.0450 H   0  0  0  0  0  0  0  0  0  0  0  0
  144.2701   71.0675  218.1168 H   0  0  0  0  0  0  0  0  0  0  0  0
  143.5406   70.9434  220.4572 H   0  0  0  0  0  0  0  0  0  0  0  0
  145.0192   71.8231  220.9957 H   0  0  0  0  0  0  0  0  0  0  0  0
  138.0407   71.2056  222.9888 H   0  0  0  0  0  0  0  0  0  0  0  0
  138.9514   71.0178  221.4513 H   0  0  0  0  0  0  0  0  0  0  0  0
  138.3373   68.8318  222.5650 H   0  0  0  0  0  0  0  0  0  0  0  0
  140.1107   69.0670  222.3030 H   0  0  0  0  0  0  0  0  0  0  0  0
  138.8112   67.1391  224.2892 H   0  0  0  0  0  0  0  0  0  0  0  0
  139.2756   66.7500  226.7083 H   0  0  0  0  0  0  0  0  0  0  0  0
  140.2227   68.5798  228.1107 H   0  0  0  0  0  0  0  0  0  0  0  0
  140.7113   70.8068  227.1013 H   0  0  0  0  0  0  0  0  0  0  0  0
  139.7554   72.3534  225.0575 H   0  0  0  0  0  0  0  0  0  0  0  0
  141.4403   71.7731  224.6837 H   0  0  0  0  0  0  0  0  0  0  0  0
  138.4510   75.8567  221.8304 H   0  0  0  0  0  0  0  0  0  0  0  0
  139.1961   76.5888  223.3158 H   0  0  0  0  0  0  0  0  0  0  0  0
  138.4561   78.0013  220.7149 H   0  0  0  0  0  0  0  0  0  0  0  0
  137.7394   78.2396  222.3500 H   0  0  0  0  0  0  0  0  0  0  0  0
  138.2865   80.5443  222.7625 H   0  0  0  0  0  0  0  0  0  0  0  0
  140.0502   82.2460  223.2376 H   0  0  0  0  0  0  0  0  0  0  0  0
  142.4518   81.7086  222.8181 H   0  0  0  0  0  0  0  0  0  0  0  0
  143.0929   79.4735  221.9048 H   0  0  0  0  0  0  0  0  0  0  0  0
  141.4030   77.4668  220.1807 H   0  0  0  0  0  0  0  0  0  0  0  0
  142.4291   77.1331  221.6424 H   0  0  0  0  0  0  0  0  0  0  0  0
  143.5729   74.7860  218.8786 H   0  0  0  0  0  0  0  0  0  0  0  0
  145.0411   74.5182  219.8913 H   0  0  0  0  0  0  0  0  0  0  0  0
  144.2825   73.0935  217.2938 H   0  0  0  0  0  0  0  0  0  0  0  0
  145.6780   74.2048  217.5880 H   0  0  0  0  0  0  0  0  0  0  0  0
  1  2  1  0
  2  3  1  0
  3  4  1  0
  4  5  1  0
  5  6  1  0
  6  7  1  0
  7  8  2  0
  8  9  1  0
  9 10  1  0
 10 11  1  0
 11 12  1  0
 12 13  1  0
 13 14  2  0
 14 15  1  0
 15 16  2  0
 16 17  1  0
 17 18  2  0
 18 19  1  0
  9 20  2  0
 20 21  1  0
 21 22  1  0
 22 23  1  0
 23 24  1  0
 24 25  1  0
 25 26  2  0
 26 27  1  0
 27 28  2  0
 28 29  1  0
 29 30  2  0
 30 31  1  0
 21 32  2  0
  6 33  1  0
 33 34  1  0
 34 35  1  0
 35  4  1  0
 32  7  1  0
 19 10  1  0
 31 22  1  0
 18 13  1  0
 30 25  1  0
  1 36  1  0
  1 37  1  0
  1 38  1  0
  2 39  1  0
  2 40  1  0
  3 41  1  0
  4 42  1  6
  5 43  1  0
  5 44  1  0
 11 45  1  0
 11 46  1  0
 12 47  1  0
 12 48  1  0
 14 49  1  0
 15 50  1  0
 16 51  1  0
 17 52  1  0
 19 53  1  0
 19 54  1  0
 23 55  1  0
 23 56  1  0
 24 57  1  0
 24 58  1  0
 26 59  1  0
 27 60  1  0
 28 61  1  0
 29 62  1  0
 31 63  1  0
 31 64  1  0
 33 65  1  0
 33 66  1  0
 34 67  1  0
 34 68  1  0
M  END
>  <meeko>  (12) 
{"free_energy": -10.12, "intermolecular_energy": -11.61, "internal_energy": -0.88, "cluster_size": 20, "cluster_id": 1, "rank_in_cluster": 8}

$$$$

     RDKit          3D

 68 73  0  0  0  0  0  0  0  0999 V2000
  147.5270   75.0010  215.9770 C   0  0  0  0  0  0  0  0  0  0  0  0
  146.6780   73.7640  216.2620 C   0  0  0  0  0  0  0  0  0  0  0  0
  145.4220   74.1020  216.9540 N   0  0  0  0  0  0  0  0  0  0  0  0
  145.1820   73.4000  218.2360 C   0  0  1  0  0  0  0  0  0  0  0  0
  143.7040   73.5450  218.6310 C   0  0  0  0  0  0  0  0  0  0  0  0
  143.4190   72.7610  219.8400 N   0  0  0  0  0  0  0  0  0  0  0  0
  142.3200   73.1340  220.6990 C   0  0  0  0  0  0  0  0  0  0  0  0
  141.7060   72.2040  221.4760 N   0  0  0  0  0  0  0  0  0  0  0  0
  140.6820   72.5490  222.3010 C   0  0  0  0  0  0  0  0  0  0  0  0
  140.0560   71.5590  223.1440 N   0  0  0  0  0  0  0  0  0  0  0  0
  138.9500   70.7310  222.6450 C   0  0  0  0  0  0  0  0  0  0  0  0
  139.2020   69.2720  223.0090 C   0  0  0  0  0  0  0  0  0  0  0  0
  139.4890   69.1230  224.4770 C   0  0  0  0  0  0  0  0  0  0  0  0
  139.2560   67.8880  225.1040 C   0  0  0  0  0  0  0  0  0  0  0  0
  139.5530   67.7160  226.4580 C   0  0  0  0  0  0  0  0  0  0  0  0
  140.0960   68.7690  227.1940 C   0  0  0  0  0  0  0  0  0  0  0  0
  140.3490   69.9980  226.5770 C   0  0  0  0  0  0  0  0  0  0  0  0
  140.0630   70.1830  225.2150 C   0  0  0  0  0  0  0  0  0  0  0  0
  140.3630   71.5260  224.5840 C   0  0  0  0  0  0  0  0  0  0  0  0
  140.2760   73.8460  222.3450 N   0  0  0  0  0  0  0  0  0  0  0  0
  140.8820   74.7890  221.5760 C   0  0  0  0  0  0  0  0  0  0  0  0
  140.4660   76.1660  221.6500 N   0  0  0  0  0  0  0  0  0  0  0  0
  139.1220   76.4830  222.1680 C   0  0  0  0  0  0  0  0  0  0  0  0
  138.6570   77.8790  221.7450 C   0  0  0  0  0  0  0  0  0  0  0  0
  139.7190   78.8910  222.0540 C   0  0  0  0  0  0  0  0  0  0  0  0
  139.3870   80.1670  222.5350 C   0  0  0  0  0  0  0  0  0  0  0  0
  140.3920   81.1040  222.7930 C   0  0  0  0  0  0  0  0  0  0  0  0
  141.7300   80.7790  222.5570 C   0  0  0  0  0  0  0  0  0  0  0  0
  142.0660   79.5160  222.0560 C   0  0  0  0  0  0  0  0  0  0  0  0
  141.0620   78.5640  221.8120 C   0  0  0  0  0  0  0  0  0  0  0  0
  141.4110   77.2180  221.2280 C   0  0  0  0  0  0  0  0  0  0  0  0
  141.9020   74.4260  220.7580 N   0  0  0  0  0  0  0  0  0  0  0  0
  144.0180   71.4240  219.9530 C   0  0  0  0  0  0  0  0  0  0  0  0
  145.4650   71.4440  219.4530 C   0  0  0  0  0  0  0  0  0  0  0  0
  145.5520   72.0300  218.1700 O   0  0  0  0  0  0  0  0  0  0  0  0
  147.8404   75.4576  216.9275 H   0  0  0  0  0  0  0  0  0  0  0  0
  148.4166   74.7100  215.3991 H   0  0  0  0  0  0  0  0  0  0  0  0
  146.9356   75.7265  215.3991 H   0  0  0  0  0  0  0  0  0  0  0  0
  146.4363   73.2721  215.3082 H   0  0  0  0  0  0  0  0  0  0  0  0
  147.2581   73.0985  216.9182 H   0  0  0  0  0  0  0  0  0  0  0  0
  145.4510   75.1310  217.1470 H   0  0  0  0  0  0  0  0  0  0  0  0
  145.8156   73.8653  219.0054 H   0  0  0  0  0  0  0  0  0  0  0  0
  143.4829   74.6048  218.8255 H   0  0  0  0  0  0  0  0  0  0  0  0
  143.0760   73.1734  217.8079 H   0  0  0  0  0  0  0  0  0  0  0  0
  138.0069   71.0651  223.1020 H   0  0  0  0  0  0  0  0  0  0  0  0
  138.8831   70.8295  221.5515 H   0  0  0  0  0  0  0  0  0  0  0  0
  138.3109   68.6792  222.7550 H   0  0  0  0  0  0  0  0  0  0  0  0
  140.0763   68.9166  222.4439 H   0  0  0  0  0  0  0  0  0  0  0  0
  138.8372   67.0514  224.5255 H   0  0  0  0  0  0  0  0  0  0  0  0
  139.3584   66.7488  226.9445 H   0  0  0  0  0  0  0  0  0  0  0  0
  140.3255   68.6325  228.2611 H   0  0  0  0  0  0  0  0  0  0  0  0
  140.7751   70.8257  227.1629 H   0  0  0  0  0  0  0  0  0  0  0  0
  139.7606   72.2949  225.0899 H   0  0  0  0  0  0  0  0  0  0  0  0
  141.4409   71.7132  224.6981 H   0  0  0  0  0  0  0  0  0  0  0  0
  138.4087   75.7395  221.7826 H   0  0  0  0  0  0  0  0  0  0  0  0
  139.1679   76.4594  223.2668 H   0  0  0  0  0  0  0  0  0  0  0  0
  138.4542   77.8829  220.6639 H   0  0  0  0  0  0  0  0  0  0  0  0
  137.7419   78.1368  222.2983 H   0  0  0  0  0  0  0  0  0  0  0  0
  138.3334   80.4305  222.7094 H   0  0  0  0  0  0  0  0  0  0  0  0
  140.1288   82.0985  223.1824 H   0  0  0  0  0  0  0  0  0  0  0  0
  142.5197   81.5159  222.7650 H   0  0  0  0  0  0  0  0  0  0  0  0
  143.1183   79.2683  221.8529 H   0  0  0  0  0  0  0  0  0  0  0  0
  141.3919   77.2921  220.1307 H   0  0  0  0  0  0  0  0  0  0  0  0
  142.4109   76.9403  221.5928 H   0  0  0  0  0  0  0  0  0  0  0  0
  144.0028   71.1078  221.0065 H   0  0  0  0  0  0  0  0  0  0  0  0
  143.4377   70.7197  219.3388 H   0  0  0  0  0  0  0  0  0  0  0  0
  146.0799   72.0252  220.1559 H   0  0  0  0  0  0  0  0  0  0  0  0
  145.8267   70.4072  219.3887 H   0  0  0  0  0  0  0  0  0  0  0  0
  1  2  1  0
  2  3  1  0
  3  4  1  0
  4  5  1  0
  5  6  1  0
  6  7  1  0
  7  8  2  0
  8  9  1  0
  9 10  1  0
 10 11  1  0
 11 12  1  0
 12 13  1  0
 13 14  2  0
 14 15  1  0
 15 16  2  0
 16 17  1  0
 17 18  2  0
 18 19  1  0
  9 20  2  0
 20 21  1  0
 21 22  1  0
 22 23  1  0
 23 24  1  0
 24 25  1  0
 25 26  2  0
 26 27  1  0
 27 28  2  0
 28 29  1  0
 29 30  2  0
 30 31  1  0
 21 32  2  0
  6 33  1  0
 33 34  1  0
 34 35  1  0
 35  4  1  0
 32  7  1  0
 19 10  1  0
 31 22  1  0
 18 13  1  0
 30 25  1  0
  1 36  1  0
  1 37  1  0
  1 38  1  0
  2 39  1  0
  2 40  1  0
  3 41  1  0
  4 42  1  1
  5 43  1  0
  5 44  1  0
 11 45  1  0
 11 46  1  0
 12 47  1  0
 12 48  1  0
 14 49  1  0
 15 50  1  0
 16 51  1  0
 17 52  1  0
 19 53  1  0
 19 54  1  0
 23 55  1  0
 23 56  1  0
 24 57  1  0
 24 58  1  0
 26 59  1  0
 27 60  1  0
 28 61  1  0
 29 62  1  0
 31 63  1  0
 31 64  1  0
 33 65  1  0
 33 66  1  0
 34 67  1  0
 34 68  1  0
M  END
>  <meeko>  (13) 
{"free_energy": -9.88, "intermolecular_energy": -11.37, "internal_energy": -0.85, "cluster_size": 20, "cluster_id": 1, "rank_in_cluster": 12}

$$$$

     RDKit          3D

 68 73  0  0  0  0  0  0  0  0999 V2000
  145.5830   67.5850  219.6800 C   0  0  0  0  0  0  0  0  0  0  0  0
  144.7050   68.8230  219.5090 C   0  0  0  0  0  0  0  0  0  0  0  0
  145.2300   69.7370  218.4780 N   0  0  0  0  0  0  0  0  0  0  0  0
  144.7870   71.1470  218.5800 C   0  0  1  0  0  0  0  0  0  0  0  0
  143.9810   71.3380  219.8740 C   0  0  0  0  0  0  0  0  0  0  0  0
  143.6290   72.7540  220.0520 N   0  0  0  0  0  0  0  0  0  0  0  0
  142.4730   73.1160  220.8370 C   0  0  0  0  0  0  0  0  0  0  0  0
  141.8390   72.1880  221.5990 N   0  0  0  0  0  0  0  0  0  0  0  0
  140.7610   72.5230  222.3560 C   0  0  0  0  0  0  0  0  0  0  0  0
  140.1120   71.5350  223.1840 N   0  0  0  0  0  0  0  0  0  0  0  0
  138.9820   70.7470  222.6770 C   0  0  0  0  0  0  0  0  0  0  0  0
  139.1960   69.2760  223.0140 C   0  0  0  0  0  0  0  0  0  0  0  0
  139.4860   69.0930  224.4780 C   0  0  0  0  0  0  0  0  0  0  0  0
  139.2220   67.8530  225.0840 C   0  0  0  0  0  0  0  0  0  0  0  0
  139.5200   67.6500  226.4330 C   0  0  0  0  0  0  0  0  0  0  0  0
  140.0950   68.6750  227.1840 C   0  0  0  0  0  0  0  0  0  0  0  0
  140.3780   69.9070  226.5880 C   0  0  0  0  0  0  0  0  0  0  0  0
  140.0910   70.1240  225.2310 C   0  0  0  0  0  0  0  0  0  0  0  0
  140.4240   71.4690  224.6220 C   0  0  0  0  0  0  0  0  0  0  0  0
  140.3200   73.8090  222.3450 N   0  0  0  0  0  0  0  0  0  0  0  0
  140.9450   74.7510  221.5900 C   0  0  0  0  0  0  0  0  0  0  0  0
  140.4920   76.1180  221.6080 N   0  0  0  0  0  0  0  0  0  0  0  0
  139.0920   76.4040  221.9740 C   0  0  0  0  0  0  0  0  0  0  0  0
  138.6430   77.7860  221.4910 C   0  0  0  0  0  0  0  0  0  0  0  0
  139.6400   78.8260  221.9060 C   0  0  0  0  0  0  0  0  0  0  0  0
  139.2270   80.0960  222.3390 C   0  0  0  0  0  0  0  0  0  0  0  0
  140.1750   81.0590  222.6960 C   0  0  0  0  0  0  0  0  0  0  0  0
  141.5380   80.7650  222.6100 C   0  0  0  0  0  0  0  0  0  0  0  0
  141.9570   79.5080  222.1590 C   0  0  0  0  0  0  0  0  0  0  0  0
  141.0090   78.5310  221.8150 C   0  0  0  0  0  0  0  0  0  0  0  0
  141.4510   77.1900  221.2830 C   0  0  0  0  0  0  0  0  0  0  0  0
  142.0200   74.3970  220.8410 N   0  0  0  0  0  0  0  0  0  0  0  0
  144.6500   73.7630  219.7380 C   0  0  0  0  0  0  0  0  0  0  0  0
  145.4030   73.3810  218.4600 C   0  0  0  0  0  0  0  0  0  0  0  0
  145.8790   72.0530  218.5290 O   0  0  0  0  0  0  0  0  0  0  0  0
  145.7266   67.3825  220.7516 H   0  0  0  0  0  0  0  0  0  0  0  0
  145.0947   66.7209  219.2058 H   0  0  0  0  0  0  0  0  0  0  0  0
  146.5600   67.7600  219.2058 H   0  0  0  0  0  0  0  0  0  0  0  0
  143.6936   68.5031  219.2177 H   0  0  0  0  0  0  0  0  0  0  0  0
  144.6921   69.3641  220.4666 H   0  0  0  0  0  0  0  0  0  0  0  0
  146.2740   69.7170  218.5620 H   0  0  0  0  0  0  0  0  0  0  0  0
  144.1479   71.3696  217.7128 H   0  0  0  0  0  0  0  0  0  0  0  0
  143.0598   70.7393  219.8193 H   0  0  0  0  0  0  0  0  0  0  0  0
  144.5928   71.0115  220.7279 H   0  0  0  0  0  0  0  0  0  0  0  0
  138.0506   71.0986  223.1450 H   0  0  0  0  0  0  0  0  0  0  0  0
  138.9121   70.8666  221.5858 H   0  0  0  0  0  0  0  0  0  0  0  0
  138.2879   68.7121  222.7544 H   0  0  0  0  0  0  0  0  0  0  0  0
  140.0577   68.9073  222.4383 H   0  0  0  0  0  0  0  0  0  0  0  0
  138.7784   67.0383  224.4928 H   0  0  0  0  0  0  0  0  0  0  0  0
  139.3010   66.6804  226.9040 H   0  0  0  0  0  0  0  0  0  0  0  0
  140.3261   68.5134  228.2472 H   0  0  0  0  0  0  0  0  0  0  0  0
  140.8288   70.7124  227.1864 H   0  0  0  0  0  0  0  0  0  0  0  0
  139.8444   72.2447  225.1438 H   0  0  0  0  0  0  0  0  0  0  0  0
  141.5070   71.6256  224.7344 H   0  0  0  0  0  0  0  0  0  0  0  0
  138.4432   75.6409  221.5193 H   0  0  0  0  0  0  0  0  0  0  0  0
  139.0178   76.3872  223.0714 H   0  0  0  0  0  0  0  0  0  0  0  0
  138.5600   77.7788  220.3942 H   0  0  0  0  0  0  0  0  0  0  0  0
  137.6669   78.0242  221.9387 H   0  0  0  0  0  0  0  0  0  0  0  0
  138.1546   80.3338  222.3975 H   0  0  0  0  0  0  0  0  0  0  0  0
  139.8475   82.0494  223.0450 H   0  0  0  0  0  0  0  0  0  0  0  0
  142.2826   81.5221  222.8970 H   0  0  0  0  0  0  0  0  0  0  0  0
  143.0308   79.2851  222.0739 H   0  0  0  0  0  0  0  0  0  0  0  0
  141.5494   77.2577  220.1895 H   0  0  0  0  0  0  0  0  0  0  0  0
  142.4115   76.9388  221.7567 H   0  0  0  0  0  0  0  0  0  0  0  0
  144.1630   74.7387  219.5938 H   0  0  0  0  0  0  0  0  0  0  0  0
  145.3660   73.8174  220.5713 H   0  0  0  0  0  0  0  0  0  0  0  0
  144.7230   73.4749  217.6005 H   0  0  0  0  0  0  0  0  0  0  0  0
  146.2642   74.0558  218.3465 H   0  0  0  0  0  0  0  0  0  0  0  0
  1  2  1  0
  2  3  1  0
  3  4  1  0
  4  5  1  0
  5  6  1  0
  6  7  1  0
  7  8  2  0
  8  9  1  0
  9 10  1  0
 10 11  1  0
 11 12  1  0
 12 13  1  0
 13 14  2  0
 14 15  1  0
 15 16  2  0
 16 17  1  0
 17 18  2  0
 18 19  1  0
  9 20  2  0
 20 21  1  0
 21 22  1  0
 22 23  1  0
 23 24  1  0
 24 25  1  0
 25 26  2  0
 26 27  1  0
 27 28  2  0
 28 29  1  0
 29 30  2  0
 30 31  1  0
 21 32  2  0
  6 33  1  0
 33 34  1  0
 34 35  1  0
 35  4  1  0
 32  7  1  0
 19 10  1  0
 31 22  1  0
 18 13  1  0
 30 25  1  0
  1 36  1  0
  1 37  1  0
  1 38  1  0
  2 39  1  0
  2 40  1  0
  3 41  1  0
  4 42  1  6
  5 43  1  0
  5 44  1  0
 11 45  1  0
 11 46  1  0
 12 47  1  0
 12 48  1  0
 14 49  1  0
 15 50  1  0
 16 51  1  0
 17 52  1  0
 19 53  1  0
 19 54  1  0
 23 55  1  0
 23 56  1  0
 24 57  1  0
 24 58  1  0
 26 59  1  0
 27 60  1  0
 28 61  1  0
 29 62  1  0
 31 63  1  0
 31 64  1  0
 33 65  1  0
 33 66  1  0
 34 67  1  0
 34 68  1  0
M  END
>  <meeko>  (14) 
{"free_energy": -9.87, "intermolecular_energy": -11.36, "internal_energy": -0.91, "cluster_size": 20, "cluster_id": 1, "rank_in_cluster": 13}

$$$$

     RDKit          3D

 68 73  0  0  0  0  0  0  0  0999 V2000
  144.4770   68.8430  219.6710 C   0  0  0  0  0  0  0  0  0  0  0  0
  145.8590   69.2190  219.1440 C   0  0  0  0  0  0  0  0  0  0  0  0
  146.1700   70.6420  219.3680 N   0  0  0  0  0  0  0  0  0  0  0  0
  145.1240   71.6040  218.9510 C   0  0  1  0  0  0  0  0  0  0  0  0
  144.4540   72.2040  220.1960 C   0  0  0  0  0  0  0  0  0  0  0  0
  143.4930   73.2450  219.8080 N   0  0  0  0  0  0  0  0  0  0  0  0
  142.3860   73.5650  220.6780 C   0  0  0  0  0  0  0  0  0  0  0  0
  141.7640   72.5890  221.3890 N   0  0  0  0  0  0  0  0  0  0  0  0
  140.7320   72.8830  222.2240 C   0  0  0  0  0  0  0  0  0  0  0  0
  140.0960   71.8420  222.9970 N   0  0  0  0  0  0  0  0  0  0  0  0
  138.9700   71.0750  222.4510 C   0  0  0  0  0  0  0  0  0  0  0  0
  139.1980   69.5890  222.7000 C   0  0  0  0  0  0  0  0  0  0  0  0
  139.4990   69.3230  224.1480 C   0  0  0  0  0  0  0  0  0  0  0  0
  139.2500   68.0470  224.6820 C   0  0  0  0  0  0  0  0  0  0  0  0
  139.5600   67.7680  226.0150 C   0  0  0  0  0  0  0  0  0  0  0  0
  140.1310   68.7510  226.8210 C   0  0  0  0  0  0  0  0  0  0  0  0
  140.4000   70.0190  226.2970 C   0  0  0  0  0  0  0  0  0  0  0  0
  140.1020   70.3120  224.9570 C   0  0  0  0  0  0  0  0  0  0  0  0
  140.4200   71.6940  224.4260 C   0  0  0  0  0  0  0  0  0  0  0  0
  140.3260   74.1750  222.3440 N   0  0  0  0  0  0  0  0  0  0  0  0
  140.9390   75.1640  221.6420 C   0  0  0  0  0  0  0  0  0  0  0  0
  140.5240   76.5340  221.7980 N   0  0  0  0  0  0  0  0  0  0  0  0
  139.2040   76.8200  222.3910 C   0  0  0  0  0  0  0  0  0  0  0  0
  138.7160   78.2320  222.0530 C   0  0  0  0  0  0  0  0  0  0  0  0
  139.7880   79.2340  222.3600 C   0  0  0  0  0  0  0  0  0  0  0  0
  139.4750   80.4850  222.9140 C   0  0  0  0  0  0  0  0  0  0  0  0
  140.4880   81.4150  223.1670 C   0  0  0  0  0  0  0  0  0  0  0  0
  141.8150   81.1070  222.8560 C   0  0  0  0  0  0  0  0  0  0  0  0
  142.1310   79.8700  222.2830 C   0  0  0  0  0  0  0  0  0  0  0  0
  141.1200   78.9250  222.0420 C   0  0  0  0  0  0  0  0  0  0  0  0
  141.4450   77.6080  221.3820 C   0  0  0  0  0  0  0  0  0  0  0  0
  141.9670   74.8510  220.8130 N   0  0  0  0  0  0  0  0  0  0  0  0
  143.8770   74.1740  218.7370 C   0  0  0  0  0  0  0  0  0  0  0  0
  144.5930   73.4240  217.6100 C   0  0  0  0  0  0  0  0  0  0  0  0
  145.6460   72.6300  218.1180 O   0  0  0  0  0  0  0  0  0  0  0  0
  144.4905   68.8467  220.7709 H   0  0  0  0  0  0  0  0  0  0  0  0
  143.7364   69.5723  219.3110 H   0  0  0  0  0  0  0  0  0  0  0  0
  144.2080   67.8390  219.3110 H   0  0  0  0  0  0  0  0  0  0  0  0
  146.6136   68.6059  219.6585 H   0  0  0  0  0  0  0  0  0  0  0  0
  145.8686   69.0371  218.0592 H   0  0  0  0  0  0  0  0  0  0  0  0
  146.3260   70.7580  220.3970 H   0  0  0  0  0  0  0  0  0  0  0  0
  144.3752   71.0599  218.3567 H   0  0  0  0  0  0  0  0  0  0  0  0
  143.9260   71.4086  220.7425 H   0  0  0  0  0  0  0  0  0  0  0  0
  145.2275   72.6529  220.8365 H   0  0  0  0  0  0  0  0  0  0  0  0
  138.0385   71.3905  222.9437 H   0  0  0  0  0  0  0  0  0  0  0  0
  138.8930   71.2574  221.3690 H   0  0  0  0  0  0  0  0  0  0  0  0
  138.2928   69.0337  222.4133 H   0  0  0  0  0  0  0  0  0  0  0  0
  140.0589   69.2620  222.0984 H   0  0  0  0  0  0  0  0  0  0  0  0
  138.8089   67.2644  224.0472 H   0  0  0  0  0  0  0  0  0  0  0  0
  139.3530   66.7703  226.4294 H   0  0  0  0  0  0  0  0  0  0  0  0
  140.3705   68.5289  227.8714 H   0  0  0  0  0  0  0  0  0  0  0  0
  140.8480   70.7919  226.9389 H   0  0  0  0  0  0  0  0  0  0  0  0
  139.8386   72.4328  224.9971 H   0  0  0  0  0  0  0  0  0  0  0  0
  141.5026   71.8527  224.5395 H   0  0  0  0  0  0  0  0  0  0  0  0
  138.4761   76.0910  222.0053 H   0  0  0  0  0  0  0  0  0  0  0  0
  139.3000   76.7467  223.4844 H   0  0  0  0  0  0  0  0  0  0  0  0
  138.4648   78.2839  220.9833 H   0  0  0  0  0  0  0  0  0  0  0  0
  137.8258   78.4600  222.6576 H   0  0  0  0  0  0  0  0  0  0  0  0
  138.4299   80.7345  223.1498 H   0  0  0  0  0  0  0  0  0  0  0  0
  140.2400   82.3902  223.6114 H   0  0  0  0  0  0  0  0  0  0  0  0
  142.6116   81.8372  223.0617 H   0  0  0  0  0  0  0  0  0  0  0  0
  143.1736   79.6371  222.0207 H   0  0  0  0  0  0  0  0  0  0  0  0
  141.3753   77.7317  220.2912 H   0  0  0  0  0  0  0  0  0  0  0  0
  142.4612   77.3187  221.6880 H   0  0  0  0  0  0  0  0  0  0  0  0
  142.9739   74.6563  218.3346 H   0  0  0  0  0  0  0  0  0  0  0  0
  144.5587   74.9321  219.1500 H   0  0  0  0  0  0  0  0  0  0  0  0
  143.8701   72.7751  217.0940 H   0  0  0  0  0  0  0  0  0  0  0  0
  145.0160   74.1616  216.9122 H   0  0  0  0  0  0  0  0  0  0  0  0
  1  2  1  0
  2  3  1  0
  3  4  1  0
  4  5  1  0
  5  6  1  0
  6  7  1  0
  7  8  2  0
  8  9  1  0
  9 10  1  0
 10 11  1  0
 11 12  1  0
 12 13  1  0
 13 14  2  0
 14 15  1  0
 15 16  2  0
 16 17  1  0
 17 18  2  0
 18 19  1  0
  9 20  2  0
 20 21  1  0
 21 22  1  0
 22 23  1  0
 23 24  1  0
 24 25  1  0
 25 26  2  0
 26 27  1  0
 27 28  2  0
 28 29  1  0
 29 30  2  0
 30 31  1  0
 21 32  2  0
  6 33  1  0
 33 34  1  0
 34 35  1  0
 35  4  1  0
 32  7  1  0
 19 10  1  0
 31 22  1  0
 18 13  1  0
 30 25  1  0
  1 36  1  0
  1 37  1  0
  1 38  1  0
  2 39  1  0
  2 40  1  0
  3 41  1  0
  4 42  1  6
  5 43  1  0
  5 44  1  0
 11 45  1  0
 11 46  1  0
 12 47  1  0
 12 48  1  0
 14 49  1  0
 15 50  1  0
 16 51  1  0
 17 52  1  0
 19 53  1  0
 19 54  1  0
 23 55  1  0
 23 56  1  0
 24 57  1  0
 24 58  1  0
 26 59  1  0
 27 60  1  0
 28 61  1  0
 29 62  1  0
 31 63  1  0
 31 64  1  0
 33 65  1  0
 33 66  1  0
 34 67  1  0
 34 68  1  0
M  END
>  <meeko>  (15) 
{"free_energy": -10.25, "intermolecular_energy": -11.74, "internal_energy": -0.93, "cluster_size": 20, "cluster_id": 1, "rank_in_cluster": 3}

$$$$

     RDKit          3D

 68 73  0  0  0  0  0  0  0  0999 V2000
  146.0090   68.1960  219.6430 C   0  0  0  0  0  0  0  0  0  0  0  0
  145.8380   69.2650  218.5660 C   0  0  0  0  0  0  0  0  0  0  0  0
  146.1860   70.6090  219.0590 N   0  0  0  0  0  0  0  0  0  0  0  0
  145.1990   71.6770  218.7750 C   0  0  1  0  0  0  0  0  0  0  0  0
  144.5050   72.0940  220.0810 C   0  0  0  0  0  0  0  0  0  0  0  0
  143.6050   73.2300  219.8410 N   0  0  0  0  0  0  0  0  0  0  0  0
  142.4780   73.4540  220.7160 C   0  0  0  0  0  0  0  0  0  0  0  0
  141.9160   74.6870  220.8120 N   0  0  0  0  0  0  0  0  0  0  0  0
  140.8430   74.9040  221.6190 C   0  0  0  0  0  0  0  0  0  0  0  0
  140.2350   76.2120  221.6920 N   0  0  0  0  0  0  0  0  0  0  0  0
  138.8300   76.4140  221.3180 C   0  0  0  0  0  0  0  0  0  0  0  0
  138.1330   77.2490  222.3850 C   0  0  0  0  0  0  0  0  0  0  0  0
  138.8990   78.5110  222.6690 C   0  0  0  0  0  0  0  0  0  0  0  0
  138.2250   79.6200  223.2080 C   0  0  0  0  0  0  0  0  0  0  0  0
  138.9250   80.7890  223.5160 C   0  0  0  0  0  0  0  0  0  0  0  0
  140.3010   80.8580  223.3000 C   0  0  0  0  0  0  0  0  0  0  0  0
  140.9850   79.7560  222.7800 C   0  0  0  0  0  0  0  0  0  0  0  0
  140.2970   78.5710  222.4730 C   0  0  0  0  0  0  0  0  0  0  0  0
  141.0780   77.3970  221.9230 C   0  0  0  0  0  0  0  0  0  0  0  0
  140.3320   73.8660  222.3330 N   0  0  0  0  0  0  0  0  0  0  0  0
  140.8810   72.6260  222.2460 C   0  0  0  0  0  0  0  0  0  0  0  0
  140.3160   71.5250  222.9820 N   0  0  0  0  0  0  0  0  0  0  0  0
  139.7370   70.3890  222.2400 C   0  0  0  0  0  0  0  0  0  0  0  0
  138.7770   69.5670  223.1040 C   0  0  0  0  0  0  0  0  0  0  0  0
  139.4290   69.2170  224.4080 C   0  0  0  0  0  0  0  0  0  0  0  0
  139.2350   67.9600  225.0010 C   0  0  0  0  0  0  0  0  0  0  0  0
  139.8330   67.6640  226.2300 C   0  0  0  0  0  0  0  0  0  0  0  0
  140.6120   68.6240  226.8790 C   0  0  0  0  0  0  0  0  0  0  0  0
  140.7910   69.8870  226.3040 C   0  0  0  0  0  0  0  0  0  0  0  0
  140.2080   70.1850  225.0610 C   0  0  0  0  0  0  0  0  0  0  0  0
  140.3560   71.5580  224.4550 C   0  0  0  0  0  0  0  0  0  0  0  0
  141.9520   72.4290  221.4350 N   0  0  0  0  0  0  0  0  0  0  0  0
  144.0710   74.3030  218.9540 C   0  0  0  0  0  0  0  0  0  0  0  0
  144.8000   73.7160  217.7410 C   0  0  0  0  0  0  0  0  0  0  0  0
  145.7970   72.8000  218.1440 O   0  0  0  0  0  0  0  0  0  0  0  0
  145.9345   68.6616  220.6368 H   0  0  0  0  0  0  0  0  0  0  0  0
  145.2210   67.4363  219.5340 H   0  0  0  0  0  0  0  0  0  0  0  0
  146.9947   67.7201  219.5340 H   0  0  0  0  0  0  0  0  0  0  0  0
  146.4908   69.0192  217.7154 H   0  0  0  0  0  0  0  0  0  0  0  0
  144.7797   69.2776  218.2663 H   0  0  0  0  0  0  0  0  0  0  0  0
  146.2900   70.5310  220.0990 H   0  0  0  0  0  0  0  0  0  0  0  0
  144.4526   71.2761  218.0735 H   0  0  0  0  0  0  0  0  0  0  0  0
  143.9225   71.2455  220.4691 H   0  0  0  0  0  0  0  0  0  0  0  0
  145.2701   72.3926  220.8127 H   0  0  0  0  0  0  0  0  0  0  0  0
  138.7798   76.9380  220.3521 H   0  0  0  0  0  0  0  0  0  0  0  0
  138.3302   75.4378  221.2332 H   0  0  0  0  0  0  0  0  0  0  0  0
  137.1244   77.5121  222.0336 H   0  0  0  0  0  0  0  0  0  0  0  0
  138.0772   76.6577  223.3109 H   0  0  0  0  0  0  0  0  0  0  0  0
  137.1411   79.5674  223.3882 H   0  0  0  0  0  0  0  0  0  0  0  0
  138.3899   81.6565  223.9296 H   0  0  0  0  0  0  0  0  0  0  0  0
  140.8488   81.7814  223.5393 H   0  0  0  0  0  0  0  0  0  0  0  0
  142.0701   79.8172  222.6099 H   0  0  0  0  0  0  0  0  0  0  0  0
  141.5355   77.6950  220.9681 H   0  0  0  0  0  0  0  0  0  0  0  0
  141.8377   77.1239  222.6702 H   0  0  0  0  0  0  0  0  0  0  0  0
  139.1874   70.7768  221.3696 H   0  0  0  0  0  0  0  0  0  0  0  0
  140.5620   69.7309  221.9298 H   0  0  0  0  0  0  0  0  0  0  0  0
  137.8678   70.1550  223.2980 H   0  0  0  0  0  0  0  0  0  0  0  0
  138.5167   68.6404  222.5714 H   0  0  0  0  0  0  0  0  0  0  0  0
  138.6114   67.2061  224.4982 H   0  0  0  0  0  0  0  0  0  0  0  0
  139.6895   66.6734  226.6861 H   0  0  0  0  0  0  0  0  0  0  0  0
  141.0854   68.3871  227.8432 H   0  0  0  0  0  0  0  0  0  0  0  0
  141.3894   70.6481  226.8262 H   0  0  0  0  0  0  0  0  0  0  0  0
  139.5357   72.1951  224.8172 H   0  0  0  0  0  0  0  0  0  0  0  0
  141.3361   71.9559  224.7568 H   0  0  0  0  0  0  0  0  0  0  0  0
  143.2063   74.8885  218.6085 H   0  0  0  0  0  0  0  0  0  0  0  0
  144.7671   74.9480  219.5102 H   0  0  0  0  0  0  0  0  0  0  0  0
  144.0720   73.1966  217.1005 H   0  0  0  0  0  0  0  0  0  0  0  0
  145.2810   74.5375  217.1899 H   0  0  0  0  0  0  0  0  0  0  0  0
  1  2  1  0
  2  3  1  0
  3  4  1  0
  4  5  1  0
  5  6  1  0
  6  7  1  0
  7  8  2  0
  8  9  1  0
  9 10  1  0
 10 11  1  0
 11 12  1  0
 12 13  1  0
 13 14  2  0
 14 15  1  0
 15 16  2  0
 16 17  1  0
 17 18  2  0
 18 19  1  0
  9 20  2  0
 20 21  1  0
 21 22  1  0
 22 23  1  0
 23 24  1  0
 24 25  1  0
 25 26  2  0
 26 27  1  0
 27 28  2  0
 28 29  1  0
 29 30  2  0
 30 31  1  0
 21 32  2  0
  6 33  1  0
 33 34  1  0
 34 35  1  0
 35  4  1  0
 32  7  1  0
 19 10  1  0
 31 22  1  0
 18 13  1  0
 30 25  1  0
  1 36  1  0
  1 37  1  0
  1 38  1  0
  2 39  1  0
  2 40  1  0
  3 41  1  0
  4 42  1  6
  5 43  1  0
  5 44  1  0
 11 45  1  0
 11 46  1  0
 12 47  1  0
 12 48  1  0
 14 49  1  0
 15 50  1  0
 16 51  1  0
 17 52  1  0
 19 53  1  0
 19 54  1  0
 23 55  1  0
 23 56  1  0
 24 57  1  0
 24 58  1  0
 26 59  1  0
 27 60  1  0
 28 61  1  0
 29 62  1  0
 31 63  1  0
 31 64  1  0
 33 65  1  0
 33 66  1  0
 34 67  1  0
 34 68  1  0
M  END
>  <meeko>  (16) 
{"free_energy": -10.2, "intermolecular_energy": -11.69, "internal_energy": -0.85, "cluster_size": 20, "cluster_id": 1, "rank_in_cluster": 6}

$$$$

     RDKit          3D

 68 73  0  0  0  0  0  0  0  0999 V2000
  145.6900   67.5110  219.7160 C   0  0  0  0  0  0  0  0  0  0  0  0
  144.8610   68.7440  219.3640 C   0  0  0  0  0  0  0  0  0  0  0  0
  145.7060   69.9190  219.0830 N   0  0  0  0  0  0  0  0  0  0  0  0
  144.9870   71.1960  218.8690 C   0  0  1  0  0  0  0  0  0  0  0  0
  144.2480   71.5890  220.1570 C   0  0  0  0  0  0  0  0  0  0  0  0
  143.6210   72.9090  220.0040 N   0  0  0  0  0  0  0  0  0  0  0  0
  142.4700   73.2580  220.8030 C   0  0  0  0  0  0  0  0  0  0  0  0
  141.8260   72.3110  221.5340 N   0  0  0  0  0  0  0  0  0  0  0  0
  140.7520   72.6330  222.3030 C   0  0  0  0  0  0  0  0  0  0  0  0
  140.0930   71.6250  223.0990 N   0  0  0  0  0  0  0  0  0  0  0  0
  138.9910   70.8280  222.5470 C   0  0  0  0  0  0  0  0  0  0  0  0
  139.2150   69.3550  222.8720 C   0  0  0  0  0  0  0  0  0  0  0  0
  139.4630   69.1580  224.3410 C   0  0  0  0  0  0  0  0  0  0  0  0
  139.1990   67.9060  224.9230 C   0  0  0  0  0  0  0  0  0  0  0  0
  139.4600   67.6890  226.2780 C   0  0  0  0  0  0  0  0  0  0  0  0
  139.9970   68.7120  227.0590 C   0  0  0  0  0  0  0  0  0  0  0  0
  140.2800   69.9560  226.4880 C   0  0  0  0  0  0  0  0  0  0  0  0
  140.0310   70.1860  225.1260 C   0  0  0  0  0  0  0  0  0  0  0  0
  140.3630   71.5440  224.5450 C   0  0  0  0  0  0  0  0  0  0  0  0
  140.3260   73.9240  222.3370 N   0  0  0  0  0  0  0  0  0  0  0  0
  140.9610   74.8840  221.6130 C   0  0  0  0  0  0  0  0  0  0  0  0
  140.5230   76.2540  221.6780 N   0  0  0  0  0  0  0  0  0  0  0  0
  139.1730   76.5520  222.1910 C   0  0  0  0  0  0  0  0  0  0  0  0
  138.6860   77.9370  221.7580 C   0  0  0  0  0  0  0  0  0  0  0  0
  139.7310   78.9690  222.0620 C   0  0  0  0  0  0  0  0  0  0  0  0
  139.3770   80.2430  222.5350 C   0  0  0  0  0  0  0  0  0  0  0  0
  140.3660   81.1980  222.7870 C   0  0  0  0  0  0  0  0  0  0  0  0
  141.7090   80.8930  222.5550 C   0  0  0  0  0  0  0  0  0  0  0  0
  142.0670   79.6320  222.0630 C   0  0  0  0  0  0  0  0  0  0  0  0
  141.0790   78.6620  221.8240 C   0  0  0  0  0  0  0  0  0  0  0  0
  141.4510   77.3180  221.2500 C   0  0  0  0  0  0  0  0  0  0  0  0
  142.0310   74.5430  220.8510 N   0  0  0  0  0  0  0  0  0  0  0  0
  144.3850   73.9600  219.3190 C   0  0  0  0  0  0  0  0  0  0  0  0
  145.1140   73.3830  218.1020 C   0  0  0  0  0  0  0  0  0  0  0  0
  145.8600   72.2360  218.4540 O   0  0  0  0  0  0  0  0  0  0  0  0
  145.7557   67.4133  220.8097 H   0  0  0  0  0  0  0  0  0  0  0  0
  145.2104   66.6146  219.2960 H   0  0  0  0  0  0  0  0  0  0  0  0
  146.7011   67.6168  219.2960 H   0  0  0  0  0  0  0  0  0  0  0  0
  144.2552   68.5216  218.4732 H   0  0  0  0  0  0  0  0  0  0  0  0
  144.2255   68.9831  220.2294 H   0  0  0  0  0  0  0  0  0  0  0  0
  146.3410   70.0370  219.9080 H   0  0  0  0  0  0  0  0  0  0  0  0
  144.2594   71.0478  218.0574 H   0  0  0  0  0  0  0  0  0  0  0  0
  143.4706   70.8409  220.3717 H   0  0  0  0  0  0  0  0  0  0  0  0
  144.9708   71.6306  220.9852 H   0  0  0  0  0  0  0  0  0  0  0  0
  138.0406   71.1606  222.9898 H   0  0  0  0  0  0  0  0  0  0  0  0
  138.9539   70.9607  221.4557 H   0  0  0  0  0  0  0  0  0  0  0  0
  138.3230   68.7823  222.5780 H   0  0  0  0  0  0  0  0  0  0  0  0
  140.0984   69.0049  222.3179 H   0  0  0  0  0  0  0  0  0  0  0  0
  138.7849   67.0931  224.3084 H   0  0  0  0  0  0  0  0  0  0  0  0
  139.2417   66.7100  226.7296 H   0  0  0  0  0  0  0  0  0  0  0  0
  140.1982   68.5395  228.1266 H   0  0  0  0  0  0  0  0  0  0  0  0
  140.7005   70.7599  227.1100 H   0  0  0  0  0  0  0  0  0  0  0  0
  139.7571   72.3045  225.0593 H   0  0  0  0  0  0  0  0  0  0  0  0
  141.4398   71.7141  224.6920 H   0  0  0  0  0  0  0  0  0  0  0  0
  138.4730   75.7943  221.8090 H   0  0  0  0  0  0  0  0  0  0  0  0
  139.2169   76.5363  223.2900 H   0  0  0  0  0  0  0  0  0  0  0  0
  138.4850   77.9303  220.6765 H   0  0  0  0  0  0  0  0  0  0  0  0
  137.7659   78.1834  222.3081 H   0  0  0  0  0  0  0  0  0  0  0  0
  138.3190   80.4899  222.7076 H   0  0  0  0  0  0  0  0  0  0  0  0
  140.0862   82.1910  223.1685 H   0  0  0  0  0  0  0  0  0  0  0  0
  142.4862   81.6442  222.7590 H   0  0  0  0  0  0  0  0  0  0  0  0
  143.1236   79.4003  221.8632 H   0  0  0  0  0  0  0  0  0  0  0  0
  141.4324   77.3841  220.1521 H   0  0  0  0  0  0  0  0  0  0  0  0
  142.4548   77.0593  221.6181 H   0  0  0  0  0  0  0  0  0  0  0  0
  143.6963   74.7511  218.9875 H   0  0  0  0  0  0  0  0  0  0  0  0
  145.1279   74.3736  220.0169 H   0  0  0  0  0  0  0  0  0  0  0  0
  144.3736   73.1092  217.3360 H   0  0  0  0  0  0  0  0  0  0  0  0
  145.8061   74.1453  217.7149 H   0  0  0  0  0  0  0  0  0  0  0  0
  1  2  1  0
  2  3  1  0
  3  4  1  0
  4  5  1  0
  5  6  1  0
  6  7  1  0
  7  8  2  0
  8  9  1  0
  9 10  1  0
 10 11  1  0
 11 12  1  0
 12 13  1  0
 13 14  2  0
 14 15  1  0
 15 16  2  0
 16 17  1  0
 17 18  2  0
 18 19  1  0
  9 20  2  0
 20 21  1  0
 21 22  1  0
 22 23  1  0
 23 24  1  0
 24 25  1  0
 25 26  2  0
 26 27  1  0
 27 28  2  0
 28 29  1  0
 29 30  2  0
 30 31  1  0
 21 32  2  0
  6 33  1  0
 33 34  1  0
 34 35  1  0
 35  4  1  0
 32  7  1  0
 19 10  1  0
 31 22  1  0
 18 13  1  0
 30 25  1  0
  1 36  1  0
  1 37  1  0
  1 38  1  0
  2 39  1  0
  2 40  1  0
  3 41  1  0
  4 42  1  6
  5 43  1  0
  5 44  1  0
 11 45  1  0
 11 46  1  0
 12 47  1  0
 12 48  1  0
 14 49  1  0
 15 50  1  0
 16 51  1  0
 17 52  1  0
 19 53  1  0
 19 54  1  0
 23 55  1  0
 23 56  1  0
 24 57  1  0
 24 58  1  0
 26 59  1  0
 27 60  1  0
 28 61  1  0
 29 62  1  0
 31 63  1  0
 31 64  1  0
 33 65  1  0
 33 66  1  0
 34 67  1  0
 34 68  1  0
M  END
>  <meeko>  (17) 
{"free_energy": -10.06, "intermolecular_energy": -11.56, "internal_energy": -0.89, "cluster_size": 20, "cluster_id": 1, "rank_in_cluster": 9}

$$$$

     RDKit          3D

 68 73  0  0  0  0  0  0  0  0999 V2000
  146.4290   73.0450  221.7520 C   0  0  0  0  0  0  0  0  0  0  0  0
  146.7030   73.8370  220.4760 C   0  0  0  0  0  0  0  0  0  0  0  0
  146.3410   73.0780  219.2650 N   0  0  0  0  0  0  0  0  0  0  0  0
  145.0460   72.3620  219.3130 C   0  0  1  0  0  0  0  0  0  0  0  0
  143.9830   73.2690  219.9540 C   0  0  0  0  0  0  0  0  0  0  0  0
  142.6650   72.6220  219.9090 N   0  0  0  0  0  0  0  0  0  0  0  0
  141.6530   72.9790  220.8750 C   0  0  0  0  0  0  0  0  0  0  0  0
  141.1450   72.0430  221.7180 N   0  0  0  0  0  0  0  0  0  0  0  0
  140.2040   72.3730  222.6420 C   0  0  0  0  0  0  0  0  0  0  0  0
  139.6920   71.3760  223.5530 N   0  0  0  0  0  0  0  0  0  0  0  0
  138.6560   70.4260  223.1290 C   0  0  0  0  0  0  0  0  0  0  0  0
  139.0500   69.0180  223.5600 C   0  0  0  0  0  0  0  0  0  0  0  0
  139.3840   68.9750  225.0260 C   0  0  0  0  0  0  0  0  0  0  0  0
  139.2800   67.7590  225.7220 C   0  0  0  0  0  0  0  0  0  0  0  0
  139.6240   67.6890  227.0730 C   0  0  0  0  0  0  0  0  0  0  0  0
  140.0840   68.8250  227.7380 C   0  0  0  0  0  0  0  0  0  0  0  0
  140.2080   70.0370  227.0520 C   0  0  0  0  0  0  0  0  0  0  0  0
  139.8750   70.1210  225.6910 C   0  0  0  0  0  0  0  0  0  0  0  0
  140.0350   71.4490  224.9830 C   0  0  0  0  0  0  0  0  0  0  0  0
  139.7750   73.6600  222.7190 N   0  0  0  0  0  0  0  0  0  0  0  0
  140.2760   74.6090  221.8850 C   0  0  0  0  0  0  0  0  0  0  0  0
  139.8390   75.9780  221.9920 N   0  0  0  0  0  0  0  0  0  0  0  0
  138.4140   76.2570  222.2530 C   0  0  0  0  0  0  0  0  0  0  0  0
  138.0290   77.6870  221.8660 C   0  0  0  0  0  0  0  0  0  0  0  0
  138.9950   78.6620  222.4690 C   0  0  0  0  0  0  0  0  0  0  0  0
  138.5580   79.8940  222.9820 C   0  0  0  0  0  0  0  0  0  0  0  0
  139.4800   80.7990  223.5170 C   0  0  0  0  0  0  0  0  0  0  0  0
  140.8420   80.4860  223.5290 C   0  0  0  0  0  0  0  0  0  0  0  0
  141.2860   79.2690  222.9990 C   0  0  0  0  0  0  0  0  0  0  0  0
  140.3630   78.3480  222.4770 C   0  0  0  0  0  0  0  0  0  0  0  0
  140.8370   77.0560  221.8610 C   0  0  0  0  0  0  0  0  0  0  0  0
  141.2140   74.2610  220.9670 N   0  0  0  0  0  0  0  0  0  0  0  0
  142.2890   71.9080  218.6810 C   0  0  0  0  0  0  0  0  0  0  0  0
  143.4810   71.1130  218.1390 C   0  0  0  0  0  0  0  0  0  0  0  0
  144.6280   71.9310  218.0260 O   0  0  0  0  0  0  0  0  0  0  0  0
  146.6466   73.6740  222.6278 H   0  0  0  0  0  0  0  0  0  0  0  0
  145.3727   72.7388  221.7738 H   0  0  0  0  0  0  0  0  0  0  0  0
  147.0703   72.1515  221.7738 H   0  0  0  0  0  0  0  0  0  0  0  0
  146.1146   74.7660  220.5017 H   0  0  0  0  0  0  0  0  0  0  0  0
  147.7815   74.0494  220.4335 H   0  0  0  0  0  0  0  0  0  0  0  0
  146.3020   73.7690  218.4780 H   0  0  0  0  0  0  0  0  0  0  0  0
  145.1765   71.4577  219.9256 H   0  0  0  0  0  0  0  0  0  0  0  0
  144.2560   73.4633  221.0017 H   0  0  0  0  0  0  0  0  0  0  0  0
  143.9360   74.2150  219.3946 H   0  0  0  0  0  0  0  0  0  0  0  0
  137.6972   70.6972  223.5949 H   0  0  0  0  0  0  0  0  0  0  0  0
  138.5543   70.4592  222.0342 H   0  0  0  0  0  0  0  0  0  0  0  0
  138.2118   68.3337  223.3621 H   0  0  0  0  0  0  0  0  0  0  0  0
  139.9399   68.7137  222.9894 H   0  0  0  0  0  0  0  0  0  0  0  0
  138.9258   66.8579  225.1999 H   0  0  0  0  0  0  0  0  0  0  0  0
  139.5320   66.7357  227.6141 H   0  0  0  0  0  0  0  0  0  0  0  0
  140.3497   68.7675  228.8039 H   0  0  0  0  0  0  0  0  0  0  0  0
  140.5689   70.9306  227.5824 H   0  0  0  0  0  0  0  0  0  0  0  0
  139.3767   72.1865  225.4655 H   0  0  0  0  0  0  0  0  0  0  0  0
  141.0936   71.7389  225.0562 H   0  0  0  0  0  0  0  0  0  0  0  0
  137.8018   75.5541  221.6690 H   0  0  0  0  0  0  0  0  0  0  0  0
  138.2367   76.1378  223.3321 H   0  0  0  0  0  0  0  0  0  0  0  0
  138.0490   77.7853  220.7706 H   0  0  0  0  0  0  0  0  0  0  0  0
  137.0182   77.9021  222.2428 H   0  0  0  0  0  0  0  0  0  0  0  0
  137.4878   80.1477  222.9629 H   0  0  0  0  0  0  0  0  0  0  0  0
  139.1330   81.7582  223.9288 H   0  0  0  0  0  0  0  0  0  0  0  0
  141.5655   81.1965  223.9553 H   0  0  0  0  0  0  0  0  0  0  0  0
  142.3604   79.0333  222.9913 H   0  0  0  0  0  0  0  0  0  0  0  0
  141.0376   77.2253  220.7928 H   0  0  0  0  0  0  0  0  0  0  0  0
  141.7465   76.7412  222.3937 H   0  0  0  0  0  0  0  0  0  0  0  0
  141.4627   71.2164  218.9024 H   0  0  0  0  0  0  0  0  0  0  0  0
  141.9754   72.6415  217.9236 H   0  0  0  0  0  0  0  0  0  0  0  0
  143.6993   70.2806  218.8242 H   0  0  0  0  0  0  0  0  0  0  0  0
  143.2226   70.7329  217.1396 H   0  0  0  0  0  0  0  0  0  0  0  0
  1  2  1  0
  2  3  1  0
  3  4  1  0
  4  5  1  0
  5  6  1  0
  6  7  1  0
  7  8  2  0
  8  9  1  0
  9 10  1  0
 10 11  1  0
 11 12  1  0
 12 13  1  0
 13 14  2  0
 14 15  1  0
 15 16  2  0
 16 17  1  0
 17 18  2  0
 18 19  1  0
  9 20  2  0
 20 21  1  0
 21 22  1  0
 22 23  1  0
 23 24  1  0
 24 25  1  0
 25 26  2  0
 26 27  1  0
 27 28  2  0
 28 29  1  0
 29 30  2  0
 30 31  1  0
 21 32  2  0
  6 33  1  0
 33 34  1  0
 34 35  1  0
 35  4  1  0
 32  7  1  0
 19 10  1  0
 31 22  1  0
 18 13  1  0
 30 25  1  0
  1 36  1  0
  1 37  1  0
  1 38  1  0
  2 39  1  0
  2 40  1  0
  3 41  1  0
  4 42  1  1
  5 43  1  0
  5 44  1  0
 11 45  1  0
 11 46  1  0
 12 47  1  0
 12 48  1  0
 14 49  1  0
 15 50  1  0
 16 51  1  0
 17 52  1  0
 19 53  1  0
 19 54  1  0
 23 55  1  0
 23 56  1  0
 24 57  1  0
 24 58  1  0
 26 59  1  0
 27 60  1  0
 28 61  1  0
 29 62  1  0
 31 63  1  0
 31 64  1  0
 33 65  1  0
 33 66  1  0
 34 67  1  0
 34 68  1  0
M  END
>  <meeko>  (18) 
{"free_energy": -10.38, "intermolecular_energy": -11.87, "internal_energy": -0.82, "cluster_size": 20, "cluster_id": 1, "rank_in_cluster": 1}

$$$$

     RDKit          3D

 68 73  0  0  0  0  0  0  0  0999 V2000
  145.2850   68.5470  219.3280 C   0  0  0  0  0  0  0  0  0  0  0  0
  146.3710   69.5640  218.9830 C   0  0  0  0  0  0  0  0  0  0  0  0
  145.9460   70.9460  219.2660 N   0  0  0  0  0  0  0  0  0  0  0  0
  144.5350   71.2660  218.9510 C   0  0  1  0  0  0  0  0  0  0  0  0
  143.9590   72.1790  220.0440 C   0  0  0  0  0  0  0  0  0  0  0  0
  142.5970   72.6010  219.6930 N   0  0  0  0  0  0  0  0  0  0  0  0
  141.6690   72.9820  220.7320 C   0  0  0  0  0  0  0  0  0  0  0  0
  141.2000   72.0570  221.6090 N   0  0  0  0  0  0  0  0  0  0  0  0
  140.3390   72.4090  222.6010 C   0  0  0  0  0  0  0  0  0  0  0  0
  139.8690   71.4240  223.5460 N   0  0  0  0  0  0  0  0  0  0  0  0
  138.7920   70.4910  223.1930 C   0  0  0  0  0  0  0  0  0  0  0  0
  139.1870   69.0780  223.6030 C   0  0  0  0  0  0  0  0  0  0  0  0
  139.6140   69.0320  225.0430 C   0  0  0  0  0  0  0  0  0  0  0  0
  139.5330   67.8190  225.7490 C   0  0  0  0  0  0  0  0  0  0  0  0
  139.9620   67.7460  227.0760 C   0  0  0  0  0  0  0  0  0  0  0  0
  140.4840   68.8750  227.7060 C   0  0  0  0  0  0  0  0  0  0  0  0
  140.5850   70.0830  227.0090 C   0  0  0  0  0  0  0  0  0  0  0  0
  140.1660   70.1700  225.6720 C   0  0  0  0  0  0  0  0  0  0  0  0
  140.3040   71.4940  224.9510 C   0  0  0  0  0  0  0  0  0  0  0  0
  139.9520   73.7070  222.7110 N   0  0  0  0  0  0  0  0  0  0  0  0
  140.4150   74.6460  221.8430 C   0  0  0  0  0  0  0  0  0  0  0  0
  140.0240   76.0250  221.9840 N   0  0  0  0  0  0  0  0  0  0  0  0
  138.6360   76.3410  222.3690 C   0  0  0  0  0  0  0  0  0  0  0  0
  138.2550   77.7800  222.0140 C   0  0  0  0  0  0  0  0  0  0  0  0
  139.2950   78.7310  222.5260 C   0  0  0  0  0  0  0  0  0  0  0  0
  138.9370   79.9740  223.0710 C   0  0  0  0  0  0  0  0  0  0  0  0
  139.9260   80.8550  223.5190 C   0  0  0  0  0  0  0  0  0  0  0  0
  141.2750   80.5080  223.4100 C   0  0  0  0  0  0  0  0  0  0  0  0
  141.6390   79.2790  222.8480 C   0  0  0  0  0  0  0  0  0  0  0  0
  140.6500   78.3820  222.4120 C   0  0  0  0  0  0  0  0  0  0  0  0
  141.0340   77.0770  221.7610 C   0  0  0  0  0  0  0  0  0  0  0  0
  141.2720   74.2750  220.8580 N   0  0  0  0  0  0  0  0  0  0  0  0
  142.3280   72.9700  218.2970 C   0  0  0  0  0  0  0  0  0  0  0  0
  143.0310   72.0000  217.3420 C   0  0  0  0  0  0  0  0  0  0  0  0
  144.3980   71.8670  217.6710 O   0  0  0  0  0  0  0  0  0  0  0  0
  145.1953   68.4630  220.4211 H   0  0  0  0  0  0  0  0  0  0  0  0
  144.3249   68.8783  218.9057 H   0  0  0  0  0  0  0  0  0  0  0  0
  145.5527   67.5672  218.9057 H   0  0  0  0  0  0  0  0  0  0  0  0
  147.2686   69.3400  219.5781 H   0  0  0  0  0  0  0  0  0  0  0  0
  146.5772   69.4870  217.9053 H   0  0  0  0  0  0  0  0  0  0  0  0
  146.0930   71.1020  220.2920 H   0  0  0  0  0  0  0  0  0  0  0  0
  143.9686   70.3235  218.9237 H   0  0  0  0  0  0  0  0  0  0  0  0
  143.9344   71.6316  220.9978 H   0  0  0  0  0  0  0  0  0  0  0  0
  144.5963   73.0708  220.1365 H   0  0  0  0  0  0  0  0  0  0  0  0
  137.8698   70.7805  223.7181 H   0  0  0  0  0  0  0  0  0  0  0  0
  138.6219   70.5227  222.1067 H   0  0  0  0  0  0  0  0  0  0  0  0
  138.3253   68.4089  223.4622 H   0  0  0  0  0  0  0  0  0  0  0  0
  140.0326   68.7562  222.9774 H   0  0  0  0  0  0  0  0  0  0  0  0
  139.1299   66.9233  225.2539 H   0  0  0  0  0  0  0  0  0  0  0  0
  139.8879   66.7959  227.6253 H   0  0  0  0  0  0  0  0  0  0  0  0
  140.8168   68.8153  228.7527 H   0  0  0  0  0  0  0  0  0  0  0  0
  140.9956   70.9711  227.5117 H   0  0  0  0  0  0  0  0  0  0  0  0
  139.6911   72.2441  225.4722 H   0  0  0  0  0  0  0  0  0  0  0  0
  141.3700   71.7653  224.9556 H   0  0  0  0  0  0  0  0  0  0  0  0
  137.9566   75.6540  221.8432 H   0  0  0  0  0  0  0  0  0  0  0  0
  138.5521   76.2270  223.4599 H   0  0  0  0  0  0  0  0  0  0  0  0
  138.1801   77.8772  220.9209 H   0  0  0  0  0  0  0  0  0  0  0  0
  137.2876   78.0208  222.4790 H   0  0  0  0  0  0  0  0  0  0  0  0
  137.8763   80.2556  223.1458 H   0  0  0  0  0  0  0  0  0  0  0  0
  139.6416   81.8227  223.9579 H   0  0  0  0  0  0  0  0  0  0  0  0
  142.0514   81.2011  223.7661 H   0  0  0  0  0  0  0  0  0  0  0  0
  142.7021   79.0149  222.7475 H   0  0  0  0  0  0  0  0  0  0  0  0
  141.1432   77.2396  220.6786 H   0  0  0  0  0  0  0  0  0  0  0  0
  141.9787   76.7395  222.2122 H   0  0  0  0  0  0  0  0  0  0  0  0
  141.2436   72.9349  218.1155 H   0  0  0  0  0  0  0  0  0  0  0  0
  142.7092   73.9861  218.1172 H   0  0  0  0  0  0  0  0  0  0  0  0
  142.5472   71.0144  217.4099 H   0  0  0  0  0  0  0  0  0  0  0  0
  142.9539   72.3977  216.3193 H   0  0  0  0  0  0  0  0  0  0  0  0
  1  2  1  0
  2  3  1  0
  3  4  1  0
  4  5  1  0
  5  6  1  0
  6  7  1  0
  7  8  2  0
  8  9  1  0
  9 10  1  0
 10 11  1  0
 11 12  1  0
 12 13  1  0
 13 14  2  0
 14 15  1  0
 15 16  2  0
 16 17  1  0
 17 18  2  0
 18 19  1  0
  9 20  2  0
 20 21  1  0
 21 22  1  0
 22 23  1  0
 23 24  1  0
 24 25  1  0
 25 26  2  0
 26 27  1  0
 27 28  2  0
 28 29  1  0
 29 30  2  0
 30 31  1  0
 21 32  2  0
  6 33  1  0
 33 34  1  0
 34 35  1  0
 35  4  1  0
 32  7  1  0
 19 10  1  0
 31 22  1  0
 18 13  1  0
 30 25  1  0
  1 36  1  0
  1 37  1  0
  1 38  1  0
  2 39  1  0
  2 40  1  0
  3 41  1  0
  4 42  1  6
  5 43  1  0
  5 44  1  0
 11 45  1  0
 11 46  1  0
 12 47  1  0
 12 48  1  0
 14 49  1  0
 15 50  1  0
 16 51  1  0
 17 52  1  0
 19 53  1  0
 19 54  1  0
 23 55  1  0
 23 56  1  0
 24 57  1  0
 24 58  1  0
 26 59  1  0
 27 60  1  0
 28 61  1  0
 29 62  1  0
 31 63  1  0
 31 64  1  0
 33 65  1  0
 33 66  1  0
 34 67  1  0
 34 68  1  0
M  END
>  <meeko>  (19) 
{"free_energy": -9.86, "intermolecular_energy": -11.35, "internal_energy": -0.89, "cluster_size": 20, "cluster_id": 1, "rank_in_cluster": 14}

$$$$

     RDKit          3D

 68 73  0  0  0  0  0  0  0  0999 V2000
  145.5510   67.7880  219.3380 C   0  0  0  0  0  0  0  0  0  0  0  0
  145.9990   69.1650  218.8530 C   0  0  0  0  0  0  0  0  0  0  0  0
  144.9620   69.8350  218.0480 N   0  0  0  0  0  0  0  0  0  0  0  0
  144.6910   71.2490  218.3930 C   0  0  1  0  0  0  0  0  0  0  0  0
  143.8120   71.3110  219.6520 C   0  0  0  0  0  0  0  0  0  0  0  0
  143.6260   72.7040  220.0780 N   0  0  0  0  0  0  0  0  0  0  0  0
  142.4640   73.0730  220.8510 C   0  0  0  0  0  0  0  0  0  0  0  0
  141.8370   72.1550  221.6330 N   0  0  0  0  0  0  0  0  0  0  0  0
  140.7520   72.4970  222.3780 C   0  0  0  0  0  0  0  0  0  0  0  0
  140.1110   71.5220  223.2280 N   0  0  0  0  0  0  0  0  0  0  0  0
  138.9640   70.7400  222.7490 C   0  0  0  0  0  0  0  0  0  0  0  0
  139.1700   69.2700  223.0930 C   0  0  0  0  0  0  0  0  0  0  0  0
  139.4890   69.0950  224.5520 C   0  0  0  0  0  0  0  0  0  0  0  0
  139.2250   67.8630  225.1730 C   0  0  0  0  0  0  0  0  0  0  0  0
  139.5500   67.6670  226.5170 C   0  0  0  0  0  0  0  0  0  0  0  0
  140.1500   68.6920  227.2490 C   0  0  0  0  0  0  0  0  0  0  0  0
  140.4320   69.9170  226.6380 C   0  0  0  0  0  0  0  0  0  0  0  0
  140.1190   70.1250  225.2850 C   0  0  0  0  0  0  0  0  0  0  0  0
  140.4530   71.4630  224.6590 C   0  0  0  0  0  0  0  0  0  0  0  0
  140.2990   73.7780  222.3370 N   0  0  0  0  0  0  0  0  0  0  0  0
  140.9160   74.7080  221.5620 C   0  0  0  0  0  0  0  0  0  0  0  0
  140.4480   76.0710  221.5470 N   0  0  0  0  0  0  0  0  0  0  0  0
  139.0400   76.3490  221.8870 C   0  0  0  0  0  0  0  0  0  0  0  0
  138.5840   77.7160  221.3720 C   0  0  0  0  0  0  0  0  0  0  0  0
  139.5640   78.7740  221.7810 C   0  0  0  0  0  0  0  0  0  0  0  0
  139.1320   80.0480  222.1830 C   0  0  0  0  0  0  0  0  0  0  0  0
  140.0650   81.0280  222.5360 C   0  0  0  0  0  0  0  0  0  0  0  0
  141.4320   80.7470  222.4750 C   0  0  0  0  0  0  0  0  0  0  0  0
  141.8700   79.4860  222.0540 C   0  0  0  0  0  0  0  0  0  0  0  0
  140.9370   78.4920  221.7150 C   0  0  0  0  0  0  0  0  0  0  0  0
  141.4010   77.1470  221.2150 C   0  0  0  0  0  0  0  0  0  0  0  0
  141.9970   74.3490  220.8250 N   0  0  0  0  0  0  0  0  0  0  0  0
  144.7860   73.6040  220.0220 C   0  0  0  0  0  0  0  0  0  0  0  0
  145.5880   73.3620  218.7390 C   0  0  0  0  0  0  0  0  0  0  0  0
  145.8880   71.9910  218.5790 O   0  0  0  0  0  0  0  0  0  0  0  0
  145.5453   67.7706  220.4378 H   0  0  0  0  0  0  0  0  0  0  0  0
  144.5384   67.5786  218.9628 H   0  0  0  0  0  0  0  0  0  0  0  0
  146.2466   67.0229  218.9628 H   0  0  0  0  0  0  0  0  0  0  0  0
  146.2286   69.7914  219.7276 H   0  0  0  0  0  0  0  0  0  0  0  0
  146.8852   69.0274  218.2161 H   0  0  0  0  0  0  0  0  0  0  0  0
  145.2840   69.7990  217.0520 H   0  0  0  0  0  0  0  0  0  0  0  0
  144.1572   71.7107  217.5492 H   0  0  0  0  0  0  0  0  0  0  0  0
  142.8308   70.8653  219.4314 H   0  0  0  0  0  0  0  0  0  0  0  0
  144.3070   70.7534  220.4608 H   0  0  0  0  0  0  0  0  0  0  0  0
  138.0451   71.1040  223.2319 H   0  0  0  0  0  0  0  0  0  0  0  0
  138.8750   70.8516  221.6583 H   0  0  0  0  0  0  0  0  0  0  0  0
  138.2509   68.7136  222.8570 H   0  0  0  0  0  0  0  0  0  0  0  0
  140.0157   68.8881  222.5022 H   0  0  0  0  0  0  0  0  0  0  0  0
  138.7601   67.0487  224.5979 H   0  0  0  0  0  0  0  0  0  0  0  0
  139.3325   66.7026  226.9994 H   0  0  0  0  0  0  0  0  0  0  0  0
  140.4014   68.5358  228.3084 H   0  0  0  0  0  0  0  0  0  0  0  0
  140.9020   70.7231  227.2205 H   0  0  0  0  0  0  0  0  0  0  0  0
  139.8927   72.2484  225.1874 H   0  0  0  0  0  0  0  0  0  0  0  0
  141.5397   71.6091  224.7472 H   0  0  0  0  0  0  0  0  0  0  0  0
  138.4059   75.5707  221.4373 H   0  0  0  0  0  0  0  0  0  0  0  0
  138.9499   76.3521  222.9833 H   0  0  0  0  0  0  0  0  0  0  0  0
  138.5167   77.6873  220.2744 H   0  0  0  0  0  0  0  0  0  0  0  0
  137.5992   77.9522  221.8015 H   0  0  0  0  0  0  0  0  0  0  0  0
  138.0565   80.2759  222.2204 H   0  0  0  0  0  0  0  0  0  0  0  0
  139.7222   82.0211  222.8620 H   0  0  0  0  0  0  0  0  0  0  0  0
  142.1647   81.5172  222.7580 H   0  0  0  0  0  0  0  0  0  0  0  0
  142.9472   79.2729  221.9884 H   0  0  0  0  0  0  0  0  0  0  0  0
  141.5145   77.1951  220.1219 H   0  0  0  0  0  0  0  0  0  0  0  0
  142.3574   76.9151  221.7065 H   0  0  0  0  0  0  0  0  0  0  0  0
  144.4368   74.6469  220.0399 H   0  0  0  0  0  0  0  0  0  0  0  0
  145.4328   73.4071  220.8897 H   0  0  0  0  0  0  0  0  0  0  0  0
  144.9976   73.7038  217.8761 H   0  0  0  0  0  0  0  0  0  0  0  0
  146.5328   73.9213  218.8063 H   0  0  0  0  0  0  0  0  0  0  0  0
  1  2  1  0
  2  3  1  0
  3  4  1  0
  4  5  1  0
  5  6  1  0
  6  7  1  0
  7  8  2  0
  8  9  1  0
  9 10  1  0
 10 11  1  0
 11 12  1  0
 12 13  1  0
 13 14  2  0
 14 15  1  0
 15 16  2  0
 16 17  1  0
 17 18  2  0
 18 19  1  0
  9 20  2  0
 20 21  1  0
 21 22  1  0
 22 23  1  0
 23 24  1  0
 24 25  1  0
 25 26  2  0
 26 27  1  0
 27 28  2  0
 28 29  1  0
 29 30  2  0
 30 31  1  0
 21 32  2  0
  6 33  1  0
 33 34  1  0
 34 35  1  0
 35  4  1  0
 32  7  1  0
 19 10  1  0
 31 22  1  0
 18 13  1  0
 30 25  1  0
  1 36  1  0
  1 37  1  0
  1 38  1  0
  2 39  1  0
  2 40  1  0
  3 41  1  0
  4 42  1  6
  5 43  1  0
  5 44  1  0
 11 45  1  0
 11 46  1  0
 12 47  1  0
 12 48  1  0
 14 49  1  0
 15 50  1  0
 16 51  1  0
 17 52  1  0
 19 53  1  0
 19 54  1  0
 23 55  1  0
 23 56  1  0
 24 57  1  0
 24 58  1  0
 26 59  1  0
 27 60  1  0
 28 61  1  0
 29 62  1  0
 31 63  1  0
 31 64  1  0
 33 65  1  0
 33 66  1  0
 34 67  1  0
 34 68  1  0
M  END
>  <meeko>  (20) 
{"free_energy": -9.77, "intermolecular_energy": -11.26, "internal_energy": -0.89, "cluster_size": 20, "cluster_id": 1, "rank_in_cluster": 16}

$$$$
