
     RDKit          3D

 43 46  0  0  0  0  0  0  0  0999 V2000
  140.4890   72.2340  223.9600 O   0  0  0  0  0  0  0  0  0  0  0  0
  139.7960   71.2710  224.3940 C   0  0  0  0  0  0  0  0  0  0  0  0
  139.9920   70.8170  225.7110 C   0  0  0  0  0  0  0  0  0  0  0  0
  140.9260   71.4100  226.5820 C   0  0  0  0  0  0  0  0  0  0  0  0
  141.0710   70.9320  227.8900 C   0  0  0  0  0  0  0  0  0  0  0  0
  140.2890   69.8620  228.3370 C   0  0  0  0  0  0  0  0  0  0  0  0
  139.3650   69.2620  227.4760 C   0  0  0  0  0  0  0  0  0  0  0  0
  139.2160   69.7360  226.1670 C   0  0  0  0  0  0  0  0  0  0  0  0
  138.3230   69.1540  225.3340 N   0  0  0  0  0  0  0  0  0  0  0  0
  138.1390   69.5960  224.0630 C   0  0  0  0  0  0  0  0  0  0  0  0
  137.1530   68.8920  223.2270 C   0  0  0  0  0  0  0  0  0  0  0  0
  135.8740   69.2870  223.2190 C   0  0  0  0  0  0  0  0  0  0  0  0
  135.1250   69.6600  224.4480 C   0  0  0  0  0  0  0  0  0  0  0  0
  134.9680   71.0220  224.7530 C   0  0  0  0  0  0  0  0  0  0  0  0
  134.3300   71.4090  225.9320 C   0  0  0  0  0  0  0  0  0  0  0  0
  133.8300   70.4300  226.7930 C   0  0  0  0  0  0  0  0  0  0  0  0
  133.9620   69.1120  226.4770 N   0  0  0  0  0  0  0  0  0  0  0  0
  134.5860   68.7090  225.3390 C   0  0  0  0  0  0  0  0  0  0  0  0
  138.8590   70.6710  223.5860 N   0  0  0  0  0  0  0  0  0  0  0  0
  138.6240   71.1800  222.2150 C   0  0  0  0  0  0  0  0  0  0  0  0
  138.0640   72.5830  222.2370 C   0  0  0  0  0  0  0  0  0  0  0  0
  136.7310   72.8110  222.6350 C   0  0  0  0  0  0  0  0  0  0  0  0
  136.2100   74.1080  222.6510 C   0  0  0  0  0  0  0  0  0  0  0  0
  137.0200   75.1930  222.3040 C   0  0  0  0  0  0  0  0  0  0  0  0
  138.3480   74.9800  221.9210 C   0  0  0  0  0  0  0  0  0  0  0  0
  138.8700   73.6820  221.8880 C   0  0  0  0  0  0  0  0  0  0  0  0
  141.5434   72.2512  226.2339 H   0  0  0  0  0  0  0  0  0  0  0  0
  141.8013   71.3988  228.5673 H   0  0  0  0  0  0  0  0  0  0  0  0
  140.4010   69.4921  229.3669 H   0  0  0  0  0  0  0  0  0  0  0  0
  138.7547   68.4170  227.8273 H   0  0  0  0  0  0  0  0  0  0  0  0
  137.4679   68.0394  222.6074 H   0  0  0  0  0  0  0  0  0  0  0  0
  135.3500   69.3383  222.2532 H   0  0  0  0  0  0  0  0  0  0  0  0
  135.3494   71.7863  224.0599 H   0  0  0  0  0  0  0  0  0  0  0  0
  134.2220   72.4750  226.1808 H   0  0  0  0  0  0  0  0  0  0  0  0
  133.3291   70.7236  227.7273 H   0  0  0  0  0  0  0  0  0  0  0  0
  134.6710   67.6361  225.1118 H   0  0  0  0  0  0  0  0  0  0  0  0
  139.5773   71.1836  221.6661 H   0  0  0  0  0  0  0  0  0  0  0  0
  137.8926   70.5227  221.7220 H   0  0  0  0  0  0  0  0  0  0  0  0
  136.0972   71.9634  222.9347 H   0  0  0  0  0  0  0  0  0  0  0  0
  135.1611   74.2750  222.9371 H   0  0  0  0  0  0  0  0  0  0  0  0
  136.6128   76.2145  222.3322 H   0  0  0  0  0  0  0  0  0  0  0  0
  138.9835   75.8344  221.6452 H   0  0  0  0  0  0  0  0  0  0  0  0
  139.9158   73.5202  221.5877 H   0  0  0  0  0  0  0  0  0  0  0  0
  1  2  2  0
  2  3  1  0
  3  4  2  0
  4  5  1  0
  5  6  2  0
  6  7  1  0
  7  8  2  0
  8  9  1  0
  9 10  2  0
 10 11  1  0
 11 12  2  0
 12 13  1  0
 13 14  2  0
 14 15  1  0
 15 16  2  0
 16 17  1  0
 17 18  2  0
 10 19  1  0
 19 20  1  0
 20 21  1  0
 21 22  2  0
 22 23  1  0
 23 24  2  0
 24 25  1  0
 25 26  2  0
 19  2  1  0
 26 21  1  0
  8  3  1  0
 18 13  1  0
  4 27  1  0
  5 28  1  0
  6 29  1  0
  7 30  1  0
 11 31  1  0
 12 32  1  0
 14 33  1  0
 15 34  1  0
 16 35  1  0
 18 36  1  0
 20 37  1  0
 20 38  1  0
 22 39  1  0
 23 40  1  0
 24 41  1  0
 25 42  1  0
 26 43  1  0
M  END
>  <meeko>  (1) 
{"free_energy": -6.62, "intermolecular_energy": -8.11, "internal_energy": -1.7, "cluster_size": 4, "cluster_id": 3, "rank_in_cluster": 4}

$$$$

     RDKit          3D

 43 46  0  0  0  0  0  0  0  0999 V2000
  138.3880   75.7280  221.9460 O   0  0  0  0  0  0  0  0  0  0  0  0
  139.4780   75.2030  221.5800 C   0  0  0  0  0  0  0  0  0  0  0  0
  139.6800   73.8250  221.7710 C   0  0  0  0  0  0  0  0  0  0  0  0
  138.6990   72.9910  222.3420 C   0  0  0  0  0  0  0  0  0  0  0  0
  138.9430   71.6210  222.4940 C   0  0  0  0  0  0  0  0  0  0  0  0
  140.1610   71.0740  222.0800 C   0  0  0  0  0  0  0  0  0  0  0  0
  141.1440   71.8960  221.5200 C   0  0  0  0  0  0  0  0  0  0  0  0
  140.9060   73.2670  221.3650 C   0  0  0  0  0  0  0  0  0  0  0  0
  141.8570   74.0620  220.8240 N   0  0  0  0  0  0  0  0  0  0  0  0
  141.6570   75.3930  220.6430 C   0  0  0  0  0  0  0  0  0  0  0  0
  142.7540   76.1790  220.0580 C   0  0  0  0  0  0  0  0  0  0  0  0
  143.6030   75.6100  219.1930 C   0  0  0  0  0  0  0  0  0  0  0  0
  144.4570   74.4420  219.5340 C   0  0  0  0  0  0  0  0  0  0  0  0
  145.0020   74.3620  220.8260 C   0  0  0  0  0  0  0  0  0  0  0  0
  145.8620   73.3170  221.1630 C   0  0  0  0  0  0  0  0  0  0  0  0
  146.1560   72.3390  220.2100 C   0  0  0  0  0  0  0  0  0  0  0  0
  145.6030   72.4080  218.9680 N   0  0  0  0  0  0  0  0  0  0  0  0
  144.7680   73.4210  218.6130 C   0  0  0  0  0  0  0  0  0  0  0  0
  140.4590   75.9750  221.0010 N   0  0  0  0  0  0  0  0  0  0  0  0
  140.2250   77.4170  220.7610 C   0  0  0  0  0  0  0  0  0  0  0  0
  141.0190   78.2710  221.7230 C   0  0  0  0  0  0  0  0  0  0  0  0
  141.6730   79.4330  221.2680 C   0  0  0  0  0  0  0  0  0  0  0  0
  142.4120   80.2210  222.1560 C   0  0  0  0  0  0  0  0  0  0  0  0
  142.4780   79.8770  223.5100 C   0  0  0  0  0  0  0  0  0  0  0  0
  141.8220   78.7340  223.9730 C   0  0  0  0  0  0  0  0  0  0  0  0
  141.0930   77.9330  223.0860 C   0  0  0  0  0  0  0  0  0  0  0  0
  137.7391   73.4171  222.6692 H   0  0  0  0  0  0  0  0  0  0  0  0
  138.1742   70.9731  222.9404 H   0  0  0  0  0  0  0  0  0  0  0  0
  140.3464   69.9958  222.1948 H   0  0  0  0  0  0  0  0  0  0  0  0
  142.1046   71.4653  221.2011 H   0  0  0  0  0  0  0  0  0  0  0  0
  142.8773   77.2372  220.3319 H   0  0  0  0  0  0  0  0  0  0  0  0
  143.6721   76.0283  218.1780 H   0  0  0  0  0  0  0  0  0  0  0  0
  144.7495   75.1268  221.5753 H   0  0  0  0  0  0  0  0  0  0  0  0
  146.3042   73.2635  222.1688 H   0  0  0  0  0  0  0  0  0  0  0  0
  146.8354   71.5118  220.4635 H   0  0  0  0  0  0  0  0  0  0  0  0
  144.3334   73.4438  217.6028 H   0  0  0  0  0  0  0  0  0  0  0  0
  140.5263   77.6623  219.7319 H   0  0  0  0  0  0  0  0  0  0  0  0
  139.1557   77.6249  220.9141 H   0  0  0  0  0  0  0  0  0  0  0  0
  141.6020   79.7218  220.2090 H   0  0  0  0  0  0  0  0  0  0  0  0
  142.9420   81.1124  221.7892 H   0  0  0  0  0  0  0  0  0  0  0  0
  143.0465   80.5065  224.2103 H   0  0  0  0  0  0  0  0  0  0  0  0
  141.8784   78.4625  225.0375 H   0  0  0  0  0  0  0  0  0  0  0  0
  140.5760   77.0356  223.4567 H   0  0  0  0  0  0  0  0  0  0  0  0
  1  2  2  0
  2  3  1  0
  3  4  2  0
  4  5  1  0
  5  6  2  0
  6  7  1  0
  7  8  2  0
  8  9  1  0
  9 10  2  0
 10 11  1  0
 11 12  2  0
 12 13  1  0
 13 14  2  0
 14 15  1  0
 15 16  2  0
 16 17  1  0
 17 18  2  0
 10 19  1  0
 19 20  1  0
 20 21  1  0
 21 22  2  0
 22 23  1  0
 23 24  2  0
 24 25  1  0
 25 26  2  0
 19  2  1  0
 26 21  1  0
  8  3  1  0
 18 13  1  0
  4 27  1  0
  5 28  1  0
  6 29  1  0
  7 30  1  0
 11 31  1  0
 12 32  1  0
 14 33  1  0
 15 34  1  0
 16 35  1  0
 18 36  1  0
 20 37  1  0
 20 38  1  0
 22 39  1  0
 23 40  1  0
 24 41  1  0
 25 42  1  0
 26 43  1  0
M  END
>  <meeko>  (2) 
{"free_energy": -7.16, "intermolecular_energy": -8.65, "internal_energy": -1.33, "cluster_size": 7, "cluster_id": 2, "rank_in_cluster": 3}

$$$$

     RDKit          3D

 43 46  0  0  0  0  0  0  0  0999 V2000
  139.1970   67.5180  225.6390 O   0  0  0  0  0  0  0  0  0  0  0  0
  139.5010   68.6730  225.2270 C   0  0  0  0  0  0  0  0  0  0  0  0
  140.0310   69.6110  226.1310 C   0  0  0  0  0  0  0  0  0  0  0  0
  140.2570   69.3070  227.4870 C   0  0  0  0  0  0  0  0  0  0  0  0
  140.8020   70.2720  228.3420 C   0  0  0  0  0  0  0  0  0  0  0  0
  141.1250   71.5420  227.8540 C   0  0  0  0  0  0  0  0  0  0  0  0
  140.8960   71.8550  226.5110 C   0  0  0  0  0  0  0  0  0  0  0  0
  140.3510   70.8940  225.6510 C   0  0  0  0  0  0  0  0  0  0  0  0
  140.1280   71.1970  224.3510 N   0  0  0  0  0  0  0  0  0  0  0  0
  139.6150   70.2870  223.4830 C   0  0  0  0  0  0  0  0  0  0  0  0
  139.3970   70.7120  222.0910 C   0  0  0  0  0  0  0  0  0  0  0  0
  140.3400   71.4110  221.4460 C   0  0  0  0  0  0  0  0  0  0  0  0
  140.4800   72.8860  221.5500 C   0  0  0  0  0  0  0  0  0  0  0  0
  141.6220   73.4950  221.0030 C   0  0  0  0  0  0  0  0  0  0  0  0
  141.8210   74.8680  221.1400 C   0  0  0  0  0  0  0  0  0  0  0  0
  140.8610   75.6360  221.8050 C   0  0  0  0  0  0  0  0  0  0  0  0
  139.7440   75.0440  222.3090 N   0  0  0  0  0  0  0  0  0  0  0  0
  139.5310   73.7060  222.1950 C   0  0  0  0  0  0  0  0  0  0  0  0
  139.3150   69.0100  223.9070 N   0  0  0  0  0  0  0  0  0  0  0  0
  138.7990   68.0050  222.9490 C   0  0  0  0  0  0  0  0  0  0  0  0
  137.3030   68.1280  222.7750 C   0  0  0  0  0  0  0  0  0  0  0  0
  136.5600   68.9980  223.5980 C   0  0  0  0  0  0  0  0  0  0  0  0
  135.1750   69.1090  223.4420 C   0  0  0  0  0  0  0  0  0  0  0  0
  134.5230   68.3810  222.4420 C   0  0  0  0  0  0  0  0  0  0  0  0
  135.2520   67.5260  221.6110 C   0  0  0  0  0  0  0  0  0  0  0  0
  136.6360   67.3990  221.7740 C   0  0  0  0  0  0  0  0  0  0  0  0
  140.0048   68.3092  227.8753 H   0  0  0  0  0  0  0  0  0  0  0  0
  140.9767   70.0306  229.4009 H   0  0  0  0  0  0  0  0  0  0  0  0
  141.5596   72.2953  228.5275 H   0  0  0  0  0  0  0  0  0  0  0  0
  141.1440   72.8566  226.1298 H   0  0  0  0  0  0  0  0  0  0  0  0
  138.4578   70.4551  221.5793 H   0  0  0  0  0  0  0  0  0  0  0  0
  141.0478   70.8641  220.8058 H   0  0  0  0  0  0  0  0  0  0  0  0
  142.3625   72.8856  220.4642 H   0  0  0  0  0  0  0  0  0  0  0  0
  142.7244   75.3422  220.7289 H   0  0  0  0  0  0  0  0  0  0  0  0
  141.0084   76.7199  221.9211 H   0  0  0  0  0  0  0  0  0  0  0  0
  138.6138   73.2608  222.6080 H   0  0  0  0  0  0  0  0  0  0  0  0
  139.2865   68.1558  221.9745 H   0  0  0  0  0  0  0  0  0  0  0  0
  139.0207   67.0029  223.3448 H   0  0  0  0  0  0  0  0  0  0  0  0
  137.0729   69.5933  224.3678 H   0  0  0  0  0  0  0  0  0  0  0  0
  134.5981   69.7693  224.1062 H   0  0  0  0  0  0  0  0  0  0  0  0
  133.4356   68.4813  222.3093 H   0  0  0  0  0  0  0  0  0  0  0  0
  134.7367   66.9516  220.8270 H   0  0  0  0  0  0  0  0  0  0  0  0
  137.2051   66.7257  221.1161 H   0  0  0  0  0  0  0  0  0  0  0  0
  1  2  2  0
  2  3  1  0
  3  4  2  0
  4  5  1  0
  5  6  2  0
  6  7  1  0
  7  8  2  0
  8  9  1  0
  9 10  2  0
 10 11  1  0
 11 12  2  0
 12 13  1  0
 13 14  2  0
 14 15  1  0
 15 16  2  0
 16 17  1  0
 17 18  2  0
 10 19  1  0
 19 20  1  0
 20 21  1  0
 21 22  2  0
 22 23  1  0
 23 24  2  0
 24 25  1  0
 25 26  2  0
 19  2  1  0
 26 21  1  0
  8  3  1  0
 18 13  1  0
  4 27  1  0
  5 28  1  0
  6 29  1  0
  7 30  1  0
 11 31  1  0
 12 32  1  0
 14 33  1  0
 15 34  1  0
 16 35  1  0
 18 36  1  0
 20 37  1  0
 20 38  1  0
 22 39  1  0
 23 40  1  0
 24 41  1  0
 25 42  1  0
 26 43  1  0
M  END
>  <meeko>  (3) 
{"free_energy": -7.23, "intermolecular_energy": -8.72, "internal_energy": -1.23, "cluster_size": 3, "cluster_id": 1, "rank_in_cluster": 3}

$$$$

     RDKit          3D

 43 46  0  0  0  0  0  0  0  0999 V2000
  139.7770   74.6660  221.9200 O   0  0  0  0  0  0  0  0  0  0  0  0
  140.5160   75.4250  221.2320 C   0  0  0  0  0  0  0  0  0  0  0  0
  141.7970   74.9830  220.8520 C   0  0  0  0  0  0  0  0  0  0  0  0
  142.2870   73.7090  221.1960 C   0  0  0  0  0  0  0  0  0  0  0  0
  143.5630   73.3110  220.7780 C   0  0  0  0  0  0  0  0  0  0  0  0
  144.3560   74.1770  220.0190 C   0  0  0  0  0  0  0  0  0  0  0  0
  143.8800   75.4470  219.6810 C   0  0  0  0  0  0  0  0  0  0  0  0
  142.6050   75.8510  220.0960 C   0  0  0  0  0  0  0  0  0  0  0  0
  142.1450   77.0810  219.7690 N   0  0  0  0  0  0  0  0  0  0  0  0
  140.9080   77.5020  220.1400 C   0  0  0  0  0  0  0  0  0  0  0  0
  140.4990   78.8600  219.7490 C   0  0  0  0  0  0  0  0  0  0  0  0
  141.3310   79.8930  219.9350 C   0  0  0  0  0  0  0  0  0  0  0  0
  141.7730   80.3550  221.2770 C   0  0  0  0  0  0  0  0  0  0  0  0
  142.5760   79.5000  222.0510 C   0  0  0  0  0  0  0  0  0  0  0  0
  142.9550   79.8710  223.3420 C   0  0  0  0  0  0  0  0  0  0  0  0
  142.5480   81.1080  223.8460 C   0  0  0  0  0  0  0  0  0  0  0  0
  141.7930   81.9420  223.0800 N   0  0  0  0  0  0  0  0  0  0  0  0
  141.4040   81.6010  221.8220 C   0  0  0  0  0  0  0  0  0  0  0  0
  140.0730   76.6720  220.8580 N   0  0  0  0  0  0  0  0  0  0  0  0
  138.7080   77.1160  221.2210 C   0  0  0  0  0  0  0  0  0  0  0  0
  138.7450   78.2600  222.2070 C   0  0  0  0  0  0  0  0  0  0  0  0
  137.7240   79.2320  222.2070 C   0  0  0  0  0  0  0  0  0  0  0  0
  137.7590   80.2950  223.1150 C   0  0  0  0  0  0  0  0  0  0  0  0
  138.7940   80.3800  224.0520 C   0  0  0  0  0  0  0  0  0  0  0  0
  139.8040   79.4150  224.0690 C   0  0  0  0  0  0  0  0  0  0  0  0
  139.7810   78.3580  223.1520 C   0  0  0  0  0  0  0  0  0  0  0  0
  141.6668   73.0251  221.7940 H   0  0  0  0  0  0  0  0  0  0  0  0
  143.9424   72.3143  221.0476 H   0  0  0  0  0  0  0  0  0  0  0  0
  145.3554   73.8586  219.6876 H   0  0  0  0  0  0  0  0  0  0  0  0
  144.5072   76.1295  219.0887 H   0  0  0  0  0  0  0  0  0  0  0  0
  139.5076   79.0274  219.3028 H   0  0  0  0  0  0  0  0  0  0  0  0
  141.7064   80.4268  219.0495 H   0  0  0  0  0  0  0  0  0  0  0  0
  142.9068   78.5356  221.6382 H   0  0  0  0  0  0  0  0  0  0  0  0
  143.5683   79.1955  223.9565 H   0  0  0  0  0  0  0  0  0  0  0  0
  142.8380   81.4088  224.8635 H   0  0  0  0  0  0  0  0  0  0  0  0
  140.7987   82.3010  221.2274 H   0  0  0  0  0  0  0  0  0  0  0  0
  138.1845   77.4445  220.3110 H   0  0  0  0  0  0  0  0  0  0  0  0
  138.1822   76.2713  221.6900 H   0  0  0  0  0  0  0  0  0  0  0  0
  136.8948   79.1539  221.4885 H   0  0  0  0  0  0  0  0  0  0  0  0
  136.9728   81.0640  223.0924 H   0  0  0  0  0  0  0  0  0  0  0  0
  138.8127   81.2076  224.7763 H   0  0  0  0  0  0  0  0  0  0  0  0
  140.6189   79.4861  224.8045 H   0  0  0  0  0  0  0  0  0  0  0  0
  140.5778   77.5999  223.1708 H   0  0  0  0  0  0  0  0  0  0  0  0
  1  2  2  0
  2  3  1  0
  3  4  2  0
  4  5  1  0
  5  6  2  0
  6  7  1  0
  7  8  2  0
  8  9  1  0
  9 10  2  0
 10 11  1  0
 11 12  2  0
 12 13  1  0
 13 14  2  0
 14 15  1  0
 15 16  2  0
 16 17  1  0
 17 18  2  0
 10 19  1  0
 19 20  1  0
 20 21  1  0
 21 22  2  0
 22 23  1  0
 23 24  2  0
 24 25  1  0
 25 26  2  0
 19  2  1  0
 26 21  1  0
  8  3  1  0
 18 13  1  0
  4 27  1  0
  5 28  1  0
  6 29  1  0
  7 30  1  0
 11 31  1  0
 12 32  1  0
 14 33  1  0
 15 34  1  0
 16 35  1  0
 18 36  1  0
 20 37  1  0
 20 38  1  0
 22 39  1  0
 23 40  1  0
 24 41  1  0
 25 42  1  0
 26 43  1  0
M  END
>  <meeko>  (4) 
{"free_energy": -6.4, "intermolecular_energy": -7.9, "internal_energy": -1.91, "cluster_size": 5, "cluster_id": 5, "rank_in_cluster": 4}

$$$$

     RDKit          3D

 43 46  0  0  0  0  0  0  0  0999 V2000
  138.3850   75.7470  221.9350 O   0  0  0  0  0  0  0  0  0  0  0  0
  139.4710   75.2120  221.5730 C   0  0  0  0  0  0  0  0  0  0  0  0
  139.6610   73.8330  221.7710 C   0  0  0  0  0  0  0  0  0  0  0  0
  138.6720   73.0100  222.3450 C   0  0  0  0  0  0  0  0  0  0  0  0
  138.9050   71.6390  222.5050 C   0  0  0  0  0  0  0  0  0  0  0  0
  140.1190   71.0800  222.0950 C   0  0  0  0  0  0  0  0  0  0  0  0
  141.1090   71.8900  221.5320 C   0  0  0  0  0  0  0  0  0  0  0  0
  140.8830   73.2630  221.3700 C   0  0  0  0  0  0  0  0  0  0  0  0
  141.8420   74.0470  220.8260 N   0  0  0  0  0  0  0  0  0  0  0  0
  141.6520   75.3790  220.6380 C   0  0  0  0  0  0  0  0  0  0  0  0
  142.7570   76.1530  220.0490 C   0  0  0  0  0  0  0  0  0  0  0  0
  143.5930   75.5760  219.1770 C   0  0  0  0  0  0  0  0  0  0  0  0
  144.4460   74.4070  219.5130 C   0  0  0  0  0  0  0  0  0  0  0  0
  144.9820   74.3150  220.8090 C   0  0  0  0  0  0  0  0  0  0  0  0
  145.8410   73.2680  221.1420 C   0  0  0  0  0  0  0  0  0  0  0  0
  146.1440   72.3000  220.1820 C   0  0  0  0  0  0  0  0  0  0  0  0
  145.6000   72.3800  218.9370 N   0  0  0  0  0  0  0  0  0  0  0  0
  144.7670   73.3950  218.5850 C   0  0  0  0  0  0  0  0  0  0  0  0
  140.4580   75.9720  220.9910 N   0  0  0  0  0  0  0  0  0  0  0  0
  140.2380   77.4150  220.7430 C   0  0  0  0  0  0  0  0  0  0  0  0
  141.0240   78.2670  221.7120 C   0  0  0  0  0  0  0  0  0  0  0  0
  141.0920   77.9150  223.0750 C   0  0  0  0  0  0  0  0  0  0  0  0
  141.8160   78.7050  223.9740 C   0  0  0  0  0  0  0  0  0  0  0  0
  142.5050   79.8320  223.5180 C   0  0  0  0  0  0  0  0  0  0  0  0
  142.4560   80.1820  222.1660 C   0  0  0  0  0  0  0  0  0  0  0  0
  141.7200   79.4040  221.2640 C   0  0  0  0  0  0  0  0  0  0  0  0
  137.7150   73.4456  222.6680 H   0  0  0  0  0  0  0  0  0  0  0  0
  138.1308   70.9998  222.9545 H   0  0  0  0  0  0  0  0  0  0  0  0
  140.2953   70.0010  222.2157 H   0  0  0  0  0  0  0  0  0  0  0  0
  142.0660   71.4493  221.2160 H   0  0  0  0  0  0  0  0  0  0  0  0
  142.8962   77.2084  220.3261 H   0  0  0  0  0  0  0  0  0  0  0  0
  143.6514   75.9888  218.1591 H   0  0  0  0  0  0  0  0  0  0  0  0
  144.7229   75.0720  221.5639 H   0  0  0  0  0  0  0  0  0  0  0  0
  146.2755   73.2053  222.1506 H   0  0  0  0  0  0  0  0  0  0  0  0
  146.8232   71.4718  220.4325 H   0  0  0  0  0  0  0  0  0  0  0  0
  144.3413   73.4270  217.5712 H   0  0  0  0  0  0  0  0  0  0  0  0
  140.5552   77.6543  219.7173 H   0  0  0  0  0  0  0  0  0  0  0  0
  139.1683   77.6309  220.8811 H   0  0  0  0  0  0  0  0  0  0  0  0
  140.5728   77.0140  223.4338 H   0  0  0  0  0  0  0  0  0  0  0  0
  141.8430   78.4389  225.0410 H   0  0  0  0  0  0  0  0  0  0  0  0
  143.0862   80.4439  224.2236 H   0  0  0  0  0  0  0  0  0  0  0  0
  142.9970   81.0709  221.8095 H   0  0  0  0  0  0  0  0  0  0  0  0
  141.6860   79.6833  220.2006 H   0  0  0  0  0  0  0  0  0  0  0  0
  1  2  2  0
  2  3  1  0
  3  4  2  0
  4  5  1  0
  5  6  2  0
  6  7  1  0
  7  8  2  0
  8  9  1  0
  9 10  2  0
 10 11  1  0
 11 12  2  0
 12 13  1  0
 13 14  2  0
 14 15  1  0
 15 16  2  0
 16 17  1  0
 17 18  2  0
 10 19  1  0
 19 20  1  0
 20 21  1  0
 21 22  2  0
 22 23  1  0
 23 24  2  0
 24 25  1  0
 25 26  2  0
 19  2  1  0
 26 21  1  0
  8  3  1  0
 18 13  1  0
  4 27  1  0
  5 28  1  0
  6 29  1  0
  7 30  1  0
 11 31  1  0
 12 32  1  0
 14 33  1  0
 15 34  1  0
 16 35  1  0
 18 36  1  0
 20 37  1  0
 20 38  1  0
 22 39  1  0
 23 40  1  0
 24 41  1  0
 25 42  1  0
 26 43  1  0
M  END
>  <meeko>  (5) 
{"free_energy": -7.16, "intermolecular_energy": -8.65, "internal_energy": -1.33, "cluster_size": 7, "cluster_id": 2, "rank_in_cluster": 5}

$$$$

     RDKit          3D

 43 46  0  0  0  0  0  0  0  0999 V2000
  138.3780   75.6980  221.9720 O   0  0  0  0  0  0  0  0  0  0  0  0
  139.4700   75.1830  221.5990 C   0  0  0  0  0  0  0  0  0  0  0  0
  139.6820   73.8050  221.7840 C   0  0  0  0  0  0  0  0  0  0  0  0
  138.7100   72.9630  222.3580 C   0  0  0  0  0  0  0  0  0  0  0  0
  138.9650   71.5940  222.5050 C   0  0  0  0  0  0  0  0  0  0  0  0
  140.1850   71.0570  222.0830 C   0  0  0  0  0  0  0  0  0  0  0  0
  141.1580   71.8870  221.5200 C   0  0  0  0  0  0  0  0  0  0  0  0
  140.9100   73.2570  221.3700 C   0  0  0  0  0  0  0  0  0  0  0  0
  141.8530   74.0610  220.8270 N   0  0  0  0  0  0  0  0  0  0  0  0
  141.6420   75.3910  220.6510 C   0  0  0  0  0  0  0  0  0  0  0  0
  142.7310   76.1870  220.0620 C   0  0  0  0  0  0  0  0  0  0  0  0
  143.5800   75.6250  219.1930 C   0  0  0  0  0  0  0  0  0  0  0  0
  144.4390   74.4590  219.5270 C   0  0  0  0  0  0  0  0  0  0  0  0
  144.9970   74.3810  220.8140 C   0  0  0  0  0  0  0  0  0  0  0  0
  145.8610   73.3360  221.1430 C   0  0  0  0  0  0  0  0  0  0  0  0
  146.1470   72.3580  220.1870 C   0  0  0  0  0  0  0  0  0  0  0  0
  145.5820   72.4260  218.9510 N   0  0  0  0  0  0  0  0  0  0  0  0
  144.7430   73.4370  218.6040 C   0  0  0  0  0  0  0  0  0  0  0  0
  140.4410   75.9630  221.0170 N   0  0  0  0  0  0  0  0  0  0  0  0
  140.1970   77.4040  220.7830 C   0  0  0  0  0  0  0  0  0  0  0  0
  140.9970   78.2610  221.7370 C   0  0  0  0  0  0  0  0  0  0  0  0
  141.0960   77.9070  223.0970 C   0  0  0  0  0  0  0  0  0  0  0  0
  141.8320   78.7010  223.9820 C   0  0  0  0  0  0  0  0  0  0  0  0
  142.5030   79.8350  223.5130 C   0  0  0  0  0  0  0  0  0  0  0  0
  142.4230   80.1860  222.1630 C   0  0  0  0  0  0  0  0  0  0  0  0
  141.6750   79.4040  221.2760 C   0  0  0  0  0  0  0  0  0  0  0  0
  137.7489   73.3814  222.6914 H   0  0  0  0  0  0  0  0  0  0  0  0
  138.2034   70.9393  222.9537 H   0  0  0  0  0  0  0  0  0  0  0  0
  140.3791   69.9800  222.1943 H   0  0  0  0  0  0  0  0  0  0  0  0
  142.1197   71.4638  221.1943 H   0  0  0  0  0  0  0  0  0  0  0  0
  142.8474   77.2458  220.3365 H   0  0  0  0  0  0  0  0  0  0  0  0
  143.6453   76.0479  218.1796 H   0  0  0  0  0  0  0  0  0  0  0  0
  144.7519   75.1465  221.5649 H   0  0  0  0  0  0  0  0  0  0  0  0
  146.3123   73.2826  222.1447 H   0  0  0  0  0  0  0  0  0  0  0  0
  146.8300   71.5318  220.4339 H   0  0  0  0  0  0  0  0  0  0  0  0
  144.2986   73.4584  217.5980 H   0  0  0  0  0  0  0  0  0  0  0  0
  140.4851   77.6528  219.7510 H   0  0  0  0  0  0  0  0  0  0  0  0
  139.1285   77.6056  220.9495 H   0  0  0  0  0  0  0  0  0  0  0  0
  140.5916   77.0012  223.4647 H   0  0  0  0  0  0  0  0  0  0  0  0
  141.8833   78.4335  225.0478 H   0  0  0  0  0  0  0  0  0  0  0  0
  143.0939   80.4507  224.2072 H   0  0  0  0  0  0  0  0  0  0  0  0
  142.9495   81.0796  221.7965 H   0  0  0  0  0  0  0  0  0  0  0  0
  141.6169   79.6842  220.2139 H   0  0  0  0  0  0  0  0  0  0  0  0
  1  2  2  0
  2  3  1  0
  3  4  2  0
  4  5  1  0
  5  6  2  0
  6  7  1  0
  7  8  2  0
  8  9  1  0
  9 10  2  0
 10 11  1  0
 11 12  2  0
 12 13  1  0
 13 14  2  0
 14 15  1  0
 15 16  2  0
 16 17  1  0
 17 18  2  0
 10 19  1  0
 19 20  1  0
 20 21  1  0
 21 22  2  0
 22 23  1  0
 23 24  2  0
 24 25  1  0
 25 26  2  0
 19  2  1  0
 26 21  1  0
  8  3  1  0
 18 13  1  0
  4 27  1  0
  5 28  1  0
  6 29  1  0
  7 30  1  0
 11 31  1  0
 12 32  1  0
 14 33  1  0
 15 34  1  0
 16 35  1  0
 18 36  1  0
 20 37  1  0
 20 38  1  0
 22 39  1  0
 23 40  1  0
 24 41  1  0
 25 42  1  0
 26 43  1  0
M  END
>  <meeko>  (6) 
{"free_energy": -7.14, "intermolecular_energy": -8.63, "internal_energy": -1.34, "cluster_size": 7, "cluster_id": 2, "rank_in_cluster": 7}

$$$$

     RDKit          3D

 43 46  0  0  0  0  0  0  0  0999 V2000
  139.1290   67.5810  225.6770 O   0  0  0  0  0  0  0  0  0  0  0  0
  139.4780   68.7160  225.2430 C   0  0  0  0  0  0  0  0  0  0  0  0
  140.0190   69.6590  226.1350 C   0  0  0  0  0  0  0  0  0  0  0  0
  140.2080   69.3830  227.5030 C   0  0  0  0  0  0  0  0  0  0  0  0
  140.7670   70.3510  228.3450 C   0  0  0  0  0  0  0  0  0  0  0  0
  141.1400   71.5980  227.8320 C   0  0  0  0  0  0  0  0  0  0  0  0
  140.9490   71.8830  226.4770 C   0  0  0  0  0  0  0  0  0  0  0  0
  140.3900   70.9190  225.6290 C   0  0  0  0  0  0  0  0  0  0  0  0
  140.2040   71.1960  224.3180 N   0  0  0  0  0  0  0  0  0  0  0  0
  139.6790   70.2800  223.4630 C   0  0  0  0  0  0  0  0  0  0  0  0
  139.5030   70.6770  222.0560 C   0  0  0  0  0  0  0  0  0  0  0  0
  140.4830   71.3240  221.4120 C   0  0  0  0  0  0  0  0  0  0  0  0
  140.6430   72.8010  221.4380 C   0  0  0  0  0  0  0  0  0  0  0  0
  141.7790   73.3660  220.8350 C   0  0  0  0  0  0  0  0  0  0  0  0
  141.9970   74.7420  220.8970 C   0  0  0  0  0  0  0  0  0  0  0  0
  141.0630   75.5540  221.5440 C   0  0  0  0  0  0  0  0  0  0  0  0
  139.9510   75.0030  222.1030 N   0  0  0  0  0  0  0  0  0  0  0  0
  139.7190   73.6640  222.0620 C   0  0  0  0  0  0  0  0  0  0  0  0
  139.3290   69.0240  223.9110 N   0  0  0  0  0  0  0  0  0  0  0  0
  138.8010   68.0130  222.9680 C   0  0  0  0  0  0  0  0  0  0  0  0
  137.3030   68.1370  222.8090 C   0  0  0  0  0  0  0  0  0  0  0  0
  136.5820   69.0740  223.5770 C   0  0  0  0  0  0  0  0  0  0  0  0
  135.1960   69.1870  223.4360 C   0  0  0  0  0  0  0  0  0  0  0  0
  134.5200   68.3920  222.5050 C   0  0  0  0  0  0  0  0  0  0  0  0
  135.2270   67.4700  221.7290 C   0  0  0  0  0  0  0  0  0  0  0  0
  136.6130   67.3420  221.8780 C   0  0  0  0  0  0  0  0  0  0  0  0
  139.9155   68.4041  227.9107 H   0  0  0  0  0  0  0  0  0  0  0  0
  140.9135   70.1309  229.4128 H   0  0  0  0  0  0  0  0  0  0  0  0
  141.5839   72.3548  228.4955 H   0  0  0  0  0  0  0  0  0  0  0  0
  141.2382   72.8658  226.0763 H   0  0  0  0  0  0  0  0  0  0  0  0
  138.5645   70.4417  221.5327 H   0  0  0  0  0  0  0  0  0  0  0  0
  141.2070   70.7312  220.8338 H   0  0  0  0  0  0  0  0  0  0  0  0
  142.4996   72.7203  220.3117 H   0  0  0  0  0  0  0  0  0  0  0  0
  142.8955   75.1833  220.4409 H   0  0  0  0  0  0  0  0  0  0  0  0
  141.2262   76.6403  221.6019 H   0  0  0  0  0  0  0  0  0  0  0  0
  138.8064   73.2521  222.5176 H   0  0  0  0  0  0  0  0  0  0  0  0
  139.2781   68.1548  221.9870 H   0  0  0  0  0  0  0  0  0  0  0  0
  139.0251   67.0139  223.3700 H   0  0  0  0  0  0  0  0  0  0  0  0
  137.1134   69.7200  224.2914 H   0  0  0  0  0  0  0  0  0  0  0  0
  134.6367   69.9016  224.0577 H   0  0  0  0  0  0  0  0  0  0  0  0
  133.4314   68.4926  222.3836 H   0  0  0  0  0  0  0  0  0  0  0  0
  134.6933   66.8433  220.9993 H   0  0  0  0  0  0  0  0  0  0  0  0
  137.1648   66.6156  221.2633 H   0  0  0  0  0  0  0  0  0  0  0  0
  1  2  2  0
  2  3  1  0
  3  4  2  0
  4  5  1  0
  5  6  2  0
  6  7  1  0
  7  8  2  0
  8  9  1  0
  9 10  2  0
 10 11  1  0
 11 12  2  0
 12 13  1  0
 13 14  2  0
 14 15  1  0
 15 16  2  0
 16 17  1  0
 17 18  2  0
 10 19  1  0
 19 20  1  0
 20 21  1  0
 21 22  2  0
 22 23  1  0
 23 24  2  0
 24 25  1  0
 25 26  2  0
 19  2  1  0
 26 21  1  0
  8  3  1  0
 18 13  1  0
  4 27  1  0
  5 28  1  0
  6 29  1  0
  7 30  1  0
 11 31  1  0
 12 32  1  0
 14 33  1  0
 15 34  1  0
 16 35  1  0
 18 36  1  0
 20 37  1  0
 20 38  1  0
 22 39  1  0
 23 40  1  0
 24 41  1  0
 25 42  1  0
 26 43  1  0
M  END
>  <meeko>  (7) 
{"free_energy": -7.27, "intermolecular_energy": -8.76, "internal_energy": -1.22, "cluster_size": 3, "cluster_id": 1, "rank_in_cluster": 2}

$$$$

     RDKit          3D

 43 46  0  0  0  0  0  0  0  0999 V2000
  139.8520   74.5460  221.9600 O   0  0  0  0  0  0  0  0  0  0  0  0
  140.5760   75.3170  221.2680 C   0  0  0  0  0  0  0  0  0  0  0  0
  141.8610   74.8950  220.8810 C   0  0  0  0  0  0  0  0  0  0  0  0
  142.3720   73.6270  221.2200 C   0  0  0  0  0  0  0  0  0  0  0  0
  143.6510   73.2490  220.7950 C   0  0  0  0  0  0  0  0  0  0  0  0
  144.4270   74.1280  220.0320 C   0  0  0  0  0  0  0  0  0  0  0  0
  143.9300   75.3910  219.6990 C   0  0  0  0  0  0  0  0  0  0  0  0
  142.6510   75.7760  220.1210 C   0  0  0  0  0  0  0  0  0  0  0  0
  142.1720   76.9990  219.7990 N   0  0  0  0  0  0  0  0  0  0  0  0
  140.9310   77.4010  220.1770 C   0  0  0  0  0  0  0  0  0  0  0  0
  140.5000   78.7540  219.7900 C   0  0  0  0  0  0  0  0  0  0  0  0
  141.3340   79.7920  219.9290 C   0  0  0  0  0  0  0  0  0  0  0  0
  141.7550   80.3310  221.2490 C   0  0  0  0  0  0  0  0  0  0  0  0
  142.5830   79.5420  222.0650 C   0  0  0  0  0  0  0  0  0  0  0  0
  142.9430   79.9860  223.3370 C   0  0  0  0  0  0  0  0  0  0  0  0
  142.4920   81.2310  223.7810 C   0  0  0  0  0  0  0  0  0  0  0  0
  141.7120   82.0010  222.9750 N   0  0  0  0  0  0  0  0  0  0  0  0
  141.3410   81.5880  221.7340 C   0  0  0  0  0  0  0  0  0  0  0  0
  140.1120   76.5580  220.8980 N   0  0  0  0  0  0  0  0  0  0  0  0
  138.7430   76.9810  221.2700 C   0  0  0  0  0  0  0  0  0  0  0  0
  138.7680   78.1570  222.2180 C   0  0  0  0  0  0  0  0  0  0  0  0
  137.7260   79.1060  222.2020 C   0  0  0  0  0  0  0  0  0  0  0  0
  137.7500   80.1970  223.0760 C   0  0  0  0  0  0  0  0  0  0  0  0
  138.7950   80.3350  223.9950 C   0  0  0  0  0  0  0  0  0  0  0  0
  139.8260   79.3920  224.0290 C   0  0  0  0  0  0  0  0  0  0  0  0
  139.8140   78.3060  223.1460 C   0  0  0  0  0  0  0  0  0  0  0  0
  141.7651   72.9327  221.8197 H   0  0  0  0  0  0  0  0  0  0  0  0
  144.0470   72.2580  221.0617 H   0  0  0  0  0  0  0  0  0  0  0  0
  145.4289   73.8249  219.6940 H   0  0  0  0  0  0  0  0  0  0  0  0
  144.5440   76.0837  219.1047 H   0  0  0  0  0  0  0  0  0  0  0  0
  139.4896   78.9128  219.3853 H   0  0  0  0  0  0  0  0  0  0  0  0
  141.7278   80.2705  219.0202 H   0  0  0  0  0  0  0  0  0  0  0  0
  142.9484   78.5710  221.6994 H   0  0  0  0  0  0  0  0  0  0  0  0
  143.5761   79.3616  223.9845 H   0  0  0  0  0  0  0  0  0  0  0  0
  142.7678   81.5895  224.7837 H   0  0  0  0  0  0  0  0  0  0  0  0
  140.7147   82.2380  221.1053 H   0  0  0  0  0  0  0  0  0  0  0  0
  138.1969   77.2672  220.3591 H   0  0  0  0  0  0  0  0  0  0  0  0
  138.2459   76.1397  221.7750 H   0  0  0  0  0  0  0  0  0  0  0  0
  136.8892   78.9876  221.4979 H   0  0  0  0  0  0  0  0  0  0  0  0
  136.9464   80.9473  223.0408 H   0  0  0  0  0  0  0  0  0  0  0  0
  138.8055   81.1863  224.6916 H   0  0  0  0  0  0  0  0  0  0  0  0
  140.6484   79.5035  224.7510 H   0  0  0  0  0  0  0  0  0  0  0  0
  140.6268   77.5655  223.1781 H   0  0  0  0  0  0  0  0  0  0  0  0
  1  2  2  0
  2  3  1  0
  3  4  2  0
  4  5  1  0
  5  6  2  0
  6  7  1  0
  7  8  2  0
  8  9  1  0
  9 10  2  0
 10 11  1  0
 11 12  2  0
 12 13  1  0
 13 14  2  0
 14 15  1  0
 15 16  2  0
 16 17  1  0
 17 18  2  0
 10 19  1  0
 19 20  1  0
 20 21  1  0
 21 22  2  0
 22 23  1  0
 23 24  2  0
 24 25  1  0
 25 26  2  0
 19  2  1  0
 26 21  1  0
  8  3  1  0
 18 13  1  0
  4 27  1  0
  5 28  1  0
  6 29  1  0
  7 30  1  0
 11 31  1  0
 12 32  1  0
 14 33  1  0
 15 34  1  0
 16 35  1  0
 18 36  1  0
 20 37  1  0
 20 38  1  0
 22 39  1  0
 23 40  1  0
 24 41  1  0
 25 42  1  0
 26 43  1  0
M  END
>  <meeko>  (8) 
{"free_energy": -6.47, "intermolecular_energy": -7.96, "internal_energy": -1.87, "cluster_size": 5, "cluster_id": 5, "rank_in_cluster": 2}

$$$$

     RDKit          3D

 43 46  0  0  0  0  0  0  0  0999 V2000
  138.3760   75.7710  221.9220 O   0  0  0  0  0  0  0  0  0  0  0  0
  139.4620   75.2290  221.5690 C   0  0  0  0  0  0  0  0  0  0  0  0
  139.6430   73.8490  221.7710 C   0  0  0  0  0  0  0  0  0  0  0  0
  138.6470   73.0330  222.3410 C   0  0  0  0  0  0  0  0  0  0  0  0
  138.8710   71.6610  222.5050 C   0  0  0  0  0  0  0  0  0  0  0  0
  140.0850   71.0940  222.1050 C   0  0  0  0  0  0  0  0  0  0  0  0
  141.0830   71.8990  221.5460 C   0  0  0  0  0  0  0  0  0  0  0  0
  140.8650   73.2720  221.3800 C   0  0  0  0  0  0  0  0  0  0  0  0
  141.8320   74.0500  220.8400 N   0  0  0  0  0  0  0  0  0  0  0  0
  141.6500   75.3820  220.6490 C   0  0  0  0  0  0  0  0  0  0  0  0
  142.7630   76.1500  220.0660 C   0  0  0  0  0  0  0  0  0  0  0  0
  143.5930   75.5710  219.1890 C   0  0  0  0  0  0  0  0  0  0  0  0
  144.4520   74.4050  219.5230 C   0  0  0  0  0  0  0  0  0  0  0  0
  144.9830   74.3110  220.8200 C   0  0  0  0  0  0  0  0  0  0  0  0
  145.8480   73.2680  221.1520 C   0  0  0  0  0  0  0  0  0  0  0  0
  146.1610   72.3060  220.1880 C   0  0  0  0  0  0  0  0  0  0  0  0
  145.6220   72.3900  218.9410 N   0  0  0  0  0  0  0  0  0  0  0  0
  144.7830   73.4000  218.5910 C   0  0  0  0  0  0  0  0  0  0  0  0
  140.4570   75.9830  220.9920 N   0  0  0  0  0  0  0  0  0  0  0  0
  140.2460   77.4260  220.7400 C   0  0  0  0  0  0  0  0  0  0  0  0
  141.0260   78.2760  221.7160 C   0  0  0  0  0  0  0  0  0  0  0  0
  141.0880   77.9200  223.0780 C   0  0  0  0  0  0  0  0  0  0  0  0
  141.8060   78.7070  223.9830 C   0  0  0  0  0  0  0  0  0  0  0  0
  142.4950   79.8380  223.5340 C   0  0  0  0  0  0  0  0  0  0  0  0
  142.4520   80.1920  222.1830 C   0  0  0  0  0  0  0  0  0  0  0  0
  141.7220   79.4160  221.2750 C   0  0  0  0  0  0  0  0  0  0  0  0
  137.6908   73.4747  222.6581 H   0  0  0  0  0  0  0  0  0  0  0  0
  138.0898   71.0271  222.9498 H   0  0  0  0  0  0  0  0  0  0  0  0
  140.2552   70.0145  222.2300 H   0  0  0  0  0  0  0  0  0  0  0  0
  142.0398   71.4530  221.2366 H   0  0  0  0  0  0  0  0  0  0  0  0
  142.9130   77.2017  220.3515 H   0  0  0  0  0  0  0  0  0  0  0  0
  143.6415   75.9794  218.1688 H   0  0  0  0  0  0  0  0  0  0  0  0
  144.7157   75.0629  221.5771 H   0  0  0  0  0  0  0  0  0  0  0  0
  146.2791   73.2036  222.1619 H   0  0  0  0  0  0  0  0  0  0  0  0
  146.8436   71.4801  220.4372 H   0  0  0  0  0  0  0  0  0  0  0  0
  144.3602   73.4337  217.5761 H   0  0  0  0  0  0  0  0  0  0  0  0
  140.5747   77.6625  219.7172 H   0  0  0  0  0  0  0  0  0  0  0  0
  139.1759   77.6468  220.8670 H   0  0  0  0  0  0  0  0  0  0  0  0
  140.5682   77.0172  223.4312 H   0  0  0  0  0  0  0  0  0  0  0  0
  141.8291   78.4365  225.0490 H   0  0  0  0  0  0  0  0  0  0  0  0
  143.0709   80.4491  224.2445 H   0  0  0  0  0  0  0  0  0  0  0  0
  142.9933   81.0829  221.8320 H   0  0  0  0  0  0  0  0  0  0  0  0
  141.6925   79.6988  220.2124 H   0  0  0  0  0  0  0  0  0  0  0  0
  1  2  2  0
  2  3  1  0
  3  4  2  0
  4  5  1  0
  5  6  2  0
  6  7  1  0
  7  8  2  0
  8  9  1  0
  9 10  2  0
 10 11  1  0
 11 12  2  0
 12 13  1  0
 13 14  2  0
 14 15  1  0
 15 16  2  0
 16 17  1  0
 17 18  2  0
 10 19  1  0
 19 20  1  0
 20 21  1  0
 21 22  2  0
 22 23  1  0
 23 24  2  0
 24 25  1  0
 25 26  2  0
 19  2  1  0
 26 21  1  0
  8  3  1  0
 18 13  1  0
  4 27  1  0
  5 28  1  0
  6 29  1  0
  7 30  1  0
 11 31  1  0
 12 32  1  0
 14 33  1  0
 15 34  1  0
 16 35  1  0
 18 36  1  0
 20 37  1  0
 20 38  1  0
 22 39  1  0
 23 40  1  0
 24 41  1  0
 25 42  1  0
 26 43  1  0
M  END
>  <meeko>  (9) 
{"free_energy": -7.15, "intermolecular_energy": -8.65, "internal_energy": -1.33, "cluster_size": 7, "cluster_id": 2, "rank_in_cluster": 6}

$$$$

     RDKit          3D

 43 46  0  0  0  0  0  0  0  0999 V2000
  140.2890   72.0140  224.8670 O   0  0  0  0  0  0  0  0  0  0  0  0
  139.7050   70.8940  224.8950 C   0  0  0  0  0  0  0  0  0  0  0  0
  139.9890   69.9930  225.9360 C   0  0  0  0  0  0  0  0  0  0  0  0
  140.8940   70.2970  226.9720 C   0  0  0  0  0  0  0  0  0  0  0  0
  141.1280   69.3720  227.9950 C   0  0  0  0  0  0  0  0  0  0  0  0
  140.4660   68.1400  227.9940 C   0  0  0  0  0  0  0  0  0  0  0  0
  139.5730   67.8260  226.9660 C   0  0  0  0  0  0  0  0  0  0  0  0
  139.3340   68.7480  225.9390 C   0  0  0  0  0  0  0  0  0  0  0  0
  138.4700   68.4430  224.9430 N   0  0  0  0  0  0  0  0  0  0  0  0
  138.2010   69.3180  223.9400 C   0  0  0  0  0  0  0  0  0  0  0  0
  137.2560   68.8930  222.8940 C   0  0  0  0  0  0  0  0  0  0  0  0
  135.9730   68.6610  223.2000 C   0  0  0  0  0  0  0  0  0  0  0  0
  135.2790   69.2980  224.3490 C   0  0  0  0  0  0  0  0  0  0  0  0
  135.2510   70.7010  224.4240 C   0  0  0  0  0  0  0  0  0  0  0  0
  134.6670   71.3340  225.5210 C   0  0  0  0  0  0  0  0  0  0  0  0
  134.0900   70.5610  226.5310 C   0  0  0  0  0  0  0  0  0  0  0  0
  134.0970   69.2030  226.4380 N   0  0  0  0  0  0  0  0  0  0  0  0
  134.6670   68.5610  225.3830 C   0  0  0  0  0  0  0  0  0  0  0  0
  138.8000   70.5590  223.9150 N   0  0  0  0  0  0  0  0  0  0  0  0
  138.4700   71.5280  222.8450 C   0  0  0  0  0  0  0  0  0  0  0  0
  139.7170   72.0300  222.1530 C   0  0  0  0  0  0  0  0  0  0  0  0
  140.6710   71.1190  221.6590 C   0  0  0  0  0  0  0  0  0  0  0  0
  141.8280   71.5820  221.0230 C   0  0  0  0  0  0  0  0  0  0  0  0
  142.0270   72.9540  220.8450 C   0  0  0  0  0  0  0  0  0  0  0  0
  141.0800   73.8660  221.3200 C   0  0  0  0  0  0  0  0  0  0  0  0
  139.9280   73.4080  221.9700 C   0  0  0  0  0  0  0  0  0  0  0  0
  141.4179   71.2642  226.9765 H   0  0  0  0  0  0  0  0  0  0  0  0
  141.8346   69.6143  228.8024 H   0  0  0  0  0  0  0  0  0  0  0  0
  140.6484   67.4175  228.8032 H   0  0  0  0  0  0  0  0  0  0  0  0
  139.0575   66.8543  226.9633 H   0  0  0  0  0  0  0  0  0  0  0  0
  137.6047   68.7657  221.8585 H   0  0  0  0  0  0  0  0  0  0  0  0
  135.4038   67.9631  222.5683 H   0  0  0  0  0  0  0  0  0  0  0  0
  135.6912   71.3020  223.6147 H   0  0  0  0  0  0  0  0  0  0  0  0
  134.6609   72.4318  225.5901 H   0  0  0  0  0  0  0  0  0  0  0  0
  133.6296   71.0499  227.4022 H   0  0  0  0  0  0  0  0  0  0  0  0
  134.6503   67.4621  225.3365 H   0  0  0  0  0  0  0  0  0  0  0  0
  137.8225   71.0364  222.1040 H   0  0  0  0  0  0  0  0  0  0  0  0
  137.9572   72.3874  223.3017 H   0  0  0  0  0  0  0  0  0  0  0  0
  140.5055   70.0376  221.7739 H   0  0  0  0  0  0  0  0  0  0  0  0
  142.5814   70.8659  220.6629 H   0  0  0  0  0  0  0  0  0  0  0  0
  142.9294   73.3164  220.3308 H   0  0  0  0  0  0  0  0  0  0  0  0
  141.2404   74.9455  221.1827 H   0  0  0  0  0  0  0  0  0  0  0  0
  139.1843   74.1295  222.3393 H   0  0  0  0  0  0  0  0  0  0  0  0
  1  2  2  0
  2  3  1  0
  3  4  2  0
  4  5  1  0
  5  6  2  0
  6  7  1  0
  7  8  2  0
  8  9  1  0
  9 10  2  0
 10 11  1  0
 11 12  2  0
 12 13  1  0
 13 14  2  0
 14 15  1  0
 15 16  2  0
 16 17  1  0
 17 18  2  0
 10 19  1  0
 19 20  1  0
 20 21  1  0
 21 22  2  0
 22 23  1  0
 23 24  2  0
 24 25  1  0
 25 26  2  0
 19  2  1  0
 26 21  1  0
  8  3  1  0
 18 13  1  0
  4 27  1  0
  5 28  1  0
  6 29  1  0
  7 30  1  0
 11 31  1  0
 12 32  1  0
 14 33  1  0
 15 34  1  0
 16 35  1  0
 18 36  1  0
 20 37  1  0
 20 38  1  0
 22 39  1  0
 23 40  1  0
 24 41  1  0
 25 42  1  0
 26 43  1  0
M  END
>  <meeko>  (10) 
{"free_energy": -6.87, "intermolecular_energy": -8.36, "internal_energy": -1.41, "cluster_size": 4, "cluster_id": 3, "rank_in_cluster": 3}

$$$$

     RDKit          3D

 43 46  0  0  0  0  0  0  0  0999 V2000
  139.7910   74.7200  221.9540 O   0  0  0  0  0  0  0  0  0  0  0  0
  140.5060   75.4950  221.2570 C   0  0  0  0  0  0  0  0  0  0  0  0
  141.7880   75.0780  220.8570 C   0  0  0  0  0  0  0  0  0  0  0  0
  142.3070   73.8110  221.1880 C   0  0  0  0  0  0  0  0  0  0  0  0
  143.5830   73.4380  220.7500 C   0  0  0  0  0  0  0  0  0  0  0  0
  144.3490   74.3210  219.9820 C   0  0  0  0  0  0  0  0  0  0  0  0
  143.8440   75.5830  219.6560 C   0  0  0  0  0  0  0  0  0  0  0  0
  142.5680   75.9630  220.0910 C   0  0  0  0  0  0  0  0  0  0  0  0
  142.0810   77.1850  219.7760 N   0  0  0  0  0  0  0  0  0  0  0  0
  140.8430   77.5820  220.1670 C   0  0  0  0  0  0  0  0  0  0  0  0
  140.4030   78.9340  219.7860 C   0  0  0  0  0  0  0  0  0  0  0  0
  141.2230   79.9800  219.9550 C   0  0  0  0  0  0  0  0  0  0  0  0
  141.7070   80.4330  221.2840 C   0  0  0  0  0  0  0  0  0  0  0  0
  142.5500   79.5820  222.0190 C   0  0  0  0  0  0  0  0  0  0  0  0
  142.9710   79.9440  223.2990 C   0  0  0  0  0  0  0  0  0  0  0  0
  142.5650   81.1690  223.8320 C   0  0  0  0  0  0  0  0  0  0  0  0
  141.7700   82.0000  223.1040 N   0  0  0  0  0  0  0  0  0  0  0  0
  141.3400   81.6680  221.8580 C   0  0  0  0  0  0  0  0  0  0  0  0
  140.0340   76.7340  220.8940 N   0  0  0  0  0  0  0  0  0  0  0  0
  138.6670   77.1520  221.2800 C   0  0  0  0  0  0  0  0  0  0  0  0
  138.6980   78.2580  222.3090 C   0  0  0  0  0  0  0  0  0  0  0  0
  139.8080   78.3990  223.1670 C   0  0  0  0  0  0  0  0  0  0  0  0
  139.8370   79.4190  224.1230 C   0  0  0  0  0  0  0  0  0  0  0  0
  138.7760   80.3260  224.2110 C   0  0  0  0  0  0  0  0  0  0  0  0
  137.6780   80.2030  223.3560 C   0  0  0  0  0  0  0  0  0  0  0  0
  137.6370   79.1750  222.4080 C   0  0  0  0  0  0  0  0  0  0  0  0
  141.7083   73.1133  221.7919 H   0  0  0  0  0  0  0  0  0  0  0  0
  143.9845   72.4476  221.0105 H   0  0  0  0  0  0  0  0  0  0  0  0
  145.3490   74.0223  219.6345 H   0  0  0  0  0  0  0  0  0  0  0  0
  144.4497   76.2788  219.0569 H   0  0  0  0  0  0  0  0  0  0  0  0
  139.3995   79.0858  219.3619 H   0  0  0  0  0  0  0  0  0  0  0  0
  141.5550   80.5319  219.0632 H   0  0  0  0  0  0  0  0  0  0  0  0
  142.8791   78.6270  221.5835 H   0  0  0  0  0  0  0  0  0  0  0  0
  143.6164   79.2710  223.8825 H   0  0  0  0  0  0  0  0  0  0  0  0
  142.8881   81.4629  224.8416 H   0  0  0  0  0  0  0  0  0  0  0  0
  140.7029   82.3657  221.2947 H   0  0  0  0  0  0  0  0  0  0  0  0
  138.1364   77.5103  220.3855 H   0  0  0  0  0  0  0  0  0  0  0  0
  138.1513   76.2853  221.7191 H   0  0  0  0  0  0  0  0  0  0  0  0
  140.6556   77.7029  223.0839 H   0  0  0  0  0  0  0  0  0  0  0  0
  140.6946   79.5081  224.8061 H   0  0  0  0  0  0  0  0  0  0  0  0
  138.8061   81.1367  224.9539 H   0  0  0  0  0  0  0  0  0  0  0  0
  136.8437   80.9162  223.4284 H   0  0  0  0  0  0  0  0  0  0  0  0
  136.7703   79.0838  221.7368 H   0  0  0  0  0  0  0  0  0  0  0  0
  1  2  2  0
  2  3  1  0
  3  4  2  0
  4  5  1  0
  5  6  2  0
  6  7  1  0
  7  8  2  0
  8  9  1  0
  9 10  2  0
 10 11  1  0
 11 12  2  0
 12 13  1  0
 13 14  2  0
 14 15  1  0
 15 16  2  0
 16 17  1  0
 17 18  2  0
 10 19  1  0
 19 20  1  0
 20 21  1  0
 21 22  2  0
 22 23  1  0
 23 24  2  0
 24 25  1  0
 25 26  2  0
 19  2  1  0
 26 21  1  0
  8  3  1  0
 18 13  1  0
  4 27  1  0
  5 28  1  0
  6 29  1  0
  7 30  1  0
 11 31  1  0
 12 32  1  0
 14 33  1  0
 15 34  1  0
 16 35  1  0
 18 36  1  0
 20 37  1  0
 20 38  1  0
 22 39  1  0
 23 40  1  0
 24 41  1  0
 25 42  1  0
 26 43  1  0
M  END
>  <meeko>  (11) 
{"free_energy": -6.4, "intermolecular_energy": -7.9, "internal_energy": -1.91, "cluster_size": 5, "cluster_id": 5, "rank_in_cluster": 5}

$$$$

     RDKit          3D

 43 46  0  0  0  0  0  0  0  0999 V2000
  138.3730   75.7380  221.9500 O   0  0  0  0  0  0  0  0  0  0  0  0
  139.4620   75.2110  221.5840 C   0  0  0  0  0  0  0  0  0  0  0  0
  139.6610   73.8320  221.7740 C   0  0  0  0  0  0  0  0  0  0  0  0
  138.6790   73.0000  222.3440 C   0  0  0  0  0  0  0  0  0  0  0  0
  138.9200   71.6290  222.4950 C   0  0  0  0  0  0  0  0  0  0  0  0
  140.1380   71.0800  222.0810 C   0  0  0  0  0  0  0  0  0  0  0  0
  141.1220   71.9010  221.5220 C   0  0  0  0  0  0  0  0  0  0  0  0
  140.8860   73.2730  221.3680 C   0  0  0  0  0  0  0  0  0  0  0  0
  141.8400   74.0670  220.8280 N   0  0  0  0  0  0  0  0  0  0  0  0
  141.6420   75.3980  220.6490 C   0  0  0  0  0  0  0  0  0  0  0  0
  142.7410   76.1830  220.0640 C   0  0  0  0  0  0  0  0  0  0  0  0
  143.5850   75.6140  219.1940 C   0  0  0  0  0  0  0  0  0  0  0  0
  144.4400   74.4460  219.5290 C   0  0  0  0  0  0  0  0  0  0  0  0
  145.0030   74.3700  220.8140 C   0  0  0  0  0  0  0  0  0  0  0  0
  145.8640   73.3240  221.1440 C   0  0  0  0  0  0  0  0  0  0  0  0
  146.1420   72.3400  220.1920 C   0  0  0  0  0  0  0  0  0  0  0  0
  145.5730   72.4060  218.9570 N   0  0  0  0  0  0  0  0  0  0  0  0
  144.7360   73.4190  218.6090 C   0  0  0  0  0  0  0  0  0  0  0  0
  140.4450   75.9820  221.0060 N   0  0  0  0  0  0  0  0  0  0  0  0
  140.2140   77.4250  220.7680 C   0  0  0  0  0  0  0  0  0  0  0  0
  141.0070   78.2760  221.7320 C   0  0  0  0  0  0  0  0  0  0  0  0
  141.6430   79.4520  221.2860 C   0  0  0  0  0  0  0  0  0  0  0  0
  142.3810   80.2380  222.1760 C   0  0  0  0  0  0  0  0  0  0  0  0
  142.4640   79.8770  223.5250 C   0  0  0  0  0  0  0  0  0  0  0  0
  141.8260   78.7210  223.9800 C   0  0  0  0  0  0  0  0  0  0  0  0
  141.0990   77.9220  223.0900 C   0  0  0  0  0  0  0  0  0  0  0  0
  137.7200   73.4279  222.6716 H   0  0  0  0  0  0  0  0  0  0  0  0
  138.1497   70.9822  222.9402 H   0  0  0  0  0  0  0  0  0  0  0  0
  140.3219   70.0015  222.1953 H   0  0  0  0  0  0  0  0  0  0  0  0
  142.0821   71.4692  221.2030 H   0  0  0  0  0  0  0  0  0  0  0  0
  142.8693   77.2395  220.3421 H   0  0  0  0  0  0  0  0  0  0  0  0
  143.6486   76.0329  218.1789 H   0  0  0  0  0  0  0  0  0  0  0  0
  144.7635   75.1391  221.5631 H   0  0  0  0  0  0  0  0  0  0  0  0
  146.3198   73.2741  222.1439 H   0  0  0  0  0  0  0  0  0  0  0  0
  146.8212   71.5112  220.4405 H   0  0  0  0  0  0  0  0  0  0  0  0
  144.2873   73.4377  217.6048 H   0  0  0  0  0  0  0  0  0  0  0  0
  140.5175   77.6713  219.7398 H   0  0  0  0  0  0  0  0  0  0  0  0
  139.1448   77.6343  220.9198 H   0  0  0  0  0  0  0  0  0  0  0  0
  141.5582   79.7532  220.2314 H   0  0  0  0  0  0  0  0  0  0  0  0
  142.8965   81.1404  221.8155 H   0  0  0  0  0  0  0  0  0  0  0  0
  143.0322   80.5041  224.2278 H   0  0  0  0  0  0  0  0  0  0  0  0
  141.8950   78.4377  225.0406 H   0  0  0  0  0  0  0  0  0  0  0  0
  140.5974   77.0133  223.4542 H   0  0  0  0  0  0  0  0  0  0  0  0
  1  2  2  0
  2  3  1  0
  3  4  2  0
  4  5  1  0
  5  6  2  0
  6  7  1  0
  7  8  2  0
  8  9  1  0
  9 10  2  0
 10 11  1  0
 11 12  2  0
 12 13  1  0
 13 14  2  0
 14 15  1  0
 15 16  2  0
 16 17  1  0
 17 18  2  0
 10 19  1  0
 19 20  1  0
 20 21  1  0
 21 22  2  0
 22 23  1  0
 23 24  2  0
 24 25  1  0
 25 26  2  0
 19  2  1  0
 26 21  1  0
  8  3  1  0
 18 13  1  0
  4 27  1  0
  5 28  1  0
  6 29  1  0
  7 30  1  0
 11 31  1  0
 12 32  1  0
 14 33  1  0
 15 34  1  0
 16 35  1  0
 18 36  1  0
 20 37  1  0
 20 38  1  0
 22 39  1  0
 23 40  1  0
 24 41  1  0
 25 42  1  0
 26 43  1  0
M  END
>  <meeko>  (12) 
{"free_energy": -7.16, "intermolecular_energy": -8.65, "internal_energy": -1.33, "cluster_size": 7, "cluster_id": 2, "rank_in_cluster": 4}

$$$$

     RDKit          3D

 43 46  0  0  0  0  0  0  0  0999 V2000
  139.1810   67.5220  225.6440 O   0  0  0  0  0  0  0  0  0  0  0  0
  139.4760   68.6780  225.2300 C   0  0  0  0  0  0  0  0  0  0  0  0
  140.0070   69.6200  226.1290 C   0  0  0  0  0  0  0  0  0  0  0  0
  140.2440   69.3180  227.4840 C   0  0  0  0  0  0  0  0  0  0  0  0
  140.7910   70.2860  228.3340 C   0  0  0  0  0  0  0  0  0  0  0  0
  141.1040   71.5580  227.8430 C   0  0  0  0  0  0  0  0  0  0  0  0
  140.8640   71.8680  226.5010 C   0  0  0  0  0  0  0  0  0  0  0  0
  140.3170   70.9040  225.6450 C   0  0  0  0  0  0  0  0  0  0  0  0
  140.0840   71.2050  224.3470 N   0  0  0  0  0  0  0  0  0  0  0  0
  139.5700   70.2920  223.4840 C   0  0  0  0  0  0  0  0  0  0  0  0
  139.3400   70.7150  222.0930 C   0  0  0  0  0  0  0  0  0  0  0  0
  140.3170   71.3140  221.4020 C   0  0  0  0  0  0  0  0  0  0  0  0
  140.5480   72.7820  221.4170 C   0  0  0  0  0  0  0  0  0  0  0  0
  141.7210   73.2850  220.8300 C   0  0  0  0  0  0  0  0  0  0  0  0
  142.0040   74.6500  220.8830 C   0  0  0  0  0  0  0  0  0  0  0  0
  141.0990   75.5130  221.5050 C   0  0  0  0  0  0  0  0  0  0  0  0
  139.9510   75.0220  222.0480 N   0  0  0  0  0  0  0  0  0  0  0  0
  139.6560   73.6950  222.0160 C   0  0  0  0  0  0  0  0  0  0  0  0
  139.2790   69.0130  223.9100 N   0  0  0  0  0  0  0  0  0  0  0  0
  138.7610   68.0060  222.9570 C   0  0  0  0  0  0  0  0  0  0  0  0
  137.2650   68.1310  222.7810 C   0  0  0  0  0  0  0  0  0  0  0  0
  136.5230   69.0030  223.6040 C   0  0  0  0  0  0  0  0  0  0  0  0
  135.1390   69.1170  223.4460 C   0  0  0  0  0  0  0  0  0  0  0  0
  134.4860   68.3890  222.4460 C   0  0  0  0  0  0  0  0  0  0  0  0
  135.2140   67.5330  221.6150 C   0  0  0  0  0  0  0  0  0  0  0  0
  136.5980   67.4040  221.7790 C   0  0  0  0  0  0  0  0  0  0  0  0
  139.9988   68.3195  227.8750 H   0  0  0  0  0  0  0  0  0  0  0  0
  140.9754   70.0459  229.3915 H   0  0  0  0  0  0  0  0  0  0  0  0
  141.5390   72.3144  228.5129 H   0  0  0  0  0  0  0  0  0  0  0  0
  141.1051   72.8702  226.1171 H   0  0  0  0  0  0  0  0  0  0  0  0
  138.3626   70.5383  221.6203 H   0  0  0  0  0  0  0  0  0  0  0  0
  140.9836   70.6874  220.7913 H   0  0  0  0  0  0  0  0  0  0  0  0
  142.4190   72.5999  220.3266 H   0  0  0  0  0  0  0  0  0  0  0  0
  142.9308   75.0427  220.4393 H   0  0  0  0  0  0  0  0  0  0  0  0
  141.3139   76.5906  221.5563 H   0  0  0  0  0  0  0  0  0  0  0  0
  138.7171   73.3321  222.4595 H   0  0  0  0  0  0  0  0  0  0  0  0
  139.2494   68.1514  221.9821 H   0  0  0  0  0  0  0  0  0  0  0  0
  138.9798   67.0053  223.3580 H   0  0  0  0  0  0  0  0  0  0  0  0
  137.0363   69.5968  224.3747 H   0  0  0  0  0  0  0  0  0  0  0  0
  134.5629   69.7797  224.1085 H   0  0  0  0  0  0  0  0  0  0  0  0
  133.3987   68.4903  222.3135 H   0  0  0  0  0  0  0  0  0  0  0  0
  134.6983   66.9596  220.8306 H   0  0  0  0  0  0  0  0  0  0  0  0
  137.1667   66.7306  221.1209 H   0  0  0  0  0  0  0  0  0  0  0  0
  1  2  2  0
  2  3  1  0
  3  4  2  0
  4  5  1  0
  5  6  2  0
  6  7  1  0
  7  8  2  0
  8  9  1  0
  9 10  2  0
 10 11  1  0
 11 12  2  0
 12 13  1  0
 13 14  2  0
 14 15  1  0
 15 16  2  0
 16 17  1  0
 17 18  2  0
 10 19  1  0
 19 20  1  0
 20 21  1  0
 21 22  2  0
 22 23  1  0
 23 24  2  0
 24 25  1  0
 25 26  2  0
 19  2  1  0
 26 21  1  0
  8  3  1  0
 18 13  1  0
  4 27  1  0
  5 28  1  0
  6 29  1  0
  7 30  1  0
 11 31  1  0
 12 32  1  0
 14 33  1  0
 15 34  1  0
 16 35  1  0
 18 36  1  0
 20 37  1  0
 20 38  1  0
 22 39  1  0
 23 40  1  0
 24 41  1  0
 25 42  1  0
 26 43  1  0
M  END
>  <meeko>  (13) 
{"free_energy": -7.29, "intermolecular_energy": -8.79, "internal_energy": -1.21, "cluster_size": 3, "cluster_id": 1, "rank_in_cluster": 1}

$$$$

     RDKit          3D

 43 46  0  0  0  0  0  0  0  0999 V2000
  140.2460   71.8860  225.0770 O   0  0  0  0  0  0  0  0  0  0  0  0
  139.6860   70.7570  225.1700 C   0  0  0  0  0  0  0  0  0  0  0  0
  140.0280   69.9010  226.2320 C   0  0  0  0  0  0  0  0  0  0  0  0
  140.9660   70.2610  227.2180 C   0  0  0  0  0  0  0  0  0  0  0  0
  141.2580   69.3790  228.2650 C   0  0  0  0  0  0  0  0  0  0  0  0
  140.6210   68.1360  228.3360 C   0  0  0  0  0  0  0  0  0  0  0  0
  139.6940   67.7680  227.3570 C   0  0  0  0  0  0  0  0  0  0  0  0
  139.3980   68.6460  226.3070 C   0  0  0  0  0  0  0  0  0  0  0  0
  138.5020   68.2880  225.3580 N   0  0  0  0  0  0  0  0  0  0  0  0
  138.1770   69.1190  224.3340 C   0  0  0  0  0  0  0  0  0  0  0  0
  137.2010   68.6380  223.3430 C   0  0  0  0  0  0  0  0  0  0  0  0
  135.9820   69.1900  223.2760 C   0  0  0  0  0  0  0  0  0  0  0  0
  135.1880   69.5640  224.4750 C   0  0  0  0  0  0  0  0  0  0  0  0
  135.0040   70.9270  224.7620 C   0  0  0  0  0  0  0  0  0  0  0  0
  134.3210   71.3170  225.9150 C   0  0  0  0  0  0  0  0  0  0  0  0
  133.8030   70.3390  226.7670 C   0  0  0  0  0  0  0  0  0  0  0  0
  133.9610   69.0210  226.4680 N   0  0  0  0  0  0  0  0  0  0  0  0
  134.6290   68.6150  225.3560 C   0  0  0  0  0  0  0  0  0  0  0  0
  138.7500   70.3700  224.2400 N   0  0  0  0  0  0  0  0  0  0  0  0
  138.3600   71.2920  223.1480 C   0  0  0  0  0  0  0  0  0  0  0  0
  139.5610   71.7300  222.3430 C   0  0  0  0  0  0  0  0  0  0  0  0
  139.9600   73.0820  222.3400 C   0  0  0  0  0  0  0  0  0  0  0  0
  141.0680   73.4900  221.5910 C   0  0  0  0  0  0  0  0  0  0  0  0
  141.8070   72.5510  220.8660 C   0  0  0  0  0  0  0  0  0  0  0  0
  141.4280   71.2060  220.8720 C   0  0  0  0  0  0  0  0  0  0  0  0
  140.3110   70.7950  221.6080 C   0  0  0  0  0  0  0  0  0  0  0  0
  141.4704   71.2371  227.1656 H   0  0  0  0  0  0  0  0  0  0  0  0
  141.9907   69.6644  229.0342 H   0  0  0  0  0  0  0  0  0  0  0  0
  140.8497   67.4476  229.1629 H   0  0  0  0  0  0  0  0  0  0  0  0
  139.1967   66.7883  227.4112 H   0  0  0  0  0  0  0  0  0  0  0  0
  137.4730   67.8234  222.6557 H   0  0  0  0  0  0  0  0  0  0  0  0
  135.5469   69.3758  222.2829 H   0  0  0  0  0  0  0  0  0  0  0  0
  135.3998   71.6897  224.0753 H   0  0  0  0  0  0  0  0  0  0  0  0
  134.1920   72.3838  226.1503 H   0  0  0  0  0  0  0  0  0  0  0  0
  133.2667   70.6346  227.6808 H   0  0  0  0  0  0  0  0  0  0  0  0
  134.7341   67.5411  225.1422 H   0  0  0  0  0  0  0  0  0  0  0  0
  137.6504   70.7788  222.4823 H   0  0  0  0  0  0  0  0  0  0  0  0
  137.8985   72.1844  223.5958 H   0  0  0  0  0  0  0  0  0  0  0  0
  139.3967   73.8200  222.9300 H   0  0  0  0  0  0  0  0  0  0  0  0
  141.3583   74.5508  221.5724 H   0  0  0  0  0  0  0  0  0  0  0  0
  142.6879   72.8711  220.2901 H   0  0  0  0  0  0  0  0  0  0  0  0
  142.0085   70.4693  220.2973 H   0  0  0  0  0  0  0  0  0  0  0  0
  140.0182   69.7347  221.6115 H   0  0  0  0  0  0  0  0  0  0  0  0
  1  2  2  0
  2  3  1  0
  3  4  2  0
  4  5  1  0
  5  6  2  0
  6  7  1  0
  7  8  2  0
  8  9  1  0
  9 10  2  0
 10 11  1  0
 11 12  2  0
 12 13  1  0
 13 14  2  0
 14 15  1  0
 15 16  2  0
 16 17  1  0
 17 18  2  0
 10 19  1  0
 19 20  1  0
 20 21  1  0
 21 22  2  0
 22 23  1  0
 23 24  2  0
 24 25  1  0
 25 26  2  0
 19  2  1  0
 26 21  1  0
  8  3  1  0
 18 13  1  0
  4 27  1  0
  5 28  1  0
  6 29  1  0
  7 30  1  0
 11 31  1  0
 12 32  1  0
 14 33  1  0
 15 34  1  0
 16 35  1  0
 18 36  1  0
 20 37  1  0
 20 38  1  0
 22 39  1  0
 23 40  1  0
 24 41  1  0
 25 42  1  0
 26 43  1  0
M  END
>  <meeko>  (14) 
{"free_energy": -7.05, "intermolecular_energy": -8.54, "internal_energy": -1.34, "cluster_size": 4, "cluster_id": 3, "rank_in_cluster": 1}

$$$$

     RDKit          3D

 43 46  0  0  0  0  0  0  0  0999 V2000
  138.3840   75.7430  221.9300 O   0  0  0  0  0  0  0  0  0  0  0  0
  139.4690   75.2030  221.5740 C   0  0  0  0  0  0  0  0  0  0  0  0
  139.6520   73.8230  221.7740 C   0  0  0  0  0  0  0  0  0  0  0  0
  138.6570   73.0050  222.3430 C   0  0  0  0  0  0  0  0  0  0  0  0
  138.8820   71.6330  222.5040 C   0  0  0  0  0  0  0  0  0  0  0  0
  140.0960   71.0680  222.1010 C   0  0  0  0  0  0  0  0  0  0  0  0
  141.0930   71.8740  221.5430 C   0  0  0  0  0  0  0  0  0  0  0  0
  140.8730   73.2480  221.3800 C   0  0  0  0  0  0  0  0  0  0  0  0
  141.8390   74.0280  220.8410 N   0  0  0  0  0  0  0  0  0  0  0  0
  141.6560   75.3600  220.6520 C   0  0  0  0  0  0  0  0  0  0  0  0
  142.7680   76.1290  220.0690 C   0  0  0  0  0  0  0  0  0  0  0  0
  143.5970   75.5530  219.1900 C   0  0  0  0  0  0  0  0  0  0  0  0
  144.4530   74.3830  219.5190 C   0  0  0  0  0  0  0  0  0  0  0  0
  144.9970   74.2890  220.8110 C   0  0  0  0  0  0  0  0  0  0  0  0
  145.8580   73.2420  221.1370 C   0  0  0  0  0  0  0  0  0  0  0  0
  146.1550   72.2750  220.1730 C   0  0  0  0  0  0  0  0  0  0  0  0
  145.6040   72.3580  218.9310 N   0  0  0  0  0  0  0  0  0  0  0  0
  144.7670   73.3730  218.5870 C   0  0  0  0  0  0  0  0  0  0  0  0
  140.4630   75.9590  220.9980 N   0  0  0  0  0  0  0  0  0  0  0  0
  140.2500   77.4030  220.7490 C   0  0  0  0  0  0  0  0  0  0  0  0
  141.0500   78.2510  221.7100 C   0  0  0  0  0  0  0  0  0  0  0  0
  141.7490   79.3840  221.2470 C   0  0  0  0  0  0  0  0  0  0  0  0
  142.4930   80.1670  222.1340 C   0  0  0  0  0  0  0  0  0  0  0  0
  142.5200   79.8490  223.4960 C   0  0  0  0  0  0  0  0  0  0  0  0
  141.8190   78.7360  223.9680 C   0  0  0  0  0  0  0  0  0  0  0  0
  141.0850   77.9400  223.0810 C   0  0  0  0  0  0  0  0  0  0  0  0
  137.7007   73.4453  222.6617 H   0  0  0  0  0  0  0  0  0  0  0  0
  138.1019   70.9976  222.9487 H   0  0  0  0  0  0  0  0  0  0  0  0
  140.2668   69.9882  222.2231 H   0  0  0  0  0  0  0  0  0  0  0  0
  142.0499   71.4294  221.2321 H   0  0  0  0  0  0  0  0  0  0  0  0
  142.9180   77.1801  220.3567 H   0  0  0  0  0  0  0  0  0  0  0  0
  143.6474   75.9666  218.1720 H   0  0  0  0  0  0  0  0  0  0  0  0
  144.7425   75.0448  221.5686 H   0  0  0  0  0  0  0  0  0  0  0  0
  146.2990   73.1778  222.1427 H   0  0  0  0  0  0  0  0  0  0  0  0
  146.8349   71.4457  220.4181 H   0  0  0  0  0  0  0  0  0  0  0  0
  144.3329   73.4061  217.5768 H   0  0  0  0  0  0  0  0  0  0  0  0
  140.5600   77.6385  219.7202 H   0  0  0  0  0  0  0  0  0  0  0  0
  139.1829   77.6263  220.8954 H   0  0  0  0  0  0  0  0  0  0  0  0
  141.7087   79.6536  220.1813 H   0  0  0  0  0  0  0  0  0  0  0  0
  143.0578   81.0340  221.7608 H   0  0  0  0  0  0  0  0  0  0  0  0
  143.0931   80.4751  224.1956 H   0  0  0  0  0  0  0  0  0  0  0  0
  141.8441   78.4850  225.0387 H   0  0  0  0  0  0  0  0  0  0  0  0
  140.5327   77.0667  223.4583 H   0  0  0  0  0  0  0  0  0  0  0  0
  1  2  2  0
  2  3  1  0
  3  4  2  0
  4  5  1  0
  5  6  2  0
  6  7  1  0
  7  8  2  0
  8  9  1  0
  9 10  2  0
 10 11  1  0
 11 12  2  0
 12 13  1  0
 13 14  2  0
 14 15  1  0
 15 16  2  0
 16 17  1  0
 17 18  2  0
 10 19  1  0
 19 20  1  0
 20 21  1  0
 21 22  2  0
 22 23  1  0
 23 24  2  0
 24 25  1  0
 25 26  2  0
 19  2  1  0
 26 21  1  0
  8  3  1  0
 18 13  1  0
  4 27  1  0
  5 28  1  0
  6 29  1  0
  7 30  1  0
 11 31  1  0
 12 32  1  0
 14 33  1  0
 15 34  1  0
 16 35  1  0
 18 36  1  0
 20 37  1  0
 20 38  1  0
 22 39  1  0
 23 40  1  0
 24 41  1  0
 25 42  1  0
 26 43  1  0
M  END
>  <meeko>  (15) 
{"free_energy": -7.17, "intermolecular_energy": -8.66, "internal_energy": -1.33, "cluster_size": 7, "cluster_id": 2, "rank_in_cluster": 1}

$$$$

     RDKit          3D

 43 46  0  0  0  0  0  0  0  0999 V2000
  140.3010   72.0230  224.8660 O   0  0  0  0  0  0  0  0  0  0  0  0
  139.7060   70.9090  224.8940 C   0  0  0  0  0  0  0  0  0  0  0  0
  139.9890   70.0010  225.9310 C   0  0  0  0  0  0  0  0  0  0  0  0
  140.9030   70.2940  226.9610 C   0  0  0  0  0  0  0  0  0  0  0  0
  141.1370   69.3620  227.9790 C   0  0  0  0  0  0  0  0  0  0  0  0
  140.4630   68.1370  227.9790 C   0  0  0  0  0  0  0  0  0  0  0  0
  139.5590   67.8350  226.9560 C   0  0  0  0  0  0  0  0  0  0  0  0
  139.3210   68.7630  225.9340 C   0  0  0  0  0  0  0  0  0  0  0  0
  138.4470   68.4700  224.9440 N   0  0  0  0  0  0  0  0  0  0  0  0
  138.1800   69.3500  223.9450 C   0  0  0  0  0  0  0  0  0  0  0  0
  137.2230   68.9380  222.9050 C   0  0  0  0  0  0  0  0  0  0  0  0
  135.9590   68.6440  223.2320 C   0  0  0  0  0  0  0  0  0  0  0  0
  135.2360   69.2860  224.3610 C   0  0  0  0  0  0  0  0  0  0  0  0
  135.2270   70.6880  224.4430 C   0  0  0  0  0  0  0  0  0  0  0  0
  134.6160   71.3240  225.5240 C   0  0  0  0  0  0  0  0  0  0  0  0
  133.9940   70.5540  226.5090 C   0  0  0  0  0  0  0  0  0  0  0  0
  133.9840   69.1970  226.4090 N   0  0  0  0  0  0  0  0  0  0  0  0
  134.5780   68.5530  225.3700 C   0  0  0  0  0  0  0  0  0  0  0  0
  138.7900   70.5860  223.9200 N   0  0  0  0  0  0  0  0  0  0  0  0
  138.4630   71.5620  222.8550 C   0  0  0  0  0  0  0  0  0  0  0  0
  139.7070   72.0390  222.1430 C   0  0  0  0  0  0  0  0  0  0  0  0
  139.9410   73.4170  221.9670 C   0  0  0  0  0  0  0  0  0  0  0  0
  141.0900   73.8600  221.3040 C   0  0  0  0  0  0  0  0  0  0  0  0
  142.0310   72.9360  220.8410 C   0  0  0  0  0  0  0  0  0  0  0  0
  141.8150   71.5670  221.0220 C   0  0  0  0  0  0  0  0  0  0  0  0
  140.6600   71.1180  221.6720 C   0  0  0  0  0  0  0  0  0  0  0  0
  141.4343   71.2572  226.9658 H   0  0  0  0  0  0  0  0  0  0  0  0
  141.8531   69.5940  228.7811 H   0  0  0  0  0  0  0  0  0  0  0  0
  140.6441   67.4102  228.7846 H   0  0  0  0  0  0  0  0  0  0  0  0
  139.0344   66.8681  226.9537 H   0  0  0  0  0  0  0  0  0  0  0  0
  137.5478   68.8716  221.8561 H   0  0  0  0  0  0  0  0  0  0  0  0
  135.4278   67.8884  222.6346 H   0  0  0  0  0  0  0  0  0  0  0  0
  135.7032   71.2865  223.6524 H   0  0  0  0  0  0  0  0  0  0  0  0
  134.6241   72.4214  225.5997 H   0  0  0  0  0  0  0  0  0  0  0  0
  133.5115   71.0451  227.3669 H   0  0  0  0  0  0  0  0  0  0  0  0
  134.5453   67.4548  225.3159 H   0  0  0  0  0  0  0  0  0  0  0  0
  137.7938   71.0838  222.1246 H   0  0  0  0  0  0  0  0  0  0  0  0
  137.9757   72.4315  223.3203 H   0  0  0  0  0  0  0  0  0  0  0  0
  139.2160   74.1486  222.3532 H   0  0  0  0  0  0  0  0  0  0  0  0
  141.2533   74.9364  221.1468 H   0  0  0  0  0  0  0  0  0  0  0  0
  142.9421   73.2864  220.3339 H   0  0  0  0  0  0  0  0  0  0  0  0
  142.5544   70.8411  220.6528 H   0  0  0  0  0  0  0  0  0  0  0  0
  140.4966   70.0397  221.8153 H   0  0  0  0  0  0  0  0  0  0  0  0
  1  2  2  0
  2  3  1  0
  3  4  2  0
  4  5  1  0
  5  6  2  0
  6  7  1  0
  7  8  2  0
  8  9  1  0
  9 10  2  0
 10 11  1  0
 11 12  2  0
 12 13  1  0
 13 14  2  0
 14 15  1  0
 15 16  2  0
 16 17  1  0
 17 18  2  0
 10 19  1  0
 19 20  1  0
 20 21  1  0
 21 22  2  0
 22 23  1  0
 23 24  2  0
 24 25  1  0
 25 26  2  0
 19  2  1  0
 26 21  1  0
  8  3  1  0
 18 13  1  0
  4 27  1  0
  5 28  1  0
  6 29  1  0
  7 30  1  0
 11 31  1  0
 12 32  1  0
 14 33  1  0
 15 34  1  0
 16 35  1  0
 18 36  1  0
 20 37  1  0
 20 38  1  0
 22 39  1  0
 23 40  1  0
 24 41  1  0
 25 42  1  0
 26 43  1  0
M  END
>  <meeko>  (16) 
{"free_energy": -6.89, "intermolecular_energy": -8.39, "internal_energy": -1.4, "cluster_size": 4, "cluster_id": 3, "rank_in_cluster": 2}

$$$$

     RDKit          3D

 43 46  0  0  0  0  0  0  0  0999 V2000
  139.8530   74.5600  221.9290 O   0  0  0  0  0  0  0  0  0  0  0  0
  140.5720   75.3390  221.2410 C   0  0  0  0  0  0  0  0  0  0  0  0
  141.8600   74.9270  220.8530 C   0  0  0  0  0  0  0  0  0  0  0  0
  142.3790   73.6620  221.1850 C   0  0  0  0  0  0  0  0  0  0  0  0
  143.6610   73.2940  220.7590 C   0  0  0  0  0  0  0  0  0  0  0  0
  144.4310   74.1820  220.0010 C   0  0  0  0  0  0  0  0  0  0  0  0
  143.9260   75.4440  219.6740 C   0  0  0  0  0  0  0  0  0  0  0  0
  142.6450   75.8170  220.0970 C   0  0  0  0  0  0  0  0  0  0  0  0
  142.1570   77.0390  219.7810 N   0  0  0  0  0  0  0  0  0  0  0  0
  140.9130   77.4300  220.1610 C   0  0  0  0  0  0  0  0  0  0  0  0
  140.4730   78.7820  219.7800 C   0  0  0  0  0  0  0  0  0  0  0  0
  141.3000   79.8250  219.9270 C   0  0  0  0  0  0  0  0  0  0  0  0
  141.7470   80.3340  221.2500 C   0  0  0  0  0  0  0  0  0  0  0  0
  142.5590   79.5100  222.0470 C   0  0  0  0  0  0  0  0  0  0  0  0
  142.9440   79.9250  223.3220 C   0  0  0  0  0  0  0  0  0  0  0  0
  142.5340   81.1770  223.7870 C   0  0  0  0  0  0  0  0  0  0  0  0
  141.7700   81.9810  222.9980 N   0  0  0  0  0  0  0  0  0  0  0  0
  141.3750   81.5960  221.7550 C   0  0  0  0  0  0  0  0  0  0  0  0
  140.1000   76.5780  220.8770 N   0  0  0  0  0  0  0  0  0  0  0  0
  138.7270   76.9900  221.2510 C   0  0  0  0  0  0  0  0  0  0  0  0
  138.7440   78.1610  222.2050 C   0  0  0  0  0  0  0  0  0  0  0  0
  139.8040   78.3180  223.1200 C   0  0  0  0  0  0  0  0  0  0  0  0
  139.8190   79.3980  224.0080 C   0  0  0  0  0  0  0  0  0  0  0  0
  138.7960   80.3500  223.9680 C   0  0  0  0  0  0  0  0  0  0  0  0
  137.7470   80.2120  223.0550 C   0  0  0  0  0  0  0  0  0  0  0  0
  137.7190   79.1240  222.1760 C   0  0  0  0  0  0  0  0  0  0  0  0
  141.7762   72.9606  221.7806 H   0  0  0  0  0  0  0  0  0  0  0  0
  144.0634   72.3044  221.0211 H   0  0  0  0  0  0  0  0  0  0  0  0
  145.4350   73.8872  219.6618 H   0  0  0  0  0  0  0  0  0  0  0  0
  144.5357   76.1441  219.0840 H   0  0  0  0  0  0  0  0  0  0  0  0
  139.4625   78.9360  219.3736 H   0  0  0  0  0  0  0  0  0  0  0  0
  141.6674   80.3311  219.0221 H   0  0  0  0  0  0  0  0  0  0  0  0
  142.8924   78.5341  221.6643 H   0  0  0  0  0  0  0  0  0  0  0  0
  143.5641   79.2731  223.9548 H   0  0  0  0  0  0  0  0  0  0  0  0
  142.8289   81.5134  224.7919 H   0  0  0  0  0  0  0  0  0  0  0  0
  140.7624   82.2726  221.1410 H   0  0  0  0  0  0  0  0  0  0  0  0
  138.1792   77.2772  220.3414 H   0  0  0  0  0  0  0  0  0  0  0  0
  138.2353   76.1427  221.7514 H   0  0  0  0  0  0  0  0  0  0  0  0
  140.6251   77.5862  223.1358 H   0  0  0  0  0  0  0  0  0  0  0  0
  140.6357   79.4986  224.7380 H   0  0  0  0  0  0  0  0  0  0  0  0
  138.8168   81.2083  224.6557 H   0  0  0  0  0  0  0  0  0  0  0  0
  136.9415   80.9606  223.0274 H   0  0  0  0  0  0  0  0  0  0  0  0
  136.8914   79.0211  221.4587 H   0  0  0  0  0  0  0  0  0  0  0  0
  1  2  2  0
  2  3  1  0
  3  4  2  0
  4  5  1  0
  5  6  2  0
  6  7  1  0
  7  8  2  0
  8  9  1  0
  9 10  2  0
 10 11  1  0
 11 12  2  0
 12 13  1  0
 13 14  2  0
 14 15  1  0
 15 16  2  0
 16 17  1  0
 17 18  2  0
 10 19  1  0
 19 20  1  0
 20 21  1  0
 21 22  2  0
 22 23  1  0
 23 24  2  0
 24 25  1  0
 25 26  2  0
 19  2  1  0
 26 21  1  0
  8  3  1  0
 18 13  1  0
  4 27  1  0
  5 28  1  0
  6 29  1  0
  7 30  1  0
 11 31  1  0
 12 32  1  0
 14 33  1  0
 15 34  1  0
 16 35  1  0
 18 36  1  0
 20 37  1  0
 20 38  1  0
 22 39  1  0
 23 40  1  0
 24 41  1  0
 25 42  1  0
 26 43  1  0
M  END
>  <meeko>  (17) 
{"free_energy": -6.48, "intermolecular_energy": -7.97, "internal_energy": -1.85, "cluster_size": 5, "cluster_id": 5, "rank_in_cluster": 1}

$$$$

     RDKit          3D

 43 46  0  0  0  0  0  0  0  0999 V2000
  139.3860   67.0640  225.3460 O   0  0  0  0  0  0  0  0  0  0  0  0
  139.3120   68.3130  225.1670 C   0  0  0  0  0  0  0  0  0  0  0  0
  139.9000   69.1810  226.1040 C   0  0  0  0  0  0  0  0  0  0  0  0
  140.5920   68.7110  227.2370 C   0  0  0  0  0  0  0  0  0  0  0  0
  141.1740   69.6180  228.1310 C   0  0  0  0  0  0  0  0  0  0  0  0
  141.0710   70.9940  227.9030 C   0  0  0  0  0  0  0  0  0  0  0  0
  140.3780   71.4690  226.7860 C   0  0  0  0  0  0  0  0  0  0  0  0
  139.7940   70.5670  225.8880 C   0  0  0  0  0  0  0  0  0  0  0  0
  139.1220   71.0270  224.8070 N   0  0  0  0  0  0  0  0  0  0  0  0
  138.5560   70.1830  223.9060 C   0  0  0  0  0  0  0  0  0  0  0  0
  137.8360   70.7760  222.7680 C   0  0  0  0  0  0  0  0  0  0  0  0
  136.5030   70.9010  222.8050 C   0  0  0  0  0  0  0  0  0  0  0  0
  135.6340   70.1060  223.7120 C   0  0  0  0  0  0  0  0  0  0  0  0
  135.3450   70.6190  224.9870 C   0  0  0  0  0  0  0  0  0  0  0  0
  134.5880   69.8720  225.8900 C   0  0  0  0  0  0  0  0  0  0  0  0
  134.1000   68.6210  225.5040 C   0  0  0  0  0  0  0  0  0  0  0  0
  134.3620   68.1430  224.2570 N   0  0  0  0  0  0  0  0  0  0  0  0
  135.1030   68.8480  223.3620 C   0  0  0  0  0  0  0  0  0  0  0  0
  138.6610   68.8170  224.0650 N   0  0  0  0  0  0  0  0  0  0  0  0
  138.0820   67.8990  223.0580 C   0  0  0  0  0  0  0  0  0  0  0  0
  139.0690   67.6000  221.9540 C   0  0  0  0  0  0  0  0  0  0  0  0
  139.3990   66.2670  221.6370 C   0  0  0  0  0  0  0  0  0  0  0  0
  140.3160   65.9880  220.6190 C   0  0  0  0  0  0  0  0  0  0  0  0
  140.8870   67.0330  219.8860 C   0  0  0  0  0  0  0  0  0  0  0  0
  140.5570   68.3580  220.1830 C   0  0  0  0  0  0  0  0  0  0  0  0
  139.6510   68.6430  221.2110 C   0  0  0  0  0  0  0  0  0  0  0  0
  140.6754   67.6295  227.4199 H   0  0  0  0  0  0  0  0  0  0  0  0
  141.7136   69.2473  229.0150 H   0  0  0  0  0  0  0  0  0  0  0  0
  141.5359   71.7033  228.6036 H   0  0  0  0  0  0  0  0  0  0  0  0
  140.2913   72.5517  226.6122 H   0  0  0  0  0  0  0  0  0  0  0  0
  138.3943   71.1178  221.8840 H   0  0  0  0  0  0  0  0  0  0  0  0
  136.0275   71.6283  222.1305 H   0  0  0  0  0  0  0  0  0  0  0  0
  135.7169   71.6134  225.2748 H   0  0  0  0  0  0  0  0  0  0  0  0
  134.3774   70.2641  226.8959 H   0  0  0  0  0  0  0  0  0  0  0  0
  133.5038   68.0222  226.2083 H   0  0  0  0  0  0  0  0  0  0  0  0
  135.2893   68.4349  222.3597 H   0  0  0  0  0  0  0  0  0  0  0  0
  137.8009   66.9571  223.5518 H   0  0  0  0  0  0  0  0  0  0  0  0
  137.2007   68.3840  222.6130 H   0  0  0  0  0  0  0  0  0  0  0  0
  138.9323   65.4411  222.1938 H   0  0  0  0  0  0  0  0  0  0  0  0
  140.5883   64.9461  220.3947 H   0  0  0  0  0  0  0  0  0  0  0  0
  141.5965   66.8119  219.0750 H   0  0  0  0  0  0  0  0  0  0  0  0
  141.0102   69.1787  219.6077 H   0  0  0  0  0  0  0  0  0  0  0  0
  139.3928   69.6877  221.4390 H   0  0  0  0  0  0  0  0  0  0  0  0
  1  2  2  0
  2  3  1  0
  3  4  2  0
  4  5  1  0
  5  6  2  0
  6  7  1  0
  7  8  2  0
  8  9  1  0
  9 10  2  0
 10 11  1  0
 11 12  2  0
 12 13  1  0
 13 14  2  0
 14 15  1  0
 15 16  2  0
 16 17  1  0
 17 18  2  0
 10 19  1  0
 19 20  1  0
 20 21  1  0
 21 22  2  0
 22 23  1  0
 23 24  2  0
 24 25  1  0
 25 26  2  0
 19  2  1  0
 26 21  1  0
  8  3  1  0
 18 13  1  0
  4 27  1  0
  5 28  1  0
  6 29  1  0
  7 30  1  0
 11 31  1  0
 12 32  1  0
 14 33  1  0
 15 34  1  0
 16 35  1  0
 18 36  1  0
 20 37  1  0
 20 38  1  0
 22 39  1  0
 23 40  1  0
 24 41  1  0
 25 42  1  0
 26 43  1  0
M  END
>  <meeko>  (18) 
{"free_energy": -6.77, "intermolecular_energy": -8.26, "internal_energy": -1.51, "cluster_size": 1, "cluster_id": 4, "rank_in_cluster": 1}

$$$$

     RDKit          3D

 43 46  0  0  0  0  0  0  0  0999 V2000
  138.3890   75.7690  221.9240 O   0  0  0  0  0  0  0  0  0  0  0  0
  139.4730   75.2250  221.5690 C   0  0  0  0  0  0  0  0  0  0  0  0
  139.6520   73.8450  221.7730 C   0  0  0  0  0  0  0  0  0  0  0  0
  138.6550   73.0320  222.3460 C   0  0  0  0  0  0  0  0  0  0  0  0
  138.8770   71.6600  222.5110 C   0  0  0  0  0  0  0  0  0  0  0  0
  140.0900   71.0900  222.1090 C   0  0  0  0  0  0  0  0  0  0  0  0
  141.0880   71.8920  221.5470 C   0  0  0  0  0  0  0  0  0  0  0  0
  140.8710   73.2650  221.3790 C   0  0  0  0  0  0  0  0  0  0  0  0
  141.8380   74.0410  220.8360 N   0  0  0  0  0  0  0  0  0  0  0  0
  141.6590   75.3730  220.6430 C   0  0  0  0  0  0  0  0  0  0  0  0
  142.7720   76.1380  220.0570 C   0  0  0  0  0  0  0  0  0  0  0  0
  143.5920   75.5590  219.1710 C   0  0  0  0  0  0  0  0  0  0  0  0
  144.4500   74.3890  219.4940 C   0  0  0  0  0  0  0  0  0  0  0  0
  144.9960   74.2910  220.7850 C   0  0  0  0  0  0  0  0  0  0  0  0
  145.8590   73.2440  221.1050 C   0  0  0  0  0  0  0  0  0  0  0  0
  146.1560   72.2810  220.1370 C   0  0  0  0  0  0  0  0  0  0  0  0
  145.6020   72.3680  218.8970 N   0  0  0  0  0  0  0  0  0  0  0  0
  144.7640   73.3830  218.5580 C   0  0  0  0  0  0  0  0  0  0  0  0
  140.4680   75.9760  220.9890 N   0  0  0  0  0  0  0  0  0  0  0  0
  140.2580   77.4200  220.7360 C   0  0  0  0  0  0  0  0  0  0  0  0
  141.0440   78.2700  221.7070 C   0  0  0  0  0  0  0  0  0  0  0  0
  141.0980   77.9230  223.0720 C   0  0  0  0  0  0  0  0  0  0  0  0
  141.8200   78.7110  223.9740 C   0  0  0  0  0  0  0  0  0  0  0  0
  142.5220   79.8310  223.5180 C   0  0  0  0  0  0  0  0  0  0  0  0
  142.4870   80.1750  222.1640 C   0  0  0  0  0  0  0  0  0  0  0  0
  141.7530   79.3990  221.2610 C   0  0  0  0  0  0  0  0  0  0  0  0
  137.7003   73.4760  222.6644 H   0  0  0  0  0  0  0  0  0  0  0  0
  138.0956   71.0279  222.9581 H   0  0  0  0  0  0  0  0  0  0  0  0
  140.2585   70.0103  222.2352 H   0  0  0  0  0  0  0  0  0  0  0  0
  142.0437   71.4442  221.2368 H   0  0  0  0  0  0  0  0  0  0  0  0
  142.9302   77.1871  220.3476 H   0  0  0  0  0  0  0  0  0  0  0  0
  143.6328   75.9703  218.1516 H   0  0  0  0  0  0  0  0  0  0  0  0
  144.7415   75.0433  221.5461 H   0  0  0  0  0  0  0  0  0  0  0  0
  146.3018   73.1766  222.1097 H   0  0  0  0  0  0  0  0  0  0  0  0
  146.8380   71.4521  220.3774 H   0  0  0  0  0  0  0  0  0  0  0  0
  144.3288   73.4195  217.5484 H   0  0  0  0  0  0  0  0  0  0  0  0
  140.5821   77.6546  219.7113 H   0  0  0  0  0  0  0  0  0  0  0  0
  139.1889   77.6426  220.8679 H   0  0  0  0  0  0  0  0  0  0  0  0
  140.5692   77.0273  223.4299 H   0  0  0  0  0  0  0  0  0  0  0  0
  141.8356   78.4497  225.0424 H   0  0  0  0  0  0  0  0  0  0  0  0
  143.1021   80.4417  224.2255 H   0  0  0  0  0  0  0  0  0  0  0  0
  143.0379   81.0579  221.8076 H   0  0  0  0  0  0  0  0  0  0  0  0
  141.7304   79.6736  220.1961 H   0  0  0  0  0  0  0  0  0  0  0  0
  1  2  2  0
  2  3  1  0
  3  4  2  0
  4  5  1  0
  5  6  2  0
  6  7  1  0
  7  8  2  0
  8  9  1  0
  9 10  2  0
 10 11  1  0
 11 12  2  0
 12 13  1  0
 13 14  2  0
 14 15  1  0
 15 16  2  0
 16 17  1  0
 17 18  2  0
 10 19  1  0
 19 20  1  0
 20 21  1  0
 21 22  2  0
 22 23  1  0
 23 24  2  0
 24 25  1  0
 25 26  2  0
 19  2  1  0
 26 21  1  0
  8  3  1  0
 18 13  1  0
  4 27  1  0
  5 28  1  0
  6 29  1  0
  7 30  1  0
 11 31  1  0
 12 32  1  0
 14 33  1  0
 15 34  1  0
 16 35  1  0
 18 36  1  0
 20 37  1  0
 20 38  1  0
 22 39  1  0
 23 40  1  0
 24 41  1  0
 25 42  1  0
 26 43  1  0
M  END
>  <meeko>  (19) 
{"free_energy": -7.16, "intermolecular_energy": -8.65, "internal_energy": -1.33, "cluster_size": 7, "cluster_id": 2, "rank_in_cluster": 2}

$$$$

     RDKit          3D

 43 46  0  0  0  0  0  0  0  0999 V2000
  139.8370   74.5690  221.9030 O   0  0  0  0  0  0  0  0  0  0  0  0
  140.5880   75.3230  221.2200 C   0  0  0  0  0  0  0  0  0  0  0  0
  141.8720   74.8760  220.8600 C   0  0  0  0  0  0  0  0  0  0  0  0
  142.3550   73.6030  221.2170 C   0  0  0  0  0  0  0  0  0  0  0  0
  143.6350   73.2000  220.8190 C   0  0  0  0  0  0  0  0  0  0  0  0
  144.4400   74.0600  220.0660 C   0  0  0  0  0  0  0  0  0  0  0  0
  143.9720   75.3290  219.7140 C   0  0  0  0  0  0  0  0  0  0  0  0
  142.6920   75.7380  220.1090 C   0  0  0  0  0  0  0  0  0  0  0  0
  142.2390   76.9680  219.7700 N   0  0  0  0  0  0  0  0  0  0  0  0
  140.9980   77.3930  220.1220 C   0  0  0  0  0  0  0  0  0  0  0  0
  140.5980   78.7500  219.7180 C   0  0  0  0  0  0  0  0  0  0  0  0
  141.4350   79.7800  219.8960 C   0  0  0  0  0  0  0  0  0  0  0  0
  141.8180   80.3000  221.2350 C   0  0  0  0  0  0  0  0  0  0  0  0
  142.5700   79.4750  222.0870 C   0  0  0  0  0  0  0  0  0  0  0  0
  142.8900   79.9030  223.3760 C   0  0  0  0  0  0  0  0  0  0  0  0
  142.4770   81.1670  223.8000 C   0  0  0  0  0  0  0  0  0  0  0  0
  141.7710   81.9720  222.9590 N   0  0  0  0  0  0  0  0  0  0  0  0
  141.4400   81.5760  221.7010 C   0  0  0  0  0  0  0  0  0  0  0  0
  140.1520   76.5690  220.8330 N   0  0  0  0  0  0  0  0  0  0  0  0
  138.7830   77.0170  221.1760 C   0  0  0  0  0  0  0  0  0  0  0  0
  138.8110   78.2100  222.1040 C   0  0  0  0  0  0  0  0  0  0  0  0
  137.8650   79.2450  221.9590 C   0  0  0  0  0  0  0  0  0  0  0  0
  137.8920   80.3520  222.8140 C   0  0  0  0  0  0  0  0  0  0  0  0
  138.8400   80.4210  223.8400 C   0  0  0  0  0  0  0  0  0  0  0  0
  139.7740   79.3930  224.0000 C   0  0  0  0  0  0  0  0  0  0  0  0
  139.7600   78.2910  223.1370 C   0  0  0  0  0  0  0  0  0  0  0  0
  141.7252   72.9235  221.8100 H   0  0  0  0  0  0  0  0  0  0  0  0
  144.0085   72.2041  221.0994 H   0  0  0  0  0  0  0  0  0  0  0  0
  145.4431   73.7374  219.7501 H   0  0  0  0  0  0  0  0  0  0  0  0
  144.6090   76.0067  219.1267 H   0  0  0  0  0  0  0  0  0  0  0  0
  139.6084   78.9190  219.2684 H   0  0  0  0  0  0  0  0  0  0  0  0
  141.8609   80.2662  219.0059 H   0  0  0  0  0  0  0  0  0  0  0  0
  142.9078   78.4883  221.7372 H   0  0  0  0  0  0  0  0  0  0  0  0
  143.4624   79.2504  224.0516 H   0  0  0  0  0  0  0  0  0  0  0  0
  142.7222   81.5132  224.8149 H   0  0  0  0  0  0  0  0  0  0  0  0
  140.8751   82.2538  221.0442 H   0  0  0  0  0  0  0  0  0  0  0  0
  138.2548   77.2944  220.2518 H   0  0  0  0  0  0  0  0  0  0  0  0
  138.2659   76.1918  221.6875 H   0  0  0  0  0  0  0  0  0  0  0  0
  137.1016   79.1819  221.1695 H   0  0  0  0  0  0  0  0  0  0  0  0
  137.1673   81.1685  222.6793 H   0  0  0  0  0  0  0  0  0  0  0  0
  138.8507   81.2845  224.5214 H   0  0  0  0  0  0  0  0  0  0  0  0
  140.5211   79.4503  224.8054 H   0  0  0  0  0  0  0  0  0  0  0  0
  140.4959   77.4840  223.2682 H   0  0  0  0  0  0  0  0  0  0  0  0
  1  2  2  0
  2  3  1  0
  3  4  2  0
  4  5  1  0
  5  6  2  0
  6  7  1  0
  7  8  2  0
  8  9  1  0
  9 10  2  0
 10 11  1  0
 11 12  2  0
 12 13  1  0
 13 14  2  0
 14 15  1  0
 15 16  2  0
 16 17  1  0
 17 18  2  0
 10 19  1  0
 19 20  1  0
 20 21  1  0
 21 22  2  0
 22 23  1  0
 23 24  2  0
 24 25  1  0
 25 26  2  0
 19  2  1  0
 26 21  1  0
  8  3  1  0
 18 13  1  0
  4 27  1  0
  5 28  1  0
  6 29  1  0
  7 30  1  0
 11 31  1  0
 12 32  1  0
 14 33  1  0
 15 34  1  0
 16 35  1  0
 18 36  1  0
 20 37  1  0
 20 38  1  0
 22 39  1  0
 23 40  1  0
 24 41  1  0
 25 42  1  0
 26 43  1  0
M  END
>  <meeko>  (20) 
{"free_energy": -6.43, "intermolecular_energy": -7.93, "internal_energy": -1.9, "cluster_size": 5, "cluster_id": 5, "rank_in_cluster": 3}

$$$$
