
     RDKit          3D

 43 46  0  0  0  0  0  0  0  0999 V2000
  133.8280   68.0810  225.8460 H   0  0  0  0  0  0  0  0  0  0  0  0
  133.4900   68.8960  226.4010 N   0  0  0  0  0  0  0  0  0  0  0  0
  133.8190   70.1330  226.1860 C   0  0  0  0  0  0  0  0  0  0  0  0
  133.1220   71.0980  226.8420 N   0  0  0  0  0  0  0  0  0  0  0  0
  133.3420   72.4170  226.6400 C   0  0  0  0  0  0  0  0  0  0  0  0
  132.6290   73.3370  227.3210 N   0  0  0  0  0  0  0  0  0  0  0  0
  132.8250   74.6660  227.1310 C   0  0  0  0  0  0  0  0  0  0  0  0
  132.0520   75.5670  227.8720 C   0  0  0  0  0  0  0  0  0  0  0  0
  132.2300   76.9350  227.6970 C   0  0  0  0  0  0  0  0  0  0  0  0
  133.1730   77.3950  226.7860 C   0  0  0  0  0  0  0  0  0  0  0  0
  133.9330   76.4790  226.0570 C   0  0  0  0  0  0  0  0  0  0  0  0
  133.7640   75.1260  226.2250 N   0  0  0  0  0  0  0  0  0  0  0  0
  134.5270   74.2450  225.4900 C   0  0  0  0  0  0  0  0  0  0  0  0
  135.4610   74.7500  224.5750 O   0  0  0  0  0  0  0  0  0  0  0  0
  134.3550   72.8550  225.6700 C   0  0  0  0  0  0  0  0  0  0  0  0
  135.0820   71.8580  225.0050 C   0  0  0  0  0  0  0  0  0  0  0  0
  134.8400   70.4960  225.2630 C   0  0  0  0  0  0  0  0  0  0  0  0
  135.6940   69.5000  224.5780 C   0  0  0  0  0  0  0  0  0  0  0  0
  135.2100   68.4010  224.1960 O   0  0  0  0  0  0  0  0  0  0  0  0
  137.0910   69.7650  224.4080 N   0  0  0  0  0  0  0  0  0  0  0  0
  138.1450   68.8810  224.8990 C   0  0  1  0  0  0  0  0  0  0  0  0
  138.8710   68.2490  223.7120 C   0  0  0  0  0  0  0  0  0  0  0  0
  139.1200   69.6480  225.7660 C   0  0  0  0  0  0  0  0  0  0  0  0
  139.8800   70.7060  225.2340 C   0  0  0  0  0  0  0  0  0  0  0  0
  140.7880   71.3980  226.0390 C   0  0  0  0  0  0  0  0  0  0  0  0
  140.9530   71.0370  227.3780 C   0  0  0  0  0  0  0  0  0  0  0  0
  140.2130   69.9810  227.9140 C   0  0  0  0  0  0  0  0  0  0  0  0
  139.3020   69.2850  227.1130 C   0  0  0  0  0  0  0  0  0  0  0  0
  131.3065   75.1946  228.5900 H   0  0  0  0  0  0  0  0  0  0  0  0
  131.6273   77.6494  228.2769 H   0  0  0  0  0  0  0  0  0  0  0  0
  133.3198   78.4754  226.6401 H   0  0  0  0  0  0  0  0  0  0  0  0
  134.6789   76.8461  225.3367 H   0  0  0  0  0  0  0  0  0  0  0  0
  136.3650   74.3410  224.3880 H   0  0  0  0  0  0  0  0  0  0  0  0
  135.8512   72.1438  224.2724 H   0  0  0  0  0  0  0  0  0  0  0  0
  137.6932   68.0875  225.5125 H   0  0  0  0  0  0  0  0  0  0  0  0
  139.6528   67.5685  224.0804 H   0  0  0  0  0  0  0  0  0  0  0  0
  138.1517   67.6844  223.1006 H   0  0  0  0  0  0  0  0  0  0  0  0
  139.3311   69.0392  223.1006 H   0  0  0  0  0  0  0  0  0  0  0  0
  139.7584   70.9898  224.1782 H   0  0  0  0  0  0  0  0  0  0  0  0
  141.3738   72.2283  225.6177 H   0  0  0  0  0  0  0  0  0  0  0  0
  141.6665   71.5850  228.0110 H   0  0  0  0  0  0  0  0  0  0  0  0
  140.3468   69.6961  228.9680 H   0  0  0  0  0  0  0  0  0  0  0  0
  138.7253   68.4502  227.5380 H   0  0  0  0  0  0  0  0  0  0  0  0
  1  2  1  0
  2  3  2  0
  3  4  1  0
  4  5  2  0
  5  6  1  0
  6  7  2  0
  7  8  1  0
  8  9  2  0
  9 10  1  0
 10 11  2  0
 11 12  1  0
 12 13  1  0
 13 14  1  0
 13 15  2  0
 15 16  1  0
 16 17  2  0
 17 18  1  0
 18 19  2  0
 18 20  1  0
 20 21  1  0
 21 22  1  0
 21 23  1  0
 23 24  2  0
 24 25  1  0
 25 26  2  0
 26 27  1  0
 27 28  2  0
 17  3  1  0
 28 23  1  0
 15  5  1  0
 12  7  1  0
  8 29  1  0
  9 30  1  0
 10 31  1  0
 11 32  1  0
 14 33  1  0
 16 34  1  0
 21 35  1  1
 22 36  1  0
 22 37  1  0
 22 38  1  0
 24 39  1  0
 25 40  1  0
 26 41  1  0
 27 42  1  0
 28 43  1  0
M  CHG  1  20  -1
M  END
>  <meeko>  (1) 
{"free_energy": -7.93, "intermolecular_energy": -9.72, "internal_energy": -0.95, "cluster_size": 11, "cluster_id": 1, "rank_in_cluster": 6}

$$$$

     RDKit          3D

 43 46  0  0  0  0  0  0  0  0999 V2000
  134.4250   67.1220  224.5650 H   0  0  0  0  0  0  0  0  0  0  0  0
  134.3320   67.7360  225.4020 N   0  0  0  0  0  0  0  0  0  0  0  0
  134.5010   69.0230  225.4070 C   0  0  0  0  0  0  0  0  0  0  0  0
  133.6010   69.7780  226.0900 N   0  0  0  0  0  0  0  0  0  0  0  0
  133.6500   71.1300  226.1050 C   0  0  0  0  0  0  0  0  0  0  0  0
  132.7380   71.8360  226.8030 N   0  0  0  0  0  0  0  0  0  0  0  0
  132.7600   73.1920  226.8270 C   0  0  0  0  0  0  0  0  0  0  0  0
  131.7840   73.8610  227.5740 C   0  0  0  0  0  0  0  0  0  0  0  0
  131.7810   75.2510  227.6150 C   0  0  0  0  0  0  0  0  0  0  0  0
  132.7470   75.9630  226.9140 C   0  0  0  0  0  0  0  0  0  0  0  0
  133.7110   75.2750  226.1750 C   0  0  0  0  0  0  0  0  0  0  0  0
  133.7210   73.9020  226.1290 N   0  0  0  0  0  0  0  0  0  0  0  0
  134.6830   73.2480  225.3900 C   0  0  0  0  0  0  0  0  0  0  0  0
  135.6330   74.0040  224.6890 O   0  0  0  0  0  0  0  0  0  0  0  0
  134.6940   71.8370  225.3500 C   0  0  0  0  0  0  0  0  0  0  0  0
  135.6300   71.0560  224.6590 C   0  0  0  0  0  0  0  0  0  0  0  0
  135.5580   69.6500  224.6910 C   0  0  0  0  0  0  0  0  0  0  0  0
  136.6210   68.8890  223.9970 C   0  0  0  0  0  0  0  0  0  0  0  0
  136.3840   68.3250  222.8950 O   0  0  0  0  0  0  0  0  0  0  0  0
  137.9040   68.7420  224.6160 N   0  0  0  0  0  0  0  0  0  0  0  0
  139.0490   69.5960  224.3120 C   0  0  1  0  0  0  0  0  0  0  0  0
  138.5960   70.7590  223.4300 C   0  0  0  0  0  0  0  0  0  0  0  0
  139.6760   70.1160  225.5880 C   0  0  0  0  0  0  0  0  0  0  0  0
  139.4340   69.4810  226.8200 C   0  0  0  0  0  0  0  0  0  0  0  0
  140.0060   69.9770  227.9950 C   0  0  0  0  0  0  0  0  0  0  0  0
  140.8160   71.1140  227.9530 C   0  0  0  0  0  0  0  0  0  0  0  0
  141.0540   71.7590  226.7380 C   0  0  0  0  0  0  0  0  0  0  0  0
  140.4850   71.2660  225.5590 C   0  0  0  0  0  0  0  0  0  0  0  0
  131.0229   73.2902  228.1261 H   0  0  0  0  0  0  0  0  0  0  0  0
  131.0173   75.7847  228.1998 H   0  0  0  0  0  0  0  0  0  0  0  0
  132.7519   77.0626  226.9413 H   0  0  0  0  0  0  0  0  0  0  0  0
  134.4744   75.8410  225.6210 H   0  0  0  0  0  0  0  0  0  0  0  0
  136.5070   73.6440  224.3330 H   0  0  0  0  0  0  0  0  0  0  0  0
  136.4300   71.5467  224.0851 H   0  0  0  0  0  0  0  0  0  0  0  0
  139.8055   69.0059  223.7739 H   0  0  0  0  0  0  0  0  0  0  0  0
  138.2701   71.5957  224.0653 H   0  0  0  0  0  0  0  0  0  0  0  0
  139.4328   71.0852  222.7949 H   0  0  0  0  0  0  0  0  0  0  0  0
  137.7590   70.4332  222.7949 H   0  0  0  0  0  0  0  0  0  0  0  0
  138.7911   68.5893  226.8587 H   0  0  0  0  0  0  0  0  0  0  0  0
  139.8180   69.4714  228.9536 H   0  0  0  0  0  0  0  0  0  0  0  0
  141.2669   71.5017  228.8784 H   0  0  0  0  0  0  0  0  0  0  0  0
  141.6898   72.6561  226.7077 H   0  0  0  0  0  0  0  0  0  0  0  0
  140.6712   71.7803  224.6046 H   0  0  0  0  0  0  0  0  0  0  0  0
  1  2  1  0
  2  3  2  0
  3  4  1  0
  4  5  2  0
  5  6  1  0
  6  7  2  0
  7  8  1  0
  8  9  2  0
  9 10  1  0
 10 11  2  0
 11 12  1  0
 12 13  1  0
 13 14  1  0
 13 15  2  0
 15 16  1  0
 16 17  2  0
 17 18  1  0
 18 19  2  0
 18 20  1  0
 20 21  1  0
 21 22  1  0
 21 23  1  0
 23 24  2  0
 24 25  1  0
 25 26  2  0
 26 27  1  0
 27 28  2  0
 17  3  1  0
 28 23  1  0
 15  5  1  0
 12  7  1  0
  8 29  1  0
  9 30  1  0
 10 31  1  0
 11 32  1  0
 14 33  1  0
 16 34  1  0
 21 35  1  6
 22 36  1  0
 22 37  1  0
 22 38  1  0
 24 39  1  0
 25 40  1  0
 26 41  1  0
 27 42  1  0
 28 43  1  0
M  CHG  1  20  -1
M  END
>  <meeko>  (2) 
{"free_energy": -7.59, "intermolecular_energy": -9.38, "internal_energy": -0.54, "cluster_size": 11, "cluster_id": 1, "rank_in_cluster": 11}

$$$$

     RDKit          3D

 43 46  0  0  0  0  0  0  0  0999 V2000
  139.1320   80.6300  220.6150 H   0  0  0  0  0  0  0  0  0  0  0  0
  139.8530   79.9910  220.2170 N   0  0  0  0  0  0  0  0  0  0  0  0
  140.0620   78.7690  220.6030 C   0  0  0  0  0  0  0  0  0  0  0  0
  141.1580   78.1290  220.1160 N   0  0  0  0  0  0  0  0  0  0  0  0
  141.4320   76.8360  220.4050 C   0  0  0  0  0  0  0  0  0  0  0  0
  142.5350   76.2460  219.9030 N   0  0  0  0  0  0  0  0  0  0  0  0
  142.8280   74.9490  220.1710 C   0  0  0  0  0  0  0  0  0  0  0  0
  143.9910   74.4010  219.6190 C   0  0  0  0  0  0  0  0  0  0  0  0
  144.3160   73.0730  219.8740 C   0  0  0  0  0  0  0  0  0  0  0  0
  143.4820   72.3030  220.6760 C   0  0  0  0  0  0  0  0  0  0  0  0
  142.3270   72.8700  221.2170 C   0  0  0  0  0  0  0  0  0  0  0  0
  141.9990   74.1820  220.9690 N   0  0  0  0  0  0  0  0  0  0  0  0
  140.8520   74.7150  221.5140 C   0  0  0  0  0  0  0  0  0  0  0  0
  140.0330   73.9020  222.3090 O   0  0  0  0  0  0  0  0  0  0  0  0
  140.5220   76.0640  221.2620 C   0  0  0  0  0  0  0  0  0  0  0  0
  139.4010   76.7310  221.7760 C   0  0  0  0  0  0  0  0  0  0  0  0
  139.1660   78.0850  221.4710 C   0  0  0  0  0  0  0  0  0  0  0  0
  138.0020   78.7440  222.1050 C   0  0  0  0  0  0  0  0  0  0  0  0
  137.0200   78.0590  222.5010 O   0  0  0  0  0  0  0  0  0  0  0  0
  137.9660   80.1720  222.2070 N   0  0  0  0  0  0  0  0  0  0  0  0
  138.6340   80.9210  223.2680 C   0  0  1  0  0  0  0  0  0  0  0  0
  137.9480   80.6350  224.6020 C   0  0  0  0  0  0  0  0  0  0  0  0
  140.1000   80.5490  223.3380 C   0  0  0  0  0  0  0  0  0  0  0  0
  141.0750   81.3380  222.7000 C   0  0  0  0  0  0  0  0  0  0  0  0
  142.4240   80.9780  222.7580 C   0  0  0  0  0  0  0  0  0  0  0  0
  142.8120   79.8250  223.4440 C   0  0  0  0  0  0  0  0  0  0  0  0
  141.8520   79.0280  224.0710 C   0  0  0  0  0  0  0  0  0  0  0  0
  140.5000   79.3850  224.0180 C   0  0  0  0  0  0  0  0  0  0  0  0
  144.6456   75.0180  218.9859 H   0  0  0  0  0  0  0  0  0  0  0  0
  145.2282   72.6344  219.4432 H   0  0  0  0  0  0  0  0  0  0  0  0
  143.7310   71.2518  220.8834 H   0  0  0  0  0  0  0  0  0  0  0  0
  141.6691   72.2579  221.8514 H   0  0  0  0  0  0  0  0  0  0  0  0
  139.1900   74.2100  222.7730 H   0  0  0  0  0  0  0  0  0  0  0  0
  138.6969   76.1899  222.4252 H   0  0  0  0  0  0  0  0  0  0  0  0
  138.5639   81.9965  223.0482 H   0  0  0  0  0  0  0  0  0  0  0  0
  138.6195   80.9149  225.4271 H   0  0  0  0  0  0  0  0  0  0  0  0
  137.0196   81.2210  224.6699 H   0  0  0  0  0  0  0  0  0  0  0  0
  137.7108   79.5630  224.6699 H   0  0  0  0  0  0  0  0  0  0  0  0
  140.7736   82.2432  222.1525 H   0  0  0  0  0  0  0  0  0  0  0  0
  143.1812   81.6035  222.2627 H   0  0  0  0  0  0  0  0  0  0  0  0
  143.8746   79.5445  223.4904 H   0  0  0  0  0  0  0  0  0  0  0  0
  142.1591   78.1181  224.6074 H   0  0  0  0  0  0  0  0  0  0  0  0
  139.7468   78.7523  224.5104 H   0  0  0  0  0  0  0  0  0  0  0  0
  1  2  1  0
  2  3  2  0
  3  4  1  0
  4  5  2  0
  5  6  1  0
  6  7  2  0
  7  8  1  0
  8  9  2  0
  9 10  1  0
 10 11  2  0
 11 12  1  0
 12 13  1  0
 13 14  1  0
 13 15  2  0
 15 16  1  0
 16 17  2  0
 17 18  1  0
 18 19  2  0
 18 20  1  0
 20 21  1  0
 21 22  1  0
 21 23  1  0
 23 24  2  0
 24 25  1  0
 25 26  2  0
 26 27  1  0
 27 28  2  0
 17  3  1  0
 28 23  1  0
 15  5  1  0
 12  7  1  0
  8 29  1  0
  9 30  1  0
 10 31  1  0
 11 32  1  0
 14 33  1  0
 16 34  1  0
 21 35  1  6
 22 36  1  0
 22 37  1  0
 22 38  1  0
 24 39  1  0
 25 40  1  0
 26 41  1  0
 27 42  1  0
 28 43  1  0
M  CHG  1  20  -1
M  END
>  <meeko>  (3) 
{"free_energy": -6.41, "intermolecular_energy": -8.2, "internal_energy": -1.66, "cluster_size": 4, "cluster_id": 5, "rank_in_cluster": 2}

$$$$

     RDKit          3D

 43 46  0  0  0  0  0  0  0  0999 V2000
  133.8990   68.1080  225.8250 H   0  0  0  0  0  0  0  0  0  0  0  0
  133.5520   68.9180  226.3830 N   0  0  0  0  0  0  0  0  0  0  0  0
  133.8610   70.1600  226.1650 C   0  0  0  0  0  0  0  0  0  0  0  0
  133.1560   71.1140  226.8280 N   0  0  0  0  0  0  0  0  0  0  0  0
  133.3550   72.4370  226.6260 C   0  0  0  0  0  0  0  0  0  0  0  0
  132.6340   73.3450  227.3130 N   0  0  0  0  0  0  0  0  0  0  0  0
  132.8090   74.6770  227.1220 C   0  0  0  0  0  0  0  0  0  0  0  0
  132.0290   75.5660  227.8710 C   0  0  0  0  0  0  0  0  0  0  0  0
  132.1850   76.9360  227.6950 C   0  0  0  0  0  0  0  0  0  0  0  0
  133.1130   77.4110  226.7770 C   0  0  0  0  0  0  0  0  0  0  0  0
  133.8810   76.5070  226.0400 C   0  0  0  0  0  0  0  0  0  0  0  0
  133.7330   75.1510  226.2090 N   0  0  0  0  0  0  0  0  0  0  0  0
  134.5030   74.2820  225.4670 C   0  0  0  0  0  0  0  0  0  0  0  0
  135.4220   74.8010  224.5450 O   0  0  0  0  0  0  0  0  0  0  0  0
  134.3530   72.8890  225.6470 C   0  0  0  0  0  0  0  0  0  0  0  0
  135.0890   71.9040  224.9760 C   0  0  0  0  0  0  0  0  0  0  0  0
  134.8690   70.5380  225.2350 C   0  0  0  0  0  0  0  0  0  0  0  0
  135.7320   69.5560  224.5420 C   0  0  0  0  0  0  0  0  0  0  0  0
  135.2460   68.4790  224.1030 O   0  0  0  0  0  0  0  0  0  0  0  0
  137.1380   69.8050  224.4290 N   0  0  0  0  0  0  0  0  0  0  0  0
  138.1600   68.9240  224.9880 C   0  0  1  0  0  0  0  0  0  0  0  0
  138.8510   68.1660  223.8560 C   0  0  0  0  0  0  0  0  0  0  0  0
  139.1720   69.7230  225.7820 C   0  0  0  0  0  0  0  0  0  0  0  0
  139.3860   69.4590  227.1480 C   0  0  0  0  0  0  0  0  0  0  0  0
  140.3110   70.2120  227.8760 C   0  0  0  0  0  0  0  0  0  0  0  0
  141.0240   71.2380  227.2530 C   0  0  0  0  0  0  0  0  0  0  0  0
  140.8110   71.5170  225.9000 C   0  0  0  0  0  0  0  0  0  0  0  0
  139.8870   70.7650  225.1660 C   0  0  0  0  0  0  0  0  0  0  0  0
  131.2959   75.1821  228.5957 H   0  0  0  0  0  0  0  0  0  0  0  0
  131.5762   77.6409  228.2802 H   0  0  0  0  0  0  0  0  0  0  0  0
  133.2423   78.4936  226.6313 H   0  0  0  0  0  0  0  0  0  0  0  0
  134.6151   76.8857  225.3136 H   0  0  0  0  0  0  0  0  0  0  0  0
  136.3100   74.3800  224.3160 H   0  0  0  0  0  0  0  0  0  0  0  0
  135.8482   72.2016  224.2377 H   0  0  0  0  0  0  0  0  0  0  0  0
  137.6823   68.2037  225.6684 H   0  0  0  0  0  0  0  0  0  0  0  0
  139.5346   67.4161  224.2806 H   0  0  0  0  0  0  0  0  0  0  0  0
  138.0942   67.6630  223.2361 H   0  0  0  0  0  0  0  0  0  0  0  0
  139.4217   68.8731  223.2361 H   0  0  0  0  0  0  0  0  0  0  0  0
  138.8222   68.6558  227.6449 H   0  0  0  0  0  0  0  0  0  0  0  0
  140.4777   69.9960  228.9416 H   0  0  0  0  0  0  0  0  0  0  0  0
  141.7540   71.8273  227.8274 H   0  0  0  0  0  0  0  0  0  0  0  0
  141.3704   72.3286  225.4117 H   0  0  0  0  0  0  0  0  0  0  0  0
  139.7193   70.9901  224.1024 H   0  0  0  0  0  0  0  0  0  0  0  0
  1  2  1  0
  2  3  2  0
  3  4  1  0
  4  5  2  0
  5  6  1  0
  6  7  2  0
  7  8  1  0
  8  9  2  0
  9 10  1  0
 10 11  2  0
 11 12  1  0
 12 13  1  0
 13 14  1  0
 13 15  2  0
 15 16  1  0
 16 17  2  0
 17 18  1  0
 18 19  2  0
 18 20  1  0
 20 21  1  0
 21 22  1  0
 21 23  1  0
 23 24  2  0
 24 25  1  0
 25 26  2  0
 26 27  1  0
 27 28  2  0
 17  3  1  0
 28 23  1  0
 15  5  1  0
 12  7  1  0
  8 29  1  0
  9 30  1  0
 10 31  1  0
 11 32  1  0
 14 33  1  0
 16 34  1  0
 21 35  1  1
 22 36  1  0
 22 37  1  0
 22 38  1  0
 24 39  1  0
 25 40  1  0
 26 41  1  0
 27 42  1  0
 28 43  1  0
M  CHG  1  20  -1
M  END
>  <meeko>  (4) 
{"free_energy": -7.98, "intermolecular_energy": -9.77, "internal_energy": -0.93, "cluster_size": 11, "cluster_id": 1, "rank_in_cluster": 1}

$$$$

     RDKit          3D

 43 46  0  0  0  0  0  0  0  0999 V2000
  137.3680   77.2660  223.2650 H   0  0  0  0  0  0  0  0  0  0  0  0
  137.8580   76.3830  223.0070 N   0  0  0  0  0  0  0  0  0  0  0  0
  138.9060   76.3060  222.2450 C   0  0  0  0  0  0  0  0  0  0  0  0
  139.6010   75.1380  222.2380 N   0  0  0  0  0  0  0  0  0  0  0  0
  140.7410   74.9750  221.5280 C   0  0  0  0  0  0  0  0  0  0  0  0
  141.3910   73.7950  221.5480 N   0  0  0  0  0  0  0  0  0  0  0  0
  142.5410   73.6080  220.8520 C   0  0  0  0  0  0  0  0  0  0  0  0
  143.1630   72.3560  220.9160 C   0  0  0  0  0  0  0  0  0  0  0  0
  144.3440   72.1370  220.2150 C   0  0  0  0  0  0  0  0  0  0  0  0
  144.8950   73.1640  219.4580 C   0  0  0  0  0  0  0  0  0  0  0  0
  144.2580   74.4050  219.4080 C   0  0  0  0  0  0  0  0  0  0  0  0
  143.0910   74.6290  220.0980 N   0  0  0  0  0  0  0  0  0  0  0  0
  142.4840   75.8650  220.0330 C   0  0  0  0  0  0  0  0  0  0  0  0
  143.0780   76.8760  219.2660 O   0  0  0  0  0  0  0  0  0  0  0  0
  141.2820   76.0900  220.7390 C   0  0  0  0  0  0  0  0  0  0  0  0
  140.5550   77.2880  220.7350 C   0  0  0  0  0  0  0  0  0  0  0  0
  139.3590   77.4070  221.4670 C   0  0  0  0  0  0  0  0  0  0  0  0
  138.6080   78.6790  221.3600 C   0  0  0  0  0  0  0  0  0  0  0  0
  138.5180   79.2740  220.2530 O   0  0  0  0  0  0  0  0  0  0  0  0
  138.0390   79.2640  222.5370 N   0  0  0  0  0  0  0  0  0  0  0  0
  138.6030   80.4320  223.2100 C   0  0  1  0  0  0  0  0  0  0  0  0
  138.0300   80.5290  224.6230 C   0  0  0  0  0  0  0  0  0  0  0  0
  140.1120   80.3390  223.2580 C   0  0  0  0  0  0  0  0  0  0  0  0
  140.9150   81.3640  222.7220 C   0  0  0  0  0  0  0  0  0  0  0  0
  142.3080   81.2610  222.7580 C   0  0  0  0  0  0  0  0  0  0  0  0
  142.9140   80.1350  223.3190 C   0  0  0  0  0  0  0  0  0  0  0  0
  142.1270   79.1060  223.8430 C   0  0  0  0  0  0  0  0  0  0  0  0
  140.7320   79.2040  223.8110 C   0  0  0  0  0  0  0  0  0  0  0  0
  142.7199   71.5489  221.5179 H   0  0  0  0  0  0  0  0  0  0  0  0
  144.8394   71.1559  220.2595 H   0  0  0  0  0  0  0  0  0  0  0  0
  145.8290   72.9996  218.9007 H   0  0  0  0  0  0  0  0  0  0  0  0
  144.6966   75.2155  218.8075 H   0  0  0  0  0  0  0  0  0  0  0  0
  143.6560   77.6170  219.6360 H   0  0  0  0  0  0  0  0  0  0  0  0
  140.9235   78.1455  220.1528 H   0  0  0  0  0  0  0  0  0  0  0  0
  138.3342   81.3377  222.6466 H   0  0  0  0  0  0  0  0  0  0  0  0
  138.8382   80.3922  225.3566 H   0  0  0  0  0  0  0  0  0  0  0  0
  137.5696   81.5179  224.7649 H   0  0  0  0  0  0  0  0  0  0  0  0
  137.2697   79.7468  224.7649 H   0  0  0  0  0  0  0  0  0  0  0  0
  140.4433   82.2503  222.2727 H   0  0  0  0  0  0  0  0  0  0  0  0
  142.9288   82.0689  222.3434 H   0  0  0  0  0  0  0  0  0  0  0  0
  144.0109   80.0580  223.3485 H   0  0  0  0  0  0  0  0  0  0  0  0
  142.6052   78.2176  224.2813 H   0  0  0  0  0  0  0  0  0  0  0  0
  140.1167   78.3893  224.2204 H   0  0  0  0  0  0  0  0  0  0  0  0
  1  2  1  0
  2  3  2  0
  3  4  1  0
  4  5  2  0
  5  6  1  0
  6  7  2  0
  7  8  1  0
  8  9  2  0
  9 10  1  0
 10 11  2  0
 11 12  1  0
 12 13  1  0
 13 14  1  0
 13 15  2  0
 15 16  1  0
 16 17  2  0
 17 18  1  0
 18 19  2  0
 18 20  1  0
 20 21  1  0
 21 22  1  0
 21 23  1  0
 23 24  2  0
 24 25  1  0
 25 26  2  0
 26 27  1  0
 27 28  2  0
 17  3  1  0
 28 23  1  0
 15  5  1  0
 12  7  1  0
  8 29  1  0
  9 30  1  0
 10 31  1  0
 11 32  1  0
 14 33  1  0
 16 34  1  0
 21 35  1  6
 22 36  1  0
 22 37  1  0
 22 38  1  0
 24 39  1  0
 25 40  1  0
 26 41  1  0
 27 42  1  0
 28 43  1  0
M  CHG  1  20  -1
M  END
>  <meeko>  (5) 
{"free_energy": -6.55, "intermolecular_energy": -8.34, "internal_energy": -1.46, "cluster_size": 3, "cluster_id": 4, "rank_in_cluster": 1}

$$$$

     RDKit          3D

 43 46  0  0  0  0  0  0  0  0999 V2000
  138.8010   66.8280  223.9340 H   0  0  0  0  0  0  0  0  0  0  0  0
  138.9580   67.2360  222.9880 N   0  0  0  0  0  0  0  0  0  0  0  0
  139.1610   68.4950  222.7430 C   0  0  0  0  0  0  0  0  0  0  0  0
  139.7660   68.8230  221.5710 N   0  0  0  0  0  0  0  0  0  0  0  0
  140.0810   70.0990  221.2490 C   0  0  0  0  0  0  0  0  0  0  0  0
  140.6760   70.3750  220.0710 N   0  0  0  0  0  0  0  0  0  0  0  0
  141.0090   71.6440  219.7270 C   0  0  0  0  0  0  0  0  0  0  0  0
  141.6210   71.8600  218.4870 C   0  0  0  0  0  0  0  0  0  0  0  0
  141.9770   73.1500  218.1090 C   0  0  0  0  0  0  0  0  0  0  0  0
  141.7210   74.2140  218.9670 C   0  0  0  0  0  0  0  0  0  0  0  0
  141.1090   73.9750  220.1990 C   0  0  0  0  0  0  0  0  0  0  0  0
  140.7550   72.7040  220.5790 N   0  0  0  0  0  0  0  0  0  0  0  0
  140.1540   72.4970  221.8020 C   0  0  0  0  0  0  0  0  0  0  0  0
  139.9220   73.5960  222.6420 O   0  0  0  0  0  0  0  0  0  0  0  0
  139.7860   71.1900  222.1870 C   0  0  0  0  0  0  0  0  0  0  0  0
  139.1480   70.8510  223.3880 C   0  0  0  0  0  0  0  0  0  0  0  0
  138.8140   69.5140  223.6740 C   0  0  0  0  0  0  0  0  0  0  0  0
  138.0790   69.2390  224.9290 C   0  0  0  0  0  0  0  0  0  0  0  0
  137.1650   70.0160  225.3150 O   0  0  0  0  0  0  0  0  0  0  0  0
  138.4570   68.1190  225.7390 N   0  0  0  0  0  0  0  0  0  0  0  0
  139.5920   68.1350  226.6580 C   0  0  1  0  0  0  0  0  0  0  0  0
  140.7160   67.2690  226.0920 C   0  0  0  0  0  0  0  0  0  0  0  0
  140.0770   69.5520  226.8770 C   0  0  0  0  0  0  0  0  0  0  0  0
  140.9650   70.1580  225.9690 C   0  0  0  0  0  0  0  0  0  0  0  0
  141.4190   71.4620  226.1880 C   0  0  0  0  0  0  0  0  0  0  0  0
  141.0000   72.1690  227.3170 C   0  0  0  0  0  0  0  0  0  0  0  0
  140.1280   71.5730  228.2310 C   0  0  0  0  0  0  0  0  0  0  0  0
  139.6690   70.2690  228.0160 C   0  0  0  0  0  0  0  0  0  0  0  0
  141.8196   71.0128  217.8141 H   0  0  0  0  0  0  0  0  0  0  0  0
  142.4587   73.3279  217.1362 H   0  0  0  0  0  0  0  0  0  0  0  0
  141.9990   75.2380  218.6768 H   0  0  0  0  0  0  0  0  0  0  0  0
  140.9073   74.8183  220.8759 H   0  0  0  0  0  0  0  0  0  0  0  0
  139.0440   73.7970  223.0980 H   0  0  0  0  0  0  0  0  0  0  0  0
  138.9054   71.6393  224.1158 H   0  0  0  0  0  0  0  0  0  0  0  0
  139.2749   67.7279  227.6295 H   0  0  0  0  0  0  0  0  0  0  0  0
  141.2902   66.8266  226.9194 H   0  0  0  0  0  0  0  0  0  0  0  0
  140.2854   66.4669  225.4745 H   0  0  0  0  0  0  0  0  0  0  0  0
  141.3818   67.8899  225.4745 H   0  0  0  0  0  0  0  0  0  0  0  0
  141.3038   69.6026  225.0820 H   0  0  0  0  0  0  0  0  0  0  0  0
  142.1073   71.9318  225.4700 H   0  0  0  0  0  0  0  0  0  0  0  0
  141.3568   73.1956  227.4866 H   0  0  0  0  0  0  0  0  0  0  0  0
  139.8015   72.1300  229.1216 H   0  0  0  0  0  0  0  0  0  0  0  0
  138.9859   69.8024  228.7411 H   0  0  0  0  0  0  0  0  0  0  0  0
  1  2  1  0
  2  3  2  0
  3  4  1  0
  4  5  2  0
  5  6  1  0
  6  7  2  0
  7  8  1  0
  8  9  2  0
  9 10  1  0
 10 11  2  0
 11 12  1  0
 12 13  1  0
 13 14  1  0
 13 15  2  0
 15 16  1  0
 16 17  2  0
 17 18  1  0
 18 19  2  0
 18 20  1  0
 20 21  1  0
 21 22  1  0
 21 23  1  0
 23 24  2  0
 24 25  1  0
 25 26  2  0
 26 27  1  0
 27 28  2  0
 17  3  1  0
 28 23  1  0
 15  5  1  0
 12  7  1  0
  8 29  1  0
  9 30  1  0
 10 31  1  0
 11 32  1  0
 14 33  1  0
 16 34  1  0
 21 35  1  1
 22 36  1  0
 22 37  1  0
 22 38  1  0
 24 39  1  0
 25 40  1  0
 26 41  1  0
 27 42  1  0
 28 43  1  0
M  CHG  1  20  -1
M  END
>  <meeko>  (6) 
{"free_energy": -6.65, "intermolecular_energy": -8.44, "internal_energy": -1.41, "cluster_size": 1, "cluster_id": 3, "rank_in_cluster": 1}

$$$$

     RDKit          3D

 43 46  0  0  0  0  0  0  0  0999 V2000
  133.8200   68.0950  225.8400 H   0  0  0  0  0  0  0  0  0  0  0  0
  133.4790   68.9120  226.3900 N   0  0  0  0  0  0  0  0  0  0  0  0
  133.8070   70.1490  226.1700 C   0  0  0  0  0  0  0  0  0  0  0  0
  133.1160   71.1150  226.8310 N   0  0  0  0  0  0  0  0  0  0  0  0
  133.3350   72.4340  226.6250 C   0  0  0  0  0  0  0  0  0  0  0  0
  132.6280   73.3550  227.3100 N   0  0  0  0  0  0  0  0  0  0  0  0
  132.8230   74.6840  227.1160 C   0  0  0  0  0  0  0  0  0  0  0  0
  132.0560   75.5860  227.8630 C   0  0  0  0  0  0  0  0  0  0  0  0
  132.2330   76.9530  227.6840 C   0  0  0  0  0  0  0  0  0  0  0  0
  133.1690   77.4120  226.7650 C   0  0  0  0  0  0  0  0  0  0  0  0
  133.9230   76.4950  226.0310 C   0  0  0  0  0  0  0  0  0  0  0  0
  133.7550   75.1420  226.2020 N   0  0  0  0  0  0  0  0  0  0  0  0
  134.5110   74.2590  225.4630 C   0  0  0  0  0  0  0  0  0  0  0  0
  135.4380   74.7630  224.5390 O   0  0  0  0  0  0  0  0  0  0  0  0
  134.3400   72.8700  225.6460 C   0  0  0  0  0  0  0  0  0  0  0  0
  135.0620   71.8720  224.9770 C   0  0  0  0  0  0  0  0  0  0  0  0
  134.8210   70.5100  225.2390 C   0  0  0  0  0  0  0  0  0  0  0  0
  135.6690   69.5130  224.5480 C   0  0  0  0  0  0  0  0  0  0  0  0
  135.1780   68.4210  224.1550 O   0  0  0  0  0  0  0  0  0  0  0  0
  137.0700   69.7670  224.3870 N   0  0  0  0  0  0  0  0  0  0  0  0
  138.1140   68.9000  224.9250 C   0  0  1  0  0  0  0  0  0  0  0  0
  138.8420   68.2070  223.7750 C   0  0  0  0  0  0  0  0  0  0  0  0
  139.0900   69.7010  225.7610 C   0  0  0  0  0  0  0  0  0  0  0  0
  139.8340   70.7510  225.1920 C   0  0  0  0  0  0  0  0  0  0  0  0
  140.7420   71.4740  225.9680 C   0  0  0  0  0  0  0  0  0  0  0  0
  140.9250   71.1530  227.3150 C   0  0  0  0  0  0  0  0  0  0  0  0
  140.2010   70.1040  227.8870 C   0  0  0  0  0  0  0  0  0  0  0  0
  139.2880   69.3780  227.1150 C   0  0  0  0  0  0  0  0  0  0  0  0
  131.3168   75.2147  228.5881 H   0  0  0  0  0  0  0  0  0  0  0  0
  131.6348   77.6685  228.2673 H   0  0  0  0  0  0  0  0  0  0  0  0
  133.3149   78.4922  226.6168 H   0  0  0  0  0  0  0  0  0  0  0  0
  134.6632   76.8611  225.3044 H   0  0  0  0  0  0  0  0  0  0  0  0
  136.3600   74.3820  224.3820 H   0  0  0  0  0  0  0  0  0  0  0  0
  135.8260   72.1565  224.2385 H   0  0  0  0  0  0  0  0  0  0  0  0
  137.6526   68.1395  225.5721 H   0  0  0  0  0  0  0  0  0  0  0  0
  139.5824   67.5022  224.1814 H   0  0  0  0  0  0  0  0  0  0  0  0
  138.1147   67.6593  223.1577 H   0  0  0  0  0  0  0  0  0  0  0  0
  139.3532   68.9604  223.1577 H   0  0  0  0  0  0  0  0  0  0  0  0
  139.6995   71.0037  224.1299 H   0  0  0  0  0  0  0  0  0  0  0  0
  141.3145   72.2982  225.5176 H   0  0  0  0  0  0  0  0  0  0  0  0
  141.6388   71.7259  227.9251 H   0  0  0  0  0  0  0  0  0  0  0  0
  140.3492   69.8484  228.9466 H   0  0  0  0  0  0  0  0  0  0  0  0
  138.7226   68.5509  227.5691 H   0  0  0  0  0  0  0  0  0  0  0  0
  1  2  1  0
  2  3  2  0
  3  4  1  0
  4  5  2  0
  5  6  1  0
  6  7  2  0
  7  8  1  0
  8  9  2  0
  9 10  1  0
 10 11  2  0
 11 12  1  0
 12 13  1  0
 13 14  1  0
 13 15  2  0
 15 16  1  0
 16 17  2  0
 17 18  1  0
 18 19  2  0
 18 20  1  0
 20 21  1  0
 21 22  1  0
 21 23  1  0
 23 24  2  0
 24 25  1  0
 25 26  2  0
 26 27  1  0
 27 28  2  0
 17  3  1  0
 28 23  1  0
 15  5  1  0
 12  7  1  0
  8 29  1  0
  9 30  1  0
 10 31  1  0
 11 32  1  0
 14 33  1  0
 16 34  1  0
 21 35  1  1
 22 36  1  0
 22 37  1  0
 22 38  1  0
 24 39  1  0
 25 40  1  0
 26 41  1  0
 27 42  1  0
 28 43  1  0
M  CHG  1  20  -1
M  END
>  <meeko>  (7) 
{"free_energy": -7.96, "intermolecular_energy": -9.75, "internal_energy": -0.95, "cluster_size": 11, "cluster_id": 1, "rank_in_cluster": 3}

$$$$

     RDKit          3D

 43 46  0  0  0  0  0  0  0  0999 V2000
  134.2320   67.9280  225.9730 H   0  0  0  0  0  0  0  0  0  0  0  0
  133.9290   68.7980  226.4600 N   0  0  0  0  0  0  0  0  0  0  0  0
  134.2430   70.0040  226.0970 C   0  0  0  0  0  0  0  0  0  0  0  0
  133.5720   71.0360  226.6750 N   0  0  0  0  0  0  0  0  0  0  0  0
  133.7780   72.3250  226.3220 C   0  0  0  0  0  0  0  0  0  0  0  0
  133.0920   73.3140  226.9290 N   0  0  0  0  0  0  0  0  0  0  0  0
  133.2740   74.6150  226.5870 C   0  0  0  0  0  0  0  0  0  0  0  0
  132.5310   75.5910  227.2610 C   0  0  0  0  0  0  0  0  0  0  0  0
  132.6950   76.9310  226.9300 C   0  0  0  0  0  0  0  0  0  0  0  0
  133.5940   77.2890  225.9330 C   0  0  0  0  0  0  0  0  0  0  0  0
  134.3260   76.2990  225.2740 C   0  0  0  0  0  0  0  0  0  0  0  0
  134.1690   74.9720  225.5960 N   0  0  0  0  0  0  0  0  0  0  0  0
  134.9020   74.0150  224.9280 C   0  0  0  0  0  0  0  0  0  0  0  0
  135.7920   74.4170  223.9220 O   0  0  0  0  0  0  0  0  0  0  0  0
  134.7440   72.6540  225.2650 C   0  0  0  0  0  0  0  0  0  0  0  0
  135.4450   71.5900  224.6810 C   0  0  0  0  0  0  0  0  0  0  0  0
  135.2200   70.2640  225.0960 C   0  0  0  0  0  0  0  0  0  0  0  0
  136.0470   69.1990  224.4850 C   0  0  0  0  0  0  0  0  0  0  0  0
  135.5980   68.5150  223.5260 O   0  0  0  0  0  0  0  0  0  0  0  0
  137.3370   68.9050  225.0320 N   0  0  0  0  0  0  0  0  0  0  0  0
  138.5790   69.4850  224.5260 C   0  0  1  0  0  0  0  0  0  0  0  0
  138.2520   70.6130  223.5500 C   0  0  0  0  0  0  0  0  0  0  0  0
  139.4250   70.0040  225.6690 C   0  0  0  0  0  0  0  0  0  0  0  0
  139.3660   69.4050  226.9410 C   0  0  0  0  0  0  0  0  0  0  0  0
  140.1400   69.9010  227.9920 C   0  0  0  0  0  0  0  0  0  0  0  0
  140.9740   71.0030  227.7890 C   0  0  0  0  0  0  0  0  0  0  0  0
  141.0320   71.6140  226.5340 C   0  0  0  0  0  0  0  0  0  0  0  0
  140.2600   71.1200  225.4770 C   0  0  0  0  0  0  0  0  0  0  0  0
  131.8208   75.2991  228.0487 H   0  0  0  0  0  0  0  0  0  0  0  0
  132.1156   77.7046  227.4551 H   0  0  0  0  0  0  0  0  0  0  0  0
  133.7285   78.3471  225.6640 H   0  0  0  0  0  0  0  0  0  0  0  0
  135.0383   76.5852  224.4861 H   0  0  0  0  0  0  0  0  0  0  0  0
  136.7430   74.0910  223.8290 H   0  0  0  0  0  0  0  0  0  0  0  0
  136.1801   71.7938  223.8885 H   0  0  0  0  0  0  0  0  0  0  0  0
  139.1530   68.7073  224.0009 H   0  0  0  0  0  0  0  0  0  0  0  0
  137.9889   71.5205  224.1133 H   0  0  0  0  0  0  0  0  0  0  0  0
  139.1284   70.8156  222.9168 H   0  0  0  0  0  0  0  0  0  0  0  0
  137.4031   70.3155  222.9168 H   0  0  0  0  0  0  0  0  0  0  0  0
  138.7062   68.5409  227.1083 H   0  0  0  0  0  0  0  0  0  0  0  0
  140.0929   69.4231  228.9816 H   0  0  0  0  0  0  0  0  0  0  0  0
  141.5853   71.3899  228.6176 H   0  0  0  0  0  0  0  0  0  0  0  0
  141.6856   72.4847  226.3767 H   0  0  0  0  0  0  0  0  0  0  0  0
  140.3060   71.6063  224.4914 H   0  0  0  0  0  0  0  0  0  0  0  0
  1  2  1  0
  2  3  2  0
  3  4  1  0
  4  5  2  0
  5  6  1  0
  6  7  2  0
  7  8  1  0
  8  9  2  0
  9 10  1  0
 10 11  2  0
 11 12  1  0
 12 13  1  0
 13 14  1  0
 13 15  2  0
 15 16  1  0
 16 17  2  0
 17 18  1  0
 18 19  2  0
 18 20  1  0
 20 21  1  0
 21 22  1  0
 21 23  1  0
 23 24  2  0
 24 25  1  0
 25 26  2  0
 26 27  1  0
 27 28  2  0
 17  3  1  0
 28 23  1  0
 15  5  1  0
 12  7  1  0
  8 29  1  0
  9 30  1  0
 10 31  1  0
 11 32  1  0
 14 33  1  0
 16 34  1  0
 21 35  1  6
 22 36  1  0
 22 37  1  0
 22 38  1  0
 24 39  1  0
 25 40  1  0
 26 41  1  0
 27 42  1  0
 28 43  1  0
M  CHG  1  20  -1
M  END
>  <meeko>  (8) 
{"free_energy": -7.94, "intermolecular_energy": -9.73, "internal_energy": -0.53, "cluster_size": 11, "cluster_id": 1, "rank_in_cluster": 5}

$$$$

     RDKit          3D

 43 46  0  0  0  0  0  0  0  0999 V2000
  139.1290   80.6560  220.6740 H   0  0  0  0  0  0  0  0  0  0  0  0
  139.8040   80.0000  220.2260 N   0  0  0  0  0  0  0  0  0  0  0  0
  140.0300   78.7820  220.6130 C   0  0  0  0  0  0  0  0  0  0  0  0
  141.1280   78.1520  220.1180 N   0  0  0  0  0  0  0  0  0  0  0  0
  141.4190   76.8630  220.4080 C   0  0  0  0  0  0  0  0  0  0  0  0
  142.5240   76.2840  219.8960 N   0  0  0  0  0  0  0  0  0  0  0  0
  142.8330   74.9900  220.1650 C   0  0  0  0  0  0  0  0  0  0  0  0
  143.9970   74.4530  219.6030 C   0  0  0  0  0  0  0  0  0  0  0  0
  144.3380   73.1300  219.8590 C   0  0  0  0  0  0  0  0  0  0  0  0
  143.5200   72.3530  220.6700 C   0  0  0  0  0  0  0  0  0  0  0  0
  142.3640   72.9090  221.2200 C   0  0  0  0  0  0  0  0  0  0  0  0
  142.0200   74.2160  220.9720 N   0  0  0  0  0  0  0  0  0  0  0  0
  140.8720   74.7380  221.5260 C   0  0  0  0  0  0  0  0  0  0  0  0
  140.0690   73.9180  222.3310 O   0  0  0  0  0  0  0  0  0  0  0  0
  140.5250   76.0840  221.2740 C   0  0  0  0  0  0  0  0  0  0  0  0
  139.4010   76.7400  221.7960 C   0  0  0  0  0  0  0  0  0  0  0  0
  139.1490   78.0900  221.4910 C   0  0  0  0  0  0  0  0  0  0  0  0
  137.9840   78.7370  222.1340 C   0  0  0  0  0  0  0  0  0  0  0  0
  137.0110   78.0440  222.5360 O   0  0  0  0  0  0  0  0  0  0  0  0
  137.9360   80.1650  222.2380 N   0  0  0  0  0  0  0  0  0  0  0  0
  138.6080   80.9190  223.2940 C   0  0  1  0  0  0  0  0  0  0  0  0
  137.9240   80.6390  224.6310 C   0  0  0  0  0  0  0  0  0  0  0  0
  140.0730   80.5470  223.3620 C   0  0  0  0  0  0  0  0  0  0  0  0
  141.0480   81.3350  222.7220 C   0  0  0  0  0  0  0  0  0  0  0  0
  142.3960   80.9740  222.7780 C   0  0  0  0  0  0  0  0  0  0  0  0
  142.7850   79.8220  223.4650 C   0  0  0  0  0  0  0  0  0  0  0  0
  141.8250   79.0250  224.0930 C   0  0  0  0  0  0  0  0  0  0  0  0
  140.4740   79.3820  224.0410 C   0  0  0  0  0  0  0  0  0  0  0  0
  144.6389   75.0750  218.9618 H   0  0  0  0  0  0  0  0  0  0  0  0
  145.2512   72.7002  219.4216 H   0  0  0  0  0  0  0  0  0  0  0  0
  143.7822   71.3050  220.8775 H   0  0  0  0  0  0  0  0  0  0  0  0
  141.7184   72.2915  221.8618 H   0  0  0  0  0  0  0  0  0  0  0  0
  139.2010   74.2040  222.7610 H   0  0  0  0  0  0  0  0  0  0  0  0
  138.7081   76.1925  222.4518 H   0  0  0  0  0  0  0  0  0  0  0  0
  138.5391   81.9936  223.0695 H   0  0  0  0  0  0  0  0  0  0  0  0
  138.5998   80.9156  225.4536 H   0  0  0  0  0  0  0  0  0  0  0  0
  136.9996   81.2311  224.7010 H   0  0  0  0  0  0  0  0  0  0  0  0
  137.6801   79.5687  224.7010 H   0  0  0  0  0  0  0  0  0  0  0  0
  140.7466   82.2403  222.1746 H   0  0  0  0  0  0  0  0  0  0  0  0
  143.1527   81.5982  222.2801 H   0  0  0  0  0  0  0  0  0  0  0  0
  143.8478   79.5421  223.5116 H   0  0  0  0  0  0  0  0  0  0  0  0
  142.1323   78.1151  224.6293 H   0  0  0  0  0  0  0  0  0  0  0  0
  139.7212   78.7489  224.5334 H   0  0  0  0  0  0  0  0  0  0  0  0
  1  2  1  0
  2  3  2  0
  3  4  1  0
  4  5  2  0
  5  6  1  0
  6  7  2  0
  7  8  1  0
  8  9  2  0
  9 10  1  0
 10 11  2  0
 11 12  1  0
 12 13  1  0
 13 14  1  0
 13 15  2  0
 15 16  1  0
 16 17  2  0
 17 18  1  0
 18 19  2  0
 18 20  1  0
 20 21  1  0
 21 22  1  0
 21 23  1  0
 23 24  2  0
 24 25  1  0
 25 26  2  0
 26 27  1  0
 27 28  2  0
 17  3  1  0
 28 23  1  0
 15  5  1  0
 12  7  1  0
  8 29  1  0
  9 30  1  0
 10 31  1  0
 11 32  1  0
 14 33  1  0
 16 34  1  0
 21 35  1  6
 22 36  1  0
 22 37  1  0
 22 38  1  0
 24 39  1  0
 25 40  1  0
 26 41  1  0
 27 42  1  0
 28 43  1  0
M  CHG  1  20  -1
M  END
>  <meeko>  (9) 
{"free_energy": -6.41, "intermolecular_energy": -8.2, "internal_energy": -1.66, "cluster_size": 4, "cluster_id": 5, "rank_in_cluster": 1}

$$$$

     RDKit          3D

 43 46  0  0  0  0  0  0  0  0999 V2000
  134.0990   68.3070  226.0100 H   0  0  0  0  0  0  0  0  0  0  0  0
  133.6630   69.1350  226.4690 N   0  0  0  0  0  0  0  0  0  0  0  0
  133.9580   70.3720  226.2110 C   0  0  0  0  0  0  0  0  0  0  0  0
  133.2430   71.3400  226.8440 N   0  0  0  0  0  0  0  0  0  0  0  0
  133.4280   72.6570  226.5980 C   0  0  0  0  0  0  0  0  0  0  0  0
  132.6980   73.5800  227.2560 N   0  0  0  0  0  0  0  0  0  0  0  0
  132.8580   74.9070  227.0220 C   0  0  0  0  0  0  0  0  0  0  0  0
  132.0690   75.8110  227.7430 C   0  0  0  0  0  0  0  0  0  0  0  0
  132.2100   77.1760  227.5230 C   0  0  0  0  0  0  0  0  0  0  0  0
  133.1320   77.6310  226.5880 C   0  0  0  0  0  0  0  0  0  0  0  0
  133.9090   76.7120  225.8800 C   0  0  0  0  0  0  0  0  0  0  0  0
  133.7760   75.3610  226.0930 N   0  0  0  0  0  0  0  0  0  0  0  0
  134.5540   74.4760  225.3790 C   0  0  0  0  0  0  0  0  0  0  0  0
  135.4660   74.9750  224.4390 O   0  0  0  0  0  0  0  0  0  0  0  0
  134.4190   73.0890  225.6040 C   0  0  0  0  0  0  0  0  0  0  0  0
  135.1660   72.0900  224.9640 C   0  0  0  0  0  0  0  0  0  0  0  0
  134.9600   70.7310  225.2680 C   0  0  0  0  0  0  0  0  0  0  0  0
  135.8330   69.7360  224.6050 C   0  0  0  0  0  0  0  0  0  0  0  0
  135.4890   68.5250  224.5470 O   0  0  0  0  0  0  0  0  0  0  0  0
  137.1050   70.1450  224.0870 N   0  0  0  0  0  0  0  0  0  0  0  0
  138.3290   69.3650  224.2460 C   0  0  1  0  0  0  0  0  0  0  0  0
  139.1350   69.4140  222.9500 C   0  0  0  0  0  0  0  0  0  0  0  0
  139.1510   69.8980  225.4000 C   0  0  0  0  0  0  0  0  0  0  0  0
  139.9440   71.0510  225.2470 C   0  0  0  0  0  0  0  0  0  0  0  0
  140.7110   71.5260  226.3140 C   0  0  0  0  0  0  0  0  0  0  0  0
  140.7020   70.8540  227.5380 C   0  0  0  0  0  0  0  0  0  0  0  0
  139.9280   69.7020  227.6970 C   0  0  0  0  0  0  0  0  0  0  0  0
  139.1570   69.2220  226.6330 C   0  0  0  0  0  0  0  0  0  0  0  0
  131.3406   75.4426  228.4804 H   0  0  0  0  0  0  0  0  0  0  0  0
  131.5947   77.8929  228.0863 H   0  0  0  0  0  0  0  0  0  0  0  0
  133.2491   78.7096  226.4066 H   0  0  0  0  0  0  0  0  0  0  0  0
  134.6384   77.0748  225.1408 H   0  0  0  0  0  0  0  0  0  0  0  0
  136.3670   74.5670  224.2350 H   0  0  0  0  0  0  0  0  0  0  0  0
  135.9217   72.3713  224.2158 H   0  0  0  0  0  0  0  0  0  0  0  0
  138.0645   68.3206  224.4681 H   0  0  0  0  0  0  0  0  0  0  0  0
  140.2071   69.4792  223.1872 H   0  0  0  0  0  0  0  0  0  0  0  0
  138.9437   68.5026  222.3646 H   0  0  0  0  0  0  0  0  0  0  0  0
  138.8347   70.2955  222.3646 H   0  0  0  0  0  0  0  0  0  0  0  0
  139.9599   71.5805  224.2830 H   0  0  0  0  0  0  0  0  0  0  0  0
  141.3233   72.4313  226.1895 H   0  0  0  0  0  0  0  0  0  0  0  0
  141.3045   71.2318  228.3772 H   0  0  0  0  0  0  0  0  0  0  0  0
  139.9248   69.1714  228.6606 H   0  0  0  0  0  0  0  0  0  0  0  0
  138.5528   68.3118  226.7614 H   0  0  0  0  0  0  0  0  0  0  0  0
  1  2  1  0
  2  3  2  0
  3  4  1  0
  4  5  2  0
  5  6  1  0
  6  7  2  0
  7  8  1  0
  8  9  2  0
  9 10  1  0
 10 11  2  0
 11 12  1  0
 12 13  1  0
 13 14  1  0
 13 15  2  0
 15 16  1  0
 16 17  2  0
 17 18  1  0
 18 19  2  0
 18 20  1  0
 20 21  1  0
 21 22  1  0
 21 23  1  0
 23 24  2  0
 24 25  1  0
 25 26  2  0
 26 27  1  0
 27 28  2  0
 17  3  1  0
 28 23  1  0
 15  5  1  0
 12  7  1  0
  8 29  1  0
  9 30  1  0
 10 31  1  0
 11 32  1  0
 14 33  1  0
 16 34  1  0
 21 35  1  1
 22 36  1  0
 22 37  1  0
 22 38  1  0
 24 39  1  0
 25 40  1  0
 26 41  1  0
 27 42  1  0
 28 43  1  0
M  CHG  1  20  -1
M  END
>  <meeko>  (10) 
{"free_energy": -7.65, "intermolecular_energy": -9.44, "internal_energy": -1.0, "cluster_size": 11, "cluster_id": 1, "rank_in_cluster": 9}

$$$$

     RDKit          3D

 43 46  0  0  0  0  0  0  0  0999 V2000
  137.3140   77.3910  223.2540 H   0  0  0  0  0  0  0  0  0  0  0  0
  137.8190   76.5100  223.0200 N   0  0  0  0  0  0  0  0  0  0  0  0
  138.8630   76.4310  222.2520 C   0  0  0  0  0  0  0  0  0  0  0  0
  139.5630   75.2660  222.2520 N   0  0  0  0  0  0  0  0  0  0  0  0
  140.7000   75.1020  221.5370 C   0  0  0  0  0  0  0  0  0  0  0  0
  141.3560   73.9250  221.5650 N   0  0  0  0  0  0  0  0  0  0  0  0
  142.5030   73.7370  220.8640 C   0  0  0  0  0  0  0  0  0  0  0  0
  143.1310   72.4880  220.9360 C   0  0  0  0  0  0  0  0  0  0  0  0
  144.3080   72.2680  220.2290 C   0  0  0  0  0  0  0  0  0  0  0  0
  144.8500   73.2900  219.4590 C   0  0  0  0  0  0  0  0  0  0  0  0
  144.2070   74.5280  219.4020 C   0  0  0  0  0  0  0  0  0  0  0  0
  143.0430   74.7530  220.0970 N   0  0  0  0  0  0  0  0  0  0  0  0
  142.4300   75.9850  220.0240 C   0  0  0  0  0  0  0  0  0  0  0  0
  143.0140   76.9920  219.2430 O   0  0  0  0  0  0  0  0  0  0  0  0
  141.2310   76.2110  220.7340 C   0  0  0  0  0  0  0  0  0  0  0  0
  140.4990   77.4060  220.7230 C   0  0  0  0  0  0  0  0  0  0  0  0
  139.3060   77.5270  221.4610 C   0  0  0  0  0  0  0  0  0  0  0  0
  138.5490   78.7940  221.3460 C   0  0  0  0  0  0  0  0  0  0  0  0
  138.4590   79.3840  220.2360 O   0  0  0  0  0  0  0  0  0  0  0  0
  137.9730   79.3810  222.5190 N   0  0  0  0  0  0  0  0  0  0  0  0
  138.5790   80.4950  223.2430 C   0  0  1  0  0  0  0  0  0  0  0  0
  138.0780   80.4960  224.6860 C   0  0  0  0  0  0  0  0  0  0  0  0
  140.0890   80.3910  223.2100 C   0  0  0  0  0  0  0  0  0  0  0  0
  140.8620   81.3430  222.5180 C   0  0  0  0  0  0  0  0  0  0  0  0
  142.2540   81.2290  222.4810 C   0  0  0  0  0  0  0  0  0  0  0  0
  142.8870   80.1640  223.1230 C   0  0  0  0  0  0  0  0  0  0  0  0
  142.1300   79.2070  223.8030 C   0  0  0  0  0  0  0  0  0  0  0  0
  140.7360   79.3160  223.8450 C   0  0  0  0  0  0  0  0  0  0  0  0
  142.6957   71.6848  221.5487 H   0  0  0  0  0  0  0  0  0  0  0  0
  144.8078   71.2894  220.2790 H   0  0  0  0  0  0  0  0  0  0  0  0
  145.7811   73.1244  218.8972 H   0  0  0  0  0  0  0  0  0  0  0  0
  144.6385   75.3351  218.7918 H   0  0  0  0  0  0  0  0  0  0  0  0
  143.6910   77.6620  219.5780 H   0  0  0  0  0  0  0  0  0  0  0  0
  140.8607   78.2595  220.1308 H   0  0  0  0  0  0  0  0  0  0  0  0
  138.2899   81.4389  222.7578 H   0  0  0  0  0  0  0  0  0  0  0  0
  138.9375   80.4943  225.3725 H   0  0  0  0  0  0  0  0  0  0  0  0
  137.4697   81.3954  224.8623 H   0  0  0  0  0  0  0  0  0  0  0  0
  137.4661   79.5991  224.8623 H   0  0  0  0  0  0  0  0  0  0  0  0
  140.3675   82.1805  222.0041 H   0  0  0  0  0  0  0  0  0  0  0  0
  142.8522   81.9803  221.9447 H   0  0  0  0  0  0  0  0  0  0  0  0
  143.9832   80.0780  223.0936 H   0  0  0  0  0  0  0  0  0  0  0  0
  142.6307   78.3666  224.3061 H   0  0  0  0  0  0  0  0  0  0  0  0
  140.1433   78.5574  224.3771 H   0  0  0  0  0  0  0  0  0  0  0  0
  1  2  1  0
  2  3  2  0
  3  4  1  0
  4  5  2  0
  5  6  1  0
  6  7  2  0
  7  8  1  0
  8  9  2  0
  9 10  1  0
 10 11  2  0
 11 12  1  0
 12 13  1  0
 13 14  1  0
 13 15  2  0
 15 16  1  0
 16 17  2  0
 17 18  1  0
 18 19  2  0
 18 20  1  0
 20 21  1  0
 21 22  1  0
 21 23  1  0
 23 24  2  0
 24 25  1  0
 25 26  2  0
 26 27  1  0
 27 28  2  0
 17  3  1  0
 28 23  1  0
 15  5  1  0
 12  7  1  0
  8 29  1  0
  9 30  1  0
 10 31  1  0
 11 32  1  0
 14 33  1  0
 16 34  1  0
 21 35  1  6
 22 36  1  0
 22 37  1  0
 22 38  1  0
 24 39  1  0
 25 40  1  0
 26 41  1  0
 27 42  1  0
 28 43  1  0
M  CHG  1  20  -1
M  END
>  <meeko>  (11) 
{"free_energy": -6.46, "intermolecular_energy": -8.25, "internal_energy": -1.54, "cluster_size": 3, "cluster_id": 4, "rank_in_cluster": 3}

$$$$

     RDKit          3D

 43 46  0  0  0  0  0  0  0  0999 V2000
  139.1030   80.7930  220.5330 H   0  0  0  0  0  0  0  0  0  0  0  0
  139.8230   80.1490  220.1400 N   0  0  0  0  0  0  0  0  0  0  0  0
  140.0290   78.9300  220.5370 C   0  0  0  0  0  0  0  0  0  0  0  0
  141.1280   78.2860  220.0630 N   0  0  0  0  0  0  0  0  0  0  0  0
  141.4000   76.9960  220.3640 C   0  0  0  0  0  0  0  0  0  0  0  0
  142.5070   76.4020  219.8730 N   0  0  0  0  0  0  0  0  0  0  0  0
  142.7980   75.1070  220.1530 C   0  0  0  0  0  0  0  0  0  0  0  0
  143.9650   74.5550  219.6130 C   0  0  0  0  0  0  0  0  0  0  0  0
  144.2880   73.2290  219.8810 C   0  0  0  0  0  0  0  0  0  0  0  0
  143.4480   72.4640  220.6820 C   0  0  0  0  0  0  0  0  0  0  0  0
  142.2890   73.0360  221.2110 C   0  0  0  0  0  0  0  0  0  0  0  0
  141.9630   74.3450  220.9510 N   0  0  0  0  0  0  0  0  0  0  0  0
  140.8120   74.8830  221.4840 C   0  0  0  0  0  0  0  0  0  0  0  0
  139.9870   74.0750  222.2790 O   0  0  0  0  0  0  0  0  0  0  0  0
  140.4840   76.2300  221.2200 C   0  0  0  0  0  0  0  0  0  0  0  0
  139.3600   76.9010  221.7200 C   0  0  0  0  0  0  0  0  0  0  0  0
  139.1270   78.2520  221.4040 C   0  0  0  0  0  0  0  0  0  0  0  0
  137.9580   78.9150  222.0250 C   0  0  0  0  0  0  0  0  0  0  0  0
  136.9330   78.2470  222.3270 O   0  0  0  0  0  0  0  0  0  0  0  0
  137.9720   80.3340  222.2210 N   0  0  0  0  0  0  0  0  0  0  0  0
  138.6660   80.9880  223.3270 C   0  0  1  0  0  0  0  0  0  0  0  0
  137.9840   80.6200  224.6440 C   0  0  0  0  0  0  0  0  0  0  0  0
  140.1230   80.5800  223.3550 C   0  0  0  0  0  0  0  0  0  0  0  0
  141.1030   81.3630  222.7180 C   0  0  0  0  0  0  0  0  0  0  0  0
  142.4440   80.9690  222.7370 C   0  0  0  0  0  0  0  0  0  0  0  0
  142.8180   79.7890  223.3830 C   0  0  0  0  0  0  0  0  0  0  0  0
  141.8520   78.9980  224.0080 C   0  0  0  0  0  0  0  0  0  0  0  0
  140.5090   79.3880  223.9930 C   0  0  0  0  0  0  0  0  0  0  0  0
  144.6239   75.1670  218.9795 H   0  0  0  0  0  0  0  0  0  0  0  0
  145.2039   72.7877  219.4611 H   0  0  0  0  0  0  0  0  0  0  0  0
  143.6948   71.4140  220.8980 H   0  0  0  0  0  0  0  0  0  0  0  0
  141.6268   72.4290  221.8458 H   0  0  0  0  0  0  0  0  0  0  0  0
  139.2080   74.4100  222.8280 H   0  0  0  0  0  0  0  0  0  0  0  0
  138.6509   76.3647  222.3677 H   0  0  0  0  0  0  0  0  0  0  0  0
  138.6191   82.0781  223.1871 H   0  0  0  0  0  0  0  0  0  0  0  0
  138.6070   80.9561  225.4860 H   0  0  0  0  0  0  0  0  0  0  0  0
  137.0005   81.1099  224.6970 H   0  0  0  0  0  0  0  0  0  0  0  0
  137.8535   79.5291  224.6970 H   0  0  0  0  0  0  0  0  0  0  0  0
  140.8124   82.2901  222.2023 H   0  0  0  0  0  0  0  0  0  0  0  0
  143.2058   81.5895  222.2423 H   0  0  0  0  0  0  0  0  0  0  0  0
  143.8743   79.4824  223.3995 H   0  0  0  0  0  0  0  0  0  0  0  0
  142.1477   78.0666  224.5130 H   0  0  0  0  0  0  0  0  0  0  0  0
  139.7510   78.7591  224.4827 H   0  0  0  0  0  0  0  0  0  0  0  0
  1  2  1  0
  2  3  2  0
  3  4  1  0
  4  5  2  0
  5  6  1  0
  6  7  2  0
  7  8  1  0
  8  9  2  0
  9 10  1  0
 10 11  2  0
 11 12  1  0
 12 13  1  0
 13 14  1  0
 13 15  2  0
 15 16  1  0
 16 17  2  0
 17 18  1  0
 18 19  2  0
 18 20  1  0
 20 21  1  0
 21 22  1  0
 21 23  1  0
 23 24  2  0
 24 25  1  0
 25 26  2  0
 26 27  1  0
 27 28  2  0
 17  3  1  0
 28 23  1  0
 15  5  1  0
 12  7  1  0
  8 29  1  0
  9 30  1  0
 10 31  1  0
 11 32  1  0
 14 33  1  0
 16 34  1  0
 21 35  1  6
 22 36  1  0
 22 37  1  0
 22 38  1  0
 24 39  1  0
 25 40  1  0
 26 41  1  0
 27 42  1  0
 28 43  1  0
M  CHG  1  20  -1
M  END
>  <meeko>  (12) 
{"free_energy": -6.33, "intermolecular_energy": -8.12, "internal_energy": -1.72, "cluster_size": 4, "cluster_id": 5, "rank_in_cluster": 3}

$$$$

     RDKit          3D

 43 46  0  0  0  0  0  0  0  0999 V2000
  139.1500   80.7550  220.5090 H   0  0  0  0  0  0  0  0  0  0  0  0
  139.7810   80.0660  220.0450 N   0  0  0  0  0  0  0  0  0  0  0  0
  139.9980   78.8560  220.4620 C   0  0  0  0  0  0  0  0  0  0  0  0
  141.0920   78.2070  219.9840 N   0  0  0  0  0  0  0  0  0  0  0  0
  141.3740   76.9240  220.3050 C   0  0  0  0  0  0  0  0  0  0  0  0
  142.4760   76.3250  219.8100 N   0  0  0  0  0  0  0  0  0  0  0  0
  142.7760   75.0370  220.1090 C   0  0  0  0  0  0  0  0  0  0  0  0
  143.9380   74.4790  219.5630 C   0  0  0  0  0  0  0  0  0  0  0  0
  144.2700   73.1600  219.8510 C   0  0  0  0  0  0  0  0  0  0  0  0
  143.4450   72.4070  220.6780 C   0  0  0  0  0  0  0  0  0  0  0  0
  142.2910   72.9840  221.2130 C   0  0  0  0  0  0  0  0  0  0  0  0
  141.9560   74.2870  220.9330 N   0  0  0  0  0  0  0  0  0  0  0  0
  140.8110   74.8300  221.4720 C   0  0  0  0  0  0  0  0  0  0  0  0
  140.0010   74.0340  222.2950 O   0  0  0  0  0  0  0  0  0  0  0  0
  140.4730   76.1710  221.1880 C   0  0  0  0  0  0  0  0  0  0  0  0
  139.3530   76.8470  221.6920 C   0  0  0  0  0  0  0  0  0  0  0  0
  139.1110   78.1910  221.3540 C   0  0  0  0  0  0  0  0  0  0  0  0
  137.9480   78.8610  221.9790 C   0  0  0  0  0  0  0  0  0  0  0  0
  136.9180   78.2000  222.2790 O   0  0  0  0  0  0  0  0  0  0  0  0
  137.9740   80.2790  222.1810 N   0  0  0  0  0  0  0  0  0  0  0  0
  138.7120   80.9260  223.2630 C   0  0  1  0  0  0  0  0  0  0  0  0
  138.0710   80.5640  224.6020 C   0  0  0  0  0  0  0  0  0  0  0  0
  140.1650   80.5020  223.2420 C   0  0  0  0  0  0  0  0  0  0  0  0
  140.5790   79.3170  223.8790 C   0  0  0  0  0  0  0  0  0  0  0  0
  141.9250   78.9420  223.8660 C   0  0  0  0  0  0  0  0  0  0  0  0
  142.8710   79.7470  223.2270 C   0  0  0  0  0  0  0  0  0  0  0  0
  142.4730   80.9310  222.6030 C   0  0  0  0  0  0  0  0  0  0  0  0
  141.1260   81.3110  222.6110 C   0  0  0  0  0  0  0  0  0  0  0  0
  144.5855   75.0815  218.9090 H   0  0  0  0  0  0  0  0  0  0  0  0
  145.1816   72.7144  219.4262 H   0  0  0  0  0  0  0  0  0  0  0  0
  143.6995   71.3623  220.9099 H   0  0  0  0  0  0  0  0  0  0  0  0
  141.6404   72.3863  221.8684 H   0  0  0  0  0  0  0  0  0  0  0  0
  139.1860   74.3620  222.7920 H   0  0  0  0  0  0  0  0  0  0  0  0
  138.6552   76.3203  222.3596 H   0  0  0  0  0  0  0  0  0  0  0  0
  138.6721   82.0165  223.1247 H   0  0  0  0  0  0  0  0  0  0  0  0
  138.7085   80.9240  225.4230 H   0  0  0  0  0  0  0  0  0  0  0  0
  137.0799   81.0357  224.6735 H   0  0  0  0  0  0  0  0  0  0  0  0
  137.9632   79.4716  224.6735 H   0  0  0  0  0  0  0  0  0  0  0  0
  139.8392   78.6830  224.3896 H   0  0  0  0  0  0  0  0  0  0  0  0
  142.2403   78.0111  224.3599 H   0  0  0  0  0  0  0  0  0  0  0  0
  143.9296   79.4481  223.2154 H   0  0  0  0  0  0  0  0  0  0  0  0
  143.2196   81.5664  222.1041 H   0  0  0  0  0  0  0  0  0  0  0  0
  140.8180   82.2467  222.1214 H   0  0  0  0  0  0  0  0  0  0  0  0
  1  2  1  0
  2  3  2  0
  3  4  1  0
  4  5  2  0
  5  6  1  0
  6  7  2  0
  7  8  1  0
  8  9  2  0
  9 10  1  0
 10 11  2  0
 11 12  1  0
 12 13  1  0
 13 14  1  0
 13 15  2  0
 15 16  1  0
 16 17  2  0
 17 18  1  0
 18 19  2  0
 18 20  1  0
 20 21  1  0
 21 22  1  0
 21 23  1  0
 23 24  2  0
 24 25  1  0
 25 26  2  0
 26 27  1  0
 27 28  2  0
 17  3  1  0
 28 23  1  0
 15  5  1  0
 12  7  1  0
  8 29  1  0
  9 30  1  0
 10 31  1  0
 11 32  1  0
 14 33  1  0
 16 34  1  0
 21 35  1  6
 22 36  1  0
 22 37  1  0
 22 38  1  0
 24 39  1  0
 25 40  1  0
 26 41  1  0
 27 42  1  0
 28 43  1  0
M  CHG  1  20  -1
M  END
>  <meeko>  (13) 
{"free_energy": -6.33, "intermolecular_energy": -8.12, "internal_energy": -1.71, "cluster_size": 4, "cluster_id": 5, "rank_in_cluster": 4}

$$$$

     RDKit          3D

 43 46  0  0  0  0  0  0  0  0999 V2000
  133.8490   68.0890  225.8170 H   0  0  0  0  0  0  0  0  0  0  0  0
  133.5220   68.8980  226.3870 N   0  0  0  0  0  0  0  0  0  0  0  0
  133.8450   70.1380  226.1760 C   0  0  0  0  0  0  0  0  0  0  0  0
  133.1450   71.0970  226.8370 N   0  0  0  0  0  0  0  0  0  0  0  0
  133.3590   72.4180  226.6400 C   0  0  0  0  0  0  0  0  0  0  0  0
  132.6430   73.3320  227.3250 N   0  0  0  0  0  0  0  0  0  0  0  0
  132.8320   74.6630  227.1400 C   0  0  0  0  0  0  0  0  0  0  0  0
  132.0560   75.5570  227.8870 C   0  0  0  0  0  0  0  0  0  0  0  0
  132.2270   76.9260  227.7160 C   0  0  0  0  0  0  0  0  0  0  0  0
  133.1660   77.3950  226.8050 C   0  0  0  0  0  0  0  0  0  0  0  0
  133.9300   76.4850  226.0710 C   0  0  0  0  0  0  0  0  0  0  0  0
  133.7670   75.1300  226.2340 N   0  0  0  0  0  0  0  0  0  0  0  0
  134.5330   74.2550  225.4950 C   0  0  0  0  0  0  0  0  0  0  0  0
  135.4630   74.7690  224.5800 O   0  0  0  0  0  0  0  0  0  0  0  0
  134.3670   72.8640  225.6690 C   0  0  0  0  0  0  0  0  0  0  0  0
  135.0990   71.8730  225.0000 C   0  0  0  0  0  0  0  0  0  0  0  0
  134.8630   70.5090  225.2530 C   0  0  0  0  0  0  0  0  0  0  0  0
  135.7200   69.5200  224.5620 C   0  0  0  0  0  0  0  0  0  0  0  0
  135.2350   68.4310  224.1530 O   0  0  0  0  0  0  0  0  0  0  0  0
  137.1220   69.7790  224.4170 N   0  0  0  0  0  0  0  0  0  0  0  0
  138.1620   68.9020  224.9490 C   0  0  1  0  0  0  0  0  0  0  0  0
  138.8670   68.1930  223.7940 C   0  0  0  0  0  0  0  0  0  0  0  0
  139.1580   69.6960  225.7670 C   0  0  0  0  0  0  0  0  0  0  0  0
  139.9100   70.7320  225.1810 C   0  0  0  0  0  0  0  0  0  0  0  0
  140.8370   71.4490  225.9410 C   0  0  0  0  0  0  0  0  0  0  0  0
  141.0300   71.1360  227.2880 C   0  0  0  0  0  0  0  0  0  0  0  0
  140.2980   70.1020  227.8780 C   0  0  0  0  0  0  0  0  0  0  0  0
  139.3670   69.3820  227.1220 C   0  0  0  0  0  0  0  0  0  0  0  0
  131.3145   75.1782  228.6058 H   0  0  0  0  0  0  0  0  0  0  0  0
  131.6215   77.6352  228.2994 H   0  0  0  0  0  0  0  0  0  0  0  0
  133.3066   78.4767  226.6629 H   0  0  0  0  0  0  0  0  0  0  0  0
  134.6735   76.8584  225.3515 H   0  0  0  0  0  0  0  0  0  0  0  0
  136.3460   74.3360  224.3520 H   0  0  0  0  0  0  0  0  0  0  0  0
  135.8669   72.1651  224.2686 H   0  0  0  0  0  0  0  0  0  0  0  0
  137.6994   68.1519  225.6073 H   0  0  0  0  0  0  0  0  0  0  0  0
  139.5891   67.4668  224.1956 H   0  0  0  0  0  0  0  0  0  0  0  0
  138.1229   67.6675  223.1774 H   0  0  0  0  0  0  0  0  0  0  0  0
  139.3967   68.9341  223.1774 H   0  0  0  0  0  0  0  0  0  0  0  0
  139.7667   70.9782  224.1185 H   0  0  0  0  0  0  0  0  0  0  0  0
  141.4159   72.2615  225.4776 H   0  0  0  0  0  0  0  0  0  0  0  0
  141.7587   71.7037  227.8852 H   0  0  0  0  0  0  0  0  0  0  0  0
  140.4542   69.8540  228.9382 H   0  0  0  0  0  0  0  0  0  0  0  0
  138.7957   68.5664  227.5894 H   0  0  0  0  0  0  0  0  0  0  0  0
  1  2  1  0
  2  3  2  0
  3  4  1  0
  4  5  2  0
  5  6  1  0
  6  7  2  0
  7  8  1  0
  8  9  2  0
  9 10  1  0
 10 11  2  0
 11 12  1  0
 12 13  1  0
 13 14  1  0
 13 15  2  0
 15 16  1  0
 16 17  2  0
 17 18  1  0
 18 19  2  0
 18 20  1  0
 20 21  1  0
 21 22  1  0
 21 23  1  0
 23 24  2  0
 24 25  1  0
 25 26  2  0
 26 27  1  0
 27 28  2  0
 17  3  1  0
 28 23  1  0
 15  5  1  0
 12  7  1  0
  8 29  1  0
  9 30  1  0
 10 31  1  0
 11 32  1  0
 14 33  1  0
 16 34  1  0
 21 35  1  1
 22 36  1  0
 22 37  1  0
 22 38  1  0
 24 39  1  0
 25 40  1  0
 26 41  1  0
 27 42  1  0
 28 43  1  0
M  CHG  1  20  -1
M  END
>  <meeko>  (14) 
{"free_energy": -7.94, "intermolecular_energy": -9.73, "internal_energy": -0.95, "cluster_size": 11, "cluster_id": 1, "rank_in_cluster": 4}

$$$$

     RDKit          3D

 43 46  0  0  0  0  0  0  0  0999 V2000
  137.3450   77.3400  223.3480 H   0  0  0  0  0  0  0  0  0  0  0  0
  137.8210   76.4580  223.0630 N   0  0  0  0  0  0  0  0  0  0  0  0
  138.8600   76.3870  222.2880 C   0  0  0  0  0  0  0  0  0  0  0  0
  139.5650   75.2260  222.2750 N   0  0  0  0  0  0  0  0  0  0  0  0
  140.6980   75.0710  221.5520 C   0  0  0  0  0  0  0  0  0  0  0  0
  141.3580   73.8950  221.5680 N   0  0  0  0  0  0  0  0  0  0  0  0
  142.5010   73.7170  220.8580 C   0  0  0  0  0  0  0  0  0  0  0  0
  143.1340   72.4710  220.9170 C   0  0  0  0  0  0  0  0  0  0  0  0
  144.3080   72.2600  220.2020 C   0  0  0  0  0  0  0  0  0  0  0  0
  144.8420   73.2890  219.4360 C   0  0  0  0  0  0  0  0  0  0  0  0
  144.1930   74.5240  219.3910 C   0  0  0  0  0  0  0  0  0  0  0  0
  143.0330   74.7410  220.0950 N   0  0  0  0  0  0  0  0  0  0  0  0
  142.4150   75.9710  220.0340 C   0  0  0  0  0  0  0  0  0  0  0  0
  142.9910   76.9850  219.2570 O   0  0  0  0  0  0  0  0  0  0  0  0
  141.2200   76.1870  220.7530 C   0  0  0  0  0  0  0  0  0  0  0  0
  140.4830   77.3800  220.7560 C   0  0  0  0  0  0  0  0  0  0  0  0
  139.2950   77.4910  221.5020 C   0  0  0  0  0  0  0  0  0  0  0  0
  138.5320   78.7560  221.4010 C   0  0  0  0  0  0  0  0  0  0  0  0
  138.4210   79.3460  220.2930 O   0  0  0  0  0  0  0  0  0  0  0  0
  137.9750   79.3410  222.5830 N   0  0  0  0  0  0  0  0  0  0  0  0
  138.5700   80.4820  223.2750 C   0  0  1  0  0  0  0  0  0  0  0  0
  138.0510   80.5330  224.7110 C   0  0  0  0  0  0  0  0  0  0  0  0
  140.0800   80.3800  223.2640 C   0  0  0  0  0  0  0  0  0  0  0  0
  140.8650   81.3720  222.6460 C   0  0  0  0  0  0  0  0  0  0  0  0
  142.2580   81.2610  222.6290 C   0  0  0  0  0  0  0  0  0  0  0  0
  142.8800   80.1580  223.2180 C   0  0  0  0  0  0  0  0  0  0  0  0
  142.1110   79.1620  223.8230 C   0  0  0  0  0  0  0  0  0  0  0  0
  140.7160   79.2680  223.8450 C   0  0  0  0  0  0  0  0  0  0  0  0
  142.7051   71.6617  221.5262 H   0  0  0  0  0  0  0  0  0  0  0  0
  144.8116   71.2829  220.2427 H   0  0  0  0  0  0  0  0  0  0  0  0
  145.7709   73.1313  218.8683 H   0  0  0  0  0  0  0  0  0  0  0  0
  144.6168   75.3364  218.7824 H   0  0  0  0  0  0  0  0  0  0  0  0
  143.6520   77.6680  219.5970 H   0  0  0  0  0  0  0  0  0  0  0  0
  140.8378   78.2394  220.1681 H   0  0  0  0  0  0  0  0  0  0  0  0
  138.2852   81.4077  222.7535 H   0  0  0  0  0  0  0  0  0  0  0  0
  138.8966   80.4499  225.4097 H   0  0  0  0  0  0  0  0  0  0  0  0
  137.5292   81.4867  224.8786 H   0  0  0  0  0  0  0  0  0  0  0  0
  137.3535   79.6991  224.8786 H   0  0  0  0  0  0  0  0  0  0  0  0
  140.3794   82.2389  222.1741 H   0  0  0  0  0  0  0  0  0  0  0  0
  142.8655   82.0436  222.1510 H   0  0  0  0  0  0  0  0  0  0  0  0
  143.9767   80.0738  223.2053 H   0  0  0  0  0  0  0  0  0  0  0  0
  142.6028   78.2923  224.2832 H   0  0  0  0  0  0  0  0  0  0  0  0
  140.1141   78.4784  224.3186 H   0  0  0  0  0  0  0  0  0  0  0  0
  1  2  1  0
  2  3  2  0
  3  4  1  0
  4  5  2  0
  5  6  1  0
  6  7  2  0
  7  8  1  0
  8  9  2  0
  9 10  1  0
 10 11  2  0
 11 12  1  0
 12 13  1  0
 13 14  1  0
 13 15  2  0
 15 16  1  0
 16 17  2  0
 17 18  1  0
 18 19  2  0
 18 20  1  0
 20 21  1  0
 21 22  1  0
 21 23  1  0
 23 24  2  0
 24 25  1  0
 25 26  2  0
 26 27  1  0
 27 28  2  0
 17  3  1  0
 28 23  1  0
 15  5  1  0
 12  7  1  0
  8 29  1  0
  9 30  1  0
 10 31  1  0
 11 32  1  0
 14 33  1  0
 16 34  1  0
 21 35  1  6
 22 36  1  0
 22 37  1  0
 22 38  1  0
 24 39  1  0
 25 40  1  0
 26 41  1  0
 27 42  1  0
 28 43  1  0
M  CHG  1  20  -1
M  END
>  <meeko>  (15) 
{"free_energy": -6.53, "intermolecular_energy": -8.32, "internal_energy": -1.5, "cluster_size": 3, "cluster_id": 4, "rank_in_cluster": 2}

$$$$

     RDKit          3D

 43 46  0  0  0  0  0  0  0  0999 V2000
  133.8630   68.0990  225.7900 H   0  0  0  0  0  0  0  0  0  0  0  0
  133.5310   68.9080  226.3580 N   0  0  0  0  0  0  0  0  0  0  0  0
  133.8460   70.1490  226.1430 C   0  0  0  0  0  0  0  0  0  0  0  0
  133.1460   71.1050  226.8080 N   0  0  0  0  0  0  0  0  0  0  0  0
  133.3510   72.4270  226.6070 C   0  0  0  0  0  0  0  0  0  0  0  0
  132.6340   73.3380  227.2960 N   0  0  0  0  0  0  0  0  0  0  0  0
  132.8150   74.6700  227.1070 C   0  0  0  0  0  0  0  0  0  0  0  0
  132.0390   75.5600  227.8580 C   0  0  0  0  0  0  0  0  0  0  0  0
  132.2010   76.9300  227.6840 C   0  0  0  0  0  0  0  0  0  0  0  0
  133.1320   77.4030  226.7660 C   0  0  0  0  0  0  0  0  0  0  0  0
  133.8950   76.4960  226.0280 C   0  0  0  0  0  0  0  0  0  0  0  0
  133.7410   75.1410  226.1950 N   0  0  0  0  0  0  0  0  0  0  0  0
  134.5070   74.2690  225.4520 C   0  0  0  0  0  0  0  0  0  0  0  0
  135.4280   74.7860  224.5300 O   0  0  0  0  0  0  0  0  0  0  0  0
  134.3500   72.8770  225.6290 C   0  0  0  0  0  0  0  0  0  0  0  0
  135.0820   71.8890  224.9560 C   0  0  0  0  0  0  0  0  0  0  0  0
  134.8550   70.5240  225.2130 C   0  0  0  0  0  0  0  0  0  0  0  0
  135.7140   69.5390  224.5180 C   0  0  0  0  0  0  0  0  0  0  0  0
  135.2250   68.4610  224.0840 O   0  0  0  0  0  0  0  0  0  0  0  0
  137.1200   69.7860  224.3980 N   0  0  0  0  0  0  0  0  0  0  0  0
  138.1430   68.9190  224.9760 C   0  0  1  0  0  0  0  0  0  0  0  0
  138.8490   68.1530  223.8580 C   0  0  0  0  0  0  0  0  0  0  0  0
  139.1410   69.7320  225.7710 C   0  0  0  0  0  0  0  0  0  0  0  0
  139.8880   70.7560  225.1570 C   0  0  0  0  0  0  0  0  0  0  0  0
  140.8180   71.4910  225.8970 C   0  0  0  0  0  0  0  0  0  0  0  0
  141.0190   71.2090  227.2500 C   0  0  0  0  0  0  0  0  0  0  0  0
  140.2920   70.1870  227.8660 C   0  0  0  0  0  0  0  0  0  0  0  0
  139.3590   69.4490  227.1310 C   0  0  0  0  0  0  0  0  0  0  0  0
  131.3046   75.1777  228.5823 H   0  0  0  0  0  0  0  0  0  0  0  0
  131.5951   77.6366  228.2702 H   0  0  0  0  0  0  0  0  0  0  0  0
  133.2666   78.4852  226.6220 H   0  0  0  0  0  0  0  0  0  0  0  0
  134.6307   76.8720  225.3018 H   0  0  0  0  0  0  0  0  0  0  0  0
  136.3130   74.3590  224.2970 H   0  0  0  0  0  0  0  0  0  0  0  0
  135.8428   72.1840  224.2183 H   0  0  0  0  0  0  0  0  0  0  0  0
  137.6643   68.2030  225.6603 H   0  0  0  0  0  0  0  0  0  0  0  0
  139.5326   67.4113  224.2967 H   0  0  0  0  0  0  0  0  0  0  0  0
  138.1009   67.6395  223.2362 H   0  0  0  0  0  0  0  0  0  0  0  0
  139.4217   68.8569  223.2362 H   0  0  0  0  0  0  0  0  0  0  0  0
  139.7387   70.9782  224.0901 H   0  0  0  0  0  0  0  0  0  0  0  0
  141.3932   72.2938  225.4126 H   0  0  0  0  0  0  0  0  0  0  0  0
  141.7495   71.7914  227.8306 H   0  0  0  0  0  0  0  0  0  0  0  0
  140.4539   69.9627  228.9306 H   0  0  0  0  0  0  0  0  0  0  0  0
  138.7924   68.6425  227.6195 H   0  0  0  0  0  0  0  0  0  0  0  0
  1  2  1  0
  2  3  2  0
  3  4  1  0
  4  5  2  0
  5  6  1  0
  6  7  2  0
  7  8  1  0
  8  9  2  0
  9 10  1  0
 10 11  2  0
 11 12  1  0
 12 13  1  0
 13 14  1  0
 13 15  2  0
 15 16  1  0
 16 17  2  0
 17 18  1  0
 18 19  2  0
 18 20  1  0
 20 21  1  0
 21 22  1  0
 21 23  1  0
 23 24  2  0
 24 25  1  0
 25 26  2  0
 26 27  1  0
 27 28  2  0
 17  3  1  0
 28 23  1  0
 15  5  1  0
 12  7  1  0
  8 29  1  0
  9 30  1  0
 10 31  1  0
 11 32  1  0
 14 33  1  0
 16 34  1  0
 21 35  1  1
 22 36  1  0
 22 37  1  0
 22 38  1  0
 24 39  1  0
 25 40  1  0
 26 41  1  0
 27 42  1  0
 28 43  1  0
M  CHG  1  20  -1
M  END
>  <meeko>  (16) 
{"free_energy": -7.97, "intermolecular_energy": -9.76, "internal_energy": -0.94, "cluster_size": 11, "cluster_id": 1, "rank_in_cluster": 2}

$$$$

     RDKit          3D

 43 46  0  0  0  0  0  0  0  0999 V2000
  134.1230   68.3080  225.9810 H   0  0  0  0  0  0  0  0  0  0  0  0
  133.6410   69.1340  226.3950 N   0  0  0  0  0  0  0  0  0  0  0  0
  133.9450   70.3730  226.1550 C   0  0  0  0  0  0  0  0  0  0  0  0
  133.2260   71.3360  226.7900 N   0  0  0  0  0  0  0  0  0  0  0  0
  133.4200   72.6560  226.5620 C   0  0  0  0  0  0  0  0  0  0  0  0
  132.6860   73.5740  227.2220 N   0  0  0  0  0  0  0  0  0  0  0  0
  132.8550   74.9030  227.0060 C   0  0  0  0  0  0  0  0  0  0  0  0
  132.0610   75.8020  227.7270 C   0  0  0  0  0  0  0  0  0  0  0  0
  132.2110   77.1690  227.5250 C   0  0  0  0  0  0  0  0  0  0  0  0
  133.1470   77.6310  226.6070 C   0  0  0  0  0  0  0  0  0  0  0  0
  133.9290   76.7160  225.8990 C   0  0  0  0  0  0  0  0  0  0  0  0
  133.7870   75.3640  226.0940 N   0  0  0  0  0  0  0  0  0  0  0  0
  134.5700   74.4840  225.3790 C   0  0  0  0  0  0  0  0  0  0  0  0
  135.4970   74.9900  224.4570 O   0  0  0  0  0  0  0  0  0  0  0  0
  134.4260   73.0950  225.5860 C   0  0  0  0  0  0  0  0  0  0  0  0
  135.1770   72.1000  224.9440 C   0  0  0  0  0  0  0  0  0  0  0  0
  134.9610   70.7380  225.2290 C   0  0  0  0  0  0  0  0  0  0  0  0
  135.8380   69.7470  224.5660 C   0  0  0  0  0  0  0  0  0  0  0  0
  135.4990   68.5350  224.5080 O   0  0  0  0  0  0  0  0  0  0  0  0
  137.1070   70.1610  224.0480 N   0  0  0  0  0  0  0  0  0  0  0  0
  138.3300   69.3750  224.1870 C   0  0  1  0  0  0  0  0  0  0  0  0
  139.1270   69.4400  222.8840 C   0  0  0  0  0  0  0  0  0  0  0  0
  139.1640   69.8900  225.3400 C   0  0  0  0  0  0  0  0  0  0  0  0
  139.9490   71.0500  225.2020 C   0  0  0  0  0  0  0  0  0  0  0  0
  140.7260   71.5080  226.2680 C   0  0  0  0  0  0  0  0  0  0  0  0
  140.7350   70.8110  227.4790 C   0  0  0  0  0  0  0  0  0  0  0  0
  139.9690   69.6520  227.6240 C   0  0  0  0  0  0  0  0  0  0  0  0
  139.1880   69.1890  226.5600 C   0  0  0  0  0  0  0  0  0  0  0  0
  131.3214   75.4284  228.4505 H   0  0  0  0  0  0  0  0  0  0  0  0
  131.5918   77.8820  228.0890 H   0  0  0  0  0  0  0  0  0  0  0  0
  133.2710   78.7110  226.4392 H   0  0  0  0  0  0  0  0  0  0  0  0
  134.6701   77.0838  225.1740 H   0  0  0  0  0  0  0  0  0  0  0  0
  136.3900   74.5690  224.2470 H   0  0  0  0  0  0  0  0  0  0  0  0
  135.9438   72.3867  224.2092 H   0  0  0  0  0  0  0  0  0  0  0  0
  138.0631   68.3289  224.3978 H   0  0  0  0  0  0  0  0  0  0  0  0
  140.1991   69.5274  223.1140 H   0  0  0  0  0  0  0  0  0  0  0  0
  138.9507   68.5245  222.3003 H   0  0  0  0  0  0  0  0  0  0  0  0
  138.8046   70.3148  222.3003 H   0  0  0  0  0  0  0  0  0  0  0  0
  139.9505   71.5990  224.2488 H   0  0  0  0  0  0  0  0  0  0  0  0
  141.3320   72.4190  226.1542 H   0  0  0  0  0  0  0  0  0  0  0  0
  141.3455   71.1751  228.3184 H   0  0  0  0  0  0  0  0  0  0  0  0
  139.9800   69.1023  228.5768 H   0  0  0  0  0  0  0  0  0  0  0  0
  138.5901   68.2732  226.6773 H   0  0  0  0  0  0  0  0  0  0  0  0
  1  2  1  0
  2  3  2  0
  3  4  1  0
  4  5  2  0
  5  6  1  0
  6  7  2  0
  7  8  1  0
  8  9  2  0
  9 10  1  0
 10 11  2  0
 11 12  1  0
 12 13  1  0
 13 14  1  0
 13 15  2  0
 15 16  1  0
 16 17  2  0
 17 18  1  0
 18 19  2  0
 18 20  1  0
 20 21  1  0
 21 22  1  0
 21 23  1  0
 23 24  2  0
 24 25  1  0
 25 26  2  0
 26 27  1  0
 27 28  2  0
 17  3  1  0
 28 23  1  0
 15  5  1  0
 12  7  1  0
  8 29  1  0
  9 30  1  0
 10 31  1  0
 11 32  1  0
 14 33  1  0
 16 34  1  0
 21 35  1  1
 22 36  1  0
 22 37  1  0
 22 38  1  0
 24 39  1  0
 25 40  1  0
 26 41  1  0
 27 42  1  0
 28 43  1  0
M  CHG  1  20  -1
M  END
>  <meeko>  (17) 
{"free_energy": -7.63, "intermolecular_energy": -9.42, "internal_energy": -1.0, "cluster_size": 11, "cluster_id": 1, "rank_in_cluster": 10}

$$$$

     RDKit          3D

 43 46  0  0  0  0  0  0  0  0999 V2000
  133.8560   68.0390  225.9920 H   0  0  0  0  0  0  0  0  0  0  0  0
  133.4850   68.9050  226.4380 N   0  0  0  0  0  0  0  0  0  0  0  0
  133.8400   70.1140  226.1290 C   0  0  0  0  0  0  0  0  0  0  0  0
  133.2180   71.1410  226.7660 N   0  0  0  0  0  0  0  0  0  0  0  0
  133.4690   72.4370  226.4710 C   0  0  0  0  0  0  0  0  0  0  0  0
  132.8300   73.4210  227.1360 N   0  0  0  0  0  0  0  0  0  0  0  0
  133.0570   74.7280  226.8540 C   0  0  0  0  0  0  0  0  0  0  0  0
  132.3610   75.6980  227.5850 C   0  0  0  0  0  0  0  0  0  0  0  0
  132.5730   77.0460  227.3160 C   0  0  0  0  0  0  0  0  0  0  0  0
  133.4720   77.4180  226.3240 C   0  0  0  0  0  0  0  0  0  0  0  0
  134.1560   76.4330  225.6080 C   0  0  0  0  0  0  0  0  0  0  0  0
  133.9530   75.0990  225.8680 N   0  0  0  0  0  0  0  0  0  0  0  0
  134.6390   74.1490  225.1440 C   0  0  0  0  0  0  0  0  0  0  0  0
  135.5310   74.5650  224.1450 O   0  0  0  0  0  0  0  0  0  0  0  0
  134.4330   72.7800  225.4170 C   0  0  0  0  0  0  0  0  0  0  0  0
  135.0850   71.7200  224.7720 C   0  0  0  0  0  0  0  0  0  0  0  0
  134.8140   70.3850  225.1270 C   0  0  0  0  0  0  0  0  0  0  0  0
  135.5910   69.3200  224.4530 C   0  0  0  0  0  0  0  0  0  0  0  0
  135.0750   68.1880  224.2470 O   0  0  0  0  0  0  0  0  0  0  0  0
  136.9560   69.5610  224.0940 N   0  0  0  0  0  0  0  0  0  0  0  0
  138.0720   68.7510  224.5770 C   0  0  1  0  0  0  0  0  0  0  0  0
  138.8230   68.1600  223.3850 C   0  0  0  0  0  0  0  0  0  0  0  0
  139.0050   69.5850  225.4270 C   0  0  0  0  0  0  0  0  0  0  0  0
  139.2230   69.2690  226.7820 C   0  0  0  0  0  0  0  0  0  0  0  0
  140.0750   70.0550  227.5620 C   0  0  0  0  0  0  0  0  0  0  0  0
  140.7090   71.1670  227.0040 C   0  0  0  0  0  0  0  0  0  0  0  0
  140.4910   71.4970  225.6650 C   0  0  0  0  0  0  0  0  0  0  0  0
  139.6400   70.7130  224.8780 C   0  0  0  0  0  0  0  0  0  0  0  0
  131.6501   75.3956  228.3681 H   0  0  0  0  0  0  0  0  0  0  0  0
  132.0310   77.8147  227.8864 H   0  0  0  0  0  0  0  0  0  0  0  0
  133.6440   78.4819  226.1039 H   0  0  0  0  0  0  0  0  0  0  0  0
  134.8682   76.7296  224.8239 H   0  0  0  0  0  0  0  0  0  0  0  0
  136.4790   74.2320  224.0430 H   0  0  0  0  0  0  0  0  0  0  0  0
  135.8170   71.9338  223.9792 H   0  0  0  0  0  0  0  0  0  0  0  0
  137.6805   67.9340  225.2009 H   0  0  0  0  0  0  0  0  0  0  0  0
  139.6391   67.5178  223.7476 H   0  0  0  0  0  0  0  0  0  0  0  0
  138.1299   67.5626  222.7746 H   0  0  0  0  0  0  0  0  0  0  0  0
  139.2407   68.9742  222.7746 H   0  0  0  0  0  0  0  0  0  0  0  0
  138.7198   68.3987  227.2286 H   0  0  0  0  0  0  0  0  0  0  0  0
  140.2466   69.7974  228.6175 H   0  0  0  0  0  0  0  0  0  0  0  0
  141.3806   71.7833  227.6197 H   0  0  0  0  0  0  0  0  0  0  0  0
  140.9891   72.3749  225.2279 H   0  0  0  0  0  0  0  0  0  0  0  0
  139.4670   70.9804  223.8251 H   0  0  0  0  0  0  0  0  0  0  0  0
  1  2  1  0
  2  3  2  0
  3  4  1  0
  4  5  2  0
  5  6  1  0
  6  7  2  0
  7  8  1  0
  8  9  2  0
  9 10  1  0
 10 11  2  0
 11 12  1  0
 12 13  1  0
 13 14  1  0
 13 15  2  0
 15 16  1  0
 16 17  2  0
 17 18  1  0
 18 19  2  0
 18 20  1  0
 20 21  1  0
 21 22  1  0
 21 23  1  0
 23 24  2  0
 24 25  1  0
 25 26  2  0
 26 27  1  0
 27 28  2  0
 17  3  1  0
 28 23  1  0
 15  5  1  0
 12  7  1  0
  8 29  1  0
  9 30  1  0
 10 31  1  0
 11 32  1  0
 14 33  1  0
 16 34  1  0
 21 35  1  1
 22 36  1  0
 22 37  1  0
 22 38  1  0
 24 39  1  0
 25 40  1  0
 26 41  1  0
 27 42  1  0
 28 43  1  0
M  CHG  1  20  -1
M  END
>  <meeko>  (18) 
{"free_energy": -7.82, "intermolecular_energy": -9.61, "internal_energy": -1.01, "cluster_size": 11, "cluster_id": 1, "rank_in_cluster": 8}

$$$$

     RDKit          3D

 43 46  0  0  0  0  0  0  0  0999 V2000
  144.6320   70.3320  220.6290 H   0  0  0  0  0  0  0  0  0  0  0  0
  143.6840   70.7580  220.7020 N   0  0  0  0  0  0  0  0  0  0  0  0
  143.4310   72.0300  220.6480 C   0  0  0  0  0  0  0  0  0  0  0  0
  142.2880   72.4750  221.2340 N   0  0  0  0  0  0  0  0  0  0  0  0
  141.9010   73.7700  221.1790 C   0  0  0  0  0  0  0  0  0  0  0  0
  140.7610   74.1650  221.7820 N   0  0  0  0  0  0  0  0  0  0  0  0
  140.3460   75.4560  221.7350 C   0  0  0  0  0  0  0  0  0  0  0  0
  139.1540   75.7960  222.3840 C   0  0  0  0  0  0  0  0  0  0  0  0
  138.7030   77.1110  222.3510 C   0  0  0  0  0  0  0  0  0  0  0  0
  139.4400   78.0750  221.6730 C   0  0  0  0  0  0  0  0  0  0  0  0
  140.6260   77.7120  221.0320 C   0  0  0  0  0  0  0  0  0  0  0  0
  141.0790   76.4150  221.0600 N   0  0  0  0  0  0  0  0  0  0  0  0
  142.2520   76.0860  220.4170 C   0  0  0  0  0  0  0  0  0  0  0  0
  142.9600   77.0850  219.7360 O   0  0  0  0  0  0  0  0  0  0  0  0
  142.7170   74.7530  220.4530 C   0  0  0  0  0  0  0  0  0  0  0  0
  143.9020   74.2950  219.8630 C   0  0  0  0  0  0  0  0  0  0  0  0
  144.2830   72.9430  219.9660 C   0  0  0  0  0  0  0  0  0  0  0  0
  145.5820   72.5450  219.3790 C   0  0  0  0  0  0  0  0  0  0  0  0
  146.4270   73.4210  219.0490 O   0  0  0  0  0  0  0  0  0  0  0  0
  145.8490   71.1610  219.1250 N   0  0  0  0  0  0  0  0  0  0  0  0
  145.1900   70.3930  218.0730 C   0  0  1  0  0  0  0  0  0  0  0  0
  145.9430   70.5830  216.7570 C   0  0  0  0  0  0  0  0  0  0  0  0
  145.1350   68.9260  218.4420 C   0  0  0  0  0  0  0  0  0  0  0  0
  143.9020   68.2770  218.6380 C   0  0  0  0  0  0  0  0  0  0  0  0
  143.8630   66.9260  218.9930 C   0  0  0  0  0  0  0  0  0  0  0  0
  145.0510   66.2120  219.1640 C   0  0  0  0  0  0  0  0  0  0  0  0
  146.2810   66.8490  218.9840 C   0  0  0  0  0  0  0  0  0  0  0  0
  146.3260   68.2010  218.6270 C   0  0  0  0  0  0  0  0  0  0  0  0
  138.5765   75.0269  222.9177 H   0  0  0  0  0  0  0  0  0  0  0  0
  137.7673   77.3871  222.8591 H   0  0  0  0  0  0  0  0  0  0  0  0
  139.0909   79.1177  221.6417 H   0  0  0  0  0  0  0  0  0  0  0  0
  141.2072   78.4767  220.4959 H   0  0  0  0  0  0  0  0  0  0  0  0
  143.8480   77.4660  220.0300 H   0  0  0  0  0  0  0  0  0  0  0  0
  144.5427   74.9997  219.3126 H   0  0  0  0  0  0  0  0  0  0  0  0
  144.1580   70.7552  217.9557 H   0  0  0  0  0  0  0  0  0  0  0  0
  146.9897   70.8471  216.9683 H   0  0  0  0  0  0  0  0  0  0  0  0
  145.9104   69.6485  216.1777 H   0  0  0  0  0  0  0  0  0  0  0  0
  145.4709   71.3902  216.1777 H   0  0  0  0  0  0  0  0  0  0  0  0
  142.9634   68.8363  218.5110 H   0  0  0  0  0  0  0  0  0  0  0  0
  142.8950   66.4241  219.1380 H   0  0  0  0  0  0  0  0  0  0  0  0
  145.0181   65.1478  219.4405 H   0  0  0  0  0  0  0  0  0  0  0  0
  147.2160   66.2866  219.1232 H   0  0  0  0  0  0  0  0  0  0  0  0
  147.2971   68.6992  218.4904 H   0  0  0  0  0  0  0  0  0  0  0  0
  1  2  1  0
  2  3  2  0
  3  4  1  0
  4  5  2  0
  5  6  1  0
  6  7  2  0
  7  8  1  0
  8  9  2  0
  9 10  1  0
 10 11  2  0
 11 12  1  0
 12 13  1  0
 13 14  1  0
 13 15  2  0
 15 16  1  0
 16 17  2  0
 17 18  1  0
 18 19  2  0
 18 20  1  0
 20 21  1  0
 21 22  1  0
 21 23  1  0
 23 24  2  0
 24 25  1  0
 25 26  2  0
 26 27  1  0
 27 28  2  0
 17  3  1  0
 28 23  1  0
 15  5  1  0
 12  7  1  0
  8 29  1  0
  9 30  1  0
 10 31  1  0
 11 32  1  0
 14 33  1  0
 16 34  1  0
 21 35  1  6
 22 36  1  0
 22 37  1  0
 22 38  1  0
 24 39  1  0
 25 40  1  0
 26 41  1  0
 27 42  1  0
 28 43  1  0
M  CHG  1  20  -1
M  END
>  <meeko>  (19) 
{"free_energy": -7.09, "intermolecular_energy": -8.88, "internal_energy": -1.01, "cluster_size": 1, "cluster_id": 2, "rank_in_cluster": 1}

$$$$

     RDKit          3D

 43 46  0  0  0  0  0  0  0  0999 V2000
  133.7430   68.0300  225.8170 H   0  0  0  0  0  0  0  0  0  0  0  0
  133.3710   68.8540  226.3370 N   0  0  0  0  0  0  0  0  0  0  0  0
  133.7200   70.0860  226.1280 C   0  0  0  0  0  0  0  0  0  0  0  0
  133.0300   71.0600  226.7780 N   0  0  0  0  0  0  0  0  0  0  0  0
  133.2710   72.3770  226.5810 C   0  0  0  0  0  0  0  0  0  0  0  0
  132.5630   73.3050  227.2550 N   0  0  0  0  0  0  0  0  0  0  0  0
  132.7800   74.6320  227.0700 C   0  0  0  0  0  0  0  0  0  0  0  0
  132.0110   75.5410  227.8050 C   0  0  0  0  0  0  0  0  0  0  0  0
  132.2100   76.9070  227.6340 C   0  0  0  0  0  0  0  0  0  0  0  0
  133.1700   77.3560  226.7350 C   0  0  0  0  0  0  0  0  0  0  0  0
  133.9260   76.4300  226.0130 C   0  0  0  0  0  0  0  0  0  0  0  0
  133.7360   75.0800  226.1760 N   0  0  0  0  0  0  0  0  0  0  0  0
  134.4940   74.1890  225.4490 C   0  0  0  0  0  0  0  0  0  0  0  0
  135.4460   74.6830  224.5450 O   0  0  0  0  0  0  0  0  0  0  0  0
  134.3000   72.8010  225.6230 C   0  0  0  0  0  0  0  0  0  0  0  0
  135.0210   71.7960  224.9650 C   0  0  0  0  0  0  0  0  0  0  0  0
  134.7570   70.4370  225.2180 C   0  0  0  0  0  0  0  0  0  0  0  0
  135.6050   69.4300  224.5400 C   0  0  0  0  0  0  0  0  0  0  0  0
  135.1290   68.3080  224.2190 O   0  0  0  0  0  0  0  0  0  0  0  0
  136.9890   69.7130  224.3090 N   0  0  0  0  0  0  0  0  0  0  0  0
  138.0770   68.8680  224.7940 C   0  0  1  0  0  0  0  0  0  0  0  0
  138.8230   68.2660  223.6040 C   0  0  0  0  0  0  0  0  0  0  0  0
  139.0250   69.6680  225.6610 C   0  0  0  0  0  0  0  0  0  0  0  0
  139.7450   70.7540  225.1290 C   0  0  0  0  0  0  0  0  0  0  0  0
  140.6290   71.4770  225.9340 C   0  0  0  0  0  0  0  0  0  0  0  0
  140.8100   71.1210  227.2720 C   0  0  0  0  0  0  0  0  0  0  0  0
  140.1100   70.0380  227.8070 C   0  0  0  0  0  0  0  0  0  0  0  0
  139.2220   69.3110  227.0070 C   0  0  0  0  0  0  0  0  0  0  0  0
  131.2530   75.1772  228.5143 H   0  0  0  0  0  0  0  0  0  0  0  0
  131.6102   77.6287  228.2079 H   0  0  0  0  0  0  0  0  0  0  0  0
  133.3334   78.4345  226.5930 H   0  0  0  0  0  0  0  0  0  0  0  0
  134.6857   76.7878  225.3025 H   0  0  0  0  0  0  0  0  0  0  0  0
  136.3240   74.2330  224.3300 H   0  0  0  0  0  0  0  0  0  0  0  0
  135.8027   72.0724  224.2421 H   0  0  0  0  0  0  0  0  0  0  0  0
  137.6564   68.0565  225.4061 H   0  0  0  0  0  0  0  0  0  0  0  0
  139.6305   67.6144  223.9691 H   0  0  0  0  0  0  0  0  0  0  0  0
  138.1237   67.6762  222.9932 H   0  0  0  0  0  0  0  0  0  0  0  0
  139.2518   69.0741  222.9932 H   0  0  0  0  0  0  0  0  0  0  0  0
  139.6111   71.0350  224.0740 H   0  0  0  0  0  0  0  0  0  0  0  0
  141.1836   72.3285  225.5128 H   0  0  0  0  0  0  0  0  0  0  0  0
  141.5041   71.6938  227.9045 H   0  0  0  0  0  0  0  0  0  0  0  0
  140.2570   69.7557  228.8600 H   0  0  0  0  0  0  0  0  0  0  0  0
  138.6755   68.4565  227.4325 H   0  0  0  0  0  0  0  0  0  0  0  0
  1  2  1  0
  2  3  2  0
  3  4  1  0
  4  5  2  0
  5  6  1  0
  6  7  2  0
  7  8  1  0
  8  9  2  0
  9 10  1  0
 10 11  2  0
 11 12  1  0
 12 13  1  0
 13 14  1  0
 13 15  2  0
 15 16  1  0
 16 17  2  0
 17 18  1  0
 18 19  2  0
 18 20  1  0
 20 21  1  0
 21 22  1  0
 21 23  1  0
 23 24  2  0
 24 25  1  0
 25 26  2  0
 26 27  1  0
 27 28  2  0
 17  3  1  0
 28 23  1  0
 15  5  1  0
 12  7  1  0
  8 29  1  0
  9 30  1  0
 10 31  1  0
 11 32  1  0
 14 33  1  0
 16 34  1  0
 21 35  1  1
 22 36  1  0
 22 37  1  0
 22 38  1  0
 24 39  1  0
 25 40  1  0
 26 41  1  0
 27 42  1  0
 28 43  1  0
M  CHG  1  20  -1
M  END
>  <meeko>  (20) 
{"free_energy": -7.89, "intermolecular_energy": -9.68, "internal_energy": -0.98, "cluster_size": 11, "cluster_id": 1, "rank_in_cluster": 7}

$$$$
