
     RDKit          3D

 41 42  0  0  0  0  0  0  0  0999 V2000
  139.6500   74.0550  222.3800 O   0  0  0  0  0  0  0  0  0  0  0  0
  140.6150   73.4520  221.5770 C   0  0  0  0  0  0  0  0  0  0  0  0
  140.9630   72.1750  221.7930 C   0  0  0  0  0  0  0  0  0  0  0  0
  140.0760   71.0350  221.3730 C   0  0  0  0  0  0  0  0  0  0  0  0
  138.8600   70.8520  222.2880 C   0  0  0  0  0  0  0  0  0  0  0  0
  139.0930   71.4210  223.5810 O   0  0  0  0  0  0  0  0  0  0  0  0
  139.5720   70.7530  224.7250 C   0  0  0  0  0  0  0  0  0  0  0  0
  140.8000   71.0710  225.3460 C   0  0  0  0  0  0  0  0  0  0  0  0
  141.2220   70.3710  226.4800 C   0  0  0  0  0  0  0  0  0  0  0  0
  140.4350   69.3440  227.0070 C   0  0  0  0  0  0  0  0  0  0  0  0
  140.9690   68.4690  228.4300 Cl  0  0  0  0  0  0  0  0  0  0  0  0
  139.2220   69.0160  226.3960 C   0  0  0  0  0  0  0  0  0  0  0  0
  138.7930   69.7130  225.2620 C   0  0  0  0  0  0  0  0  0  0  0  0
  137.2600   69.2770  224.5190 Cl  0  0  0  0  0  0  0  0  0  0  0  0
  141.2230   74.2220  220.5320 N   0  0  0  0  0  0  0  0  0  0  0  0
  141.9400   75.4020  220.7830 N   0  0  0  0  0  0  0  0  0  0  0  0
  141.4790   76.5890  220.5200 C   0  0  0  0  0  0  0  0  0  0  0  0
  141.0540   77.5630  221.5530 C   0  0  0  0  0  0  0  0  0  0  0  0
  139.7980   77.4010  222.1550 C   0  0  0  0  0  0  0  0  0  0  0  0
  139.3380   78.3260  223.0940 C   0  0  0  0  0  0  0  0  0  0  0  0
  140.1230   79.4280  223.4370 C   0  0  0  0  0  0  0  0  0  0  0  0
  141.3880   79.6100  222.8500 C   0  0  0  0  0  0  0  0  0  0  0  0
  142.2210   80.8270  223.1690 C   0  0  0  0  0  0  0  0  0  0  0  0
  143.5400   80.4450  223.3310 F   0  0  0  0  0  0  0  0  0  0  0  0
  142.1460   81.7640  222.1530 F   0  0  0  0  0  0  0  0  0  0  0  0
  141.7750   81.4190  224.3380 F   0  0  0  0  0  0  0  0  0  0  0  0
  141.8310   78.6910  221.8820 C   0  0  0  0  0  0  0  0  0  0  0  0
  139.1130   73.5070  223.0420 H   0  0  0  0  0  0  0  0  0  0  0  0
  141.9200   71.9560  222.2892 H   0  0  0  0  0  0  0  0  0  0  0  0
  139.7191   71.2272  220.3504 H   0  0  0  0  0  0  0  0  0  0  0  0
  140.6742   70.1139  221.4336 H   0  0  0  0  0  0  0  0  0  0  0  0
  137.9897   71.3454  221.8307 H   0  0  0  0  0  0  0  0  0  0  0  0
  138.6759   69.7744  222.4103 H   0  0  0  0  0  0  0  0  0  0  0  0
  141.4284   71.8747  224.9346 H   0  0  0  0  0  0  0  0  0  0  0  0
  142.1776   70.6298  226.9594 H   0  0  0  0  0  0  0  0  0  0  0  0
  138.6021   68.2064  226.8085 H   0  0  0  0  0  0  0  0  0  0  0  0
  141.3995   76.8890  219.4647 H   0  0  0  0  0  0  0  0  0  0  0  0
  139.1705   76.5387  221.8854 H   0  0  0  0  0  0  0  0  0  0  0  0
  138.3539   78.1859  223.5650 H   0  0  0  0  0  0  0  0  0  0  0  0
  139.7502   80.1581  224.1704 H   0  0  0  0  0  0  0  0  0  0  0  0
  142.7942   78.8547  221.3766 H   0  0  0  0  0  0  0  0  0  0  0  0
  1  2  1  0
  2  3  2  0
  3  4  1  0
  4  5  1  0
  5  6  1  0
  6  7  1  0
  7  8  2  0
  8  9  1  0
  9 10  2  0
 10 11  1  0
 10 12  1  0
 12 13  2  0
 13 14  1  0
  2 15  1  0
 15 16  1  0
 16 17  2  0
 17 18  1  0
 18 19  2  0
 19 20  1  0
 20 21  2  0
 21 22  1  0
 22 23  1  0
 23 24  1  0
 23 25  1  0
 23 26  1  0
 22 27  2  0
 13  7  1  0
 27 18  1  0
  1 28  1  0
  3 29  1  0
  4 30  1  0
  4 31  1  0
  5 32  1  0
  5 33  1  0
  8 34  1  0
  9 35  1  0
 12 36  1  0
 17 37  1  0
 19 38  1  0
 20 39  1  0
 21 40  1  0
 27 41  1  0
M  CHG  1  15  -1
M  END
>  <meeko>  (1) 
{"free_energy": -6.13, "intermolecular_energy": -9.42, "internal_energy": -1.33, "cluster_size": 4, "cluster_id": 2, "rank_in_cluster": 4}

$$$$

     RDKit          3D

 41 42  0  0  0  0  0  0  0  0999 V2000
  138.7630   75.0460  222.3870 O   0  0  0  0  0  0  0  0  0  0  0  0
  139.8180   74.8650  221.4960 C   0  0  0  0  0  0  0  0  0  0  0  0
  140.1050   75.8180  220.5960 C   0  0  0  0  0  0  0  0  0  0  0  0
  141.5240   76.1700  220.2470 C   0  0  0  0  0  0  0  0  0  0  0  0
  141.8470   77.6530  220.4640 C   0  0  0  0  0  0  0  0  0  0  0  0
  141.8000   77.9960  221.8530 O   0  0  0  0  0  0  0  0  0  0  0  0
  140.7890   78.7230  222.5110 C   0  0  0  0  0  0  0  0  0  0  0  0
  139.4340   78.3240  222.5210 C   0  0  0  0  0  0  0  0  0  0  0  0
  138.4760   79.0900  223.1930 C   0  0  0  0  0  0  0  0  0  0  0  0
  138.8490   80.2610  223.8550 C   0  0  0  0  0  0  0  0  0  0  0  0
  137.6430   81.2180  224.6970 Cl  0  0  0  0  0  0  0  0  0  0  0  0
  140.1860   80.6690  223.8460 C   0  0  0  0  0  0  0  0  0  0  0  0
  141.1500   79.9080  223.1770 C   0  0  0  0  0  0  0  0  0  0  0  0
  142.8230   80.4470  223.1870 Cl  0  0  0  0  0  0  0  0  0  0  0  0
  140.5760   73.6500  221.5600 N   0  0  0  0  0  0  0  0  0  0  0  0
  140.6990   72.8990  222.7380 N   0  0  0  0  0  0  0  0  0  0  0  0
  140.0160   71.8170  222.9720 C   0  0  0  0  0  0  0  0  0  0  0  0
  140.0570   71.0680  224.2500 C   0  0  0  0  0  0  0  0  0  0  0  0
  139.5400   69.7650  224.2820 C   0  0  0  0  0  0  0  0  0  0  0  0
  139.5100   69.0450  225.4780 C   0  0  0  0  0  0  0  0  0  0  0  0
  139.9910   69.6190  226.6560 C   0  0  0  0  0  0  0  0  0  0  0  0
  140.5180   70.9220  226.6480 C   0  0  0  0  0  0  0  0  0  0  0  0
  140.9870   71.5760  227.9240 C   0  0  0  0  0  0  0  0  0  0  0  0
  141.8140   72.6390  227.6140 F   0  0  0  0  0  0  0  0  0  0  0  0
  139.9180   72.0400  228.6700 F   0  0  0  0  0  0  0  0  0  0  0  0
  141.6900   70.6660  228.6970 F   0  0  0  0  0  0  0  0  0  0  0  0
  140.5150   71.6540  225.4460 C   0  0  0  0  0  0  0  0  0  0  0  0
  138.5300   74.3290  223.0650 H   0  0  0  0  0  0  0  0  0  0  0  0
  139.2818   76.3546  220.1016 H   0  0  0  0  0  0  0  0  0  0  0  0
  142.1982   75.5694  220.8752 H   0  0  0  0  0  0  0  0  0  0  0  0
  141.6605   75.9580  219.1763 H   0  0  0  0  0  0  0  0  0  0  0  0
  142.8556   77.8607  220.0772 H   0  0  0  0  0  0  0  0  0  0  0  0
  141.0955   78.2543  219.9315 H   0  0  0  0  0  0  0  0  0  0  0  0
  139.1305   77.4055  221.9972 H   0  0  0  0  0  0  0  0  0  0  0  0
  137.4241   78.7683  223.1999 H   0  0  0  0  0  0  0  0  0  0  0  0
  140.4809   81.5918  224.3669 H   0  0  0  0  0  0  0  0  0  0  0  0
  139.3671   71.4338  222.1707 H   0  0  0  0  0  0  0  0  0  0  0  0
  139.1555   69.3070  223.3588 H   0  0  0  0  0  0  0  0  0  0  0  0
  139.1059   68.0220  225.4919 H   0  0  0  0  0  0  0  0  0  0  0  0
  139.9574   69.0484  227.5958 H   0  0  0  0  0  0  0  0  0  0  0  0
  140.8738   72.6938  225.4406 H   0  0  0  0  0  0  0  0  0  0  0  0
  1  2  1  0
  2  3  2  0
  3  4  1  0
  4  5  1  0
  5  6  1  0
  6  7  1  0
  7  8  2  0
  8  9  1  0
  9 10  2  0
 10 11  1  0
 10 12  1  0
 12 13  2  0
 13 14  1  0
  2 15  1  0
 15 16  1  0
 16 17  2  0
 17 18  1  0
 18 19  2  0
 19 20  1  0
 20 21  2  0
 21 22  1  0
 22 23  1  0
 23 24  1  0
 23 25  1  0
 23 26  1  0
 22 27  2  0
 13  7  1  0
 27 18  1  0
  1 28  1  0
  3 29  1  0
  4 30  1  0
  4 31  1  0
  5 32  1  0
  5 33  1  0
  8 34  1  0
  9 35  1  0
 12 36  1  0
 17 37  1  0
 19 38  1  0
 20 39  1  0
 21 40  1  0
 27 41  1  0
M  CHG  1  15  -1
M  END
>  <meeko>  (2) 
{"free_energy": -6.73, "intermolecular_energy": -10.01, "internal_energy": -0.87, "cluster_size": 4, "cluster_id": 1, "rank_in_cluster": 3}

$$$$

     RDKit          3D

 41 42  0  0  0  0  0  0  0  0999 V2000
  142.2110   75.0920  221.2360 O   0  0  0  0  0  0  0  0  0  0  0  0
  140.9290   74.5840  221.4300 C   0  0  0  0  0  0  0  0  0  0  0  0
  139.8610   75.3810  221.2670 C   0  0  0  0  0  0  0  0  0  0  0  0
  139.4610   76.3850  222.3130 C   0  0  0  0  0  0  0  0  0  0  0  0
  140.2040   77.7190  222.1800 C   0  0  0  0  0  0  0  0  0  0  0  0
  141.1820   77.6670  221.1360 O   0  0  0  0  0  0  0  0  0  0  0  0
  141.5660   78.7200  220.2830 C   0  0  0  0  0  0  0  0  0  0  0  0
  141.3470   80.0810  220.5910 C   0  0  0  0  0  0  0  0  0  0  0  0
  141.7510   81.0820  219.7020 C   0  0  0  0  0  0  0  0  0  0  0  0
  142.3710   80.7440  218.4970 C   0  0  0  0  0  0  0  0  0  0  0  0
  142.8760   82.0040  217.3850 Cl  0  0  0  0  0  0  0  0  0  0  0  0
  142.5860   79.4010  218.1790 C   0  0  0  0  0  0  0  0  0  0  0  0
  142.1850   78.3950  219.0640 C   0  0  0  0  0  0  0  0  0  0  0  0
  142.4740   76.7140  218.6350 Cl  0  0  0  0  0  0  0  0  0  0  0  0
  140.7800   73.2090  221.8050 N   0  0  0  0  0  0  0  0  0  0  0  0
  139.9340   72.8000  222.8480 N   0  0  0  0  0  0  0  0  0  0  0  0
  139.6220   71.5580  223.0710 C   0  0  0  0  0  0  0  0  0  0  0  0
  139.8930   70.8470  224.3420 C   0  0  0  0  0  0  0  0  0  0  0  0
  139.5940   69.4800  224.4270 C   0  0  0  0  0  0  0  0  0  0  0  0
  139.7840   68.7850  225.6220 C   0  0  0  0  0  0  0  0  0  0  0  0
  140.2700   69.4490  226.7500 C   0  0  0  0  0  0  0  0  0  0  0  0
  140.5820   70.8180  226.6900 C   0  0  0  0  0  0  0  0  0  0  0  0
  141.0530   71.5600  227.9160 C   0  0  0  0  0  0  0  0  0  0  0  0
  139.9550   72.0070  228.6270 F   0  0  0  0  0  0  0  0  0  0  0  0
  141.8150   70.7420  228.7320 F   0  0  0  0  0  0  0  0  0  0  0  0
  141.8280   72.6470  227.5500 F   0  0  0  0  0  0  0  0  0  0  0  0
  140.3570   71.5190  225.4910 C   0  0  0  0  0  0  0  0  0  0  0  0
  142.4260   76.0560  221.4640 H   0  0  0  0  0  0  0  0  0  0  0  0
  139.2643   75.2977  220.3466 H   0  0  0  0  0  0  0  0  0  0  0  0
  138.3814   76.5748  222.2216 H   0  0  0  0  0  0  0  0  0  0  0  0
  139.7224   75.9598  223.2932 H   0  0  0  0  0  0  0  0  0  0  0  0
  139.4775   78.5127  221.9514 H   0  0  0  0  0  0  0  0  0  0  0  0
  140.7198   77.9257  223.1293 H   0  0  0  0  0  0  0  0  0  0  0  0
  140.8556   80.3552  221.5361 H   0  0  0  0  0  0  0  0  0  0  0  0
  141.5799   82.1393  219.9526 H   0  0  0  0  0  0  0  0  0  0  0  0
  143.0724   79.1337  217.2293 H   0  0  0  0  0  0  0  0  0  0  0  0
  139.1249   70.9992  222.2643 H   0  0  0  0  0  0  0  0  0  0  0  0
  139.2063   68.9507  223.5441 H   0  0  0  0  0  0  0  0  0  0  0  0
  139.5503   67.7114  225.6755 H   0  0  0  0  0  0  0  0  0  0  0  0
  140.4095   68.8973  227.6913 H   0  0  0  0  0  0  0  0  0  0  0  0
  140.5450   72.6020  225.4498 H   0  0  0  0  0  0  0  0  0  0  0  0
  1  2  1  0
  2  3  2  0
  3  4  1  0
  4  5  1  0
  5  6  1  0
  6  7  1  0
  7  8  2  0
  8  9  1  0
  9 10  2  0
 10 11  1  0
 10 12  1  0
 12 13  2  0
 13 14  1  0
  2 15  1  0
 15 16  1  0
 16 17  2  0
 17 18  1  0
 18 19  2  0
 19 20  1  0
 20 21  2  0
 21 22  1  0
 22 23  1  0
 23 24  1  0
 23 25  1  0
 23 26  1  0
 22 27  2  0
 13  7  1  0
 27 18  1  0
  1 28  1  0
  3 29  1  0
  4 30  1  0
  4 31  1  0
  5 32  1  0
  5 33  1  0
  8 34  1  0
  9 35  1  0
 12 36  1  0
 17 37  1  0
 19 38  1  0
 20 39  1  0
 21 40  1  0
 27 41  1  0
M  CHG  1  15  -1
M  END
>  <meeko>  (3) 
{"free_energy": -5.87, "intermolecular_energy": -9.15, "internal_energy": -1.33, "cluster_size": 2, "cluster_id": 4, "rank_in_cluster": 2}

$$$$

     RDKit          3D

 41 42  0  0  0  0  0  0  0  0999 V2000
  140.0600   73.5830  219.6310 O   0  0  0  0  0  0  0  0  0  0  0  0
  139.9840   74.4410  220.7240 C   0  0  0  0  0  0  0  0  0  0  0  0
  139.3680   75.6270  220.6030 C   0  0  0  0  0  0  0  0  0  0  0  0
  137.9240   75.8080  220.9800 C   0  0  0  0  0  0  0  0  0  0  0  0
  137.5940   77.2360  221.4270 C   0  0  0  0  0  0  0  0  0  0  0  0
  138.1720   77.5270  222.7040 O   0  0  0  0  0  0  0  0  0  0  0  0
  139.3330   78.2840  222.9550 C   0  0  0  0  0  0  0  0  0  0  0  0
  140.6380   77.7920  222.7350 C   0  0  0  0  0  0  0  0  0  0  0  0
  141.7520   78.5930  223.0040 C   0  0  0  0  0  0  0  0  0  0  0  0
  141.5840   79.8890  223.4980 C   0  0  0  0  0  0  0  0  0  0  0  0
  142.9850   80.8910  223.8320 Cl  0  0  0  0  0  0  0  0  0  0  0  0
  140.2970   80.3840  223.7250 C   0  0  0  0  0  0  0  0  0  0  0  0
  139.1780   79.5880  223.4580 C   0  0  0  0  0  0  0  0  0  0  0  0
  137.5730   80.2430  223.7520 Cl  0  0  0  0  0  0  0  0  0  0  0  0
  140.5750   74.0340  221.9650 N   0  0  0  0  0  0  0  0  0  0  0  0
  139.9530   73.1240  222.8330 N   0  0  0  0  0  0  0  0  0  0  0  0
  140.3460   71.8940  222.9820 C   0  0  0  0  0  0  0  0  0  0  0  0
  140.2290   71.1300  224.2460 C   0  0  0  0  0  0  0  0  0  0  0  0
  139.5780   69.8880  224.2250 C   0  0  0  0  0  0  0  0  0  0  0  0
  139.3990   69.1620  225.4030 C   0  0  0  0  0  0  0  0  0  0  0  0
  139.8620   69.6700  226.6180 C   0  0  0  0  0  0  0  0  0  0  0  0
  140.5220   70.9110  226.6650 C   0  0  0  0  0  0  0  0  0  0  0  0
  140.9760   71.4970  227.9790 C   0  0  0  0  0  0  0  0  0  0  0  0
  139.8690   71.8940  228.7070 F   0  0  0  0  0  0  0  0  0  0  0  0
  141.6920   70.5710  228.7180 F   0  0  0  0  0  0  0  0  0  0  0  0
  141.7890   72.5950  227.7570 F   0  0  0  0  0  0  0  0  0  0  0  0
  140.6700   71.6510  225.4790 C   0  0  0  0  0  0  0  0  0  0  0  0
  140.0450   72.5780  219.7600 H   0  0  0  0  0  0  0  0  0  0  0  0
  139.9338   76.4883  220.2183 H   0  0  0  0  0  0  0  0  0  0  0  0
  137.3009   75.5614  220.1077 H   0  0  0  0  0  0  0  0  0  0  0  0
  137.7215   75.1425  221.8321 H   0  0  0  0  0  0  0  0  0  0  0  0
  137.9898   77.9446  220.6845 H   0  0  0  0  0  0  0  0  0  0  0  0
  136.5012   77.3304  221.5104 H   0  0  0  0  0  0  0  0  0  0  0  0
  140.7793   76.7716  222.3493 H   0  0  0  0  0  0  0  0  0  0  0  0
  142.7644   78.2013  222.8260 H   0  0  0  0  0  0  0  0  0  0  0  0
  140.1633   81.4037  224.1152 H   0  0  0  0  0  0  0  0  0  0  0  0
  140.7941   71.3880  222.1141 H   0  0  0  0  0  0  0  0  0  0  0  0
  139.2056   69.4831  223.2725 H   0  0  0  0  0  0  0  0  0  0  0  0
  138.8915   68.1865  225.3742 H   0  0  0  0  0  0  0  0  0  0  0  0
  139.7097   69.0963  227.5441 H   0  0  0  0  0  0  0  0  0  0  0  0
  141.1350   72.6473  225.5137 H   0  0  0  0  0  0  0  0  0  0  0  0
  1  2  1  0
  2  3  2  0
  3  4  1  0
  4  5  1  0
  5  6  1  0
  6  7  1  0
  7  8  2  0
  8  9  1  0
  9 10  2  0
 10 11  1  0
 10 12  1  0
 12 13  2  0
 13 14  1  0
  2 15  1  0
 15 16  1  0
 16 17  2  0
 17 18  1  0
 18 19  2  0
 19 20  1  0
 20 21  2  0
 21 22  1  0
 22 23  1  0
 23 24  1  0
 23 25  1  0
 23 26  1  0
 22 27  2  0
 13  7  1  0
 27 18  1  0
  1 28  1  0
  3 29  1  0
  4 30  1  0
  4 31  1  0
  5 32  1  0
  5 33  1  0
  8 34  1  0
  9 35  1  0
 12 36  1  0
 17 37  1  0
 19 38  1  0
 20 39  1  0
 21 40  1  0
 27 41  1  0
M  CHG  1  15  -1
M  END
>  <meeko>  (4) 
{"free_energy": -6.14, "intermolecular_energy": -9.42, "internal_energy": -0.76, "cluster_size": 5, "cluster_id": 5, "rank_in_cluster": 1}

$$$$

     RDKit          3D

 41 42  0  0  0  0  0  0  0  0999 V2000
  141.1030   76.3640  222.3060 O   0  0  0  0  0  0  0  0  0  0  0  0
  140.2700   75.3200  221.9130 C   0  0  0  0  0  0  0  0  0  0  0  0
  139.0740   75.5870  221.3660 C   0  0  0  0  0  0  0  0  0  0  0  0
  138.7580   75.2180  219.9430 C   0  0  0  0  0  0  0  0  0  0  0  0
  139.8240   75.6920  218.9480 C   0  0  0  0  0  0  0  0  0  0  0  0
  140.7460   74.6420  218.6370 O   0  0  0  0  0  0  0  0  0  0  0  0
  141.9850   74.3920  219.2590 C   0  0  0  0  0  0  0  0  0  0  0  0
  142.9530   75.3960  219.4810 C   0  0  0  0  0  0  0  0  0  0  0  0
  144.1660   75.0850  220.1040 C   0  0  0  0  0  0  0  0  0  0  0  0
  144.4320   73.7750  220.5100 C   0  0  0  0  0  0  0  0  0  0  0  0
  145.9550   73.3900  221.2920 Cl  0  0  0  0  0  0  0  0  0  0  0  0
  143.4840   72.7720  220.2890 C   0  0  0  0  0  0  0  0  0  0  0  0
  142.2690   73.0770  219.6670 C   0  0  0  0  0  0  0  0  0  0  0  0
  141.0960   71.7930  219.4070 Cl  0  0  0  0  0  0  0  0  0  0  0  0
  140.7140   73.9710  222.1070 N   0  0  0  0  0  0  0  0  0  0  0  0
  139.9360   73.0100  222.7710 N   0  0  0  0  0  0  0  0  0  0  0  0
  140.3160   71.7790  222.9460 C   0  0  0  0  0  0  0  0  0  0  0  0
  140.2310   71.0590  224.2380 C   0  0  0  0  0  0  0  0  0  0  0  0
  139.6100   69.8010  224.2690 C   0  0  0  0  0  0  0  0  0  0  0  0
  139.4620   69.1140  225.4740 C   0  0  0  0  0  0  0  0  0  0  0  0
  139.9260   69.6760  226.6650 C   0  0  0  0  0  0  0  0  0  0  0  0
  140.5560   70.9330  226.6600 C   0  0  0  0  0  0  0  0  0  0  0  0
  141.0100   71.5760  227.9470 C   0  0  0  0  0  0  0  0  0  0  0  0
  141.8290   72.6510  227.6540 F   0  0  0  0  0  0  0  0  0  0  0  0
  139.9300   72.0220  228.6890 F   0  0  0  0  0  0  0  0  0  0  0  0
  141.7160   70.6650  228.7140 F   0  0  0  0  0  0  0  0  0  0  0  0
  140.6730   71.6340  225.4460 C   0  0  0  0  0  0  0  0  0  0  0  0
  142.1070   76.2990  222.1850 H   0  0  0  0  0  0  0  0  0  0  0  0
  138.3060   76.0881  221.9735 H   0  0  0  0  0  0  0  0  0  0  0  0
  138.6776   74.1231  219.8748 H   0  0  0  0  0  0  0  0  0  0  0  0
  137.8150   75.7175  219.6762 H   0  0  0  0  0  0  0  0  0  0  0  0
  139.3295   76.0210  218.0222 H   0  0  0  0  0  0  0  0  0  0  0  0
  140.3828   76.5217  219.4055 H   0  0  0  0  0  0  0  0  0  0  0  0
  142.7517   76.4293  219.1619 H   0  0  0  0  0  0  0  0  0  0  0  0
  144.9129   75.8743  220.2748 H   0  0  0  0  0  0  0  0  0  0  0  0
  143.6941   71.7396  220.6052 H   0  0  0  0  0  0  0  0  0  0  0  0
  140.7263   71.2382  222.0805 H   0  0  0  0  0  0  0  0  0  0  0  0
  139.2371   69.3532  223.3360 H   0  0  0  0  0  0  0  0  0  0  0  0
  138.9782   68.1262  225.4860 H   0  0  0  0  0  0  0  0  0  0  0  0
  139.7979   69.1323  227.6126 H   0  0  0  0  0  0  0  0  0  0  0  0
  141.1142   72.6416  225.4397 H   0  0  0  0  0  0  0  0  0  0  0  0
  1  2  1  0
  2  3  2  0
  3  4  1  0
  4  5  1  0
  5  6  1  0
  6  7  1  0
  7  8  2  0
  8  9  1  0
  9 10  2  0
 10 11  1  0
 10 12  1  0
 12 13  2  0
 13 14  1  0
  2 15  1  0
 15 16  1  0
 16 17  2  0
 17 18  1  0
 18 19  2  0
 19 20  1  0
 20 21  2  0
 21 22  1  0
 22 23  1  0
 23 24  1  0
 23 25  1  0
 23 26  1  0
 22 27  2  0
 13  7  1  0
 27 18  1  0
  1 28  1  0
  3 29  1  0
  4 30  1  0
  4 31  1  0
  5 32  1  0
  5 33  1  0
  8 34  1  0
  9 35  1  0
 12 36  1  0
 17 37  1  0
 19 38  1  0
 20 39  1  0
 21 40  1  0
 27 41  1  0
M  CHG  1  15  -1
M  END
>  <meeko>  (5) 
{"free_energy": -6.04, "intermolecular_energy": -9.32, "internal_energy": -1.39, "cluster_size": 2, "cluster_id": 6, "rank_in_cluster": 1}

$$$$

     RDKit          3D

 41 42  0  0  0  0  0  0  0  0999 V2000
  142.2930   74.8920  221.1710 O   0  0  0  0  0  0  0  0  0  0  0  0
  141.1950   74.0830  221.4500 C   0  0  0  0  0  0  0  0  0  0  0  0
  141.2580   72.7640  221.2120 C   0  0  0  0  0  0  0  0  0  0  0  0
  140.0620   71.8720  221.4000 C   0  0  0  0  0  0  0  0  0  0  0  0
  139.3930   72.0440  222.7680 C   0  0  0  0  0  0  0  0  0  0  0  0
  139.0530   70.7780  223.3430 O   0  0  0  0  0  0  0  0  0  0  0  0
  139.5350   70.2420  224.5540 C   0  0  0  0  0  0  0  0  0  0  0  0
  140.0780   71.0360  225.5870 C   0  0  0  0  0  0  0  0  0  0  0  0
  140.5400   70.4440  226.7670 C   0  0  0  0  0  0  0  0  0  0  0  0
  140.4750   69.0590  226.9310 C   0  0  0  0  0  0  0  0  0  0  0  0
  141.0550   68.3210  228.4130 Cl  0  0  0  0  0  0  0  0  0  0  0  0
  139.9450   68.2620  225.9120 C   0  0  0  0  0  0  0  0  0  0  0  0
  139.4800   68.8480  224.7300 C   0  0  0  0  0  0  0  0  0  0  0  0
  138.8180   67.8170  223.4690 Cl  0  0  0  0  0  0  0  0  0  0  0  0
  140.0110   74.6850  221.9880 N   0  0  0  0  0  0  0  0  0  0  0  0
  139.9980   75.9900  222.5060 N   0  0  0  0  0  0  0  0  0  0  0  0
  140.1230   77.0530  221.7690 C   0  0  0  0  0  0  0  0  0  0  0  0
  140.7840   78.3020  222.2170 C   0  0  0  0  0  0  0  0  0  0  0  0
  141.5060   78.2870  223.4190 C   0  0  0  0  0  0  0  0  0  0  0  0
  142.0980   79.4540  223.9040 C   0  0  0  0  0  0  0  0  0  0  0  0
  141.9710   80.6520  223.1980 C   0  0  0  0  0  0  0  0  0  0  0  0
  141.2570   80.6910  221.9870 C   0  0  0  0  0  0  0  0  0  0  0  0
  141.0640   81.9900  221.2440 C   0  0  0  0  0  0  0  0  0  0  0  0
  141.6660   81.8980  220.0030 F   0  0  0  0  0  0  0  0  0  0  0  0
  139.7200   82.2710  221.0720 F   0  0  0  0  0  0  0  0  0  0  0  0
  141.6370   83.0340  221.9490 F   0  0  0  0  0  0  0  0  0  0  0  0
  140.6360   79.5180  221.5220 C   0  0  0  0  0  0  0  0  0  0  0  0
  142.3640   75.8230  221.5660 H   0  0  0  0  0  0  0  0  0  0  0  0
  142.2071   72.3247  220.8713 H   0  0  0  0  0  0  0  0  0  0  0  0
  139.3246   72.1056  220.6178 H   0  0  0  0  0  0  0  0  0  0  0  0
  140.4150   70.8322  221.3359 H   0  0  0  0  0  0  0  0  0  0  0  0
  140.0855   72.5694  223.4421 H   0  0  0  0  0  0  0  0  0  0  0  0
  138.4680   72.6235  222.6320 H   0  0  0  0  0  0  0  0  0  0  0  0
  140.1382   72.1274  225.4632 H   0  0  0  0  0  0  0  0  0  0  0  0
  140.9560   71.0719  227.5687 H   0  0  0  0  0  0  0  0  0  0  0  0
  139.8935   67.1707  226.0401 H   0  0  0  0  0  0  0  0  0  0  0  0
  139.7126   77.0242  220.7488 H   0  0  0  0  0  0  0  0  0  0  0  0
  141.6065   77.3484  223.9838 H   0  0  0  0  0  0  0  0  0  0  0  0
  142.6665   79.4300  224.8454 H   0  0  0  0  0  0  0  0  0  0  0  0
  142.4319   81.5702  223.5911 H   0  0  0  0  0  0  0  0  0  0  0  0
  140.0282   79.5506  220.6057 H   0  0  0  0  0  0  0  0  0  0  0  0
  1  2  1  0
  2  3  2  0
  3  4  1  0
  4  5  1  0
  5  6  1  0
  6  7  1  0
  7  8  2  0
  8  9  1  0
  9 10  2  0
 10 11  1  0
 10 12  1  0
 12 13  2  0
 13 14  1  0
  2 15  1  0
 15 16  1  0
 16 17  2  0
 17 18  1  0
 18 19  2  0
 19 20  1  0
 20 21  2  0
 21 22  1  0
 22 23  1  0
 23 24  1  0
 23 25  1  0
 23 26  1  0
 22 27  2  0
 13  7  1  0
 27 18  1  0
  1 28  1  0
  3 29  1  0
  4 30  1  0
  4 31  1  0
  5 32  1  0
  5 33  1  0
  8 34  1  0
  9 35  1  0
 12 36  1  0
 17 37  1  0
 19 38  1  0
 20 39  1  0
 21 40  1  0
 27 41  1  0
M  CHG  1  15  -1
M  END
>  <meeko>  (6) 
{"free_energy": -6.28, "intermolecular_energy": -9.56, "internal_energy": -0.83, "cluster_size": 4, "cluster_id": 2, "rank_in_cluster": 3}

$$$$

     RDKit          3D

 41 42  0  0  0  0  0  0  0  0999 V2000
  139.2630   73.9350  222.3800 O   0  0  0  0  0  0  0  0  0  0  0  0
  140.4350   74.0650  221.6390 C   0  0  0  0  0  0  0  0  0  0  0  0
  141.0810   72.9700  221.2110 C   0  0  0  0  0  0  0  0  0  0  0  0
  141.1000   71.7000  222.0160 C   0  0  0  0  0  0  0  0  0  0  0  0
  139.6970   71.1950  222.3740 C   0  0  0  0  0  0  0  0  0  0  0  0
  139.3560   71.5250  223.7240 O   0  0  0  0  0  0  0  0  0  0  0  0
  139.7670   70.8490  224.8900 C   0  0  0  0  0  0  0  0  0  0  0  0
  140.7070   71.3800  225.8000 C   0  0  0  0  0  0  0  0  0  0  0  0
  141.0750   70.6590  226.9400 C   0  0  0  0  0  0  0  0  0  0  0  0
  140.5190   69.4010  227.1870 C   0  0  0  0  0  0  0  0  0  0  0  0
  140.9830   68.5010  228.6190 Cl  0  0  0  0  0  0  0  0  0  0  0  0
  139.5930   68.8630  226.2890 C   0  0  0  0  0  0  0  0  0  0  0  0
  139.2200   69.5790  225.1480 C   0  0  0  0  0  0  0  0  0  0  0  0
  138.0490   68.8740  224.0410 Cl  0  0  0  0  0  0  0  0  0  0  0  0
  140.9290   75.3800  221.3540 N   0  0  0  0  0  0  0  0  0  0  0  0
  141.0730   76.3630  222.3450 N   0  0  0  0  0  0  0  0  0  0  0  0
  140.4260   77.4900  222.3330 C   0  0  0  0  0  0  0  0  0  0  0  0
  141.0610   78.8150  222.5290 C   0  0  0  0  0  0  0  0  0  0  0  0
  141.8950   79.0040  223.6400 C   0  0  0  0  0  0  0  0  0  0  0  0
  142.4700   80.2510  223.8910 C   0  0  0  0  0  0  0  0  0  0  0  0
  142.2140   81.3260  223.0380 C   0  0  0  0  0  0  0  0  0  0  0  0
  141.3840   81.1610  221.9150 C   0  0  0  0  0  0  0  0  0  0  0  0
  141.0530   82.3280  221.0180 C   0  0  0  0  0  0  0  0  0  0  0  0
  141.4550   83.5010  221.6310 F   0  0  0  0  0  0  0  0  0  0  0  0
  141.6940   82.2170  219.7970 F   0  0  0  0  0  0  0  0  0  0  0  0
  139.6890   82.3820  220.7870 F   0  0  0  0  0  0  0  0  0  0  0  0
  140.7830   79.9100  221.6870 C   0  0  0  0  0  0  0  0  0  0  0  0
  139.2460   73.3820  223.2290 H   0  0  0  0  0  0  0  0  0  0  0  0
  141.6100   73.0019  220.2471 H   0  0  0  0  0  0  0  0  0  0  0  0
  141.6136   70.9224  221.4315 H   0  0  0  0  0  0  0  0  0  0  0  0
  141.6217   71.9171  222.9598 H   0  0  0  0  0  0  0  0  0  0  0  0
  138.9653   71.6582  221.6958 H   0  0  0  0  0  0  0  0  0  0  0  0
  139.6843   70.1000  222.2697 H   0  0  0  0  0  0  0  0  0  0  0  0
  141.1528   72.3676  225.6108 H   0  0  0  0  0  0  0  0  0  0  0  0
  141.8048   71.0836  227.6450 H   0  0  0  0  0  0  0  0  0  0  0  0
  139.1559   67.8720  226.4810 H   0  0  0  0  0  0  0  0  0  0  0  0
  139.3390   77.4587  222.1670 H   0  0  0  0  0  0  0  0  0  0  0  0
  142.0979   78.1629  224.3193 H   0  0  0  0  0  0  0  0  0  0  0  0
  143.1265   80.3869  224.7631 H   0  0  0  0  0  0  0  0  0  0  0  0
  142.6642   82.3079  223.2456 H   0  0  0  0  0  0  0  0  0  0  0  0
  140.0889   79.7852  220.8428 H   0  0  0  0  0  0  0  0  0  0  0  0
  1  2  1  0
  2  3  2  0
  3  4  1  0
  4  5  1  0
  5  6  1  0
  6  7  1  0
  7  8  2  0
  8  9  1  0
  9 10  2  0
 10 11  1  0
 10 12  1  0
 12 13  2  0
 13 14  1  0
  2 15  1  0
 15 16  1  0
 16 17  2  0
 17 18  1  0
 18 19  2  0
 19 20  1  0
 20 21  2  0
 21 22  1  0
 22 23  1  0
 23 24  1  0
 23 25  1  0
 23 26  1  0
 22 27  2  0
 13  7  1  0
 27 18  1  0
  1 28  1  0
  3 29  1  0
  4 30  1  0
  4 31  1  0
  5 32  1  0
  5 33  1  0
  8 34  1  0
  9 35  1  0
 12 36  1  0
 17 37  1  0
 19 38  1  0
 20 39  1  0
 21 40  1  0
 27 41  1  0
M  CHG  1  15  -1
M  END
>  <meeko>  (7) 
{"free_energy": -6.48, "intermolecular_energy": -9.76, "internal_energy": -1.14, "cluster_size": 4, "cluster_id": 2, "rank_in_cluster": 1}

$$$$

     RDKit          3D

 41 42  0  0  0  0  0  0  0  0999 V2000
  142.1620   74.5370  221.2550 O   0  0  0  0  0  0  0  0  0  0  0  0
  141.1370   73.6580  221.5960 C   0  0  0  0  0  0  0  0  0  0  0  0
  141.3520   72.3340  221.5650 C   0  0  0  0  0  0  0  0  0  0  0  0
  140.3430   71.3860  220.9780 C   0  0  0  0  0  0  0  0  0  0  0  0
  139.3360   70.8670  222.0110 C   0  0  0  0  0  0  0  0  0  0  0  0
  139.5490   71.4690  223.2920 O   0  0  0  0  0  0  0  0  0  0  0  0
  139.8700   70.8080  224.4940 C   0  0  0  0  0  0  0  0  0  0  0  0
  141.0760   71.0250  225.1950 C   0  0  0  0  0  0  0  0  0  0  0  0
  141.3380   70.3370  226.3840 C   0  0  0  0  0  0  0  0  0  0  0  0
  140.4090   69.4230  226.8870 C   0  0  0  0  0  0  0  0  0  0  0  0
  140.7410   68.5630  228.3800 Cl  0  0  0  0  0  0  0  0  0  0  0  0
  139.2150   69.1950  226.1980 C   0  0  0  0  0  0  0  0  0  0  0  0
  138.9470   69.8800  225.0080 C   0  0  0  0  0  0  0  0  0  0  0  0
  137.4340   69.5730  224.1670 Cl  0  0  0  0  0  0  0  0  0  0  0  0
  139.8630   74.1950  221.9740 N   0  0  0  0  0  0  0  0  0  0  0  0
  139.7240   75.4580  222.5710 N   0  0  0  0  0  0  0  0  0  0  0  0
  139.9440   76.5740  221.9420 C   0  0  0  0  0  0  0  0  0  0  0  0
  139.9060   77.9100  222.5820 C   0  0  0  0  0  0  0  0  0  0  0  0
  138.6840   78.3810  223.0840 C   0  0  0  0  0  0  0  0  0  0  0  0
  138.5930   79.6560  223.6460 C   0  0  0  0  0  0  0  0  0  0  0  0
  139.7190   80.4780  223.7080 C   0  0  0  0  0  0  0  0  0  0  0  0
  140.9570   80.0260  223.2160 C   0  0  0  0  0  0  0  0  0  0  0  0
  142.1680   80.9260  223.2250 C   0  0  0  0  0  0  0  0  0  0  0  0
  142.1990   81.6350  224.4110 F   0  0  0  0  0  0  0  0  0  0  0  0
  143.3360   80.1920  223.1090 F   0  0  0  0  0  0  0  0  0  0  0  0
  142.1100   81.8160  222.1670 F   0  0  0  0  0  0  0  0  0  0  0  0
  141.0330   78.7540  222.6220 C   0  0  0  0  0  0  0  0  0  0  0  0
  142.2210   75.4540  221.6830 H   0  0  0  0  0  0  0  0  0  0  0  0
  142.2887   71.9324  221.9789 H   0  0  0  0  0  0  0  0  0  0  0  0
  139.7914   71.9094  220.1832 H   0  0  0  0  0  0  0  0  0  0  0  0
  140.8949   70.5166  220.5912 H   0  0  0  0  0  0  0  0  0  0  0  0
  138.3176   71.1031  221.6689 H   0  0  0  0  0  0  0  0  0  0  0  0
  139.4702   69.7798  222.1113 H   0  0  0  0  0  0  0  0  0  0  0  0
  141.8145   71.7400  224.8034 H   0  0  0  0  0  0  0  0  0  0  0  0
  142.2788   70.5162  226.9250 H   0  0  0  0  0  0  0  0  0  0  0  0
  138.4834   68.4746  226.5925 H   0  0  0  0  0  0  0  0  0  0  0  0
  140.1727   76.5236  220.8672 H   0  0  0  0  0  0  0  0  0  0  0  0
  137.7906   77.7412  223.0346 H   0  0  0  0  0  0  0  0  0  0  0  0
  137.6307   80.0136  224.0411 H   0  0  0  0  0  0  0  0  0  0  0  0
  139.6381   81.4847  224.1439 H   0  0  0  0  0  0  0  0  0  0  0  0
  141.9830   78.4142  222.1837 H   0  0  0  0  0  0  0  0  0  0  0  0
  1  2  1  0
  2  3  2  0
  3  4  1  0
  4  5  1  0
  5  6  1  0
  6  7  1  0
  7  8  2  0
  8  9  1  0
  9 10  2  0
 10 11  1  0
 10 12  1  0
 12 13  2  0
 13 14  1  0
  2 15  1  0
 15 16  1  0
 16 17  2  0
 17 18  1  0
 18 19  2  0
 19 20  1  0
 20 21  2  0
 21 22  1  0
 22 23  1  0
 23 24  1  0
 23 25  1  0
 23 26  1  0
 22 27  2  0
 13  7  1  0
 27 18  1  0
  1 28  1  0
  3 29  1  0
  4 30  1  0
  4 31  1  0
  5 32  1  0
  5 33  1  0
  8 34  1  0
  9 35  1  0
 12 36  1  0
 17 37  1  0
 19 38  1  0
 20 39  1  0
 21 40  1  0
 27 41  1  0
M  CHG  1  15  -1
M  END
>  <meeko>  (8) 
{"free_energy": -6.38, "intermolecular_energy": -9.66, "internal_energy": -0.59, "cluster_size": 4, "cluster_id": 2, "rank_in_cluster": 2}

$$$$

     RDKit          3D

 41 42  0  0  0  0  0  0  0  0999 V2000
  142.1370   74.9690  221.1930 O   0  0  0  0  0  0  0  0  0  0  0  0
  140.9110   74.3610  221.4480 C   0  0  0  0  0  0  0  0  0  0  0  0
  139.7720   75.0440  221.2590 C   0  0  0  0  0  0  0  0  0  0  0  0
  139.1270   75.8240  222.3700 C   0  0  0  0  0  0  0  0  0  0  0  0
  139.8370   77.1510  222.6640 C   0  0  0  0  0  0  0  0  0  0  0  0
  141.0850   77.2360  221.9680 O   0  0  0  0  0  0  0  0  0  0  0  0
  141.4320   78.1630  220.9650 C   0  0  0  0  0  0  0  0  0  0  0  0
  141.4780   77.8340  219.5930 C   0  0  0  0  0  0  0  0  0  0  0  0
  141.8310   78.7990  218.6450 C   0  0  0  0  0  0  0  0  0  0  0  0
  142.1480   80.0990  219.0480 C   0  0  0  0  0  0  0  0  0  0  0  0
  142.5900   81.3060  217.8540 Cl  0  0  0  0  0  0  0  0  0  0  0  0
  142.1130   80.4330  220.4040 C   0  0  0  0  0  0  0  0  0  0  0  0
  141.7600   79.4730  221.3580 C   0  0  0  0  0  0  0  0  0  0  0  0
  141.7220   79.9280  223.0560 Cl  0  0  0  0  0  0  0  0  0  0  0  0
  140.8950   73.0060  221.9170 N   0  0  0  0  0  0  0  0  0  0  0  0
  140.3150   72.6380  223.1400 N   0  0  0  0  0  0  0  0  0  0  0  0
  140.2240   71.4070  223.5470 C   0  0  0  0  0  0  0  0  0  0  0  0
  140.4320   70.9770  224.9500 C   0  0  0  0  0  0  0  0  0  0  0  0
  140.8150   71.9370  225.8980 C   0  0  0  0  0  0  0  0  0  0  0  0
  141.0730   71.5650  227.2180 C   0  0  0  0  0  0  0  0  0  0  0  0
  140.9600   70.2280  227.6060 C   0  0  0  0  0  0  0  0  0  0  0  0
  140.5740   69.2480  226.6750 C   0  0  0  0  0  0  0  0  0  0  0  0
  140.5030   67.7930  227.0670 C   0  0  0  0  0  0  0  0  0  0  0  0
  141.1290   67.6200  228.2880 F   0  0  0  0  0  0  0  0  0  0  0  0
  139.1910   67.3670  227.1700 F   0  0  0  0  0  0  0  0  0  0  0  0
  141.1390   67.0100  226.1180 F   0  0  0  0  0  0  0  0  0  0  0  0
  140.3460   69.6260  225.3400 C   0  0  0  0  0  0  0  0  0  0  0  0
  142.3460   75.8880  221.5640 H   0  0  0  0  0  0  0  0  0  0  0  0
  139.2984   75.0329  220.2663 H   0  0  0  0  0  0  0  0  0  0  0  0
  138.0857   76.0390  222.0881 H   0  0  0  0  0  0  0  0  0  0  0  0
  139.1887   75.2101  223.2807 H   0  0  0  0  0  0  0  0  0  0  0  0
  139.1909   77.9820  222.3447 H   0  0  0  0  0  0  0  0  0  0  0  0
  140.0363   77.2074  223.7443 H   0  0  0  0  0  0  0  0  0  0  0  0
  141.2345   76.8118  219.2677 H   0  0  0  0  0  0  0  0  0  0  0  0
  141.8593   78.5340  217.5778 H   0  0  0  0  0  0  0  0  0  0  0  0
  142.3642   81.4554  220.7228 H   0  0  0  0  0  0  0  0  0  0  0  0
  139.9769   70.6354  222.8030 H   0  0  0  0  0  0  0  0  0  0  0  0
  140.9128   72.9910  225.5988 H   0  0  0  0  0  0  0  0  0  0  0  0
  141.3662   72.3270  227.9551 H   0  0  0  0  0  0  0  0  0  0  0  0
  141.1743   69.9403  228.6459 H   0  0  0  0  0  0  0  0  0  0  0  0
  140.0978   68.8586  224.5921 H   0  0  0  0  0  0  0  0  0  0  0  0
  1  2  1  0
  2  3  2  0
  3  4  1  0
  4  5  1  0
  5  6  1  0
  6  7  1  0
  7  8  2  0
  8  9  1  0
  9 10  2  0
 10 11  1  0
 10 12  1  0
 12 13  2  0
 13 14  1  0
  2 15  1  0
 15 16  1  0
 16 17  2  0
 17 18  1  0
 18 19  2  0
 19 20  1  0
 20 21  2  0
 21 22  1  0
 22 23  1  0
 23 24  1  0
 23 25  1  0
 23 26  1  0
 22 27  2  0
 13  7  1  0
 27 18  1  0
  1 28  1  0
  3 29  1  0
  4 30  1  0
  4 31  1  0
  5 32  1  0
  5 33  1  0
  8 34  1  0
  9 35  1  0
 12 36  1  0
 17 37  1  0
 19 38  1  0
 20 39  1  0
 21 40  1  0
 27 41  1  0
M  CHG  1  15  -1
M  END
>  <meeko>  (9) 
{"free_energy": -6.21, "intermolecular_energy": -9.49, "internal_energy": -1.35, "cluster_size": 2, "cluster_id": 4, "rank_in_cluster": 1}

$$$$

     RDKit          3D

 41 42  0  0  0  0  0  0  0  0999 V2000
  140.9650   74.2770  221.9890 O   0  0  0  0  0  0  0  0  0  0  0  0
  139.5730   74.2370  221.9880 C   0  0  0  0  0  0  0  0  0  0  0  0
  138.8710   75.3400  222.2890 C   0  0  0  0  0  0  0  0  0  0  0  0
  138.5380   76.3710  221.2460 C   0  0  0  0  0  0  0  0  0  0  0  0
  139.6490   76.5550  220.2060 C   0  0  0  0  0  0  0  0  0  0  0  0
  140.9220   76.7440  220.8340 O   0  0  0  0  0  0  0  0  0  0  0  0
  141.3020   77.8140  221.6680 C   0  0  0  0  0  0  0  0  0  0  0  0
  141.2300   77.7570  223.0770 C   0  0  0  0  0  0  0  0  0  0  0  0
  141.6220   78.8540  223.8510 C   0  0  0  0  0  0  0  0  0  0  0  0
  142.0860   80.0200  223.2360 C   0  0  0  0  0  0  0  0  0  0  0  0
  142.5780   81.3920  224.2120 Cl  0  0  0  0  0  0  0  0  0  0  0  0
  142.1550   80.0890  221.8420 C   0  0  0  0  0  0  0  0  0  0  0  0
  141.7650   78.9960  221.0620 C   0  0  0  0  0  0  0  0  0  0  0  0
  141.8680   79.1150  219.3110 Cl  0  0  0  0  0  0  0  0  0  0  0  0
  138.9170   73.0040  221.6650 N   0  0  0  0  0  0  0  0  0  0  0  0
  138.8800   71.9160  222.5500 N   0  0  0  0  0  0  0  0  0  0  0  0
  139.9460   71.3490  223.0320 C   0  0  0  0  0  0  0  0  0  0  0  0
  140.0410   70.7820  224.3980 C   0  0  0  0  0  0  0  0  0  0  0  0
  139.6030   69.4670  224.6140 C   0  0  0  0  0  0  0  0  0  0  0  0
  139.6250   68.9140  225.8950 C   0  0  0  0  0  0  0  0  0  0  0  0
  140.0790   69.6700  226.9780 C   0  0  0  0  0  0  0  0  0  0  0  0
  140.5280   70.9890  226.7860 C   0  0  0  0  0  0  0  0  0  0  0  0
  140.9670   71.8340  227.9560 C   0  0  0  0  0  0  0  0  0  0  0  0
  141.6210   72.9580  227.4860 F   0  0  0  0  0  0  0  0  0  0  0  0
  139.8830   72.2310  228.7200 F   0  0  0  0  0  0  0  0  0  0  0  0
  141.8280   71.1160  228.7690 F   0  0  0  0  0  0  0  0  0  0  0  0
  140.4720   71.5500  225.4980 C   0  0  0  0  0  0  0  0  0  0  0  0
  141.4600   75.0820  221.6240 H   0  0  0  0  0  0  0  0  0  0  0  0
  138.5308   75.4939  223.3237 H   0  0  0  0  0  0  0  0  0  0  0  0
  137.6200   76.0593  220.7262 H   0  0  0  0  0  0  0  0  0  0  0  0
  138.4114   77.3329  221.7644 H   0  0  0  0  0  0  0  0  0  0  0  0
  139.6937   75.6607  219.5670 H   0  0  0  0  0  0  0  0  0  0  0  0
  139.4204   77.4492  219.6075 H   0  0  0  0  0  0  0  0  0  0  0  0
  140.8633   76.8441  223.5690 H   0  0  0  0  0  0  0  0  0  0  0  0
  141.5649   78.7988  224.9481 H   0  0  0  0  0  0  0  0  0  0  0  0
  142.5176   81.0069  221.3563 H   0  0  0  0  0  0  0  0  0  0  0  0
  140.8335   71.2861  222.3851 H   0  0  0  0  0  0  0  0  0  0  0  0
  139.2393   68.8670  223.7668 H   0  0  0  0  0  0  0  0  0  0  0  0
  139.2839   67.8801  226.0522 H   0  0  0  0  0  0  0  0  0  0  0  0
  140.0854   69.2314  227.9868 H   0  0  0  0  0  0  0  0  0  0  0  0
  140.7676   72.5988  225.3475 H   0  0  0  0  0  0  0  0  0  0  0  0
  1  2  1  0
  2  3  2  0
  3  4  1  0
  4  5  1  0
  5  6  1  0
  6  7  1  0
  7  8  2  0
  8  9  1  0
  9 10  2  0
 10 11  1  0
 10 12  1  0
 12 13  2  0
 13 14  1  0
  2 15  1  0
 15 16  1  0
 16 17  2  0
 17 18  1  0
 18 19  2  0
 19 20  1  0
 20 21  2  0
 21 22  1  0
 22 23  1  0
 23 24  1  0
 23 25  1  0
 23 26  1  0
 22 27  2  0
 13  7  1  0
 27 18  1  0
  1 28  1  0
  3 29  1  0
  4 30  1  0
  4 31  1  0
  5 32  1  0
  5 33  1  0
  8 34  1  0
  9 35  1  0
 12 36  1  0
 17 37  1  0
 19 38  1  0
 20 39  1  0
 21 40  1  0
 27 41  1  0
M  CHG  1  15  -1
M  END
>  <meeko>  (10) 
{"free_energy": -5.92, "intermolecular_energy": -9.21, "internal_energy": -1.39, "cluster_size": 5, "cluster_id": 5, "rank_in_cluster": 5}

$$$$

     RDKit          3D

 41 42  0  0  0  0  0  0  0  0999 V2000
  140.9710   75.8920  221.9500 O   0  0  0  0  0  0  0  0  0  0  0  0
  139.7230   75.2750  221.9510 C   0  0  0  0  0  0  0  0  0  0  0  0
  138.6320   75.9700  221.5940 C   0  0  0  0  0  0  0  0  0  0  0  0
  137.5840   76.3620  222.5980 C   0  0  0  0  0  0  0  0  0  0  0  0
  136.9770   77.7430  222.3260 C   0  0  0  0  0  0  0  0  0  0  0  0
  137.9000   78.5870  221.6290 O   0  0  0  0  0  0  0  0  0  0  0  0
  139.1480   79.0430  222.0960 C   0  0  0  0  0  0  0  0  0  0  0  0
  139.3600   79.4920  223.4180 C   0  0  0  0  0  0  0  0  0  0  0  0
  140.6240   79.9340  223.8220 C   0  0  0  0  0  0  0  0  0  0  0  0
  141.6890   79.9390  222.9190 C   0  0  0  0  0  0  0  0  0  0  0  0
  143.2730   80.4930  223.4310 Cl  0  0  0  0  0  0  0  0  0  0  0  0
  141.4900   79.5020  221.6060 C   0  0  0  0  0  0  0  0  0  0  0  0
  140.2280   79.0590  221.1960 C   0  0  0  0  0  0  0  0  0  0  0  0
  140.0120   78.5140  219.5380 Cl  0  0  0  0  0  0  0  0  0  0  0  0
  139.6330   73.8990  222.3420 N   0  0  0  0  0  0  0  0  0  0  0  0
  140.7600   73.0710  222.4520 N   0  0  0  0  0  0  0  0  0  0  0  0
  140.6900   71.7880  222.6470 C   0  0  0  0  0  0  0  0  0  0  0  0
  140.3520   71.1620  223.9460 C   0  0  0  0  0  0  0  0  0  0  0  0
  139.4830   70.0610  223.9580 C   0  0  0  0  0  0  0  0  0  0  0  0
  139.0970   69.4750  225.1640 C   0  0  0  0  0  0  0  0  0  0  0  0
  139.5690   69.9860  226.3750 C   0  0  0  0  0  0  0  0  0  0  0  0
  140.4450   71.0860  226.3900 C   0  0  0  0  0  0  0  0  0  0  0  0
  140.9160   71.6820  227.6930 C   0  0  0  0  0  0  0  0  0  0  0  0
  141.5250   70.6990  228.4500 F   0  0  0  0  0  0  0  0  0  0  0  0
  141.8210   72.7070  227.4750 F   0  0  0  0  0  0  0  0  0  0  0  0
  139.8420   72.1970  228.3990 F   0  0  0  0  0  0  0  0  0  0  0  0
  140.8040   71.6900  225.1720 C   0  0  0  0  0  0  0  0  0  0  0  0
  141.8010   75.3810  222.2260 H   0  0  0  0  0  0  0  0  0  0  0  0
  138.5013   76.2600  220.5410 H   0  0  0  0  0  0  0  0  0  0  0  0
  136.7778   75.6141  222.5726 H   0  0  0  0  0  0  0  0  0  0  0  0
  138.0733   76.4070  223.5821 H   0  0  0  0  0  0  0  0  0  0  0  0
  136.0700   77.6222  221.7154 H   0  0  0  0  0  0  0  0  0  0  0  0
  136.7358   78.2132  223.2907 H   0  0  0  0  0  0  0  0  0  0  0  0
  138.5256   79.4941  224.1347 H   0  0  0  0  0  0  0  0  0  0  0  0
  140.7796   80.2789  224.8549 H   0  0  0  0  0  0  0  0  0  0  0  0
  142.3280   79.5065  220.8934 H   0  0  0  0  0  0  0  0  0  0  0  0
  140.8947   71.1251  221.7934 H   0  0  0  0  0  0  0  0  0  0  0  0
  139.1026   69.6561  223.0086 H   0  0  0  0  0  0  0  0  0  0  0  0
  138.4194   68.6085  225.1609 H   0  0  0  0  0  0  0  0  0  0  0  0
  139.2537   69.5253  227.3228 H   0  0  0  0  0  0  0  0  0  0  0  0
  141.4445   72.5843  225.1761 H   0  0  0  0  0  0  0  0  0  0  0  0
  1  2  1  0
  2  3  2  0
  3  4  1  0
  4  5  1  0
  5  6  1  0
  6  7  1  0
  7  8  2  0
  8  9  1  0
  9 10  2  0
 10 11  1  0
 10 12  1  0
 12 13  2  0
 13 14  1  0
  2 15  1  0
 15 16  1  0
 16 17  2  0
 17 18  1  0
 18 19  2  0
 19 20  1  0
 20 21  2  0
 21 22  1  0
 22 23  1  0
 23 24  1  0
 23 25  1  0
 23 26  1  0
 22 27  2  0
 13  7  1  0
 27 18  1  0
  1 28  1  0
  3 29  1  0
  4 30  1  0
  4 31  1  0
  5 32  1  0
  5 33  1  0
  8 34  1  0
  9 35  1  0
 12 36  1  0
 17 37  1  0
 19 38  1  0
 20 39  1  0
 21 40  1  0
 27 41  1  0
M  CHG  1  15  -1
M  END
>  <meeko>  (11) 
{"free_energy": -6.07, "intermolecular_energy": -9.35, "internal_energy": -1.2, "cluster_size": 5, "cluster_id": 5, "rank_in_cluster": 3}

$$$$

     RDKit          3D

 41 42  0  0  0  0  0  0  0  0999 V2000
  139.5940   75.1380  222.3680 O   0  0  0  0  0  0  0  0  0  0  0  0
  140.6570   74.3720  221.8960 C   0  0  0  0  0  0  0  0  0  0  0  0
  141.5790   74.9280  221.0960 C   0  0  0  0  0  0  0  0  0  0  0  0
  141.2540   75.3460  219.6890 C   0  0  0  0  0  0  0  0  0  0  0  0
  140.1830   76.4400  219.6190 C   0  0  0  0  0  0  0  0  0  0  0  0
  140.7730   77.7430  219.5850 O   0  0  0  0  0  0  0  0  0  0  0  0
  141.1810   78.5160  220.6900 C   0  0  0  0  0  0  0  0  0  0  0  0
  141.1460   78.0420  222.0190 C   0  0  0  0  0  0  0  0  0  0  0  0
  141.5650   78.8580  223.0740 C   0  0  0  0  0  0  0  0  0  0  0  0
  142.0170   80.1560  222.8230 C   0  0  0  0  0  0  0  0  0  0  0  0
  142.5420   81.1760  224.1500 Cl  0  0  0  0  0  0  0  0  0  0  0  0
  142.0500   80.6380  221.5120 C   0  0  0  0  0  0  0  0  0  0  0  0
  141.6330   79.8270  220.4520 C   0  0  0  0  0  0  0  0  0  0  0  0
  141.6900   80.4640  218.8140 Cl  0  0  0  0  0  0  0  0  0  0  0  0
  140.7380   72.9920  222.2770 N   0  0  0  0  0  0  0  0  0  0  0  0
  139.7380   72.3590  223.0310 N   0  0  0  0  0  0  0  0  0  0  0  0
  139.8590   71.1580  223.5130 C   0  0  0  0  0  0  0  0  0  0  0  0
  140.2060   70.8580  224.9220 C   0  0  0  0  0  0  0  0  0  0  0  0
  140.6830   71.8980  225.7330 C   0  0  0  0  0  0  0  0  0  0  0  0
  141.0720   71.6480  227.0500 C   0  0  0  0  0  0  0  0  0  0  0  0
  140.9950   70.3550  227.5710 C   0  0  0  0  0  0  0  0  0  0  0  0
  140.5160   69.2970  226.7800 C   0  0  0  0  0  0  0  0  0  0  0  0
  140.4820   67.8850  227.3120 C   0  0  0  0  0  0  0  0  0  0  0  0
  139.1890   67.4020  227.2390 F   0  0  0  0  0  0  0  0  0  0  0  0
  141.3150   67.0560  226.5810 F   0  0  0  0  0  0  0  0  0  0  0  0
  140.9000   67.8620  228.6320 F   0  0  0  0  0  0  0  0  0  0  0  0
  140.1570   69.5510  225.4440 C   0  0  0  0  0  0  0  0  0  0  0  0
  138.8970   74.7320  222.9820 H   0  0  0  0  0  0  0  0  0  0  0  0
  142.5986   75.0820  221.4791 H   0  0  0  0  0  0  0  0  0  0  0  0
  142.1720   75.7239  219.2152 H   0  0  0  0  0  0  0  0  0  0  0  0
  140.8553   74.4629  219.1683 H   0  0  0  0  0  0  0  0  0  0  0  0
  139.5815   76.2951  218.7095 H   0  0  0  0  0  0  0  0  0  0  0  0
  139.5529   76.3673  220.5177 H   0  0  0  0  0  0  0  0  0  0  0  0
  140.7865   77.0233  222.2261 H   0  0  0  0  0  0  0  0  0  0  0  0
  141.5387   78.4767  224.1055 H   0  0  0  0  0  0  0  0  0  0  0  0
  142.4055   81.6597  221.3129 H   0  0  0  0  0  0  0  0  0  0  0  0
  139.6933   70.3104  222.8317 H   0  0  0  0  0  0  0  0  0  0  0  0
  140.7511   72.9185  225.3281 H   0  0  0  0  0  0  0  0  0  0  0  0
  141.4402   72.4719  227.6790 H   0  0  0  0  0  0  0  0  0  0  0  0
  141.3112   70.1633  228.6070 H   0  0  0  0  0  0  0  0  0  0  0  0
  139.8344   68.7197  224.7999 H   0  0  0  0  0  0  0  0  0  0  0  0
  1  2  1  0
  2  3  2  0
  3  4  1  0
  4  5  1  0
  5  6  1  0
  6  7  1  0
  7  8  2  0
  8  9  1  0
  9 10  2  0
 10 11  1  0
 10 12  1  0
 12 13  2  0
 13 14  1  0
  2 15  1  0
 15 16  1  0
 16 17  2  0
 17 18  1  0
 18 19  2  0
 19 20  1  0
 20 21  2  0
 21 22  1  0
 22 23  1  0
 23 24  1  0
 23 25  1  0
 23 26  1  0
 22 27  2  0
 13  7  1  0
 27 18  1  0
  1 28  1  0
  3 29  1  0
  4 30  1  0
  4 31  1  0
  5 32  1  0
  5 33  1  0
  8 34  1  0
  9 35  1  0
 12 36  1  0
 17 37  1  0
 19 38  1  0
 20 39  1  0
 21 40  1  0
 27 41  1  0
M  CHG  1  15  -1
M  END
>  <meeko>  (12) 
{"free_energy": -6.78, "intermolecular_energy": -10.06, "internal_energy": -1.07, "cluster_size": 4, "cluster_id": 1, "rank_in_cluster": 2}

$$$$

     RDKit          3D

 41 42  0  0  0  0  0  0  0  0999 V2000
  140.1300   72.6400  223.1270 O   0  0  0  0  0  0  0  0  0  0  0  0
  140.0890   71.8410  221.9870 C   0  0  0  0  0  0  0  0  0  0  0  0
  140.8400   72.1560  220.9210 C   0  0  0  0  0  0  0  0  0  0  0  0
  140.7650   73.5120  220.2770 C   0  0  0  0  0  0  0  0  0  0  0  0
  141.3370   74.6280  221.1590 C   0  0  0  0  0  0  0  0  0  0  0  0
  140.3550   75.1200  222.0760 O   0  0  0  0  0  0  0  0  0  0  0  0
  140.1020   76.4670  222.4030 C   0  0  0  0  0  0  0  0  0  0  0  0
  141.1260   77.4020  222.6680 C   0  0  0  0  0  0  0  0  0  0  0  0
  140.8100   78.7260  222.9880 C   0  0  0  0  0  0  0  0  0  0  0  0
  139.4760   79.1350  223.0540 C   0  0  0  0  0  0  0  0  0  0  0  0
  139.0850   80.7980  223.4540 Cl  0  0  0  0  0  0  0  0  0  0  0  0
  138.4540   78.2160  222.8000 C   0  0  0  0  0  0  0  0  0  0  0  0
  138.7630   76.8910  222.4790 C   0  0  0  0  0  0  0  0  0  0  0  0
  137.4540   75.7600  222.1620 Cl  0  0  0  0  0  0  0  0  0  0  0  0
  139.2320   70.6920  221.9800 N   0  0  0  0  0  0  0  0  0  0  0  0
  139.3780   69.6370  222.8930 N   0  0  0  0  0  0  0  0  0  0  0  0
  138.8480   69.6400  224.0810 C   0  0  0  0  0  0  0  0  0  0  0  0
  139.6260   69.5480  225.3390 C   0  0  0  0  0  0  0  0  0  0  0  0
  139.9430   68.2780  225.8430 C   0  0  0  0  0  0  0  0  0  0  0  0
  140.6280   68.1460  227.0520 C   0  0  0  0  0  0  0  0  0  0  0  0
  140.9990   69.2810  227.7760 C   0  0  0  0  0  0  0  0  0  0  0  0
  140.6970   70.5650  227.2890 C   0  0  0  0  0  0  0  0  0  0  0  0
  141.0420   71.7970  228.0890 C   0  0  0  0  0  0  0  0  0  0  0  0
  139.9030   72.2640  228.7180 F   0  0  0  0  0  0  0  0  0  0  0  0
  142.0020   71.5180  229.0450 F   0  0  0  0  0  0  0  0  0  0  0  0
  141.5360   72.7860  227.2550 F   0  0  0  0  0  0  0  0  0  0  0  0
  139.9790   70.6890  226.0860 C   0  0  0  0  0  0  0  0  0  0  0  0
  139.5660   73.4800  223.1910 H   0  0  0  0  0  0  0  0  0  0  0  0
  141.5277   71.4033  220.5080 H   0  0  0  0  0  0  0  0  0  0  0  0
  141.3325   73.4843  219.3351 H   0  0  0  0  0  0  0  0  0  0  0  0
  139.7015   73.7379  220.1099 H   0  0  0  0  0  0  0  0  0  0  0  0
  142.1920   74.2330  221.7273 H   0  0  0  0  0  0  0  0  0  0  0  0
  141.6520   75.4576  220.5090 H   0  0  0  0  0  0  0  0  0  0  0  0
  142.1790   77.0870  222.6225 H   0  0  0  0  0  0  0  0  0  0  0  0
  141.6150   79.4483  223.1886 H   0  0  0  0  0  0  0  0  0  0  0  0
  137.4030   78.5364  222.8529 H   0  0  0  0  0  0  0  0  0  0  0  0
  137.7532   69.7156  224.1566 H   0  0  0  0  0  0  0  0  0  0  0  0
  139.6495   67.3790  225.2811 H   0  0  0  0  0  0  0  0  0  0  0  0
  140.8762   67.1453  227.4354 H   0  0  0  0  0  0  0  0  0  0  0  0
  141.5305   69.1699  228.7327 H   0  0  0  0  0  0  0  0  0  0  0  0
  139.6902   71.6870  225.7248 H   0  0  0  0  0  0  0  0  0  0  0  0
  1  2  1  0
  2  3  2  0
  3  4  1  0
  4  5  1  0
  5  6  1  0
  6  7  1  0
  7  8  2  0
  8  9  1  0
  9 10  2  0
 10 11  1  0
 10 12  1  0
 12 13  2  0
 13 14  1  0
  2 15  1  0
 15 16  1  0
 16 17  2  0
 17 18  1  0
 18 19  2  0
 19 20  1  0
 20 21  2  0
 21 22  1  0
 22 23  1  0
 23 24  1  0
 23 25  1  0
 23 26  1  0
 22 27  2  0
 13  7  1  0
 27 18  1  0
  1 28  1  0
  3 29  1  0
  4 30  1  0
  4 31  1  0
  5 32  1  0
  5 33  1  0
  8 34  1  0
  9 35  1  0
 12 36  1  0
 17 37  1  0
 19 38  1  0
 20 39  1  0
 21 40  1  0
 27 41  1  0
M  CHG  1  15  -1
M  END
>  <meeko>  (13) 
{"free_energy": -6.39, "intermolecular_energy": -9.67, "internal_energy": -1.33, "cluster_size": 2, "cluster_id": 3, "rank_in_cluster": 1}

$$$$

     RDKit          3D

 41 42  0  0  0  0  0  0  0  0999 V2000
  141.4480   75.3360  221.6840 O   0  0  0  0  0  0  0  0  0  0  0  0
  140.0920   75.1740  221.9590 C   0  0  0  0  0  0  0  0  0  0  0  0
  139.2600   76.2210  221.8630 C   0  0  0  0  0  0  0  0  0  0  0  0
  137.7730   76.0370  221.7360 C   0  0  0  0  0  0  0  0  0  0  0  0
  137.0470   76.0670  223.0860 C   0  0  0  0  0  0  0  0  0  0  0  0
  135.8910   75.2220  223.0710 O   0  0  0  0  0  0  0  0  0  0  0  0
  135.8360   73.8580  223.4170 C   0  0  0  0  0  0  0  0  0  0  0  0
  136.4840   72.8470  222.6740 C   0  0  0  0  0  0  0  0  0  0  0  0
  136.3920   71.5080  223.0670 C   0  0  0  0  0  0  0  0  0  0  0  0
  135.6510   71.1570  224.1980 C   0  0  0  0  0  0  0  0  0  0  0  0
  135.5380   69.4770  224.6890 Cl  0  0  0  0  0  0  0  0  0  0  0  0
  134.9990   72.1490  224.9370 C   0  0  0  0  0  0  0  0  0  0  0  0
  135.0880   73.4890  224.5490 C   0  0  0  0  0  0  0  0  0  0  0  0
  134.2590   74.7120  225.5030 Cl  0  0  0  0  0  0  0  0  0  0  0  0
  139.6160   73.8790  222.3470 N   0  0  0  0  0  0  0  0  0  0  0  0
  140.4790   72.8430  222.7350 N   0  0  0  0  0  0  0  0  0  0  0  0
  140.0870   71.6180  222.9270 C   0  0  0  0  0  0  0  0  0  0  0  0
  139.9680   70.9830  224.2610 C   0  0  0  0  0  0  0  0  0  0  0  0
  139.2080   69.8100  224.3820 C   0  0  0  0  0  0  0  0  0  0  0  0
  139.0270   69.2100  225.6290 C   0  0  0  0  0  0  0  0  0  0  0  0
  139.5970   69.7760  226.7710 C   0  0  0  0  0  0  0  0  0  0  0  0
  140.3670   70.9490  226.6740 C   0  0  0  0  0  0  0  0  0  0  0  0
  140.9400   71.6030  227.9070 C   0  0  0  0  0  0  0  0  0  0  0  0
  139.9120   72.1530  228.6500 F   0  0  0  0  0  0  0  0  0  0  0  0
  141.6180   70.6840  228.6900 F   0  0  0  0  0  0  0  0  0  0  0  0
  141.8270   72.6040  227.5490 F   0  0  0  0  0  0  0  0  0  0  0  0
  140.5180   71.5660  225.4190 C   0  0  0  0  0  0  0  0  0  0  0  0
  142.0030   76.0120  222.1950 H   0  0  0  0  0  0  0  0  0  0  0  0
  139.6753   77.2395  221.8775 H   0  0  0  0  0  0  0  0  0  0  0  0
  137.3728   76.8443  221.1050 H   0  0  0  0  0  0  0  0  0  0  0  0
  137.6014   75.0450  221.2927 H   0  0  0  0  0  0  0  0  0  0  0  0
  137.7349   75.7201  223.8712 H   0  0  0  0  0  0  0  0  0  0  0  0
  136.7216   77.0990  223.2838 H   0  0  0  0  0  0  0  0  0  0  0  0
  137.0655   73.1146  221.7794 H   0  0  0  0  0  0  0  0  0  0  0  0
  136.9047   70.7289  222.4838 H   0  0  0  0  0  0  0  0  0  0  0  0
  134.4139   71.8739  225.8269 H   0  0  0  0  0  0  0  0  0  0  0  0
  139.8275   71.0153  222.0441 H   0  0  0  0  0  0  0  0  0  0  0  0
  138.7516   69.3601  223.4879 H   0  0  0  0  0  0  0  0  0  0  0  0
  138.4331   68.2879  225.7124 H   0  0  0  0  0  0  0  0  0  0  0  0
  139.4431   69.3021  227.7517 H   0  0  0  0  0  0  0  0  0  0  0  0
  141.0713   72.5135  225.3413 H   0  0  0  0  0  0  0  0  0  0  0  0
  1  2  1  0
  2  3  2  0
  3  4  1  0
  4  5  1  0
  5  6  1  0
  6  7  1  0
  7  8  2  0
  8  9  1  0
  9 10  2  0
 10 11  1  0
 10 12  1  0
 12 13  2  0
 13 14  1  0
  2 15  1  0
 15 16  1  0
 16 17  2  0
 17 18  1  0
 18 19  2  0
 19 20  1  0
 20 21  2  0
 21 22  1  0
 22 23  1  0
 23 24  1  0
 23 25  1  0
 23 26  1  0
 22 27  2  0
 13  7  1  0
 27 18  1  0
  1 28  1  0
  3 29  1  0
  4 30  1  0
  4 31  1  0
  5 32  1  0
  5 33  1  0
  8 34  1  0
  9 35  1  0
 12 36  1  0
 17 37  1  0
 19 38  1  0
 20 39  1  0
 21 40  1  0
 27 41  1  0
M  CHG  1  15  -1
M  END
>  <meeko>  (14) 
{"free_energy": -5.54, "intermolecular_energy": -8.82, "internal_energy": -1.57, "cluster_size": 1, "cluster_id": 7, "rank_in_cluster": 1}

$$$$

     RDKit          3D

 41 42  0  0  0  0  0  0  0  0999 V2000
  138.9330   74.8920  222.2040 O   0  0  0  0  0  0  0  0  0  0  0  0
  140.0940   74.3770  221.6340 C   0  0  0  0  0  0  0  0  0  0  0  0
  140.5520   74.8790  220.4770 C   0  0  0  0  0  0  0  0  0  0  0  0
  140.4200   76.3400  220.1450 C   0  0  0  0  0  0  0  0  0  0  0  0
  141.4760   77.2100  220.8340 C   0  0  0  0  0  0  0  0  0  0  0  0
  141.1580   77.4170  222.2150 O   0  0  0  0  0  0  0  0  0  0  0  0
  140.2320   78.3390  222.7400 C   0  0  0  0  0  0  0  0  0  0  0  0
  138.8370   78.1200  222.7330 C   0  0  0  0  0  0  0  0  0  0  0  0
  137.9670   79.0750  223.2690 C   0  0  0  0  0  0  0  0  0  0  0  0
  138.4720   80.2590  223.8130 C   0  0  0  0  0  0  0  0  0  0  0  0
  137.3770   81.4540  224.4860 Cl  0  0  0  0  0  0  0  0  0  0  0  0
  139.8500   80.4890  223.8190 C   0  0  0  0  0  0  0  0  0  0  0  0
  140.7250   79.5380  223.2850 C   0  0  0  0  0  0  0  0  0  0  0  0
  142.4540   79.8570  223.3110 Cl  0  0  0  0  0  0  0  0  0  0  0  0
  140.7780   73.3080  222.3020 N   0  0  0  0  0  0  0  0  0  0  0  0
  140.2080   72.6020  223.3720 N   0  0  0  0  0  0  0  0  0  0  0  0
  140.7210   71.5140  223.8650 C   0  0  0  0  0  0  0  0  0  0  0  0
  140.7350   71.1820  225.3090 C   0  0  0  0  0  0  0  0  0  0  0  0
  141.0350   72.1960  226.2310 C   0  0  0  0  0  0  0  0  0  0  0  0
  141.1110   71.9130  227.5950 C   0  0  0  0  0  0  0  0  0  0  0  0
  140.8950   70.6130  228.0570 C   0  0  0  0  0  0  0  0  0  0  0  0
  140.5880   69.5800  227.1530 C   0  0  0  0  0  0  0  0  0  0  0  0
  140.4090   68.1610  227.6320 C   0  0  0  0  0  0  0  0  0  0  0  0
  139.2180   67.6610  227.1400 F   0  0  0  0  0  0  0  0  0  0  0  0
  141.4480   67.3540  227.2010 F   0  0  0  0  0  0  0  0  0  0  0  0
  140.3780   68.1240  229.0160 F   0  0  0  0  0  0  0  0  0  0  0  0
  140.5450   69.8660  225.7770 C   0  0  0  0  0  0  0  0  0  0  0  0
  138.5330   74.4690  223.0340 H   0  0  0  0  0  0  0  0  0  0  0  0
  141.0357   74.2058  219.7539 H   0  0  0  0  0  0  0  0  0  0  0  0
  140.5214   76.4623  219.0565 H   0  0  0  0  0  0  0  0  0  0  0  0
  139.4352   76.6711  220.5064 H   0  0  0  0  0  0  0  0  0  0  0  0
  142.4538   76.7113  220.7621 H   0  0  0  0  0  0  0  0  0  0  0  0
  141.5011   78.1887  220.3326 H   0  0  0  0  0  0  0  0  0  0  0  0
  138.4318   77.1921  222.3031 H   0  0  0  0  0  0  0  0  0  0  0  0
  136.8821   78.8936  223.2623 H   0  0  0  0  0  0  0  0  0  0  0  0
  140.2481   81.4216  224.2454 H   0  0  0  0  0  0  0  0  0  0  0  0
  141.1731   70.7947  223.1663 H   0  0  0  0  0  0  0  0  0  0  0  0
  141.2117   73.2220  225.8757 H   0  0  0  0  0  0  0  0  0  0  0  0
  141.3419   72.7170  228.3093 H   0  0  0  0  0  0  0  0  0  0  0  0
  140.9653   70.3958  229.1330 H   0  0  0  0  0  0  0  0  0  0  0  0
  140.3611   69.0541  225.0580 H   0  0  0  0  0  0  0  0  0  0  0  0
  1  2  1  0
  2  3  2  0
  3  4  1  0
  4  5  1  0
  5  6  1  0
  6  7  1  0
  7  8  2  0
  8  9  1  0
  9 10  2  0
 10 11  1  0
 10 12  1  0
 12 13  2  0
 13 14  1  0
  2 15  1  0
 15 16  1  0
 16 17  2  0
 17 18  1  0
 18 19  2  0
 19 20  1  0
 20 21  2  0
 21 22  1  0
 22 23  1  0
 23 24  1  0
 23 25  1  0
 23 26  1  0
 22 27  2  0
 13  7  1  0
 27 18  1  0
  1 28  1  0
  3 29  1  0
  4 30  1  0
  4 31  1  0
  5 32  1  0
  5 33  1  0
  8 34  1  0
  9 35  1  0
 12 36  1  0
 17 37  1  0
 19 38  1  0
 20 39  1  0
 21 40  1  0
 27 41  1  0
M  CHG  1  15  -1
M  END
>  <meeko>  (15) 
{"free_energy": -6.97, "intermolecular_energy": -10.25, "internal_energy": -0.9, "cluster_size": 4, "cluster_id": 1, "rank_in_cluster": 1}

$$$$

     RDKit          3D

 41 42  0  0  0  0  0  0  0  0999 V2000
  137.9560   71.5990  223.4250 O   0  0  0  0  0  0  0  0  0  0  0  0
  139.2650   71.3310  223.0350 C   0  0  0  0  0  0  0  0  0  0  0  0
  139.9630   72.2530  222.3540 C   0  0  0  0  0  0  0  0  0  0  0  0
  139.3300   73.0750  221.2660 C   0  0  0  0  0  0  0  0  0  0  0  0
  139.9010   74.4950  221.1770 C   0  0  0  0  0  0  0  0  0  0  0  0
  139.4050   75.3210  222.2360 O   0  0  0  0  0  0  0  0  0  0  0  0
  139.7430   76.6650  222.4890 C   0  0  0  0  0  0  0  0  0  0  0  0
  141.0770   77.1230  222.5740 C   0  0  0  0  0  0  0  0  0  0  0  0
  141.3480   78.4710  222.8290 C   0  0  0  0  0  0  0  0  0  0  0  0
  140.3010   79.3780  223.0060 C   0  0  0  0  0  0  0  0  0  0  0  0
  140.6460   81.0680  223.3240 Cl  0  0  0  0  0  0  0  0  0  0  0  0
  138.9770   78.9350  222.9310 C   0  0  0  0  0  0  0  0  0  0  0  0
  138.6990   77.5880  222.6760 C   0  0  0  0  0  0  0  0  0  0  0  0
  137.0230   77.0640  222.5840 Cl  0  0  0  0  0  0  0  0  0  0  0  0
  139.8410   70.0610  223.3700 N   0  0  0  0  0  0  0  0  0  0  0  0
  139.0590   68.9260  223.6350 N   0  0  0  0  0  0  0  0  0  0  0  0
  138.8300   68.4800  224.8350 C   0  0  0  0  0  0  0  0  0  0  0  0
  139.6700   68.7950  226.0140 C   0  0  0  0  0  0  0  0  0  0  0  0
  140.2040   67.7360  226.7630 C   0  0  0  0  0  0  0  0  0  0  0  0
  140.9560   67.9890  227.9110 C   0  0  0  0  0  0  0  0  0  0  0  0
  141.1800   69.3020  228.3290 C   0  0  0  0  0  0  0  0  0  0  0  0
  140.6590   70.3810  227.5930 C   0  0  0  0  0  0  0  0  0  0  0  0
  140.8450   71.8010  228.0650 C   0  0  0  0  0  0  0  0  0  0  0  0
  141.0910   72.6150  226.9750 F   0  0  0  0  0  0  0  0  0  0  0  0
  139.7170   72.2600  228.7240 F   0  0  0  0  0  0  0  0  0  0  0  0
  141.9170   71.8790  228.9390 F   0  0  0  0  0  0  0  0  0  0  0  0
  139.8750   70.1170  226.4550 C   0  0  0  0  0  0  0  0  0  0  0  0
  137.7030   72.5050  223.8030 H   0  0  0  0  0  0  0  0  0  0  0  0
  141.0239   72.4111  222.5978 H   0  0  0  0  0  0  0  0  0  0  0  0
  139.4965   72.5696  220.3033 H   0  0  0  0  0  0  0  0  0  0  0  0
  138.2597   73.1657  221.5034 H   0  0  0  0  0  0  0  0  0  0  0  0
  140.9978   74.4454  221.2447 H   0  0  0  0  0  0  0  0  0  0  0  0
  139.5905   74.9353  220.2180 H   0  0  0  0  0  0  0  0  0  0  0  0
  141.9076   76.4147  222.4387 H   0  0  0  0  0  0  0  0  0  0  0  0
  142.3899   78.8183  222.8904 H   0  0  0  0  0  0  0  0  0  0  0  0
  138.1514   79.6479  223.0730 H   0  0  0  0  0  0  0  0  0  0  0  0
  137.9571   67.8274  224.9841 H   0  0  0  0  0  0  0  0  0  0  0  0
  140.0287   66.6983  226.4430 H   0  0  0  0  0  0  0  0  0  0  0  0
  141.3736   67.1511  228.4884 H   0  0  0  0  0  0  0  0  0  0  0  0
  141.7673   69.4936  229.2391 H   0  0  0  0  0  0  0  0  0  0  0  0
  139.4173   70.9517  225.9038 H   0  0  0  0  0  0  0  0  0  0  0  0
  1  2  1  0
  2  3  2  0
  3  4  1  0
  4  5  1  0
  5  6  1  0
  6  7  1  0
  7  8  2  0
  8  9  1  0
  9 10  2  0
 10 11  1  0
 10 12  1  0
 12 13  2  0
 13 14  1  0
  2 15  1  0
 15 16  1  0
 16 17  2  0
 17 18  1  0
 18 19  2  0
 19 20  1  0
 20 21  2  0
 21 22  1  0
 22 23  1  0
 23 24  1  0
 23 25  1  0
 23 26  1  0
 22 27  2  0
 13  7  1  0
 27 18  1  0
  1 28  1  0
  3 29  1  0
  4 30  1  0
  4 31  1  0
  5 32  1  0
  5 33  1  0
  8 34  1  0
  9 35  1  0
 12 36  1  0
 17 37  1  0
 19 38  1  0
 20 39  1  0
 21 40  1  0
 27 41  1  0
M  CHG  1  15  -1
M  END
>  <meeko>  (16) 
{"free_energy": -6.27, "intermolecular_energy": -9.55, "internal_energy": -0.54, "cluster_size": 2, "cluster_id": 3, "rank_in_cluster": 2}

$$$$

     RDKit          3D

 41 42  0  0  0  0  0  0  0  0999 V2000
  137.1020   73.8740  222.3440 O   0  0  0  0  0  0  0  0  0  0  0  0
  138.3530   74.3400  221.9500 C   0  0  0  0  0  0  0  0  0  0  0  0
  138.5560   75.6560  221.7820 C   0  0  0  0  0  0  0  0  0  0  0  0
  138.0900   76.3730  220.5460 C   0  0  0  0  0  0  0  0  0  0  0  0
  137.7690   77.8510  220.7940 C   0  0  0  0  0  0  0  0  0  0  0  0
  138.1580   78.2530  222.1120 O   0  0  0  0  0  0  0  0  0  0  0  0
  139.3930   78.8140  222.4950 C   0  0  0  0  0  0  0  0  0  0  0  0
  140.6380   78.3060  222.0630 C   0  0  0  0  0  0  0  0  0  0  0  0
  141.8300   78.9070  222.4790 C   0  0  0  0  0  0  0  0  0  0  0  0
  141.8000   80.0140  223.3310 C   0  0  0  0  0  0  0  0  0  0  0  0
  143.2990   80.7650  223.8480 Cl  0  0  0  0  0  0  0  0  0  0  0  0
  140.5740   80.5210  223.7690 C   0  0  0  0  0  0  0  0  0  0  0  0
  139.3780   79.9250  223.3570 C   0  0  0  0  0  0  0  0  0  0  0  0
  137.8520   80.5890  223.9240 Cl  0  0  0  0  0  0  0  0  0  0  0  0
  139.4050   73.3920  221.7250 N   0  0  0  0  0  0  0  0  0  0  0  0
  140.3150   73.0250  222.7280 N   0  0  0  0  0  0  0  0  0  0  0  0
  140.6510   71.7930  222.9740 C   0  0  0  0  0  0  0  0  0  0  0  0
  140.3890   71.1000  224.2570 C   0  0  0  0  0  0  0  0  0  0  0  0
  139.6020   69.9390  224.2460 C   0  0  0  0  0  0  0  0  0  0  0  0
  139.2880   69.2850  225.4390 C   0  0  0  0  0  0  0  0  0  0  0  0
  139.7490   69.7870  226.6570 C   0  0  0  0  0  0  0  0  0  0  0  0
  140.5440   70.9470  226.6940 C   0  0  0  0  0  0  0  0  0  0  0  0
  141.0010   71.5310  228.0070 C   0  0  0  0  0  0  0  0  0  0  0  0
  139.8960   71.9320  228.7360 F   0  0  0  0  0  0  0  0  0  0  0  0
  141.7130   70.6020  228.7460 F   0  0  0  0  0  0  0  0  0  0  0  0
  141.8180   72.6260  227.7850 F   0  0  0  0  0  0  0  0  0  0  0  0
  140.8300   71.6170  225.4910 C   0  0  0  0  0  0  0  0  0  0  0  0
  136.9440   73.5570  223.2940 H   0  0  0  0  0  0  0  0  0  0  0  0
  139.0760   76.2235  222.5678 H   0  0  0  0  0  0  0  0  0  0  0  0
  138.8816   76.3095  219.7849 H   0  0  0  0  0  0  0  0  0  0  0  0
  137.1607   75.8864  220.2149 H   0  0  0  0  0  0  0  0  0  0  0  0
  138.3101   78.4637  220.0580 H   0  0  0  0  0  0  0  0  0  0  0  0
  136.6827   77.9923  220.6940 H   0  0  0  0  0  0  0  0  0  0  0  0
  140.6701   77.4324  221.3953 H   0  0  0  0  0  0  0  0  0  0  0  0
  142.7949   78.5068  222.1343 H   0  0  0  0  0  0  0  0  0  0  0  0
  140.5495   81.3921  224.4403 H   0  0  0  0  0  0  0  0  0  0  0  0
  141.1620   71.2298  222.1792 H   0  0  0  0  0  0  0  0  0  0  0  0
  139.2295   69.5409  223.2906 H   0  0  0  0  0  0  0  0  0  0  0  0
  138.6755   68.3715  225.4189 H   0  0  0  0  0  0  0  0  0  0  0  0
  139.4891   69.2724  227.5938 H   0  0  0  0  0  0  0  0  0  0  0  0
  141.4043   72.5549  225.5139 H   0  0  0  0  0  0  0  0  0  0  0  0
  1  2  1  0
  2  3  2  0
  3  4  1  0
  4  5  1  0
  5  6  1  0
  6  7  1  0
  7  8  2  0
  8  9  1  0
  9 10  2  0
 10 11  1  0
 10 12  1  0
 12 13  2  0
 13 14  1  0
  2 15  1  0
 15 16  1  0
 16 17  2  0
 17 18  1  0
 18 19  2  0
 19 20  1  0
 20 21  2  0
 21 22  1  0
 22 23  1  0
 23 24  1  0
 23 25  1  0
 23 26  1  0
 22 27  2  0
 13  7  1  0
 27 18  1  0
  1 28  1  0
  3 29  1  0
  4 30  1  0
  4 31  1  0
  5 32  1  0
  5 33  1  0
  8 34  1  0
  9 35  1  0
 12 36  1  0
 17 37  1  0
 19 38  1  0
 20 39  1  0
 21 40  1  0
 27 41  1  0
M  CHG  1  15  -1
M  END
>  <meeko>  (17) 
{"free_energy": -5.99, "intermolecular_energy": -9.27, "internal_energy": -0.66, "cluster_size": 5, "cluster_id": 5, "rank_in_cluster": 4}

$$$$

     RDKit          3D

 41 42  0  0  0  0  0  0  0  0999 V2000
  139.6600   74.8970  222.3520 O   0  0  0  0  0  0  0  0  0  0  0  0
  140.7370   74.3320  221.6750 C   0  0  0  0  0  0  0  0  0  0  0  0
  141.6930   75.1190  221.1610 C   0  0  0  0  0  0  0  0  0  0  0  0
  141.4580   75.9420  219.9250 C   0  0  0  0  0  0  0  0  0  0  0  0
  141.5360   77.4510  220.1840 C   0  0  0  0  0  0  0  0  0  0  0  0
  141.5680   77.7360  221.5870 O   0  0  0  0  0  0  0  0  0  0  0  0
  140.6240   78.4810  222.3200 C   0  0  0  0  0  0  0  0  0  0  0  0
  139.2520   78.1510  222.3710 C   0  0  0  0  0  0  0  0  0  0  0  0
  138.3630   78.9310  223.1180 C   0  0  0  0  0  0  0  0  0  0  0  0
  138.8240   80.0490  223.8170 C   0  0  0  0  0  0  0  0  0  0  0  0
  137.7050   81.0230  224.7530 Cl  0  0  0  0  0  0  0  0  0  0  0  0
  140.1790   80.3890  223.7680 C   0  0  0  0  0  0  0  0  0  0  0  0
  141.0730   79.6130  223.0240 C   0  0  0  0  0  0  0  0  0  0  0  0
  142.7720   80.0660  222.9860 Cl  0  0  0  0  0  0  0  0  0  0  0  0
  140.7950   72.9060  221.5380 N   0  0  0  0  0  0  0  0  0  0  0  0
  140.0570   72.0390  222.3580 N   0  0  0  0  0  0  0  0  0  0  0  0
  140.3090   71.8630  223.6220 C   0  0  0  0  0  0  0  0  0  0  0  0
  139.8770   70.6770  224.3980 C   0  0  0  0  0  0  0  0  0  0  0  0
  138.7260   69.9880  223.9900 C   0  0  0  0  0  0  0  0  0  0  0  0
  138.2550   68.8980  224.7240 C   0  0  0  0  0  0  0  0  0  0  0  0
  138.9240   68.4860  225.8780 C   0  0  0  0  0  0  0  0  0  0  0  0
  140.0840   69.1580  226.3050 C   0  0  0  0  0  0  0  0  0  0  0  0
  140.7840   68.7600  227.5810 C   0  0  0  0  0  0  0  0  0  0  0  0
  141.4090   69.8670  228.1220 F   0  0  0  0  0  0  0  0  0  0  0  0
  139.8870   68.2530  228.5050 F   0  0  0  0  0  0  0  0  0  0  0  0
  141.7330   67.7860  227.3210 F   0  0  0  0  0  0  0  0  0  0  0  0
  140.5340   70.2750  225.5780 C   0  0  0  0  0  0  0  0  0  0  0  0
  138.9930   74.3130  222.8430 H   0  0  0  0  0  0  0  0  0  0  0  0
  142.6742   75.1637  221.6562 H   0  0  0  0  0  0  0  0  0  0  0  0
  142.2190   75.6753  219.1768 H   0  0  0  0  0  0  0  0  0  0  0  0
  140.4395   75.7217  219.5728 H   0  0  0  0  0  0  0  0  0  0  0  0
  142.4490   77.8483  219.7165 H   0  0  0  0  0  0  0  0  0  0  0  0
  140.6413   77.9244  219.7533 H   0  0  0  0  0  0  0  0  0  0  0  0
  138.8799   77.2749  221.8197 H   0  0  0  0  0  0  0  0  0  0  0  0
  137.2968   78.6629  223.1551 H   0  0  0  0  0  0  0  0  0  0  0  0
  140.5432   81.2701  224.3167 H   0  0  0  0  0  0  0  0  0  0  0  0
  140.8785   72.6436  224.1477 H   0  0  0  0  0  0  0  0  0  0  0  0
  138.1900   70.3088  223.0846 H   0  0  0  0  0  0  0  0  0  0  0  0
  137.3537   68.3619  224.3920 H   0  0  0  0  0  0  0  0  0  0  0  0
  138.5423   67.6317  226.4563 H   0  0  0  0  0  0  0  0  0  0  0  0
  141.4077   70.8405  225.9343 H   0  0  0  0  0  0  0  0  0  0  0  0
  1  2  1  0
  2  3  2  0
  3  4  1  0
  4  5  1  0
  5  6  1  0
  6  7  1  0
  7  8  2  0
  8  9  1  0
  9 10  2  0
 10 11  1  0
 10 12  1  0
 12 13  2  0
 13 14  1  0
  2 15  1  0
 15 16  1  0
 16 17  2  0
 17 18  1  0
 18 19  2  0
 19 20  1  0
 20 21  2  0
 21 22  1  0
 22 23  1  0
 23 24  1  0
 23 25  1  0
 23 26  1  0
 22 27  2  0
 13  7  1  0
 27 18  1  0
  1 28  1  0
  3 29  1  0
  4 30  1  0
  4 31  1  0
  5 32  1  0
  5 33  1  0
  8 34  1  0
  9 35  1  0
 12 36  1  0
 17 37  1  0
 19 38  1  0
 20 39  1  0
 21 40  1  0
 27 41  1  0
M  CHG  1  15  -1
M  END
>  <meeko>  (18) 
{"free_energy": -5.91, "intermolecular_energy": -9.19, "internal_energy": -0.85, "cluster_size": 4, "cluster_id": 1, "rank_in_cluster": 4}

$$$$

     RDKit          3D

 41 42  0  0  0  0  0  0  0  0999 V2000
  140.9430   76.0680  222.3930 O   0  0  0  0  0  0  0  0  0  0  0  0
  140.1610   75.2280  221.6050 C   0  0  0  0  0  0  0  0  0  0  0  0
  139.6500   75.6780  220.4490 C   0  0  0  0  0  0  0  0  0  0  0  0
  138.9470   74.7600  219.4890 C   0  0  0  0  0  0  0  0  0  0  0  0
  139.8880   73.7460  218.8280 C   0  0  0  0  0  0  0  0  0  0  0  0
  141.1790   74.3160  218.5880 O   0  0  0  0  0  0  0  0  0  0  0  0
  142.3660   74.0500  219.2980 C   0  0  0  0  0  0  0  0  0  0  0  0
  142.7200   72.7620  219.7550 C   0  0  0  0  0  0  0  0  0  0  0  0
  143.9130   72.5620  220.4560 C   0  0  0  0  0  0  0  0  0  0  0  0
  144.7650   73.6380  220.7150 C   0  0  0  0  0  0  0  0  0  0  0  0
  146.2620   73.3820  221.5940 Cl  0  0  0  0  0  0  0  0  0  0  0  0
  144.4220   74.9190  220.2730 C   0  0  0  0  0  0  0  0  0  0  0  0
  143.2300   75.1250  219.5710 C   0  0  0  0  0  0  0  0  0  0  0  0
  142.8290   76.7490  219.0270 Cl  0  0  0  0  0  0  0  0  0  0  0  0
  139.9140   73.8900  222.0560 N   0  0  0  0  0  0  0  0  0  0  0  0
  140.9470   73.0220  222.4430 N   0  0  0  0  0  0  0  0  0  0  0  0
  140.7800   71.7460  222.6250 C   0  0  0  0  0  0  0  0  0  0  0  0
  140.3200   71.1410  223.8970 C   0  0  0  0  0  0  0  0  0  0  0  0
  139.3100   70.1690  223.8530 C   0  0  0  0  0  0  0  0  0  0  0  0
  138.8110   69.6120  225.0320 C   0  0  0  0  0  0  0  0  0  0  0  0
  139.3100   70.0240  226.2690 C   0  0  0  0  0  0  0  0  0  0  0  0
  140.3270   70.9940  226.3390 C   0  0  0  0  0  0  0  0  0  0  0  0
  140.8340   71.4890  227.6700 C   0  0  0  0  0  0  0  0  0  0  0  0
  141.4470   70.4460  228.3400 F   0  0  0  0  0  0  0  0  0  0  0  0
  141.7470   72.5160  227.5060 F   0  0  0  0  0  0  0  0  0  0  0  0
  139.7830   71.9640  228.4360 F   0  0  0  0  0  0  0  0  0  0  0  0
  140.8010   71.5730  225.1480 C   0  0  0  0  0  0  0  0  0  0  0  0
  141.9480   76.1070  222.2680 H   0  0  0  0  0  0  0  0  0  0  0  0
  139.7479   76.7445  220.1979 H   0  0  0  0  0  0  0  0  0  0  0  0
  138.1686   74.2094  220.0375 H   0  0  0  0  0  0  0  0  0  0  0  0
  138.5234   75.3845  218.6887 H   0  0  0  0  0  0  0  0  0  0  0  0
  139.9983   72.8746  219.4901 H   0  0  0  0  0  0  0  0  0  0  0  0
  139.4545   73.4476  217.8620 H   0  0  0  0  0  0  0  0  0  0  0  0
  142.0526   71.9100  219.5582 H   0  0  0  0  0  0  0  0  0  0  0  0
  144.1815   71.5539  220.8047 H   0  0  0  0  0  0  0  0  0  0  0  0
  145.0915   75.7674  220.4779 H   0  0  0  0  0  0  0  0  0  0  0  0
  140.9936   71.0728  221.7817 H   0  0  0  0  0  0  0  0  0  0  0  0
  138.9080   69.8430  222.8824 H   0  0  0  0  0  0  0  0  0  0  0  0
  138.0225   68.8464  224.9861 H   0  0  0  0  0  0  0  0  0  0  0  0
  138.9058   69.5878  227.1944 H   0  0  0  0  0  0  0  0  0  0  0  0
  141.5556   72.3720  225.1943 H   0  0  0  0  0  0  0  0  0  0  0  0
  1  2  1  0
  2  3  2  0
  3  4  1  0
  4  5  1  0
  5  6  1  0
  6  7  1  0
  7  8  2  0
  8  9  1  0
  9 10  2  0
 10 11  1  0
 10 12  1  0
 12 13  2  0
 13 14  1  0
  2 15  1  0
 15 16  1  0
 16 17  2  0
 17 18  1  0
 18 19  2  0
 19 20  1  0
 20 21  2  0
 21 22  1  0
 22 23  1  0
 23 24  1  0
 23 25  1  0
 23 26  1  0
 22 27  2  0
 13  7  1  0
 27 18  1  0
  1 28  1  0
  3 29  1  0
  4 30  1  0
  4 31  1  0
  5 32  1  0
  5 33  1  0
  8 34  1  0
  9 35  1  0
 12 36  1  0
 17 37  1  0
 19 38  1  0
 20 39  1  0
 21 40  1  0
 27 41  1  0
M  CHG  1  15  -1
M  END
>  <meeko>  (19) 
{"free_energy": -5.96, "intermolecular_energy": -9.24, "internal_energy": -1.5, "cluster_size": 2, "cluster_id": 6, "rank_in_cluster": 2}

$$$$

     RDKit          3D

 41 42  0  0  0  0  0  0  0  0999 V2000
  138.7920   72.9440  220.6530 O   0  0  0  0  0  0  0  0  0  0  0  0
  138.8200   73.8390  221.7190 C   0  0  0  0  0  0  0  0  0  0  0  0
  137.8630   74.7720  221.8360 C   0  0  0  0  0  0  0  0  0  0  0  0
  138.1070   76.0630  222.5670 C   0  0  0  0  0  0  0  0  0  0  0  0
  137.3080   77.2390  221.9920 C   0  0  0  0  0  0  0  0  0  0  0  0
  137.7260   78.4810  222.5680 O   0  0  0  0  0  0  0  0  0  0  0  0
  139.0510   78.9280  222.7450 C   0  0  0  0  0  0  0  0  0  0  0  0
  140.1640   78.3020  222.1420 C   0  0  0  0  0  0  0  0  0  0  0  0
  141.4550   78.7930  222.3570 C   0  0  0  0  0  0  0  0  0  0  0  0
  141.6570   79.9050  223.1770 C   0  0  0  0  0  0  0  0  0  0  0  0
  143.2800   80.5180  223.4430 Cl  0  0  0  0  0  0  0  0  0  0  0  0
  140.5640   80.5290  223.7850 C   0  0  0  0  0  0  0  0  0  0  0  0
  139.2690   80.0430  223.5730 C   0  0  0  0  0  0  0  0  0  0  0  0
  137.9150   80.8520  224.3500 Cl  0  0  0  0  0  0  0  0  0  0  0  0
  139.8850   73.7430  222.6740 N   0  0  0  0  0  0  0  0  0  0  0  0
  140.7760   72.6590  222.7030 N   0  0  0  0  0  0  0  0  0  0  0  0
  140.4090   71.4390  222.9640 C   0  0  0  0  0  0  0  0  0  0  0  0
  140.1990   70.9090  224.3320 C   0  0  0  0  0  0  0  0  0  0  0  0
  139.3870   69.7770  224.4980 C   0  0  0  0  0  0  0  0  0  0  0  0
  139.1200   69.2780  225.7740 C   0  0  0  0  0  0  0  0  0  0  0  0
  139.6550   69.9060  226.9000 C   0  0  0  0  0  0  0  0  0  0  0  0
  140.4750   71.0400  226.7590 C   0  0  0  0  0  0  0  0  0  0  0  0
  141.0120   71.7620  227.9710 C   0  0  0  0  0  0  0  0  0  0  0  0
  139.9540   72.2360  228.7240 F   0  0  0  0  0  0  0  0  0  0  0  0
  141.7800   70.9190  228.7550 F   0  0  0  0  0  0  0  0  0  0  0  0
  141.8030   72.8290  227.5800 F   0  0  0  0  0  0  0  0  0  0  0  0
  140.7130   71.5560  225.4730 C   0  0  0  0  0  0  0  0  0  0  0  0
  139.4930   72.2180  220.5680 H   0  0  0  0  0  0  0  0  0  0  0  0
  136.8761   74.5880  221.3863 H   0  0  0  0  0  0  0  0  0  0  0  0
  137.8222   75.9280  223.6209 H   0  0  0  0  0  0  0  0  0  0  0  0
  139.1742   76.3060  222.4572 H   0  0  0  0  0  0  0  0  0  0  0  0
  137.4616   77.2788  220.9035 H   0  0  0  0  0  0  0  0  0  0  0  0
  136.2447   77.0861  222.2289 H   0  0  0  0  0  0  0  0  0  0  0  0
  140.0141   77.4223  221.4989 H   0  0  0  0  0  0  0  0  0  0  0  0
  142.3149   78.3016  221.8784 H   0  0  0  0  0  0  0  0  0  0  0  0
  140.7222   81.4045  224.4319 H   0  0  0  0  0  0  0  0  0  0  0  0
  140.2441   70.7577  222.1163 H   0  0  0  0  0  0  0  0  0  0  0  0
  138.9576   69.2790  223.6162 H   0  0  0  0  0  0  0  0  0  0  0  0
  138.4859   68.3870  225.8926 H   0  0  0  0  0  0  0  0  0  0  0  0
  139.4341   69.5119  227.9029 H   0  0  0  0  0  0  0  0  0  0  0  0
  141.3068   72.4746  225.3565 H   0  0  0  0  0  0  0  0  0  0  0  0
  1  2  1  0
  2  3  2  0
  3  4  1  0
  4  5  1  0
  5  6  1  0
  6  7  1  0
  7  8  2  0
  8  9  1  0
  9 10  2  0
 10 11  1  0
 10 12  1  0
 12 13  2  0
 13 14  1  0
  2 15  1  0
 15 16  1  0
 16 17  2  0
 17 18  1  0
 18 19  2  0
 19 20  1  0
 20 21  2  0
 21 22  1  0
 22 23  1  0
 23 24  1  0
 23 25  1  0
 23 26  1  0
 22 27  2  0
 13  7  1  0
 27 18  1  0
  1 28  1  0
  3 29  1  0
  4 30  1  0
  4 31  1  0
  5 32  1  0
  5 33  1  0
  8 34  1  0
  9 35  1  0
 12 36  1  0
 17 37  1  0
 19 38  1  0
 20 39  1  0
 21 40  1  0
 27 41  1  0
M  CHG  1  15  -1
M  END
>  <meeko>  (20) 
{"free_energy": -6.08, "intermolecular_energy": -9.36, "internal_energy": -0.85, "cluster_size": 5, "cluster_id": 5, "rank_in_cluster": 2}

$$$$
