
     RDKit          3D

 41 42  0  0  0  0  0  0  0  0999 V2000
  137.2490   72.7780  222.6490 O   0  0  0  0  0  0  0  0  0  0  0  0
  137.9030   73.7910  221.9540 C   0  0  0  0  0  0  0  0  0  0  0  0
  137.2170   74.8580  221.5180 C   0  0  0  0  0  0  0  0  0  0  0  0
  137.8500   75.9530  220.7030 C   0  0  0  0  0  0  0  0  0  0  0  0
  137.5350   77.3350  221.2730 C   0  0  0  0  0  0  0  0  0  0  0  0
  138.1950   77.4970  222.5250 O   0  0  0  0  0  0  0  0  0  0  0  0
  139.3670   78.2310  222.7870 C   0  0  0  0  0  0  0  0  0  0  0  0
  139.1880   79.4590  223.4390 C   0  0  0  0  0  0  0  0  0  0  0  0
  140.2760   80.2700  223.7650 C   0  0  0  0  0  0  0  0  0  0  0  0
  141.5690   79.8650  223.4360 C   0  0  0  0  0  0  0  0  0  0  0  0
  142.9380   80.8840  223.8440 Cl  0  0  0  0  0  0  0  0  0  0  0  0
  141.7720   78.6500  222.7790 C   0  0  0  0  0  0  0  0  0  0  0  0
  140.6890   77.8250  222.4440 C   0  0  0  0  0  0  0  0  0  0  0  0
  141.0860   76.3450  221.5790 Cl  0  0  0  0  0  0  0  0  0  0  0  0
  139.3120   73.6700  221.7230 N   0  0  0  0  0  0  0  0  0  0  0  0
  140.2050   73.2500  222.7190 N   0  0  0  0  0  0  0  0  0  0  0  0
  140.5170   72.0010  222.8470 C   0  0  0  0  0  0  0  0  0  0  0  0
  140.2700   71.2790  224.1120 C   0  0  0  0  0  0  0  0  0  0  0  0
  139.5240   70.0920  224.0910 C   0  0  0  0  0  0  0  0  0  0  0  0
  139.2650   69.4010  225.2760 C   0  0  0  0  0  0  0  0  0  0  0  0
  139.7530   69.8820  226.4930 C   0  0  0  0  0  0  0  0  0  0  0  0
  140.5260   71.0550  226.5340 C   0  0  0  0  0  0  0  0  0  0  0  0
  141.0150   71.6040  227.8510 C   0  0  0  0  0  0  0  0  0  0  0  0
  139.9430   72.1230  228.5530 F   0  0  0  0  0  0  0  0  0  0  0  0
  141.6100   70.6100  228.6080 F   0  0  0  0  0  0  0  0  0  0  0  0
  141.9470   72.6060  227.6450 F   0  0  0  0  0  0  0  0  0  0  0  0
  140.7610   71.7610  225.3400 C   0  0  0  0  0  0  0  0  0  0  0  0
  137.4020   72.6450  223.6400 H   0  0  0  0  0  0  0  0  0  0  0  0
  136.1482   74.9357  221.7664 H   0  0  0  0  0  0  0  0  0  0  0  0
  138.9406   75.8092  220.6985 H   0  0  0  0  0  0  0  0  0  0  0  0
  137.4417   75.9013  219.6829 H   0  0  0  0  0  0  0  0  0  0  0  0
  137.8837   78.1081  220.5725 H   0  0  0  0  0  0  0  0  0  0  0  0
  136.4488   77.4319  221.4172 H   0  0  0  0  0  0  0  0  0  0  0  0
  138.1714   79.7894  223.6984 H   0  0  0  0  0  0  0  0  0  0  0  0
  140.1136   81.2278  224.2810 H   0  0  0  0  0  0  0  0  0  0  0  0
  142.7942   78.3361  222.5210 H   0  0  0  0  0  0  0  0  0  0  0  0
  140.9737   71.4679  222.0001 H   0  0  0  0  0  0  0  0  0  0  0  0
  139.1409   69.7033  223.1360 H   0  0  0  0  0  0  0  0  0  0  0  0
  138.6740   68.4736  225.2511 H   0  0  0  0  0  0  0  0  0  0  0  0
  139.5312   69.3400  227.4241 H   0  0  0  0  0  0  0  0  0  0  0  0
  141.3344   72.6994  225.3663 H   0  0  0  0  0  0  0  0  0  0  0  0
  1  2  1  0
  2  3  2  0
  3  4  1  0
  4  5  1  0
  5  6  1  0
  6  7  1  0
  7  8  2  0
  8  9  1  0
  9 10  2  0
 10 11  1  0
 10 12  1  0
 12 13  2  0
 13 14  1  0
  2 15  1  0
 15 16  1  0
 16 17  2  0
 17 18  1  0
 18 19  2  0
 19 20  1  0
 20 21  2  0
 21 22  1  0
 22 23  1  0
 23 24  1  0
 23 25  1  0
 23 26  1  0
 22 27  2  0
 13  7  1  0
 27 18  1  0
  1 28  1  0
  3 29  1  0
  4 30  1  0
  4 31  1  0
  5 32  1  0
  5 33  1  0
  8 34  1  0
  9 35  1  0
 12 36  1  0
 17 37  1  0
 19 38  1  0
 20 39  1  0
 21 40  1  0
 27 41  1  0
M  CHG  1  15  -1
M  END
>  <meeko>  (1) 
{"free_energy": -6.12, "intermolecular_energy": -9.4, "internal_energy": -0.87, "cluster_size": 9, "cluster_id": 2, "rank_in_cluster": 8}

$$$$

     RDKit          3D

 41 42  0  0  0  0  0  0  0  0999 V2000
  140.9340   75.8370  222.3860 O   0  0  0  0  0  0  0  0  0  0  0  0
  141.1930   74.7920  221.5020 C   0  0  0  0  0  0  0  0  0  0  0  0
  141.5420   75.0570  220.2340 C   0  0  0  0  0  0  0  0  0  0  0  0
  142.4010   76.2330  219.8570 C   0  0  0  0  0  0  0  0  0  0  0  0
  141.6320   77.5500  219.9610 C   0  0  0  0  0  0  0  0  0  0  0  0
  141.9100   78.1680  221.2140 O   0  0  0  0  0  0  0  0  0  0  0  0
  141.0120   78.8650  222.0450 C   0  0  0  0  0  0  0  0  0  0  0  0
  139.6590   78.5280  221.8990 C   0  0  0  0  0  0  0  0  0  0  0  0
  138.6750   79.1410  222.6770 C   0  0  0  0  0  0  0  0  0  0  0  0
  139.0310   80.1100  223.6130 C   0  0  0  0  0  0  0  0  0  0  0  0
  137.7950   80.8830  224.5910 Cl  0  0  0  0  0  0  0  0  0  0  0  0
  140.3710   80.4680  223.7690 C   0  0  0  0  0  0  0  0  0  0  0  0
  141.3710   79.8620  222.9950 C   0  0  0  0  0  0  0  0  0  0  0  0
  143.0110   80.4400  223.2650 Cl  0  0  0  0  0  0  0  0  0  0  0  0
  141.0840   73.4450  221.9770 N   0  0  0  0  0  0  0  0  0  0  0  0
  139.9620   72.9830  222.6790 N   0  0  0  0  0  0  0  0  0  0  0  0
  139.7190   71.7160  222.7810 C   0  0  0  0  0  0  0  0  0  0  0  0
  139.7190   71.0440  224.0970 C   0  0  0  0  0  0  0  0  0  0  0  0
  139.1020   69.7910  224.2290 C   0  0  0  0  0  0  0  0  0  0  0  0
  139.0780   69.1440  225.4650 C   0  0  0  0  0  0  0  0  0  0  0  0
  139.6750   69.7340  226.5810 C   0  0  0  0  0  0  0  0  0  0  0  0
  140.3230   70.9760  226.4660 C   0  0  0  0  0  0  0  0  0  0  0  0
  140.9270   71.6400  227.6780 C   0  0  0  0  0  0  0  0  0  0  0  0
  141.5230   70.6790  228.4730 F   0  0  0  0  0  0  0  0  0  0  0  0
  141.8820   72.5700  227.3040 F   0  0  0  0  0  0  0  0  0  0  0  0
  139.9530   72.2930  228.4120 F   0  0  0  0  0  0  0  0  0  0  0  0
  140.3210   71.6360  225.2230 C   0  0  0  0  0  0  0  0  0  0  0  0
  141.6410   76.5320  222.5900 H   0  0  0  0  0  0  0  0  0  0  0  0
  141.1856   74.3871  219.4376 H   0  0  0  0  0  0  0  0  0  0  0  0
  143.2684   76.2722  220.5323 H   0  0  0  0  0  0  0  0  0  0  0  0
  142.7208   76.1037  218.8125 H   0  0  0  0  0  0  0  0  0  0  0  0
  141.9417   78.2202  219.1456 H   0  0  0  0  0  0  0  0  0  0  0  0
  140.5531   77.3501  219.8836 H   0  0  0  0  0  0  0  0  0  0  0  0
  139.3678   77.7679  221.1591 H   0  0  0  0  0  0  0  0  0  0  0  0
  137.6192   78.8592  222.5512 H   0  0  0  0  0  0  0  0  0  0  0  0
  140.6460   81.2349  224.5081 H   0  0  0  0  0  0  0  0  0  0  0  0
  139.5092   71.1302  221.8739 H   0  0  0  0  0  0  0  0  0  0  0  0
  138.6348   69.3162  223.3536 H   0  0  0  0  0  0  0  0  0  0  0  0
  138.5865   68.1646  225.5607 H   0  0  0  0  0  0  0  0  0  0  0  0
  139.6380   69.2242  227.5550 H   0  0  0  0  0  0  0  0  0  0  0  0
  140.7947   72.6245  225.1306 H   0  0  0  0  0  0  0  0  0  0  0  0
  1  2  1  0
  2  3  2  0
  3  4  1  0
  4  5  1  0
  5  6  1  0
  6  7  1  0
  7  8  2  0
  8  9  1  0
  9 10  2  0
 10 11  1  0
 10 12  1  0
 12 13  2  0
 13 14  1  0
  2 15  1  0
 15 16  1  0
 16 17  2  0
 17 18  1  0
 18 19  2  0
 19 20  1  0
 20 21  2  0
 21 22  1  0
 22 23  1  0
 23 24  1  0
 23 25  1  0
 23 26  1  0
 22 27  2  0
 13  7  1  0
 27 18  1  0
  1 28  1  0
  3 29  1  0
  4 30  1  0
  4 31  1  0
  5 32  1  0
  5 33  1  0
  8 34  1  0
  9 35  1  0
 12 36  1  0
 17 37  1  0
 19 38  1  0
 20 39  1  0
 21 40  1  0
 27 41  1  0
M  CHG  1  15  -1
M  END
>  <meeko>  (2) 
{"free_energy": -6.64, "intermolecular_energy": -9.93, "internal_energy": -1.27, "cluster_size": 9, "cluster_id": 2, "rank_in_cluster": 5}

$$$$

     RDKit          3D

 41 42  0  0  0  0  0  0  0  0999 V2000
  139.4990   75.5680  222.7140 O   0  0  0  0  0  0  0  0  0  0  0  0
  140.5100   75.0150  221.9330 C   0  0  0  0  0  0  0  0  0  0  0  0
  141.2730   75.8070  221.1640 C   0  0  0  0  0  0  0  0  0  0  0  0
  140.9130   76.1480  219.7430 C   0  0  0  0  0  0  0  0  0  0  0  0
  140.7680   74.8950  218.8810 C   0  0  0  0  0  0  0  0  0  0  0  0
  142.0580   74.4160  218.5130 O   0  0  0  0  0  0  0  0  0  0  0  0
  143.1240   74.0800  219.3700 C   0  0  0  0  0  0  0  0  0  0  0  0
  144.0490   75.1030  219.6260 C   0  0  0  0  0  0  0  0  0  0  0  0
  145.1400   74.8950  220.4710 C   0  0  0  0  0  0  0  0  0  0  0  0
  145.3280   73.6510  221.0720 C   0  0  0  0  0  0  0  0  0  0  0  0
  146.7000   73.3880  222.1340 Cl  0  0  0  0  0  0  0  0  0  0  0  0
  144.4250   72.6150  220.8250 C   0  0  0  0  0  0  0  0  0  0  0  0
  143.3250   72.8090  219.9790 C   0  0  0  0  0  0  0  0  0  0  0  0
  142.2940   71.4060  219.7220 Cl  0  0  0  0  0  0  0  0  0  0  0  0
  140.7160   73.5980  221.9750 N   0  0  0  0  0  0  0  0  0  0  0  0
  139.9200   72.7430  222.7500 N   0  0  0  0  0  0  0  0  0  0  0  0
  140.2820   71.5220  222.9750 C   0  0  0  0  0  0  0  0  0  0  0  0
  140.2140   70.9450  224.3340 C   0  0  0  0  0  0  0  0  0  0  0  0
  139.6870   69.6570  224.5080 C   0  0  0  0  0  0  0  0  0  0  0  0
  139.6000   69.0980  225.7840 C   0  0  0  0  0  0  0  0  0  0  0  0
  140.0430   69.8130  226.8980 C   0  0  0  0  0  0  0  0  0  0  0  0
  140.6000   71.0950  226.7440 C   0  0  0  0  0  0  0  0  0  0  0  0
  141.0360   71.8900  227.9490 C   0  0  0  0  0  0  0  0  0  0  0  0
  141.8440   71.1020  228.7460 F   0  0  0  0  0  0  0  0  0  0  0  0
  141.7430   73.0170  227.5650 F   0  0  0  0  0  0  0  0  0  0  0  0
  139.9380   72.3000  228.6850 F   0  0  0  0  0  0  0  0  0  0  0  0
  140.6610   71.6640  225.4590 C   0  0  0  0  0  0  0  0  0  0  0  0
  138.9580   74.9920  223.3470 H   0  0  0  0  0  0  0  0  0  0  0  0
  142.1981   76.2235  221.5890 H   0  0  0  0  0  0  0  0  0  0  0  0
  139.9593   76.6962  219.7385 H   0  0  0  0  0  0  0  0  0  0  0  0
  141.7225   76.7623  219.3219 H   0  0  0  0  0  0  0  0  0  0  0  0
  140.2379   74.1178  219.4511 H   0  0  0  0  0  0  0  0  0  0  0  0
  140.1969   75.1402  217.9734 H   0  0  0  0  0  0  0  0  0  0  0  0
  143.9120   76.0863  219.1525 H   0  0  0  0  0  0  0  0  0  0  0  0
  145.8512   75.7120  220.6628 H   0  0  0  0  0  0  0  0  0  0  0  0
  144.5790   71.6350  221.3002 H   0  0  0  0  0  0  0  0  0  0  0  0
  140.6463   70.9031  222.1418 H   0  0  0  0  0  0  0  0  0  0  0  0
  139.3406   69.0847  223.6348 H   0  0  0  0  0  0  0  0  0  0  0  0
  139.1804   68.0893  225.9123 H   0  0  0  0  0  0  0  0  0  0  0  0
  139.9559   69.3713  227.9016 H   0  0  0  0  0  0  0  0  0  0  0  0
  141.0618   72.6805  225.3318 H   0  0  0  0  0  0  0  0  0  0  0  0
  1  2  1  0
  2  3  2  0
  3  4  1  0
  4  5  1  0
  5  6  1  0
  6  7  1  0
  7  8  2  0
  8  9  1  0
  9 10  2  0
 10 11  1  0
 10 12  1  0
 12 13  2  0
 13 14  1  0
  2 15  1  0
 15 16  1  0
 16 17  2  0
 17 18  1  0
 18 19  2  0
 19 20  1  0
 20 21  2  0
 21 22  1  0
 22 23  1  0
 23 24  1  0
 23 25  1  0
 23 26  1  0
 22 27  2  0
 13  7  1  0
 27 18  1  0
  1 28  1  0
  3 29  1  0
  4 30  1  0
  4 31  1  0
  5 32  1  0
  5 33  1  0
  8 34  1  0
  9 35  1  0
 12 36  1  0
 17 37  1  0
 19 38  1  0
 20 39  1  0
 21 40  1  0
 27 41  1  0
M  CHG  1  15  -1
M  END
>  <meeko>  (3) 
{"free_energy": -6.35, "intermolecular_energy": -9.63, "internal_energy": -1.44, "cluster_size": 3, "cluster_id": 3, "rank_in_cluster": 1}

$$$$

     RDKit          3D

 41 42  0  0  0  0  0  0  0  0999 V2000
  141.0290   76.3390  222.4460 O   0  0  0  0  0  0  0  0  0  0  0  0
  140.1460   75.3660  221.9870 C   0  0  0  0  0  0  0  0  0  0  0  0
  138.9160   75.7140  221.5800 C   0  0  0  0  0  0  0  0  0  0  0  0
  138.0100   76.5970  222.3960 C   0  0  0  0  0  0  0  0  0  0  0  0
  137.4150   77.7260  221.5550 C   0  0  0  0  0  0  0  0  0  0  0  0
  138.4650   78.5080  220.9930 O   0  0  0  0  0  0  0  0  0  0  0  0
  139.5800   79.0510  221.6600 C   0  0  0  0  0  0  0  0  0  0  0  0
  139.3090   79.7050  222.8710 C   0  0  0  0  0  0  0  0  0  0  0  0
  140.3340   80.2720  223.6300 C   0  0  0  0  0  0  0  0  0  0  0  0
  141.6520   80.1990  223.1850 C   0  0  0  0  0  0  0  0  0  0  0  0
  142.9420   80.9120  224.1380 Cl  0  0  0  0  0  0  0  0  0  0  0  0
  141.9450   79.5610  221.9780 C   0  0  0  0  0  0  0  0  0  0  0  0
  140.9270   78.9870  221.2040 C   0  0  0  0  0  0  0  0  0  0  0  0
  141.4330   78.2560  219.6850 Cl  0  0  0  0  0  0  0  0  0  0  0  0
  140.5790   74.0010  221.9570 N   0  0  0  0  0  0  0  0  0  0  0  0
  139.9360   72.9900  222.6860 N   0  0  0  0  0  0  0  0  0  0  0  0
  140.5470   71.8850  222.9690 C   0  0  0  0  0  0  0  0  0  0  0  0
  140.2780   71.1690  224.2330 C   0  0  0  0  0  0  0  0  0  0  0  0
  139.5420   69.9750  224.2030 C   0  0  0  0  0  0  0  0  0  0  0  0
  139.2640   69.2890  225.3860 C   0  0  0  0  0  0  0  0  0  0  0  0
  139.7230   69.7800  226.6100 C   0  0  0  0  0  0  0  0  0  0  0  0
  140.4860   70.9600  226.6610 C   0  0  0  0  0  0  0  0  0  0  0  0
  140.9420   71.5200  227.9840 C   0  0  0  0  0  0  0  0  0  0  0  0
  139.8390   71.9230  228.7120 F   0  0  0  0  0  0  0  0  0  0  0  0
  141.6360   70.5660  228.7090 F   0  0  0  0  0  0  0  0  0  0  0  0
  141.7780   72.6060  227.7910 F   0  0  0  0  0  0  0  0  0  0  0  0
  140.7400   71.6610  225.4680 C   0  0  0  0  0  0  0  0  0  0  0  0
  142.0110   76.3050  222.2040 H   0  0  0  0  0  0  0  0  0  0  0  0
  138.5549   75.3390  220.6110 H   0  0  0  0  0  0  0  0  0  0  0  0
  137.1909   75.9870  222.8047 H   0  0  0  0  0  0  0  0  0  0  0  0
  138.6059   77.0477  223.2033 H   0  0  0  0  0  0  0  0  0  0  0  0
  136.8046   77.2975  220.7464 H   0  0  0  0  0  0  0  0  0  0  0  0
  136.7857   78.3640  222.1929 H   0  0  0  0  0  0  0  0  0  0  0  0
  138.2709   79.7722  223.2286 H   0  0  0  0  0  0  0  0  0  0  0  0
  140.1011   80.7764  224.5794 H   0  0  0  0  0  0  0  0  0  0  0  0
  142.9873   79.5082  221.6303 H   0  0  0  0  0  0  0  0  0  0  0  0
  141.2777   71.4725  222.2577 H   0  0  0  0  0  0  0  0  0  0  0  0
  139.1824   69.5777  223.2424 H   0  0  0  0  0  0  0  0  0  0  0  0
  138.6805   68.3570  225.3542 H   0  0  0  0  0  0  0  0  0  0  0  0
  139.4865   69.2408  227.5392 H   0  0  0  0  0  0  0  0  0  0  0  0
  141.3058   72.6038  225.5008 H   0  0  0  0  0  0  0  0  0  0  0  0
  1  2  1  0
  2  3  2  0
  3  4  1  0
  4  5  1  0
  5  6  1  0
  6  7  1  0
  7  8  2  0
  8  9  1  0
  9 10  2  0
 10 11  1  0
 10 12  1  0
 12 13  2  0
 13 14  1  0
  2 15  1  0
 15 16  1  0
 16 17  2  0
 17 18  1  0
 18 19  2  0
 19 20  1  0
 20 21  2  0
 21 22  1  0
 22 23  1  0
 23 24  1  0
 23 25  1  0
 23 26  1  0
 22 27  2  0
 13  7  1  0
 27 18  1  0
  1 28  1  0
  3 29  1  0
  4 30  1  0
  4 31  1  0
  5 32  1  0
  5 33  1  0
  8 34  1  0
  9 35  1  0
 12 36  1  0
 17 37  1  0
 19 38  1  0
 20 39  1  0
 21 40  1  0
 27 41  1  0
M  CHG  1  15  -1
M  END
>  <meeko>  (4) 
{"free_energy": -6.69, "intermolecular_energy": -9.98, "internal_energy": -0.97, "cluster_size": 9, "cluster_id": 2, "rank_in_cluster": 4}

$$$$

     RDKit          3D

 41 42  0  0  0  0  0  0  0  0999 V2000
  139.9470   74.1280  222.3240 O   0  0  0  0  0  0  0  0  0  0  0  0
  140.8000   73.1330  221.8560 C   0  0  0  0  0  0  0  0  0  0  0  0
  141.7870   73.4410  221.0010 C   0  0  0  0  0  0  0  0  0  0  0  0
  142.2400   74.8560  220.7610 C   0  0  0  0  0  0  0  0  0  0  0  0
  141.2730   75.6130  219.8520 C   0  0  0  0  0  0  0  0  0  0  0  0
  140.5630   76.5850  220.6140 O   0  0  0  0  0  0  0  0  0  0  0  0
  141.0990   77.6760  221.3230 C   0  0  0  0  0  0  0  0  0  0  0  0
  141.0360   77.5870  222.7210 C   0  0  0  0  0  0  0  0  0  0  0  0
  141.5480   78.6010  223.5330 C   0  0  0  0  0  0  0  0  0  0  0  0
  142.1280   79.7290  222.9560 C   0  0  0  0  0  0  0  0  0  0  0  0
  142.7710   81.0050  223.9750 Cl  0  0  0  0  0  0  0  0  0  0  0  0
  142.1930   79.8440  221.5660 C   0  0  0  0  0  0  0  0  0  0  0  0
  141.6830   78.8350  220.7370 C   0  0  0  0  0  0  0  0  0  0  0  0
  141.7920   79.1310  219.0060 Cl  0  0  0  0  0  0  0  0  0  0  0  0
  140.6040   71.7880  222.3090 N   0  0  0  0  0  0  0  0  0  0  0  0
  139.5850   71.4360  223.2060 N   0  0  0  0  0  0  0  0  0  0  0  0
  139.5230   70.2440  223.7050 C   0  0  0  0  0  0  0  0  0  0  0  0
  139.9290   69.9810  225.1020 C   0  0  0  0  0  0  0  0  0  0  0  0
  139.9340   68.6620  225.5780 C   0  0  0  0  0  0  0  0  0  0  0  0
  140.3000   68.3900  226.8970 C   0  0  0  0  0  0  0  0  0  0  0  0
  140.6720   69.4290  227.7530 C   0  0  0  0  0  0  0  0  0  0  0  0
  140.7010   70.7560  227.2890 C   0  0  0  0  0  0  0  0  0  0  0  0
  141.0550   71.8860  228.2220 C   0  0  0  0  0  0  0  0  0  0  0  0
  139.9340   72.2470  228.9460 F   0  0  0  0  0  0  0  0  0  0  0  0
  142.0540   71.5040  229.1010 F   0  0  0  0  0  0  0  0  0  0  0  0
  141.5050   72.9840  227.5090 F   0  0  0  0  0  0  0  0  0  0  0  0
  140.3050   71.0260  225.9660 C   0  0  0  0  0  0  0  0  0  0  0  0
  139.1750   73.9040  222.9390 H   0  0  0  0  0  0  0  0  0  0  0  0
  142.2849   72.6270  220.4537 H   0  0  0  0  0  0  0  0  0  0  0  0
  142.3041   75.3784  221.7269 H   0  0  0  0  0  0  0  0  0  0  0  0
  143.2212   74.8222  220.2650 H   0  0  0  0  0  0  0  0  0  0  0  0
  141.8385   76.1155  219.0534 H   0  0  0  0  0  0  0  0  0  0  0  0
  140.5588   74.9043  219.4073 H   0  0  0  0  0  0  0  0  0  0  0  0
  140.5752   76.7030  223.1860 H   0  0  0  0  0  0  0  0  0  0  0  0
  141.4935   78.5094  224.6278 H   0  0  0  0  0  0  0  0  0  0  0  0
  142.6501   80.7375  221.1157 H   0  0  0  0  0  0  0  0  0  0  0  0
  139.1626   69.4134  223.0803 H   0  0  0  0  0  0  0  0  0  0  0  0
  139.6480   67.8375  224.9084 H   0  0  0  0  0  0  0  0  0  0  0  0
  140.2955   67.3530  227.2640 H   0  0  0  0  0  0  0  0  0  0  0  0
  140.9437   69.2080  228.7958 H   0  0  0  0  0  0  0  0  0  0  0  0
  140.2892   72.0645  225.6036 H   0  0  0  0  0  0  0  0  0  0  0  0
  1  2  1  0
  2  3  2  0
  3  4  1  0
  4  5  1  0
  5  6  1  0
  6  7  1  0
  7  8  2  0
  8  9  1  0
  9 10  2  0
 10 11  1  0
 10 12  1  0
 12 13  2  0
 13 14  1  0
  2 15  1  0
 15 16  1  0
 16 17  2  0
 17 18  1  0
 18 19  2  0
 19 20  1  0
 20 21  2  0
 21 22  1  0
 22 23  1  0
 23 24  1  0
 23 25  1  0
 23 26  1  0
 22 27  2  0
 13  7  1  0
 27 18  1  0
  1 28  1  0
  3 29  1  0
  4 30  1  0
  4 31  1  0
  5 32  1  0
  5 33  1  0
  8 34  1  0
  9 35  1  0
 12 36  1  0
 17 37  1  0
 19 38  1  0
 20 39  1  0
 21 40  1  0
 27 41  1  0
M  CHG  1  15  -1
M  END
>  <meeko>  (5) 
{"free_energy": -7.28, "intermolecular_energy": -10.56, "internal_energy": -0.93, "cluster_size": 6, "cluster_id": 1, "rank_in_cluster": 2}

$$$$

     RDKit          3D

 41 42  0  0  0  0  0  0  0  0999 V2000
  140.9790   76.0360  222.5480 O   0  0  0  0  0  0  0  0  0  0  0  0
  140.7240   75.0220  221.6280 C   0  0  0  0  0  0  0  0  0  0  0  0
  141.1290   75.1520  220.3560 C   0  0  0  0  0  0  0  0  0  0  0  0
  142.2390   76.0830  219.9490 C   0  0  0  0  0  0  0  0  0  0  0  0
  141.7580   77.5320  219.8640 C   0  0  0  0  0  0  0  0  0  0  0  0
  142.0570   78.2060  221.0830 O   0  0  0  0  0  0  0  0  0  0  0  0
  141.1620   78.8940  221.9230 C   0  0  0  0  0  0  0  0  0  0  0  0
  139.8070   78.5660  221.7730 C   0  0  0  0  0  0  0  0  0  0  0  0
  138.8260   79.1710  222.5590 C   0  0  0  0  0  0  0  0  0  0  0  0
  139.1850   80.1250  223.5100 C   0  0  0  0  0  0  0  0  0  0  0  0
  137.9520   80.8890  224.4980 Cl  0  0  0  0  0  0  0  0  0  0  0  0
  140.5270   80.4750  223.6710 C   0  0  0  0  0  0  0  0  0  0  0  0
  141.5240   79.8760  222.8890 C   0  0  0  0  0  0  0  0  0  0  0  0
  143.1670   80.4430  223.1670 Cl  0  0  0  0  0  0  0  0  0  0  0  0
  140.0320   73.8480  222.0710 N   0  0  0  0  0  0  0  0  0  0  0  0
  140.6820   72.7920  222.7250 N   0  0  0  0  0  0  0  0  0  0  0  0
  140.1060   71.6420  222.8620 C   0  0  0  0  0  0  0  0  0  0  0  0
  140.0040   70.9940  224.1860 C   0  0  0  0  0  0  0  0  0  0  0  0
  139.3780   69.7430  224.2930 C   0  0  0  0  0  0  0  0  0  0  0  0
  139.2580   69.1180  225.5350 C   0  0  0  0  0  0  0  0  0  0  0  0
  139.7670   69.7300  226.6830 C   0  0  0  0  0  0  0  0  0  0  0  0
  140.4230   70.9700  226.5950 C   0  0  0  0  0  0  0  0  0  0  0  0
  140.9320   71.6560  227.8390 C   0  0  0  0  0  0  0  0  0  0  0  0
  141.5790   70.7310  228.6350 F   0  0  0  0  0  0  0  0  0  0  0  0
  141.8170   72.6690  227.5130 F   0  0  0  0  0  0  0  0  0  0  0  0
  139.8840   72.2120  228.5510 F   0  0  0  0  0  0  0  0  0  0  0  0
  140.5170   71.6070  225.3450 C   0  0  0  0  0  0  0  0  0  0  0  0
  141.8200   76.5950  222.4850 H   0  0  0  0  0  0  0  0  0  0  0  0
  140.6298   74.5542  219.5792 H   0  0  0  0  0  0  0  0  0  0  0  0
  143.0484   76.0189  220.6911 H   0  0  0  0  0  0  0  0  0  0  0  0
  142.5933   75.7799  218.9527 H   0  0  0  0  0  0  0  0  0  0  0  0
  142.2671   78.0387  219.0309 H   0  0  0  0  0  0  0  0  0  0  0  0
  140.6712   77.5473  219.6946 H   0  0  0  0  0  0  0  0  0  0  0  0
  139.5122   77.8182  221.0220 H   0  0  0  0  0  0  0  0  0  0  0  0
  137.7692   78.8952  222.4284 H   0  0  0  0  0  0  0  0  0  0  0  0
  140.8052   81.2302  224.4209 H   0  0  0  0  0  0  0  0  0  0  0  0
  139.6855   71.1385  221.9790 H   0  0  0  0  0  0  0  0  0  0  0  0
  138.9796   69.2520  223.3929 H   0  0  0  0  0  0  0  0  0  0  0  0
  138.7607   68.1397  225.6103 H   0  0  0  0  0  0  0  0  0  0  0  0
  139.6538   69.2390  227.6608 H   0  0  0  0  0  0  0  0  0  0  0  0
  140.9963   72.5944  225.2719 H   0  0  0  0  0  0  0  0  0  0  0  0
  1  2  1  0
  2  3  2  0
  3  4  1  0
  4  5  1  0
  5  6  1  0
  6  7  1  0
  7  8  2  0
  8  9  1  0
  9 10  2  0
 10 11  1  0
 10 12  1  0
 12 13  2  0
 13 14  1  0
  2 15  1  0
 15 16  1  0
 16 17  2  0
 17 18  1  0
 18 19  2  0
 19 20  1  0
 20 21  2  0
 21 22  1  0
 22 23  1  0
 23 24  1  0
 23 25  1  0
 23 26  1  0
 22 27  2  0
 13  7  1  0
 27 18  1  0
  1 28  1  0
  3 29  1  0
  4 30  1  0
  4 31  1  0
  5 32  1  0
  5 33  1  0
  8 34  1  0
  9 35  1  0
 12 36  1  0
 17 37  1  0
 19 38  1  0
 20 39  1  0
 21 40  1  0
 27 41  1  0
M  CHG  1  15  -1
M  END
>  <meeko>  (6) 
{"free_energy": -6.91, "intermolecular_energy": -10.19, "internal_energy": -1.33, "cluster_size": 9, "cluster_id": 2, "rank_in_cluster": 2}

$$$$

     RDKit          3D

 41 42  0  0  0  0  0  0  0  0999 V2000
  139.1700   75.5370  222.4180 O   0  0  0  0  0  0  0  0  0  0  0  0
  140.1790   75.0250  221.6070 C   0  0  0  0  0  0  0  0  0  0  0  0
  140.6200   75.7330  220.5560 C   0  0  0  0  0  0  0  0  0  0  0  0
  141.8100   76.6500  220.6380 C   0  0  0  0  0  0  0  0  0  0  0  0
  142.7760   76.4260  219.4750 C   0  0  0  0  0  0  0  0  0  0  0  0
  143.7870   75.5010  219.8660 O   0  0  0  0  0  0  0  0  0  0  0  0
  143.7250   74.0950  219.8200 C   0  0  0  0  0  0  0  0  0  0  0  0
  142.5880   73.5520  219.2050 C   0  0  0  0  0  0  0  0  0  0  0  0
  142.4210   72.1720  219.0870 C   0  0  0  0  0  0  0  0  0  0  0  0
  143.3910   71.3070  219.5900 C   0  0  0  0  0  0  0  0  0  0  0  0
  143.1810   69.5710  219.4430 Cl  0  0  0  0  0  0  0  0  0  0  0  0
  144.5270   71.8240  220.2150 C   0  0  0  0  0  0  0  0  0  0  0  0
  144.7100   73.2090  220.3420 C   0  0  0  0  0  0  0  0  0  0  0  0
  146.1650   73.7200  221.1890 Cl  0  0  0  0  0  0  0  0  0  0  0  0
  140.7310   73.7400  221.9210 N   0  0  0  0  0  0  0  0  0  0  0  0
  140.3250   73.0000  223.0410 N   0  0  0  0  0  0  0  0  0  0  0  0
  140.3160   71.7060  223.0120 C   0  0  0  0  0  0  0  0  0  0  0  0
  140.1840   70.9180  224.2550 C   0  0  0  0  0  0  0  0  0  0  0  0
  139.6150   69.6370  224.1990 C   0  0  0  0  0  0  0  0  0  0  0  0
  139.4670   68.8800  225.3620 C   0  0  0  0  0  0  0  0  0  0  0  0
  139.8900   69.3880  226.5920 C   0  0  0  0  0  0  0  0  0  0  0  0
  140.4880   70.6590  226.6680 C   0  0  0  0  0  0  0  0  0  0  0  0
  140.9030   71.2310  228.0000 C   0  0  0  0  0  0  0  0  0  0  0  0
  141.5790   70.2650  228.7200 F   0  0  0  0  0  0  0  0  0  0  0  0
  141.7320   72.3260  227.8270 F   0  0  0  0  0  0  0  0  0  0  0  0
  139.7950   71.6390  228.7210 F   0  0  0  0  0  0  0  0  0  0  0  0
  140.6100   71.4280  225.4960 C   0  0  0  0  0  0  0  0  0  0  0  0
  138.7900   74.9910  223.1810 H   0  0  0  0  0  0  0  0  0  0  0  0
  140.0905   75.6393  219.5964 H   0  0  0  0  0  0  0  0  0  0  0  0
  141.4594   77.6924  220.6147 H   0  0  0  0  0  0  0  0  0  0  0  0
  142.3449   76.4355  221.5749 H   0  0  0  0  0  0  0  0  0  0  0  0
  142.2242   76.0228  218.6130 H   0  0  0  0  0  0  0  0  0  0  0  0
  143.2429   77.3827  219.1979 H   0  0  0  0  0  0  0  0  0  0  0  0
  141.8142   74.2259  218.8086 H   0  0  0  0  0  0  0  0  0  0  0  0
  141.5236   71.7666  218.5969 H   0  0  0  0  0  0  0  0  0  0  0  0
  145.2882   71.1368  220.6129 H   0  0  0  0  0  0  0  0  0  0  0  0
  140.4080   71.1851  222.0475 H   0  0  0  0  0  0  0  0  0  0  0  0
  139.2838   69.2271  223.2335 H   0  0  0  0  0  0  0  0  0  0  0  0
  139.0150   67.8785  225.3095 H   0  0  0  0  0  0  0  0  0  0  0  0
  139.7549   68.7913  227.5061 H   0  0  0  0  0  0  0  0  0  0  0  0
  141.0426   72.4379  225.5500 H   0  0  0  0  0  0  0  0  0  0  0  0
  1  2  1  0
  2  3  2  0
  3  4  1  0
  4  5  1  0
  5  6  1  0
  6  7  1  0
  7  8  2  0
  8  9  1  0
  9 10  2  0
 10 11  1  0
 10 12  1  0
 12 13  2  0
 13 14  1  0
  2 15  1  0
 15 16  1  0
 16 17  2  0
 17 18  1  0
 18 19  2  0
 19 20  1  0
 20 21  2  0
 21 22  1  0
 22 23  1  0
 23 24  1  0
 23 25  1  0
 23 26  1  0
 22 27  2  0
 13  7  1  0
 27 18  1  0
  1 28  1  0
  3 29  1  0
  4 30  1  0
  4 31  1  0
  5 32  1  0
  5 33  1  0
  8 34  1  0
  9 35  1  0
 12 36  1  0
 17 37  1  0
 19 38  1  0
 20 39  1  0
 21 40  1  0
 27 41  1  0
M  CHG  1  15  -1
M  END
>  <meeko>  (7) 
{"free_energy": -6.15, "intermolecular_energy": -9.43, "internal_energy": -1.34, "cluster_size": 3, "cluster_id": 3, "rank_in_cluster": 2}

$$$$

     RDKit          3D

 41 42  0  0  0  0  0  0  0  0999 V2000
  140.0570   72.6320  223.3520 O   0  0  0  0  0  0  0  0  0  0  0  0
  140.2040   71.6690  222.3580 C   0  0  0  0  0  0  0  0  0  0  0  0
  140.9900   71.9120  221.2990 C   0  0  0  0  0  0  0  0  0  0  0  0
  140.7760   73.0860  220.3820 C   0  0  0  0  0  0  0  0  0  0  0  0
  141.2520   74.3920  221.0180 C   0  0  0  0  0  0  0  0  0  0  0  0
  140.2930   74.8340  221.9750 O   0  0  0  0  0  0  0  0  0  0  0  0
  139.9850   76.1610  222.3290 C   0  0  0  0  0  0  0  0  0  0  0  0
  141.0810   77.0170  222.5100 C   0  0  0  0  0  0  0  0  0  0  0  0
  140.9010   78.3590  222.8480 C   0  0  0  0  0  0  0  0  0  0  0  0
  139.6150   78.8680  223.0180 C   0  0  0  0  0  0  0  0  0  0  0  0
  139.3870   80.5550  223.4440 Cl  0  0  0  0  0  0  0  0  0  0  0  0
  138.5080   78.0330  222.8520 C   0  0  0  0  0  0  0  0  0  0  0  0
  138.6730   76.6820  222.5130 C   0  0  0  0  0  0  0  0  0  0  0  0
  137.1950   75.7360  222.3790 Cl  0  0  0  0  0  0  0  0  0  0  0  0
  139.5070   70.4250  222.4960 N   0  0  0  0  0  0  0  0  0  0  0  0
  138.8060   70.0790  223.6600 N   0  0  0  0  0  0  0  0  0  0  0  0
  139.1160   69.0170  224.3310 C   0  0  0  0  0  0  0  0  0  0  0  0
  139.7960   69.1130  225.6390 C   0  0  0  0  0  0  0  0  0  0  0  0
  140.1370   67.9370  226.3240 C   0  0  0  0  0  0  0  0  0  0  0  0
  140.7680   68.0040  227.5670 C   0  0  0  0  0  0  0  0  0  0  0  0
  141.0710   69.2420  228.1370 C   0  0  0  0  0  0  0  0  0  0  0  0
  140.7640   70.4320  227.4560 C   0  0  0  0  0  0  0  0  0  0  0  0
  141.0460   71.7720  228.0890 C   0  0  0  0  0  0  0  0  0  0  0  0
  139.8990   72.2340  228.7060 F   0  0  0  0  0  0  0  0  0  0  0  0
  142.0540   71.6670  229.0330 F   0  0  0  0  0  0  0  0  0  0  0  0
  141.4450   72.6880  227.1320 F   0  0  0  0  0  0  0  0  0  0  0  0
  140.1040   70.3590  226.2160 C   0  0  0  0  0  0  0  0  0  0  0  0
  139.5470   73.4880  223.1750 H   0  0  0  0  0  0  0  0  0  0  0  0
  141.8245   71.2258  221.0923 H   0  0  0  0  0  0  0  0  0  0  0  0
  141.3362   72.9179  219.4504 H   0  0  0  0  0  0  0  0  0  0  0  0
  139.6979   73.1740  220.1822 H   0  0  0  0  0  0  0  0  0  0  0  0
  142.2179   74.2255  221.5174 H   0  0  0  0  0  0  0  0  0  0  0  0
  141.3690   75.1577  220.2370 H   0  0  0  0  0  0  0  0  0  0  0  0
  142.1005   76.6237  222.3833 H   0  0  0  0  0  0  0  0  0  0  0  0
  141.7741   79.0149  222.9802 H   0  0  0  0  0  0  0  0  0  0  0  0
  137.4950   78.4395  222.9887 H   0  0  0  0  0  0  0  0  0  0  0  0
  138.8692   68.0266  223.9209 H   0  0  0  0  0  0  0  0  0  0  0  0
  139.9059   66.9578  225.8793 H   0  0  0  0  0  0  0  0  0  0  0  0
  141.0278   67.0774  228.0999 H   0  0  0  0  0  0  0  0  0  0  0  0
  141.5528   69.2860  229.1249 H   0  0  0  0  0  0  0  0  0  0  0  0
  139.8258   71.2853  225.6920 H   0  0  0  0  0  0  0  0  0  0  0  0
  1  2  1  0
  2  3  2  0
  3  4  1  0
  4  5  1  0
  5  6  1  0
  6  7  1  0
  7  8  2  0
  8  9  1  0
  9 10  2  0
 10 11  1  0
 10 12  1  0
 12 13  2  0
 13 14  1  0
  2 15  1  0
 15 16  1  0
 16 17  2  0
 17 18  1  0
 18 19  2  0
 19 20  1  0
 20 21  2  0
 21 22  1  0
 22 23  1  0
 23 24  1  0
 23 25  1  0
 23 26  1  0
 22 27  2  0
 13  7  1  0
 27 18  1  0
  1 28  1  0
  3 29  1  0
  4 30  1  0
  4 31  1  0
  5 32  1  0
  5 33  1  0
  8 34  1  0
  9 35  1  0
 12 36  1  0
 17 37  1  0
 19 38  1  0
 20 39  1  0
 21 40  1  0
 27 41  1  0
M  CHG  1  15  -1
M  END
>  <meeko>  (8) 
{"free_energy": -6.61, "intermolecular_energy": -9.89, "internal_energy": -1.31, "cluster_size": 9, "cluster_id": 2, "rank_in_cluster": 6}

$$$$

     RDKit          3D

 41 42  0  0  0  0  0  0  0  0999 V2000
  140.5750   75.2720  221.7660 O   0  0  0  0  0  0  0  0  0  0  0  0
  139.4260   74.5260  221.5150 C   0  0  0  0  0  0  0  0  0  0  0  0
  138.3910   75.0830  220.8680 C   0  0  0  0  0  0  0  0  0  0  0  0
  137.4570   76.0630  221.5230 C   0  0  0  0  0  0  0  0  0  0  0  0
  138.0040   76.5550  222.8630 C   0  0  0  0  0  0  0  0  0  0  0  0
  138.1440   77.9720  222.8300 O   0  0  0  0  0  0  0  0  0  0  0  0
  139.3020   78.7250  223.1030 C   0  0  0  0  0  0  0  0  0  0  0  0
  140.5230   78.0830  222.8490 C   0  0  0  0  0  0  0  0  0  0  0  0
  141.7390   78.7320  223.0670 C   0  0  0  0  0  0  0  0  0  0  0  0
  141.7540   80.0380  223.5530 C   0  0  0  0  0  0  0  0  0  0  0  0
  143.2830   80.8550  223.8300 Cl  0  0  0  0  0  0  0  0  0  0  0  0
  140.5520   80.6940  223.8230 C   0  0  0  0  0  0  0  0  0  0  0  0
  139.3220   80.0560  223.6090 C   0  0  0  0  0  0  0  0  0  0  0  0
  137.8880   80.9840  224.0330 Cl  0  0  0  0  0  0  0  0  0  0  0  0
  139.3800   73.1640  221.9560 N   0  0  0  0  0  0  0  0  0  0  0  0
  140.3500   72.6140  222.8050 N   0  0  0  0  0  0  0  0  0  0  0  0
  140.3870   71.3410  223.0340 C   0  0  0  0  0  0  0  0  0  0  0  0
  140.2470   70.8090  224.4060 C   0  0  0  0  0  0  0  0  0  0  0  0
  139.6350   69.5620  224.6010 C   0  0  0  0  0  0  0  0  0  0  0  0
  139.4800   69.0470  225.8880 C   0  0  0  0  0  0  0  0  0  0  0  0
  139.9390   69.7650  226.9950 C   0  0  0  0  0  0  0  0  0  0  0  0
  140.5800   71.0040  226.8210 C   0  0  0  0  0  0  0  0  0  0  0  0
  141.0350   71.8050  228.0150 C   0  0  0  0  0  0  0  0  0  0  0  0
  141.8280   71.0100  228.8200 F   0  0  0  0  0  0  0  0  0  0  0  0
  141.7640   72.9120  227.6160 F   0  0  0  0  0  0  0  0  0  0  0  0
  139.9470   72.2460  228.7480 F   0  0  0  0  0  0  0  0  0  0  0  0
  140.7100   71.5300  225.5230 C   0  0  0  0  0  0  0  0  0  0  0  0
  141.3820   74.8500  222.2050 H   0  0  0  0  0  0  0  0  0  0  0  0
  138.2186   74.8119  219.8159 H   0  0  0  0  0  0  0  0  0  0  0  0
  137.3201   76.9262  220.8551 H   0  0  0  0  0  0  0  0  0  0  0  0
  136.5001   75.5534  221.7091 H   0  0  0  0  0  0  0  0  0  0  0  0
  137.3085   76.2744  223.6677 H   0  0  0  0  0  0  0  0  0  0  0  0
  138.9858   76.0949  223.0482 H   0  0  0  0  0  0  0  0  0  0  0  0
  140.5220   77.0499  222.4714 H   0  0  0  0  0  0  0  0  0  0  0  0
  142.6854   78.2129  222.8553 H   0  0  0  0  0  0  0  0  0  0  0  0
  140.5699   81.7241  224.2084 H   0  0  0  0  0  0  0  0  0  0  0  0
  140.5248   70.6437  222.1945 H   0  0  0  0  0  0  0  0  0  0  0  0
  139.2755   68.9874  223.7346 H   0  0  0  0  0  0  0  0  0  0  0  0
  138.9940   68.0708  226.0320 H   0  0  0  0  0  0  0  0  0  0  0  0
  139.7982   69.3590  228.0076 H   0  0  0  0  0  0  0  0  0  0  0  0
  141.1783   72.5149  225.3792 H   0  0  0  0  0  0  0  0  0  0  0  0
  1  2  1  0
  2  3  2  0
  3  4  1  0
  4  5  1  0
  5  6  1  0
  6  7  1  0
  7  8  2  0
  8  9  1  0
  9 10  2  0
 10 11  1  0
 10 12  1  0
 12 13  2  0
 13 14  1  0
  2 15  1  0
 15 16  1  0
 16 17  2  0
 17 18  1  0
 18 19  2  0
 19 20  1  0
 20 21  2  0
 21 22  1  0
 22 23  1  0
 23 24  1  0
 23 25  1  0
 23 26  1  0
 22 27  2  0
 13  7  1  0
 27 18  1  0
  1 28  1  0
  3 29  1  0
  4 30  1  0
  4 31  1  0
  5 32  1  0
  5 33  1  0
  8 34  1  0
  9 35  1  0
 12 36  1  0
 17 37  1  0
 19 38  1  0
 20 39  1  0
 21 40  1  0
 27 41  1  0
M  CHG  1  15  -1
M  END
>  <meeko>  (9) 
{"free_energy": -6.12, "intermolecular_energy": -9.4, "internal_energy": -1.01, "cluster_size": 9, "cluster_id": 2, "rank_in_cluster": 9}

$$$$

     RDKit          3D

 41 42  0  0  0  0  0  0  0  0999 V2000
  138.8590   74.7180  222.3260 O   0  0  0  0  0  0  0  0  0  0  0  0
  139.9470   74.2030  221.6270 C   0  0  0  0  0  0  0  0  0  0  0  0
  140.0830   74.4530  220.3160 C   0  0  0  0  0  0  0  0  0  0  0  0
  141.4230   74.6700  219.6660 C   0  0  0  0  0  0  0  0  0  0  0  0
  142.1530   75.8710  220.2660 C   0  0  0  0  0  0  0  0  0  0  0  0
  141.2030   76.8460  220.6890 O   0  0  0  0  0  0  0  0  0  0  0  0
  141.4470   78.0110  221.4390 C   0  0  0  0  0  0  0  0  0  0  0  0
  141.3680   77.8700  222.8320 C   0  0  0  0  0  0  0  0  0  0  0  0
  141.6040   78.9510  223.6820 C   0  0  0  0  0  0  0  0  0  0  0  0
  141.9180   80.2000  223.1490 C   0  0  0  0  0  0  0  0  0  0  0  0
  142.2140   81.5610  224.2170 Cl  0  0  0  0  0  0  0  0  0  0  0  0
  141.9940   80.3670  221.7660 C   0  0  0  0  0  0  0  0  0  0  0  0
  141.7590   79.2910  220.8990 C   0  0  0  0  0  0  0  0  0  0  0  0
  141.8450   79.6540  219.1790 Cl  0  0  0  0  0  0  0  0  0  0  0  0
  140.9080   73.4110  222.3360 N   0  0  0  0  0  0  0  0  0  0  0  0
  140.7720   72.0250  222.4960 N   0  0  0  0  0  0  0  0  0  0  0  0
  139.7330   71.5240  223.0820 C   0  0  0  0  0  0  0  0  0  0  0  0
  139.8490   70.8530  224.3940 C   0  0  0  0  0  0  0  0  0  0  0  0
  139.4060   69.5290  224.5300 C   0  0  0  0  0  0  0  0  0  0  0  0
  139.4930   68.8800  225.7630 C   0  0  0  0  0  0  0  0  0  0  0  0
  140.0270   69.5410  226.8700 C   0  0  0  0  0  0  0  0  0  0  0  0
  140.5020   70.8580  226.7500 C   0  0  0  0  0  0  0  0  0  0  0  0
  141.0360   71.5920  227.9550 C   0  0  0  0  0  0  0  0  0  0  0  0
  139.9770   72.0610  228.7080 F   0  0  0  0  0  0  0  0  0  0  0  0
  141.8090   70.7530  228.7390 F   0  0  0  0  0  0  0  0  0  0  0  0
  141.8210   72.6630  227.5650 F   0  0  0  0  0  0  0  0  0  0  0  0
  140.3880   71.5160  225.5120 C   0  0  0  0  0  0  0  0  0  0  0  0
  138.4320   74.1970  223.0810 H   0  0  0  0  0  0  0  0  0  0  0  0
  139.1790   74.5013  219.6911 H   0  0  0  0  0  0  0  0  0  0  0  0
  142.0390   73.7700  219.8095 H   0  0  0  0  0  0  0  0  0  0  0  0
  141.2580   74.8676  218.5965 H   0  0  0  0  0  0  0  0  0  0  0  0
  142.7497   75.5425  221.1298 H   0  0  0  0  0  0  0  0  0  0  0  0
  142.8156   76.3121  219.5068 H   0  0  0  0  0  0  0  0  0  0  0  0
  141.1154   76.8896  223.2622 H   0  0  0  0  0  0  0  0  0  0  0  0
  141.5423   78.8176  224.7721 H   0  0  0  0  0  0  0  0  0  0  0  0
  142.2414   81.3552  221.3509 H   0  0  0  0  0  0  0  0  0  0  0  0
  138.7487   71.5985  222.5967 H   0  0  0  0  0  0  0  0  0  0  0  0
  138.9881   68.9996  223.6610 H   0  0  0  0  0  0  0  0  0  0  0  0
  139.1391   67.8432  225.8624 H   0  0  0  0  0  0  0  0  0  0  0  0
  140.0763   69.0282  227.8419 H   0  0  0  0  0  0  0  0  0  0  0  0
  140.7236   72.5592  225.4169 H   0  0  0  0  0  0  0  0  0  0  0  0
  1  2  1  0
  2  3  2  0
  3  4  1  0
  4  5  1  0
  5  6  1  0
  6  7  1  0
  7  8  2  0
  8  9  1  0
  9 10  2  0
 10 11  1  0
 10 12  1  0
 12 13  2  0
 13 14  1  0
  2 15  1  0
 15 16  1  0
 16 17  2  0
 17 18  1  0
 18 19  2  0
 19 20  1  0
 20 21  2  0
 21 22  1  0
 22 23  1  0
 23 24  1  0
 23 25  1  0
 23 26  1  0
 22 27  2  0
 13  7  1  0
 27 18  1  0
  1 28  1  0
  3 29  1  0
  4 30  1  0
  4 31  1  0
  5 32  1  0
  5 33  1  0
  8 34  1  0
  9 35  1  0
 12 36  1  0
 17 37  1  0
 19 38  1  0
 20 39  1  0
 21 40  1  0
 27 41  1  0
M  CHG  1  15  -1
M  END
>  <meeko>  (10) 
{"free_energy": -6.82, "intermolecular_energy": -10.1, "internal_energy": -0.66, "cluster_size": 6, "cluster_id": 1, "rank_in_cluster": 4}

$$$$

     RDKit          3D

 41 42  0  0  0  0  0  0  0  0999 V2000
  138.6570   72.6520  222.6520 O   0  0  0  0  0  0  0  0  0  0  0  0
  139.9540   72.5620  222.1530 C   0  0  0  0  0  0  0  0  0  0  0  0
  140.4720   71.3640  221.8420 C   0  0  0  0  0  0  0  0  0  0  0  0
  141.2060   71.1080  220.5540 C   0  0  0  0  0  0  0  0  0  0  0  0
  142.6790   71.5050  220.6550 C   0  0  0  0  0  0  0  0  0  0  0  0
  143.0390   72.2930  219.5240 O   0  0  0  0  0  0  0  0  0  0  0  0
  142.9730   73.6940  219.4000 C   0  0  0  0  0  0  0  0  0  0  0  0
  141.8700   74.1930  218.6920 C   0  0  0  0  0  0  0  0  0  0  0  0
  141.6870   75.5650  218.5140 C   0  0  0  0  0  0  0  0  0  0  0  0
  142.6140   76.4650  219.0380 C   0  0  0  0  0  0  0  0  0  0  0  0
  142.3860   78.1900  218.8140 Cl  0  0  0  0  0  0  0  0  0  0  0  0
  143.7250   75.9910  219.7380 C   0  0  0  0  0  0  0  0  0  0  0  0
  143.9220   74.6160  219.9250 C   0  0  0  0  0  0  0  0  0  0  0  0
  145.3860   74.1570  220.7880 Cl  0  0  0  0  0  0  0  0  0  0  0  0
  140.7100   73.7660  221.9780 N   0  0  0  0  0  0  0  0  0  0  0  0
  140.1540   75.0390  222.1680 N   0  0  0  0  0  0  0  0  0  0  0  0
  140.7340   76.0940  221.6950 C   0  0  0  0  0  0  0  0  0  0  0  0
  140.4960   77.4260  222.2900 C   0  0  0  0  0  0  0  0  0  0  0  0
  139.2070   77.7600  222.7330 C   0  0  0  0  0  0  0  0  0  0  0  0
  138.9550   79.0170  223.2840 C   0  0  0  0  0  0  0  0  0  0  0  0
  139.9860   79.9520  223.4070 C   0  0  0  0  0  0  0  0  0  0  0  0
  141.2900   79.6290  222.9950 C   0  0  0  0  0  0  0  0  0  0  0  0
  142.3960   80.6510  223.0810 C   0  0  0  0  0  0  0  0  0  0  0  0
  142.2310   81.5840  222.0750 F   0  0  0  0  0  0  0  0  0  0  0  0
  142.3720   81.2990  224.3040 F   0  0  0  0  0  0  0  0  0  0  0  0
  143.6320   80.0460  222.9370 F   0  0  0  0  0  0  0  0  0  0  0  0
  141.5330   78.3700  222.4150 C   0  0  0  0  0  0  0  0  0  0  0  0
  138.2850   73.5360  222.9760 H   0  0  0  0  0  0  0  0  0  0  0  0
  140.3554   70.5363  222.5571 H   0  0  0  0  0  0  0  0  0  0  0  0
  141.1411   70.0366  220.3134 H   0  0  0  0  0  0  0  0  0  0  0  0
  140.7395   71.7175  219.7661 H   0  0  0  0  0  0  0  0  0  0  0  0
  142.8390   72.0883  221.5738 H   0  0  0  0  0  0  0  0  0  0  0  0
  143.3012   70.5983  220.6822 H   0  0  0  0  0  0  0  0  0  0  0  0
  141.1363   73.4907  218.2696 H   0  0  0  0  0  0  0  0  0  0  0  0
  140.8118   75.9362  217.9606 H   0  0  0  0  0  0  0  0  0  0  0  0
  144.4545   76.7052  220.1477 H   0  0  0  0  0  0  0  0  0  0  0  0
  141.4150   75.9984  220.8365 H   0  0  0  0  0  0  0  0  0  0  0  0
  138.3912   77.0273  222.6455 H   0  0  0  0  0  0  0  0  0  0  0  0
  137.9403   79.2729  223.6230 H   0  0  0  0  0  0  0  0  0  0  0  0
  139.7758   80.9460  223.8285 H   0  0  0  0  0  0  0  0  0  0  0  0
  142.5426   78.1212  222.0560 H   0  0  0  0  0  0  0  0  0  0  0  0
  1  2  1  0
  2  3  2  0
  3  4  1  0
  4  5  1  0
  5  6  1  0
  6  7  1  0
  7  8  2  0
  8  9  1  0
  9 10  2  0
 10 11  1  0
 10 12  1  0
 12 13  2  0
 13 14  1  0
  2 15  1  0
 15 16  1  0
 16 17  2  0
 17 18  1  0
 18 19  2  0
 19 20  1  0
 20 21  2  0
 21 22  1  0
 22 23  1  0
 23 24  1  0
 23 25  1  0
 23 26  1  0
 22 27  2  0
 13  7  1  0
 27 18  1  0
  1 28  1  0
  3 29  1  0
  4 30  1  0
  4 31  1  0
  5 32  1  0
  5 33  1  0
  8 34  1  0
  9 35  1  0
 12 36  1  0
 17 37  1  0
 19 38  1  0
 20 39  1  0
 21 40  1  0
 27 41  1  0
M  CHG  1  15  -1
M  END
>  <meeko>  (11) 
{"free_energy": -5.19, "intermolecular_energy": -8.47, "internal_energy": -1.96, "cluster_size": 1, "cluster_id": 5, "rank_in_cluster": 1}

$$$$

     RDKit          3D

 41 42  0  0  0  0  0  0  0  0999 V2000
  138.2180   73.3300  221.2710 O   0  0  0  0  0  0  0  0  0  0  0  0
  139.2780   74.0650  221.7960 C   0  0  0  0  0  0  0  0  0  0  0  0
  139.2730   75.4040  221.7100 C   0  0  0  0  0  0  0  0  0  0  0  0
  138.5040   76.2750  222.6660 C   0  0  0  0  0  0  0  0  0  0  0  0
  137.5550   77.2200  221.9300 C   0  0  0  0  0  0  0  0  0  0  0  0
  138.2660   78.3820  221.5130 O   0  0  0  0  0  0  0  0  0  0  0  0
  139.4010   78.9540  222.1170 C   0  0  0  0  0  0  0  0  0  0  0  0
  140.6400   78.5320  221.6130 C   0  0  0  0  0  0  0  0  0  0  0  0
  141.8370   79.0380  222.1210 C   0  0  0  0  0  0  0  0  0  0  0  0
  141.8140   79.9760  223.1520 C   0  0  0  0  0  0  0  0  0  0  0  0
  143.3180   80.6130  223.7940 Cl  0  0  0  0  0  0  0  0  0  0  0  0
  140.5930   80.4050  223.6760 C   0  0  0  0  0  0  0  0  0  0  0  0
  139.3830   79.9050  223.1760 C   0  0  0  0  0  0  0  0  0  0  0  0
  137.9220   80.4980  223.9590 Cl  0  0  0  0  0  0  0  0  0  0  0  0
  140.3580   73.3650  222.4250 N   0  0  0  0  0  0  0  0  0  0  0  0
  140.3570   71.9730  222.5920 N   0  0  0  0  0  0  0  0  0  0  0  0
  139.5710   71.4080  223.4510 C   0  0  0  0  0  0  0  0  0  0  0  0
  140.0700   70.9800  224.7740 C   0  0  0  0  0  0  0  0  0  0  0  0
  140.7780   71.8930  225.5690 C   0  0  0  0  0  0  0  0  0  0  0  0
  141.2710   71.5070  226.8170 C   0  0  0  0  0  0  0  0  0  0  0  0
  141.0580   70.2100  227.2880 C   0  0  0  0  0  0  0  0  0  0  0  0
  140.3270   69.2870  226.5200 C   0  0  0  0  0  0  0  0  0  0  0  0
  140.1340   67.8710  227.0030 C   0  0  0  0  0  0  0  0  0  0  0  0
  140.1400   67.8570  228.3840 F   0  0  0  0  0  0  0  0  0  0  0  0
  138.9300   67.3570  226.5520 F   0  0  0  0  0  0  0  0  0  0  0  0
  141.1510   67.0560  226.5380 F   0  0  0  0  0  0  0  0  0  0  0  0
  139.8550   69.6740  225.2520 C   0  0  0  0  0  0  0  0  0  0  0  0
  138.1990   72.3210  221.3470 H   0  0  0  0  0  0  0  0  0  0  0  0
  139.8541   75.8840  220.9088 H   0  0  0  0  0  0  0  0  0  0  0  0
  137.9170   75.6334  223.3396 H   0  0  0  0  0  0  0  0  0  0  0  0
  139.2249   76.8840  223.2312 H   0  0  0  0  0  0  0  0  0  0  0  0
  137.1399   76.7089  221.0488 H   0  0  0  0  0  0  0  0  0  0  0  0
  136.7371   77.5144  222.6041 H   0  0  0  0  0  0  0  0  0  0  0  0
  140.6686   77.7887  220.8026 H   0  0  0  0  0  0  0  0  0  0  0  0
  142.7980   78.6971  221.7083 H   0  0  0  0  0  0  0  0  0  0  0  0
  140.5806   81.1440  224.4907 H   0  0  0  0  0  0  0  0  0  0  0  0
  138.5146   71.2438  223.1919 H   0  0  0  0  0  0  0  0  0  0  0  0
  140.9458   72.9183  225.2076 H   0  0  0  0  0  0  0  0  0  0  0  0
  141.8297   72.2280  227.4319 H   0  0  0  0  0  0  0  0  0  0  0  0
  141.4642   69.9089  228.2649 H   0  0  0  0  0  0  0  0  0  0  0  0
  139.3125   68.9483  224.6282 H   0  0  0  0  0  0  0  0  0  0  0  0
  1  2  1  0
  2  3  2  0
  3  4  1  0
  4  5  1  0
  5  6  1  0
  6  7  1  0
  7  8  2  0
  8  9  1  0
  9 10  2  0
 10 11  1  0
 10 12  1  0
 12 13  2  0
 13 14  1  0
  2 15  1  0
 15 16  1  0
 16 17  2  0
 17 18  1  0
 18 19  2  0
 19 20  1  0
 20 21  2  0
 21 22  1  0
 22 23  1  0
 23 24  1  0
 23 25  1  0
 23 26  1  0
 22 27  2  0
 13  7  1  0
 27 18  1  0
  1 28  1  0
  3 29  1  0
  4 30  1  0
  4 31  1  0
  5 32  1  0
  5 33  1  0
  8 34  1  0
  9 35  1  0
 12 36  1  0
 17 37  1  0
 19 38  1  0
 20 39  1  0
 21 40  1  0
 27 41  1  0
M  CHG  1  15  -1
M  END
>  <meeko>  (12) 
{"free_energy": -5.91, "intermolecular_energy": -9.19, "internal_energy": -0.96, "cluster_size": 6, "cluster_id": 1, "rank_in_cluster": 6}

$$$$

     RDKit          3D

 41 42  0  0  0  0  0  0  0  0999 V2000
  140.4990   72.0700  220.5710 O   0  0  0  0  0  0  0  0  0  0  0  0
  139.8980   72.5900  221.7140 C   0  0  0  0  0  0  0  0  0  0  0  0
  138.8180   71.9900  222.2380 C   0  0  0  0  0  0  0  0  0  0  0  0
  138.4090   70.5900  221.8680 C   0  0  0  0  0  0  0  0  0  0  0  0
  139.3370   69.5480  222.4890 C   0  0  0  0  0  0  0  0  0  0  0  0
  138.7870   69.0920  223.7220 O   0  0  0  0  0  0  0  0  0  0  0  0
  139.4480   68.9600  224.9580 C   0  0  0  0  0  0  0  0  0  0  0  0
  139.2250   67.7580  225.6450 C   0  0  0  0  0  0  0  0  0  0  0  0
  139.8360   67.5060  226.8740 C   0  0  0  0  0  0  0  0  0  0  0  0
  140.6790   68.4590  227.4420 C   0  0  0  0  0  0  0  0  0  0  0  0
  141.4470   68.1440  228.9880 Cl  0  0  0  0  0  0  0  0  0  0  0  0
  140.9080   69.6670  226.7810 C   0  0  0  0  0  0  0  0  0  0  0  0
  140.3020   69.9360  225.5460 C   0  0  0  0  0  0  0  0  0  0  0  0
  140.6440   71.5140  224.8460 Cl  0  0  0  0  0  0  0  0  0  0  0  0
  140.4570   73.7660  222.3130 N   0  0  0  0  0  0  0  0  0  0  0  0
  139.9480   75.0500  222.0710 N   0  0  0  0  0  0  0  0  0  0  0  0
  140.7410   76.0440  221.8340 C   0  0  0  0  0  0  0  0  0  0  0  0
  140.4740   77.3830  222.4000 C   0  0  0  0  0  0  0  0  0  0  0  0
  139.1570   77.7410  222.7260 C   0  0  0  0  0  0  0  0  0  0  0  0
  138.8790   79.0050  223.2480 C   0  0  0  0  0  0  0  0  0  0  0  0
  139.9100   79.9220  223.4580 C   0  0  0  0  0  0  0  0  0  0  0  0
  141.2410   79.5750  223.1650 C   0  0  0  0  0  0  0  0  0  0  0  0
  142.3510   80.5790  223.3450 C   0  0  0  0  0  0  0  0  0  0  0  0
  141.8360   81.8550  223.2200 F   0  0  0  0  0  0  0  0  0  0  0  0
  142.9330   80.4490  224.5950 F   0  0  0  0  0  0  0  0  0  0  0  0
  143.3350   80.3930  222.3910 F   0  0  0  0  0  0  0  0  0  0  0  0
  141.5110   78.3090  222.6140 C   0  0  0  0  0  0  0  0  0  0  0  0
  140.6420   72.6470  219.7520 H   0  0  0  0  0  0  0  0  0  0  0  0
  138.2076   72.5435  222.9668 H   0  0  0  0  0  0  0  0  0  0  0  0
  137.3837   70.4120  222.2246 H   0  0  0  0  0  0  0  0  0  0  0  0
  138.4679   70.4932  220.7738 H   0  0  0  0  0  0  0  0  0  0  0  0
  139.4456   68.6975  221.7999 H   0  0  0  0  0  0  0  0  0  0  0  0
  140.3224   70.0005  222.6738 H   0  0  0  0  0  0  0  0  0  0  0  0
  138.5572   67.0011  225.2078 H   0  0  0  0  0  0  0  0  0  0  0  0
  139.6521   66.5546  227.3946 H   0  0  0  0  0  0  0  0  0  0  0  0
  141.5723   70.4171  227.2349 H   0  0  0  0  0  0  0  0  0  0  0  0
  141.6278   75.8904  221.2015 H   0  0  0  0  0  0  0  0  0  0  0  0
  138.3396   77.0217  222.5693 H   0  0  0  0  0  0  0  0  0  0  0  0
  137.8429   79.2798  223.4950 H   0  0  0  0  0  0  0  0  0  0  0  0
  139.6802   80.9218  223.8549 H   0  0  0  0  0  0  0  0  0  0  0  0
  142.5439   78.0404  222.3477 H   0  0  0  0  0  0  0  0  0  0  0  0
  1  2  1  0
  2  3  2  0
  3  4  1  0
  4  5  1  0
  5  6  1  0
  6  7  1  0
  7  8  2  0
  8  9  1  0
  9 10  2  0
 10 11  1  0
 10 12  1  0
 12 13  2  0
 13 14  1  0
  2 15  1  0
 15 16  1  0
 16 17  2  0
 17 18  1  0
 18 19  2  0
 19 20  1  0
 20 21  2  0
 21 22  1  0
 22 23  1  0
 23 24  1  0
 23 25  1  0
 23 26  1  0
 22 27  2  0
 13  7  1  0
 27 18  1  0
  1 28  1  0
  3 29  1  0
  4 30  1  0
  4 31  1  0
  5 32  1  0
  5 33  1  0
  8 34  1  0
  9 35  1  0
 12 36  1  0
 17 37  1  0
 19 38  1  0
 20 39  1  0
 21 40  1  0
 27 41  1  0
M  CHG  1  15  -1
M  END
>  <meeko>  (13) 
{"free_energy": -6.24, "intermolecular_energy": -9.52, "internal_energy": -0.66, "cluster_size": 1, "cluster_id": 4, "rank_in_cluster": 1}

$$$$

     RDKit          3D

 41 42  0  0  0  0  0  0  0  0999 V2000
  139.4670   75.3140  222.3590 O   0  0  0  0  0  0  0  0  0  0  0  0
  140.3140   74.6110  221.5050 C   0  0  0  0  0  0  0  0  0  0  0  0
  140.7880   75.1990  220.3960 C   0  0  0  0  0  0  0  0  0  0  0  0
  142.0720   75.9830  220.3790 C   0  0  0  0  0  0  0  0  0  0  0  0
  141.8170   77.4810  220.2220 C   0  0  0  0  0  0  0  0  0  0  0  0
  142.0150   78.1330  221.4730 O   0  0  0  0  0  0  0  0  0  0  0  0
  141.0630   78.8400  222.2320 C   0  0  0  0  0  0  0  0  0  0  0  0
  139.7270   78.4510  222.0520 C   0  0  0  0  0  0  0  0  0  0  0  0
  138.6940   79.0690  222.7590 C   0  0  0  0  0  0  0  0  0  0  0  0
  138.9810   80.0950  223.6570 C   0  0  0  0  0  0  0  0  0  0  0  0
  137.6830   80.8730  224.5450 Cl  0  0  0  0  0  0  0  0  0  0  0  0
  140.3020   80.5050  223.8460 C   0  0  0  0  0  0  0  0  0  0  0  0
  141.3510   79.8950  223.1430 C   0  0  0  0  0  0  0  0  0  0  0  0
  142.9600   80.5410  223.4460 Cl  0  0  0  0  0  0  0  0  0  0  0  0
  140.6650   73.2630  221.8390 N   0  0  0  0  0  0  0  0  0  0  0  0
  140.2960   72.6670  223.0530 N   0  0  0  0  0  0  0  0  0  0  0  0
  140.2830   71.3800  223.1840 C   0  0  0  0  0  0  0  0  0  0  0  0
  140.1740   70.7510  224.5160 C   0  0  0  0  0  0  0  0  0  0  0  0
  139.5710   69.4900  224.6330 C   0  0  0  0  0  0  0  0  0  0  0  0
  139.4440   68.8820  225.8830 C   0  0  0  0  0  0  0  0  0  0  0  0
  139.9240   69.5210  227.0290 C   0  0  0  0  0  0  0  0  0  0  0  0
  140.5570   70.7720  226.9310 C   0  0  0  0  0  0  0  0  0  0  0  0
  141.0340   71.4880  228.1710 C   0  0  0  0  0  0  0  0  0  0  0  0
  141.8190   70.6300  228.9170 F   0  0  0  0  0  0  0  0  0  0  0  0
  141.7800   72.6050  227.8370 F   0  0  0  0  0  0  0  0  0  0  0  0
  139.9600   71.9010  228.9380 F   0  0  0  0  0  0  0  0  0  0  0  0
  140.6580   71.3920  225.6720 C   0  0  0  0  0  0  0  0  0  0  0  0
  139.0700   74.8700  223.1770 H   0  0  0  0  0  0  0  0  0  0  0  0
  140.2149   75.1041  219.4619 H   0  0  0  0  0  0  0  0  0  0  0  0
  142.6081   75.8097  221.3238 H   0  0  0  0  0  0  0  0  0  0  0  0
  142.6691   75.6447  219.5193 H   0  0  0  0  0  0  0  0  0  0  0  0
  142.5143   77.8952  219.4789 H   0  0  0  0  0  0  0  0  0  0  0  0
  140.7821   77.6422  219.8857 H   0  0  0  0  0  0  0  0  0  0  0  0
  139.4895   77.6453  221.3417 H   0  0  0  0  0  0  0  0  0  0  0  0
  137.6535   78.7460  222.6072 H   0  0  0  0  0  0  0  0  0  0  0  0
  140.5228   81.3165  224.5550 H   0  0  0  0  0  0  0  0  0  0  0  0
  140.3543   70.7441  222.2893 H   0  0  0  0  0  0  0  0  0  0  0  0
  139.1962   68.9774  223.7348 H   0  0  0  0  0  0  0  0  0  0  0  0
  138.9640   67.8957  225.9662 H   0  0  0  0  0  0  0  0  0  0  0  0
  139.8059   69.0428  228.0125 H   0  0  0  0  0  0  0  0  0  0  0  0
  141.1196   72.3871  225.5903 H   0  0  0  0  0  0  0  0  0  0  0  0
  1  2  1  0
  2  3  2  0
  3  4  1  0
  4  5  1  0
  5  6  1  0
  6  7  1  0
  7  8  2  0
  8  9  1  0
  9 10  2  0
 10 11  1  0
 10 12  1  0
 12 13  2  0
 13 14  1  0
  2 15  1  0
 15 16  1  0
 16 17  2  0
 17 18  1  0
 18 19  2  0
 19 20  1  0
 20 21  2  0
 21 22  1  0
 22 23  1  0
 23 24  1  0
 23 25  1  0
 23 26  1  0
 22 27  2  0
 13  7  1  0
 27 18  1  0
  1 28  1  0
  3 29  1  0
  4 30  1  0
  4 31  1  0
  5 32  1  0
  5 33  1  0
  8 34  1  0
  9 35  1  0
 12 36  1  0
 17 37  1  0
 19 38  1  0
 20 39  1  0
 21 40  1  0
 27 41  1  0
M  CHG  1  15  -1
M  END
>  <meeko>  (14) 
{"free_energy": -6.89, "intermolecular_energy": -10.17, "internal_energy": -0.95, "cluster_size": 9, "cluster_id": 2, "rank_in_cluster": 3}

$$$$

     RDKit          3D

 41 42  0  0  0  0  0  0  0  0999 V2000
  138.2990   75.4500  222.4000 O   0  0  0  0  0  0  0  0  0  0  0  0
  139.5730   75.3200  221.8520 C   0  0  0  0  0  0  0  0  0  0  0  0
  140.0530   76.2700  221.0360 C   0  0  0  0  0  0  0  0  0  0  0  0
  141.5270   76.4770  220.8120 C   0  0  0  0  0  0  0  0  0  0  0  0
  141.8200   77.8570  220.2250 C   0  0  0  0  0  0  0  0  0  0  0  0
  141.9970   78.7970  221.2810 O   0  0  0  0  0  0  0  0  0  0  0  0
  140.9960   79.4610  222.0140 C   0  0  0  0  0  0  0  0  0  0  0  0
  140.3910   78.7160  223.0370 C   0  0  0  0  0  0  0  0  0  0  0  0
  139.3950   79.2700  223.8420 C   0  0  0  0  0  0  0  0  0  0  0  0
  138.9810   80.5840  223.6310 C   0  0  0  0  0  0  0  0  0  0  0  0
  137.7270   81.2820  224.6420 Cl  0  0  0  0  0  0  0  0  0  0  0  0
  139.5610   81.3420  222.6130 C   0  0  0  0  0  0  0  0  0  0  0  0
  140.5630   80.7990  221.7960 C   0  0  0  0  0  0  0  0  0  0  0  0
  141.1750   81.8510  220.5250 Cl  0  0  0  0  0  0  0  0  0  0  0  0
  140.3490   74.1610  222.1830 N   0  0  0  0  0  0  0  0  0  0  0  0
  139.7740   72.9900  222.6950 N   0  0  0  0  0  0  0  0  0  0  0  0
  140.5060   71.9650  222.9900 C   0  0  0  0  0  0  0  0  0  0  0  0
  140.3040   71.2220  224.2510 C   0  0  0  0  0  0  0  0  0  0  0  0
  139.6290   69.9930  224.2240 C   0  0  0  0  0  0  0  0  0  0  0  0
  139.4140   69.2800  225.4040 C   0  0  0  0  0  0  0  0  0  0  0  0
  139.8760   69.7810  226.6230 C   0  0  0  0  0  0  0  0  0  0  0  0
  140.5800   70.9970  226.6700 C   0  0  0  0  0  0  0  0  0  0  0  0
  141.0390   71.5650  227.9900 C   0  0  0  0  0  0  0  0  0  0  0  0
  139.9370   71.9720  228.7180 F   0  0  0  0  0  0  0  0  0  0  0  0
  141.7330   70.6150  228.7190 F   0  0  0  0  0  0  0  0  0  0  0  0
  141.8740   72.6490  227.7890 F   0  0  0  0  0  0  0  0  0  0  0  0
  140.7700   71.7240  225.4810 C   0  0  0  0  0  0  0  0  0  0  0  0
  137.9210   74.7380  223.0120 H   0  0  0  0  0  0  0  0  0  0  0  0
  139.3416   76.9235  220.5098 H   0  0  0  0  0  0  0  0  0  0  0  0
  142.0511   76.3801  221.7743 H   0  0  0  0  0  0  0  0  0  0  0  0
  141.8754   75.7182  220.0958 H   0  0  0  0  0  0  0  0  0  0  0  0
  142.7368   77.8101  219.6190 H   0  0  0  0  0  0  0  0  0  0  0  0
  140.9768   78.1719  219.5927 H   0  0  0  0  0  0  0  0  0  0  0  0
  140.7074   77.6764  223.2077 H   0  0  0  0  0  0  0  0  0  0  0  0
  138.9370   78.6703  224.6423 H   0  0  0  0  0  0  0  0  0  0  0  0
  139.2283   82.3777  222.4495 H   0  0  0  0  0  0  0  0  0  0  0  0
  141.2913   71.6415  222.2909 H   0  0  0  0  0  0  0  0  0  0  0  0
  139.2670   69.5888  223.2671 H   0  0  0  0  0  0  0  0  0  0  0  0
  138.8785   68.3196  225.3740 H   0  0  0  0  0  0  0  0  0  0  0  0
  139.6881   69.2213  227.5511 H   0  0  0  0  0  0  0  0  0  0  0  0
  141.2877   72.6941  225.5125 H   0  0  0  0  0  0  0  0  0  0  0  0
  1  2  1  0
  2  3  2  0
  3  4  1  0
  4  5  1  0
  5  6  1  0
  6  7  1  0
  7  8  2  0
  8  9  1  0
  9 10  2  0
 10 11  1  0
 10 12  1  0
 12 13  2  0
 13 14  1  0
  2 15  1  0
 15 16  1  0
 16 17  2  0
 17 18  1  0
 18 19  2  0
 19 20  1  0
 20 21  2  0
 21 22  1  0
 22 23  1  0
 23 24  1  0
 23 25  1  0
 23 26  1  0
 22 27  2  0
 13  7  1  0
 27 18  1  0
  1 28  1  0
  3 29  1  0
  4 30  1  0
  4 31  1  0
  5 32  1  0
  5 33  1  0
  8 34  1  0
  9 35  1  0
 12 36  1  0
 17 37  1  0
 19 38  1  0
 20 39  1  0
 21 40  1  0
 27 41  1  0
M  CHG  1  15  -1
M  END
>  <meeko>  (15) 
{"free_energy": -6.37, "intermolecular_energy": -9.66, "internal_energy": -0.94, "cluster_size": 9, "cluster_id": 2, "rank_in_cluster": 7}

$$$$

     RDKit          3D

 41 42  0  0  0  0  0  0  0  0999 V2000
  139.2830   75.4010  222.3280 O   0  0  0  0  0  0  0  0  0  0  0  0
  140.0240   74.3600  221.7780 C   0  0  0  0  0  0  0  0  0  0  0  0
  140.8480   74.5940  220.7450 C   0  0  0  0  0  0  0  0  0  0  0  0
  140.4900   75.5220  219.6160 C   0  0  0  0  0  0  0  0  0  0  0  0
  141.6100   76.5230  219.3310 C   0  0  0  0  0  0  0  0  0  0  0  0
  141.1260   77.8490  219.5240 O   0  0  0  0  0  0  0  0  0  0  0  0
  141.4520   78.7370  220.5660 C   0  0  0  0  0  0  0  0  0  0  0  0
  141.4230   78.1970  221.8610 C   0  0  0  0  0  0  0  0  0  0  0  0
  141.7410   78.9760  222.9740 C   0  0  0  0  0  0  0  0  0  0  0  0
  142.0880   80.3160  222.8110 C   0  0  0  0  0  0  0  0  0  0  0  0
  142.4860   81.2960  224.2110 Cl  0  0  0  0  0  0  0  0  0  0  0  0
  142.1140   80.8770  221.5340 C   0  0  0  0  0  0  0  0  0  0  0  0
  141.7970   80.1080  220.4050 C   0  0  0  0  0  0  0  0  0  0  0  0
  141.8280   80.9550  218.8630 Cl  0  0  0  0  0  0  0  0  0  0  0  0
  139.8910   73.0480  222.3380 N   0  0  0  0  0  0  0  0  0  0  0  0
  140.7020   72.5900  223.3870 N   0  0  0  0  0  0  0  0  0  0  0  0
  140.5870   71.3830  223.8360 C   0  0  0  0  0  0  0  0  0  0  0  0
  140.6950   71.0950  225.2820 C   0  0  0  0  0  0  0  0  0  0  0  0
  141.0230   72.1320  226.1660 C   0  0  0  0  0  0  0  0  0  0  0  0
  141.1450   71.8810  227.5340 C   0  0  0  0  0  0  0  0  0  0  0  0
  140.9330   70.5950  228.0350 C   0  0  0  0  0  0  0  0  0  0  0  0
  140.5750   69.5460  227.1700 C   0  0  0  0  0  0  0  0  0  0  0  0
  140.3920   68.1450  227.7000 C   0  0  0  0  0  0  0  0  0  0  0  0
  140.3980   68.1770  229.0810 F   0  0  0  0  0  0  0  0  0  0  0  0
  139.1920   67.6090  227.2670 F   0  0  0  0  0  0  0  0  0  0  0  0
  141.4150   67.3220  227.2630 F   0  0  0  0  0  0  0  0  0  0  0  0
  140.4810   69.8000  225.7900 C   0  0  0  0  0  0  0  0  0  0  0  0
  138.7530   75.2680  223.1800 H   0  0  0  0  0  0  0  0  0  0  0  0
  141.8240   74.0872  220.7227 H   0  0  0  0  0  0  0  0  0  0  0  0
  140.3049   74.9264  218.7099 H   0  0  0  0  0  0  0  0  0  0  0  0
  139.5915   76.0859  219.9070 H   0  0  0  0  0  0  0  0  0  0  0  0
  142.4505   76.3367  220.0157 H   0  0  0  0  0  0  0  0  0  0  0  0
  141.9493   76.4055  218.2912 H   0  0  0  0  0  0  0  0  0  0  0  0
  141.1449   77.1420  222.0009 H   0  0  0  0  0  0  0  0  0  0  0  0
  141.7178   78.5325  223.9804 H   0  0  0  0  0  0  0  0  0  0  0  0
  142.3865   81.9356  221.4112 H   0  0  0  0  0  0  0  0  0  0  0  0
  140.4061   70.5579  223.1314 H   0  0  0  0  0  0  0  0  0  0  0  0
  141.1852   73.1492  225.7799 H   0  0  0  0  0  0  0  0  0  0  0  0
  141.4092   72.6995  228.2198 H   0  0  0  0  0  0  0  0  0  0  0  0
  141.0466   70.4016  229.1119 H   0  0  0  0  0  0  0  0  0  0  0  0
  140.2377   68.9781  225.1005 H   0  0  0  0  0  0  0  0  0  0  0  0
  1  2  1  0
  2  3  2  0
  3  4  1  0
  4  5  1  0
  5  6  1  0
  6  7  1  0
  7  8  2  0
  8  9  1  0
  9 10  2  0
 10 11  1  0
 10 12  1  0
 12 13  2  0
 13 14  1  0
  2 15  1  0
 15 16  1  0
 16 17  2  0
 17 18  1  0
 18 19  2  0
 19 20  1  0
 20 21  2  0
 21 22  1  0
 22 23  1  0
 23 24  1  0
 23 25  1  0
 23 26  1  0
 22 27  2  0
 13  7  1  0
 27 18  1  0
  1 28  1  0
  3 29  1  0
  4 30  1  0
  4 31  1  0
  5 32  1  0
  5 33  1  0
  8 34  1  0
  9 35  1  0
 12 36  1  0
 17 37  1  0
 19 38  1  0
 20 39  1  0
 21 40  1  0
 27 41  1  0
M  CHG  1  15  -1
M  END
>  <meeko>  (16) 
{"free_energy": -6.74, "intermolecular_energy": -10.02, "internal_energy": -0.69, "cluster_size": 6, "cluster_id": 1, "rank_in_cluster": 5}

$$$$

     RDKit          3D

 41 42  0  0  0  0  0  0  0  0999 V2000
  141.4020   75.8140  221.8640 O   0  0  0  0  0  0  0  0  0  0  0  0
  140.1750   75.2040  221.6190 C   0  0  0  0  0  0  0  0  0  0  0  0
  139.3320   75.7290  220.7180 C   0  0  0  0  0  0  0  0  0  0  0  0
  139.3090   75.2940  219.2780 C   0  0  0  0  0  0  0  0  0  0  0  0
  139.8800   73.8870  219.1040 C   0  0  0  0  0  0  0  0  0  0  0  0
  141.2010   73.9700  218.5760 O   0  0  0  0  0  0  0  0  0  0  0  0
  142.4130   73.9330  219.2910 C   0  0  0  0  0  0  0  0  0  0  0  0
  142.7850   72.6810  219.8010 C   0  0  0  0  0  0  0  0  0  0  0  0
  143.9730   72.5160  220.5140 C   0  0  0  0  0  0  0  0  0  0  0  0
  144.8090   73.6080  220.7370 C   0  0  0  0  0  0  0  0  0  0  0  0
  146.3020   73.4030  221.6360 Cl  0  0  0  0  0  0  0  0  0  0  0  0
  144.4550   74.8670  220.2470 C   0  0  0  0  0  0  0  0  0  0  0  0
  143.2650   75.0490  219.5290 C   0  0  0  0  0  0  0  0  0  0  0  0
  142.9230   76.6950  219.0090 Cl  0  0  0  0  0  0  0  0  0  0  0  0
  139.8410   74.0130  222.3420 N   0  0  0  0  0  0  0  0  0  0  0  0
  140.7960   73.0400  222.6740 N   0  0  0  0  0  0  0  0  0  0  0  0
  140.4740   71.7890  222.7360 C   0  0  0  0  0  0  0  0  0  0  0  0
  140.2180   71.1320  224.0350 C   0  0  0  0  0  0  0  0  0  0  0  0
  139.4410   69.9650  224.0730 C   0  0  0  0  0  0  0  0  0  0  0  0
  139.1740   69.3360  225.2900 C   0  0  0  0  0  0  0  0  0  0  0  0
  139.6850   69.8580  226.4800 C   0  0  0  0  0  0  0  0  0  0  0  0
  140.4890   71.0110  226.4620 C   0  0  0  0  0  0  0  0  0  0  0  0
  141.0030   71.6060  227.7500 C   0  0  0  0  0  0  0  0  0  0  0  0
  141.9280   72.5900  227.4580 F   0  0  0  0  0  0  0  0  0  0  0  0
  139.9680   72.1630  228.4810 F   0  0  0  0  0  0  0  0  0  0  0  0
  141.6070   70.6350  228.5280 F   0  0  0  0  0  0  0  0  0  0  0  0
  140.7320   71.6560  225.2360 C   0  0  0  0  0  0  0  0  0  0  0  0
  142.1870   75.2800  222.2160 H   0  0  0  0  0  0  0  0  0  0  0  0
  138.6289   76.5092  221.0450 H   0  0  0  0  0  0  0  0  0  0  0  0
  138.2693   75.3038  218.9191 H   0  0  0  0  0  0  0  0  0  0  0  0
  139.9322   75.9913  218.6989 H   0  0  0  0  0  0  0  0  0  0  0  0
  139.9067   73.3794  220.0795 H   0  0  0  0  0  0  0  0  0  0  0  0
  139.2441   73.3175  218.4103 H   0  0  0  0  0  0  0  0  0  0  0  0
  142.1288   71.8137  219.6361 H   0  0  0  0  0  0  0  0  0  0  0  0
  144.2495   71.5238  220.9000 H   0  0  0  0  0  0  0  0  0  0  0  0
  145.1180   75.7261  220.4267 H   0  0  0  0  0  0  0  0  0  0  0  0
  140.3893   71.2049  221.8077 H   0  0  0  0  0  0  0  0  0  0  0  0
  139.0402   69.5435  223.1394 H   0  0  0  0  0  0  0  0  0  0  0  0
  138.5582   68.4248  225.3118 H   0  0  0  0  0  0  0  0  0  0  0  0
  139.4573   69.3645  227.4364 H   0  0  0  0  0  0  0  0  0  0  0  0
  141.3297   72.5792  225.2155 H   0  0  0  0  0  0  0  0  0  0  0  0
  1  2  1  0
  2  3  2  0
  3  4  1  0
  4  5  1  0
  5  6  1  0
  6  7  1  0
  7  8  2  0
  8  9  1  0
  9 10  2  0
 10 11  1  0
 10 12  1  0
 12 13  2  0
 13 14  1  0
  2 15  1  0
 15 16  1  0
 16 17  2  0
 17 18  1  0
 18 19  2  0
 19 20  1  0
 20 21  2  0
 21 22  1  0
 22 23  1  0
 23 24  1  0
 23 25  1  0
 23 26  1  0
 22 27  2  0
 13  7  1  0
 27 18  1  0
  1 28  1  0
  3 29  1  0
  4 30  1  0
  4 31  1  0
  5 32  1  0
  5 33  1  0
  8 34  1  0
  9 35  1  0
 12 36  1  0
 17 37  1  0
 19 38  1  0
 20 39  1  0
 21 40  1  0
 27 41  1  0
M  CHG  1  15  -1
M  END
>  <meeko>  (17) 
{"free_energy": -6.01, "intermolecular_energy": -9.29, "internal_energy": -1.66, "cluster_size": 3, "cluster_id": 3, "rank_in_cluster": 3}

$$$$

     RDKit          3D

 41 42  0  0  0  0  0  0  0  0999 V2000
  139.5360   75.3950  222.3260 O   0  0  0  0  0  0  0  0  0  0  0  0
  140.4840   74.6650  221.6140 C   0  0  0  0  0  0  0  0  0  0  0  0
  141.1630   75.2440  220.6120 C   0  0  0  0  0  0  0  0  0  0  0  0
  140.8880   76.6500  220.1510 C   0  0  0  0  0  0  0  0  0  0  0  0
  141.8040   77.6600  220.8420 C   0  0  0  0  0  0  0  0  0  0  0  0
  141.4130   77.8050  222.2040 O   0  0  0  0  0  0  0  0  0  0  0  0
  140.5280   78.7570  222.7440 C   0  0  0  0  0  0  0  0  0  0  0  0
  139.1680   78.4190  222.7050 C   0  0  0  0  0  0  0  0  0  0  0  0
  138.1960   79.2760  223.2230 C   0  0  0  0  0  0  0  0  0  0  0  0
  138.5700   80.4950  223.7850 C   0  0  0  0  0  0  0  0  0  0  0  0
  137.3490   81.5750  224.4350 Cl  0  0  0  0  0  0  0  0  0  0  0  0
  139.9180   80.8580  223.8270 C   0  0  0  0  0  0  0  0  0  0  0  0
  140.9060   80.0080  223.3100 C   0  0  0  0  0  0  0  0  0  0  0  0
  142.5580   80.6100  223.3890 Cl  0  0  0  0  0  0  0  0  0  0  0  0
  140.7160   73.2990  221.9760 N   0  0  0  0  0  0  0  0  0  0  0  0
  139.9730   72.6460  222.9700 N   0  0  0  0  0  0  0  0  0  0  0  0
  140.0380   71.3620  223.1120 C   0  0  0  0  0  0  0  0  0  0  0  0
  140.1110   70.7450  224.4530 C   0  0  0  0  0  0  0  0  0  0  0  0
  139.7310   69.4050  224.6140 C   0  0  0  0  0  0  0  0  0  0  0  0
  139.7780   68.8050  225.8730 C   0  0  0  0  0  0  0  0  0  0  0  0
  140.2100   69.5330  226.9840 C   0  0  0  0  0  0  0  0  0  0  0  0
  140.6220   70.8700  226.8400 C   0  0  0  0  0  0  0  0  0  0  0  0
  141.0450   71.6740  228.0440 C   0  0  0  0  0  0  0  0  0  0  0  0
  141.8180   70.8820  228.8720 F   0  0  0  0  0  0  0  0  0  0  0  0
  141.7830   72.7810  227.6620 F   0  0  0  0  0  0  0  0  0  0  0  0
  139.9380   72.1160  228.7470 F   0  0  0  0  0  0  0  0  0  0  0  0
  140.5470   71.4760  225.5730 C   0  0  0  0  0  0  0  0  0  0  0  0
  139.0150   74.9700  223.0820 H   0  0  0  0  0  0  0  0  0  0  0  0
  141.9524   74.6678  220.1072 H   0  0  0  0  0  0  0  0  0  0  0  0
  141.0496   76.7071  219.0644 H   0  0  0  0  0  0  0  0  0  0  0  0
  139.8476   76.8982  220.4080 H   0  0  0  0  0  0  0  0  0  0  0  0
  142.8435   77.3033  220.7954 H   0  0  0  0  0  0  0  0  0  0  0  0
  141.7255   78.6323  220.3336 H   0  0  0  0  0  0  0  0  0  0  0  0
  138.8617   77.4616  222.2583 H   0  0  0  0  0  0  0  0  0  0  0  0
  137.1346   78.9892  223.1877 H   0  0  0  0  0  0  0  0  0  0  0  0
  140.2079   81.8219  224.2708 H   0  0  0  0  0  0  0  0  0  0  0  0
  140.0389   70.7186  222.2198 H   0  0  0  0  0  0  0  0  0  0  0  0
  139.3940   68.8235  223.7432 H   0  0  0  0  0  0  0  0  0  0  0  0
  139.4736   67.7546  225.9910 H   0  0  0  0  0  0  0  0  0  0  0  0
  140.2281   69.0584  227.9762 H   0  0  0  0  0  0  0  0  0  0  0  0
  140.8321   72.5320  225.4567 H   0  0  0  0  0  0  0  0  0  0  0  0
  1  2  1  0
  2  3  2  0
  3  4  1  0
  4  5  1  0
  5  6  1  0
  6  7  1  0
  7  8  2  0
  8  9  1  0
  9 10  2  0
 10 11  1  0
 10 12  1  0
 12 13  2  0
 13 14  1  0
  2 15  1  0
 15 16  1  0
 16 17  2  0
 17 18  1  0
 18 19  2  0
 19 20  1  0
 20 21  2  0
 21 22  1  0
 22 23  1  0
 23 24  1  0
 23 25  1  0
 23 26  1  0
 22 27  2  0
 13  7  1  0
 27 18  1  0
  1 28  1  0
  3 29  1  0
  4 30  1  0
  4 31  1  0
  5 32  1  0
  5 33  1  0
  8 34  1  0
  9 35  1  0
 12 36  1  0
 17 37  1  0
 19 38  1  0
 20 39  1  0
 21 40  1  0
 27 41  1  0
M  CHG  1  15  -1
M  END
>  <meeko>  (18) 
{"free_energy": -7.06, "intermolecular_energy": -10.35, "internal_energy": -0.84, "cluster_size": 9, "cluster_id": 2, "rank_in_cluster": 1}

$$$$

     RDKit          3D

 41 42  0  0  0  0  0  0  0  0999 V2000
  139.6310   75.0280  222.3370 O   0  0  0  0  0  0  0  0  0  0  0  0
  140.5490   74.2080  221.6860 C   0  0  0  0  0  0  0  0  0  0  0  0
  141.0010   74.5410  220.4680 C   0  0  0  0  0  0  0  0  0  0  0  0
  142.2360   75.3760  220.2620 C   0  0  0  0  0  0  0  0  0  0  0  0
  141.9820   76.5290  219.2920 C   0  0  0  0  0  0  0  0  0  0  0  0
  141.1230   77.4880  219.9040 O   0  0  0  0  0  0  0  0  0  0  0  0
  141.4710   78.4660  220.8540 C   0  0  0  0  0  0  0  0  0  0  0  0
  141.4070   78.0660  222.1970 C   0  0  0  0  0  0  0  0  0  0  0  0
  141.7430   78.9440  223.2290 C   0  0  0  0  0  0  0  0  0  0  0  0
  142.1420   80.2460  222.9330 C   0  0  0  0  0  0  0  0  0  0  0  0
  142.5630   81.3510  224.2300 Cl  0  0  0  0  0  0  0  0  0  0  0  0
  142.2040   80.6700  221.6050 C   0  0  0  0  0  0  0  0  0  0  0  0
  141.8710   79.8000  220.5570 C   0  0  0  0  0  0  0  0  0  0  0  0
  141.9510   80.4800  218.9360 Cl  0  0  0  0  0  0  0  0  0  0  0  0
  140.9950   73.0150  222.3440 N   0  0  0  0  0  0  0  0  0  0  0  0
  140.3210   72.4640  223.4430 N   0  0  0  0  0  0  0  0  0  0  0  0
  140.6400   71.2960  223.9000 C   0  0  0  0  0  0  0  0  0  0  0  0
  140.7260   71.0440  225.3530 C   0  0  0  0  0  0  0  0  0  0  0  0
  141.0690   72.0970  226.2140 C   0  0  0  0  0  0  0  0  0  0  0  0
  141.1690   71.8800  227.5890 C   0  0  0  0  0  0  0  0  0  0  0  0
  140.9230   70.6120  228.1210 C   0  0  0  0  0  0  0  0  0  0  0  0
  140.5510   69.5490  227.2800 C   0  0  0  0  0  0  0  0  0  0  0  0
  140.3300   68.1680  227.8440 C   0  0  0  0  0  0  0  0  0  0  0  0
  141.4480   67.3930  227.6000 F   0  0  0  0  0  0  0  0  0  0  0  0
  140.1110   68.2240  229.2100 F   0  0  0  0  0  0  0  0  0  0  0  0
  139.2290   67.5720  227.2550 F   0  0  0  0  0  0  0  0  0  0  0  0
  140.4770   69.7680  225.8920 C   0  0  0  0  0  0  0  0  0  0  0  0
  139.1470   74.7090  223.1670 H   0  0  0  0  0  0  0  0  0  0  0  0
  140.4472   74.1900  219.5848 H   0  0  0  0  0  0  0  0  0  0  0  0
  142.5534   75.7885  221.2311 H   0  0  0  0  0  0  0  0  0  0  0  0
  143.0181   74.7323  219.8330 H   0  0  0  0  0  0  0  0  0  0  0  0
  142.9383   77.0068  219.0328 H   0  0  0  0  0  0  0  0  0  0  0  0
  141.5052   76.1409  218.3798 H   0  0  0  0  0  0  0  0  0  0  0  0
  141.0864   77.0425  222.4413 H   0  0  0  0  0  0  0  0  0  0  0  0
  141.6928   78.6083  224.2753 H   0  0  0  0  0  0  0  0  0  0  0  0
  142.5180   81.6994  221.3775 H   0  0  0  0  0  0  0  0  0  0  0  0
  140.8504   70.4780  223.1953 H   0  0  0  0  0  0  0  0  0  0  0  0
  141.2602   73.0993  225.8031 H   0  0  0  0  0  0  0  0  0  0  0  0
  141.4426   72.7106  228.2563 H   0  0  0  0  0  0  0  0  0  0  0  0
  141.0209   70.4445  229.2038 H   0  0  0  0  0  0  0  0  0  0  0  0
  140.2221   68.9338  225.2218 H   0  0  0  0  0  0  0  0  0  0  0  0
  1  2  1  0
  2  3  2  0
  3  4  1  0
  4  5  1  0
  5  6  1  0
  6  7  1  0
  7  8  2  0
  8  9  1  0
  9 10  2  0
 10 11  1  0
 10 12  1  0
 12 13  2  0
 13 14  1  0
  2 15  1  0
 15 16  1  0
 16 17  2  0
 17 18  1  0
 18 19  2  0
 19 20  1  0
 20 21  2  0
 21 22  1  0
 22 23  1  0
 23 24  1  0
 23 25  1  0
 23 26  1  0
 22 27  2  0
 13  7  1  0
 27 18  1  0
  1 28  1  0
  3 29  1  0
  4 30  1  0
  4 31  1  0
  5 32  1  0
  5 33  1  0
  8 34  1  0
  9 35  1  0
 12 36  1  0
 17 37  1  0
 19 38  1  0
 20 39  1  0
 21 40  1  0
 27 41  1  0
M  CHG  1  15  -1
M  END
>  <meeko>  (19) 
{"free_energy": -7.35, "intermolecular_energy": -10.63, "internal_energy": -0.91, "cluster_size": 6, "cluster_id": 1, "rank_in_cluster": 1}

$$$$

     RDKit          3D

 41 42  0  0  0  0  0  0  0  0999 V2000
  139.6170   74.3340  222.3570 O   0  0  0  0  0  0  0  0  0  0  0  0
  140.5030   73.3990  221.8280 C   0  0  0  0  0  0  0  0  0  0  0  0
  141.5570   73.8080  221.1050 C   0  0  0  0  0  0  0  0  0  0  0  0
  141.4280   74.2960  219.6880 C   0  0  0  0  0  0  0  0  0  0  0  0
  141.7200   75.7920  219.5770 C   0  0  0  0  0  0  0  0  0  0  0  0
  140.9010   76.5070  220.4980 O   0  0  0  0  0  0  0  0  0  0  0  0
  141.2320   77.6750  221.2110 C   0  0  0  0  0  0  0  0  0  0  0  0
  141.0960   77.6000  222.6050 C   0  0  0  0  0  0  0  0  0  0  0  0
  141.4080   78.6880  223.4200 C   0  0  0  0  0  0  0  0  0  0  0  0
  141.8570   79.8780  222.8510 C   0  0  0  0  0  0  0  0  0  0  0  0
  142.2480   81.2490  223.8760 Cl  0  0  0  0  0  0  0  0  0  0  0  0
  141.9930   79.9800  221.4660 C   0  0  0  0  0  0  0  0  0  0  0  0
  141.6830   78.8950  220.6330 C   0  0  0  0  0  0  0  0  0  0  0  0
  141.8570   79.1770  218.9050 Cl  0  0  0  0  0  0  0  0  0  0  0  0
  140.2670   72.0080  222.0770 N   0  0  0  0  0  0  0  0  0  0  0  0
  139.4380   71.5580  223.1140 N   0  0  0  0  0  0  0  0  0  0  0  0
  139.5070   70.3380  223.5360 C   0  0  0  0  0  0  0  0  0  0  0  0
  139.9050   70.0340  224.9270 C   0  0  0  0  0  0  0  0  0  0  0  0
  139.9260   68.7000  225.3590 C   0  0  0  0  0  0  0  0  0  0  0  0
  140.2850   68.3910  226.6720 C   0  0  0  0  0  0  0  0  0  0  0  0
  140.6330   69.4060  227.5650 C   0  0  0  0  0  0  0  0  0  0  0  0
  140.6450   70.7480  227.1450 C   0  0  0  0  0  0  0  0  0  0  0  0
  140.9730   71.8520  228.1190 C   0  0  0  0  0  0  0  0  0  0  0  0
  141.9060   71.3940  229.0290 F   0  0  0  0  0  0  0  0  0  0  0  0
  141.4910   72.9520  227.4580 F   0  0  0  0  0  0  0  0  0  0  0  0
  139.8370   72.2540  228.8000 F   0  0  0  0  0  0  0  0  0  0  0  0
  140.2560   71.0560  225.8290 C   0  0  0  0  0  0  0  0  0  0  0  0
  138.8900   74.0530  223.0020 H   0  0  0  0  0  0  0  0  0  0  0  0
  142.5550   73.7855  221.5670 H   0  0  0  0  0  0  0  0  0  0  0  0
  142.1400   73.7458  219.0552 H   0  0  0  0  0  0  0  0  0  0  0  0
  140.3928   74.1231  219.3585 H   0  0  0  0  0  0  0  0  0  0  0  0
  142.7793   75.9767  219.8088 H   0  0  0  0  0  0  0  0  0  0  0  0
  141.5030   76.1323  218.5537 H   0  0  0  0  0  0  0  0  0  0  0  0
  140.7370   76.6668  223.0635 H   0  0  0  0  0  0  0  0  0  0  0  0
  141.2997   78.6067  224.5116 H   0  0  0  0  0  0  0  0  0  0  0  0
  142.3474   80.9221  221.0224 H   0  0  0  0  0  0  0  0  0  0  0  0
  139.2658   69.5132  222.8493 H   0  0  0  0  0  0  0  0  0  0  0  0
  139.6584   67.8937  224.6602 H   0  0  0  0  0  0  0  0  0  0  0  0
  140.2938   67.3426  227.0047 H   0  0  0  0  0  0  0  0  0  0  0  0
  140.8991   69.1548  228.6023 H   0  0  0  0  0  0  0  0  0  0  0  0
  140.2258   72.1057  225.5015 H   0  0  0  0  0  0  0  0  0  0  0  0
  1  2  1  0
  2  3  2  0
  3  4  1  0
  4  5  1  0
  5  6  1  0
  6  7  1  0
  7  8  2  0
  8  9  1  0
  9 10  2  0
 10 11  1  0
 10 12  1  0
 12 13  2  0
 13 14  1  0
  2 15  1  0
 15 16  1  0
 16 17  2  0
 17 18  1  0
 18 19  2  0
 19 20  1  0
 20 21  2  0
 21 22  1  0
 22 23  1  0
 23 24  1  0
 23 25  1  0
 23 26  1  0
 22 27  2  0
 13  7  1  0
 27 18  1  0
  1 28  1  0
  3 29  1  0
  4 30  1  0
  4 31  1  0
  5 32  1  0
  5 33  1  0
  8 34  1  0
  9 35  1  0
 12 36  1  0
 17 37  1  0
 19 38  1  0
 20 39  1  0
 21 40  1  0
 27 41  1  0
M  CHG  1  15  -1
M  END
>  <meeko>  (20) 
{"free_energy": -7.08, "intermolecular_energy": -10.36, "internal_energy": -0.83, "cluster_size": 6, "cluster_id": 1, "rank_in_cluster": 3}

$$$$
