
     RDKit          3D

 63 66  0  0  0  0  0  0  0  0999 V2000
  143.7030   83.5700  216.7870 C   0  0  0  0  0  0  0  0  0  0  0  0
  143.8770   82.2090  217.4610 C   0  0  0  0  0  0  0  0  0  0  0  0
  142.6340   81.3370  217.3720 C   0  0  0  0  0  0  0  0  0  0  0  0
  142.3690   80.7350  216.1330 O   0  0  0  0  0  0  0  0  0  0  0  0
  141.8580   81.1430  218.4240 N   0  0  0  0  0  0  0  0  0  0  0  0
  141.3400   82.2870  219.1400 C   0  0  0  0  0  0  0  0  0  0  0  0
  140.6350   83.2900  218.4570 C   0  0  0  0  0  0  0  0  0  0  0  0
  140.1010   84.3750  219.1610 C   0  0  0  0  0  0  0  0  0  0  0  0
  140.2790   84.4710  220.5420 C   0  0  0  0  0  0  0  0  0  0  0  0
  140.9860   83.4790  221.2280 C   0  0  0  0  0  0  0  0  0  0  0  0
  141.5060   82.3830  220.5310 C   0  0  0  0  0  0  0  0  0  0  0  0
  141.5830   79.7850  218.9650 C   0  0  0  0  0  0  0  0  0  0  0  0
  140.2050   79.7430  219.6800 C   0  0  0  0  0  0  0  0  0  0  0  0
  139.4330   78.4300  219.4610 C   0  0  0  0  0  0  0  0  0  0  0  0
  140.3540   77.2780  219.4650 N   0  0  0  0  0  0  0  0  0  0  0  0
  140.1680   76.1010  220.2930 C   0  0  0  0  0  0  0  0  0  0  0  0
  140.9660   75.1300  220.1560 O   0  0  0  0  0  0  0  0  0  0  0  0
  139.1110   76.0120  221.3840 C   0  0  1  0  0  0  0  0  0  0  0  0
  138.8430   74.6060  221.7390 N   0  0  0  0  0  0  0  0  0  0  0  0
  139.5350   76.8860  222.6070 C   0  0  0  0  0  0  0  0  0  0  0  0
  141.0630   77.1170  222.7400 C   0  0  0  0  0  0  0  0  0  0  0  0
  141.1710   78.5550  223.0820 C   0  0  0  0  0  0  0  0  0  0  0  0
  142.3410   79.2510  223.3970 C   0  0  0  0  0  0  0  0  0  0  0  0
  142.2530   80.6190  223.7000 C   0  0  0  0  0  0  0  0  0  0  0  0
  141.0050   81.2680  223.6830 C   0  0  0  0  0  0  0  0  0  0  0  0
  139.8440   80.5520  223.3580 C   0  0  0  0  0  0  0  0  0  0  0  0
  139.9540   79.1910  223.0570 C   0  0  0  0  0  0  0  0  0  0  0  0
  138.8480   78.2780  222.6910 C   0  0  0  0  0  0  0  0  0  0  0  0
  141.5010   77.2990  218.5390 C   0  0  0  0  0  0  0  0  0  0  0  0
  141.6960   78.6770  217.8910 C   0  0  0  0  0  0  0  0  0  0  0  0
  143.6033   84.3500  217.5562 H   0  0  0  0  0  0  0  0  0  0  0  0
  144.5812   83.7836  216.1599 H   0  0  0  0  0  0  0  0  0  0  0  0
  142.7994   83.5558  216.1599 H   0  0  0  0  0  0  0  0  0  0  0  0
  144.7106   81.6813  216.9746 H   0  0  0  0  0  0  0  0  0  0  0  0
  144.0732   82.3934  218.5275 H   0  0  0  0  0  0  0  0  0  0  0  0
  143.0650   80.4090  215.4790 H   0  0  0  0  0  0  0  0  0  0  0  0
  140.5021   83.2232  217.3671 H   0  0  0  0  0  0  0  0  0  0  0  0
  139.5395   85.1542  218.6247 H   0  0  0  0  0  0  0  0  0  0  0  0
  139.8625   85.3282  221.0913 H   0  0  0  0  0  0  0  0  0  0  0  0
  141.1333   83.5601  222.3151 H   0  0  0  0  0  0  0  0  0  0  0  0
  142.0466   81.5940  221.0744 H   0  0  0  0  0  0  0  0  0  0  0  0
  142.3659   79.5738  219.7082 H   0  0  0  0  0  0  0  0  0  0  0  0
  140.3702   79.8725  220.7598 H   0  0  0  0  0  0  0  0  0  0  0  0
  139.5947   80.5500  219.2484 H   0  0  0  0  0  0  0  0  0  0  0  0
  138.6955   78.3057  220.2676 H   0  0  0  0  0  0  0  0  0  0  0  0
  138.9269   78.4753  218.4854 H   0  0  0  0  0  0  0  0  0  0  0  0
  138.1592   76.4189  221.0117 H   0  0  0  0  0  0  0  0  0  0  0  0
  138.7290   74.4730  222.7680 H   0  0  0  0  0  0  0  0  0  0  0  0
  137.9900   74.2500  221.2550 H   0  0  0  0  0  0  0  0  0  0  0  0
  139.6380   74.0070  221.4150 H   0  0  0  0  0  0  0  0  0  0  0  0
  139.1834   76.2587  223.4394 H   0  0  0  0  0  0  0  0  0  0  0  0
  141.4866   76.4907  223.5389 H   0  0  0  0  0  0  0  0  0  0  0  0
  141.6158   76.8528  221.8264 H   0  0  0  0  0  0  0  0  0  0  0  0
  143.3132   78.7365  223.4074 H   0  0  0  0  0  0  0  0  0  0  0  0
  143.1622   81.1848  223.9513 H   0  0  0  0  0  0  0  0  0  0  0  0
  140.9398   82.3390  223.9251 H   0  0  0  0  0  0  0  0  0  0  0  0
  138.8644   81.0520  223.3402 H   0  0  0  0  0  0  0  0  0  0  0  0
  138.0634   78.2828  223.4620 H   0  0  0  0  0  0  0  0  0  0  0  0
  138.3491   78.5655  221.7537 H   0  0  0  0  0  0  0  0  0  0  0  0
  142.4121   77.0376  219.0972 H   0  0  0  0  0  0  0  0  0  0  0  0
  141.3017   76.5731  217.7369 H   0  0  0  0  0  0  0  0  0  0  0  0
  142.6905   78.7226  217.4232 H   0  0  0  0  0  0  0  0  0  0  0  0
  140.9187   78.8316  217.1282 H   0  0  0  0  0  0  0  0  0  0  0  0
  1  2  1  0
  2  3  1  0
  3  4  1  0
  3  5  2  0
  5  6  1  0
  6  7  2  0
  7  8  1  0
  8  9  2  0
  9 10  1  0
 10 11  2  0
  5 12  1  0
 12 13  1  0
 13 14  1  0
 14 15  1  0
 15 16  1  0
 16 17  2  0
 16 18  1  0
 18 19  1  0
 18 20  1  0
 20 21  1  0
 21 22  1  0
 22 23  2  0
 23 24  1  0
 24 25  2  0
 25 26  1  0
 26 27  2  0
 27 28  1  0
 15 29  1  0
 29 30  1  0
 11  6  1  0
 30 12  1  0
 28 20  1  0
 27 22  1  0
  1 31  1  0
  1 32  1  0
  1 33  1  0
  2 34  1  0
  2 35  1  0
  4 36  1  0
  7 37  1  0
  8 38  1  0
  9 39  1  0
 10 40  1  0
 11 41  1  0
 12 42  1  0
 13 43  1  0
 13 44  1  0
 14 45  1  0
 14 46  1  0
 18 47  1  6
 19 48  1  0
 19 49  1  0
 19 50  1  0
 20 51  1  0
 21 52  1  0
 21 53  1  0
 23 54  1  0
 24 55  1  0
 25 56  1  0
 26 57  1  0
 28 58  1  0
 28 59  1  0
 29 60  1  0
 29 61  1  0
 30 62  1  0
 30 63  1  0
M  CHG  2   5   1  19   1
M  END
>  <meeko>  (1) 
{"free_energy": -6.4, "intermolecular_energy": -8.79, "internal_energy": -2.9, "cluster_size": 12, "cluster_id": 2, "rank_in_cluster": 8}

$$$$

     RDKit          3D

 63 66  0  0  0  0  0  0  0  0999 V2000
  140.3480   71.6220  222.9440 C   0  0  0  0  0  0  0  0  0  0  0  0
  141.1280   71.8630  221.6520 C   0  0  0  0  0  0  0  0  0  0  0  0
  141.2920   73.3380  221.3210 C   0  0  0  0  0  0  0  0  0  0  0  0
  140.5090   74.2430  222.0530 O   0  0  0  0  0  0  0  0  0  0  0  0
  142.1510   73.7420  220.4010 N   0  0  0  0  0  0  0  0  0  0  0  0
  143.4440   73.1030  220.3130 C   0  0  0  0  0  0  0  0  0  0  0  0
  143.5830   71.8720  219.6530 C   0  0  0  0  0  0  0  0  0  0  0  0
  144.8430   71.2760  219.5360 C   0  0  0  0  0  0  0  0  0  0  0  0
  145.9660   71.8980  220.0860 C   0  0  0  0  0  0  0  0  0  0  0  0
  145.8340   73.1210  220.7500 C   0  0  0  0  0  0  0  0  0  0  0  0
  144.5790   73.7280  220.8540 C   0  0  0  0  0  0  0  0  0  0  0  0
  141.8750   74.9070  219.5180 C   0  0  0  0  0  0  0  0  0  0  0  0
  142.7790   76.1120  219.8940 C   0  0  0  0  0  0  0  0  0  0  0  0
  143.2710   76.9200  218.6810 C   0  0  0  0  0  0  0  0  0  0  0  0
  142.2120   77.0230  217.6610 N   0  0  0  0  0  0  0  0  0  0  0  0
  141.7760   78.2780  217.0770 C   0  0  0  0  0  0  0  0  0  0  0  0
  140.9230   78.2500  216.1440 O   0  0  0  0  0  0  0  0  0  0  0  0
  142.2280   79.6360  217.5930 C   0  0  1  0  0  0  0  0  0  0  0  0
  142.1310   80.6570  216.5340 N   0  0  0  0  0  0  0  0  0  0  0  0
  141.4290   80.0070  218.8820 C   0  0  0  0  0  0  0  0  0  0  0  0
  140.8590   78.7950  219.6630 C   0  0  0  0  0  0  0  0  0  0  0  0
  141.1430   79.1250  221.0800 C   0  0  0  0  0  0  0  0  0  0  0  0
  140.7490   78.3920  222.2020 C   0  0  0  0  0  0  0  0  0  0  0  0
  141.1080   78.8600  223.4760 C   0  0  0  0  0  0  0  0  0  0  0  0
  141.8520   80.0470  223.6090 C   0  0  0  0  0  0  0  0  0  0  0  0
  142.2430   80.7640  222.4690 C   0  0  0  0  0  0  0  0  0  0  0  0
  141.8770   80.2790  221.2100 C   0  0  0  0  0  0  0  0  0  0  0  0
  142.1980   80.8930  219.9010 C   0  0  0  0  0  0  0  0  0  0  0  0
  141.5960   75.7780  217.1660 C   0  0  0  0  0  0  0  0  0  0  0  0
  141.9920   74.5620  218.0150 C   0  0  0  0  0  0  0  0  0  0  0  0
  140.9985   71.8230  223.8080 H   0  0  0  0  0  0  0  0  0  0  0  0
  139.4769   72.2929  222.9770 H   0  0  0  0  0  0  0  0  0  0  0  0
  140.0072   70.5767  222.9770 H   0  0  0  0  0  0  0  0  0  0  0  0
  142.1269   71.4146  221.7572 H   0  0  0  0  0  0  0  0  0  0  0  0
  140.5552   71.4045  220.8325 H   0  0  0  0  0  0  0  0  0  0  0  0
  139.7230   73.9980  222.6370 H   0  0  0  0  0  0  0  0  0  0  0  0
  142.6991   71.3749  219.2269 H   0  0  0  0  0  0  0  0  0  0  0  0
  144.9496   70.3158  219.0099 H   0  0  0  0  0  0  0  0  0  0  0  0
  146.9552   71.4251  219.9966 H   0  0  0  0  0  0  0  0  0  0  0  0
  146.7176   73.6058  221.1907 H   0  0  0  0  0  0  0  0  0  0  0  0
  144.4803   74.6989  221.3616 H   0  0  0  0  0  0  0  0  0  0  0  0
  140.8264   75.1931  219.6873 H   0  0  0  0  0  0  0  0  0  0  0  0
  142.2061   76.7843  220.5495 H   0  0  0  0  0  0  0  0  0  0  0  0
  143.6713   75.7014  220.3893 H   0  0  0  0  0  0  0  0  0  0  0  0
  143.5545   77.9304  219.0108 H   0  0  0  0  0  0  0  0  0  0  0  0
  144.1380   76.4056  218.2408 H   0  0  0  0  0  0  0  0  0  0  0  0
  143.2903   79.5903  217.8747 H   0  0  0  0  0  0  0  0  0  0  0  0
  141.7910   81.5740  216.8990 H   0  0  0  0  0  0  0  0  0  0  0  0
  143.0510   80.8000  216.0620 H   0  0  0  0  0  0  0  0  0  0  0  0
  141.4670   80.3300  215.7940 H   0  0  0  0  0  0  0  0  0  0  0  0
  140.6015   80.5887  218.4496 H   0  0  0  0  0  0  0  0  0  0  0  0
  139.7770   78.6928  219.4933 H   0  0  0  0  0  0  0  0  0  0  0  0
  141.3042   77.8389  219.3505 H   0  0  0  0  0  0  0  0  0  0  0  0
  140.1679   77.4648  222.0893 H   0  0  0  0  0  0  0  0  0  0  0  0
  140.8071   78.2976  224.3722 H   0  0  0  0  0  0  0  0  0  0  0  0
  142.1274   80.4131  224.6090 H   0  0  0  0  0  0  0  0  0  0  0  0
  142.8271   81.6913  222.5637 H   0  0  0  0  0  0  0  0  0  0  0  0
  141.8466   81.9345  219.8592 H   0  0  0  0  0  0  0  0  0  0  0  0
  143.2791   80.9327  219.7017 H   0  0  0  0  0  0  0  0  0  0  0  0
  140.5019   75.8884  217.1927 H   0  0  0  0  0  0  0  0  0  0  0  0
  141.9543   75.6067  216.1402 H   0  0  0  0  0  0  0  0  0  0  0  0
  141.3231   73.7207  217.7810 H   0  0  0  0  0  0  0  0  0  0  0  0
  143.0321   74.2854  217.7874 H   0  0  0  0  0  0  0  0  0  0  0  0
  1  2  1  0
  2  3  1  0
  3  4  1  0
  3  5  2  0
  5  6  1  0
  6  7  2  0
  7  8  1  0
  8  9  2  0
  9 10  1  0
 10 11  2  0
  5 12  1  0
 12 13  1  0
 13 14  1  0
 14 15  1  0
 15 16  1  0
 16 17  2  0
 16 18  1  0
 18 19  1  0
 18 20  1  0
 20 21  1  0
 21 22  1  0
 22 23  2  0
 23 24  1  0
 24 25  2  0
 25 26  1  0
 26 27  2  0
 27 28  1  0
 15 29  1  0
 29 30  1  0
 11  6  1  0
 30 12  1  0
 28 20  1  0
 27 22  1  0
  1 31  1  0
  1 32  1  0
  1 33  1  0
  2 34  1  0
  2 35  1  0
  4 36  1  0
  7 37  1  0
  8 38  1  0
  9 39  1  0
 10 40  1  0
 11 41  1  0
 12 42  1  0
 13 43  1  0
 13 44  1  0
 14 45  1  0
 14 46  1  0
 18 47  1  1
 19 48  1  0
 19 49  1  0
 19 50  1  0
 20 51  1  0
 21 52  1  0
 21 53  1  0
 23 54  1  0
 24 55  1  0
 25 56  1  0
 26 57  1  0
 28 58  1  0
 28 59  1  0
 29 60  1  0
 29 61  1  0
 30 62  1  0
 30 63  1  0
M  CHG  2   5   1  19   1
M  END
>  <meeko>  (2) 
{"free_energy": -7.4, "intermolecular_energy": -9.79, "internal_energy": -2.16, "cluster_size": 8, "cluster_id": 1, "rank_in_cluster": 3}

$$$$

     RDKit          3D

 63 66  0  0  0  0  0  0  0  0999 V2000
  143.6830   83.5460  216.6530 C   0  0  0  0  0  0  0  0  0  0  0  0
  143.8260   82.2510  217.4530 C   0  0  0  0  0  0  0  0  0  0  0  0
  142.6000   81.3560  217.3600 C   0  0  0  0  0  0  0  0  0  0  0  0
  142.3520   80.7470  216.1210 O   0  0  0  0  0  0  0  0  0  0  0  0
  141.8230   81.1490  218.4100 N   0  0  0  0  0  0  0  0  0  0  0  0
  141.2890   82.2830  219.1280 C   0  0  0  0  0  0  0  0  0  0  0  0
  141.4440   82.3770  220.5200 C   0  0  0  0  0  0  0  0  0  0  0  0
  140.9610   83.4970  221.2050 C   0  0  0  0  0  0  0  0  0  0  0  0
  140.3120   84.5190  220.5100 C   0  0  0  0  0  0  0  0  0  0  0  0
  140.1490   84.4290  219.1240 C   0  0  0  0  0  0  0  0  0  0  0  0
  140.6460   83.3200  218.4320 C   0  0  0  0  0  0  0  0  0  0  0  0
  141.5630   79.7850  218.9450 C   0  0  0  0  0  0  0  0  0  0  0  0
  140.1800   79.7220  219.6490 C   0  0  0  0  0  0  0  0  0  0  0  0
  139.4280   78.3990  219.4210 C   0  0  0  0  0  0  0  0  0  0  0  0
  140.3650   77.2610  219.4280 N   0  0  0  0  0  0  0  0  0  0  0  0
  140.1890   76.0790  220.2520 C   0  0  0  0  0  0  0  0  0  0  0  0
  141.0000   75.1190  220.1180 O   0  0  0  0  0  0  0  0  0  0  0  0
  139.1250   75.9720  221.3350 C   0  0  1  0  0  0  0  0  0  0  0  0
  138.8780   74.5620  221.6890 N   0  0  0  0  0  0  0  0  0  0  0  0
  139.5250   76.8540  222.5600 C   0  0  0  0  0  0  0  0  0  0  0  0
  141.0480   77.1020  222.7110 C   0  0  0  0  0  0  0  0  0  0  0  0
  141.1360   78.5420  223.0510 C   0  0  0  0  0  0  0  0  0  0  0  0
  142.2950   79.2510  223.3780 C   0  0  0  0  0  0  0  0  0  0  0  0
  142.1890   80.6190  223.6760 C   0  0  0  0  0  0  0  0  0  0  0  0
  140.9340   81.2540  223.6430 C   0  0  0  0  0  0  0  0  0  0  0  0
  139.7840   80.5250  223.3070 C   0  0  0  0  0  0  0  0  0  0  0  0
  139.9130   79.1640  223.0110 C   0  0  0  0  0  0  0  0  0  0  0  0
  138.8210   78.2380  222.6330 C   0  0  0  0  0  0  0  0  0  0  0  0
  141.5180   77.3000  218.5110 C   0  0  0  0  0  0  0  0  0  0  0  0
  141.6980   78.6820  217.8690 C   0  0  0  0  0  0  0  0  0  0  0  0
  143.5891   84.3960  217.3449 H   0  0  0  0  0  0  0  0  0  0  0  0
  144.5712   83.6855  216.0192 H   0  0  0  0  0  0  0  0  0  0  0  0
  142.7858   83.4883  216.0192 H   0  0  0  0  0  0  0  0  0  0  0  0
  144.6948   81.6962  217.0692 H   0  0  0  0  0  0  0  0  0  0  0  0
  143.9504   82.5295  218.5099 H   0  0  0  0  0  0  0  0  0  0  0  0
  143.0570   80.3970  215.4890 H   0  0  0  0  0  0  0  0  0  0  0  0
  141.9458   81.5691  221.0727 H   0  0  0  0  0  0  0  0  0  0  0  0
  141.0930   83.5726  222.2944 H   0  0  0  0  0  0  0  0  0  0  0  0
  139.9286   85.3956  221.0528 H   0  0  0  0  0  0  0  0  0  0  0  0
  139.6299   85.2305  218.5781 H   0  0  0  0  0  0  0  0  0  0  0  0
  140.5331   83.2596  217.3395 H   0  0  0  0  0  0  0  0  0  0  0  0
  142.3439   79.5825  219.6928 H   0  0  0  0  0  0  0  0  0  0  0  0
  140.3348   79.8512  220.7304 H   0  0  0  0  0  0  0  0  0  0  0  0
  139.5620   80.5214  219.2143 H   0  0  0  0  0  0  0  0  0  0  0  0
  138.6869   78.2618  220.2222 H   0  0  0  0  0  0  0  0  0  0  0  0
  138.9276   78.4400  218.4423 H   0  0  0  0  0  0  0  0  0  0  0  0
  138.1690   76.3617  220.9552 H   0  0  0  0  0  0  0  0  0  0  0  0
  138.7700   74.4250  222.7180 H   0  0  0  0  0  0  0  0  0  0  0  0
  138.0290   74.1950  221.2070 H   0  0  0  0  0  0  0  0  0  0  0  0
  139.6810   73.9740  221.3610 H   0  0  0  0  0  0  0  0  0  0  0  0
  139.1708   76.2247  223.3897 H   0  0  0  0  0  0  0  0  0  0  0  0
  141.4687   76.4821  223.5165 H   0  0  0  0  0  0  0  0  0  0  0  0
  141.6148   76.8419  221.8048 H   0  0  0  0  0  0  0  0  0  0  0  0
  143.2723   78.7467  223.4015 H   0  0  0  0  0  0  0  0  0  0  0  0
  143.0891   81.1955  223.9358 H   0  0  0  0  0  0  0  0  0  0  0  0
  140.8546   82.3249  223.8813 H   0  0  0  0  0  0  0  0  0  0  0  0
  138.7992   81.0142  223.2768 H   0  0  0  0  0  0  0  0  0  0  0  0
  138.0271   78.2352  223.3944 H   0  0  0  0  0  0  0  0  0  0  0  0
  138.3300   78.5183  221.6894 H   0  0  0  0  0  0  0  0  0  0  0  0
  142.4285   77.0496  219.0751 H   0  0  0  0  0  0  0  0  0  0  0  0
  141.3352   76.5734  217.7056 H   0  0  0  0  0  0  0  0  0  0  0  0
  142.6948   78.7427  217.4078 H   0  0  0  0  0  0  0  0  0  0  0  0
  140.9233   78.8282  217.1019 H   0  0  0  0  0  0  0  0  0  0  0  0
  1  2  1  0
  2  3  1  0
  3  4  1  0
  3  5  2  0
  5  6  1  0
  6  7  2  0
  7  8  1  0
  8  9  2  0
  9 10  1  0
 10 11  2  0
  5 12  1  0
 12 13  1  0
 13 14  1  0
 14 15  1  0
 15 16  1  0
 16 17  2  0
 16 18  1  0
 18 19  1  0
 18 20  1  0
 20 21  1  0
 21 22  1  0
 22 23  2  0
 23 24  1  0
 24 25  2  0
 25 26  1  0
 26 27  2  0
 27 28  1  0
 15 29  1  0
 29 30  1  0
 11  6  1  0
 30 12  1  0
 28 20  1  0
 27 22  1  0
  1 31  1  0
  1 32  1  0
  1 33  1  0
  2 34  1  0
  2 35  1  0
  4 36  1  0
  7 37  1  0
  8 38  1  0
  9 39  1  0
 10 40  1  0
 11 41  1  0
 12 42  1  0
 13 43  1  0
 13 44  1  0
 14 45  1  0
 14 46  1  0
 18 47  1  6
 19 48  1  0
 19 49  1  0
 19 50  1  0
 20 51  1  0
 21 52  1  0
 21 53  1  0
 23 54  1  0
 24 55  1  0
 25 56  1  0
 26 57  1  0
 28 58  1  0
 28 59  1  0
 29 60  1  0
 29 61  1  0
 30 62  1  0
 30 63  1  0
M  CHG  2   5   1  19   1
M  END
>  <meeko>  (3) 
{"free_energy": -6.43, "intermolecular_energy": -8.82, "internal_energy": -2.89, "cluster_size": 12, "cluster_id": 2, "rank_in_cluster": 5}

$$$$

     RDKit          3D

 63 66  0  0  0  0  0  0  0  0999 V2000
  139.5720   71.4830  223.6940 C   0  0  0  0  0  0  0  0  0  0  0  0
  140.7050   71.5510  222.6710 C   0  0  0  0  0  0  0  0  0  0  0  0
  140.6770   72.8200  221.8340 C   0  0  0  0  0  0  0  0  0  0  0  0
  139.9510   73.9040  222.3500 O   0  0  0  0  0  0  0  0  0  0  0  0
  141.3260   72.8960  220.6840 N   0  0  0  0  0  0  0  0  0  0  0  0
  142.1720   71.7970  220.2770 C   0  0  0  0  0  0  0  0  0  0  0  0
  143.5650   71.8870  220.4150 C   0  0  0  0  0  0  0  0  0  0  0  0
  144.3770   70.8060  220.0570 C   0  0  0  0  0  0  0  0  0  0  0  0
  143.8050   69.6370  219.5490 C   0  0  0  0  0  0  0  0  0  0  0  0
  142.4180   69.5430  219.4030 C   0  0  0  0  0  0  0  0  0  0  0  0
  141.6010   70.6160  219.7760 C   0  0  0  0  0  0  0  0  0  0  0  0
  141.3020   74.1220  219.8420 C   0  0  0  0  0  0  0  0  0  0  0  0
  142.3320   75.1650  220.3550 C   0  0  0  0  0  0  0  0  0  0  0  0
  143.0440   75.9370  219.2310 C   0  0  0  0  0  0  0  0  0  0  0  0
  142.1090   76.2340  218.1310 N   0  0  0  0  0  0  0  0  0  0  0  0
  141.9130   77.5620  217.5770 C   0  0  0  0  0  0  0  0  0  0  0  0
  141.1540   77.6960  216.5750 O   0  0  0  0  0  0  0  0  0  0  0  0
  142.5070   78.8170  218.2000 C   0  0  1  0  0  0  0  0  0  0  0  0
  142.6750   79.8740  217.1850 N   0  0  0  0  0  0  0  0  0  0  0  0
  141.6410   79.2660  219.4190 C   0  0  0  0  0  0  0  0  0  0  0  0
  141.3570   78.1500  220.4580 C   0  0  0  0  0  0  0  0  0  0  0  0
  141.5570   78.8250  221.7620 C   0  0  0  0  0  0  0  0  0  0  0  0
  141.3350   78.2760  223.0270 C   0  0  0  0  0  0  0  0  0  0  0  0
  141.5770   79.0700  224.1600 C   0  0  0  0  0  0  0  0  0  0  0  0
  142.0340   80.3920  224.0130 C   0  0  0  0  0  0  0  0  0  0  0  0
  142.2560   80.9220  222.7330 C   0  0  0  0  0  0  0  0  0  0  0  0
  142.0110   80.1140  221.6190 C   0  0  0  0  0  0  0  0  0  0  0  0
  142.1890   80.4940  220.1990 C   0  0  0  0  0  0  0  0  0  0  0  0
  141.3680   75.1150  217.5230 C   0  0  0  0  0  0  0  0  0  0  0  0
  141.5050   73.8210  218.3380 C   0  0  0  0  0  0  0  0  0  0  0  0
  139.9932   71.5083  224.7098 H   0  0  0  0  0  0  0  0  0  0  0  0
  138.8998   72.3424  223.5543 H   0  0  0  0  0  0  0  0  0  0  0  0
  139.0074   70.5494  223.5543 H   0  0  0  0  0  0  0  0  0  0  0  0
  141.6643   71.5065  223.2075 H   0  0  0  0  0  0  0  0  0  0  0  0
  140.5779   70.7017  221.9836 H   0  0  0  0  0  0  0  0  0  0  0  0
  139.1480   73.8350  222.9560 H   0  0  0  0  0  0  0  0  0  0  0  0
  144.0196   72.8094  220.8055 H   0  0  0  0  0  0  0  0  0  0  0  0
  145.4683   70.8764  220.1757 H   0  0  0  0  0  0  0  0  0  0  0  0
  144.4464   68.7901  219.2638 H   0  0  0  0  0  0  0  0  0  0  0  0
  141.9688   68.6256  218.9949 H   0  0  0  0  0  0  0  0  0  0  0  0
  140.5086   70.5341  219.6765 H   0  0  0  0  0  0  0  0  0  0  0  0
  140.2945   74.5535  219.9361 H   0  0  0  0  0  0  0  0  0  0  0  0
  141.8043   75.8891  220.9931 H   0  0  0  0  0  0  0  0  0  0  0  0
  143.1067   74.6085  220.9028 H   0  0  0  0  0  0  0  0  0  0  0  0
  143.4383   76.8812  219.6348 H   0  0  0  0  0  0  0  0  0  0  0  0
  143.8646   75.3172  218.8406 H   0  0  0  0  0  0  0  0  0  0  0  0
  143.5146   78.5994  218.5840 H   0  0  0  0  0  0  0  0  0  0  0  0
  142.4050   79.5520  216.2290 H   0  0  0  0  0  0  0  0  0  0  0  0
  142.1160   80.7220  217.4260 H   0  0  0  0  0  0  0  0  0  0  0  0
  143.6760   80.1780  217.1600 H   0  0  0  0  0  0  0  0  0  0  0  0
  140.7051   79.5467  218.9138 H   0  0  0  0  0  0  0  0  0  0  0  0
  140.3260   77.7785  220.3627 H   0  0  0  0  0  0  0  0  0  0  0  0
  142.0065   77.2717  220.3285 H   0  0  0  0  0  0  0  0  0  0  0  0
  140.9774   77.2413  223.1339 H   0  0  0  0  0  0  0  0  0  0  0  0
  141.4086   78.6566  225.1654 H   0  0  0  0  0  0  0  0  0  0  0  0
  142.2177   81.0115  224.9032 H   0  0  0  0  0  0  0  0  0  0  0  0
  142.6161   81.9539  222.6085 H   0  0  0  0  0  0  0  0  0  0  0  0
  141.6127   81.3999  219.9599 H   0  0  0  0  0  0  0  0  0  0  0  0
  143.2340   80.7278  219.9475 H   0  0  0  0  0  0  0  0  0  0  0  0
  140.3034   75.3854  217.4631 H   0  0  0  0  0  0  0  0  0  0  0  0
  141.7902   74.9323  216.5238 H   0  0  0  0  0  0  0  0  0  0  0  0
  140.7457   73.0981  218.0050 H   0  0  0  0  0  0  0  0  0  0  0  0
  142.5103   73.4014  218.1851 H   0  0  0  0  0  0  0  0  0  0  0  0
  1  2  1  0
  2  3  1  0
  3  4  1  0
  3  5  2  0
  5  6  1  0
  6  7  2  0
  7  8  1  0
  8  9  2  0
  9 10  1  0
 10 11  2  0
  5 12  1  0
 12 13  1  0
 13 14  1  0
 14 15  1  0
 15 16  1  0
 16 17  2  0
 16 18  1  0
 18 19  1  0
 18 20  1  0
 20 21  1  0
 21 22  1  0
 22 23  2  0
 23 24  1  0
 24 25  2  0
 25 26  1  0
 26 27  2  0
 27 28  1  0
 15 29  1  0
 29 30  1  0
 11  6  1  0
 30 12  1  0
 28 20  1  0
 27 22  1  0
  1 31  1  0
  1 32  1  0
  1 33  1  0
  2 34  1  0
  2 35  1  0
  4 36  1  0
  7 37  1  0
  8 38  1  0
  9 39  1  0
 10 40  1  0
 11 41  1  0
 12 42  1  0
 13 43  1  0
 13 44  1  0
 14 45  1  0
 14 46  1  0
 18 47  1  1
 19 48  1  0
 19 49  1  0
 19 50  1  0
 20 51  1  0
 21 52  1  0
 21 53  1  0
 23 54  1  0
 24 55  1  0
 25 56  1  0
 26 57  1  0
 28 58  1  0
 28 59  1  0
 29 60  1  0
 29 61  1  0
 30 62  1  0
 30 63  1  0
M  CHG  2   5   1  19   1
M  END
>  <meeko>  (4) 
{"free_energy": -7.73, "intermolecular_energy": -10.12, "internal_energy": -1.81, "cluster_size": 8, "cluster_id": 1, "rank_in_cluster": 1}

$$$$

     RDKit          3D

 63 66  0  0  0  0  0  0  0  0999 V2000
  140.3050   71.6500  222.9220 C   0  0  0  0  0  0  0  0  0  0  0  0
  141.0990   71.8860  221.6380 C   0  0  0  0  0  0  0  0  0  0  0  0
  141.2700   73.3600  221.3060 C   0  0  0  0  0  0  0  0  0  0  0  0
  140.4880   74.2700  222.0330 O   0  0  0  0  0  0  0  0  0  0  0  0
  142.1340   73.7590  220.3870 N   0  0  0  0  0  0  0  0  0  0  0  0
  143.4250   73.1160  220.3060 C   0  0  0  0  0  0  0  0  0  0  0  0
  143.5620   71.8840  219.6470 C   0  0  0  0  0  0  0  0  0  0  0  0
  144.8210   71.2840  219.5350 C   0  0  0  0  0  0  0  0  0  0  0  0
  145.9440   71.9020  220.0910 C   0  0  0  0  0  0  0  0  0  0  0  0
  145.8130   73.1250  220.7540 C   0  0  0  0  0  0  0  0  0  0  0  0
  144.5590   73.7370  220.8520 C   0  0  0  0  0  0  0  0  0  0  0  0
  141.8650   74.9230  219.5010 C   0  0  0  0  0  0  0  0  0  0  0  0
  142.7650   76.1300  219.8850 C   0  0  0  0  0  0  0  0  0  0  0  0
  143.2680   76.9370  218.6760 C   0  0  0  0  0  0  0  0  0  0  0  0
  142.2180   77.0390  217.6450 N   0  0  0  0  0  0  0  0  0  0  0  0
  141.7860   78.2930  217.0570 C   0  0  0  0  0  0  0  0  0  0  0  0
  140.9420   78.2640  216.1160 O   0  0  0  0  0  0  0  0  0  0  0  0
  142.2330   79.6510  217.5770 C   0  0  1  0  0  0  0  0  0  0  0  0
  142.1340   80.6750  216.5190 N   0  0  0  0  0  0  0  0  0  0  0  0
  141.4310   80.0180  218.8650 C   0  0  0  0  0  0  0  0  0  0  0  0
  140.8560   78.8020  219.6380 C   0  0  0  0  0  0  0  0  0  0  0  0
  141.1370   79.1240  221.0570 C   0  0  0  0  0  0  0  0  0  0  0  0
  140.7380   78.3860  222.1740 C   0  0  0  0  0  0  0  0  0  0  0  0
  141.0950   78.8470  223.4510 C   0  0  0  0  0  0  0  0  0  0  0  0
  141.8400   80.0310  223.5930 C   0  0  0  0  0  0  0  0  0  0  0  0
  142.2350   80.7550  222.4580 C   0  0  0  0  0  0  0  0  0  0  0  0
  141.8720   80.2770  221.1950 C   0  0  0  0  0  0  0  0  0  0  0  0
  142.1980   80.8970  219.8910 C   0  0  0  0  0  0  0  0  0  0  0  0
  141.6070   75.7930  217.1460 C   0  0  0  0  0  0  0  0  0  0  0  0
  141.9960   74.5770  217.9990 C   0  0  0  0  0  0  0  0  0  0  0  0
  140.9498   71.8417  223.7923 H   0  0  0  0  0  0  0  0  0  0  0  0
  139.4409   72.3301  222.9490 H   0  0  0  0  0  0  0  0  0  0  0  0
  139.9527   70.6083  222.9490 H   0  0  0  0  0  0  0  0  0  0  0  0
  142.0956   71.4353  221.7546 H   0  0  0  0  0  0  0  0  0  0  0  0
  140.5339   71.4270  220.8134 H   0  0  0  0  0  0  0  0  0  0  0  0
  139.7060   74.0280  222.6230 H   0  0  0  0  0  0  0  0  0  0  0  0
  142.6780   71.3895  219.2180 H   0  0  0  0  0  0  0  0  0  0  0  0
  144.9269   70.3241  219.0083 H   0  0  0  0  0  0  0  0  0  0  0  0
  146.9318   71.4255  220.0068 H   0  0  0  0  0  0  0  0  0  0  0  0
  146.6962   73.6066  221.1990 H   0  0  0  0  0  0  0  0  0  0  0  0
  144.4613   74.7084  221.3588 H   0  0  0  0  0  0  0  0  0  0  0  0
  140.8147   75.2083  219.6604 H   0  0  0  0  0  0  0  0  0  0  0  0
  142.1852   76.8025  220.5342 H   0  0  0  0  0  0  0  0  0  0  0  0
  143.6527   75.7208  220.3895 H   0  0  0  0  0  0  0  0  0  0  0  0
  143.5481   77.9477  219.0076 H   0  0  0  0  0  0  0  0  0  0  0  0
  144.1391   76.4223  218.2444 H   0  0  0  0  0  0  0  0  0  0  0  0
  143.2949   79.6069  217.8607 H   0  0  0  0  0  0  0  0  0  0  0  0
  143.0550   80.8680  216.0680 H   0  0  0  0  0  0  0  0  0  0  0  0
  141.4500   80.3920  215.7830 H   0  0  0  0  0  0  0  0  0  0  0  0
  141.7730   81.5670  216.9300 H   0  0  0  0  0  0  0  0  0  0  0  0
  140.6067   80.6045  218.4332 H   0  0  0  0  0  0  0  0  0  0  0  0
  139.7742   78.7029  219.4649 H   0  0  0  0  0  0  0  0  0  0  0  0
  141.2998   77.8466  219.3214 H   0  0  0  0  0  0  0  0  0  0  0  0
  140.1549   77.4609  222.0551 H   0  0  0  0  0  0  0  0  0  0  0  0
  140.7910   78.2802  224.3433 H   0  0  0  0  0  0  0  0  0  0  0  0
  142.1137   80.3904  224.5960 H   0  0  0  0  0  0  0  0  0  0  0  0
  142.8194   81.6814  222.5597 H   0  0  0  0  0  0  0  0  0  0  0  0
  141.8485   81.9393  219.8537 H   0  0  0  0  0  0  0  0  0  0  0  0
  143.2798   80.9359  219.6954 H   0  0  0  0  0  0  0  0  0  0  0  0
  140.5126   75.9029  217.1633 H   0  0  0  0  0  0  0  0  0  0  0  0
  141.9747   75.6212  216.1236 H   0  0  0  0  0  0  0  0  0  0  0  0
  141.3296   73.7353  217.7593 H   0  0  0  0  0  0  0  0  0  0  0  0
  143.0381   74.3005  217.7809 H   0  0  0  0  0  0  0  0  0  0  0  0
  1  2  1  0
  2  3  1  0
  3  4  1  0
  3  5  2  0
  5  6  1  0
  6  7  2  0
  7  8  1  0
  8  9  2  0
  9 10  1  0
 10 11  2  0
  5 12  1  0
 12 13  1  0
 13 14  1  0
 14 15  1  0
 15 16  1  0
 16 17  2  0
 16 18  1  0
 18 19  1  0
 18 20  1  0
 20 21  1  0
 21 22  1  0
 22 23  2  0
 23 24  1  0
 24 25  2  0
 25 26  1  0
 26 27  2  0
 27 28  1  0
 15 29  1  0
 29 30  1  0
 11  6  1  0
 30 12  1  0
 28 20  1  0
 27 22  1  0
  1 31  1  0
  1 32  1  0
  1 33  1  0
  2 34  1  0
  2 35  1  0
  4 36  1  0
  7 37  1  0
  8 38  1  0
  9 39  1  0
 10 40  1  0
 11 41  1  0
 12 42  1  0
 13 43  1  0
 13 44  1  0
 14 45  1  0
 14 46  1  0
 18 47  1  1
 19 48  1  0
 19 49  1  0
 19 50  1  0
 20 51  1  0
 21 52  1  0
 21 53  1  0
 23 54  1  0
 24 55  1  0
 25 56  1  0
 26 57  1  0
 28 58  1  0
 28 59  1  0
 29 60  1  0
 29 61  1  0
 30 62  1  0
 30 63  1  0
M  CHG  2   5   1  19   1
M  END
>  <meeko>  (5) 
{"free_energy": -7.38, "intermolecular_energy": -9.77, "internal_energy": -2.13, "cluster_size": 8, "cluster_id": 1, "rank_in_cluster": 5}

$$$$

     RDKit          3D

 63 66  0  0  0  0  0  0  0  0999 V2000
  143.6260   83.5620  216.6360 C   0  0  0  0  0  0  0  0  0  0  0  0
  143.8230   82.2810  217.4460 C   0  0  0  0  0  0  0  0  0  0  0  0
  142.6290   81.3420  217.3770 C   0  0  0  0  0  0  0  0  0  0  0  0
  142.4120   80.6800  216.1590 O   0  0  0  0  0  0  0  0  0  0  0  0
  141.8490   81.1490  218.4270 N   0  0  0  0  0  0  0  0  0  0  0  0
  141.3340   82.2930  219.1440 C   0  0  0  0  0  0  0  0  0  0  0  0
  140.6450   83.3070  218.4600 C   0  0  0  0  0  0  0  0  0  0  0  0
  140.1140   84.3920  219.1650 C   0  0  0  0  0  0  0  0  0  0  0  0
  140.2780   84.4780  220.5490 C   0  0  0  0  0  0  0  0  0  0  0  0
  140.9690   83.4750  221.2350 C   0  0  0  0  0  0  0  0  0  0  0  0
  141.4860   82.3790  220.5370 C   0  0  0  0  0  0  0  0  0  0  0  0
  141.5670   79.7900  218.9630 C   0  0  0  0  0  0  0  0  0  0  0  0
  140.2010   79.7600  219.7020 C   0  0  0  0  0  0  0  0  0  0  0  0
  139.4100   78.4580  219.4880 C   0  0  0  0  0  0  0  0  0  0  0  0
  140.3170   77.2960  219.4680 N   0  0  0  0  0  0  0  0  0  0  0  0
  140.1300   76.1150  220.2910 C   0  0  0  0  0  0  0  0  0  0  0  0
  140.9140   75.1350  220.1340 O   0  0  0  0  0  0  0  0  0  0  0  0
  139.0920   76.0320  221.4000 C   0  0  1  0  0  0  0  0  0  0  0  0
  138.8170   74.6260  221.7540 N   0  0  0  0  0  0  0  0  0  0  0  0
  139.5450   76.8960  222.6190 C   0  0  0  0  0  0  0  0  0  0  0  0
  141.0760   77.1230  222.7200 C   0  0  0  0  0  0  0  0  0  0  0  0
  141.1960   78.5580  223.0690 C   0  0  0  0  0  0  0  0  0  0  0  0
  142.3750   79.2480  223.3620 C   0  0  0  0  0  0  0  0  0  0  0  0
  142.2970   80.6140  223.6760 C   0  0  0  0  0  0  0  0  0  0  0  0
  141.0510   81.2670  223.6910 C   0  0  0  0  0  0  0  0  0  0  0  0
  139.8810   80.5570  223.3880 C   0  0  0  0  0  0  0  0  0  0  0  0
  139.9800   79.1970  223.0750 C   0  0  0  0  0  0  0  0  0  0  0  0
  138.8640   78.2890  222.7280 C   0  0  0  0  0  0  0  0  0  0  0  0
  141.4480   77.3090  218.5220 C   0  0  0  0  0  0  0  0  0  0  0  0
  141.6470   78.6890  217.8800 C   0  0  0  0  0  0  0  0  0  0  0  0
  143.4952   84.4126  217.3211 H   0  0  0  0  0  0  0  0  0  0  0  0
  144.5082   83.7342  216.0019 H   0  0  0  0  0  0  0  0  0  0  0  0
  142.7328   83.4612  216.0019 H   0  0  0  0  0  0  0  0  0  0  0  0
  144.7063   81.7533  217.0571 H   0  0  0  0  0  0  0  0  0  0  0  0
  143.9489   82.5746  218.4986 H   0  0  0  0  0  0  0  0  0  0  0  0
  143.1330   80.3160  215.5540 H   0  0  0  0  0  0  0  0  0  0  0  0
  140.5226   83.2481  217.3684 H   0  0  0  0  0  0  0  0  0  0  0  0
  139.5656   85.1798  218.6277 H   0  0  0  0  0  0  0  0  0  0  0  0
  139.8633   85.3352  221.0996 H   0  0  0  0  0  0  0  0  0  0  0  0
  141.1061   83.5478  222.3240 H   0  0  0  0  0  0  0  0  0  0  0  0
  142.0134   81.5817  221.0812 H   0  0  0  0  0  0  0  0  0  0  0  0
  142.3606   79.5635  219.6903 H   0  0  0  0  0  0  0  0  0  0  0  0
  140.3865   79.8804  220.7795 H   0  0  0  0  0  0  0  0  0  0  0  0
  139.5930   80.5772  219.2866 H   0  0  0  0  0  0  0  0  0  0  0  0
  138.6854   78.3367  220.3067 H   0  0  0  0  0  0  0  0  0  0  0  0
  138.8872   78.5159  218.5219 H   0  0  0  0  0  0  0  0  0  0  0  0
  138.1382   76.4504  221.0461 H   0  0  0  0  0  0  0  0  0  0  0  0
  137.8890   74.3040  221.4000 H   0  0  0  0  0  0  0  0  0  0  0  0
  139.5590   73.9920  221.3860 H   0  0  0  0  0  0  0  0  0  0  0  0
  138.8280   74.5200  222.7950 H   0  0  0  0  0  0  0  0  0  0  0  0
  139.2102   76.2632  223.4541 H   0  0  0  0  0  0  0  0  0  0  0  0
  141.5154   76.4903  223.5052 H   0  0  0  0  0  0  0  0  0  0  0  0
  141.6075   76.8640  221.7924 H   0  0  0  0  0  0  0  0  0  0  0  0
  143.3457   78.7308  223.3469 H   0  0  0  0  0  0  0  0  0  0  0  0
  143.2131   81.1756  223.9111 H   0  0  0  0  0  0  0  0  0  0  0  0
  140.9948   82.3367  223.9410 H   0  0  0  0  0  0  0  0  0  0  0  0
  138.9028   81.0600  223.3962 H   0  0  0  0  0  0  0  0  0  0  0  0
  138.0971   78.2904  223.5166 H   0  0  0  0  0  0  0  0  0  0  0  0
  138.3450   78.5840  221.8041 H   0  0  0  0  0  0  0  0  0  0  0  0
  142.3657   77.0333  219.0623 H   0  0  0  0  0  0  0  0  0  0  0  0
  141.2268   76.5903  217.7192 H   0  0  0  0  0  0  0  0  0  0  0  0
  142.6331   78.7264  217.3941 H   0  0  0  0  0  0  0  0  0  0  0  0
  140.8576   78.8580  217.1329 H   0  0  0  0  0  0  0  0  0  0  0  0
  1  2  1  0
  2  3  1  0
  3  4  1  0
  3  5  2  0
  5  6  1  0
  6  7  2  0
  7  8  1  0
  8  9  2  0
  9 10  1  0
 10 11  2  0
  5 12  1  0
 12 13  1  0
 13 14  1  0
 14 15  1  0
 15 16  1  0
 16 17  2  0
 16 18  1  0
 18 19  1  0
 18 20  1  0
 20 21  1  0
 21 22  1  0
 22 23  2  0
 23 24  1  0
 24 25  2  0
 25 26  1  0
 26 27  2  0
 27 28  1  0
 15 29  1  0
 29 30  1  0
 11  6  1  0
 30 12  1  0
 28 20  1  0
 27 22  1  0
  1 31  1  0
  1 32  1  0
  1 33  1  0
  2 34  1  0
  2 35  1  0
  4 36  1  0
  7 37  1  0
  8 38  1  0
  9 39  1  0
 10 40  1  0
 11 41  1  0
 12 42  1  0
 13 43  1  0
 13 44  1  0
 14 45  1  0
 14 46  1  0
 18 47  1  6
 19 48  1  0
 19 49  1  0
 19 50  1  0
 20 51  1  0
 21 52  1  0
 21 53  1  0
 23 54  1  0
 24 55  1  0
 25 56  1  0
 26 57  1  0
 28 58  1  0
 28 59  1  0
 29 60  1  0
 29 61  1  0
 30 62  1  0
 30 63  1  0
M  CHG  2   5   1  19   1
M  END
>  <meeko>  (6) 
{"free_energy": -6.46, "intermolecular_energy": -8.85, "internal_energy": -2.83, "cluster_size": 12, "cluster_id": 2, "rank_in_cluster": 2}

$$$$

     RDKit          3D

 63 66  0  0  0  0  0  0  0  0999 V2000
  140.3690   71.8340  223.0110 C   0  0  0  0  0  0  0  0  0  0  0  0
  141.1400   72.0240  221.7060 C   0  0  0  0  0  0  0  0  0  0  0  0
  141.3410   73.4860  221.3400 C   0  0  0  0  0  0  0  0  0  0  0  0
  140.5960   74.4290  222.0630 O   0  0  0  0  0  0  0  0  0  0  0  0
  142.1970   73.8450  220.3980 N   0  0  0  0  0  0  0  0  0  0  0  0
  143.4770   73.1780  220.3150 C   0  0  0  0  0  0  0  0  0  0  0  0
  143.5930   71.9500  219.6470 C   0  0  0  0  0  0  0  0  0  0  0  0
  144.8410   71.3280  219.5350 C   0  0  0  0  0  0  0  0  0  0  0  0
  145.9730   71.9200  220.0990 C   0  0  0  0  0  0  0  0  0  0  0  0
  145.8630   73.1400  220.7720 C   0  0  0  0  0  0  0  0  0  0  0  0
  144.6200   73.7740  220.8710 C   0  0  0  0  0  0  0  0  0  0  0  0
  141.9330   74.9880  219.4830 C   0  0  0  0  0  0  0  0  0  0  0  0
  142.7790   76.2260  219.8880 C   0  0  0  0  0  0  0  0  0  0  0  0
  143.3110   77.0320  218.6890 C   0  0  0  0  0  0  0  0  0  0  0  0
  142.3050   77.0860  217.6130 N   0  0  0  0  0  0  0  0  0  0  0  0
  141.8630   78.3190  216.9860 C   0  0  0  0  0  0  0  0  0  0  0  0
  141.0630   78.2510  216.0100 O   0  0  0  0  0  0  0  0  0  0  0  0
  142.2450   79.6970  217.5050 C   0  0  1  0  0  0  0  0  0  0  0  0
  142.1190   80.7100  216.4390 N   0  0  0  0  0  0  0  0  0  0  0  0
  141.4100   80.0370  218.7790 C   0  0  0  0  0  0  0  0  0  0  0  0
  140.7260   78.8170  219.4500 C   0  0  0  0  0  0  0  0  0  0  0  0
  140.9620   79.0350  220.8970 C   0  0  0  0  0  0  0  0  0  0  0  0
  140.4680   78.2580  221.9480 C   0  0  0  0  0  0  0  0  0  0  0  0
  140.7940   78.6180  223.2650 C   0  0  0  0  0  0  0  0  0  0  0  0
  141.6040   79.7410  223.5120 C   0  0  0  0  0  0  0  0  0  0  0  0
  142.0950   80.5040  222.4420 C   0  0  0  0  0  0  0  0  0  0  0  0
  141.7600   80.1270  221.1380 C   0  0  0  0  0  0  0  0  0  0  0  0
  142.1830   80.8020  219.8890 C   0  0  0  0  0  0  0  0  0  0  0  0
  141.7540   75.8160  217.1060 C   0  0  0  0  0  0  0  0  0  0  0  0
  142.1410   74.6250  217.9940 C   0  0  0  0  0  0  0  0  0  0  0  0
  141.0442   72.0004  223.8633 H   0  0  0  0  0  0  0  0  0  0  0  0
  139.5389   72.5545  223.0547 H   0  0  0  0  0  0  0  0  0  0  0  0
  139.9687   70.8103  223.0547 H   0  0  0  0  0  0  0  0  0  0  0  0
  142.1272   71.5502  221.8104 H   0  0  0  0  0  0  0  0  0  0  0  0
  140.5452   71.5635  220.9034 H   0  0  0  0  0  0  0  0  0  0  0  0
  139.7930   74.2230  222.6390 H   0  0  0  0  0  0  0  0  0  0  0  0
  142.7016   71.4756  219.2107 H   0  0  0  0  0  0  0  0  0  0  0  0
  144.9308   70.3703  219.0014 H   0  0  0  0  0  0  0  0  0  0  0  0
  146.9520   71.4258  220.0135 H   0  0  0  0  0  0  0  0  0  0  0  0
  146.7535   73.6015  221.2237 H   0  0  0  0  0  0  0  0  0  0  0  0
  144.5379   74.7425  221.3861 H   0  0  0  0  0  0  0  0  0  0  0  0
  140.8686   75.2438  219.5910 H   0  0  0  0  0  0  0  0  0  0  0  0
  142.1517   76.8895  220.5015 H   0  0  0  0  0  0  0  0  0  0  0  0
  143.6553   75.8506  220.4368 H   0  0  0  0  0  0  0  0  0  0  0  0
  143.5451   78.0556  219.0167 H   0  0  0  0  0  0  0  0  0  0  0  0
  144.2161   76.5394  218.3040 H   0  0  0  0  0  0  0  0  0  0  0  0
  143.3033   79.6990  217.8051 H   0  0  0  0  0  0  0  0  0  0  0  0
  143.0310   80.9070  215.9710 H   0  0  0  0  0  0  0  0  0  0  0  0
  141.4250   80.4150  215.7180 H   0  0  0  0  0  0  0  0  0  0  0  0
  141.7580   81.6040  216.8480 H   0  0  0  0  0  0  0  0  0  0  0  0
  140.6439   80.7002  218.3509 H   0  0  0  0  0  0  0  0  0  0  0  0
  139.6491   78.7988  219.2264 H   0  0  0  0  0  0  0  0  0  0  0  0
  141.1233   77.8554  219.0930 H   0  0  0  0  0  0  0  0  0  0  0  0
  139.8355   77.3807  221.7471 H   0  0  0  0  0  0  0  0  0  0  0  0
  140.4147   78.0199  224.1067 H   0  0  0  0  0  0  0  0  0  0  0  0
  141.8530   80.0215  224.5461 H   0  0  0  0  0  0  0  0  0  0  0  0
  142.7315   81.3822  222.6255 H   0  0  0  0  0  0  0  0  0  0  0  0
  141.9008   81.8651  219.9024 H   0  0  0  0  0  0  0  0  0  0  0  0
  143.2728   80.7826  219.7412 H   0  0  0  0  0  0  0  0  0  0  0  0
  140.6572   75.8928  217.0734 H   0  0  0  0  0  0  0  0  0  0  0  0
  142.1711   75.6414  216.1032 H   0  0  0  0  0  0  0  0  0  0  0  0
  141.5116   73.7599  217.7383 H   0  0  0  0  0  0  0  0  0  0  0  0
  143.1996   74.3776  217.8264 H   0  0  0  0  0  0  0  0  0  0  0  0
  1  2  1  0
  2  3  1  0
  3  4  1  0
  3  5  2  0
  5  6  1  0
  6  7  2  0
  7  8  1  0
  8  9  2  0
  9 10  1  0
 10 11  2  0
  5 12  1  0
 12 13  1  0
 13 14  1  0
 14 15  1  0
 15 16  1  0
 16 17  2  0
 16 18  1  0
 18 19  1  0
 18 20  1  0
 20 21  1  0
 21 22  1  0
 22 23  2  0
 23 24  1  0
 24 25  2  0
 25 26  1  0
 26 27  2  0
 27 28  1  0
 15 29  1  0
 29 30  1  0
 11  6  1  0
 30 12  1  0
 28 20  1  0
 27 22  1  0
  1 31  1  0
  1 32  1  0
  1 33  1  0
  2 34  1  0
  2 35  1  0
  4 36  1  0
  7 37  1  0
  8 38  1  0
  9 39  1  0
 10 40  1  0
 11 41  1  0
 12 42  1  0
 13 43  1  0
 13 44  1  0
 14 45  1  0
 14 46  1  0
 18 47  1  1
 19 48  1  0
 19 49  1  0
 19 50  1  0
 20 51  1  0
 21 52  1  0
 21 53  1  0
 23 54  1  0
 24 55  1  0
 25 56  1  0
 26 57  1  0
 28 58  1  0
 28 59  1  0
 29 60  1  0
 29 61  1  0
 30 62  1  0
 30 63  1  0
M  CHG  2   5   1  19   1
M  END
>  <meeko>  (7) 
{"free_energy": -7.14, "intermolecular_energy": -9.52, "internal_energy": -2.26, "cluster_size": 8, "cluster_id": 1, "rank_in_cluster": 8}

$$$$

     RDKit          3D

 63 66  0  0  0  0  0  0  0  0999 V2000
  140.2950   71.4930  222.9800 C   0  0  0  0  0  0  0  0  0  0  0  0
  140.9620   71.7970  221.6390 C   0  0  0  0  0  0  0  0  0  0  0  0
  141.1420   73.2860  221.3870 C   0  0  0  0  0  0  0  0  0  0  0  0
  140.3810   74.1590  222.1780 O   0  0  0  0  0  0  0  0  0  0  0  0
  141.9940   73.7280  220.4780 N   0  0  0  0  0  0  0  0  0  0  0  0
  143.2890   73.0980  220.3580 C   0  0  0  0  0  0  0  0  0  0  0  0
  143.4190   71.8630  219.7030 C   0  0  0  0  0  0  0  0  0  0  0  0
  144.6800   71.2770  219.5550 C   0  0  0  0  0  0  0  0  0  0  0  0
  145.8130   71.9100  220.0690 C   0  0  0  0  0  0  0  0  0  0  0  0
  145.6900   73.1370  220.7280 C   0  0  0  0  0  0  0  0  0  0  0  0
  144.4340   73.7360  220.8630 C   0  0  0  0  0  0  0  0  0  0  0  0
  141.7080   74.9250  219.6420 C   0  0  0  0  0  0  0  0  0  0  0  0
  142.6270   76.1110  220.0440 C   0  0  0  0  0  0  0  0  0  0  0  0
  143.1010   76.9590  218.8500 C   0  0  0  0  0  0  0  0  0  0  0  0
  142.0240   77.1030  217.8540 N   0  0  0  0  0  0  0  0  0  0  0  0
  141.5840   78.3810  217.3230 C   0  0  0  0  0  0  0  0  0  0  0  0
  140.7140   78.3900  216.4070 O   0  0  0  0  0  0  0  0  0  0  0  0
  142.0550   79.7170  217.8790 C   0  0  1  0  0  0  0  0  0  0  0  0
  142.0320   80.7560  216.8320 N   0  0  0  0  0  0  0  0  0  0  0  0
  141.2140   80.0940  219.1400 C   0  0  0  0  0  0  0  0  0  0  0  0
  140.8510   78.8980  220.0580 C   0  0  0  0  0  0  0  0  0  0  0  0
  141.0870   79.4220  221.4240 C   0  0  0  0  0  0  0  0  0  0  0  0
  140.8220   78.7610  222.6270 C   0  0  0  0  0  0  0  0  0  0  0  0
  141.1090   79.4160  223.8350 C   0  0  0  0  0  0  0  0  0  0  0  0
  141.6530   80.7130  223.8240 C   0  0  0  0  0  0  0  0  0  0  0  0
  141.9160   81.3560  222.6060 C   0  0  0  0  0  0  0  0  0  0  0  0
  141.6260   80.6850  221.4140 C   0  0  0  0  0  0  0  0  0  0  0  0
  141.8360   81.1970  220.0410 C   0  0  0  0  0  0  0  0  0  0  0  0
  141.3910   75.8810  217.3280 C   0  0  0  0  0  0  0  0  0  0  0  0
  141.7950   74.6320  218.1260 C   0  0  0  0  0  0  0  0  0  0  0  0
  140.9630   71.7975  223.7992 H   0  0  0  0  0  0  0  0  0  0  0  0
  139.3485   72.0486  223.0530 H   0  0  0  0  0  0  0  0  0  0  0  0
  140.0934   70.4141  223.0530 H   0  0  0  0  0  0  0  0  0  0  0  0
  141.9516   71.3170  221.6233 H   0  0  0  0  0  0  0  0  0  0  0  0
  140.3032   71.4076  220.8489 H   0  0  0  0  0  0  0  0  0  0  0  0
  139.5720   73.9010  222.7230 H   0  0  0  0  0  0  0  0  0  0  0  0
  142.5276   71.3556  219.3056 H   0  0  0  0  0  0  0  0  0  0  0  0
  144.7794   70.3144  219.0320 H   0  0  0  0  0  0  0  0  0  0  0  0
  146.8027   71.4435  219.9556 H   0  0  0  0  0  0  0  0  0  0  0  0
  146.5819   73.6313  221.1404 H   0  0  0  0  0  0  0  0  0  0  0  0
  144.3422   74.7098  221.3662 H   0  0  0  0  0  0  0  0  0  0  0  0
  140.6645   75.2113  219.8402 H   0  0  0  0  0  0  0  0  0  0  0  0
  142.0709   76.7628  220.7339 H   0  0  0  0  0  0  0  0  0  0  0  0
  143.5257   75.6783  220.5078 H   0  0  0  0  0  0  0  0  0  0  0  0
  143.3962   77.9558  219.2095 H   0  0  0  0  0  0  0  0  0  0  0  0
  143.9566   76.4558  218.3759 H   0  0  0  0  0  0  0  0  0  0  0  0
  143.1027   79.6348  218.2038 H   0  0  0  0  0  0  0  0  0  0  0  0
  141.7400   81.6860  217.2050 H   0  0  0  0  0  0  0  0  0  0  0  0
  142.9650   80.8510  216.3750 H   0  0  0  0  0  0  0  0  0  0  0  0
  141.3610   80.4770  216.0790 H   0  0  0  0  0  0  0  0  0  0  0  0
  140.3012   80.4864  218.6680 H   0  0  0  0  0  0  0  0  0  0  0  0
  139.7985   78.6068  219.9256 H   0  0  0  0  0  0  0  0  0  0  0  0
  141.4417   77.9964  219.8384 H   0  0  0  0  0  0  0  0  0  0  0  0
  140.3966   77.7466  222.6270 H   0  0  0  0  0  0  0  0  0  0  0  0
  140.9079   78.9136  224.7927 H   0  0  0  0  0  0  0  0  0  0  0  0
  141.8726   81.2241  224.7730 H   0  0  0  0  0  0  0  0  0  0  0  0
  142.3426   82.3697  222.5885 H   0  0  0  0  0  0  0  0  0  0  0  0
  141.3208   82.1582  219.8973 H   0  0  0  0  0  0  0  0  0  0  0  0
  142.8952   81.3876  219.8134 H   0  0  0  0  0  0  0  0  0  0  0  0
  140.2984   75.9970  217.3797 H   0  0  0  0  0  0  0  0  0  0  0  0
  141.7289   75.7441  216.2902 H   0  0  0  0  0  0  0  0  0  0  0  0
  141.1162   73.8035  217.8751 H   0  0  0  0  0  0  0  0  0  0  0  0
  142.8286   74.3568  217.8691 H   0  0  0  0  0  0  0  0  0  0  0  0
  1  2  1  0
  2  3  1  0
  3  4  1  0
  3  5  2  0
  5  6  1  0
  6  7  2  0
  7  8  1  0
  8  9  2  0
  9 10  1  0
 10 11  2  0
  5 12  1  0
 12 13  1  0
 13 14  1  0
 14 15  1  0
 15 16  1  0
 16 17  2  0
 16 18  1  0
 18 19  1  0
 18 20  1  0
 20 21  1  0
 21 22  1  0
 22 23  2  0
 23 24  1  0
 24 25  2  0
 25 26  1  0
 26 27  2  0
 27 28  1  0
 15 29  1  0
 29 30  1  0
 11  6  1  0
 30 12  1  0
 28 20  1  0
 27 22  1  0
  1 31  1  0
  1 32  1  0
  1 33  1  0
  2 34  1  0
  2 35  1  0
  4 36  1  0
  7 37  1  0
  8 38  1  0
  9 39  1  0
 10 40  1  0
 11 41  1  0
 12 42  1  0
 13 43  1  0
 13 44  1  0
 14 45  1  0
 14 46  1  0
 18 47  1  1
 19 48  1  0
 19 49  1  0
 19 50  1  0
 20 51  1  0
 21 52  1  0
 21 53  1  0
 23 54  1  0
 24 55  1  0
 25 56  1  0
 26 57  1  0
 28 58  1  0
 28 59  1  0
 29 60  1  0
 29 61  1  0
 30 62  1  0
 30 63  1  0
M  CHG  2   5   1  19   1
M  END
>  <meeko>  (8) 
{"free_energy": -7.54, "intermolecular_energy": -9.93, "internal_energy": -1.95, "cluster_size": 8, "cluster_id": 1, "rank_in_cluster": 2}

$$$$

     RDKit          3D

 63 66  0  0  0  0  0  0  0  0999 V2000
  140.2800   71.0860  220.7200 C   0  0  0  0  0  0  0  0  0  0  0  0
  141.1560   71.8820  221.6870 C   0  0  0  0  0  0  0  0  0  0  0  0
  141.2770   73.3500  221.3090 C   0  0  0  0  0  0  0  0  0  0  0  0
  140.4500   74.2520  221.9960 O   0  0  0  0  0  0  0  0  0  0  0  0
  142.1390   73.7530  220.3910 N   0  0  0  0  0  0  0  0  0  0  0  0
  143.4330   73.1130  220.3090 C   0  0  0  0  0  0  0  0  0  0  0  0
  143.5750   71.8870  219.6410 C   0  0  0  0  0  0  0  0  0  0  0  0
  144.8360   71.2920  219.5290 C   0  0  0  0  0  0  0  0  0  0  0  0
  145.9550   71.9080  220.0930 C   0  0  0  0  0  0  0  0  0  0  0  0
  145.8190   73.1260  220.7650 C   0  0  0  0  0  0  0  0  0  0  0  0
  144.5630   73.7330  220.8640 C   0  0  0  0  0  0  0  0  0  0  0  0
  141.8660   74.9170  219.5060 C   0  0  0  0  0  0  0  0  0  0  0  0
  142.7630   76.1260  219.8910 C   0  0  0  0  0  0  0  0  0  0  0  0
  143.2620   76.9360  218.6820 C   0  0  0  0  0  0  0  0  0  0  0  0
  142.2120   77.0340  217.6520 N   0  0  0  0  0  0  0  0  0  0  0  0
  141.7770   78.2870  217.0640 C   0  0  0  0  0  0  0  0  0  0  0  0
  140.9330   78.2560  216.1230 O   0  0  0  0  0  0  0  0  0  0  0  0
  142.2190   79.6470  217.5850 C   0  0  1  0  0  0  0  0  0  0  0  0
  142.1110   80.6720  216.5290 N   0  0  0  0  0  0  0  0  0  0  0  0
  141.4190   80.0070  218.8760 C   0  0  0  0  0  0  0  0  0  0  0  0
  140.8540   78.7870  219.6500 C   0  0  0  0  0  0  0  0  0  0  0  0
  141.1380   79.1100  221.0680 C   0  0  0  0  0  0  0  0  0  0  0  0
  140.7470   78.3680  222.1860 C   0  0  0  0  0  0  0  0  0  0  0  0
  141.1050   78.8290  223.4620 C   0  0  0  0  0  0  0  0  0  0  0  0
  141.8450   80.0170  223.6030 C   0  0  0  0  0  0  0  0  0  0  0  0
  142.2320   80.7440  222.4680 C   0  0  0  0  0  0  0  0  0  0  0  0
  141.8670   80.2660  221.2060 C   0  0  0  0  0  0  0  0  0  0  0  0
  142.1850   80.8890  219.9010 C   0  0  0  0  0  0  0  0  0  0  0  0
  141.6060   75.7870  217.1520 C   0  0  0  0  0  0  0  0  0  0  0  0
  141.9990   74.5720  218.0040 C   0  0  0  0  0  0  0  0  0  0  0  0
  139.5842   70.4538  221.2912 H   0  0  0  0  0  0  0  0  0  0  0  0
  139.7086   71.7804  220.0864 H   0  0  0  0  0  0  0  0  0  0  0  0
  140.9167   70.4510  220.0864 H   0  0  0  0  0  0  0  0  0  0  0  0
  140.7177   71.8143  222.6936 H   0  0  0  0  0  0  0  0  0  0  0  0
  142.1662   71.4483  221.6486 H   0  0  0  0  0  0  0  0  0  0  0  0
  139.6950   73.9980  222.6160 H   0  0  0  0  0  0  0  0  0  0  0  0
  142.6939   71.3935  219.2051 H   0  0  0  0  0  0  0  0  0  0  0  0
  144.9464   70.3365  218.9953 H   0  0  0  0  0  0  0  0  0  0  0  0
  146.9442   71.4344  220.0084 H   0  0  0  0  0  0  0  0  0  0  0  0
  146.6996   73.6070  221.2158 H   0  0  0  0  0  0  0  0  0  0  0  0
  144.4605   74.6998  221.3787 H   0  0  0  0  0  0  0  0  0  0  0  0
  140.8149   75.1994  219.6652 H   0  0  0  0  0  0  0  0  0  0  0  0
  142.1821   76.7960  220.5419 H   0  0  0  0  0  0  0  0  0  0  0  0
  143.6524   75.7189  220.3942 H   0  0  0  0  0  0  0  0  0  0  0  0
  143.5378   77.9478  219.0141 H   0  0  0  0  0  0  0  0  0  0  0  0
  144.1351   76.4252  218.2498 H   0  0  0  0  0  0  0  0  0  0  0  0
  143.2820   79.6085  217.8651 H   0  0  0  0  0  0  0  0  0  0  0  0
  141.4450   80.3940  215.7740 H   0  0  0  0  0  0  0  0  0  0  0  0
  141.8110   81.5900  216.9230 H   0  0  0  0  0  0  0  0  0  0  0  0
  143.0520   80.8280  216.0980 H   0  0  0  0  0  0  0  0  0  0  0  0
  140.5895   80.5885  218.4474 H   0  0  0  0  0  0  0  0  0  0  0  0
  139.7723   78.6814  219.4806 H   0  0  0  0  0  0  0  0  0  0  0  0
  141.3023   77.8344  219.3312 H   0  0  0  0  0  0  0  0  0  0  0  0
  140.1691   77.4395  222.0678 H   0  0  0  0  0  0  0  0  0  0  0  0
  140.8061   78.2598  224.3546 H   0  0  0  0  0  0  0  0  0  0  0  0
  142.1206   80.3764  224.6054 H   0  0  0  0  0  0  0  0  0  0  0  0
  142.8120   81.6732  222.5688 H   0  0  0  0  0  0  0  0  0  0  0  0
  141.8298   81.9295  219.8660 H   0  0  0  0  0  0  0  0  0  0  0  0
  143.2659   80.9335  219.7017 H   0  0  0  0  0  0  0  0  0  0  0  0
  140.5113   75.8930  217.1690 H   0  0  0  0  0  0  0  0  0  0  0  0
  141.9747   75.6174  216.1296 H   0  0  0  0  0  0  0  0  0  0  0  0
  141.3358   73.7280  217.7635 H   0  0  0  0  0  0  0  0  0  0  0  0
  143.0421   74.2991  217.7861 H   0  0  0  0  0  0  0  0  0  0  0  0
  1  2  1  0
  2  3  1  0
  3  4  1  0
  3  5  2  0
  5  6  1  0
  6  7  2  0
  7  8  1  0
  8  9  2  0
  9 10  1  0
 10 11  2  0
  5 12  1  0
 12 13  1  0
 13 14  1  0
 14 15  1  0
 15 16  1  0
 16 17  2  0
 16 18  1  0
 18 19  1  0
 18 20  1  0
 20 21  1  0
 21 22  1  0
 22 23  2  0
 23 24  1  0
 24 25  2  0
 25 26  1  0
 26 27  2  0
 27 28  1  0
 15 29  1  0
 29 30  1  0
 11  6  1  0
 30 12  1  0
 28 20  1  0
 27 22  1  0
  1 31  1  0
  1 32  1  0
  1 33  1  0
  2 34  1  0
  2 35  1  0
  4 36  1  0
  7 37  1  0
  8 38  1  0
  9 39  1  0
 10 40  1  0
 11 41  1  0
 12 42  1  0
 13 43  1  0
 13 44  1  0
 14 45  1  0
 14 46  1  0
 18 47  1  1
 19 48  1  0
 19 49  1  0
 19 50  1  0
 20 51  1  0
 21 52  1  0
 21 53  1  0
 23 54  1  0
 24 55  1  0
 25 56  1  0
 26 57  1  0
 28 58  1  0
 28 59  1  0
 29 60  1  0
 29 61  1  0
 30 62  1  0
 30 63  1  0
M  CHG  2   5   1  19   1
M  END
>  <meeko>  (9) 
{"free_energy": -7.2, "intermolecular_energy": -9.58, "internal_energy": -2.17, "cluster_size": 8, "cluster_id": 1, "rank_in_cluster": 7}

$$$$

     RDKit          3D

 63 66  0  0  0  0  0  0  0  0999 V2000
  143.6600   83.4770  216.6020 C   0  0  0  0  0  0  0  0  0  0  0  0
  143.8610   82.2290  217.4620 C   0  0  0  0  0  0  0  0  0  0  0  0
  142.6850   81.2670  217.3990 C   0  0  0  0  0  0  0  0  0  0  0  0
  142.4770   80.5990  216.1830 O   0  0  0  0  0  0  0  0  0  0  0  0
  141.9130   81.0590  218.4520 N   0  0  0  0  0  0  0  0  0  0  0  0
  141.3660   82.1920  219.1610 C   0  0  0  0  0  0  0  0  0  0  0  0
  141.5490   82.3160  220.5470 C   0  0  0  0  0  0  0  0  0  0  0  0
  141.0520   83.4360  221.2230 C   0  0  0  0  0  0  0  0  0  0  0  0
  140.3610   84.4270  220.5240 C   0  0  0  0  0  0  0  0  0  0  0  0
  140.1690   84.3070  219.1450 C   0  0  0  0  0  0  0  0  0  0  0  0
  140.6800   83.1980  218.4620 C   0  0  0  0  0  0  0  0  0  0  0  0
  141.6740   79.6960  219.0000 C   0  0  0  0  0  0  0  0  0  0  0  0
  140.2660   79.6010  219.6490 C   0  0  0  0  0  0  0  0  0  0  0  0
  139.5650   78.2520  219.4130 C   0  0  0  0  0  0  0  0  0  0  0  0
  140.5360   77.1440  219.4790 N   0  0  0  0  0  0  0  0  0  0  0  0
  140.3620   75.9700  220.3150 C   0  0  0  0  0  0  0  0  0  0  0  0
  141.2080   75.0350  220.2320 O   0  0  0  0  0  0  0  0  0  0  0  0
  139.2590   75.8480  221.3560 C   0  0  1  0  0  0  0  0  0  0  0  0
  139.0490   74.4370  221.7320 N   0  0  0  0  0  0  0  0  0  0  0  0
  139.5730   76.7710  222.5750 C   0  0  0  0  0  0  0  0  0  0  0  0
  141.0770   77.0940  222.7730 C   0  0  0  0  0  0  0  0  0  0  0  0
  141.0870   78.5420  223.0850 C   0  0  0  0  0  0  0  0  0  0  0  0
  142.1990   79.3120  223.4370 C   0  0  0  0  0  0  0  0  0  0  0  0
  142.0190   80.6780  223.7030 C   0  0  0  0  0  0  0  0  0  0  0  0
  140.7380   81.2530  223.6130 C   0  0  0  0  0  0  0  0  0  0  0  0
  139.6360   80.4640  223.2530 C   0  0  0  0  0  0  0  0  0  0  0  0
  139.8370   79.1060  222.9900 C   0  0  0  0  0  0  0  0  0  0  0  0
  138.8040   78.1220  222.5950 C   0  0  0  0  0  0  0  0  0  0  0  0
  141.7250   77.2040  218.6090 C   0  0  0  0  0  0  0  0  0  0  0  0
  141.8880   78.5810  217.9500 C   0  0  0  0  0  0  0  0  0  0  0  0
  143.5190   84.3522  217.2532 H   0  0  0  0  0  0  0  0  0  0  0  0
  144.5449   83.6311  215.9670 H   0  0  0  0  0  0  0  0  0  0  0  0
  142.7715   83.3455  215.9670 H   0  0  0  0  0  0  0  0  0  0  0  0
  144.7622   81.7040  217.1124 H   0  0  0  0  0  0  0  0  0  0  0  0
  143.9579   82.5615  218.5060 H   0  0  0  0  0  0  0  0  0  0  0  0
  143.2010   80.2080  215.5980 H   0  0  0  0  0  0  0  0  0  0  0  0
  142.0838   81.5317  221.1027 H   0  0  0  0  0  0  0  0  0  0  0  0
  141.2063   83.5356  222.3076 H   0  0  0  0  0  0  0  0  0  0  0  0
  139.9670   85.3035  221.0592 H   0  0  0  0  0  0  0  0  0  0  0  0
  139.6164   85.0842  218.5967 H   0  0  0  0  0  0  0  0  0  0  0  0
  140.5438   83.1140  217.3737 H   0  0  0  0  0  0  0  0  0  0  0  0
  142.4292   79.5299  219.7824 H   0  0  0  0  0  0  0  0  0  0  0  0
  140.3728   79.7517  220.7334 H   0  0  0  0  0  0  0  0  0  0  0  0
  139.6420   80.3741  219.1768 H   0  0  0  0  0  0  0  0  0  0  0  0
  138.7953   78.1046  220.1849 H   0  0  0  0  0  0  0  0  0  0  0  0
  139.1050   78.2614  218.4139 H   0  0  0  0  0  0  0  0  0  0  0  0
  138.3064   76.1943  220.9286 H   0  0  0  0  0  0  0  0  0  0  0  0
  138.8250   74.3280  222.7460 H   0  0  0  0  0  0  0  0  0  0  0  0
  138.2850   74.0060  221.1690 H   0  0  0  0  0  0  0  0  0  0  0  0
  139.9160   73.8880  221.5240 H   0  0  0  0  0  0  0  0  0  0  0  0
  139.2182   76.1416  223.4045 H   0  0  0  0  0  0  0  0  0  0  0  0
  141.4972   76.5105  223.6054 H   0  0  0  0  0  0  0  0  0  0  0  0
  141.6864   76.8435  221.8921 H   0  0  0  0  0  0  0  0  0  0  0  0
  143.1975   78.8554  223.5043 H   0  0  0  0  0  0  0  0  0  0  0  0
  142.8815   81.3008  223.9826 H   0  0  0  0  0  0  0  0  0  0  0  0
  140.6007   82.3235  223.8254 H   0  0  0  0  0  0  0  0  0  0  0  0
  138.6314   80.9059  223.1789 H   0  0  0  0  0  0  0  0  0  0  0  0
  137.9850   78.0967  223.3289 H   0  0  0  0  0  0  0  0  0  0  0  0
  138.3344   78.3603  221.6293 H   0  0  0  0  0  0  0  0  0  0  0  0
  142.6187   76.9922  219.2143 H   0  0  0  0  0  0  0  0  0  0  0  0
  141.5988   76.4584  217.8102 H   0  0  0  0  0  0  0  0  0  0  0  0
  142.9006   78.6662  217.5288 H   0  0  0  0  0  0  0  0  0  0  0  0
  141.1417   78.6897  217.1492 H   0  0  0  0  0  0  0  0  0  0  0  0
  1  2  1  0
  2  3  1  0
  3  4  1  0
  3  5  2  0
  5  6  1  0
  6  7  2  0
  7  8  1  0
  8  9  2  0
  9 10  1  0
 10 11  2  0
  5 12  1  0
 12 13  1  0
 13 14  1  0
 14 15  1  0
 15 16  1  0
 16 17  2  0
 16 18  1  0
 18 19  1  0
 18 20  1  0
 20 21  1  0
 21 22  1  0
 22 23  2  0
 23 24  1  0
 24 25  2  0
 25 26  1  0
 26 27  2  0
 27 28  1  0
 15 29  1  0
 29 30  1  0
 11  6  1  0
 30 12  1  0
 28 20  1  0
 27 22  1  0
  1 31  1  0
  1 32  1  0
  1 33  1  0
  2 34  1  0
  2 35  1  0
  4 36  1  0
  7 37  1  0
  8 38  1  0
  9 39  1  0
 10 40  1  0
 11 41  1  0
 12 42  1  0
 13 43  1  0
 13 44  1  0
 14 45  1  0
 14 46  1  0
 18 47  1  6
 19 48  1  0
 19 49  1  0
 19 50  1  0
 20 51  1  0
 21 52  1  0
 21 53  1  0
 23 54  1  0
 24 55  1  0
 25 56  1  0
 26 57  1  0
 28 58  1  0
 28 59  1  0
 29 60  1  0
 29 61  1  0
 30 62  1  0
 30 63  1  0
M  CHG  2   5   1  19   1
M  END
>  <meeko>  (10) 
{"free_energy": -6.41, "intermolecular_energy": -8.79, "internal_energy": -2.9, "cluster_size": 12, "cluster_id": 2, "rank_in_cluster": 7}

$$$$

     RDKit          3D

 63 66  0  0  0  0  0  0  0  0999 V2000
  143.6790   83.4990  216.5450 C   0  0  0  0  0  0  0  0  0  0  0  0
  143.8390   82.2870  217.4630 C   0  0  0  0  0  0  0  0  0  0  0  0
  142.6650   81.3230  217.3880 C   0  0  0  0  0  0  0  0  0  0  0  0
  142.4740   80.6490  216.1720 O   0  0  0  0  0  0  0  0  0  0  0  0
  141.8790   81.1200  218.4320 N   0  0  0  0  0  0  0  0  0  0  0  0
  141.3390   82.2570  219.1410 C   0  0  0  0  0  0  0  0  0  0  0  0
  141.4830   82.3560  220.5340 C   0  0  0  0  0  0  0  0  0  0  0  0
  140.9950   83.4780  221.2120 C   0  0  0  0  0  0  0  0  0  0  0  0
  140.3510   84.4980  220.5070 C   0  0  0  0  0  0  0  0  0  0  0  0
  140.1990   84.4030  219.1210 C   0  0  0  0  0  0  0  0  0  0  0  0
  140.7010   83.2910  218.4370 C   0  0  0  0  0  0  0  0  0  0  0  0
  141.6150   79.7580  218.9690 C   0  0  0  0  0  0  0  0  0  0  0  0
  140.2260   79.6980  219.6640 C   0  0  0  0  0  0  0  0  0  0  0  0
  139.4760   78.3750  219.4340 C   0  0  0  0  0  0  0  0  0  0  0  0
  140.4120   77.2360  219.4520 N   0  0  0  0  0  0  0  0  0  0  0  0
  140.2290   76.0570  220.2780 C   0  0  0  0  0  0  0  0  0  0  0  0
  141.0420   75.0960  220.1540 O   0  0  0  0  0  0  0  0  0  0  0  0
  139.1580   75.9540  221.3540 C   0  0  1  0  0  0  0  0  0  0  0  0
  138.9030   74.5440  221.7050 N   0  0  0  0  0  0  0  0  0  0  0  0
  139.5520   76.8330  222.5820 C   0  0  0  0  0  0  0  0  0  0  0  0
  141.0750   77.0830  222.7390 C   0  0  0  0  0  0  0  0  0  0  0  0
  141.1610   78.5220  223.0820 C   0  0  0  0  0  0  0  0  0  0  0  0
  142.3180   79.2320  223.4150 C   0  0  0  0  0  0  0  0  0  0  0  0
  142.2090   80.5990  223.7150 C   0  0  0  0  0  0  0  0  0  0  0  0
  140.9540   81.2330  223.6800 C   0  0  0  0  0  0  0  0  0  0  0  0
  139.8060   80.5030  223.3380 C   0  0  0  0  0  0  0  0  0  0  0  0
  139.9370   79.1440  223.0390 C   0  0  0  0  0  0  0  0  0  0  0  0
  138.8470   78.2170  222.6560 C   0  0  0  0  0  0  0  0  0  0  0  0
  141.5720   77.2710  218.5430 C   0  0  0  0  0  0  0  0  0  0  0  0
  141.7580   78.6520  217.8980 C   0  0  0  0  0  0  0  0  0  0  0  0
  143.5591   84.4071  217.1541 H   0  0  0  0  0  0  0  0  0  0  0  0
  144.5718   83.5985  215.9102 H   0  0  0  0  0  0  0  0  0  0  0  0
  142.7910   83.3634  215.9102 H   0  0  0  0  0  0  0  0  0  0  0  0
  144.7536   81.7480  217.1750 H   0  0  0  0  0  0  0  0  0  0  0  0
  143.8901   82.6621  218.4958 H   0  0  0  0  0  0  0  0  0  0  0  0
  143.2070   80.2630  215.5960 H   0  0  0  0  0  0  0  0  0  0  0  0
  141.9804   81.5499  221.0932 H   0  0  0  0  0  0  0  0  0  0  0  0
  141.1185   83.5574  222.3022 H   0  0  0  0  0  0  0  0  0  0  0  0
  139.9633   85.3766  221.0434 H   0  0  0  0  0  0  0  0  0  0  0  0
  139.6846   85.2027  218.5680 H   0  0  0  0  0  0  0  0  0  0  0  0
  140.5957   83.2263  217.3440 H   0  0  0  0  0  0  0  0  0  0  0  0
  142.3904   79.5571  219.7230 H   0  0  0  0  0  0  0  0  0  0  0  0
  140.3731   79.8302  220.7461 H   0  0  0  0  0  0  0  0  0  0  0  0
  139.6113   80.4967  219.2233 H   0  0  0  0  0  0  0  0  0  0  0  0
  138.7283   78.2407  220.2296 H   0  0  0  0  0  0  0  0  0  0  0  0
  138.9841   78.4133  218.4509 H   0  0  0  0  0  0  0  0  0  0  0  0
  138.2064   76.3486  220.9682 H   0  0  0  0  0  0  0  0  0  0  0  0
  138.7850   74.4080  222.7330 H   0  0  0  0  0  0  0  0  0  0  0  0
  138.0550   74.1810  221.2170 H   0  0  0  0  0  0  0  0  0  0  0  0
  139.7050   73.9540  221.3830 H   0  0  0  0  0  0  0  0  0  0  0  0
  139.1947   76.2010  223.4083 H   0  0  0  0  0  0  0  0  0  0  0  0
  141.4935   76.4620  223.5447 H   0  0  0  0  0  0  0  0  0  0  0  0
  141.6449   76.8256  221.8340 H   0  0  0  0  0  0  0  0  0  0  0  0
  143.2958   78.7289  223.4415 H   0  0  0  0  0  0  0  0  0  0  0  0
  143.1077   81.1760  223.9782 H   0  0  0  0  0  0  0  0  0  0  0  0
  140.8725   82.3031  223.9212 H   0  0  0  0  0  0  0  0  0  0  0  0
  138.8208   80.9912  223.3057 H   0  0  0  0  0  0  0  0  0  0  0  0
  138.0510   78.2120  223.4152 H   0  0  0  0  0  0  0  0  0  0  0  0
  138.3589   78.4987  221.7113 H   0  0  0  0  0  0  0  0  0  0  0  0
  142.4782   77.0213  219.1144 H   0  0  0  0  0  0  0  0  0  0  0  0
  141.3944   76.5422  217.7385 H   0  0  0  0  0  0  0  0  0  0  0  0
  142.7585   78.7108  217.4446 H   0  0  0  0  0  0  0  0  0  0  0  0
  140.9895   78.7963  217.1243 H   0  0  0  0  0  0  0  0  0  0  0  0
  1  2  1  0
  2  3  1  0
  3  4  1  0
  3  5  2  0
  5  6  1  0
  6  7  2  0
  7  8  1  0
  8  9  2  0
  9 10  1  0
 10 11  2  0
  5 12  1  0
 12 13  1  0
 13 14  1  0
 14 15  1  0
 15 16  1  0
 16 17  2  0
 16 18  1  0
 18 19  1  0
 18 20  1  0
 20 21  1  0
 21 22  1  0
 22 23  2  0
 23 24  1  0
 24 25  2  0
 25 26  1  0
 26 27  2  0
 27 28  1  0
 15 29  1  0
 29 30  1  0
 11  6  1  0
 30 12  1  0
 28 20  1  0
 27 22  1  0
  1 31  1  0
  1 32  1  0
  1 33  1  0
  2 34  1  0
  2 35  1  0
  4 36  1  0
  7 37  1  0
  8 38  1  0
  9 39  1  0
 10 40  1  0
 11 41  1  0
 12 42  1  0
 13 43  1  0
 13 44  1  0
 14 45  1  0
 14 46  1  0
 18 47  1  6
 19 48  1  0
 19 49  1  0
 19 50  1  0
 20 51  1  0
 21 52  1  0
 21 53  1  0
 23 54  1  0
 24 55  1  0
 25 56  1  0
 26 57  1  0
 28 58  1  0
 28 59  1  0
 29 60  1  0
 29 61  1  0
 30 62  1  0
 30 63  1  0
M  CHG  2   5   1  19   1
M  END
>  <meeko>  (11) 
{"free_energy": -6.47, "intermolecular_energy": -8.86, "internal_energy": -2.86, "cluster_size": 12, "cluster_id": 2, "rank_in_cluster": 1}

$$$$

     RDKit          3D

 63 66  0  0  0  0  0  0  0  0999 V2000
  140.3230   71.6470  222.9290 C   0  0  0  0  0  0  0  0  0  0  0  0
  141.1020   71.8850  221.6350 C   0  0  0  0  0  0  0  0  0  0  0  0
  141.2730   73.3590  221.3060 C   0  0  0  0  0  0  0  0  0  0  0  0
  140.4920   74.2680  222.0360 O   0  0  0  0  0  0  0  0  0  0  0  0
  142.1370   73.7590  220.3880 N   0  0  0  0  0  0  0  0  0  0  0  0
  143.4270   73.1140  220.3030 C   0  0  0  0  0  0  0  0  0  0  0  0
  143.5630   71.8870  219.6360 C   0  0  0  0  0  0  0  0  0  0  0  0
  144.8210   71.2860  219.5220 C   0  0  0  0  0  0  0  0  0  0  0  0
  145.9440   71.8980  220.0830 C   0  0  0  0  0  0  0  0  0  0  0  0
  145.8140   73.1170  220.7540 C   0  0  0  0  0  0  0  0  0  0  0  0
  144.5620   73.7300  220.8550 C   0  0  0  0  0  0  0  0  0  0  0  0
  141.8680   74.9260  219.5050 C   0  0  0  0  0  0  0  0  0  0  0  0
  142.7640   76.1330  219.8970 C   0  0  0  0  0  0  0  0  0  0  0  0
  143.2700   76.9470  218.6930 C   0  0  0  0  0  0  0  0  0  0  0  0
  142.2240   77.0500  217.6590 N   0  0  0  0  0  0  0  0  0  0  0  0
  141.7920   78.3050  217.0730 C   0  0  0  0  0  0  0  0  0  0  0  0
  140.9520   78.2780  216.1290 O   0  0  0  0  0  0  0  0  0  0  0  0
  142.2330   79.6630  217.6010 C   0  0  1  0  0  0  0  0  0  0  0  0
  142.1290   80.6910  216.5480 N   0  0  0  0  0  0  0  0  0  0  0  0
  141.4310   80.0190  218.8920 C   0  0  0  0  0  0  0  0  0  0  0  0
  140.8510   78.7970  219.6520 C   0  0  0  0  0  0  0  0  0  0  0  0
  141.1320   79.1040  221.0740 C   0  0  0  0  0  0  0  0  0  0  0  0
  140.7290   78.3560  222.1830 C   0  0  0  0  0  0  0  0  0  0  0  0
  141.0860   78.8030  223.4660 C   0  0  0  0  0  0  0  0  0  0  0  0
  141.8350   79.9830  223.6200 C   0  0  0  0  0  0  0  0  0  0  0  0
  142.2330   80.7170  222.4930 C   0  0  0  0  0  0  0  0  0  0  0  0
  141.8700   80.2530  221.2250 C   0  0  0  0  0  0  0  0  0  0  0  0
  142.2000   80.8850  219.9270 C   0  0  0  0  0  0  0  0  0  0  0  0
  141.6180   75.8050  217.1530 C   0  0  0  0  0  0  0  0  0  0  0  0
  142.0060   74.5870  218.0020 C   0  0  0  0  0  0  0  0  0  0  0  0
  140.9756   71.8464  223.7918 H   0  0  0  0  0  0  0  0  0  0  0  0
  139.4541   72.3207  222.9631 H   0  0  0  0  0  0  0  0  0  0  0  0
  139.9789   70.6028  222.9631 H   0  0  0  0  0  0  0  0  0  0  0  0
  142.0987   71.4310  221.7376 H   0  0  0  0  0  0  0  0  0  0  0  0
  140.5254   71.4303  220.8160 H   0  0  0  0  0  0  0  0  0  0  0  0
  139.7120   74.0250  222.6290 H   0  0  0  0  0  0  0  0  0  0  0  0
  142.6790   71.3969  219.2021 H   0  0  0  0  0  0  0  0  0  0  0  0
  144.9259   70.3293  218.9894 H   0  0  0  0  0  0  0  0  0  0  0  0
  146.9312   71.4204  219.9967 H   0  0  0  0  0  0  0  0  0  0  0  0
  146.6975   73.5943  221.2029 H   0  0  0  0  0  0  0  0  0  0  0  0
  144.4653   74.6980  221.3685 H   0  0  0  0  0  0  0  0  0  0  0  0
  140.8161   75.2074  219.6613 H   0  0  0  0  0  0  0  0  0  0  0  0
  142.1806   76.8015  220.5472 H   0  0  0  0  0  0  0  0  0  0  0  0
  143.6509   75.7232  220.4025 H   0  0  0  0  0  0  0  0  0  0  0  0
  143.5458   77.9571  219.0299 H   0  0  0  0  0  0  0  0  0  0  0  0
  144.1445   76.4370  218.2628 H   0  0  0  0  0  0  0  0  0  0  0  0
  143.2950   79.6231  217.8848 H   0  0  0  0  0  0  0  0  0  0  0  0
  141.7870   81.6050  216.9210 H   0  0  0  0  0  0  0  0  0  0  0  0
  143.0460   80.8410  216.0740 H   0  0  0  0  0  0  0  0  0  0  0  0
  141.4630   80.3670  215.8080 H   0  0  0  0  0  0  0  0  0  0  0  0
  140.6086   80.6123  218.4658 H   0  0  0  0  0  0  0  0  0  0  0  0
  139.7690   78.7033  219.4770 H   0  0  0  0  0  0  0  0  0  0  0  0
  141.2915   77.8432  219.3261 H   0  0  0  0  0  0  0  0  0  0  0  0
  140.1430   77.4341  222.0539 H   0  0  0  0  0  0  0  0  0  0  0  0
  140.7788   78.2285  224.3524 H   0  0  0  0  0  0  0  0  0  0  0  0
  142.1095   80.3313  224.6267 H   0  0  0  0  0  0  0  0  0  0  0  0
  142.8199   81.6406  222.6047 H   0  0  0  0  0  0  0  0  0  0  0  0
  141.8543   81.9289  219.8995 H   0  0  0  0  0  0  0  0  0  0  0  0
  143.2821   80.9220  219.7329 H   0  0  0  0  0  0  0  0  0  0  0  0
  140.5233   75.9125  217.1665 H   0  0  0  0  0  0  0  0  0  0  0  0
  141.9903   75.6381  216.1315 H   0  0  0  0  0  0  0  0  0  0  0  0
  141.3426   73.7448  217.7559 H   0  0  0  0  0  0  0  0  0  0  0  0
  143.0497   74.3140  217.7871 H   0  0  0  0  0  0  0  0  0  0  0  0
  1  2  1  0
  2  3  1  0
  3  4  1  0
  3  5  2  0
  5  6  1  0
  6  7  2  0
  7  8  1  0
  8  9  2  0
  9 10  1  0
 10 11  2  0
  5 12  1  0
 12 13  1  0
 13 14  1  0
 14 15  1  0
 15 16  1  0
 16 17  2  0
 16 18  1  0
 18 19  1  0
 18 20  1  0
 20 21  1  0
 21 22  1  0
 22 23  2  0
 23 24  1  0
 24 25  2  0
 25 26  1  0
 26 27  2  0
 27 28  1  0
 15 29  1  0
 29 30  1  0
 11  6  1  0
 30 12  1  0
 28 20  1  0
 27 22  1  0
  1 31  1  0
  1 32  1  0
  1 33  1  0
  2 34  1  0
  2 35  1  0
  4 36  1  0
  7 37  1  0
  8 38  1  0
  9 39  1  0
 10 40  1  0
 11 41  1  0
 12 42  1  0
 13 43  1  0
 13 44  1  0
 14 45  1  0
 14 46  1  0
 18 47  1  1
 19 48  1  0
 19 49  1  0
 19 50  1  0
 20 51  1  0
 21 52  1  0
 21 53  1  0
 23 54  1  0
 24 55  1  0
 25 56  1  0
 26 57  1  0
 28 58  1  0
 28 59  1  0
 29 60  1  0
 29 61  1  0
 30 62  1  0
 30 63  1  0
M  CHG  2   5   1  19   1
M  END
>  <meeko>  (12) 
{"free_energy": -7.39, "intermolecular_energy": -9.78, "internal_energy": -2.17, "cluster_size": 8, "cluster_id": 1, "rank_in_cluster": 4}

$$$$

     RDKit          3D

 63 66  0  0  0  0  0  0  0  0999 V2000
  143.6870   83.5470  216.7110 C   0  0  0  0  0  0  0  0  0  0  0  0
  143.8570   82.2220  217.4530 C   0  0  0  0  0  0  0  0  0  0  0  0
  142.6250   81.3340  217.3770 C   0  0  0  0  0  0  0  0  0  0  0  0
  142.3590   80.7220  216.1430 O   0  0  0  0  0  0  0  0  0  0  0  0
  141.8580   81.1360  218.4360 N   0  0  0  0  0  0  0  0  0  0  0  0
  141.3460   82.2770  219.1600 C   0  0  0  0  0  0  0  0  0  0  0  0
  140.6870   83.3110  218.4790 C   0  0  0  0  0  0  0  0  0  0  0  0
  140.1590   84.3940  219.1890 C   0  0  0  0  0  0  0  0  0  0  0  0
  140.2970   84.4570  220.5770 C   0  0  0  0  0  0  0  0  0  0  0  0
  140.9580   83.4330  221.2620 C   0  0  0  0  0  0  0  0  0  0  0  0
  141.4720   82.3400  220.5570 C   0  0  0  0  0  0  0  0  0  0  0  0
  141.5880   79.7750  218.9740 C   0  0  0  0  0  0  0  0  0  0  0  0
  140.2070   79.7260  219.6840 C   0  0  0  0  0  0  0  0  0  0  0  0
  139.4430   78.4090  219.4600 C   0  0  0  0  0  0  0  0  0  0  0  0
  140.3700   77.2620  219.4650 N   0  0  0  0  0  0  0  0  0  0  0  0
  140.1860   76.0830  220.2910 C   0  0  0  0  0  0  0  0  0  0  0  0
  140.9890   75.1160  220.1560 O   0  0  0  0  0  0  0  0  0  0  0  0
  139.1260   75.9880  221.3790 C   0  0  1  0  0  0  0  0  0  0  0  0
  138.8540   74.5790  221.7220 N   0  0  0  0  0  0  0  0  0  0  0  0
  139.5470   76.8520  222.6090 C   0  0  0  0  0  0  0  0  0  0  0  0
  141.0740   77.0870  222.7430 C   0  0  0  0  0  0  0  0  0  0  0  0
  141.1770   78.5220  223.0990 C   0  0  0  0  0  0  0  0  0  0  0  0
  142.3460   79.2190  223.4200 C   0  0  0  0  0  0  0  0  0  0  0  0
  142.2530   80.5830  223.7360 C   0  0  0  0  0  0  0  0  0  0  0  0
  141.0030   81.2280  223.7260 C   0  0  0  0  0  0  0  0  0  0  0  0
  139.8430   80.5120  223.3950 C   0  0  0  0  0  0  0  0  0  0  0  0
  139.9580   79.1540  223.0810 C   0  0  0  0  0  0  0  0  0  0  0  0
  138.8550   78.2400  222.7070 C   0  0  0  0  0  0  0  0  0  0  0  0
  141.5200   77.2900  218.5440 C   0  0  0  0  0  0  0  0  0  0  0  0
  141.7100   78.6700  217.8990 C   0  0  0  0  0  0  0  0  0  0  0  0
  143.5821   84.3644  217.4396 H   0  0  0  0  0  0  0  0  0  0  0  0
  144.5691   83.7295  216.0796 H   0  0  0  0  0  0  0  0  0  0  0  0
  142.7874   83.5009  216.0796 H   0  0  0  0  0  0  0  0  0  0  0  0
  144.7068   81.6803  217.0122 H   0  0  0  0  0  0  0  0  0  0  0  0
  144.0257   82.4592  218.5138 H   0  0  0  0  0  0  0  0  0  0  0  0
  143.0560   80.3980  215.4880 H   0  0  0  0  0  0  0  0  0  0  0  0
  140.5853   83.2700  217.3845 H   0  0  0  0  0  0  0  0  0  0  0  0
  139.6338   85.1981  218.6527 H   0  0  0  0  0  0  0  0  0  0  0  0
  139.8854   85.3129  221.1319 H   0  0  0  0  0  0  0  0  0  0  0  0
  141.0737   83.4870  222.3546 H   0  0  0  0  0  0  0  0  0  0  0  0
  141.9768   81.5267  221.0989 H   0  0  0  0  0  0  0  0  0  0  0  0
  142.3694   79.5656  219.7194 H   0  0  0  0  0  0  0  0  0  0  0  0
  140.3672   79.8551  220.7646 H   0  0  0  0  0  0  0  0  0  0  0  0
  139.5943   80.5308  219.2516 H   0  0  0  0  0  0  0  0  0  0  0  0
  138.7034   78.2792  220.2639 H   0  0  0  0  0  0  0  0  0  0  0  0
  138.9401   78.4534  218.4827 H   0  0  0  0  0  0  0  0  0  0  0  0
  138.1760   76.4000  221.0077 H   0  0  0  0  0  0  0  0  0  0  0  0
  138.8190   74.4230  222.7540 H   0  0  0  0  0  0  0  0  0  0  0  0
  137.9580   74.2530  221.3000 H   0  0  0  0  0  0  0  0  0  0  0  0
  139.6070   73.9710  221.3220 H   0  0  0  0  0  0  0  0  0  0  0  0
  139.1978   76.2160  223.4358 H   0  0  0  0  0  0  0  0  0  0  0  0
  141.5005   76.4544  223.5354 H   0  0  0  0  0  0  0  0  0  0  0  0
  141.6270   76.8337  221.8265 H   0  0  0  0  0  0  0  0  0  0  0  0
  143.3200   78.7077  223.4247 H   0  0  0  0  0  0  0  0  0  0  0  0
  143.1604   81.1496  223.9923 H   0  0  0  0  0  0  0  0  0  0  0  0
  140.9349   82.2965  223.9784 H   0  0  0  0  0  0  0  0  0  0  0  0
  138.8618   81.0091  223.3827 H   0  0  0  0  0  0  0  0  0  0  0  0
  138.0711   78.2343  223.4787 H   0  0  0  0  0  0  0  0  0  0  0  0
  138.3543   78.5346  221.7729 H   0  0  0  0  0  0  0  0  0  0  0  0
  142.4303   77.0325  219.1053 H   0  0  0  0  0  0  0  0  0  0  0  0
  141.3279   76.5640  217.7402 H   0  0  0  0  0  0  0  0  0  0  0  0
  142.7058   78.7215  217.4345 H   0  0  0  0  0  0  0  0  0  0  0  0
  140.9344   78.8219  217.1339 H   0  0  0  0  0  0  0  0  0  0  0  0
  1  2  1  0
  2  3  1  0
  3  4  1  0
  3  5  2  0
  5  6  1  0
  6  7  2  0
  7  8  1  0
  8  9  2  0
  9 10  1  0
 10 11  2  0
  5 12  1  0
 12 13  1  0
 13 14  1  0
 14 15  1  0
 15 16  1  0
 16 17  2  0
 16 18  1  0
 18 19  1  0
 18 20  1  0
 20 21  1  0
 21 22  1  0
 22 23  2  0
 23 24  1  0
 24 25  2  0
 25 26  1  0
 26 27  2  0
 27 28  1  0
 15 29  1  0
 29 30  1  0
 11  6  1  0
 30 12  1  0
 28 20  1  0
 27 22  1  0
  1 31  1  0
  1 32  1  0
  1 33  1  0
  2 34  1  0
  2 35  1  0
  4 36  1  0
  7 37  1  0
  8 38  1  0
  9 39  1  0
 10 40  1  0
 11 41  1  0
 12 42  1  0
 13 43  1  0
 13 44  1  0
 14 45  1  0
 14 46  1  0
 18 47  1  6
 19 48  1  0
 19 49  1  0
 19 50  1  0
 20 51  1  0
 21 52  1  0
 21 53  1  0
 23 54  1  0
 24 55  1  0
 25 56  1  0
 26 57  1  0
 28 58  1  0
 28 59  1  0
 29 60  1  0
 29 61  1  0
 30 62  1  0
 30 63  1  0
M  CHG  2   5   1  19   1
M  END
>  <meeko>  (13) 
{"free_energy": -6.44, "intermolecular_energy": -8.83, "internal_energy": -2.87, "cluster_size": 12, "cluster_id": 2, "rank_in_cluster": 4}

$$$$

     RDKit          3D

 63 66  0  0  0  0  0  0  0  0999 V2000
  143.5430   83.5470  216.6970 C   0  0  0  0  0  0  0  0  0  0  0  0
  143.7850   82.2470  217.4640 C   0  0  0  0  0  0  0  0  0  0  0  0
  142.6130   81.2810  217.3860 C   0  0  0  0  0  0  0  0  0  0  0  0
  142.4120   80.6270  216.1620 O   0  0  0  0  0  0  0  0  0  0  0  0
  141.8390   81.0590  218.4340 N   0  0  0  0  0  0  0  0  0  0  0  0
  141.2760   82.1830  219.1480 C   0  0  0  0  0  0  0  0  0  0  0  0
  141.4870   82.3230  220.5280 C   0  0  0  0  0  0  0  0  0  0  0  0
  140.9750   83.4330  221.2070 C   0  0  0  0  0  0  0  0  0  0  0  0
  140.2400   84.4000  220.5160 C   0  0  0  0  0  0  0  0  0  0  0  0
  140.0200   84.2630  219.1430 C   0  0  0  0  0  0  0  0  0  0  0  0
  140.5460   83.1630  218.4570 C   0  0  0  0  0  0  0  0  0  0  0  0
  141.6110   79.6910  218.9730 C   0  0  0  0  0  0  0  0  0  0  0  0
  140.2130   79.5860  219.6420 C   0  0  0  0  0  0  0  0  0  0  0  0
  139.5130   78.2370  219.4040 C   0  0  0  0  0  0  0  0  0  0  0  0
  140.4870   77.1310  219.4450 N   0  0  0  0  0  0  0  0  0  0  0  0
  140.3290   75.9490  220.2730 C   0  0  0  0  0  0  0  0  0  0  0  0
  141.1760   75.0170  220.1680 O   0  0  0  0  0  0  0  0  0  0  0  0
  139.2410   75.8150  221.3290 C   0  0  1  0  0  0  0  0  0  0  0  0
  139.0420   74.4000  221.6960 N   0  0  0  0  0  0  0  0  0  0  0  0
  139.5710   76.7280  222.5520 C   0  0  0  0  0  0  0  0  0  0  0  0
  141.0770   77.0530  222.7300 C   0  0  0  0  0  0  0  0  0  0  0  0
  141.0870   78.4990  223.0550 C   0  0  0  0  0  0  0  0  0  0  0  0
  142.2030   79.2680  223.3970 C   0  0  0  0  0  0  0  0  0  0  0  0
  142.0230   80.6320  223.6760 C   0  0  0  0  0  0  0  0  0  0  0  0
  140.7400   81.2040  223.6100 C   0  0  0  0  0  0  0  0  0  0  0  0
  139.6340   80.4150  223.2590 C   0  0  0  0  0  0  0  0  0  0  0  0
  139.8360   79.0600  222.9820 C   0  0  0  0  0  0  0  0  0  0  0  0
  138.7990   78.0760  222.5940 C   0  0  0  0  0  0  0  0  0  0  0  0
  141.6620   77.2020  218.5580 C   0  0  0  0  0  0  0  0  0  0  0  0
  141.8120   78.5860  217.9100 C   0  0  0  0  0  0  0  0  0  0  0  0
  143.3897   84.3704  217.4101 H   0  0  0  0  0  0  0  0  0  0  0  0
  144.4155   83.7674  216.0645 H   0  0  0  0  0  0  0  0  0  0  0  0
  142.6496   83.4387  216.0645 H   0  0  0  0  0  0  0  0  0  0  0  0
  144.6740   81.7534  217.0445 H   0  0  0  0  0  0  0  0  0  0  0  0
  143.9219   82.5117  218.5229 H   0  0  0  0  0  0  0  0  0  0  0  0
  143.1400   80.2670  215.5630 H   0  0  0  0  0  0  0  0  0  0  0  0
  142.0562   81.5582  221.0768 H   0  0  0  0  0  0  0  0  0  0  0  0
  141.1511   83.5452  222.2870 H   0  0  0  0  0  0  0  0  0  0  0  0
  139.8343   85.2698  221.0535 H   0  0  0  0  0  0  0  0  0  0  0  0
  139.4334   85.0198  218.6016 H   0  0  0  0  0  0  0  0  0  0  0  0
  140.3871   83.0657  217.3729 H   0  0  0  0  0  0  0  0  0  0  0  0
  142.3780   79.5203  219.7428 H   0  0  0  0  0  0  0  0  0  0  0  0
  140.3353   79.7272  220.7260 H   0  0  0  0  0  0  0  0  0  0  0  0
  139.5797   80.3614  219.1864 H   0  0  0  0  0  0  0  0  0  0  0  0
  138.7553   78.0803  220.1859 H   0  0  0  0  0  0  0  0  0  0  0  0
  139.0388   78.2545  218.4116 H   0  0  0  0  0  0  0  0  0  0  0  0
  138.2813   76.1624  220.9188 H   0  0  0  0  0  0  0  0  0  0  0  0
  139.8440   73.7990  221.4060 H   0  0  0  0  0  0  0  0  0  0  0  0
  138.8940   74.2940  222.7240 H   0  0  0  0  0  0  0  0  0  0  0  0
  138.1750   74.0380  221.2340 H   0  0  0  0  0  0  0  0  0  0  0  0
  139.2309   76.0911  223.3819 H   0  0  0  0  0  0  0  0  0  0  0  0
  141.5115   76.4633  223.5506 H   0  0  0  0  0  0  0  0  0  0  0  0
  141.6740   76.8119  221.8381 H   0  0  0  0  0  0  0  0  0  0  0  0
  143.2033   78.8130  223.4466 H   0  0  0  0  0  0  0  0  0  0  0  0
  142.8880   81.2552  223.9470 H   0  0  0  0  0  0  0  0  0  0  0  0
  140.6032   82.2722  223.8340 H   0  0  0  0  0  0  0  0  0  0  0  0
  138.6272   80.8545  223.2029 H   0  0  0  0  0  0  0  0  0  0  0  0
  137.9909   78.0426  223.3395 H   0  0  0  0  0  0  0  0  0  0  0  0
  138.3145   78.3208  221.6373 H   0  0  0  0  0  0  0  0  0  0  0  0
  142.5653   76.9863  219.1475 H   0  0  0  0  0  0  0  0  0  0  0  0
  141.5253   76.4639  217.7540 H   0  0  0  0  0  0  0  0  0  0  0  0
  142.8181   78.6776  217.4748 H   0  0  0  0  0  0  0  0  0  0  0  0
  141.0533   78.7003  217.1217 H   0  0  0  0  0  0  0  0  0  0  0  0
  1  2  1  0
  2  3  1  0
  3  4  1  0
  3  5  2  0
  5  6  1  0
  6  7  2  0
  7  8  1  0
  8  9  2  0
  9 10  1  0
 10 11  2  0
  5 12  1  0
 12 13  1  0
 13 14  1  0
 14 15  1  0
 15 16  1  0
 16 17  2  0
 16 18  1  0
 18 19  1  0
 18 20  1  0
 20 21  1  0
 21 22  1  0
 22 23  2  0
 23 24  1  0
 24 25  2  0
 25 26  1  0
 26 27  2  0
 27 28  1  0
 15 29  1  0
 29 30  1  0
 11  6  1  0
 30 12  1  0
 28 20  1  0
 27 22  1  0
  1 31  1  0
  1 32  1  0
  1 33  1  0
  2 34  1  0
  2 35  1  0
  4 36  1  0
  7 37  1  0
  8 38  1  0
  9 39  1  0
 10 40  1  0
 11 41  1  0
 12 42  1  0
 13 43  1  0
 13 44  1  0
 14 45  1  0
 14 46  1  0
 18 47  1  6
 19 48  1  0
 19 49  1  0
 19 50  1  0
 20 51  1  0
 21 52  1  0
 21 53  1  0
 23 54  1  0
 24 55  1  0
 25 56  1  0
 26 57  1  0
 28 58  1  0
 28 59  1  0
 29 60  1  0
 29 61  1  0
 30 62  1  0
 30 63  1  0
M  CHG  2   5   1  19   1
M  END
>  <meeko>  (14) 
{"free_energy": -6.39, "intermolecular_energy": -8.78, "internal_energy": -2.89, "cluster_size": 12, "cluster_id": 2, "rank_in_cluster": 9}

$$$$

     RDKit          3D

 63 66  0  0  0  0  0  0  0  0999 V2000
  143.5730   83.5410  216.8310 C   0  0  0  0  0  0  0  0  0  0  0  0
  143.8460   82.1720  217.4550 C   0  0  0  0  0  0  0  0  0  0  0  0
  142.6500   81.2360  217.3860 C   0  0  0  0  0  0  0  0  0  0  0  0
  142.3960   80.6210  216.1500 O   0  0  0  0  0  0  0  0  0  0  0  0
  141.9020   81.0020  218.4500 N   0  0  0  0  0  0  0  0  0  0  0  0
  141.3110   82.1150  219.1570 C   0  0  0  0  0  0  0  0  0  0  0  0
  140.4900   83.0300  218.4790 C   0  0  0  0  0  0  0  0  0  0  0  0
  139.8880   84.0830  219.1750 C   0  0  0  0  0  0  0  0  0  0  0  0
  140.1120   84.2360  220.5450 C   0  0  0  0  0  0  0  0  0  0  0  0
  140.9330   83.3320  221.2260 C   0  0  0  0  0  0  0  0  0  0  0  0
  141.5230   82.2680  220.5370 C   0  0  0  0  0  0  0  0  0  0  0  0
  141.7330   79.6350  219.0130 C   0  0  0  0  0  0  0  0  0  0  0  0
  140.2960   79.4400  219.5710 C   0  0  0  0  0  0  0  0  0  0  0  0
  139.7200   78.0360  219.3210 C   0  0  0  0  0  0  0  0  0  0  0  0
  140.7670   77.0090  219.4750 N   0  0  0  0  0  0  0  0  0  0  0  0
  140.6300   75.8410  220.3250 C   0  0  0  0  0  0  0  0  0  0  0  0
  141.5500   74.9740  220.3180 O   0  0  0  0  0  0  0  0  0  0  0  0
  139.4720   75.6500  221.2940 C   0  0  1  0  0  0  0  0  0  0  0  0
  139.3540   74.2360  221.6960 N   0  0  0  0  0  0  0  0  0  0  0  0
  139.6270   76.6230  222.5050 C   0  0  0  0  0  0  0  0  0  0  0  0
  141.0740   77.1270  222.7510 C   0  0  0  0  0  0  0  0  0  0  0  0
  140.8980   78.5710  223.0340 C   0  0  0  0  0  0  0  0  0  0  0  0
  141.8960   79.4740  223.4100 C   0  0  0  0  0  0  0  0  0  0  0  0
  141.5440   80.8130  223.6410 C   0  0  0  0  0  0  0  0  0  0  0  0
  140.2080   81.2290  223.4930 C   0  0  0  0  0  0  0  0  0  0  0  0
  139.2230   80.3080  223.1090 C   0  0  0  0  0  0  0  0  0  0  0  0
  139.5950   78.9790  222.8810 C   0  0  0  0  0  0  0  0  0  0  0  0
  138.7030   77.8720  222.4690 C   0  0  0  0  0  0  0  0  0  0  0  0
  142.0030   77.1480  218.6830 C   0  0  0  0  0  0  0  0  0  0  0  0
  142.1030   78.5210  218.0050 C   0  0  0  0  0  0  0  0  0  0  0  0
  143.4248   84.2843  217.6282 H   0  0  0  0  0  0  0  0  0  0  0  0
  144.4297   83.8374  216.2080 H   0  0  0  0  0  0  0  0  0  0  0  0
  142.6681   83.4861  216.2080 H   0  0  0  0  0  0  0  0  0  0  0  0
  144.6870   81.7054  216.9212 H   0  0  0  0  0  0  0  0  0  0  0  0
  144.0734   82.3358  218.5187 H   0  0  0  0  0  0  0  0  0  0  0  0
  143.0990   80.2900  215.5070 H   0  0  0  0  0  0  0  0  0  0  0  0
  140.3199   82.9184  217.3980 H   0  0  0  0  0  0  0  0  0  0  0  0
  139.2370   84.7920  218.6425 H   0  0  0  0  0  0  0  0  0  0  0  0
  139.6420   85.0686  221.0889 H   0  0  0  0  0  0  0  0  0  0  0  0
  141.1147   83.4579  222.3036 H   0  0  0  0  0  0  0  0  0  0  0  0
  142.1553   81.5483  221.0775 H   0  0  0  0  0  0  0  0  0  0  0  0
  142.4444   79.5440  219.8470 H   0  0  0  0  0  0  0  0  0  0  0  0
  140.3179   79.6180  220.6563 H   0  0  0  0  0  0  0  0  0  0  0  0
  139.6465   80.1525  219.0414 H   0  0  0  0  0  0  0  0  0  0  0  0
  138.9144   77.8419  220.0444 H   0  0  0  0  0  0  0  0  0  0  0  0
  139.3288   77.9915  218.2939 H   0  0  0  0  0  0  0  0  0  0  0  0
  138.5256   75.9048  220.7947 H   0  0  0  0  0  0  0  0  0  0  0  0
  138.5880   73.7430  221.1860 H   0  0  0  0  0  0  0  0  0  0  0  0
  140.2490   73.7230  221.5400 H   0  0  0  0  0  0  0  0  0  0  0  0
  139.1560   74.1800  222.7220 H   0  0  0  0  0  0  0  0  0  0  0  0
  139.3182   75.9691  223.3339 H   0  0  0  0  0  0  0  0  0  0  0  0
  141.5286   76.6113  223.6097 H   0  0  0  0  0  0  0  0  0  0  0  0
  141.7428   76.9374  221.8985 H   0  0  0  0  0  0  0  0  0  0  0  0
  142.9384   79.1415  223.5229 H   0  0  0  0  0  0  0  0  0  0  0  0
  142.3148   81.5392  223.9386 H   0  0  0  0  0  0  0  0  0  0  0  0
  139.9359   82.2785  223.6789 H   0  0  0  0  0  0  0  0  0  0  0  0
  138.1765   80.6249  222.9892 H   0  0  0  0  0  0  0  0  0  0  0  0
  137.8650   77.7606  223.1728 H   0  0  0  0  0  0  0  0  0  0  0  0
  138.2464   78.0367  221.4819 H   0  0  0  0  0  0  0  0  0  0  0  0
  142.8681   77.0179  219.3499 H   0  0  0  0  0  0  0  0  0  0  0  0
  141.9880   76.3812  217.8945 H   0  0  0  0  0  0  0  0  0  0  0  0
  143.1321   78.6780  217.6495 H   0  0  0  0  0  0  0  0  0  0  0  0
  141.4061   78.5563  217.1547 H   0  0  0  0  0  0  0  0  0  0  0  0
  1  2  1  0
  2  3  1  0
  3  4  1  0
  3  5  2  0
  5  6  1  0
  6  7  2  0
  7  8  1  0
  8  9  2  0
  9 10  1  0
 10 11  2  0
  5 12  1  0
 12 13  1  0
 13 14  1  0
 14 15  1  0
 15 16  1  0
 16 17  2  0
 16 18  1  0
 18 19  1  0
 18 20  1  0
 20 21  1  0
 21 22  1  0
 22 23  2  0
 23 24  1  0
 24 25  2  0
 25 26  1  0
 26 27  2  0
 27 28  1  0
 15 29  1  0
 29 30  1  0
 11  6  1  0
 30 12  1  0
 28 20  1  0
 27 22  1  0
  1 31  1  0
  1 32  1  0
  1 33  1  0
  2 34  1  0
  2 35  1  0
  4 36  1  0
  7 37  1  0
  8 38  1  0
  9 39  1  0
 10 40  1  0
 11 41  1  0
 12 42  1  0
 13 43  1  0
 13 44  1  0
 14 45  1  0
 14 46  1  0
 18 47  1  6
 19 48  1  0
 19 49  1  0
 19 50  1  0
 20 51  1  0
 21 52  1  0
 21 53  1  0
 23 54  1  0
 24 55  1  0
 25 56  1  0
 26 57  1  0
 28 58  1  0
 28 59  1  0
 29 60  1  0
 29 61  1  0
 30 62  1  0
 30 63  1  0
M  CHG  2   5   1  19   1
M  END
>  <meeko>  (15) 
{"free_energy": -6.26, "intermolecular_energy": -8.65, "internal_energy": -2.99, "cluster_size": 12, "cluster_id": 2, "rank_in_cluster": 12}

$$$$

     RDKit          3D

 63 66  0  0  0  0  0  0  0  0999 V2000
  140.3720   71.7050  222.8360 C   0  0  0  0  0  0  0  0  0  0  0  0
  141.2460   71.9450  221.6040 C   0  0  0  0  0  0  0  0  0  0  0  0
  141.4060   73.4180  221.2650 C   0  0  0  0  0  0  0  0  0  0  0  0
  140.6320   74.3270  222.0030 O   0  0  0  0  0  0  0  0  0  0  0  0
  142.2530   73.8180  220.3310 N   0  0  0  0  0  0  0  0  0  0  0  0
  143.5460   73.1800  220.2310 C   0  0  0  0  0  0  0  0  0  0  0  0
  144.6630   73.7400  220.8710 C   0  0  0  0  0  0  0  0  0  0  0  0
  145.9030   73.0970  220.8050 C   0  0  0  0  0  0  0  0  0  0  0  0
  146.0380   71.9040  220.0920 C   0  0  0  0  0  0  0  0  0  0  0  0
  144.9320   71.3450  219.4470 C   0  0  0  0  0  0  0  0  0  0  0  0
  143.6850   71.9740  219.5260 C   0  0  0  0  0  0  0  0  0  0  0  0
  141.9640   74.9770  219.4450 C   0  0  0  0  0  0  0  0  0  0  0  0
  142.8240   76.2070  219.8460 C   0  0  0  0  0  0  0  0  0  0  0  0
  143.3210   77.0330  218.6460 C   0  0  0  0  0  0  0  0  0  0  0  0
  142.2840   77.1080  217.6020 N   0  0  0  0  0  0  0  0  0  0  0  0
  141.8260   78.3520  217.0110 C   0  0  0  0  0  0  0  0  0  0  0  0
  140.9960   78.3030  216.0580 O   0  0  0  0  0  0  0  0  0  0  0  0
  142.2270   79.7210  217.5420 C   0  0  1  0  0  0  0  0  0  0  0  0
  142.0850   80.7500  216.4940 N   0  0  0  0  0  0  0  0  0  0  0  0
  141.4190   80.0460  218.8380 C   0  0  0  0  0  0  0  0  0  0  0  0
  140.8230   78.8080  219.5570 C   0  0  0  0  0  0  0  0  0  0  0  0
  141.0970   79.0700  220.9900 C   0  0  0  0  0  0  0  0  0  0  0  0
  140.6790   78.2920  222.0740 C   0  0  0  0  0  0  0  0  0  0  0  0
  141.0320   78.6970  223.3710 C   0  0  0  0  0  0  0  0  0  0  0  0
  141.7920   79.8640  223.5660 C   0  0  0  0  0  0  0  0  0  0  0  0
  142.2050   80.6270  222.4640 C   0  0  0  0  0  0  0  0  0  0  0  0
  141.8460   80.2050  221.1800 C   0  0  0  0  0  0  0  0  0  0  0  0
  142.1900   80.8730  219.9040 C   0  0  0  0  0  0  0  0  0  0  0  0
  141.7150   75.8480  217.0900 C   0  0  0  0  0  0  0  0  0  0  0  0
  142.1260   74.6410  217.9440 C   0  0  0  0  0  0  0  0  0  0  0  0
  140.9680   71.8687  223.7459 H   0  0  0  0  0  0  0  0  0  0  0  0
  139.5219   72.4030  222.8241 H   0  0  0  0  0  0  0  0  0  0  0  0
  139.9975   70.6708  222.8241 H   0  0  0  0  0  0  0  0  0  0  0  0
  142.2424   71.5189  221.7931 H   0  0  0  0  0  0  0  0  0  0  0  0
  140.7480   71.4637  220.7494 H   0  0  0  0  0  0  0  0  0  0  0  0
  139.8180   74.0920  222.5510 H   0  0  0  0  0  0  0  0  0  0  0  0
  144.5627   74.6852  221.4247 H   0  0  0  0  0  0  0  0  0  0  0  0
  146.7744   73.5322  221.3161 H   0  0  0  0  0  0  0  0  0  0  0  0
  147.0162   71.4038  220.0381 H   0  0  0  0  0  0  0  0  0  0  0  0
  145.0417   70.4105  218.8772 H   0  0  0  0  0  0  0  0  0  0  0  0
  142.8108   71.5223  219.0343 H   0  0  0  0  0  0  0  0  0  0  0  0
  140.9038   75.2316  219.5900 H   0  0  0  0  0  0  0  0  0  0  0  0
  142.2165   76.8604  220.4895 H   0  0  0  0  0  0  0  0  0  0  0  0
  143.7157   75.8211  220.3616 H   0  0  0  0  0  0  0  0  0  0  0  0
  143.5671   78.0502  218.9846 H   0  0  0  0  0  0  0  0  0  0  0  0
  144.2127   76.5454  218.2252 H   0  0  0  0  0  0  0  0  0  0  0  0
  143.2913   79.7136  217.8200 H   0  0  0  0  0  0  0  0  0  0  0  0
  141.7790   81.6690  216.8820 H   0  0  0  0  0  0  0  0  0  0  0  0
  142.9780   80.8830  215.9720 H   0  0  0  0  0  0  0  0  0  0  0  0
  141.3760   80.4360  215.7910 H   0  0  0  0  0  0  0  0  0  0  0  0
  140.6050   80.6595  218.4245 H   0  0  0  0  0  0  0  0  0  0  0  0
  139.7415   78.7296  219.3721 H   0  0  0  0  0  0  0  0  0  0  0  0
  141.2571   77.8603  219.2057 H   0  0  0  0  0  0  0  0  0  0  0  0
  140.0850   77.3802  221.9136 H   0  0  0  0  0  0  0  0  0  0  0  0
  140.7130   78.0994  224.2377 H   0  0  0  0  0  0  0  0  0  0  0  0
  142.0630   80.1790  224.5845 H   0  0  0  0  0  0  0  0  0  0  0  0
  142.8005   81.5407  222.6071 H   0  0  0  0  0  0  0  0  0  0  0  0
  141.8544   81.9205  219.9063 H   0  0  0  0  0  0  0  0  0  0  0  0
  143.2736   80.9055  219.7176 H   0  0  0  0  0  0  0  0  0  0  0  0
  140.6179   75.9273  217.0924 H   0  0  0  0  0  0  0  0  0  0  0  0
  142.1011   75.6905  216.0721 H   0  0  0  0  0  0  0  0  0  0  0  0
  141.4873   73.7816  217.6918 H   0  0  0  0  0  0  0  0  0  0  0  0
  143.1786   74.3953  217.7400 H   0  0  0  0  0  0  0  0  0  0  0  0
  1  2  1  0
  2  3  1  0
  3  4  1  0
  3  5  2  0
  5  6  1  0
  6  7  2  0
  7  8  1  0
  8  9  2  0
  9 10  1  0
 10 11  2  0
  5 12  1  0
 12 13  1  0
 13 14  1  0
 14 15  1  0
 15 16  1  0
 16 17  2  0
 16 18  1  0
 18 19  1  0
 18 20  1  0
 20 21  1  0
 21 22  1  0
 22 23  2  0
 23 24  1  0
 24 25  2  0
 25 26  1  0
 26 27  2  0
 27 28  1  0
 15 29  1  0
 29 30  1  0
 11  6  1  0
 30 12  1  0
 28 20  1  0
 27 22  1  0
  1 31  1  0
  1 32  1  0
  1 33  1  0
  2 34  1  0
  2 35  1  0
  4 36  1  0
  7 37  1  0
  8 38  1  0
  9 39  1  0
 10 40  1  0
 11 41  1  0
 12 42  1  0
 13 43  1  0
 13 44  1  0
 14 45  1  0
 14 46  1  0
 18 47  1  1
 19 48  1  0
 19 49  1  0
 19 50  1  0
 20 51  1  0
 21 52  1  0
 21 53  1  0
 23 54  1  0
 24 55  1  0
 25 56  1  0
 26 57  1  0
 28 58  1  0
 28 59  1  0
 29 60  1  0
 29 61  1  0
 30 62  1  0
 30 63  1  0
M  CHG  2   5   1  19   1
M  END
>  <meeko>  (16) 
{"free_energy": -7.2, "intermolecular_energy": -9.59, "internal_energy": -2.23, "cluster_size": 8, "cluster_id": 1, "rank_in_cluster": 6}

$$$$

     RDKit          3D

 63 66  0  0  0  0  0  0  0  0999 V2000
  143.6690   83.5270  216.6180 C   0  0  0  0  0  0  0  0  0  0  0  0
  143.8340   82.2360  217.4180 C   0  0  0  0  0  0  0  0  0  0  0  0
  142.6160   81.3290  217.3440 C   0  0  0  0  0  0  0  0  0  0  0  0
  142.3630   80.7060  216.1130 O   0  0  0  0  0  0  0  0  0  0  0  0
  141.8490   81.1260  218.4020 N   0  0  0  0  0  0  0  0  0  0  0  0
  141.3220   82.2640  219.1210 C   0  0  0  0  0  0  0  0  0  0  0  0
  141.4540   82.3430  220.5160 C   0  0  0  0  0  0  0  0  0  0  0  0
  140.9790   83.4650  221.2030 C   0  0  0  0  0  0  0  0  0  0  0  0
  140.3590   84.5040  220.5050 C   0  0  0  0  0  0  0  0  0  0  0  0
  140.2180   84.4280  219.1170 C   0  0  0  0  0  0  0  0  0  0  0  0
  140.7080   83.3160  218.4240 C   0  0  0  0  0  0  0  0  0  0  0  0
  141.5950   79.7640  218.9450 C   0  0  0  0  0  0  0  0  0  0  0  0
  140.2070   79.6970  219.6390 C   0  0  0  0  0  0  0  0  0  0  0  0
  139.4660   78.3670  219.4140 C   0  0  0  0  0  0  0  0  0  0  0  0
  140.4110   77.2350  219.4370 N   0  0  0  0  0  0  0  0  0  0  0  0
  140.2370   76.0580  220.2680 C   0  0  0  0  0  0  0  0  0  0  0  0
  141.0560   75.1030  220.1470 O   0  0  0  0  0  0  0  0  0  0  0  0
  139.1660   75.9520  221.3440 C   0  0  1  0  0  0  0  0  0  0  0  0
  138.9240   74.5410  221.7030 N   0  0  0  0  0  0  0  0  0  0  0  0
  139.5510   76.8420  222.5670 C   0  0  0  0  0  0  0  0  0  0  0  0
  141.0710   77.1120  222.7190 C   0  0  0  0  0  0  0  0  0  0  0  0
  141.1390   78.5530  223.0550 C   0  0  0  0  0  0  0  0  0  0  0  0
  142.2870   79.2790  223.3820 C   0  0  0  0  0  0  0  0  0  0  0  0
  142.1610   80.6460  223.6760 C   0  0  0  0  0  0  0  0  0  0  0  0
  140.8980   81.2640  223.6390 C   0  0  0  0  0  0  0  0  0  0  0  0
  139.7590   80.5180  223.3030 C   0  0  0  0  0  0  0  0  0  0  0  0
  139.9070   79.1590  223.0110 C   0  0  0  0  0  0  0  0  0  0  0  0
  138.8290   78.2160  222.6350 C   0  0  0  0  0  0  0  0  0  0  0  0
  141.5710   77.2760  218.5290 C   0  0  0  0  0  0  0  0  0  0  0  0
  141.7460   78.6550  217.8780 C   0  0  0  0  0  0  0  0  0  0  0  0
  143.5606   84.3756  217.3095 H   0  0  0  0  0  0  0  0  0  0  0  0
  144.5547   83.6814  215.9842 H   0  0  0  0  0  0  0  0  0  0  0  0
  142.7729   83.4536  215.9842 H   0  0  0  0  0  0  0  0  0  0  0  0
  144.7028   81.6884  217.0238 H   0  0  0  0  0  0  0  0  0  0  0  0
  143.9692   82.5184  218.4725 H   0  0  0  0  0  0  0  0  0  0  0  0
  143.0650   80.3810  215.4660 H   0  0  0  0  0  0  0  0  0  0  0  0
  141.9317   81.5214  221.0699 H   0  0  0  0  0  0  0  0  0  0  0  0
  141.0939   83.5293  222.2951 H   0  0  0  0  0  0  0  0  0  0  0  0
  139.9815   85.3827  221.0485 H   0  0  0  0  0  0  0  0  0  0  0  0
  139.7217   85.2426  218.5692 H   0  0  0  0  0  0  0  0  0  0  0  0
  140.6117   83.2660  217.3294 H   0  0  0  0  0  0  0  0  0  0  0  0
  142.3714   79.5716  219.7001 H   0  0  0  0  0  0  0  0  0  0  0  0
  140.3526   79.8347  220.7206 H   0  0  0  0  0  0  0  0  0  0  0  0
  139.5869   80.4895  219.1946 H   0  0  0  0  0  0  0  0  0  0  0  0
  138.7190   78.2304  220.2099 H   0  0  0  0  0  0  0  0  0  0  0  0
  138.9738   78.3976  218.4308 H   0  0  0  0  0  0  0  0  0  0  0  0
  138.2111   76.3359  220.9557 H   0  0  0  0  0  0  0  0  0  0  0  0
  139.6740   73.9090  221.3480 H   0  0  0  0  0  0  0  0  0  0  0  0
  138.8430   74.4240  222.7370 H   0  0  0  0  0  0  0  0  0  0  0  0
  138.0100   74.2300  221.2980 H   0  0  0  0  0  0  0  0  0  0  0  0
  139.2035   76.2102  223.3977 H   0  0  0  0  0  0  0  0  0  0  0  0
  141.4994   76.5002  223.5265 H   0  0  0  0  0  0  0  0  0  0  0  0
  141.6421   76.8576  221.8139 H   0  0  0  0  0  0  0  0  0  0  0  0
  143.2713   78.7887  223.4086 H   0  0  0  0  0  0  0  0  0  0  0  0
  143.0526   81.2355  223.9360 H   0  0  0  0  0  0  0  0  0  0  0  0
  140.8035   82.3344  223.8741 H   0  0  0  0  0  0  0  0  0  0  0  0
  138.7676   80.9934  223.2698 H   0  0  0  0  0  0  0  0  0  0  0  0
  138.0344   78.2047  223.3956 H   0  0  0  0  0  0  0  0  0  0  0  0
  138.3358   78.4864  221.6896 H   0  0  0  0  0  0  0  0  0  0  0  0
  142.4788   77.0366  219.1022 H   0  0  0  0  0  0  0  0  0  0  0  0
  141.4000   76.5422  217.7276 H   0  0  0  0  0  0  0  0  0  0  0  0
  142.7458   78.7196  217.4238 H   0  0  0  0  0  0  0  0  0  0  0  0
  140.9763   78.7902  217.1039 H   0  0  0  0  0  0  0  0  0  0  0  0
  1  2  1  0
  2  3  1  0
  3  4  1  0
  3  5  2  0
  5  6  1  0
  6  7  2  0
  7  8  1  0
  8  9  2  0
  9 10  1  0
 10 11  2  0
  5 12  1  0
 12 13  1  0
 13 14  1  0
 14 15  1  0
 15 16  1  0
 16 17  2  0
 16 18  1  0
 18 19  1  0
 18 20  1  0
 20 21  1  0
 21 22  1  0
 22 23  2  0
 23 24  1  0
 24 25  2  0
 25 26  1  0
 26 27  2  0
 27 28  1  0
 15 29  1  0
 29 30  1  0
 11  6  1  0
 30 12  1  0
 28 20  1  0
 27 22  1  0
  1 31  1  0
  1 32  1  0
  1 33  1  0
  2 34  1  0
  2 35  1  0
  4 36  1  0
  7 37  1  0
  8 38  1  0
  9 39  1  0
 10 40  1  0
 11 41  1  0
 12 42  1  0
 13 43  1  0
 13 44  1  0
 14 45  1  0
 14 46  1  0
 18 47  1  6
 19 48  1  0
 19 49  1  0
 19 50  1  0
 20 51  1  0
 21 52  1  0
 21 53  1  0
 23 54  1  0
 24 55  1  0
 25 56  1  0
 26 57  1  0
 28 58  1  0
 28 59  1  0
 29 60  1  0
 29 61  1  0
 30 62  1  0
 30 63  1  0
M  CHG  2   5   1  19   1
M  END
>  <meeko>  (17) 
{"free_energy": -6.46, "intermolecular_energy": -8.84, "internal_energy": -2.84, "cluster_size": 12, "cluster_id": 2, "rank_in_cluster": 3}

$$$$

     RDKit          3D

 63 66  0  0  0  0  0  0  0  0999 V2000
  143.6450   83.5690  216.6940 C   0  0  0  0  0  0  0  0  0  0  0  0
  143.8450   82.2530  217.4450 C   0  0  0  0  0  0  0  0  0  0  0  0
  142.6370   81.3320  217.3660 C   0  0  0  0  0  0  0  0  0  0  0  0
  142.4020   80.6980  216.1370 O   0  0  0  0  0  0  0  0  0  0  0  0
  141.8620   81.1280  218.4180 N   0  0  0  0  0  0  0  0  0  0  0  0
  141.3320   82.2650  219.1360 C   0  0  0  0  0  0  0  0  0  0  0  0
  140.6290   83.2690  218.4530 C   0  0  0  0  0  0  0  0  0  0  0  0
  140.0830   84.3470  219.1580 C   0  0  0  0  0  0  0  0  0  0  0  0
  140.2480   84.4350  220.5420 C   0  0  0  0  0  0  0  0  0  0  0  0
  140.9540   83.4420  221.2270 C   0  0  0  0  0  0  0  0  0  0  0  0
  141.4860   82.3530  220.5290 C   0  0  0  0  0  0  0  0  0  0  0  0
  141.6020   79.7660  218.9560 C   0  0  0  0  0  0  0  0  0  0  0  0
  140.2090   79.6990  219.6410 C   0  0  0  0  0  0  0  0  0  0  0  0
  139.4670   78.3710  219.4080 C   0  0  0  0  0  0  0  0  0  0  0  0
  140.4100   77.2380  219.4350 N   0  0  0  0  0  0  0  0  0  0  0  0
  140.2280   76.0590  220.2610 C   0  0  0  0  0  0  0  0  0  0  0  0
  141.0460   75.1030  220.1440 O   0  0  0  0  0  0  0  0  0  0  0  0
  139.1500   75.9520  221.3300 C   0  0  1  0  0  0  0  0  0  0  0  0
  138.9010   74.5410  221.6830 N   0  0  0  0  0  0  0  0  0  0  0  0
  139.5300   76.8370  222.5590 C   0  0  0  0  0  0  0  0  0  0  0  0
  141.0500   77.1000  222.7220 C   0  0  0  0  0  0  0  0  0  0  0  0
  141.1210   78.5410  223.0630 C   0  0  0  0  0  0  0  0  0  0  0  0
  142.2700   79.2610  223.4010 C   0  0  0  0  0  0  0  0  0  0  0  0
  142.1470   80.6280  223.6980 C   0  0  0  0  0  0  0  0  0  0  0  0
  140.8870   81.2510  223.6550 C   0  0  0  0  0  0  0  0  0  0  0  0
  139.7470   80.5100  223.3090 C   0  0  0  0  0  0  0  0  0  0  0  0
  139.8910   79.1510  223.0130 C   0  0  0  0  0  0  0  0  0  0  0  0
  138.8120   78.2140  222.6260 C   0  0  0  0  0  0  0  0  0  0  0  0
  141.5760   77.2780  218.5340 C   0  0  0  0  0  0  0  0  0  0  0  0
  141.7580   78.6590  217.8870 C   0  0  0  0  0  0  0  0  0  0  0  0
  143.5205   84.3885  217.4171 H   0  0  0  0  0  0  0  0  0  0  0  0
  144.5233   83.7678  216.0622 H   0  0  0  0  0  0  0  0  0  0  0  0
  142.7474   83.4979  216.0622 H   0  0  0  0  0  0  0  0  0  0  0  0
  144.7118   81.7315  217.0130 H   0  0  0  0  0  0  0  0  0  0  0  0
  144.0002   82.5006  218.5055 H   0  0  0  0  0  0  0  0  0  0  0  0
  143.1140   80.3490  215.5130 H   0  0  0  0  0  0  0  0  0  0  0  0
  140.5070   83.2084  217.3615 H   0  0  0  0  0  0  0  0  0  0  0  0
  139.5227   85.1267  218.6212 H   0  0  0  0  0  0  0  0  0  0  0  0
  139.8221   85.2863  221.0933 H   0  0  0  0  0  0  0  0  0  0  0  0
  141.0913   83.5171  222.3158 H   0  0  0  0  0  0  0  0  0  0  0  0
  142.0262   81.5637  221.0724 H   0  0  0  0  0  0  0  0  0  0  0  0
  142.3730   79.5711  219.7159 H   0  0  0  0  0  0  0  0  0  0  0  0
  140.3479   79.8336  220.7239 H   0  0  0  0  0  0  0  0  0  0  0  0
  139.5931   80.4934  219.1943 H   0  0  0  0  0  0  0  0  0  0  0  0
  138.7144   78.2339  220.1985 H   0  0  0  0  0  0  0  0  0  0  0  0
  138.9811   78.4046  218.4217 H   0  0  0  0  0  0  0  0  0  0  0  0
  138.1988   76.3397  220.9365 H   0  0  0  0  0  0  0  0  0  0  0  0
  138.7790   74.4070  222.7110 H   0  0  0  0  0  0  0  0  0  0  0  0
  138.0590   74.1720  221.1910 H   0  0  0  0  0  0  0  0  0  0  0  0
  139.7090   73.9550  221.3670 H   0  0  0  0  0  0  0  0  0  0  0  0
  139.1746   76.2046  223.3859 H   0  0  0  0  0  0  0  0  0  0  0  0
  141.4705   76.4841  223.5306 H   0  0  0  0  0  0  0  0  0  0  0  0
  141.6264   76.8457  221.8203 H   0  0  0  0  0  0  0  0  0  0  0  0
  143.2520   78.7664  223.4338 H   0  0  0  0  0  0  0  0  0  0  0  0
  143.0392   81.2134  223.9651 H   0  0  0  0  0  0  0  0  0  0  0  0
  140.7951   82.3210  223.8930 H   0  0  0  0  0  0  0  0  0  0  0  0
  138.7577   80.9895  223.2713 H   0  0  0  0  0  0  0  0  0  0  0  0
  138.0118   78.2033  223.3807 H   0  0  0  0  0  0  0  0  0  0  0  0
  138.3265   78.4893  221.6781 H   0  0  0  0  0  0  0  0  0  0  0  0
  142.4797   77.0351  219.1122 H   0  0  0  0  0  0  0  0  0  0  0  0
  141.4085   76.5462  217.7300 H   0  0  0  0  0  0  0  0  0  0  0  0
  142.7608   78.7228  217.4395 H   0  0  0  0  0  0  0  0  0  0  0  0
  140.9937   78.7975  217.1081 H   0  0  0  0  0  0  0  0  0  0  0  0
  1  2  1  0
  2  3  1  0
  3  4  1  0
  3  5  2  0
  5  6  1  0
  6  7  2  0
  7  8  1  0
  8  9  2  0
  9 10  1  0
 10 11  2  0
  5 12  1  0
 12 13  1  0
 13 14  1  0
 14 15  1  0
 15 16  1  0
 16 17  2  0
 16 18  1  0
 18 19  1  0
 18 20  1  0
 20 21  1  0
 21 22  1  0
 22 23  2  0
 23 24  1  0
 24 25  2  0
 25 26  1  0
 26 27  2  0
 27 28  1  0
 15 29  1  0
 29 30  1  0
 11  6  1  0
 30 12  1  0
 28 20  1  0
 27 22  1  0
  1 31  1  0
  1 32  1  0
  1 33  1  0
  2 34  1  0
  2 35  1  0
  4 36  1  0
  7 37  1  0
  8 38  1  0
  9 39  1  0
 10 40  1  0
 11 41  1  0
 12 42  1  0
 13 43  1  0
 13 44  1  0
 14 45  1  0
 14 46  1  0
 18 47  1  6
 19 48  1  0
 19 49  1  0
 19 50  1  0
 20 51  1  0
 21 52  1  0
 21 53  1  0
 23 54  1  0
 24 55  1  0
 25 56  1  0
 26 57  1  0
 28 58  1  0
 28 59  1  0
 29 60  1  0
 29 61  1  0
 30 62  1  0
 30 63  1  0
M  CHG  2   5   1  19   1
M  END
>  <meeko>  (18) 
{"free_energy": -6.42, "intermolecular_energy": -8.81, "internal_energy": -2.89, "cluster_size": 12, "cluster_id": 2, "rank_in_cluster": 6}

$$$$

     RDKit          3D

 63 66  0  0  0  0  0  0  0  0999 V2000
  143.7260   83.3750  216.4470 C   0  0  0  0  0  0  0  0  0  0  0  0
  143.8820   82.2350  217.4530 C   0  0  0  0  0  0  0  0  0  0  0  0
  142.7290   81.2450  217.4150 C   0  0  0  0  0  0  0  0  0  0  0  0
  142.5070   80.5750  216.2030 O   0  0  0  0  0  0  0  0  0  0  0  0
  141.9880   81.0170  218.4860 N   0  0  0  0  0  0  0  0  0  0  0  0
  141.3950   82.1340  219.1860 C   0  0  0  0  0  0  0  0  0  0  0  0
  141.5120   82.2380  220.5810 C   0  0  0  0  0  0  0  0  0  0  0  0
  140.9710   83.3410  221.2500 C   0  0  0  0  0  0  0  0  0  0  0  0
  140.3030   84.3370  220.5340 C   0  0  0  0  0  0  0  0  0  0  0  0
  140.1780   84.2360  219.1450 C   0  0  0  0  0  0  0  0  0  0  0  0
  140.7320   83.1430  218.4710 C   0  0  0  0  0  0  0  0  0  0  0  0
  141.8290   79.6540  219.0630 C   0  0  0  0  0  0  0  0  0  0  0  0
  140.3770   79.4330  219.5670 C   0  0  0  0  0  0  0  0  0  0  0  0
  139.8430   78.0120  219.3170 C   0  0  0  0  0  0  0  0  0  0  0  0
  140.9070   77.0130  219.5260 N   0  0  0  0  0  0  0  0  0  0  0  0
  140.7640   75.8540  220.3880 C   0  0  0  0  0  0  0  0  0  0  0  0
  141.7040   75.0090  220.4300 O   0  0  0  0  0  0  0  0  0  0  0  0
  139.5750   75.6490  221.3140 C   0  0  1  0  0  0  0  0  0  0  0  0
  139.4680   74.2360  221.7250 N   0  0  0  0  0  0  0  0  0  0  0  0
  139.6650   76.6360  222.5220 C   0  0  0  0  0  0  0  0  0  0  0  0
  141.0870   77.1880  222.8010 C   0  0  0  0  0  0  0  0  0  0  0  0
  140.8570   78.6280  223.0680 C   0  0  0  0  0  0  0  0  0  0  0  0
  141.8150   79.5650  223.4640 C   0  0  0  0  0  0  0  0  0  0  0  0
  141.4140   80.8940  223.6740 C   0  0  0  0  0  0  0  0  0  0  0  0
  140.0700   81.2650  223.4880 C   0  0  0  0  0  0  0  0  0  0  0  0
  139.1250   80.3090  223.0850 C   0  0  0  0  0  0  0  0  0  0  0  0
  139.5470   78.9920  222.8780 C   0  0  0  0  0  0  0  0  0  0  0  0
  138.7020   77.8530  222.4510 C   0  0  0  0  0  0  0  0  0  0  0  0
  142.1690   77.1700  218.7810 C   0  0  0  0  0  0  0  0  0  0  0  0
  142.2630   78.5360  218.0860 C   0  0  0  0  0  0  0  0  0  0  0  0
  143.5960   84.3248  216.9864 H   0  0  0  0  0  0  0  0  0  0  0  0
  144.6247   83.4321  215.8153 H   0  0  0  0  0  0  0  0  0  0  0  0
  142.8450   83.1886  215.8153 H   0  0  0  0  0  0  0  0  0  0  0  0
  144.8142   81.6956  217.2293 H   0  0  0  0  0  0  0  0  0  0  0  0
  143.8968   82.6833  218.4574 H   0  0  0  0  0  0  0  0  0  0  0  0
  143.2250   80.2010  215.6010 H   0  0  0  0  0  0  0  0  0  0  0  0
  142.0298   81.4510  221.1489 H   0  0  0  0  0  0  0  0  0  0  0  0
  141.0719   83.4241  222.3422 H   0  0  0  0  0  0  0  0  0  0  0  0
  139.8750   85.2013  221.0631 H   0  0  0  0  0  0  0  0  0  0  0  0
  139.6440   85.0161  218.5826 H   0  0  0  0  0  0  0  0  0  0  0  0
  140.6477   83.0740  217.3764 H   0  0  0  0  0  0  0  0  0  0  0  0
  142.5090   79.5913  219.9254 H   0  0  0  0  0  0  0  0  0  0  0  0
  140.3521   79.6275  220.6494 H   0  0  0  0  0  0  0  0  0  0  0  0
  139.7328   80.1218  219.0008 H   0  0  0  0  0  0  0  0  0  0  0  0
  139.0153   77.8094  220.0126 H   0  0  0  0  0  0  0  0  0  0  0  0
  139.4917   77.9433  218.2769 H   0  0  0  0  0  0  0  0  0  0  0  0
  138.6439   75.8812  220.7763 H   0  0  0  0  0  0  0  0  0  0  0  0
  139.2000   74.1350  222.7280 H   0  0  0  0  0  0  0  0  0  0  0  0
  138.7760   73.7240  221.1360 H   0  0  0  0  0  0  0  0  0  0  0  0
  140.3890   73.7600  221.5790 H   0  0  0  0  0  0  0  0  0  0  0  0
  139.3552   75.9794  223.3483 H   0  0  0  0  0  0  0  0  0  0  0  0
  141.5356   76.6934  223.6752 H   0  0  0  0  0  0  0  0  0  0  0  0
  141.7836   77.0142  221.9676 H   0  0  0  0  0  0  0  0  0  0  0  0
  142.8639   79.2669  223.6085 H   0  0  0  0  0  0  0  0  0  0  0  0
  142.1529   81.6472  223.9848 H   0  0  0  0  0  0  0  0  0  0  0  0
  139.7592   82.3063  223.6587 H   0  0  0  0  0  0  0  0  0  0  0  0
  138.0722   80.5903  222.9348 H   0  0  0  0  0  0  0  0  0  0  0  0
  137.8494   77.7193  223.1330 H   0  0  0  0  0  0  0  0  0  0  0  0
  138.2667   77.9954  221.4509 H   0  0  0  0  0  0  0  0  0  0  0  0
  143.0101   77.0705  219.4829 H   0  0  0  0  0  0  0  0  0  0  0  0
  142.2032   76.3916  218.0045 H   0  0  0  0  0  0  0  0  0  0  0  0
  143.3009   78.7126  217.7673 H   0  0  0  0  0  0  0  0  0  0  0  0
  141.5989   78.5430  217.2091 H   0  0  0  0  0  0  0  0  0  0  0  0
  1  2  1  0
  2  3  1  0
  3  4  1  0
  3  5  2  0
  5  6  1  0
  6  7  2  0
  7  8  1  0
  8  9  2  0
  9 10  1  0
 10 11  2  0
  5 12  1  0
 12 13  1  0
 13 14  1  0
 14 15  1  0
 15 16  1  0
 16 17  2  0
 16 18  1  0
 18 19  1  0
 18 20  1  0
 20 21  1  0
 21 22  1  0
 22 23  2  0
 23 24  1  0
 24 25  2  0
 25 26  1  0
 26 27  2  0
 27 28  1  0
 15 29  1  0
 29 30  1  0
 11  6  1  0
 30 12  1  0
 28 20  1  0
 27 22  1  0
  1 31  1  0
  1 32  1  0
  1 33  1  0
  2 34  1  0
  2 35  1  0
  4 36  1  0
  7 37  1  0
  8 38  1  0
  9 39  1  0
 10 40  1  0
 11 41  1  0
 12 42  1  0
 13 43  1  0
 13 44  1  0
 14 45  1  0
 14 46  1  0
 18 47  1  6
 19 48  1  0
 19 49  1  0
 19 50  1  0
 20 51  1  0
 21 52  1  0
 21 53  1  0
 23 54  1  0
 24 55  1  0
 25 56  1  0
 26 57  1  0
 28 58  1  0
 28 59  1  0
 29 60  1  0
 29 61  1  0
 30 62  1  0
 30 63  1  0
M  CHG  2   5   1  19   1
M  END
>  <meeko>  (19) 
{"free_energy": -6.36, "intermolecular_energy": -8.74, "internal_energy": -2.93, "cluster_size": 12, "cluster_id": 2, "rank_in_cluster": 11}

$$$$

     RDKit          3D

 63 66  0  0  0  0  0  0  0  0999 V2000
  143.6720   83.5580  216.7670 C   0  0  0  0  0  0  0  0  0  0  0  0
  143.8710   82.2100  217.4590 C   0  0  0  0  0  0  0  0  0  0  0  0
  142.6480   81.3100  217.3750 C   0  0  0  0  0  0  0  0  0  0  0  0
  142.3910   80.7020  216.1370 O   0  0  0  0  0  0  0  0  0  0  0  0
  141.8800   81.0990  218.4310 N   0  0  0  0  0  0  0  0  0  0  0  0
  141.3390   82.2320  219.1480 C   0  0  0  0  0  0  0  0  0  0  0  0
  141.5310   82.3490  220.5330 C   0  0  0  0  0  0  0  0  0  0  0  0
  141.0400   83.4670  221.2160 C   0  0  0  0  0  0  0  0  0  0  0  0
  140.3470   84.4630  220.5250 C   0  0  0  0  0  0  0  0  0  0  0  0
  140.1470   84.3480  219.1460 C   0  0  0  0  0  0  0  0  0  0  0  0
  140.6510   83.2410  218.4560 C   0  0  0  0  0  0  0  0  0  0  0  0
  141.6390   79.7350  218.9730 C   0  0  0  0  0  0  0  0  0  0  0  0
  140.2400   79.6460  219.6420 C   0  0  0  0  0  0  0  0  0  0  0  0
  139.5260   78.3030  219.4080 C   0  0  0  0  0  0  0  0  0  0  0  0
  140.4890   77.1880  219.4520 N   0  0  0  0  0  0  0  0  0  0  0  0
  140.3200   76.0100  220.2830 C   0  0  0  0  0  0  0  0  0  0  0  0
  141.1570   75.0690  220.1810 O   0  0  0  0  0  0  0  0  0  0  0  0
  139.2310   75.8890  221.3390 C   0  0  1  0  0  0  0  0  0  0  0  0
  139.0140   74.4770  221.7070 N   0  0  0  0  0  0  0  0  0  0  0  0
  139.5720   76.7990  222.5620 C   0  0  0  0  0  0  0  0  0  0  0  0
  141.0830   77.1040  222.7410 C   0  0  0  0  0  0  0  0  0  0  0  0
  141.1120   78.5490  223.0650 C   0  0  0  0  0  0  0  0  0  0  0  0
  142.2370   79.3040  223.4070 C   0  0  0  0  0  0  0  0  0  0  0  0
  142.0750   80.6700  223.6860 C   0  0  0  0  0  0  0  0  0  0  0  0
  140.8000   81.2590  223.6190 C   0  0  0  0  0  0  0  0  0  0  0  0
  139.6840   80.4850  223.2680 C   0  0  0  0  0  0  0  0  0  0  0  0
  139.8680   79.1270  222.9910 C   0  0  0  0  0  0  0  0  0  0  0  0
  138.8190   78.1570  222.6030 C   0  0  0  0  0  0  0  0  0  0  0  0
  141.6650   77.2450  218.5650 C   0  0  0  0  0  0  0  0  0  0  0  0
  141.8290   78.6260  217.9130 C   0  0  0  0  0  0  0  0  0  0  0  0
  143.5557   84.3460  217.5257 H   0  0  0  0  0  0  0  0  0  0  0  0
  144.5471   83.7803  216.1386 H   0  0  0  0  0  0  0  0  0  0  0  0
  142.7700   83.5180  216.1386 H   0  0  0  0  0  0  0  0  0  0  0  0
  144.7185   81.6943  216.9838 H   0  0  0  0  0  0  0  0  0  0  0  0
  144.0568   82.4124  218.5241 H   0  0  0  0  0  0  0  0  0  0  0  0
  143.0930   80.3750  215.4890 H   0  0  0  0  0  0  0  0  0  0  0  0
  142.0678   81.5614  221.0821 H   0  0  0  0  0  0  0  0  0  0  0  0
  141.2003   83.5616  222.3001 H   0  0  0  0  0  0  0  0  0  0  0  0
  139.9583   85.3385  221.0658 H   0  0  0  0  0  0  0  0  0  0  0  0
  139.5931   85.1285  218.6037 H   0  0  0  0  0  0  0  0  0  0  0  0
  140.5079   83.1607  217.3683 H   0  0  0  0  0  0  0  0  0  0  0  0
  142.4044   79.5581  219.7430 H   0  0  0  0  0  0  0  0  0  0  0  0
  140.3636   79.7893  220.7256 H   0  0  0  0  0  0  0  0  0  0  0  0
  139.6146   80.4263  219.1838 H   0  0  0  0  0  0  0  0  0  0  0  0
  138.7671   78.1561  220.1906 H   0  0  0  0  0  0  0  0  0  0  0  0
  139.0514   78.3223  218.4159 H   0  0  0  0  0  0  0  0  0  0  0  0
  138.2756   76.2473  220.9281 H   0  0  0  0  0  0  0  0  0  0  0  0
  138.8350   74.3580  222.7290 H   0  0  0  0  0  0  0  0  0  0  0  0
  138.2180   74.0660  221.1730 H   0  0  0  0  0  0  0  0  0  0  0  0
  139.8610   73.9170  221.4530 H   0  0  0  0  0  0  0  0  0  0  0  0
  139.2218   76.1673  223.3916 H   0  0  0  0  0  0  0  0  0  0  0  0
  141.5089   76.5090  223.5623 H   0  0  0  0  0  0  0  0  0  0  0  0
  141.6774   76.8543  221.8497 H   0  0  0  0  0  0  0  0  0  0  0  0
  143.2314   78.8363  223.4566 H   0  0  0  0  0  0  0  0  0  0  0  0
  142.9480   81.2815  223.9579 H   0  0  0  0  0  0  0  0  0  0  0  0
  140.6774   82.3291  223.8423 H   0  0  0  0  0  0  0  0  0  0  0  0
  138.6831   80.9379  223.2118 H   0  0  0  0  0  0  0  0  0  0  0  0
  138.0100   78.1348  223.3480 H   0  0  0  0  0  0  0  0  0  0  0  0
  138.3389   78.4078  221.6456 H   0  0  0  0  0  0  0  0  0  0  0  0
  142.5660   77.0220  219.1554 H   0  0  0  0  0  0  0  0  0  0  0  0
  141.5211   76.5061  217.7629 H   0  0  0  0  0  0  0  0  0  0  0  0
  142.8360   78.7064  217.4777 H   0  0  0  0  0  0  0  0  0  0  0  0
  141.0718   78.7459  217.1241 H   0  0  0  0  0  0  0  0  0  0  0  0
  1  2  1  0
  2  3  1  0
  3  4  1  0
  3  5  2  0
  5  6  1  0
  6  7  2  0
  7  8  1  0
  8  9  2  0
  9 10  1  0
 10 11  2  0
  5 12  1  0
 12 13  1  0
 13 14  1  0
 14 15  1  0
 15 16  1  0
 16 17  2  0
 16 18  1  0
 18 19  1  0
 18 20  1  0
 20 21  1  0
 21 22  1  0
 22 23  2  0
 23 24  1  0
 24 25  2  0
 25 26  1  0
 26 27  2  0
 27 28  1  0
 15 29  1  0
 29 30  1  0
 11  6  1  0
 30 12  1  0
 28 20  1  0
 27 22  1  0
  1 31  1  0
  1 32  1  0
  1 33  1  0
  2 34  1  0
  2 35  1  0
  4 36  1  0
  7 37  1  0
  8 38  1  0
  9 39  1  0
 10 40  1  0
 11 41  1  0
 12 42  1  0
 13 43  1  0
 13 44  1  0
 14 45  1  0
 14 46  1  0
 18 47  1  6
 19 48  1  0
 19 49  1  0
 19 50  1  0
 20 51  1  0
 21 52  1  0
 21 53  1  0
 23 54  1  0
 24 55  1  0
 25 56  1  0
 26 57  1  0
 28 58  1  0
 28 59  1  0
 29 60  1  0
 29 61  1  0
 30 62  1  0
 30 63  1  0
M  CHG  2   5   1  19   1
M  END
>  <meeko>  (20) 
{"free_energy": -6.38, "intermolecular_energy": -8.76, "internal_energy": -2.93, "cluster_size": 12, "cluster_id": 2, "rank_in_cluster": 10}

$$$$
