
     RDKit          3D

 63 66  0  0  0  0  0  0  0  0999 V2000
  144.7840   76.6500  214.2090 C   0  0  0  0  0  0  0  0  0  0  0  0
  143.6210   77.3770  214.8830 C   0  0  0  0  0  0  0  0  0  0  0  0
  143.4290   76.9680  216.3330 C   0  0  0  0  0  0  0  0  0  0  0  0
  144.2200   75.9060  216.8010 O   0  0  0  0  0  0  0  0  0  0  0  0
  142.5720   77.5830  217.1310 N   0  0  0  0  0  0  0  0  0  0  0  0
  142.4040   79.0100  217.0120 C   0  0  0  0  0  0  0  0  0  0  0  0
  142.9380   79.8710  217.9850 C   0  0  0  0  0  0  0  0  0  0  0  0
  142.7760   81.2540  217.8610 C   0  0  0  0  0  0  0  0  0  0  0  0
  142.0890   81.7840  216.7650 C   0  0  0  0  0  0  0  0  0  0  0  0
  141.5640   80.9320  215.7880 C   0  0  0  0  0  0  0  0  0  0  0  0
  141.7220   79.5470  215.9090 C   0  0  0  0  0  0  0  0  0  0  0  0
  141.8610   76.8740  218.2320 C   0  0  0  0  0  0  0  0  0  0  0  0
  142.7790   76.5060  219.4260 C   0  0  0  0  0  0  0  0  0  0  0  0
  142.2000   75.3850  220.3200 C   0  0  0  0  0  0  0  0  0  0  0  0
  140.7500   75.1920  220.1360 N   0  0  0  0  0  0  0  0  0  0  0  0
  139.9420   74.8280  221.2770 C   0  0  0  0  0  0  0  0  0  0  0  0
  140.4930   74.3090  222.2860 O   0  0  0  0  0  0  0  0  0  0  0  0
  138.4520   75.1240  221.3150 C   0  0  1  0  0  0  0  0  0  0  0  0
  137.7690   74.3020  222.3310 N   0  0  0  0  0  0  0  0  0  0  0  0
  138.2140   76.6540  221.5170 C   0  0  0  0  0  0  0  0  0  0  0  0
  138.8180   77.5330  220.3880 C   0  0  0  0  0  0  0  0  0  0  0  0
  139.9390   78.2360  221.0540 C   0  0  0  0  0  0  0  0  0  0  0  0
  140.8960   79.0470  220.4430 C   0  0  0  0  0  0  0  0  0  0  0  0
  141.8750   79.6570  221.2440 C   0  0  0  0  0  0  0  0  0  0  0  0
  141.8750   79.4530  222.6350 C   0  0  0  0  0  0  0  0  0  0  0  0
  140.8970   78.6390  223.2300 C   0  0  0  0  0  0  0  0  0  0  0  0
  139.9380   78.0380  222.4130 C   0  0  0  0  0  0  0  0  0  0  0  0
  138.8130   77.1770  222.8490 C   0  0  0  0  0  0  0  0  0  0  0  0
  140.1780   75.1110  218.7780 C   0  0  0  0  0  0  0  0  0  0  0  0
  141.1590   75.6120  217.7120 C   0  0  0  0  0  0  0  0  0  0  0  0
  145.4509   76.2331  214.9781 H   0  0  0  0  0  0  0  0  0  0  0  0
  144.3930   75.8352  213.5819 H   0  0  0  0  0  0  0  0  0  0  0  0
  145.3452   77.3584  213.5819 H   0  0  0  0  0  0  0  0  0  0  0  0
  143.8150   78.4591  214.8463 H   0  0  0  0  0  0  0  0  0  0  0  0
  142.7035   77.1069  214.3396 H   0  0  0  0  0  0  0  0  0  0  0  0
  145.1790   76.0000  217.1130 H   0  0  0  0  0  0  0  0  0  0  0  0
  143.4841   79.4566  218.8453 H   0  0  0  0  0  0  0  0  0  0  0  0
  143.1898   81.9262  218.6271 H   0  0  0  0  0  0  0  0  0  0  0  0
  141.9612   82.8725  216.6709 H   0  0  0  0  0  0  0  0  0  0  0  0
  141.0268   81.3508  214.9243 H   0  0  0  0  0  0  0  0  0  0  0  0
  141.3111   78.8780  215.1385 H   0  0  0  0  0  0  0  0  0  0  0  0
  141.1130   77.5876  218.6079 H   0  0  0  0  0  0  0  0  0  0  0  0
  143.7491   76.1709  219.0302 H   0  0  0  0  0  0  0  0  0  0  0  0
  142.8751   77.4052  220.0523 H   0  0  0  0  0  0  0  0  0  0  0  0
  142.7126   74.4427  220.0766 H   0  0  0  0  0  0  0  0  0  0  0  0
  142.3620   75.6824  221.3666 H   0  0  0  0  0  0  0  0  0  0  0  0
  138.0072   74.8466  220.3480 H   0  0  0  0  0  0  0  0  0  0  0  0
  138.4590   73.6530  222.7750 H   0  0  0  0  0  0  0  0  0  0  0  0
  137.0250   73.7140  221.8920 H   0  0  0  0  0  0  0  0  0  0  0  0
  137.3350   74.8880  223.0790 H   0  0  0  0  0  0  0  0  0  0  0  0
  137.1178   76.7447  221.5142 H   0  0  0  0  0  0  0  0  0  0  0  0
  139.1830   76.9099  219.5582 H   0  0  0  0  0  0  0  0  0  0  0  0
  138.0843   78.2228  219.9453 H   0  0  0  0  0  0  0  0  0  0  0  0
  140.8838   79.2055  219.3545 H   0  0  0  0  0  0  0  0  0  0  0  0
  142.6429   80.2953  220.7825 H   0  0  0  0  0  0  0  0  0  0  0  0
  142.6433   79.9324  223.2594 H   0  0  0  0  0  0  0  0  0  0  0  0
  140.8871   78.4784  224.3182 H   0  0  0  0  0  0  0  0  0  0  0  0
  139.1741   76.3444  223.4706 H   0  0  0  0  0  0  0  0  0  0  0  0
  138.0778   77.7152  223.4653 H   0  0  0  0  0  0  0  0  0  0  0  0
  139.9230   74.0630  218.5618 H   0  0  0  0  0  0  0  0  0  0  0  0
  139.2846   75.7520  218.7463 H   0  0  0  0  0  0  0  0  0  0  0  0
  141.9073   74.8329  217.5042 H   0  0  0  0  0  0  0  0  0  0  0  0
  140.6137   75.8453  216.7856 H   0  0  0  0  0  0  0  0  0  0  0  0
  1  2  1  0
  2  3  1  0
  3  4  1  0
  3  5  2  0
  5  6  1  0
  6  7  2  0
  7  8  1  0
  8  9  2  0
  9 10  1  0
 10 11  2  0
  5 12  1  0
 12 13  1  0
 13 14  1  0
 14 15  1  0
 15 16  1  0
 16 17  2  0
 16 18  1  0
 18 19  1  0
 18 20  1  0
 20 21  1  0
 21 22  1  0
 22 23  2  0
 23 24  1  0
 24 25  2  0
 25 26  1  0
 26 27  2  0
 27 28  1  0
 15 29  1  0
 29 30  1  0
 11  6  1  0
 30 12  1  0
 28 20  1  0
 27 22  1  0
  1 31  1  0
  1 32  1  0
  1 33  1  0
  2 34  1  0
  2 35  1  0
  4 36  1  0
  7 37  1  0
  8 38  1  0
  9 39  1  0
 10 40  1  0
 11 41  1  0
 12 42  1  0
 13 43  1  0
 13 44  1  0
 14 45  1  0
 14 46  1  0
 18 47  1  6
 19 48  1  0
 19 49  1  0
 19 50  1  0
 20 51  1  0
 21 52  1  0
 21 53  1  0
 23 54  1  0
 24 55  1  0
 25 56  1  0
 26 57  1  0
 28 58  1  0
 28 59  1  0
 29 60  1  0
 29 61  1  0
 30 62  1  0
 30 63  1  0
M  CHG  2   5   1  19   1
M  END
>  <meeko>  (1) 
{"free_energy": -6.37, "intermolecular_energy": -8.76, "internal_energy": -2.89, "cluster_size": 4, "cluster_id": 3, "rank_in_cluster": 2}

$$$$

     RDKit          3D

 63 66  0  0  0  0  0  0  0  0999 V2000
  138.2020   75.7630  221.4940 C   0  0  0  0  0  0  0  0  0  0  0  0
  139.5870   75.6070  222.1200 C   0  0  0  0  0  0  0  0  0  0  0  0
  140.2670   74.3050  221.7340 C   0  0  0  0  0  0  0  0  0  0  0  0
  140.0030   73.1890  222.5450 O   0  0  0  0  0  0  0  0  0  0  0  0
  141.0600   74.2100  220.6800 N   0  0  0  0  0  0  0  0  0  0  0  0
  141.7240   72.9580  220.4140 C   0  0  0  0  0  0  0  0  0  0  0  0
  143.0450   72.7490  220.8430 C   0  0  0  0  0  0  0  0  0  0  0  0
  143.6810   71.5320  220.5850 C   0  0  0  0  0  0  0  0  0  0  0  0
  143.0020   70.5150  219.9070 C   0  0  0  0  0  0  0  0  0  0  0  0
  141.6830   70.7140  219.4860 C   0  0  0  0  0  0  0  0  0  0  0  0
  141.0430   71.9320  219.7390 C   0  0  0  0  0  0  0  0  0  0  0  0
  141.3890   75.3840  219.8230 C   0  0  0  0  0  0  0  0  0  0  0  0
  140.7780   75.3040  218.4010 C   0  0  0  0  0  0  0  0  0  0  0  0
  141.4810   76.2280  217.3790 C   0  0  0  0  0  0  0  0  0  0  0  0
  142.2760   77.2920  218.0180 N   0  0  0  0  0  0  0  0  0  0  0  0
  142.3480   78.5890  217.3840 C   0  0  0  0  0  0  0  0  0  0  0  0
  142.0840   78.6920  216.1550 O   0  0  0  0  0  0  0  0  0  0  0  0
  142.6640   79.8420  218.1840 C   0  0  1  0  0  0  0  0  0  0  0  0
  143.0360   80.9620  217.2980 N   0  0  0  0  0  0  0  0  0  0  0  0
  141.4720   80.1910  219.1290 C   0  0  0  0  0  0  0  0  0  0  0  0
  141.8010   81.2980  220.1660 C   0  0  0  0  0  0  0  0  0  0  0  0
  141.8230   80.5730  221.4570 C   0  0  0  0  0  0  0  0  0  0  0  0
  142.2090   81.0870  222.6970 C   0  0  0  0  0  0  0  0  0  0  0  0
  142.1360   80.2530  223.8240 C   0  0  0  0  0  0  0  0  0  0  0  0
  141.6740   78.9310  223.6960 C   0  0  0  0  0  0  0  0  0  0  0  0
  141.2830   78.4390  222.4410 C   0  0  0  0  0  0  0  0  0  0  0  0
  141.3700   79.2830  221.3320 C   0  0  0  0  0  0  0  0  0  0  0  0
  140.9780   78.9640  219.9390 C   0  0  0  0  0  0  0  0  0  0  0  0
  143.1890   76.9710  219.1330 C   0  0  0  0  0  0  0  0  0  0  0  0
  142.9060   75.5850  219.7230 C   0  0  0  0  0  0  0  0  0  0  0  0
  137.4474   75.8480  222.2898 H   0  0  0  0  0  0  0  0  0  0  0  0
  138.1813   76.6692  220.8707 H   0  0  0  0  0  0  0  0  0  0  0  0
  137.9802   74.8842  220.8707 H   0  0  0  0  0  0  0  0  0  0  0  0
  140.2184   76.4445  221.7883 H   0  0  0  0  0  0  0  0  0  0  0  0
  139.4566   75.6001  223.2122 H   0  0  0  0  0  0  0  0  0  0  0  0
  139.1800   73.0820  223.1240 H   0  0  0  0  0  0  0  0  0  0  0  0
  143.5796   73.5445  221.3828 H   0  0  0  0  0  0  0  0  0  0  0  0
  144.7180   71.3736  220.9160 H   0  0  0  0  0  0  0  0  0  0  0  0
  143.5053   69.5581  219.7046 H   0  0  0  0  0  0  0  0  0  0  0  0
  141.1485   69.9121  218.9556 H   0  0  0  0  0  0  0  0  0  0  0  0
  140.0051   72.0862  219.4088 H   0  0  0  0  0  0  0  0  0  0  0  0
  140.9311   76.2508  220.3219 H   0  0  0  0  0  0  0  0  0  0  0  0
  140.8570   74.2662  218.0451 H   0  0  0  0  0  0  0  0  0  0  0  0
  139.7328   75.6384  218.4767 H   0  0  0  0  0  0  0  0  0  0  0  0
  142.1500   75.6166  216.7556 H   0  0  0  0  0  0  0  0  0  0  0  0
  140.6966   76.7161  216.7819 H   0  0  0  0  0  0  0  0  0  0  0  0
  143.5411   79.6493  218.8193 H   0  0  0  0  0  0  0  0  0  0  0  0
  144.0250   81.2450  217.4920 H   0  0  0  0  0  0  0  0  0  0  0  0
  142.4310   81.7940  217.4810 H   0  0  0  0  0  0  0  0  0  0  0  0
  142.9560   80.7030  216.2900 H   0  0  0  0  0  0  0  0  0  0  0  0
  140.6946   80.5476  218.4372 H   0  0  0  0  0  0  0  0  0  0  0  0
  142.7794   81.7545  219.9556 H   0  0  0  0  0  0  0  0  0  0  0  0
  141.0749   82.1242  220.1530 H   0  0  0  0  0  0  0  0  0  0  0  0
  142.5631   82.1244  222.7887 H   0  0  0  0  0  0  0  0  0  0  0  0
  142.4410   80.6346  224.8096 H   0  0  0  0  0  0  0  0  0  0  0  0
  141.6189   78.2809  224.5816 H   0  0  0  0  0  0  0  0  0  0  0  0
  140.9150   77.4080  222.3331 H   0  0  0  0  0  0  0  0  0  0  0  0
  141.4697   78.0424  219.5942 H   0  0  0  0  0  0  0  0  0  0  0  0
  139.8978   78.7873  219.8295 H   0  0  0  0  0  0  0  0  0  0  0  0
  144.2246   76.9952  218.7628 H   0  0  0  0  0  0  0  0  0  0  0  0
  143.0337   77.7172  219.9262 H   0  0  0  0  0  0  0  0  0  0  0  0
  143.3381   74.8116  219.0710 H   0  0  0  0  0  0  0  0  0  0  0  0
  143.3573   75.5081  220.7232 H   0  0  0  0  0  0  0  0  0  0  0  0
  1  2  1  0
  2  3  1  0
  3  4  1  0
  3  5  2  0
  5  6  1  0
  6  7  2  0
  7  8  1  0
  8  9  2  0
  9 10  1  0
 10 11  2  0
  5 12  1  0
 12 13  1  0
 13 14  1  0
 14 15  1  0
 15 16  1  0
 16 17  2  0
 16 18  1  0
 18 19  1  0
 18 20  1  0
 20 21  1  0
 21 22  1  0
 22 23  2  0
 23 24  1  0
 24 25  2  0
 25 26  1  0
 26 27  2  0
 27 28  1  0
 15 29  1  0
 29 30  1  0
 11  6  1  0
 30 12  1  0
 28 20  1  0
 27 22  1  0
  1 31  1  0
  1 32  1  0
  1 33  1  0
  2 34  1  0
  2 35  1  0
  4 36  1  0
  7 37  1  0
  8 38  1  0
  9 39  1  0
 10 40  1  0
 11 41  1  0
 12 42  1  0
 13 43  1  0
 13 44  1  0
 14 45  1  0
 14 46  1  0
 18 47  1  1
 19 48  1  0
 19 49  1  0
 19 50  1  0
 20 51  1  0
 21 52  1  0
 21 53  1  0
 23 54  1  0
 24 55  1  0
 25 56  1  0
 26 57  1  0
 28 58  1  0
 28 59  1  0
 29 60  1  0
 29 61  1  0
 30 62  1  0
 30 63  1  0
M  CHG  2   5   1  19   1
M  END
>  <meeko>  (2) 
{"free_energy": -7.47, "intermolecular_energy": -9.85, "internal_energy": -2.33, "cluster_size": 15, "cluster_id": 1, "rank_in_cluster": 15}

$$$$

     RDKit          3D

 63 66  0  0  0  0  0  0  0  0999 V2000
  140.3620   71.7750  222.8690 C   0  0  0  0  0  0  0  0  0  0  0  0
  141.1900   72.0340  221.6110 C   0  0  0  0  0  0  0  0  0  0  0  0
  141.3720   73.5140  221.3180 C   0  0  0  0  0  0  0  0  0  0  0  0
  140.5530   74.4060  222.0300 O   0  0  0  0  0  0  0  0  0  0  0  0
  142.2640   73.9550  220.4470 N   0  0  0  0  0  0  0  0  0  0  0  0
  143.5200   73.2590  220.3180 C   0  0  0  0  0  0  0  0  0  0  0  0
  144.6630   73.7250  220.9890 C   0  0  0  0  0  0  0  0  0  0  0  0
  145.8770   73.0430  220.8620 C   0  0  0  0  0  0  0  0  0  0  0  0
  145.9540   71.8900  220.0740 C   0  0  0  0  0  0  0  0  0  0  0  0
  144.8170   71.4160  219.4120 C   0  0  0  0  0  0  0  0  0  0  0  0
  143.6020   72.0970  219.5340 C   0  0  0  0  0  0  0  0  0  0  0  0
  142.0700   75.2180  219.6800 C   0  0  0  0  0  0  0  0  0  0  0  0
  140.8680   75.1710  218.7030 C   0  0  0  0  0  0  0  0  0  0  0  0
  140.9420   76.2410  217.5880 C   0  0  0  0  0  0  0  0  0  0  0  0
  141.8700   77.3410  217.9080 N   0  0  0  0  0  0  0  0  0  0  0  0
  141.5470   78.6790  217.4700 C   0  0  0  0  0  0  0  0  0  0  0  0
  140.7280   78.8400  216.5240 O   0  0  0  0  0  0  0  0  0  0  0  0
  142.1170   79.9000  218.1740 C   0  0  1  0  0  0  0  0  0  0  0  0
  142.4230   80.9770  217.2130 N   0  0  0  0  0  0  0  0  0  0  0  0
  141.1530   80.3610  219.3120 C   0  0  0  0  0  0  0  0  0  0  0  0
  141.8240   81.2960  220.3550 C   0  0  0  0  0  0  0  0  0  0  0  0
  141.8910   80.4640  221.5780 C   0  0  0  0  0  0  0  0  0  0  0  0
  142.5350   80.7880  222.7740 C   0  0  0  0  0  0  0  0  0  0  0  0
  142.4690   79.8800  223.8430 C   0  0  0  0  0  0  0  0  0  0  0  0
  141.7570   78.6750  223.7020 C   0  0  0  0  0  0  0  0  0  0  0  0
  141.1100   78.3740  222.4930 C   0  0  0  0  0  0  0  0  0  0  0  0
  141.1950   79.2880  221.4410 C   0  0  0  0  0  0  0  0  0  0  0  0
  140.5600   79.1700  220.1080 C   0  0  0  0  0  0  0  0  0  0  0  0
  143.2200   77.0470  218.4270 C   0  0  0  0  0  0  0  0  0  0  0  0
  143.3430   75.5990  218.9140 C   0  0  0  0  0  0  0  0  0  0  0  0
  140.9782   71.9677  223.7596 H   0  0  0  0  0  0  0  0  0  0  0  0
  139.4878   72.4426  222.8765 H   0  0  0  0  0  0  0  0  0  0  0  0
  140.0240   70.7282  222.8765 H   0  0  0  0  0  0  0  0  0  0  0  0
  142.1821   71.5777  221.7435 H   0  0  0  0  0  0  0  0  0  0  0  0
  140.6473   71.5933  220.7617 H   0  0  0  0  0  0  0  0  0  0  0  0
  139.7590   74.1300  222.5940 H   0  0  0  0  0  0  0  0  0  0  0  0
  144.6028   74.6275  221.6150 H   0  0  0  0  0  0  0  0  0  0  0  0
  146.7725   73.4136  221.3824 H   0  0  0  0  0  0  0  0  0  0  0  0
  146.9102   71.3553  219.9749 H   0  0  0  0  0  0  0  0  0  0  0  0
  144.8786   70.5073  218.7952 H   0  0  0  0  0  0  0  0  0  0  0  0
  142.7081   71.7215  219.0145 H   0  0  0  0  0  0  0  0  0  0  0  0
  141.8443   75.9879  220.4325 H   0  0  0  0  0  0  0  0  0  0  0  0
  140.8400   74.1774  218.2318 H   0  0  0  0  0  0  0  0  0  0  0  0
  139.9620   75.3769  219.2918 H   0  0  0  0  0  0  0  0  0  0  0  0
  141.2785   75.7571  216.6592 H   0  0  0  0  0  0  0  0  0  0  0  0
  139.9377   76.6771  217.4823 H   0  0  0  0  0  0  0  0  0  0  0  0
  143.0741   79.6292  218.6438 H   0  0  0  0  0  0  0  0  0  0  0  0
  142.2860   81.9050  217.6770 H   0  0  0  0  0  0  0  0  0  0  0  0
  141.7740   80.9370  216.3950 H   0  0  0  0  0  0  0  0  0  0  0  0
  143.4060   80.9200  216.8650 H   0  0  0  0  0  0  0  0  0  0  0  0
  140.3644   80.9066  218.7730 H   0  0  0  0  0  0  0  0  0  0  0  0
  142.8310   81.5922  220.0261 H   0  0  0  0  0  0  0  0  0  0  0  0
  141.2697   82.2340  220.5066 H   0  0  0  0  0  0  0  0  0  0  0  0
  143.0833   81.7361  222.8766 H   0  0  0  0  0  0  0  0  0  0  0  0
  142.9748   80.1113  224.7921 H   0  0  0  0  0  0  0  0  0  0  0  0
  141.7070   77.9663  224.5418 H   0  0  0  0  0  0  0  0  0  0  0  0
  140.5470   77.4362  222.3768 H   0  0  0  0  0  0  0  0  0  0  0  0
  140.8199   78.2125  219.6330 H   0  0  0  0  0  0  0  0  0  0  0  0
  139.4613   79.1937  220.1555 H   0  0  0  0  0  0  0  0  0  0  0  0
  143.9537   77.2159  217.6251 H   0  0  0  0  0  0  0  0  0  0  0  0
  143.4079   77.7115  219.2833 H   0  0  0  0  0  0  0  0  0  0  0  0
  143.4678   74.9292  218.0504 H   0  0  0  0  0  0  0  0  0  0  0  0
  144.2166   75.5032  219.5756 H   0  0  0  0  0  0  0  0  0  0  0  0
  1  2  1  0
  2  3  1  0
  3  4  1  0
  3  5  2  0
  5  6  1  0
  6  7  2  0
  7  8  1  0
  8  9  2  0
  9 10  1  0
 10 11  2  0
  5 12  1  0
 12 13  1  0
 13 14  1  0
 14 15  1  0
 15 16  1  0
 16 17  2  0
 16 18  1  0
 18 19  1  0
 18 20  1  0
 20 21  1  0
 21 22  1  0
 22 23  2  0
 23 24  1  0
 24 25  2  0
 25 26  1  0
 26 27  2  0
 27 28  1  0
 15 29  1  0
 29 30  1  0
 11  6  1  0
 30 12  1  0
 28 20  1  0
 27 22  1  0
  1 31  1  0
  1 32  1  0
  1 33  1  0
  2 34  1  0
  2 35  1  0
  4 36  1  0
  7 37  1  0
  8 38  1  0
  9 39  1  0
 10 40  1  0
 11 41  1  0
 12 42  1  0
 13 43  1  0
 13 44  1  0
 14 45  1  0
 14 46  1  0
 18 47  1  1
 19 48  1  0
 19 49  1  0
 19 50  1  0
 20 51  1  0
 21 52  1  0
 21 53  1  0
 23 54  1  0
 24 55  1  0
 25 56  1  0
 26 57  1  0
 28 58  1  0
 28 59  1  0
 29 60  1  0
 29 61  1  0
 30 62  1  0
 30 63  1  0
M  CHG  2   5   1  19   1
M  END
>  <meeko>  (3) 
{"free_energy": -7.64, "intermolecular_energy": -10.02, "internal_energy": -1.95, "cluster_size": 15, "cluster_id": 1, "rank_in_cluster": 9}

$$$$

     RDKit          3D

 63 66  0  0  0  0  0  0  0  0999 V2000
  144.5410   70.5350  219.3200 C   0  0  0  0  0  0  0  0  0  0  0  0
  143.1680   71.0590  219.7390 C   0  0  0  0  0  0  0  0  0  0  0  0
  143.2450   72.3570  220.5230 C   0  0  0  0  0  0  0  0  0  0  0  0
  144.4400   72.6080  221.2180 O   0  0  0  0  0  0  0  0  0  0  0  0
  142.2480   73.2270  220.5460 N   0  0  0  0  0  0  0  0  0  0  0  0
  141.0480   72.8970  221.2740 C   0  0  0  0  0  0  0  0  0  0  0  0
  140.9990   71.7480  222.0800 C   0  0  0  0  0  0  0  0  0  0  0  0
  139.8330   71.4370  222.7860 C   0  0  0  0  0  0  0  0  0  0  0  0
  138.7160   72.2740  222.7000 C   0  0  0  0  0  0  0  0  0  0  0  0
  138.7640   73.4250  221.9080 C   0  0  0  0  0  0  0  0  0  0  0  0
  139.9270   73.7380  221.1960 C   0  0  0  0  0  0  0  0  0  0  0  0
  142.2700   74.4830  219.7450 C   0  0  0  0  0  0  0  0  0  0  0  0
  141.4850   74.3820  218.4120 C   0  0  0  0  0  0  0  0  0  0  0  0
  141.8880   75.4620  217.3810 C   0  0  0  0  0  0  0  0  0  0  0  0
  142.5930   76.6050  217.9900 N   0  0  0  0  0  0  0  0  0  0  0  0
  142.3760   77.9280  217.4510 C   0  0  0  0  0  0  0  0  0  0  0  0
  141.9290   78.0540  216.2780 O   0  0  0  0  0  0  0  0  0  0  0  0
  142.6050   79.1710  218.2960 C   0  0  1  0  0  0  0  0  0  0  0  0
  142.9480   80.3330  217.4540 N   0  0  0  0  0  0  0  0  0  0  0  0
  141.3690   79.4330  219.2120 C   0  0  0  0  0  0  0  0  0  0  0  0
  141.5160   80.6900  220.1130 C   0  0  0  0  0  0  0  0  0  0  0  0
  141.6460   80.1280  221.4770 C   0  0  0  0  0  0  0  0  0  0  0  0
  141.9420   80.8330  222.6460 C   0  0  0  0  0  0  0  0  0  0  0  0
  141.9970   80.1320  223.8610 C   0  0  0  0  0  0  0  0  0  0  0  0
  141.7490   78.7480  223.8890 C   0  0  0  0  0  0  0  0  0  0  0  0
  141.4450   78.0610  222.7030 C   0  0  0  0  0  0  0  0  0  0  0  0
  141.4030   78.7770  221.5050 C   0  0  0  0  0  0  0  0  0  0  0  0
  141.0710   78.2440  220.1620 C   0  0  0  0  0  0  0  0  0  0  0  0
  143.6910   76.3760  218.9480 C   0  0  0  0  0  0  0  0  0  0  0  0
  143.7090   74.9330  219.4640 C   0  0  0  0  0  0  0  0  0  0  0  0
  145.1361   70.3079  220.2168 H   0  0  0  0  0  0  0  0  0  0  0  0
  144.4174   69.6209  218.7208 H   0  0  0  0  0  0  0  0  0  0  0  0
  145.0579   71.2991  218.7208 H   0  0  0  0  0  0  0  0  0  0  0  0
  142.5667   71.2307  218.8340 H   0  0  0  0  0  0  0  0  0  0  0  0
  142.7126   70.3032  220.3958 H   0  0  0  0  0  0  0  0  0  0  0  0
  145.0270   71.8910  221.6250 H   0  0  0  0  0  0  0  0  0  0  0  0
  141.8788   71.0921  222.1559 H   0  0  0  0  0  0  0  0  0  0  0  0
  139.7941   70.5322  223.4103 H   0  0  0  0  0  0  0  0  0  0  0  0
  137.7994   72.0267  223.2556 H   0  0  0  0  0  0  0  0  0  0  0  0
  137.8865   74.0853  221.8446 H   0  0  0  0  0  0  0  0  0  0  0  0
  139.9629   74.6446  220.5741 H   0  0  0  0  0  0  0  0  0  0  0  0
  141.7594   75.2356  220.3637 H   0  0  0  0  0  0  0  0  0  0  0  0
  141.6716   73.3916  217.9712 H   0  0  0  0  0  0  0  0  0  0  0  0
  140.4218   74.5373  218.6476 H   0  0  0  0  0  0  0  0  0  0  0  0
  142.5484   75.0019  216.6313 H   0  0  0  0  0  0  0  0  0  0  0  0
  140.9620   75.8486  216.9303 H   0  0  0  0  0  0  0  0  0  0  0  0
  143.4706   79.0029  218.9536 H   0  0  0  0  0  0  0  0  0  0  0  0
  142.8720   80.0670  216.4450 H   0  0  0  0  0  0  0  0  0  0  0  0
  143.9340   80.6340  217.6240 H   0  0  0  0  0  0  0  0  0  0  0  0
  142.3140   81.1440  217.6340 H   0  0  0  0  0  0  0  0  0  0  0  0
  140.5475   79.5814  218.4957 H   0  0  0  0  0  0  0  0  0  0  0  0
  142.4116   81.2670  219.8390 H   0  0  0  0  0  0  0  0  0  0  0  0
  140.6698   81.3861  220.0166 H   0  0  0  0  0  0  0  0  0  0  0  0
  142.1284   81.9166  222.6151 H   0  0  0  0  0  0  0  0  0  0  0  0
  142.2345   80.6662  224.7928 H   0  0  0  0  0  0  0  0  0  0  0  0
  141.7933   78.2021  224.8430 H   0  0  0  0  0  0  0  0  0  0  0  0
  141.2438   76.9796  222.7173 H   0  0  0  0  0  0  0  0  0  0  0  0
  141.7027   77.3776  219.9165 H   0  0  0  0  0  0  0  0  0  0  0  0
  140.0325   77.8890  220.0885 H   0  0  0  0  0  0  0  0  0  0  0  0
  144.6482   76.5869  218.4486 H   0  0  0  0  0  0  0  0  0  0  0  0
  143.5366   77.0434  219.8087 H   0  0  0  0  0  0  0  0  0  0  0  0
  144.1590   74.2760  218.7052 H   0  0  0  0  0  0  0  0  0  0  0  0
  144.3022   74.8773  220.3887 H   0  0  0  0  0  0  0  0  0  0  0  0
  1  2  1  0
  2  3  1  0
  3  4  1  0
  3  5  2  0
  5  6  1  0
  6  7  2  0
  7  8  1  0
  8  9  2  0
  9 10  1  0
 10 11  2  0
  5 12  1  0
 12 13  1  0
 13 14  1  0
 14 15  1  0
 15 16  1  0
 16 17  2  0
 16 18  1  0
 18 19  1  0
 18 20  1  0
 20 21  1  0
 21 22  1  0
 22 23  2  0
 23 24  1  0
 24 25  2  0
 25 26  1  0
 26 27  2  0
 27 28  1  0
 15 29  1  0
 29 30  1  0
 11  6  1  0
 30 12  1  0
 28 20  1  0
 27 22  1  0
  1 31  1  0
  1 32  1  0
  1 33  1  0
  2 34  1  0
  2 35  1  0
  4 36  1  0
  7 37  1  0
  8 38  1  0
  9 39  1  0
 10 40  1  0
 11 41  1  0
 12 42  1  0
 13 43  1  0
 13 44  1  0
 14 45  1  0
 14 46  1  0
 18 47  1  1
 19 48  1  0
 19 49  1  0
 19 50  1  0
 20 51  1  0
 21 52  1  0
 21 53  1  0
 23 54  1  0
 24 55  1  0
 25 56  1  0
 26 57  1  0
 28 58  1  0
 28 59  1  0
 29 60  1  0
 29 61  1  0
 30 62  1  0
 30 63  1  0
M  CHG  2   5   1  19   1
M  END
>  <meeko>  (4) 
{"free_energy": -7.32, "intermolecular_energy": -9.7, "internal_energy": -2.12, "cluster_size": 1, "cluster_id": 2, "rank_in_cluster": 1}

$$$$

     RDKit          3D

 63 66  0  0  0  0  0  0  0  0999 V2000
  140.3960   71.8050  222.9130 C   0  0  0  0  0  0  0  0  0  0  0  0
  141.2030   72.0510  221.6380 C   0  0  0  0  0  0  0  0  0  0  0  0
  141.3620   73.5260  221.3150 C   0  0  0  0  0  0  0  0  0  0  0  0
  140.5130   74.4180  221.9910 O   0  0  0  0  0  0  0  0  0  0  0  0
  142.2620   73.9650  220.4510 N   0  0  0  0  0  0  0  0  0  0  0  0
  143.5170   73.2660  220.3300 C   0  0  0  0  0  0  0  0  0  0  0  0
  143.6150   72.1150  219.5310 C   0  0  0  0  0  0  0  0  0  0  0  0
  144.8360   71.4440  219.4160 C   0  0  0  0  0  0  0  0  0  0  0  0
  145.9650   71.9220  220.0890 C   0  0  0  0  0  0  0  0  0  0  0  0
  145.8750   73.0730  220.8770 C   0  0  0  0  0  0  0  0  0  0  0  0
  144.6550   73.7460  220.9980 C   0  0  0  0  0  0  0  0  0  0  0  0
  142.0770   75.2300  219.6830 C   0  0  0  0  0  0  0  0  0  0  0  0
  140.8920   75.1820  218.6860 C   0  0  0  0  0  0  0  0  0  0  0  0
  140.9820   76.2540  217.5750 C   0  0  0  0  0  0  0  0  0  0  0  0
  141.9020   77.3560  217.9130 N   0  0  0  0  0  0  0  0  0  0  0  0
  141.5820   78.6940  217.4720 C   0  0  0  0  0  0  0  0  0  0  0  0
  140.7790   78.8550  216.5130 O   0  0  0  0  0  0  0  0  0  0  0  0
  142.1370   79.9140  218.1880 C   0  0  1  0  0  0  0  0  0  0  0  0
  142.4320   81.0040  217.2380 N   0  0  0  0  0  0  0  0  0  0  0  0
  141.1670   80.3550  219.3290 C   0  0  0  0  0  0  0  0  0  0  0  0
  141.8200   81.3020  220.3720 C   0  0  0  0  0  0  0  0  0  0  0  0
  141.9070   80.4690  221.5940 C   0  0  0  0  0  0  0  0  0  0  0  0
  142.5470   80.8040  222.7890 C   0  0  0  0  0  0  0  0  0  0  0  0
  142.5020   79.8940  223.8560 C   0  0  0  0  0  0  0  0  0  0  0  0
  141.8150   78.6750  223.7160 C   0  0  0  0  0  0  0  0  0  0  0  0
  141.1710   78.3630  222.5080 C   0  0  0  0  0  0  0  0  0  0  0  0
  141.2350   79.2800  221.4570 C   0  0  0  0  0  0  0  0  0  0  0  0
  140.6000   79.1500  220.1240 C   0  0  0  0  0  0  0  0  0  0  0  0
  143.2430   77.0640  218.4540 C   0  0  0  0  0  0  0  0  0  0  0  0
  143.3620   75.6160  218.9400 C   0  0  0  0  0  0  0  0  0  0  0  0
  141.0298   71.9982  223.7911 H   0  0  0  0  0  0  0  0  0  0  0  0
  139.5269   72.4790  222.9326 H   0  0  0  0  0  0  0  0  0  0  0  0
  140.0507   70.7608  222.9326 H   0  0  0  0  0  0  0  0  0  0  0  0
  142.2026   71.6097  221.7646 H   0  0  0  0  0  0  0  0  0  0  0  0
  140.6537   71.5879  220.8050 H   0  0  0  0  0  0  0  0  0  0  0  0
  139.7450   74.1370  222.5890 H   0  0  0  0  0  0  0  0  0  0  0  0
  142.7301   71.7412  218.9952 H   0  0  0  0  0  0  0  0  0  0  0  0
  144.9089   70.5388  218.7953 H   0  0  0  0  0  0  0  0  0  0  0  0
  146.9245   71.3918  219.9981 H   0  0  0  0  0  0  0  0  0  0  0  0
  146.7648   73.4499  221.4026 H   0  0  0  0  0  0  0  0  0  0  0  0
  144.5868   74.6526  221.6173 H   0  0  0  0  0  0  0  0  0  0  0  0
  141.8359   75.9977  220.4330 H   0  0  0  0  0  0  0  0  0  0  0  0
  140.8744   74.1893  218.2124 H   0  0  0  0  0  0  0  0  0  0  0  0
  139.9757   75.3844  219.2599 H   0  0  0  0  0  0  0  0  0  0  0  0
  141.3353   75.7729  216.6510 H   0  0  0  0  0  0  0  0  0  0  0  0
  139.9785   76.6878  217.4532 H   0  0  0  0  0  0  0  0  0  0  0  0
  143.0961   79.6479  218.6563 H   0  0  0  0  0  0  0  0  0  0  0  0
  141.7770   80.9430  216.4240 H   0  0  0  0  0  0  0  0  0  0  0  0
  143.4040   80.9150  216.8650 H   0  0  0  0  0  0  0  0  0  0  0  0
  142.3270   81.9440  217.6800 H   0  0  0  0  0  0  0  0  0  0  0  0
  140.3672   80.8867  218.7927 H   0  0  0  0  0  0  0  0  0  0  0  0
  142.8199   81.6200  220.0417 H   0  0  0  0  0  0  0  0  0  0  0  0
  141.2464   82.2278  220.5263 H   0  0  0  0  0  0  0  0  0  0  0  0
  143.0762   81.7628  222.8919 H   0  0  0  0  0  0  0  0  0  0  0  0
  143.0052   80.1346  224.8041 H   0  0  0  0  0  0  0  0  0  0  0  0
  141.7821   77.9642  224.5549 H   0  0  0  0  0  0  0  0  0  0  0  0
  140.6265   77.4143  222.3918 H   0  0  0  0  0  0  0  0  0  0  0  0
  140.8794   78.1989  219.6473 H   0  0  0  0  0  0  0  0  0  0  0  0
  139.5011   79.1500  220.1729 H   0  0  0  0  0  0  0  0  0  0  0  0
  143.9897   77.2364  217.6649 H   0  0  0  0  0  0  0  0  0  0  0  0
  143.4142   77.7269  219.3149 H   0  0  0  0  0  0  0  0  0  0  0  0
  143.5037   74.9482  218.0775 H   0  0  0  0  0  0  0  0  0  0  0  0
  144.2244   75.5213  219.6163 H   0  0  0  0  0  0  0  0  0  0  0  0
  1  2  1  0
  2  3  1  0
  3  4  1  0
  3  5  2  0
  5  6  1  0
  6  7  2  0
  7  8  1  0
  8  9  2  0
  9 10  1  0
 10 11  2  0
  5 12  1  0
 12 13  1  0
 13 14  1  0
 14 15  1  0
 15 16  1  0
 16 17  2  0
 16 18  1  0
 18 19  1  0
 18 20  1  0
 20 21  1  0
 21 22  1  0
 22 23  2  0
 23 24  1  0
 24 25  2  0
 25 26  1  0
 26 27  2  0
 27 28  1  0
 15 29  1  0
 29 30  1  0
 11  6  1  0
 30 12  1  0
 28 20  1  0
 27 22  1  0
  1 31  1  0
  1 32  1  0
  1 33  1  0
  2 34  1  0
  2 35  1  0
  4 36  1  0
  7 37  1  0
  8 38  1  0
  9 39  1  0
 10 40  1  0
 11 41  1  0
 12 42  1  0
 13 43  1  0
 13 44  1  0
 14 45  1  0
 14 46  1  0
 18 47  1  1
 19 48  1  0
 19 49  1  0
 19 50  1  0
 20 51  1  0
 21 52  1  0
 21 53  1  0
 23 54  1  0
 24 55  1  0
 25 56  1  0
 26 57  1  0
 28 58  1  0
 28 59  1  0
 29 60  1  0
 29 61  1  0
 30 62  1  0
 30 63  1  0
M  CHG  2   5   1  19   1
M  END
>  <meeko>  (5) 
{"free_energy": -7.68, "intermolecular_energy": -10.07, "internal_energy": -1.99, "cluster_size": 15, "cluster_id": 1, "rank_in_cluster": 7}

$$$$

     RDKit          3D

 63 66  0  0  0  0  0  0  0  0999 V2000
  138.9910   76.2360  222.3320 C   0  0  0  0  0  0  0  0  0  0  0  0
  138.8830   74.9830  221.4630 C   0  0  0  0  0  0  0  0  0  0  0  0
  140.1240   74.1110  221.5290 C   0  0  0  0  0  0  0  0  0  0  0  0
  140.2890   73.3300  222.6850 O   0  0  0  0  0  0  0  0  0  0  0  0
  141.0080   74.0670  220.5460 N   0  0  0  0  0  0  0  0  0  0  0  0
  141.7570   72.8530  220.3300 C   0  0  0  0  0  0  0  0  0  0  0  0
  143.0520   72.7150  220.8530 C   0  0  0  0  0  0  0  0  0  0  0  0
  143.7710   71.5340  220.6440 C   0  0  0  0  0  0  0  0  0  0  0  0
  143.1970   70.4840  219.9200 C   0  0  0  0  0  0  0  0  0  0  0  0
  141.9040   70.6120  219.4060 C   0  0  0  0  0  0  0  0  0  0  0  0
  141.1830   71.7930  219.6110 C   0  0  0  0  0  0  0  0  0  0  0  0
  141.3480   75.2650  219.7280 C   0  0  0  0  0  0  0  0  0  0  0  0
  140.7250   75.2430  218.3080 C   0  0  0  0  0  0  0  0  0  0  0  0
  141.4330   76.1920  217.3140 C   0  0  0  0  0  0  0  0  0  0  0  0
  142.2490   77.2220  217.9830 N   0  0  0  0  0  0  0  0  0  0  0  0
  142.3350   78.5380  217.3930 C   0  0  0  0  0  0  0  0  0  0  0  0
  142.0630   78.6880  216.1700 O   0  0  0  0  0  0  0  0  0  0  0  0
  142.6760   79.7580  218.2330 C   0  0  1  0  0  0  0  0  0  0  0  0
  143.0630   80.9010  217.3840 N   0  0  0  0  0  0  0  0  0  0  0  0
  141.4940   80.0950  219.1950 C   0  0  0  0  0  0  0  0  0  0  0  0
  141.8130   81.2340  220.2010 C   0  0  0  0  0  0  0  0  0  0  0  0
  141.8800   80.5380  221.5070 C   0  0  0  0  0  0  0  0  0  0  0  0
  142.2770   81.0880  222.7270 C   0  0  0  0  0  0  0  0  0  0  0  0
  142.2500   80.2780  223.8730 C   0  0  0  0  0  0  0  0  0  0  0  0
  141.8220   78.9410  223.7820 C   0  0  0  0  0  0  0  0  0  0  0  0
  141.4190   78.4110  222.5460 C   0  0  0  0  0  0  0  0  0  0  0  0
  141.4610   79.2330  221.4190 C   0  0  0  0  0  0  0  0  0  0  0  0
  141.0500   78.8730  220.0410 C   0  0  0  0  0  0  0  0  0  0  0  0
  143.1660   76.8490  219.0770 C   0  0  0  0  0  0  0  0  0  0  0  0
  142.8670   75.4480  219.6220 C   0  0  0  0  0  0  0  0  0  0  0  0
  138.9663   75.9492  223.3937 H   0  0  0  0  0  0  0  0  0  0  0  0
  139.9370   76.7531  222.1138 H   0  0  0  0  0  0  0  0  0  0  0  0
  138.1474   76.9074  222.1138 H   0  0  0  0  0  0  0  0  0  0  0  0
  138.0201   74.3923  221.8042 H   0  0  0  0  0  0  0  0  0  0  0  0
  138.7658   75.3129  220.4202 H   0  0  0  0  0  0  0  0  0  0  0  0
  139.5960   73.2370  223.4180 H   0  0  0  0  0  0  0  0  0  0  0  0
  143.5022   73.5373  221.4284 H   0  0  0  0  0  0  0  0  0  0  0  0
  144.7884   71.4307  221.0492 H   0  0  0  0  0  0  0  0  0  0  0  0
  143.7643   69.5561  219.7550 H   0  0  0  0  0  0  0  0  0  0  0  0
  141.4529   69.7837  218.8399 H   0  0  0  0  0  0  0  0  0  0  0  0
  140.1642   71.8912  219.2079 H   0  0  0  0  0  0  0  0  0  0  0  0
  140.9069   76.1201  220.2611 H   0  0  0  0  0  0  0  0  0  0  0  0
  140.7869   74.2172  217.9156 H   0  0  0  0  0  0  0  0  0  0  0  0
  139.6851   75.5886  218.4035 H   0  0  0  0  0  0  0  0  0  0  0  0
  142.0880   75.5935  216.6638 H   0  0  0  0  0  0  0  0  0  0  0  0
  140.6509   76.7122  216.7416 H   0  0  0  0  0  0  0  0  0  0  0  0
  143.5527   79.5290  218.8566 H   0  0  0  0  0  0  0  0  0  0  0  0
  144.0670   81.1410  217.5600 H   0  0  0  0  0  0  0  0  0  0  0  0
  142.4940   81.7450  217.6190 H   0  0  0  0  0  0  0  0  0  0  0  0
  142.9450   80.6880  216.3680 H   0  0  0  0  0  0  0  0  0  0  0  0
  140.6932   80.4148  218.5121 H   0  0  0  0  0  0  0  0  0  0  0  0
  142.7743   81.7119  219.9611 H   0  0  0  0  0  0  0  0  0  0  0  0
  141.0648   82.0401  220.1846 H   0  0  0  0  0  0  0  0  0  0  0  0
  142.6047   82.1362  222.7891 H   0  0  0  0  0  0  0  0  0  0  0  0
  142.5640   80.6893  224.8437 H   0  0  0  0  0  0  0  0  0  0  0  0
  141.8030   78.3089  224.6820 H   0  0  0  0  0  0  0  0  0  0  0  0
  141.0769   77.3685  222.4675 H   0  0  0  0  0  0  0  0  0  0  0  0
  141.5598   77.9577  219.7059 H   0  0  0  0  0  0  0  0  0  0  0  0
  139.9731   78.6648  219.9575 H   0  0  0  0  0  0  0  0  0  0  0  0
  144.1985   76.8701  218.6981 H   0  0  0  0  0  0  0  0  0  0  0  0
  143.0290   77.5696  219.8967 H   0  0  0  0  0  0  0  0  0  0  0  0
  143.2826   74.6911  218.9405 H   0  0  0  0  0  0  0  0  0  0  0  0
  143.3248   75.3310  220.6153 H   0  0  0  0  0  0  0  0  0  0  0  0
  1  2  1  0
  2  3  1  0
  3  4  1  0
  3  5  2  0
  5  6  1  0
  6  7  2  0
  7  8  1  0
  8  9  2  0
  9 10  1  0
 10 11  2  0
  5 12  1  0
 12 13  1  0
 13 14  1  0
 14 15  1  0
 15 16  1  0
 16 17  2  0
 16 18  1  0
 18 19  1  0
 18 20  1  0
 20 21  1  0
 21 22  1  0
 22 23  2  0
 23 24  1  0
 24 25  2  0
 25 26  1  0
 26 27  2  0
 27 28  1  0
 15 29  1  0
 29 30  1  0
 11  6  1  0
 30 12  1  0
 28 20  1  0
 27 22  1  0
  1 31  1  0
  1 32  1  0
  1 33  1  0
  2 34  1  0
  2 35  1  0
  4 36  1  0
  7 37  1  0
  8 38  1  0
  9 39  1  0
 10 40  1  0
 11 41  1  0
 12 42  1  0
 13 43  1  0
 13 44  1  0
 14 45  1  0
 14 46  1  0
 18 47  1  1
 19 48  1  0
 19 49  1  0
 19 50  1  0
 20 51  1  0
 21 52  1  0
 21 53  1  0
 23 54  1  0
 24 55  1  0
 25 56  1  0
 26 57  1  0
 28 58  1  0
 28 59  1  0
 29 60  1  0
 29 61  1  0
 30 62  1  0
 30 63  1  0
M  CHG  2   5   1  19   1
M  END
>  <meeko>  (6) 
{"free_energy": -7.57, "intermolecular_energy": -9.95, "internal_energy": -2.25, "cluster_size": 15, "cluster_id": 1, "rank_in_cluster": 13}

$$$$

     RDKit          3D

 63 66  0  0  0  0  0  0  0  0999 V2000
  139.3280   71.5110  222.8500 C   0  0  0  0  0  0  0  0  0  0  0  0
  140.7000   72.1760  222.7410 C   0  0  0  0  0  0  0  0  0  0  0  0
  140.7100   73.3570  221.7860 C   0  0  0  0  0  0  0  0  0  0  0  0
  139.9890   74.4970  222.1810 O   0  0  0  0  0  0  0  0  0  0  0  0
  141.3740   73.3340  220.6420 N   0  0  0  0  0  0  0  0  0  0  0  0
  142.0120   72.1090  220.2280 C   0  0  0  0  0  0  0  0  0  0  0  0
  141.2810   71.1230  219.5450 C   0  0  0  0  0  0  0  0  0  0  0  0
  141.9070   69.9390  219.1430 C   0  0  0  0  0  0  0  0  0  0  0  0
  143.2650   69.7380  219.4110 C   0  0  0  0  0  0  0  0  0  0  0  0
  144.0000   70.7210  220.0810 C   0  0  0  0  0  0  0  0  0  0  0  0
  143.3760   71.9050  220.4890 C   0  0  0  0  0  0  0  0  0  0  0  0
  141.5920   74.5600  219.8240 C   0  0  0  0  0  0  0  0  0  0  0  0
  140.8760   74.5220  218.4490 C   0  0  0  0  0  0  0  0  0  0  0  0
  141.4620   75.5210  217.4250 C   0  0  0  0  0  0  0  0  0  0  0  0
  142.2650   76.5860  218.0550 N   0  0  0  0  0  0  0  0  0  0  0  0
  142.2390   77.9130  217.4830 C   0  0  0  0  0  0  0  0  0  0  0  0
  141.8760   78.0630  216.2840 O   0  0  0  0  0  0  0  0  0  0  0  0
  142.5690   79.1390  218.3180 C   0  0  1  0  0  0  0  0  0  0  0  0
  142.9590   80.2780  217.4660 N   0  0  0  0  0  0  0  0  0  0  0  0
  141.3790   79.4760  219.2700 C   0  0  0  0  0  0  0  0  0  0  0  0
  141.6400   80.7050  220.1830 C   0  0  0  0  0  0  0  0  0  0  0  0
  141.7620   80.1150  221.5360 C   0  0  0  0  0  0  0  0  0  0  0  0
  142.1380   80.7790  222.7060 C   0  0  0  0  0  0  0  0  0  0  0  0
  142.1720   80.0580  223.9090 C   0  0  0  0  0  0  0  0  0  0  0  0
  141.8240   78.6950  223.9260 C   0  0  0  0  0  0  0  0  0  0  0  0
  141.4410   78.0500  222.7390 C   0  0  0  0  0  0  0  0  0  0  0  0
  141.4210   78.7850  221.5520 C   0  0  0  0  0  0  0  0  0  0  0  0
  141.0180   78.2980  220.2120 C   0  0  0  0  0  0  0  0  0  0  0  0
  143.2730   76.2500  219.0790 C   0  0  0  0  0  0  0  0  0  0  0  0
  143.0880   74.8270  219.6190 C   0  0  0  0  0  0  0  0  0  0  0  0
  139.0654   71.3837  223.9106 H   0  0  0  0  0  0  0  0  0  0  0  0
  138.5739   72.1436  222.3589 H   0  0  0  0  0  0  0  0  0  0  0  0
  139.3574   70.5271  222.3589 H   0  0  0  0  0  0  0  0  0  0  0  0
  140.9993   72.5290  223.7389 H   0  0  0  0  0  0  0  0  0  0  0  0
  141.4002   71.4255  222.3453 H   0  0  0  0  0  0  0  0  0  0  0  0
  139.1930   74.4830  222.8060 H   0  0  0  0  0  0  0  0  0  0  0  0
  140.2149   71.2824  219.3261 H   0  0  0  0  0  0  0  0  0  0  0  0
  141.3307   69.1647  218.6154 H   0  0  0  0  0  0  0  0  0  0  0  0
  143.7553   68.8056  219.0944 H   0  0  0  0  0  0  0  0  0  0  0  0
  145.0689   70.5634  220.2873 H   0  0  0  0  0  0  0  0  0  0  0  0
  143.9556   72.6776  221.0154 H   0  0  0  0  0  0  0  0  0  0  0  0
  141.1429   75.3826  220.3999 H   0  0  0  0  0  0  0  0  0  0  0  0
  140.9664   73.5063  218.0365 H   0  0  0  0  0  0  0  0  0  0  0  0
  139.8280   74.8089  218.6201 H   0  0  0  0  0  0  0  0  0  0  0  0
  142.1026   74.9678  216.7224 H   0  0  0  0  0  0  0  0  0  0  0  0
  140.6158   76.0044  216.9149 H   0  0  0  0  0  0  0  0  0  0  0  0
  143.4421   78.9176  218.9494 H   0  0  0  0  0  0  0  0  0  0  0  0
  142.8920   79.9980  216.4590 H   0  0  0  0  0  0  0  0  0  0  0  0
  143.9500   80.5530  217.6480 H   0  0  0  0  0  0  0  0  0  0  0  0
  142.3450   81.1080  217.6220 H   0  0  0  0  0  0  0  0  0  0  0  0
  140.5529   79.6940  218.5771 H   0  0  0  0  0  0  0  0  0  0  0  0
  142.5685   81.2190  219.8936 H   0  0  0  0  0  0  0  0  0  0  0  0
  140.8450   81.4624  220.1174 H   0  0  0  0  0  0  0  0  0  0  0  0
  142.4023   81.8466  222.6845 H   0  0  0  0  0  0  0  0  0  0  0  0
  142.4714   80.5596  224.8411 H   0  0  0  0  0  0  0  0  0  0  0  0
  141.8520   78.1333  224.8713 H   0  0  0  0  0  0  0  0  0  0  0  0
  141.1620   76.9860  222.7442 H   0  0  0  0  0  0  0  0  0  0  0  0
  141.5781   77.3915  219.9391 H   0  0  0  0  0  0  0  0  0  0  0  0
  139.9547   78.0210  220.1607 H   0  0  0  0  0  0  0  0  0  0  0  0
  144.2748   76.3333  218.6325 H   0  0  0  0  0  0  0  0  0  0  0  0
  143.1529   76.9511  219.9181 H   0  0  0  0  0  0  0  0  0  0  0  0
  143.4962   74.1033  218.8982 H   0  0  0  0  0  0  0  0  0  0  0  0
  143.6184   74.7217  220.5769 H   0  0  0  0  0  0  0  0  0  0  0  0
  1  2  1  0
  2  3  1  0
  3  4  1  0
  3  5  2  0
  5  6  1  0
  6  7  2  0
  7  8  1  0
  8  9  2  0
  9 10  1  0
 10 11  2  0
  5 12  1  0
 12 13  1  0
 13 14  1  0
 14 15  1  0
 15 16  1  0
 16 17  2  0
 16 18  1  0
 18 19  1  0
 18 20  1  0
 20 21  1  0
 21 22  1  0
 22 23  2  0
 23 24  1  0
 24 25  2  0
 25 26  1  0
 26 27  2  0
 27 28  1  0
 15 29  1  0
 29 30  1  0
 11  6  1  0
 30 12  1  0
 28 20  1  0
 27 22  1  0
  1 31  1  0
  1 32  1  0
  1 33  1  0
  2 34  1  0
  2 35  1  0
  4 36  1  0
  7 37  1  0
  8 38  1  0
  9 39  1  0
 10 40  1  0
 11 41  1  0
 12 42  1  0
 13 43  1  0
 13 44  1  0
 14 45  1  0
 14 46  1  0
 18 47  1  1
 19 48  1  0
 19 49  1  0
 19 50  1  0
 20 51  1  0
 21 52  1  0
 21 53  1  0
 23 54  1  0
 24 55  1  0
 25 56  1  0
 26 57  1  0
 28 58  1  0
 28 59  1  0
 29 60  1  0
 29 61  1  0
 30 62  1  0
 30 63  1  0
M  CHG  2   5   1  19   1
M  END
>  <meeko>  (7) 
{"free_energy": -7.87, "intermolecular_energy": -10.25, "internal_energy": -2.14, "cluster_size": 15, "cluster_id": 1, "rank_in_cluster": 3}

$$$$

     RDKit          3D

 63 66  0  0  0  0  0  0  0  0999 V2000
  144.9140   76.3690  214.3110 C   0  0  0  0  0  0  0  0  0  0  0  0
  143.7430   77.1150  214.9500 C   0  0  0  0  0  0  0  0  0  0  0  0
  143.4900   76.6950  216.3880 C   0  0  0  0  0  0  0  0  0  0  0  0
  144.2510   75.6200  216.8770 O   0  0  0  0  0  0  0  0  0  0  0  0
  142.6100   77.3130  217.1580 N   0  0  0  0  0  0  0  0  0  0  0  0
  142.4260   78.7350  217.0090 C   0  0  0  0  0  0  0  0  0  0  0  0
  141.7130   79.2480  215.9130 C   0  0  0  0  0  0  0  0  0  0  0  0
  141.5350   80.6280  215.7770 C   0  0  0  0  0  0  0  0  0  0  0  0
  142.0580   81.5010  216.7360 C   0  0  0  0  0  0  0  0  0  0  0  0
  142.7590   80.9950  217.8350 C   0  0  0  0  0  0  0  0  0  0  0  0
  142.9430   79.6150  217.9730 C   0  0  0  0  0  0  0  0  0  0  0  0
  141.8890   76.6150  218.2600 C   0  0  0  0  0  0  0  0  0  0  0  0
  142.7920   76.2730  219.4720 C   0  0  0  0  0  0  0  0  0  0  0  0
  142.2090   75.1620  220.3760 C   0  0  0  0  0  0  0  0  0  0  0  0
  140.7640   74.9550  220.1730 N   0  0  0  0  0  0  0  0  0  0  0  0
  139.9420   74.6020  221.3080 C   0  0  0  0  0  0  0  0  0  0  0  0
  140.4820   74.1030  222.3330 O   0  0  0  0  0  0  0  0  0  0  0  0
  138.4490   74.8870  221.3210 C   0  0  1  0  0  0  0  0  0  0  0  0
  137.7560   74.0670  222.3320 N   0  0  0  0  0  0  0  0  0  0  0  0
  138.1970   76.4160  221.5080 C   0  0  0  0  0  0  0  0  0  0  0  0
  138.7560   77.2870  220.3500 C   0  0  0  0  0  0  0  0  0  0  0  0
  139.8860   78.0140  220.9730 C   0  0  0  0  0  0  0  0  0  0  0  0
  140.8140   78.8290  220.3230 C   0  0  0  0  0  0  0  0  0  0  0  0
  141.8070   79.4630  221.0860 C   0  0  0  0  0  0  0  0  0  0  0  0
  141.8500   79.2790  222.4800 C   0  0  0  0  0  0  0  0  0  0  0  0
  140.9010   78.4610  223.1140 C   0  0  0  0  0  0  0  0  0  0  0  0
  139.9270   77.8360  222.3340 C   0  0  0  0  0  0  0  0  0  0  0  0
  138.8260   76.9670  222.8140 C   0  0  0  0  0  0  0  0  0  0  0  0
  140.2120   74.8480  218.8090 C   0  0  0  0  0  0  0  0  0  0  0  0
  141.2040   75.3410  217.7500 C   0  0  0  0  0  0  0  0  0  0  0  0
  145.5606   75.9571  215.0998 H   0  0  0  0  0  0  0  0  0  0  0  0
  144.5295   75.5490  213.6867 H   0  0  0  0  0  0  0  0  0  0  0  0
  145.4947   77.0640  213.6867 H   0  0  0  0  0  0  0  0  0  0  0  0
  143.9616   78.1929  214.9322 H   0  0  0  0  0  0  0  0  0  0  0  0
  142.8402   76.8714  214.3707 H   0  0  0  0  0  0  0  0  0  0  0  0
  145.1590   75.7120  217.3140 H   0  0  0  0  0  0  0  0  0  0  0  0
  141.2942   78.5633  215.1608 H   0  0  0  0  0  0  0  0  0  0  0  0
  140.9825   81.0278  214.9139 H   0  0  0  0  0  0  0  0  0  0  0  0
  141.9179   82.5865  216.6258 H   0  0  0  0  0  0  0  0  0  0  0  0
  143.1660   81.6823  218.5914 H   0  0  0  0  0  0  0  0  0  0  0  0
  143.4939   79.2186  218.8387 H   0  0  0  0  0  0  0  0  0  0  0  0
  141.1305   77.3284  218.6146 H   0  0  0  0  0  0  0  0  0  0  0  0
  143.7700   75.9390  219.0953 H   0  0  0  0  0  0  0  0  0  0  0  0
  142.8722   77.1828  220.0851 H   0  0  0  0  0  0  0  0  0  0  0  0
  142.7326   74.2200  220.1559 H   0  0  0  0  0  0  0  0  0  0  0  0
  142.3533   75.4771  221.4200 H   0  0  0  0  0  0  0  0  0  0  0  0
  138.0212   74.5992  220.3493 H   0  0  0  0  0  0  0  0  0  0  0  0
  138.4390   73.4080  222.7730 H   0  0  0  0  0  0  0  0  0  0  0  0
  137.0070   73.4890  221.8880 H   0  0  0  0  0  0  0  0  0  0  0  0
  137.3270   74.6540  223.0810 H   0  0  0  0  0  0  0  0  0  0  0  0
  137.0999   76.4911  221.5355 H   0  0  0  0  0  0  0  0  0  0  0  0
  139.1052   76.6572  219.5185 H   0  0  0  0  0  0  0  0  0  0  0  0
  138.0004   77.9608  219.9197 H   0  0  0  0  0  0  0  0  0  0  0  0
  140.7681   78.9718  219.2333 H   0  0  0  0  0  0  0  0  0  0  0  0
  142.5525   80.1045  220.5933 H   0  0  0  0  0  0  0  0  0  0  0  0
  142.6294   79.7774  223.0751 H   0  0  0  0  0  0  0  0  0  0  0  0
  140.9248   78.3157  224.2041 H   0  0  0  0  0  0  0  0  0  0  0  0
  139.2154   76.1487  223.4375 H   0  0  0  0  0  0  0  0  0  0  0  0
  138.1011   77.5051  223.4424 H   0  0  0  0  0  0  0  0  0  0  0  0
  139.9690   73.7947  218.6055 H   0  0  0  0  0  0  0  0  0  0  0  0
  139.3135   75.4803  218.7546 H   0  0  0  0  0  0  0  0  0  0  0  0
  141.9609   74.5647  217.5643 H   0  0  0  0  0  0  0  0  0  0  0  0
  140.6697   75.5567  216.8130 H   0  0  0  0  0  0  0  0  0  0  0  0
  1  2  1  0
  2  3  1  0
  3  4  1  0
  3  5  2  0
  5  6  1  0
  6  7  2  0
  7  8  1  0
  8  9  2  0
  9 10  1  0
 10 11  2  0
  5 12  1  0
 12 13  1  0
 13 14  1  0
 14 15  1  0
 15 16  1  0
 16 17  2  0
 16 18  1  0
 18 19  1  0
 18 20  1  0
 20 21  1  0
 21 22  1  0
 22 23  2  0
 23 24  1  0
 24 25  2  0
 25 26  1  0
 26 27  2  0
 27 28  1  0
 15 29  1  0
 29 30  1  0
 11  6  1  0
 30 12  1  0
 28 20  1  0
 27 22  1  0
  1 31  1  0
  1 32  1  0
  1 33  1  0
  2 34  1  0
  2 35  1  0
  4 36  1  0
  7 37  1  0
  8 38  1  0
  9 39  1  0
 10 40  1  0
 11 41  1  0
 12 42  1  0
 13 43  1  0
 13 44  1  0
 14 45  1  0
 14 46  1  0
 18 47  1  6
 19 48  1  0
 19 49  1  0
 19 50  1  0
 20 51  1  0
 21 52  1  0
 21 53  1  0
 23 54  1  0
 24 55  1  0
 25 56  1  0
 26 57  1  0
 28 58  1  0
 28 59  1  0
 29 60  1  0
 29 61  1  0
 30 62  1  0
 30 63  1  0
M  CHG  2   5   1  19   1
M  END
>  <meeko>  (8) 
{"free_energy": -6.39, "intermolecular_energy": -8.77, "internal_energy": -2.93, "cluster_size": 4, "cluster_id": 3, "rank_in_cluster": 1}

$$$$

     RDKit          3D

 63 66  0  0  0  0  0  0  0  0999 V2000
  139.2940   71.4330  223.0850 C   0  0  0  0  0  0  0  0  0  0  0  0
  140.6820   72.0350  222.8740 C   0  0  0  0  0  0  0  0  0  0  0  0
  140.6800   73.1960  221.8940 C   0  0  0  0  0  0  0  0  0  0  0  0
  139.9690   74.3460  222.2760 O   0  0  0  0  0  0  0  0  0  0  0  0
  141.3250   73.1450  220.7400 N   0  0  0  0  0  0  0  0  0  0  0  0
  141.9140   71.8980  220.3210 C   0  0  0  0  0  0  0  0  0  0  0  0
  143.2890   71.6680  220.4920 C   0  0  0  0  0  0  0  0  0  0  0  0
  143.8520   70.4540  220.0870 C   0  0  0  0  0  0  0  0  0  0  0  0
  143.0460   69.4620  219.5180 C   0  0  0  0  0  0  0  0  0  0  0  0
  141.6750   69.6820  219.3560 C   0  0  0  0  0  0  0  0  0  0  0  0
  141.1080   70.8960  219.7570 C   0  0  0  0  0  0  0  0  0  0  0  0
  141.5730   74.3600  219.9130 C   0  0  0  0  0  0  0  0  0  0  0  0
  140.9320   74.2910  218.5040 C   0  0  0  0  0  0  0  0  0  0  0  0
  141.5610   75.2800  217.4950 C   0  0  0  0  0  0  0  0  0  0  0  0
  142.3160   76.3650  218.1490 N   0  0  0  0  0  0  0  0  0  0  0  0
  142.3060   77.6820  217.5540 C   0  0  0  0  0  0  0  0  0  0  0  0
  142.0060   77.8080  216.3350 O   0  0  0  0  0  0  0  0  0  0  0  0
  142.5760   78.9250  218.3840 C   0  0  1  0  0  0  0  0  0  0  0  0
  142.9800   80.0600  217.5320 N   0  0  0  0  0  0  0  0  0  0  0  0
  141.3400   79.2530  219.2790 C   0  0  0  0  0  0  0  0  0  0  0  0
  141.4730   80.5870  220.0630 C   0  0  0  0  0  0  0  0  0  0  0  0
  141.6150   80.1530  221.4710 C   0  0  0  0  0  0  0  0  0  0  0  0
  141.9050   80.9640  222.5700 C   0  0  0  0  0  0  0  0  0  0  0  0
  141.9740   80.3770  223.8430 C   0  0  0  0  0  0  0  0  0  0  0  0
  141.7460   78.9980  223.9970 C   0  0  0  0  0  0  0  0  0  0  0  0
  141.4480   78.2020  222.8790 C   0  0  0  0  0  0  0  0  0  0  0  0
  141.3910   78.8070  221.6220 C   0  0  0  0  0  0  0  0  0  0  0  0
  141.0620   78.1500  220.3340 C   0  0  0  0  0  0  0  0  0  0  0  0
  143.2710   76.0590  219.2310 C   0  0  0  0  0  0  0  0  0  0  0  0
  143.0740   74.6430  219.7850 C   0  0  0  0  0  0  0  0  0  0  0  0
  139.0923   71.3455  224.1628 H   0  0  0  0  0  0  0  0  0  0  0  0
  138.5377   72.0840  222.6221 H   0  0  0  0  0  0  0  0  0  0  0  0
  139.2525   70.4360  222.6221 H   0  0  0  0  0  0  0  0  0  0  0  0
  141.0599   72.3940  223.8427 H   0  0  0  0  0  0  0  0  0  0  0  0
  141.3228   71.2472  222.4512 H   0  0  0  0  0  0  0  0  0  0  0  0
  139.1680   74.3450  222.8940 H   0  0  0  0  0  0  0  0  0  0  0  0
  143.9236   72.4439  220.9451 H   0  0  0  0  0  0  0  0  0  0  0  0
  144.9302   70.2786  220.2159 H   0  0  0  0  0  0  0  0  0  0  0  0
  143.4913   68.5085  219.1980 H   0  0  0  0  0  0  0  0  0  0  0  0
  141.0416   68.8995  218.9127 H   0  0  0  0  0  0  0  0  0  0  0  0
  140.0287   71.0662  219.6303 H   0  0  0  0  0  0  0  0  0  0  0  0
  141.0842   75.1867  220.4493 H   0  0  0  0  0  0  0  0  0  0  0  0
  141.0551   73.2697  218.1144 H   0  0  0  0  0  0  0  0  0  0  0  0
  139.8734   74.5686  218.6145 H   0  0  0  0  0  0  0  0  0  0  0  0
  142.2451   74.7232  216.8378 H   0  0  0  0  0  0  0  0  0  0  0  0
  140.7383   75.7439  216.9311 H   0  0  0  0  0  0  0  0  0  0  0  0
  143.4249   78.7287  219.0555 H   0  0  0  0  0  0  0  0  0  0  0  0
  142.9630   79.7650  216.5290 H   0  0  0  0  0  0  0  0  0  0  0  0
  143.9570   80.3590  217.7530 H   0  0  0  0  0  0  0  0  0  0  0  0
  142.3430   80.8800  217.6500 H   0  0  0  0  0  0  0  0  0  0  0  0
  140.5142   79.3265  218.5560 H   0  0  0  0  0  0  0  0  0  0  0  0
  142.3598   81.1486  219.7342 H   0  0  0  0  0  0  0  0  0  0  0  0
  140.6167   81.2599  219.9083 H   0  0  0  0  0  0  0  0  0  0  0  0
  142.0762   82.0429  222.4405 H   0  0  0  0  0  0  0  0  0  0  0  0
  142.2068   80.9966  224.7216 H   0  0  0  0  0  0  0  0  0  0  0  0
  141.8012   78.5413  224.9962 H   0  0  0  0  0  0  0  0  0  0  0  0
  141.2632   77.1235  222.9914 H   0  0  0  0  0  0  0  0  0  0  0  0
  141.7052   77.2738  220.1647 H   0  0  0  0  0  0  0  0  0  0  0  0
  140.0285   77.7752  220.2976 H   0  0  0  0  0  0  0  0  0  0  0  0
  144.2944   76.1476  218.8375 H   0  0  0  0  0  0  0  0  0  0  0  0
  143.0976   76.7724  220.0502 H   0  0  0  0  0  0  0  0  0  0  0  0
  143.5297   73.9126  219.1002 H   0  0  0  0  0  0  0  0  0  0  0  0
  143.5526   74.5608  220.7720 H   0  0  0  0  0  0  0  0  0  0  0  0
  1  2  1  0
  2  3  1  0
  3  4  1  0
  3  5  2  0
  5  6  1  0
  6  7  2  0
  7  8  1  0
  8  9  2  0
  9 10  1  0
 10 11  2  0
  5 12  1  0
 12 13  1  0
 13 14  1  0
 14 15  1  0
 15 16  1  0
 16 17  2  0
 16 18  1  0
 18 19  1  0
 18 20  1  0
 20 21  1  0
 21 22  1  0
 22 23  2  0
 23 24  1  0
 24 25  2  0
 25 26  1  0
 26 27  2  0
 27 28  1  0
 15 29  1  0
 29 30  1  0
 11  6  1  0
 30 12  1  0
 28 20  1  0
 27 22  1  0
  1 31  1  0
  1 32  1  0
  1 33  1  0
  2 34  1  0
  2 35  1  0
  4 36  1  0
  7 37  1  0
  8 38  1  0
  9 39  1  0
 10 40  1  0
 11 41  1  0
 12 42  1  0
 13 43  1  0
 13 44  1  0
 14 45  1  0
 14 46  1  0
 18 47  1  1
 19 48  1  0
 19 49  1  0
 19 50  1  0
 20 51  1  0
 21 52  1  0
 21 53  1  0
 23 54  1  0
 24 55  1  0
 25 56  1  0
 26 57  1  0
 28 58  1  0
 28 59  1  0
 29 60  1  0
 29 61  1  0
 30 62  1  0
 30 63  1  0
M  CHG  2   5   1  19   1
M  END
>  <meeko>  (9) 
{"free_energy": -7.95, "intermolecular_energy": -10.34, "internal_energy": -2.06, "cluster_size": 15, "cluster_id": 1, "rank_in_cluster": 1}

$$$$

     RDKit          3D

 63 66  0  0  0  0  0  0  0  0999 V2000
  139.3500   71.5160  222.9150 C   0  0  0  0  0  0  0  0  0  0  0  0
  140.7020   72.2240  222.8350 C   0  0  0  0  0  0  0  0  0  0  0  0
  140.7020   73.3880  221.8590 C   0  0  0  0  0  0  0  0  0  0  0  0
  139.9650   74.5250  222.2300 O   0  0  0  0  0  0  0  0  0  0  0  0
  141.3720   73.3520  220.7190 N   0  0  0  0  0  0  0  0  0  0  0  0
  142.0110   72.1230  220.3210 C   0  0  0  0  0  0  0  0  0  0  0  0
  141.2690   71.1040  219.7020 C   0  0  0  0  0  0  0  0  0  0  0  0
  141.8960   69.9160  219.3150 C   0  0  0  0  0  0  0  0  0  0  0  0
  143.2660   69.7420  219.5350 C   0  0  0  0  0  0  0  0  0  0  0  0
  144.0120   70.7570  220.1420 C   0  0  0  0  0  0  0  0  0  0  0  0
  143.3880   71.9460  220.5340 C   0  0  0  0  0  0  0  0  0  0  0  0
  141.5950   74.5700  219.8890 C   0  0  0  0  0  0  0  0  0  0  0  0
  140.8980   74.5130  218.5060 C   0  0  0  0  0  0  0  0  0  0  0  0
  141.4930   75.5030  217.4780 C   0  0  0  0  0  0  0  0  0  0  0  0
  142.2830   76.5780  218.1060 N   0  0  0  0  0  0  0  0  0  0  0  0
  142.2590   77.8980  217.5180 C   0  0  0  0  0  0  0  0  0  0  0  0
  141.9110   78.0330  216.3130 O   0  0  0  0  0  0  0  0  0  0  0  0
  142.5730   79.1350  218.3440 C   0  0  1  0  0  0  0  0  0  0  0  0
  142.9670   80.2660  217.4830 N   0  0  0  0  0  0  0  0  0  0  0  0
  141.3700   79.4770  219.2770 C   0  0  0  0  0  0  0  0  0  0  0  0
  141.5930   80.7480  220.1420 C   0  0  0  0  0  0  0  0  0  0  0  0
  141.7260   80.2160  221.5170 C   0  0  0  0  0  0  0  0  0  0  0  0
  142.0780   80.9360  222.6610 C   0  0  0  0  0  0  0  0  0  0  0  0
  142.1260   80.2640  223.8920 C   0  0  0  0  0  0  0  0  0  0  0  0
  141.8150   78.8940  223.9620 C   0  0  0  0  0  0  0  0  0  0  0  0
  141.4550   78.1920  222.8000 C   0  0  0  0  0  0  0  0  0  0  0  0
  141.4210   78.8790  221.5850 C   0  0  0  0  0  0  0  0  0  0  0  0
  141.0370   78.3280  220.2640 C   0  0  0  0  0  0  0  0  0  0  0  0
  143.2790   76.2580  219.1470 C   0  0  0  0  0  0  0  0  0  0  0  0
  143.0930   74.8410  219.7010 C   0  0  0  0  0  0  0  0  0  0  0  0
  139.0737   71.3713  223.9699 H   0  0  0  0  0  0  0  0  0  0  0  0
  138.5849   72.1292  222.4163 H   0  0  0  0  0  0  0  0  0  0  0  0
  139.4182   70.5379  222.4163 H   0  0  0  0  0  0  0  0  0  0  0  0
  140.9590   72.6040  223.8348 H   0  0  0  0  0  0  0  0  0  0  0  0
  141.4383   71.4905  222.4746 H   0  0  0  0  0  0  0  0  0  0  0  0
  139.1770   74.5150  222.8650 H   0  0  0  0  0  0  0  0  0  0  0  0
  140.1926   71.2408  219.5213 H   0  0  0  0  0  0  0  0  0  0  0  0
  141.3108   69.1168  218.8367 H   0  0  0  0  0  0  0  0  0  0  0  0
  143.7571   68.8060  219.2304 H   0  0  0  0  0  0  0  0  0  0  0  0
  145.0903   70.6204  220.3114 H   0  0  0  0  0  0  0  0  0  0  0  0
  143.9769   72.7439  221.0100 H   0  0  0  0  0  0  0  0  0  0  0  0
  141.1341   75.3972  220.4487 H   0  0  0  0  0  0  0  0  0  0  0  0
  140.9985   73.4930  218.1065 H   0  0  0  0  0  0  0  0  0  0  0  0
  139.8465   74.7971  218.6600 H   0  0  0  0  0  0  0  0  0  0  0  0
  142.1449   74.9447  216.7900 H   0  0  0  0  0  0  0  0  0  0  0  0
  140.6515   75.9769  216.9514 H   0  0  0  0  0  0  0  0  0  0  0  0
  143.4390   78.9250  218.9890 H   0  0  0  0  0  0  0  0  0  0  0  0
  143.9540   80.5390  217.6970 H   0  0  0  0  0  0  0  0  0  0  0  0
  142.3650   81.0990  217.6690 H   0  0  0  0  0  0  0  0  0  0  0  0
  142.9020   80.0240  216.4690 H   0  0  0  0  0  0  0  0  0  0  0  0
  140.5419   79.6449  218.5726 H   0  0  0  0  0  0  0  0  0  0  0  0
  142.5079   81.2760  219.8352 H   0  0  0  0  0  0  0  0  0  0  0  0
  140.7772   81.4794  220.0443 H   0  0  0  0  0  0  0  0  0  0  0  0
  142.3130   82.0088  222.5982 H   0  0  0  0  0  0  0  0  0  0  0  0
  142.4076   80.8100  224.8045 H   0  0  0  0  0  0  0  0  0  0  0  0
  141.8538   78.3712  224.9291 H   0  0  0  0  0  0  0  0  0  0  0  0
  141.2047   77.1219  222.8463 H   0  0  0  0  0  0  0  0  0  0  0  0
  141.6227   77.4269  220.0293 H   0  0  0  0  0  0  0  0  0  0  0  0
  139.9818   78.0202  220.2203 H   0  0  0  0  0  0  0  0  0  0  0  0
  144.2862   76.3404  218.7126 H   0  0  0  0  0  0  0  0  0  0  0  0
  143.1450   76.9682  219.9763 H   0  0  0  0  0  0  0  0  0  0  0  0
  143.5139   74.1107  218.9943 H   0  0  0  0  0  0  0  0  0  0  0  0
  143.6110   74.7491  220.6670 H   0  0  0  0  0  0  0  0  0  0  0  0
  1  2  1  0
  2  3  1  0
  3  4  1  0
  3  5  2  0
  5  6  1  0
  6  7  2  0
  7  8  1  0
  8  9  2  0
  9 10  1  0
 10 11  2  0
  5 12  1  0
 12 13  1  0
 13 14  1  0
 14 15  1  0
 15 16  1  0
 16 17  2  0
 16 18  1  0
 18 19  1  0
 18 20  1  0
 20 21  1  0
 21 22  1  0
 22 23  2  0
 23 24  1  0
 24 25  2  0
 25 26  1  0
 26 27  2  0
 27 28  1  0
 15 29  1  0
 29 30  1  0
 11  6  1  0
 30 12  1  0
 28 20  1  0
 27 22  1  0
  1 31  1  0
  1 32  1  0
  1 33  1  0
  2 34  1  0
  2 35  1  0
  4 36  1  0
  7 37  1  0
  8 38  1  0
  9 39  1  0
 10 40  1  0
 11 41  1  0
 12 42  1  0
 13 43  1  0
 13 44  1  0
 14 45  1  0
 14 46  1  0
 18 47  1  1
 19 48  1  0
 19 49  1  0
 19 50  1  0
 20 51  1  0
 21 52  1  0
 21 53  1  0
 23 54  1  0
 24 55  1  0
 25 56  1  0
 26 57  1  0
 28 58  1  0
 28 59  1  0
 29 60  1  0
 29 61  1  0
 30 62  1  0
 30 63  1  0
M  CHG  2   5   1  19   1
M  END
>  <meeko>  (10) 
{"free_energy": -7.89, "intermolecular_energy": -10.28, "internal_energy": -2.05, "cluster_size": 15, "cluster_id": 1, "rank_in_cluster": 2}

$$$$

     RDKit          3D

 63 66  0  0  0  0  0  0  0  0999 V2000
  140.3280   71.8230  222.8630 C   0  0  0  0  0  0  0  0  0  0  0  0
  141.2060   72.0720  221.6370 C   0  0  0  0  0  0  0  0  0  0  0  0
  141.3780   73.5480  221.3240 C   0  0  0  0  0  0  0  0  0  0  0  0
  140.5470   74.4440  222.0170 O   0  0  0  0  0  0  0  0  0  0  0  0
  142.2750   73.9840  220.4550 N   0  0  0  0  0  0  0  0  0  0  0  0
  143.5280   73.2830  220.3300 C   0  0  0  0  0  0  0  0  0  0  0  0
  144.6670   73.7340  221.0160 C   0  0  0  0  0  0  0  0  0  0  0  0
  145.8780   73.0460  220.8930 C   0  0  0  0  0  0  0  0  0  0  0  0
  145.9560   71.9020  220.0930 C   0  0  0  0  0  0  0  0  0  0  0  0
  144.8230   71.4420  219.4150 C   0  0  0  0  0  0  0  0  0  0  0  0
  143.6100   72.1290  219.5330 C   0  0  0  0  0  0  0  0  0  0  0  0
  142.0880   75.2470  219.6850 C   0  0  0  0  0  0  0  0  0  0  0  0
  140.9010   75.1950  218.6890 C   0  0  0  0  0  0  0  0  0  0  0  0
  140.9880   76.2660  217.5770 C   0  0  0  0  0  0  0  0  0  0  0  0
  141.9070   77.3690  217.9110 N   0  0  0  0  0  0  0  0  0  0  0  0
  141.5860   78.7060  217.4680 C   0  0  0  0  0  0  0  0  0  0  0  0
  140.7810   78.8640  216.5090 O   0  0  0  0  0  0  0  0  0  0  0  0
  142.1400   79.9290  218.1800 C   0  0  1  0  0  0  0  0  0  0  0  0
  142.4330   81.0160  217.2280 N   0  0  0  0  0  0  0  0  0  0  0  0
  141.1710   80.3700  219.3210 C   0  0  0  0  0  0  0  0  0  0  0  0
  141.8270   81.3120  220.3670 C   0  0  0  0  0  0  0  0  0  0  0  0
  141.9090   80.4770  221.5870 C   0  0  0  0  0  0  0  0  0  0  0  0
  142.5490   80.8070  222.7830 C   0  0  0  0  0  0  0  0  0  0  0  0
  142.4990   79.8940  223.8490 C   0  0  0  0  0  0  0  0  0  0  0  0
  141.8070   78.6780  223.7050 C   0  0  0  0  0  0  0  0  0  0  0  0
  141.1640   78.3710  222.4960 C   0  0  0  0  0  0  0  0  0  0  0  0
  141.2330   79.2900  221.4470 C   0  0  0  0  0  0  0  0  0  0  0  0
  140.5980   79.1660  220.1140 C   0  0  0  0  0  0  0  0  0  0  0  0
  143.2500   77.0800  218.4510 C   0  0  0  0  0  0  0  0  0  0  0  0
  143.3710   75.6330  218.9390 C   0  0  0  0  0  0  0  0  0  0  0  0
  140.9177   71.9902  223.7764 H   0  0  0  0  0  0  0  0  0  0  0  0
  139.4721   72.5138  222.8475 H   0  0  0  0  0  0  0  0  0  0  0  0
  139.9622   70.7857  222.8475 H   0  0  0  0  0  0  0  0  0  0  0  0
  142.1982   71.6341  221.8209 H   0  0  0  0  0  0  0  0  0  0  0  0
  140.7074   71.6071  220.7737 H   0  0  0  0  0  0  0  0  0  0  0  0
  139.7570   74.1690  222.5880 H   0  0  0  0  0  0  0  0  0  0  0  0
  144.6066   74.6300  221.6512 H   0  0  0  0  0  0  0  0  0  0  0  0
  146.7705   73.4052  221.4263 H   0  0  0  0  0  0  0  0  0  0  0  0
  146.9101   71.3631  219.9969 H   0  0  0  0  0  0  0  0  0  0  0  0
  144.8854   70.5398  218.7887 H   0  0  0  0  0  0  0  0  0  0  0  0
  142.7188   71.7649  219.0008 H   0  0  0  0  0  0  0  0  0  0  0  0
  141.8478   76.0160  220.4339 H   0  0  0  0  0  0  0  0  0  0  0  0
  140.8849   74.2017  218.2166 H   0  0  0  0  0  0  0  0  0  0  0  0
  139.9847   75.3957  219.2635 H   0  0  0  0  0  0  0  0  0  0  0  0
  141.3398   75.7841  216.6529 H   0  0  0  0  0  0  0  0  0  0  0  0
  139.9838   76.6988  217.4575 H   0  0  0  0  0  0  0  0  0  0  0  0
  143.1004   79.6664  218.6476 H   0  0  0  0  0  0  0  0  0  0  0  0
  143.4180   80.9240  216.8860 H   0  0  0  0  0  0  0  0  0  0  0  0
  142.3510   81.9480  217.6940 H   0  0  0  0  0  0  0  0  0  0  0  0
  141.7920   80.9950  216.4040 H   0  0  0  0  0  0  0  0  0  0  0  0
  140.3736   80.9049  218.7844 H   0  0  0  0  0  0  0  0  0  0  0  0
  142.8286   81.6263  220.0385 H   0  0  0  0  0  0  0  0  0  0  0  0
  141.2570   82.2399  220.5225 H   0  0  0  0  0  0  0  0  0  0  0  0
  143.0820   81.7634  222.8884 H   0  0  0  0  0  0  0  0  0  0  0  0
  143.0020   80.1304  224.7983 H   0  0  0  0  0  0  0  0  0  0  0  0
  141.7697   77.9657  224.5424 H   0  0  0  0  0  0  0  0  0  0  0  0
  140.6162   77.4246  222.3770 H   0  0  0  0  0  0  0  0  0  0  0  0
  140.8728   78.2144  219.6355 H   0  0  0  0  0  0  0  0  0  0  0  0
  139.4991   79.1715  220.1628 H   0  0  0  0  0  0  0  0  0  0  0  0
  143.9955   77.2522  217.6607 H   0  0  0  0  0  0  0  0  0  0  0  0
  143.4218   77.7448  219.3104 H   0  0  0  0  0  0  0  0  0  0  0  0
  143.5116   74.9640  218.0772 H   0  0  0  0  0  0  0  0  0  0  0  0
  144.2347   75.5401  219.6138 H   0  0  0  0  0  0  0  0  0  0  0  0
  1  2  1  0
  2  3  1  0
  3  4  1  0
  3  5  2  0
  5  6  1  0
  6  7  2  0
  7  8  1  0
  8  9  2  0
  9 10  1  0
 10 11  2  0
  5 12  1  0
 12 13  1  0
 13 14  1  0
 14 15  1  0
 15 16  1  0
 16 17  2  0
 16 18  1  0
 18 19  1  0
 18 20  1  0
 20 21  1  0
 21 22  1  0
 22 23  2  0
 23 24  1  0
 24 25  2  0
 25 26  1  0
 26 27  2  0
 27 28  1  0
 15 29  1  0
 29 30  1  0
 11  6  1  0
 30 12  1  0
 28 20  1  0
 27 22  1  0
  1 31  1  0
  1 32  1  0
  1 33  1  0
  2 34  1  0
  2 35  1  0
  4 36  1  0
  7 37  1  0
  8 38  1  0
  9 39  1  0
 10 40  1  0
 11 41  1  0
 12 42  1  0
 13 43  1  0
 13 44  1  0
 14 45  1  0
 14 46  1  0
 18 47  1  1
 19 48  1  0
 19 49  1  0
 19 50  1  0
 20 51  1  0
 21 52  1  0
 21 53  1  0
 23 54  1  0
 24 55  1  0
 25 56  1  0
 26 57  1  0
 28 58  1  0
 28 59  1  0
 29 60  1  0
 29 61  1  0
 30 62  1  0
 30 63  1  0
M  CHG  2   5   1  19   1
M  END
>  <meeko>  (11) 
{"free_energy": -7.64, "intermolecular_energy": -10.03, "internal_energy": -1.95, "cluster_size": 15, "cluster_id": 1, "rank_in_cluster": 8}

$$$$

     RDKit          3D

 63 66  0  0  0  0  0  0  0  0999 V2000
  140.3290   71.6700  223.3710 C   0  0  0  0  0  0  0  0  0  0  0  0
  139.6800   72.2260  222.1040 C   0  0  0  0  0  0  0  0  0  0  0  0
  140.3580   73.4860  221.5960 C   0  0  0  0  0  0  0  0  0  0  0  0
  140.1100   74.6700  222.3110 O   0  0  0  0  0  0  0  0  0  0  0  0
  141.1580   73.4810  220.5430 N   0  0  0  0  0  0  0  0  0  0  0  0
  141.8850   72.2780  220.2220 C   0  0  0  0  0  0  0  0  0  0  0  0
  143.1580   72.0500  220.7700 C   0  0  0  0  0  0  0  0  0  0  0  0
  143.8560   70.8800  220.4580 C   0  0  0  0  0  0  0  0  0  0  0  0
  143.2850   69.9290  219.6050 C   0  0  0  0  0  0  0  0  0  0  0  0
  142.0140   70.1460  219.0650 C   0  0  0  0  0  0  0  0  0  0  0  0
  141.3130   71.3180  219.3730 C   0  0  0  0  0  0  0  0  0  0  0  0
  141.4300   74.7100  219.7440 C   0  0  0  0  0  0  0  0  0  0  0  0
  140.7300   74.7170  218.3610 C   0  0  0  0  0  0  0  0  0  0  0  0
  141.3650   75.7090  217.3580 C   0  0  0  0  0  0  0  0  0  0  0  0
  142.1970   76.7340  218.0130 N   0  0  0  0  0  0  0  0  0  0  0  0
  142.2270   78.0690  217.4600 C   0  0  0  0  0  0  0  0  0  0  0  0
  141.8850   78.2490  216.2590 O   0  0  0  0  0  0  0  0  0  0  0  0
  142.5910   79.2700  218.3170 C   0  0  1  0  0  0  0  0  0  0  0  0
  143.0190   80.4110  217.4840 N   0  0  0  0  0  0  0  0  0  0  0  0
  141.4080   79.6290  219.2690 C   0  0  0  0  0  0  0  0  0  0  0  0
  141.6960   80.8450  220.1910 C   0  0  0  0  0  0  0  0  0  0  0  0
  141.8030   80.2430  221.5400 C   0  0  0  0  0  0  0  0  0  0  0  0
  142.1920   80.8900  222.7150 C   0  0  0  0  0  0  0  0  0  0  0  0
  142.2080   80.1600  223.9130 C   0  0  0  0  0  0  0  0  0  0  0  0
  141.8290   78.8060  223.9200 C   0  0  0  0  0  0  0  0  0  0  0  0
  141.4330   78.1780  222.7290 C   0  0  0  0  0  0  0  0  0  0  0  0
  141.4320   78.9210  221.5470 C   0  0  0  0  0  0  0  0  0  0  0  0
  141.0190   78.4530  220.2030 C   0  0  0  0  0  0  0  0  0  0  0  0
  143.1800   76.3470  219.0440 C   0  0  0  0  0  0  0  0  0  0  0  0
  142.9370   74.9250  219.5610 C   0  0  0  0  0  0  0  0  0  0  0  0
  139.8318   72.0960  224.2549 H   0  0  0  0  0  0  0  0  0  0  0  0
  140.2268   70.5748  223.3850 H   0  0  0  0  0  0  0  0  0  0  0  0
  141.3955   71.9390  223.3850 H   0  0  0  0  0  0  0  0  0  0  0  0
  139.7314   71.4585  221.3177 H   0  0  0  0  0  0  0  0  0  0  0  0
  138.6412   72.4882  222.3534 H   0  0  0  0  0  0  0  0  0  0  0  0
  139.4650   74.7470  223.0870 H   0  0  0  0  0  0  0  0  0  0  0  0
  143.6063   72.7933  221.4457 H   0  0  0  0  0  0  0  0  0  0  0  0
  144.8554   70.7065  220.8835 H   0  0  0  0  0  0  0  0  0  0  0  0
  143.8368   69.0097  219.3591 H   0  0  0  0  0  0  0  0  0  0  0  0
  141.5646   69.3957  218.3979 H   0  0  0  0  0  0  0  0  0  0  0  0
  140.3122   71.4867  218.9489 H   0  0  0  0  0  0  0  0  0  0  0  0
  141.0035   75.5407  220.3254 H   0  0  0  0  0  0  0  0  0  0  0  0
  140.7886   73.7045  217.9350 H   0  0  0  0  0  0  0  0  0  0  0  0
  139.6909   75.0391  218.5237 H   0  0  0  0  0  0  0  0  0  0  0  0
  141.9941   75.1430  216.6553 H   0  0  0  0  0  0  0  0  0  0  0  0
  140.5435   76.2299  216.8443 H   0  0  0  0  0  0  0  0  0  0  0  0
  143.4536   79.0107  218.9485 H   0  0  0  0  0  0  0  0  0  0  0  0
  142.9440   80.1510  216.4730 H   0  0  0  0  0  0  0  0  0  0  0  0
  144.0190   80.6500  217.6720 H   0  0  0  0  0  0  0  0  0  0  0  0
  142.4330   81.2580  217.6550 H   0  0  0  0  0  0  0  0  0  0  0  0
  140.5886   79.8716  218.5764 H   0  0  0  0  0  0  0  0  0  0  0  0
  142.6363   81.3396  219.9061 H   0  0  0  0  0  0  0  0  0  0  0  0
  140.9184   81.6207  220.1300 H   0  0  0  0  0  0  0  0  0  0  0  0
  142.4803   81.9515  222.7014 H   0  0  0  0  0  0  0  0  0  0  0  0
  142.5177   80.6480  224.8489 H   0  0  0  0  0  0  0  0  0  0  0  0
  141.8429   78.2374  224.8615 H   0  0  0  0  0  0  0  0  0  0  0  0
  141.1293   77.1208  222.7269 H   0  0  0  0  0  0  0  0  0  0  0  0
  141.5582   77.5356  219.9242 H   0  0  0  0  0  0  0  0  0  0  0  0
  139.9495   78.2014  220.1491 H   0  0  0  0  0  0  0  0  0  0  0  0
  144.1895   76.3999  218.6104 H   0  0  0  0  0  0  0  0  0  0  0  0
  143.0753   77.0402  219.8917 H   0  0  0  0  0  0  0  0  0  0  0  0
  143.3277   74.1970  218.8348 H   0  0  0  0  0  0  0  0  0  0  0  0
  143.4512   74.7871  220.5236 H   0  0  0  0  0  0  0  0  0  0  0  0
  1  2  1  0
  2  3  1  0
  3  4  1  0
  3  5  2  0
  5  6  1  0
  6  7  2  0
  7  8  1  0
  8  9  2  0
  9 10  1  0
 10 11  2  0
  5 12  1  0
 12 13  1  0
 13 14  1  0
 14 15  1  0
 15 16  1  0
 16 17  2  0
 16 18  1  0
 18 19  1  0
 18 20  1  0
 20 21  1  0
 21 22  1  0
 22 23  2  0
 23 24  1  0
 24 25  2  0
 25 26  1  0
 26 27  2  0
 27 28  1  0
 15 29  1  0
 29 30  1  0
 11  6  1  0
 30 12  1  0
 28 20  1  0
 27 22  1  0
  1 31  1  0
  1 32  1  0
  1 33  1  0
  2 34  1  0
  2 35  1  0
  4 36  1  0
  7 37  1  0
  8 38  1  0
  9 39  1  0
 10 40  1  0
 11 41  1  0
 12 42  1  0
 13 43  1  0
 13 44  1  0
 14 45  1  0
 14 46  1  0
 18 47  1  1
 19 48  1  0
 19 49  1  0
 19 50  1  0
 20 51  1  0
 21 52  1  0
 21 53  1  0
 23 54  1  0
 24 55  1  0
 25 56  1  0
 26 57  1  0
 28 58  1  0
 28 59  1  0
 29 60  1  0
 29 61  1  0
 30 62  1  0
 30 63  1  0
M  CHG  2   5   1  19   1
M  END
>  <meeko>  (12) 
{"free_energy": -7.76, "intermolecular_energy": -10.14, "internal_energy": -2.18, "cluster_size": 15, "cluster_id": 1, "rank_in_cluster": 5}

$$$$

     RDKit          3D

 63 66  0  0  0  0  0  0  0  0999 V2000
  140.3540   71.7790  223.5260 C   0  0  0  0  0  0  0  0  0  0  0  0
  139.7850   72.1910  222.1690 C   0  0  0  0  0  0  0  0  0  0  0  0
  140.3990   73.4740  221.6360 C   0  0  0  0  0  0  0  0  0  0  0  0
  140.0810   74.6600  222.3190 O   0  0  0  0  0  0  0  0  0  0  0  0
  141.2070   73.4860  220.5890 N   0  0  0  0  0  0  0  0  0  0  0  0
  141.9740   72.3050  220.2820 C   0  0  0  0  0  0  0  0  0  0  0  0
  143.2810   72.1580  220.7750 C   0  0  0  0  0  0  0  0  0  0  0  0
  144.0180   71.0080  220.4780 C   0  0  0  0  0  0  0  0  0  0  0  0
  143.4520   69.9960  219.6950 C   0  0  0  0  0  0  0  0  0  0  0  0
  142.1480   70.1320  219.2100 C   0  0  0  0  0  0  0  0  0  0  0  0
  141.4080   71.2830  219.5030 C   0  0  0  0  0  0  0  0  0  0  0  0
  141.4470   74.7170  219.7830 C   0  0  0  0  0  0  0  0  0  0  0  0
  140.6830   74.7340  218.4350 C   0  0  0  0  0  0  0  0  0  0  0  0
  141.2750   75.7280  217.4080 C   0  0  0  0  0  0  0  0  0  0  0  0
  142.1420   76.7460  218.0270 N   0  0  0  0  0  0  0  0  0  0  0  0
  142.1520   78.0830  217.4790 C   0  0  0  0  0  0  0  0  0  0  0  0
  141.7540   78.2710  216.2960 O   0  0  0  0  0  0  0  0  0  0  0  0
  142.5620   79.2790  218.3230 C   0  0  1  0  0  0  0  0  0  0  0  0
  143.0110   80.4020  217.4770 N   0  0  0  0  0  0  0  0  0  0  0  0
  141.4030   79.6770  219.2890 C   0  0  0  0  0  0  0  0  0  0  0  0
  141.7520   80.8660  220.2260 C   0  0  0  0  0  0  0  0  0  0  0  0
  141.8410   80.2410  221.5650 C   0  0  0  0  0  0  0  0  0  0  0  0
  142.2670   80.8520  222.7450 C   0  0  0  0  0  0  0  0  0  0  0  0
  142.2580   80.1060  223.9340 C   0  0  0  0  0  0  0  0  0  0  0  0
  141.8180   78.7700  223.9240 C   0  0  0  0  0  0  0  0  0  0  0  0
  141.3860   78.1770  222.7270 C   0  0  0  0  0  0  0  0  0  0  0  0
  141.4100   78.9370  221.5560 C   0  0  0  0  0  0  0  0  0  0  0  0
  140.9680   78.5070  220.2090 C   0  0  0  0  0  0  0  0  0  0  0  0
  143.1700   76.3500  219.0090 C   0  0  0  0  0  0  0  0  0  0  0  0
  142.9450   74.9270  219.5300 C   0  0  0  0  0  0  0  0  0  0  0  0
  139.7446   72.2203  224.3284 H   0  0  0  0  0  0  0  0  0  0  0  0
  140.3368   70.6826  223.6132 H   0  0  0  0  0  0  0  0  0  0  0  0
  141.3903   72.1375  223.6132 H   0  0  0  0  0  0  0  0  0  0  0  0
  139.9779   71.3833  221.4476 H   0  0  0  0  0  0  0  0  0  0  0  0
  138.7082   72.3711  222.3033 H   0  0  0  0  0  0  0  0  0  0  0  0
  139.4350   74.7190  223.0950 H   0  0  0  0  0  0  0  0  0  0  0  0
  143.7255   72.9496  221.3961 H   0  0  0  0  0  0  0  0  0  0  0  0
  145.0437   70.8986  220.8601 H   0  0  0  0  0  0  0  0  0  0  0  0
  144.0338   69.0923  219.4608 H   0  0  0  0  0  0  0  0  0  0  0  0
  141.7033   69.3337  218.5976 H   0  0  0  0  0  0  0  0  0  0  0  0
  140.3812   71.3873  219.1224 H   0  0  0  0  0  0  0  0  0  0  0  0
  141.0521   75.5465  220.3879 H   0  0  0  0  0  0  0  0  0  0  0  0
  140.7166   73.7234  218.0020 H   0  0  0  0  0  0  0  0  0  0  0  0
  139.6542   75.0600  218.6479 H   0  0  0  0  0  0  0  0  0  0  0  0
  141.8674   75.1623  216.6738 H   0  0  0  0  0  0  0  0  0  0  0  0
  140.4326   76.2553  216.9366 H   0  0  0  0  0  0  0  0  0  0  0  0
  143.4258   78.9995  218.9441 H   0  0  0  0  0  0  0  0  0  0  0  0
  142.9210   80.1350  216.4690 H   0  0  0  0  0  0  0  0  0  0  0  0
  144.0180   80.6180  217.6550 H   0  0  0  0  0  0  0  0  0  0  0  0
  142.4470   81.2640  217.6450 H   0  0  0  0  0  0  0  0  0  0  0  0
  140.5905   79.9659  218.6061 H   0  0  0  0  0  0  0  0  0  0  0  0
  142.7117   81.3218  219.9410 H   0  0  0  0  0  0  0  0  0  0  0  0
  141.0098   81.6766  220.1817 H   0  0  0  0  0  0  0  0  0  0  0  0
  142.6037   81.8992  222.7434 H   0  0  0  0  0  0  0  0  0  0  0  0
  142.5953   80.5665  224.8743 H   0  0  0  0  0  0  0  0  0  0  0  0
  141.8124   78.1878  224.8573 H   0  0  0  0  0  0  0  0  0  0  0  0
  141.0356   77.1344  222.7120 H   0  0  0  0  0  0  0  0  0  0  0  0
  141.4638   77.5705  219.9138 H   0  0  0  0  0  0  0  0  0  0  0  0
  139.8880   78.3041  220.1591 H   0  0  0  0  0  0  0  0  0  0  0  0
  144.1584   76.4007  218.5290 H   0  0  0  0  0  0  0  0  0  0  0  0
  143.1081   77.0395  219.8638 H   0  0  0  0  0  0  0  0  0  0  0  0
  143.2978   74.2009  218.7828 H   0  0  0  0  0  0  0  0  0  0  0  0
  143.5032   74.7824  220.4668 H   0  0  0  0  0  0  0  0  0  0  0  0
  1  2  1  0
  2  3  1  0
  3  4  1  0
  3  5  2  0
  5  6  1  0
  6  7  2  0
  7  8  1  0
  8  9  2  0
  9 10  1  0
 10 11  2  0
  5 12  1  0
 12 13  1  0
 13 14  1  0
 14 15  1  0
 15 16  1  0
 16 17  2  0
 16 18  1  0
 18 19  1  0
 18 20  1  0
 20 21  1  0
 21 22  1  0
 22 23  2  0
 23 24  1  0
 24 25  2  0
 25 26  1  0
 26 27  2  0
 27 28  1  0
 15 29  1  0
 29 30  1  0
 11  6  1  0
 30 12  1  0
 28 20  1  0
 27 22  1  0
  1 31  1  0
  1 32  1  0
  1 33  1  0
  2 34  1  0
  2 35  1  0
  4 36  1  0
  7 37  1  0
  8 38  1  0
  9 39  1  0
 10 40  1  0
 11 41  1  0
 12 42  1  0
 13 43  1  0
 13 44  1  0
 14 45  1  0
 14 46  1  0
 18 47  1  1
 19 48  1  0
 19 49  1  0
 19 50  1  0
 20 51  1  0
 21 52  1  0
 21 53  1  0
 23 54  1  0
 24 55  1  0
 25 56  1  0
 26 57  1  0
 28 58  1  0
 28 59  1  0
 29 60  1  0
 29 61  1  0
 30 62  1  0
 30 63  1  0
M  CHG  2   5   1  19   1
M  END
>  <meeko>  (13) 
{"free_energy": -7.82, "intermolecular_energy": -10.2, "internal_energy": -2.12, "cluster_size": 15, "cluster_id": 1, "rank_in_cluster": 4}

$$$$

     RDKit          3D

 63 66  0  0  0  0  0  0  0  0999 V2000
  140.0430   71.8560  223.0490 C   0  0  0  0  0  0  0  0  0  0  0  0
  139.6200   72.5430  221.7510 C   0  0  0  0  0  0  0  0  0  0  0  0
  140.3790   73.8320  221.4900 C   0  0  0  0  0  0  0  0  0  0  0  0
  140.0680   74.9280  222.3120 O   0  0  0  0  0  0  0  0  0  0  0  0
  141.3020   73.9280  220.5460 N   0  0  0  0  0  0  0  0  0  0  0  0
  142.2450   72.8510  220.3780 C   0  0  0  0  0  0  0  0  0  0  0  0
  143.5460   72.9580  220.8940 C   0  0  0  0  0  0  0  0  0  0  0  0
  144.4550   71.9080  220.7310 C   0  0  0  0  0  0  0  0  0  0  0  0
  144.0670   70.7440  220.0590 C   0  0  0  0  0  0  0  0  0  0  0  0
  142.7700   70.6280  219.5510 C   0  0  0  0  0  0  0  0  0  0  0  0
  141.8590   71.6770  219.7110 C   0  0  0  0  0  0  0  0  0  0  0  0
  141.4800   75.1620  219.7310 C   0  0  0  0  0  0  0  0  0  0  0  0
  140.6140   75.1850  218.4450 C   0  0  0  0  0  0  0  0  0  0  0  0
  141.1260   76.1830  217.3800 C   0  0  0  0  0  0  0  0  0  0  0  0
  142.0390   77.1990  217.9350 N   0  0  0  0  0  0  0  0  0  0  0  0
  142.0080   78.5380  217.3930 C   0  0  0  0  0  0  0  0  0  0  0  0
  141.5200   78.7310  216.2460 O   0  0  0  0  0  0  0  0  0  0  0  0
  142.4820   79.7300  218.2080 C   0  0  1  0  0  0  0  0  0  0  0  0
  142.9440   80.8250  217.3350 N   0  0  0  0  0  0  0  0  0  0  0  0
  141.3650   80.1800  219.2020 C   0  0  0  0  0  0  0  0  0  0  0  0
  141.8400   81.2360  220.2370 C   0  0  0  0  0  0  0  0  0  0  0  0
  141.8370   80.4940  221.5190 C   0  0  0  0  0  0  0  0  0  0  0  0
  142.3170   80.9490  222.7480 C   0  0  0  0  0  0  0  0  0  0  0  0
  142.2040   80.1110  223.8690 C   0  0  0  0  0  0  0  0  0  0  0  0
  141.6100   78.8420  223.7440 C   0  0  0  0  0  0  0  0  0  0  0  0
  141.1270   78.4090  222.5000 C   0  0  0  0  0  0  0  0  0  0  0  0
  141.2550   79.2560  221.3980 C   0  0  0  0  0  0  0  0  0  0  0  0
  140.7830   78.9960  220.0170 C   0  0  0  0  0  0  0  0  0  0  0  0
  143.1390   76.7980  218.8330 C   0  0  0  0  0  0  0  0  0  0  0  0
  142.9540   75.3720  219.3640 C   0  0  0  0  0  0  0  0  0  0  0  0
  139.6827   72.4412  223.9079 H   0  0  0  0  0  0  0  0  0  0  0  0
  139.6106   70.8453  223.0867 H   0  0  0  0  0  0  0  0  0  0  0  0
  141.1402   71.7871  223.0867 H   0  0  0  0  0  0  0  0  0  0  0  0
  139.8014   71.8532  220.9136 H   0  0  0  0  0  0  0  0  0  0  0  0
  138.5548   72.8006  221.8459 H   0  0  0  0  0  0  0  0  0  0  0  0
  139.4100   74.8990  223.0810 H   0  0  0  0  0  0  0  0  0  0  0  0
  143.8512   73.8700  221.4279 H   0  0  0  0  0  0  0  0  0  0  0  0
  145.4756   71.9973  221.1314 H   0  0  0  0  0  0  0  0  0  0  0  0
  144.7833   69.9192  219.9303 H   0  0  0  0  0  0  0  0  0  0  0  0
  142.4657   69.7111  219.0250 H   0  0  0  0  0  0  0  0  0  0  0  0
  140.8377   71.5823  219.3135 H   0  0  0  0  0  0  0  0  0  0  0  0
  141.1339   75.9890  220.3684 H   0  0  0  0  0  0  0  0  0  0  0  0
  140.6135   74.1762  218.0064 H   0  0  0  0  0  0  0  0  0  0  0  0
  139.6048   75.5104  218.7377 H   0  0  0  0  0  0  0  0  0  0  0  0
  141.6601   75.6202  216.6002 H   0  0  0  0  0  0  0  0  0  0  0  0
  140.2501   76.7125  216.9769 H   0  0  0  0  0  0  0  0  0  0  0  0
  143.3534   79.4292  218.8081 H   0  0  0  0  0  0  0  0  0  0  0  0
  142.8060   80.5540  216.3340 H   0  0  0  0  0  0  0  0  0  0  0  0
  143.9650   81.0020  217.4720 H   0  0  0  0  0  0  0  0  0  0  0  0
  142.4230   81.7120  217.5150 H   0  0  0  0  0  0  0  0  0  0  0  0
  140.6006   80.6200  218.5447 H   0  0  0  0  0  0  0  0  0  0  0  0
  142.8505   81.5967  219.9944 H   0  0  0  0  0  0  0  0  0  0  0  0
  141.1997   82.1302  220.2595 H   0  0  0  0  0  0  0  0  0  0  0  0
  142.7751   81.9451  222.8368 H   0  0  0  0  0  0  0  0  0  0  0  0
  142.5805   80.4473  224.8463 H   0  0  0  0  0  0  0  0  0  0  0  0
  141.5240   78.1875  224.6239 H   0  0  0  0  0  0  0  0  0  0  0  0
  140.6562   77.4204  222.3951 H   0  0  0  0  0  0  0  0  0  0  0  0
  141.1692   78.0357  219.6445 H   0  0  0  0  0  0  0  0  0  0  0  0
  139.6875   78.9269  219.9463 H   0  0  0  0  0  0  0  0  0  0  0  0
  144.0876   76.8505  218.2785 H   0  0  0  0  0  0  0  0  0  0  0  0
  143.1434   77.4836  219.6932 H   0  0  0  0  0  0  0  0  0  0  0  0
  143.2474   74.6490  218.5886 H   0  0  0  0  0  0  0  0  0  0  0  0
  143.5830   75.2229  220.2540 H   0  0  0  0  0  0  0  0  0  0  0  0
  1  2  1  0
  2  3  1  0
  3  4  1  0
  3  5  2  0
  5  6  1  0
  6  7  2  0
  7  8  1  0
  8  9  2  0
  9 10  1  0
 10 11  2  0
  5 12  1  0
 12 13  1  0
 13 14  1  0
 14 15  1  0
 15 16  1  0
 16 17  2  0
 16 18  1  0
 18 19  1  0
 18 20  1  0
 20 21  1  0
 21 22  1  0
 22 23  2  0
 23 24  1  0
 24 25  2  0
 25 26  1  0
 26 27  2  0
 27 28  1  0
 15 29  1  0
 29 30  1  0
 11  6  1  0
 30 12  1  0
 28 20  1  0
 27 22  1  0
  1 31  1  0
  1 32  1  0
  1 33  1  0
  2 34  1  0
  2 35  1  0
  4 36  1  0
  7 37  1  0
  8 38  1  0
  9 39  1  0
 10 40  1  0
 11 41  1  0
 12 42  1  0
 13 43  1  0
 13 44  1  0
 14 45  1  0
 14 46  1  0
 18 47  1  1
 19 48  1  0
 19 49  1  0
 19 50  1  0
 20 51  1  0
 21 52  1  0
 21 53  1  0
 23 54  1  0
 24 55  1  0
 25 56  1  0
 26 57  1  0
 28 58  1  0
 28 59  1  0
 29 60  1  0
 29 61  1  0
 30 62  1  0
 30 63  1  0
M  CHG  2   5   1  19   1
M  END
>  <meeko>  (14) 
{"free_energy": -7.61, "intermolecular_energy": -10.0, "internal_energy": -2.03, "cluster_size": 15, "cluster_id": 1, "rank_in_cluster": 10}

$$$$

     RDKit          3D

 63 66  0  0  0  0  0  0  0  0999 V2000
  140.3420   71.8070  223.5520 C   0  0  0  0  0  0  0  0  0  0  0  0
  139.6770   72.2350  222.2440 C   0  0  0  0  0  0  0  0  0  0  0  0
  140.2830   73.4980  221.6580 C   0  0  0  0  0  0  0  0  0  0  0  0
  139.9800   74.7060  222.3080 O   0  0  0  0  0  0  0  0  0  0  0  0
  141.0720   73.4750  220.5970 N   0  0  0  0  0  0  0  0  0  0  0  0
  141.7780   72.2590  220.2760 C   0  0  0  0  0  0  0  0  0  0  0  0
  143.0690   72.0330  220.7800 C   0  0  0  0  0  0  0  0  0  0  0  0
  143.7460   70.8500  220.4680 C   0  0  0  0  0  0  0  0  0  0  0  0
  143.1360   69.8850  219.6600 C   0  0  0  0  0  0  0  0  0  0  0  0
  141.8470   70.1010  219.1640 C   0  0  0  0  0  0  0  0  0  0  0  0
  141.1670   71.2850  219.4710 C   0  0  0  0  0  0  0  0  0  0  0  0
  141.3550   74.6950  219.7890 C   0  0  0  0  0  0  0  0  0  0  0  0
  140.6470   74.7020  218.4100 C   0  0  0  0  0  0  0  0  0  0  0  0
  141.2890   75.6790  217.3970 C   0  0  0  0  0  0  0  0  0  0  0  0
  142.1380   76.6980  218.0400 N   0  0  0  0  0  0  0  0  0  0  0  0
  142.1810   78.0290  217.4780 C   0  0  0  0  0  0  0  0  0  0  0  0
  141.8340   78.2060  216.2780 O   0  0  0  0  0  0  0  0  0  0  0  0
  142.5660   79.2310  218.3250 C   0  0  1  0  0  0  0  0  0  0  0  0
  143.0120   80.3570  217.4830 N   0  0  0  0  0  0  0  0  0  0  0  0
  141.3880   79.6170  219.2750 C   0  0  0  0  0  0  0  0  0  0  0  0
  141.6990   80.8320  220.1910 C   0  0  0  0  0  0  0  0  0  0  0  0
  141.7940   80.2360  221.5430 C   0  0  0  0  0  0  0  0  0  0  0  0
  142.1950   80.8820  222.7140 C   0  0  0  0  0  0  0  0  0  0  0  0
  142.1960   80.1580  223.9170 C   0  0  0  0  0  0  0  0  0  0  0  0
  141.7920   78.8110  223.9300 C   0  0  0  0  0  0  0  0  0  0  0  0
  141.3850   78.1840  222.7420 C   0  0  0  0  0  0  0  0  0  0  0  0
  141.3980   78.9210  221.5560 C   0  0  0  0  0  0  0  0  0  0  0  0
  140.9780   78.4530  220.2140 C   0  0  0  0  0  0  0  0  0  0  0  0
  143.1220   76.3050  219.0680 C   0  0  0  0  0  0  0  0  0  0  0  0
  142.8640   74.8900  219.5960 C   0  0  0  0  0  0  0  0  0  0  0  0
  139.7552   72.1846  224.4024 H   0  0  0  0  0  0  0  0  0  0  0  0
  140.3886   70.7089  223.5975 H   0  0  0  0  0  0  0  0  0  0  0  0
  141.3607   72.2194  223.5975 H   0  0  0  0  0  0  0  0  0  0  0  0
  139.7863   71.4211  221.5121 H   0  0  0  0  0  0  0  0  0  0  0  0
  138.6207   72.4479  222.4652 H   0  0  0  0  0  0  0  0  0  0  0  0
  139.3450   74.7920  223.0920 H   0  0  0  0  0  0  0  0  0  0  0  0
  143.5483   72.7875  221.4210 H   0  0  0  0  0  0  0  0  0  0  0  0
  144.7598   70.6780  220.8586 H   0  0  0  0  0  0  0  0  0  0  0  0
  143.6708   68.9556  219.4147 H   0  0  0  0  0  0  0  0  0  0  0  0
  141.3668   69.3396  218.5318 H   0  0  0  0  0  0  0  0  0  0  0  0
  140.1523   71.4525  219.0809 H   0  0  0  0  0  0  0  0  0  0  0  0
  140.9427   75.5348  220.3676 H   0  0  0  0  0  0  0  0  0  0  0  0
  140.6900   73.6861  217.9904 H   0  0  0  0  0  0  0  0  0  0  0  0
  139.6131   75.0386  218.5765 H   0  0  0  0  0  0  0  0  0  0  0  0
  141.9068   75.1001  216.6947 H   0  0  0  0  0  0  0  0  0  0  0  0
  140.4712   76.2070  216.8847 H   0  0  0  0  0  0  0  0  0  0  0  0
  143.4248   78.9634  218.9580 H   0  0  0  0  0  0  0  0  0  0  0  0
  142.4010   81.1880  217.6610 H   0  0  0  0  0  0  0  0  0  0  0  0
  142.9260   80.1180  216.4700 H   0  0  0  0  0  0  0  0  0  0  0  0
  144.0020   80.6230  217.6830 H   0  0  0  0  0  0  0  0  0  0  0  0
  140.5729   79.8715  218.5816 H   0  0  0  0  0  0  0  0  0  0  0  0
  142.6488   81.3069  219.9039 H   0  0  0  0  0  0  0  0  0  0  0  0
  140.9362   81.6219  220.1256 H   0  0  0  0  0  0  0  0  0  0  0  0
  142.5041   81.9375  222.6945 H   0  0  0  0  0  0  0  0  0  0  0  0
  142.5133   80.6452  224.8508 H   0  0  0  0  0  0  0  0  0  0  0  0
  141.7950   78.2469  224.8743 H   0  0  0  0  0  0  0  0  0  0  0  0
  141.0620   77.1325  222.7452 H   0  0  0  0  0  0  0  0  0  0  0  0
  141.5015   77.5251  219.9404 H   0  0  0  0  0  0  0  0  0  0  0  0
  139.9044   78.2193  220.1603 H   0  0  0  0  0  0  0  0  0  0  0  0
  144.1296   76.3420  218.6282 H   0  0  0  0  0  0  0  0  0  0  0  0
  143.0310   77.0050  219.9116 H   0  0  0  0  0  0  0  0  0  0  0  0
  143.2414   74.1522  218.8727 H   0  0  0  0  0  0  0  0  0  0  0  0
  143.3818   74.7523  220.5567 H   0  0  0  0  0  0  0  0  0  0  0  0
  1  2  1  0
  2  3  1  0
  3  4  1  0
  3  5  2  0
  5  6  1  0
  6  7  2  0
  7  8  1  0
  8  9  2  0
  9 10  1  0
 10 11  2  0
  5 12  1  0
 12 13  1  0
 13 14  1  0
 14 15  1  0
 15 16  1  0
 16 17  2  0
 16 18  1  0
 18 19  1  0
 18 20  1  0
 20 21  1  0
 21 22  1  0
 22 23  2  0
 23 24  1  0
 24 25  2  0
 25 26  1  0
 26 27  2  0
 27 28  1  0
 15 29  1  0
 29 30  1  0
 11  6  1  0
 30 12  1  0
 28 20  1  0
 27 22  1  0
  1 31  1  0
  1 32  1  0
  1 33  1  0
  2 34  1  0
  2 35  1  0
  4 36  1  0
  7 37  1  0
  8 38  1  0
  9 39  1  0
 10 40  1  0
 11 41  1  0
 12 42  1  0
 13 43  1  0
 13 44  1  0
 14 45  1  0
 14 46  1  0
 18 47  1  1
 19 48  1  0
 19 49  1  0
 19 50  1  0
 20 51  1  0
 21 52  1  0
 21 53  1  0
 23 54  1  0
 24 55  1  0
 25 56  1  0
 26 57  1  0
 28 58  1  0
 28 59  1  0
 29 60  1  0
 29 61  1  0
 30 62  1  0
 30 63  1  0
M  CHG  2   5   1  19   1
M  END
>  <meeko>  (15) 
{"free_energy": -7.75, "intermolecular_energy": -10.14, "internal_energy": -2.15, "cluster_size": 15, "cluster_id": 1, "rank_in_cluster": 6}

$$$$

     RDKit          3D

 63 66  0  0  0  0  0  0  0  0999 V2000
  138.9280   76.1680  222.3660 C   0  0  0  0  0  0  0  0  0  0  0  0
  138.8770   74.9580  221.4340 C   0  0  0  0  0  0  0  0  0  0  0  0
  140.1260   74.0970  221.5150 C   0  0  0  0  0  0  0  0  0  0  0  0
  140.2960   73.3340  222.6820 O   0  0  0  0  0  0  0  0  0  0  0  0
  141.0110   74.0470  220.5330 N   0  0  0  0  0  0  0  0  0  0  0  0
  141.7550   72.8310  220.3220 C   0  0  0  0  0  0  0  0  0  0  0  0
  143.0520   72.6910  220.8430 C   0  0  0  0  0  0  0  0  0  0  0  0
  143.7660   71.5070  220.6370 C   0  0  0  0  0  0  0  0  0  0  0  0
  143.1880   70.4550  219.9200 C   0  0  0  0  0  0  0  0  0  0  0  0
  141.8930   70.5840  219.4080 C   0  0  0  0  0  0  0  0  0  0  0  0
  141.1760   71.7690  219.6090 C   0  0  0  0  0  0  0  0  0  0  0  0
  141.3570   75.2430  219.7130 C   0  0  0  0  0  0  0  0  0  0  0  0
  140.7540   75.2110  218.2860 C   0  0  0  0  0  0  0  0  0  0  0  0
  141.4720   76.1570  217.2950 C   0  0  0  0  0  0  0  0  0  0  0  0
  142.2750   77.1930  217.9700 N   0  0  0  0  0  0  0  0  0  0  0  0
  142.3640   78.5070  217.3740 C   0  0  0  0  0  0  0  0  0  0  0  0
  142.1080   78.6490  216.1470 O   0  0  0  0  0  0  0  0  0  0  0  0
  142.6890   79.7330  218.2110 C   0  0  1  0  0  0  0  0  0  0  0  0
  143.0610   80.8790  217.3600 N   0  0  0  0  0  0  0  0  0  0  0  0
  141.5030   80.0550  219.1730 C   0  0  0  0  0  0  0  0  0  0  0  0
  141.8210   81.1730  220.2040 C   0  0  0  0  0  0  0  0  0  0  0  0
  141.8780   80.4520  221.4950 C   0  0  0  0  0  0  0  0  0  0  0  0
  142.2700   80.9760  222.7280 C   0  0  0  0  0  0  0  0  0  0  0  0
  142.2340   80.1440  223.8580 C   0  0  0  0  0  0  0  0  0  0  0  0
  141.8010   78.8110  223.7390 C   0  0  0  0  0  0  0  0  0  0  0  0
  141.4040   78.3070  222.4910 C   0  0  0  0  0  0  0  0  0  0  0  0
  141.4540   79.1510  221.3800 C   0  0  0  0  0  0  0  0  0  0  0  0
  141.0500   78.8190  219.9930 C   0  0  0  0  0  0  0  0  0  0  0  0
  143.1780   76.8290  219.0790 C   0  0  0  0  0  0  0  0  0  0  0  0
  142.8770   75.4300  219.6270 C   0  0  0  0  0  0  0  0  0  0  0  0
  138.9136   75.8264  223.4115 H   0  0  0  0  0  0  0  0  0  0  0  0
  139.8509   76.7365  222.1787 H   0  0  0  0  0  0  0  0  0  0  0  0
  138.0562   76.8121  222.1787 H   0  0  0  0  0  0  0  0  0  0  0  0
  138.0075   74.3417  221.7061 H   0  0  0  0  0  0  0  0  0  0  0  0
  138.8034   75.3372  220.4041 H   0  0  0  0  0  0  0  0  0  0  0  0
  139.6030   73.2460  223.4150 H   0  0  0  0  0  0  0  0  0  0  0  0
  143.5064   73.5142  221.4139 H   0  0  0  0  0  0  0  0  0  0  0  0
  144.7843   71.4028  221.0397 H   0  0  0  0  0  0  0  0  0  0  0  0
  143.7525   69.5248  219.7584 H   0  0  0  0  0  0  0  0  0  0  0  0
  141.4380   69.7542  218.8474 H   0  0  0  0  0  0  0  0  0  0  0  0
  140.1567   71.8686  219.2075 H   0  0  0  0  0  0  0  0  0  0  0  0
  140.9052   76.0996  220.2347 H   0  0  0  0  0  0  0  0  0  0  0  0
  140.8246   74.1832  217.9005 H   0  0  0  0  0  0  0  0  0  0  0  0
  139.7119   75.5541  218.3658 H   0  0  0  0  0  0  0  0  0  0  0  0
  142.1378   75.5572  216.6570 H   0  0  0  0  0  0  0  0  0  0  0  0
  140.6962   76.6708  216.7083 H   0  0  0  0  0  0  0  0  0  0  0  0
  143.5692   79.5178  218.8347 H   0  0  0  0  0  0  0  0  0  0  0  0
  144.0620   81.1300  217.5320 H   0  0  0  0  0  0  0  0  0  0  0  0
  142.4840   81.7170  217.5970 H   0  0  0  0  0  0  0  0  0  0  0  0
  142.9410   80.6640  216.3450 H   0  0  0  0  0  0  0  0  0  0  0  0
  140.7073   80.3907  218.4916 H   0  0  0  0  0  0  0  0  0  0  0  0
  142.7855   81.6517  219.9789 H   0  0  0  0  0  0  0  0  0  0  0  0
  141.0758   81.9821  220.1996 H   0  0  0  0  0  0  0  0  0  0  0  0
  142.6010   82.0216  222.8126 H   0  0  0  0  0  0  0  0  0  0  0  0
  142.5449   80.5350  224.8380 H   0  0  0  0  0  0  0  0  0  0  0  0
  141.7735   78.1619  224.6266 H   0  0  0  0  0  0  0  0  0  0  0  0
  141.0601   77.2670  222.3900 H   0  0  0  0  0  0  0  0  0  0  0  0
  141.5586   77.9084  219.6435 H   0  0  0  0  0  0  0  0  0  0  0  0
  139.9729   78.6165  219.8994 H   0  0  0  0  0  0  0  0  0  0  0  0
  144.2156   76.8523  218.7146 H   0  0  0  0  0  0  0  0  0  0  0  0
  143.0265   77.5532  219.8930 H   0  0  0  0  0  0  0  0  0  0  0  0
  143.3044   74.6711  218.9552 H   0  0  0  0  0  0  0  0  0  0  0  0
  143.3219   75.3192  220.6269 H   0  0  0  0  0  0  0  0  0  0  0  0
  1  2  1  0
  2  3  1  0
  3  4  1  0
  3  5  2  0
  5  6  1  0
  6  7  2  0
  7  8  1  0
  8  9  2  0
  9 10  1  0
 10 11  2  0
  5 12  1  0
 12 13  1  0
 13 14  1  0
 14 15  1  0
 15 16  1  0
 16 17  2  0
 16 18  1  0
 18 19  1  0
 18 20  1  0
 20 21  1  0
 21 22  1  0
 22 23  2  0
 23 24  1  0
 24 25  2  0
 25 26  1  0
 26 27  2  0
 27 28  1  0
 15 29  1  0
 29 30  1  0
 11  6  1  0
 30 12  1  0
 28 20  1  0
 27 22  1  0
  1 31  1  0
  1 32  1  0
  1 33  1  0
  2 34  1  0
  2 35  1  0
  4 36  1  0
  7 37  1  0
  8 38  1  0
  9 39  1  0
 10 40  1  0
 11 41  1  0
 12 42  1  0
 13 43  1  0
 13 44  1  0
 14 45  1  0
 14 46  1  0
 18 47  1  1
 19 48  1  0
 19 49  1  0
 19 50  1  0
 20 51  1  0
 21 52  1  0
 21 53  1  0
 23 54  1  0
 24 55  1  0
 25 56  1  0
 26 57  1  0
 28 58  1  0
 28 59  1  0
 29 60  1  0
 29 61  1  0
 30 62  1  0
 30 63  1  0
M  CHG  2   5   1  19   1
M  END
>  <meeko>  (16) 
{"free_energy": -7.58, "intermolecular_energy": -9.97, "internal_energy": -2.24, "cluster_size": 15, "cluster_id": 1, "rank_in_cluster": 12}

$$$$

     RDKit          3D

 63 66  0  0  0  0  0  0  0  0999 V2000
  144.8970   76.3810  214.3330 C   0  0  0  0  0  0  0  0  0  0  0  0
  143.7430   77.1420  214.9830 C   0  0  0  0  0  0  0  0  0  0  0  0
  143.5130   76.7430  216.4300 C   0  0  0  0  0  0  0  0  0  0  0  0
  144.3070   75.6990  216.9330 O   0  0  0  0  0  0  0  0  0  0  0  0
  142.6220   77.3520  217.1960 N   0  0  0  0  0  0  0  0  0  0  0  0
  142.4300   78.7730  217.0540 C   0  0  0  0  0  0  0  0  0  0  0  0
  142.9550   79.6610  218.0070 C   0  0  0  0  0  0  0  0  0  0  0  0
  142.7680   81.0380  217.8600 C   0  0  0  0  0  0  0  0  0  0  0  0
  142.0660   81.5370  216.7580 C   0  0  0  0  0  0  0  0  0  0  0  0
  141.5510   80.6590  215.8000 C   0  0  0  0  0  0  0  0  0  0  0  0
  141.7320   79.2790  215.9450 C   0  0  0  0  0  0  0  0  0  0  0  0
  141.8960   76.6430  218.2880 C   0  0  0  0  0  0  0  0  0  0  0  0
  142.7940   76.2850  219.4990 C   0  0  0  0  0  0  0  0  0  0  0  0
  142.2060   75.1650  220.3890 C   0  0  0  0  0  0  0  0  0  0  0  0
  140.7610   74.9630  220.1790 N   0  0  0  0  0  0  0  0  0  0  0  0
  139.9340   74.5990  221.3070 C   0  0  0  0  0  0  0  0  0  0  0  0
  140.4700   74.0890  222.3280 O   0  0  0  0  0  0  0  0  0  0  0  0
  138.4410   74.8880  221.3170 C   0  0  1  0  0  0  0  0  0  0  0  0
  137.7450   74.0650  222.3240 N   0  0  0  0  0  0  0  0  0  0  0  0
  138.1910   76.4160  221.5080 C   0  0  0  0  0  0  0  0  0  0  0  0
  138.7580   77.2900  220.3550 C   0  0  0  0  0  0  0  0  0  0  0  0
  139.8860   78.0120  220.9850 C   0  0  0  0  0  0  0  0  0  0  0  0
  140.8200   78.8270  220.3420 C   0  0  0  0  0  0  0  0  0  0  0  0
  141.8100   79.4560  221.1120 C   0  0  0  0  0  0  0  0  0  0  0  0
  141.8460   79.2680  222.5060 C   0  0  0  0  0  0  0  0  0  0  0  0
  140.8930   78.4500  223.1320 C   0  0  0  0  0  0  0  0  0  0  0  0
  139.9210   77.8290  222.3460 C   0  0  0  0  0  0  0  0  0  0  0  0
  138.8160   76.9610  222.8180 C   0  0  0  0  0  0  0  0  0  0  0  0
  140.2140   74.8730  218.8110 C   0  0  0  0  0  0  0  0  0  0  0  0
  141.2110   75.3760  217.7610 C   0  0  0  0  0  0  0  0  0  0  0  0
  145.5424   75.9554  215.1155 H   0  0  0  0  0  0  0  0  0  0  0  0
  144.4954   75.5700  213.7077 H   0  0  0  0  0  0  0  0  0  0  0  0
  145.4842   77.0696  213.7077 H   0  0  0  0  0  0  0  0  0  0  0  0
  143.9678   78.2182  214.9471 H   0  0  0  0  0  0  0  0  0  0  0  0
  142.8285   76.8961  214.4233 H   0  0  0  0  0  0  0  0  0  0  0  0
  145.3180   75.7200  216.9830 H   0  0  0  0  0  0  0  0  0  0  0  0
  143.5143   79.2719  218.8706 H   0  0  0  0  0  0  0  0  0  0  0  0
  143.1736   81.7306  218.6122 H   0  0  0  0  0  0  0  0  0  0  0  0
  141.9190   82.6213  216.6451 H   0  0  0  0  0  0  0  0  0  0  0  0
  141.0030   81.0531  214.9315 H   0  0  0  0  0  0  0  0  0  0  0  0
  141.3271   78.5895  215.1895 H   0  0  0  0  0  0  0  0  0  0  0  0
  141.1380   77.3541  218.6483 H   0  0  0  0  0  0  0  0  0  0  0  0
  143.7725   75.9531  219.1216 H   0  0  0  0  0  0  0  0  0  0  0  0
  142.8737   77.1876  220.1226 H   0  0  0  0  0  0  0  0  0  0  0  0
  142.7285   74.2245  220.1602 H   0  0  0  0  0  0  0  0  0  0  0  0
  142.3475   75.4683  221.4369 H   0  0  0  0  0  0  0  0  0  0  0  0
  138.0146   74.6057  220.3431 H   0  0  0  0  0  0  0  0  0  0  0  0
  138.4260   73.4070  222.7680 H   0  0  0  0  0  0  0  0  0  0  0  0
  136.9980   73.4870  221.8760 H   0  0  0  0  0  0  0  0  0  0  0  0
  137.3120   74.6520  223.0720 H   0  0  0  0  0  0  0  0  0  0  0  0
  137.0940   76.4934  221.5310 H   0  0  0  0  0  0  0  0  0  0  0  0
  139.1097   76.6620  219.5231 H   0  0  0  0  0  0  0  0  0  0  0  0
  138.0060   77.9670  219.9235 H   0  0  0  0  0  0  0  0  0  0  0  0
  140.7803   78.9731  219.2525 H   0  0  0  0  0  0  0  0  0  0  0  0
  142.5594   80.0973  220.6250 H   0  0  0  0  0  0  0  0  0  0  0  0
  142.6231   79.7635  223.1065 H   0  0  0  0  0  0  0  0  0  0  0  0
  140.9116   78.3010  224.2217 H   0  0  0  0  0  0  0  0  0  0  0  0
  139.2009   76.1396  223.4402 H   0  0  0  0  0  0  0  0  0  0  0  0
  138.0897   77.4989  223.4451 H   0  0  0  0  0  0  0  0  0  0  0  0
  139.9695   73.8226  218.5944 H   0  0  0  0  0  0  0  0  0  0  0  0
  139.3173   75.5081  218.7606 H   0  0  0  0  0  0  0  0  0  0  0  0
  141.9673   74.6005  217.5695 H   0  0  0  0  0  0  0  0  0  0  0  0
  140.6808   75.6029  216.8243 H   0  0  0  0  0  0  0  0  0  0  0  0
  1  2  1  0
  2  3  1  0
  3  4  1  0
  3  5  2  0
  5  6  1  0
  6  7  2  0
  7  8  1  0
  8  9  2  0
  9 10  1  0
 10 11  2  0
  5 12  1  0
 12 13  1  0
 13 14  1  0
 14 15  1  0
 15 16  1  0
 16 17  2  0
 16 18  1  0
 18 19  1  0
 18 20  1  0
 20 21  1  0
 21 22  1  0
 22 23  2  0
 23 24  1  0
 24 25  2  0
 25 26  1  0
 26 27  2  0
 27 28  1  0
 15 29  1  0
 29 30  1  0
 11  6  1  0
 30 12  1  0
 28 20  1  0
 27 22  1  0
  1 31  1  0
  1 32  1  0
  1 33  1  0
  2 34  1  0
  2 35  1  0
  4 36  1  0
  7 37  1  0
  8 38  1  0
  9 39  1  0
 10 40  1  0
 11 41  1  0
 12 42  1  0
 13 43  1  0
 13 44  1  0
 14 45  1  0
 14 46  1  0
 18 47  1  6
 19 48  1  0
 19 49  1  0
 19 50  1  0
 20 51  1  0
 21 52  1  0
 21 53  1  0
 23 54  1  0
 24 55  1  0
 25 56  1  0
 26 57  1  0
 28 58  1  0
 28 59  1  0
 29 60  1  0
 29 61  1  0
 30 62  1  0
 30 63  1  0
M  CHG  2   5   1  19   1
M  END
>  <meeko>  (17) 
{"free_energy": -6.34, "intermolecular_energy": -8.72, "internal_energy": -2.94, "cluster_size": 4, "cluster_id": 3, "rank_in_cluster": 4}

$$$$

     RDKit          3D

 63 66  0  0  0  0  0  0  0  0999 V2000
  138.3880   76.0510  221.5780 C   0  0  0  0  0  0  0  0  0  0  0  0
  139.8010   75.8210  222.1130 C   0  0  0  0  0  0  0  0  0  0  0  0
  140.3880   74.4900  221.6790 C   0  0  0  0  0  0  0  0  0  0  0  0
  140.0140   73.3590  222.4230 O   0  0  0  0  0  0  0  0  0  0  0  0
  141.2030   74.3850  220.6420 N   0  0  0  0  0  0  0  0  0  0  0  0
  141.9310   73.1560  220.4450 C   0  0  0  0  0  0  0  0  0  0  0  0
  141.3070   72.0480  219.8480 C   0  0  0  0  0  0  0  0  0  0  0  0
  142.0200   70.8610  219.6560 C   0  0  0  0  0  0  0  0  0  0  0  0
  143.3590   70.7760  220.0510 C   0  0  0  0  0  0  0  0  0  0  0  0
  143.9880   71.8790  220.6360 C   0  0  0  0  0  0  0  0  0  0  0  0
  143.2770   73.0680  220.8330 C   0  0  0  0  0  0  0  0  0  0  0  0
  141.4910   75.5330  219.7360 C   0  0  0  0  0  0  0  0  0  0  0  0
  140.8670   75.3810  218.3260 C   0  0  0  0  0  0  0  0  0  0  0  0
  141.5340   76.2830  217.2610 C   0  0  0  0  0  0  0  0  0  0  0  0
  142.3070   77.3920  217.8490 N   0  0  0  0  0  0  0  0  0  0  0  0
  142.3370   78.6640  217.1640 C   0  0  0  0  0  0  0  0  0  0  0  0
  142.0560   78.7130  215.9350 O   0  0  0  0  0  0  0  0  0  0  0  0
  142.6280   79.9560  217.9100 C   0  0  1  0  0  0  0  0  0  0  0  0
  142.9480   81.0530  216.9770 N   0  0  0  0  0  0  0  0  0  0  0  0
  141.4430   80.3020  218.8650 C   0  0  0  0  0  0  0  0  0  0  0  0
  141.7660   81.4390  219.8730 C   0  0  0  0  0  0  0  0  0  0  0  0
  141.8200   80.7430  221.1790 C   0  0  0  0  0  0  0  0  0  0  0  0
  142.2140   81.2910  222.4020 C   0  0  0  0  0  0  0  0  0  0  0  0
  142.1750   80.4810  223.5480 C   0  0  0  0  0  0  0  0  0  0  0  0
  141.7360   79.1480  223.4550 C   0  0  0  0  0  0  0  0  0  0  0  0
  141.3370   78.6210  222.2170 C   0  0  0  0  0  0  0  0  0  0  0  0
  141.3910   79.4420  221.0890 C   0  0  0  0  0  0  0  0  0  0  0  0
  140.9850   79.0840  219.7100 C   0  0  0  0  0  0  0  0  0  0  0  0
  143.2400   77.1390  218.9630 C   0  0  0  0  0  0  0  0  0  0  0  0
  143.0010   75.7700  219.6100 C   0  0  0  0  0  0  0  0  0  0  0  0
  137.6907   76.1645  222.4211 H   0  0  0  0  0  0  0  0  0  0  0  0
  138.3725   76.9635  220.9639 H   0  0  0  0  0  0  0  0  0  0  0  0
  138.0839   75.1905  220.9639 H   0  0  0  0  0  0  0  0  0  0  0  0
  140.4513   76.6281  221.7448 H   0  0  0  0  0  0  0  0  0  0  0  0
  139.7406   75.8125  223.2113 H   0  0  0  0  0  0  0  0  0  0  0  0
  139.2660   73.3430  223.1050 H   0  0  0  0  0  0  0  0  0  0  0  0
  140.2557   72.1145  219.5311 H   0  0  0  0  0  0  0  0  0  0  0  0
  141.5274   69.9929  219.1938 H   0  0  0  0  0  0  0  0  0  0  0  0
  143.9177   69.8404  219.9012 H   0  0  0  0  0  0  0  0  0  0  0  0
  145.0426   71.8121  220.9416 H   0  0  0  0  0  0  0  0  0  0  0  0
  143.7738   73.9351  221.2927 H   0  0  0  0  0  0  0  0  0  0  0  0
  141.0155   76.4063  220.2063 H   0  0  0  0  0  0  0  0  0  0  0  0
  140.9703   74.3325  218.0097 H   0  0  0  0  0  0  0  0  0  0  0  0
  139.8139   75.6897  218.4009 H   0  0  0  0  0  0  0  0  0  0  0  0
  142.2125   75.6658  216.6539 H   0  0  0  0  0  0  0  0  0  0  0  0
  140.7303   76.7266  216.6550 H   0  0  0  0  0  0  0  0  0  0  0  0
  143.5231   79.8153  218.5338 H   0  0  0  0  0  0  0  0  0  0  0  0
  142.9410   80.6880  215.9960 H   0  0  0  0  0  0  0  0  0  0  0  0
  143.9040   81.4290  217.1640 H   0  0  0  0  0  0  0  0  0  0  0  0
  142.2590   81.8350  217.0460 H   0  0  0  0  0  0  0  0  0  0  0  0
  140.6484   80.6269  218.1773 H   0  0  0  0  0  0  0  0  0  0  0  0
  142.7325   81.9088  219.6383 H   0  0  0  0  0  0  0  0  0  0  0  0
  141.0246   82.2513  219.8524 H   0  0  0  0  0  0  0  0  0  0  0  0
  142.5484   82.3370  222.4659 H   0  0  0  0  0  0  0  0  0  0  0  0
  142.4883   80.8895  224.5201 H   0  0  0  0  0  0  0  0  0  0  0  0
  141.7053   78.5167  224.3553 H   0  0  0  0  0  0  0  0  0  0  0  0
  140.9883   77.5808  222.1369 H   0  0  0  0  0  0  0  0  0  0  0  0
  141.4896   78.1644  219.3786 H   0  0  0  0  0  0  0  0  0  0  0  0
  139.9070   78.8840  219.6209 H   0  0  0  0  0  0  0  0  0  0  0  0
  144.2702   77.1758  218.5792 H   0  0  0  0  0  0  0  0  0  0  0  0
  143.0738   77.9112  219.7285 H   0  0  0  0  0  0  0  0  0  0  0  0
  143.4466   74.9833  218.9834 H   0  0  0  0  0  0  0  0  0  0  0  0
  143.4653   75.7444  220.6069 H   0  0  0  0  0  0  0  0  0  0  0  0
  1  2  1  0
  2  3  1  0
  3  4  1  0
  3  5  2  0
  5  6  1  0
  6  7  2  0
  7  8  1  0
  8  9  2  0
  9 10  1  0
 10 11  2  0
  5 12  1  0
 12 13  1  0
 13 14  1  0
 14 15  1  0
 15 16  1  0
 16 17  2  0
 16 18  1  0
 18 19  1  0
 18 20  1  0
 20 21  1  0
 21 22  1  0
 22 23  2  0
 23 24  1  0
 24 25  2  0
 25 26  1  0
 26 27  2  0
 27 28  1  0
 15 29  1  0
 29 30  1  0
 11  6  1  0
 30 12  1  0
 28 20  1  0
 27 22  1  0
  1 31  1  0
  1 32  1  0
  1 33  1  0
  2 34  1  0
  2 35  1  0
  4 36  1  0
  7 37  1  0
  8 38  1  0
  9 39  1  0
 10 40  1  0
 11 41  1  0
 12 42  1  0
 13 43  1  0
 13 44  1  0
 14 45  1  0
 14 46  1  0
 18 47  1  1
 19 48  1  0
 19 49  1  0
 19 50  1  0
 20 51  1  0
 21 52  1  0
 21 53  1  0
 23 54  1  0
 24 55  1  0
 25 56  1  0
 26 57  1  0
 28 58  1  0
 28 59  1  0
 29 60  1  0
 29 61  1  0
 30 62  1  0
 30 63  1  0
M  CHG  2   5   1  19   1
M  END
>  <meeko>  (18) 
{"free_energy": -7.59, "intermolecular_energy": -9.98, "internal_energy": -2.29, "cluster_size": 15, "cluster_id": 1, "rank_in_cluster": 11}

$$$$

     RDKit          3D

 63 66  0  0  0  0  0  0  0  0999 V2000
  138.2700   75.8040  221.3520 C   0  0  0  0  0  0  0  0  0  0  0  0
  139.6060   75.6230  222.0720 C   0  0  0  0  0  0  0  0  0  0  0  0
  140.3040   74.3250  221.7040 C   0  0  0  0  0  0  0  0  0  0  0  0
  140.0310   73.2090  222.5120 O   0  0  0  0  0  0  0  0  0  0  0  0
  141.1190   74.2330  220.6670 N   0  0  0  0  0  0  0  0  0  0  0  0
  141.8480   73.0070  220.4560 C   0  0  0  0  0  0  0  0  0  0  0  0
  141.2310   71.9110  219.8310 C   0  0  0  0  0  0  0  0  0  0  0  0
  141.9450   70.7270  219.6260 C   0  0  0  0  0  0  0  0  0  0  0  0
  143.2790   70.6330  220.0350 C   0  0  0  0  0  0  0  0  0  0  0  0
  143.9020   71.7250  220.6480 C   0  0  0  0  0  0  0  0  0  0  0  0
  143.1900   72.9100  220.8580 C   0  0  0  0  0  0  0  0  0  0  0  0
  141.4070   75.3920  219.7750 C   0  0  0  0  0  0  0  0  0  0  0  0
  140.7370   75.2830  218.3820 C   0  0  0  0  0  0  0  0  0  0  0  0
  141.3920   76.1900  217.3140 C   0  0  0  0  0  0  0  0  0  0  0  0
  142.2090   77.2690  217.9000 N   0  0  0  0  0  0  0  0  0  0  0  0
  142.2480   78.5540  217.2390 C   0  0  0  0  0  0  0  0  0  0  0  0
  141.9320   78.6330  216.0200 O   0  0  0  0  0  0  0  0  0  0  0  0
  142.5920   79.8230  218.0010 C   0  0  1  0  0  0  0  0  0  0  0  0
  142.9450   80.9200  217.0810 N   0  0  0  0  0  0  0  0  0  0  0  0
  141.4270   80.1990  218.9690 C   0  0  0  0  0  0  0  0  0  0  0  0
  141.8100   81.2840  220.0130 C   0  0  0  0  0  0  0  0  0  0  0  0
  141.8280   80.5440  221.2960 C   0  0  0  0  0  0  0  0  0  0  0  0
  142.2510   81.0300  222.5340 C   0  0  0  0  0  0  0  0  0  0  0  0
  142.1690   80.1870  223.6540 C   0  0  0  0  0  0  0  0  0  0  0  0
  141.6620   78.8820  223.5190 C   0  0  0  0  0  0  0  0  0  0  0  0
  141.2340   78.4170  222.2650 C   0  0  0  0  0  0  0  0  0  0  0  0
  141.3310   79.2710  221.1640 C   0  0  0  0  0  0  0  0  0  0  0  0
  140.9060   78.9800  219.7740 C   0  0  0  0  0  0  0  0  0  0  0  0
  143.1690   76.9720  218.9800 C   0  0  0  0  0  0  0  0  0  0  0  0
  142.9170   75.5970  219.6080 C   0  0  0  0  0  0  0  0  0  0  0  0
  137.4654   75.9130  222.0941 H   0  0  0  0  0  0  0  0  0  0  0  0
  138.3121   76.7046  220.7219 H   0  0  0  0  0  0  0  0  0  0  0  0
  138.0710   74.9246  220.7219 H   0  0  0  0  0  0  0  0  0  0  0  0
  140.2645   76.4632  221.8067 H   0  0  0  0  0  0  0  0  0  0  0  0
  139.3978   75.5916  223.1517 H   0  0  0  0  0  0  0  0  0  0  0  0
  139.2430   73.1370  223.1440 H   0  0  0  0  0  0  0  0  0  0  0  0
  140.1839   71.9845  219.5022 H   0  0  0  0  0  0  0  0  0  0  0  0
  141.4570   69.8680  219.1423 H   0  0  0  0  0  0  0  0  0  0  0  0
  143.8387   69.6997  219.8745 H   0  0  0  0  0  0  0  0  0  0  0  0
  144.9527   71.6516  220.9651 H   0  0  0  0  0  0  0  0  0  0  0  0
  143.6822   73.7681  221.3391 H   0  0  0  0  0  0  0  0  0  0  0  0
  140.9668   76.2665  220.2764 H   0  0  0  0  0  0  0  0  0  0  0  0
  140.8055   74.2389  218.0426 H   0  0  0  0  0  0  0  0  0  0  0  0
  139.6945   75.6150  218.4956 H   0  0  0  0  0  0  0  0  0  0  0  0
  142.0368   75.5695  216.6742 H   0  0  0  0  0  0  0  0  0  0  0  0
  140.5812   76.6639  216.7412 H   0  0  0  0  0  0  0  0  0  0  0  0
  143.4854   79.6405  218.6162 H   0  0  0  0  0  0  0  0  0  0  0  0
  142.9460   80.5630  216.0970 H   0  0  0  0  0  0  0  0  0  0  0  0
  143.9060   81.2780  217.2840 H   0  0  0  0  0  0  0  0  0  0  0  0
  142.2700   81.7150  217.1460 H   0  0  0  0  0  0  0  0  0  0  0  0
  140.6501   80.5875  218.2941 H   0  0  0  0  0  0  0  0  0  0  0  0
  142.7998   81.7097  219.7915 H   0  0  0  0  0  0  0  0  0  0  0  0
  141.1122   82.1343  220.0205 H   0  0  0  0  0  0  0  0  0  0  0  0
  142.6412   82.0539  222.6305 H   0  0  0  0  0  0  0  0  0  0  0  0
  142.5018   80.5478  224.6384 H   0  0  0  0  0  0  0  0  0  0  0  0
  141.6006   78.2238  224.3982 H   0  0  0  0  0  0  0  0  0  0  0  0
  140.8302   77.4000  222.1520 H   0  0  0  0  0  0  0  0  0  0  0  0
  141.3615   78.0466  219.4116 H   0  0  0  0  0  0  0  0  0  0  0  0
  139.8190   78.8398  219.6805 H   0  0  0  0  0  0  0  0  0  0  0  0
  144.1877   76.9921  218.5655 H   0  0  0  0  0  0  0  0  0  0  0  0
  143.0445   77.7327  219.7648 H   0  0  0  0  0  0  0  0  0  0  0  0
  143.3253   74.8126  218.9537 H   0  0  0  0  0  0  0  0  0  0  0  0
  143.4097   75.5417  220.5899 H   0  0  0  0  0  0  0  0  0  0  0  0
  1  2  1  0
  2  3  1  0
  3  4  1  0
  3  5  2  0
  5  6  1  0
  6  7  2  0
  7  8  1  0
  8  9  2  0
  9 10  1  0
 10 11  2  0
  5 12  1  0
 12 13  1  0
 13 14  1  0
 14 15  1  0
 15 16  1  0
 16 17  2  0
 16 18  1  0
 18 19  1  0
 18 20  1  0
 20 21  1  0
 21 22  1  0
 22 23  2  0
 23 24  1  0
 24 25  2  0
 25 26  1  0
 26 27  2  0
 27 28  1  0
 15 29  1  0
 29 30  1  0
 11  6  1  0
 30 12  1  0
 28 20  1  0
 27 22  1  0
  1 31  1  0
  1 32  1  0
  1 33  1  0
  2 34  1  0
  2 35  1  0
  4 36  1  0
  7 37  1  0
  8 38  1  0
  9 39  1  0
 10 40  1  0
 11 41  1  0
 12 42  1  0
 13 43  1  0
 13 44  1  0
 14 45  1  0
 14 46  1  0
 18 47  1  1
 19 48  1  0
 19 49  1  0
 19 50  1  0
 20 51  1  0
 21 52  1  0
 21 53  1  0
 23 54  1  0
 24 55  1  0
 25 56  1  0
 26 57  1  0
 28 58  1  0
 28 59  1  0
 29 60  1  0
 29 61  1  0
 30 62  1  0
 30 63  1  0
M  CHG  2   5   1  19   1
M  END
>  <meeko>  (19) 
{"free_energy": -7.54, "intermolecular_energy": -9.92, "internal_energy": -2.35, "cluster_size": 15, "cluster_id": 1, "rank_in_cluster": 14}

$$$$

     RDKit          3D

 63 66  0  0  0  0  0  0  0  0999 V2000
  144.8600   76.3600  214.2860 C   0  0  0  0  0  0  0  0  0  0  0  0
  143.7010   77.1110  214.9400 C   0  0  0  0  0  0  0  0  0  0  0  0
  143.4660   76.6950  216.3820 C   0  0  0  0  0  0  0  0  0  0  0  0
  144.2330   75.6220  216.8640 O   0  0  0  0  0  0  0  0  0  0  0  0
  142.5940   77.3150  217.1610 N   0  0  0  0  0  0  0  0  0  0  0  0
  142.4190   78.7390  217.0220 C   0  0  0  0  0  0  0  0  0  0  0  0
  142.9300   79.6160  217.9920 C   0  0  0  0  0  0  0  0  0  0  0  0
  142.7600   80.9960  217.8490 C   0  0  0  0  0  0  0  0  0  0  0  0
  142.0880   81.5080  216.7340 C   0  0  0  0  0  0  0  0  0  0  0  0
  141.5860   80.6400  215.7600 C   0  0  0  0  0  0  0  0  0  0  0  0
  141.7520   79.2580  215.9010 C   0  0  0  0  0  0  0  0  0  0  0  0
  141.8740   76.6150  218.2620 C   0  0  0  0  0  0  0  0  0  0  0  0
  142.7750   76.2850  219.4800 C   0  0  0  0  0  0  0  0  0  0  0  0
  142.1980   75.1720  220.3850 C   0  0  0  0  0  0  0  0  0  0  0  0
  140.7550   74.9520  220.1770 N   0  0  0  0  0  0  0  0  0  0  0  0
  139.9310   74.5960  221.3100 C   0  0  0  0  0  0  0  0  0  0  0  0
  140.4710   74.1060  222.3390 O   0  0  0  0  0  0  0  0  0  0  0  0
  138.4360   74.8690  221.3150 C   0  0  1  0  0  0  0  0  0  0  0  0
  137.7450   74.0460  222.3260 N   0  0  0  0  0  0  0  0  0  0  0  0
  138.1700   76.3960  221.4950 C   0  0  0  0  0  0  0  0  0  0  0  0
  138.7300   77.2680  220.3380 C   0  0  0  0  0  0  0  0  0  0  0  0
  139.8500   78.0060  220.9660 C   0  0  0  0  0  0  0  0  0  0  0  0
  140.7770   78.8260  220.3200 C   0  0  0  0  0  0  0  0  0  0  0  0
  141.7590   79.4700  221.0890 C   0  0  0  0  0  0  0  0  0  0  0  0
  141.7930   79.2920  222.4840 C   0  0  0  0  0  0  0  0  0  0  0  0
  140.8450   78.4690  223.1130 C   0  0  0  0  0  0  0  0  0  0  0  0
  139.8820   77.8320  222.3280 C   0  0  0  0  0  0  0  0  0  0  0  0
  138.7850   76.9560  222.8040 C   0  0  0  0  0  0  0  0  0  0  0  0
  140.2100   74.8350  218.8100 C   0  0  0  0  0  0  0  0  0  0  0  0
  141.2030   75.3330  217.7540 C   0  0  0  0  0  0  0  0  0  0  0  0
  145.5106   75.9384  215.0664 H   0  0  0  0  0  0  0  0  0  0  0  0
  144.4635   75.5467  213.6604 H   0  0  0  0  0  0  0  0  0  0  0  0
  145.4403   77.0542  213.6604 H   0  0  0  0  0  0  0  0  0  0  0  0
  143.9232   78.1881  214.9172 H   0  0  0  0  0  0  0  0  0  0  0  0
  142.7895   76.8691  214.3738 H   0  0  0  0  0  0  0  0  0  0  0  0
  145.2170   75.6790  217.0970 H   0  0  0  0  0  0  0  0  0  0  0  0
  143.4651   79.2164  218.8661 H   0  0  0  0  0  0  0  0  0  0  0  0
  143.1551   81.6803  218.6142 H   0  0  0  0  0  0  0  0  0  0  0  0
  141.9545   82.5943  216.6236 H   0  0  0  0  0  0  0  0  0  0  0  0
  141.0602   81.0438  214.8822 H   0  0  0  0  0  0  0  0  0  0  0  0
  141.3591   78.5767  215.1320 H   0  0  0  0  0  0  0  0  0  0  0  0
  141.1076   77.3231  218.6100 H   0  0  0  0  0  0  0  0  0  0  0  0
  143.7577   75.9586  219.1089 H   0  0  0  0  0  0  0  0  0  0  0  0
  142.8441   77.1975  220.0904 H   0  0  0  0  0  0  0  0  0  0  0  0
  142.7304   74.2338  220.1698 H   0  0  0  0  0  0  0  0  0  0  0  0
  142.3355   75.4915  221.4285 H   0  0  0  0  0  0  0  0  0  0  0  0
  138.0152   74.5748  220.3422 H   0  0  0  0  0  0  0  0  0  0  0  0
  137.3330   74.6700  223.0580 H   0  0  0  0  0  0  0  0  0  0  0  0
  138.4190   73.4070  222.8040 H   0  0  0  0  0  0  0  0  0  0  0  0
  136.9800   73.4740  221.9050 H   0  0  0  0  0  0  0  0  0  0  0  0
  137.0722   76.4624  221.5142 H   0  0  0  0  0  0  0  0  0  0  0  0
  139.0898   76.6384  219.5109 H   0  0  0  0  0  0  0  0  0  0  0  0
  137.9720   77.9344  219.9007 H   0  0  0  0  0  0  0  0  0  0  0  0
  140.7386   78.9648  219.2295 H   0  0  0  0  0  0  0  0  0  0  0  0
  142.5035   80.1152  220.5997 H   0  0  0  0  0  0  0  0  0  0  0  0
  142.5638   79.7986  223.0833 H   0  0  0  0  0  0  0  0  0  0  0  0
  140.8608   78.3288  224.2039 H   0  0  0  0  0  0  0  0  0  0  0  0
  139.1767   76.1430  223.4329 H   0  0  0  0  0  0  0  0  0  0  0  0
  138.0516   77.4899  223.4261 H   0  0  0  0  0  0  0  0  0  0  0  0
  139.9773   73.7788  218.6092 H   0  0  0  0  0  0  0  0  0  0  0  0
  139.3061   75.4589  218.7489 H   0  0  0  0  0  0  0  0  0  0  0  0
  141.9678   74.5628  217.5752 H   0  0  0  0  0  0  0  0  0  0  0  0
  140.6713   75.5403  216.8136 H   0  0  0  0  0  0  0  0  0  0  0  0
  1  2  1  0
  2  3  1  0
  3  4  1  0
  3  5  2  0
  5  6  1  0
  6  7  2  0
  7  8  1  0
  8  9  2  0
  9 10  1  0
 10 11  2  0
  5 12  1  0
 12 13  1  0
 13 14  1  0
 14 15  1  0
 15 16  1  0
 16 17  2  0
 16 18  1  0
 18 19  1  0
 18 20  1  0
 20 21  1  0
 21 22  1  0
 22 23  2  0
 23 24  1  0
 24 25  2  0
 25 26  1  0
 26 27  2  0
 27 28  1  0
 15 29  1  0
 29 30  1  0
 11  6  1  0
 30 12  1  0
 28 20  1  0
 27 22  1  0
  1 31  1  0
  1 32  1  0
  1 33  1  0
  2 34  1  0
  2 35  1  0
  4 36  1  0
  7 37  1  0
  8 38  1  0
  9 39  1  0
 10 40  1  0
 11 41  1  0
 12 42  1  0
 13 43  1  0
 13 44  1  0
 14 45  1  0
 14 46  1  0
 18 47  1  6
 19 48  1  0
 19 49  1  0
 19 50  1  0
 20 51  1  0
 21 52  1  0
 21 53  1  0
 23 54  1  0
 24 55  1  0
 25 56  1  0
 26 57  1  0
 28 58  1  0
 28 59  1  0
 29 60  1  0
 29 61  1  0
 30 62  1  0
 30 63  1  0
M  CHG  2   5   1  19   1
M  END
>  <meeko>  (20) 
{"free_energy": -6.37, "intermolecular_energy": -8.75, "internal_energy": -2.89, "cluster_size": 4, "cluster_id": 3, "rank_in_cluster": 3}

$$$$
