
     RDKit          3D

 44 47  0  0  0  0  0  0  0  0999 V2000
  136.3100   77.1570  223.8160 H   0  0  0  0  0  0  0  0  0  0  0  0
  136.7460   76.3790  223.2720 N   0  0  0  0  0  0  0  0  0  0  0  0
  137.8690   76.5190  222.6370 C   0  0  0  0  0  0  0  0  0  0  0  0
  138.6880   75.4380  222.4700 N   0  0  0  0  0  0  0  0  0  0  0  0
  139.8650   75.5210  221.7920 C   0  0  0  0  0  0  0  0  0  0  0  0
  140.6430   74.4220  221.6500 N   0  0  0  0  0  0  0  0  0  0  0  0
  141.8230   74.4680  220.9810 C   0  0  0  0  0  0  0  0  0  0  0  0
  142.5850   73.3000  220.8660 C   0  0  0  0  0  0  0  0  0  0  0  0
  143.7960   73.3330  220.1820 C   0  0  0  0  0  0  0  0  0  0  0  0
  144.2380   74.5270  219.6190 C   0  0  0  0  0  0  0  0  0  0  0  0
  143.4600   75.6790  219.7470 C   0  0  0  0  0  0  0  0  0  0  0  0
  142.2630   75.6490  220.4220 N   0  0  0  0  0  0  0  0  0  0  0  0
  141.5000   76.7870  220.5460 C   0  0  0  0  0  0  0  0  0  0  0  0
  141.8900   77.8770  220.0400 O   0  0  0  0  0  0  0  0  0  0  0  0
  140.2760   76.7410  221.2390 C   0  0  0  0  0  0  0  0  0  0  0  0
  139.4570   77.8680  221.3990 C   0  0  0  0  0  0  0  0  0  0  0  0
  138.2420   77.7780  222.1030 C   0  0  0  0  0  0  0  0  0  0  0  0
  137.3980   78.9940  222.2720 C   0  0  0  0  0  0  0  0  0  0  0  0
  136.0260   78.8470  222.5050 O   0  0  0  0  0  0  0  0  0  0  0  0
  137.9630   80.1710  222.2140 N   0  0  0  0  0  0  0  0  0  0  0  0
  138.7670   80.8580  223.2320 C   0  0  1  0  0  0  0  0  0  0  0  0
  138.0830   80.7770  224.6060 C   0  0  0  0  0  0  0  0  0  0  0  0
  140.2260   80.4240  223.1790 C   0  0  0  0  0  0  0  0  0  0  0  0
  141.1220   81.1720  222.3910 C   0  0  0  0  0  0  0  0  0  0  0  0
  142.4730   80.8230  222.3210 C   0  0  0  0  0  0  0  0  0  0  0  0
  142.9530   79.7300  223.0430 C   0  0  0  0  0  0  0  0  0  0  0  0
  142.0820   78.9850  223.8400 C   0  0  0  0  0  0  0  0  0  0  0  0
  140.7290   79.3290  223.9160 C   0  0  0  0  0  0  0  0  0  0  0  0
  138.4070   74.5120  222.8670 H   0  0  0  0  0  0  0  0  0  0  0  0
  142.2284   72.3608  221.3140 H   0  0  0  0  0  0  0  0  0  0  0  0
  144.4016   72.4197  220.0865 H   0  0  0  0  0  0  0  0  0  0  0  0
  145.1944   74.5625  219.0767 H   0  0  0  0  0  0  0  0  0  0  0  0
  143.8092   76.6225  219.3021 H   0  0  0  0  0  0  0  0  0  0  0  0
  139.7675   78.8321  220.9699 H   0  0  0  0  0  0  0  0  0  0  0  0
  135.5330   77.9690  222.4490 H   0  0  0  0  0  0  0  0  0  0  0  0
  138.8136   81.9345  223.0106 H   0  0  0  0  0  0  0  0  0  0  0  0
  138.8405   80.8667  225.3985 H   0  0  0  0  0  0  0  0  0  0  0  0
  137.3538   81.5951  224.7014 H   0  0  0  0  0  0  0  0  0  0  0  0
  137.5651   79.8112  224.7014 H   0  0  0  0  0  0  0  0  0  0  0  0
  140.7542   82.0403  221.8246 H   0  0  0  0  0  0  0  0  0  0  0  0
  143.1599   81.4115  221.6951 H   0  0  0  0  0  0  0  0  0  0  0  0
  144.0166   79.4555  222.9843 H   0  0  0  0  0  0  0  0  0  0  0  0
  142.4615   78.1243  224.4102 H   0  0  0  0  0  0  0  0  0  0  0  0
  140.0515   78.7428  224.5542 H   0  0  0  0  0  0  0  0  0  0  0  0
  1  2  1  0
  2  3  2  0
  3  4  1  0
  4  5  1  0
  5  6  1  0
  6  7  2  0
  7  8  1  0
  8  9  2  0
  9 10  1  0
 10 11  2  0
 11 12  1  0
 12 13  1  0
 13 14  2  0
 13 15  1  0
 15 16  1  0
 16 17  2  0
 17 18  1  0
 18 19  1  0
 18 20  2  0
 20 21  1  0
 21 22  1  0
 21 23  1  0
 23 24  2  0
 24 25  1  0
 25 26  2  0
 26 27  1  0
 27 28  2  0
 17  3  1  0
 28 23  1  0
 15  5  2  0
 12  7  1  0
  4 29  1  0
  8 30  1  0
  9 31  1  0
 10 32  1  0
 11 33  1  0
 16 34  1  0
 19 35  1  0
 21 36  1  6
 22 37  1  0
 22 38  1  0
 22 39  1  0
 24 40  1  0
 25 41  1  0
 26 42  1  0
 27 43  1  0
 28 44  1  0
M  END
>  <meeko>  (1) 
{"free_energy": -6.57, "intermolecular_energy": -8.35, "internal_energy": -2.25, "cluster_size": 17, "cluster_id": 2, "rank_in_cluster": 16}

$$$$

     RDKit          3D

 44 47  0  0  0  0  0  0  0  0999 V2000
  134.3180   68.1030  226.2010 H   0  0  0  0  0  0  0  0  0  0  0  0
  133.6500   68.8650  226.4580 N   0  0  0  0  0  0  0  0  0  0  0  0
  133.8710   70.1100  226.1680 C   0  0  0  0  0  0  0  0  0  0  0  0
  133.1650   71.0870  226.8120 N   0  0  0  0  0  0  0  0  0  0  0  0
  133.3720   72.4090  226.5650 C   0  0  0  0  0  0  0  0  0  0  0  0
  132.6500   73.3430  227.2290 N   0  0  0  0  0  0  0  0  0  0  0  0
  132.8300   74.6700  227.0080 C   0  0  0  0  0  0  0  0  0  0  0  0
  132.0540   75.5880  227.7240 C   0  0  0  0  0  0  0  0  0  0  0  0
  132.2290   76.9520  227.5080 C   0  0  0  0  0  0  0  0  0  0  0  0
  133.1720   77.3880  226.5830 C   0  0  0  0  0  0  0  0  0  0  0  0
  133.9340   76.4520  225.8810 C   0  0  0  0  0  0  0  0  0  0  0  0
  133.7640   75.1050  226.0920 N   0  0  0  0  0  0  0  0  0  0  0  0
  134.5170   74.1870  225.3980 C   0  0  0  0  0  0  0  0  0  0  0  0
  135.3760   74.5700  224.5550 O   0  0  0  0  0  0  0  0  0  0  0  0
  134.3320   72.8100  225.6260 C   0  0  0  0  0  0  0  0  0  0  0  0
  135.0680   71.8270  224.9470 C   0  0  0  0  0  0  0  0  0  0  0  0
  134.8480   70.4620  225.2040 C   0  0  0  0  0  0  0  0  0  0  0  0
  135.6330   69.4380  224.4580 C   0  0  0  0  0  0  0  0  0  0  0  0
  135.0390   68.2070  224.1570 O   0  0  0  0  0  0  0  0  0  0  0  0
  136.8540   69.7210  224.0890 N   0  0  0  0  0  0  0  0  0  0  0  0
  138.0870   68.9590  224.3250 C   0  0  1  0  0  0  0  0  0  0  0  0
  138.7490   68.5760  222.9910 C   0  0  0  0  0  0  0  0  0  0  0  0
  138.9820   69.6480  225.3480 C   0  0  0  0  0  0  0  0  0  0  0  0
  139.2370   68.9920  226.5670 C   0  0  0  0  0  0  0  0  0  0  0  0
  140.0630   69.5740  227.5320 C   0  0  0  0  0  0  0  0  0  0  0  0
  140.6540   70.8150  227.2910 C   0  0  0  0  0  0  0  0  0  0  0  0
  140.4220   71.4740  226.0820 C   0  0  0  0  0  0  0  0  0  0  0  0
  139.5980   70.8960  225.1120 C   0  0  0  0  0  0  0  0  0  0  0  0
  132.4450   70.8210  227.5220 H   0  0  0  0  0  0  0  0  0  0  0  0
  131.3102   75.2341  228.4531 H   0  0  0  0  0  0  0  0  0  0  0  0
  131.6243   77.6818  228.0663 H   0  0  0  0  0  0  0  0  0  0  0  0
  133.3165   78.4639  226.4056 H   0  0  0  0  0  0  0  0  0  0  0  0
  134.6798   76.7973  225.1499 H   0  0  0  0  0  0  0  0  0  0  0  0
  135.8242   72.1270  224.2067 H   0  0  0  0  0  0  0  0  0  0  0  0
  134.1520   67.9010  224.5260 H   0  0  0  0  0  0  0  0  0  0  0  0
  137.8494   67.9962  224.8010 H   0  0  0  0  0  0  0  0  0  0  0  0
  139.6856   68.0341  223.1887 H   0  0  0  0  0  0  0  0  0  0  0  0
  138.0677   67.9325  222.4150 H   0  0  0  0  0  0  0  0  0  0  0  0
  138.9672   69.4874  222.4150 H   0  0  0  0  0  0  0  0  0  0  0  0
  138.7809   68.0102  226.7621 H   0  0  0  0  0  0  0  0  0  0  0  0
  140.2477   69.0532  228.4831 H   0  0  0  0  0  0  0  0  0  0  0  0
  141.3019   71.2735  228.0526 H   0  0  0  0  0  0  0  0  0  0  0  0
  140.8893   72.4515  225.8922 H   0  0  0  0  0  0  0  0  0  0  0  0
  139.4285   71.4172  224.1583 H   0  0  0  0  0  0  0  0  0  0  0  0
  1  2  1  0
  2  3  2  0
  3  4  1  0
  4  5  1  0
  5  6  1  0
  6  7  2  0
  7  8  1  0
  8  9  2  0
  9 10  1  0
 10 11  2  0
 11 12  1  0
 12 13  1  0
 13 14  2  0
 13 15  1  0
 15 16  1  0
 16 17  2  0
 17 18  1  0
 18 19  1  0
 18 20  2  0
 20 21  1  0
 21 22  1  0
 21 23  1  0
 23 24  2  0
 24 25  1  0
 25 26  2  0
 26 27  1  0
 27 28  2  0
 17  3  1  0
 28 23  1  0
 15  5  2  0
 12  7  1  0
  4 29  1  0
  8 30  1  0
  9 31  1  0
 10 32  1  0
 11 33  1  0
 16 34  1  0
 19 35  1  0
 21 36  1  1
 22 37  1  0
 22 38  1  0
 22 39  1  0
 24 40  1  0
 25 41  1  0
 26 42  1  0
 27 43  1  0
 28 44  1  0
M  END
>  <meeko>  (2) 
{"free_energy": -7.43, "intermolecular_energy": -9.22, "internal_energy": -1.48, "cluster_size": 3, "cluster_id": 1, "rank_in_cluster": 1}

$$$$

     RDKit          3D

 44 47  0  0  0  0  0  0  0  0999 V2000
  136.3020   77.1980  223.6270 H   0  0  0  0  0  0  0  0  0  0  0  0
  136.7790   76.4030  223.1460 N   0  0  0  0  0  0  0  0  0  0  0  0
  137.9110   76.5420  222.5280 C   0  0  0  0  0  0  0  0  0  0  0  0
  138.7350   75.4620  222.3780 N   0  0  0  0  0  0  0  0  0  0  0  0
  139.9210   75.5450  221.7180 C   0  0  0  0  0  0  0  0  0  0  0  0
  140.7050   74.4470  221.5920 N   0  0  0  0  0  0  0  0  0  0  0  0
  141.8950   74.4930  220.9410 C   0  0  0  0  0  0  0  0  0  0  0  0
  142.6610   73.3270  220.8440 C   0  0  0  0  0  0  0  0  0  0  0  0
  143.8820   73.3590  220.1780 C   0  0  0  0  0  0  0  0  0  0  0  0
  144.3290   74.5510  219.6150 C   0  0  0  0  0  0  0  0  0  0  0  0
  143.5460   75.7020  219.7260 C   0  0  0  0  0  0  0  0  0  0  0  0
  142.3390   75.6730  220.3820 N   0  0  0  0  0  0  0  0  0  0  0  0
  141.5720   76.8080  220.4890 C   0  0  0  0  0  0  0  0  0  0  0  0
  141.9670   77.8970  219.9840 O   0  0  0  0  0  0  0  0  0  0  0  0
  140.3370   76.7630  221.1640 C   0  0  0  0  0  0  0  0  0  0  0  0
  139.5130   77.8890  221.3060 C   0  0  0  0  0  0  0  0  0  0  0  0
  138.2890   77.7990  221.9930 C   0  0  0  0  0  0  0  0  0  0  0  0
  137.4390   79.0140  222.1430 C   0  0  0  0  0  0  0  0  0  0  0  0
  136.0550   78.8670  222.2830 O   0  0  0  0  0  0  0  0  0  0  0  0
  138.0100   80.1900  222.1550 N   0  0  0  0  0  0  0  0  0  0  0  0
  138.7750   80.8310  223.2320 C   0  0  1  0  0  0  0  0  0  0  0  0
  138.1020   80.5870  224.5920 C   0  0  0  0  0  0  0  0  0  0  0  0
  140.2580   80.4910  223.1430 C   0  0  0  0  0  0  0  0  0  0  0  0
  140.7340   79.3710  223.8510 C   0  0  0  0  0  0  0  0  0  0  0  0
  142.0820   79.0090  223.7900 C   0  0  0  0  0  0  0  0  0  0  0  0
  142.9730   79.7530  223.0140 C   0  0  0  0  0  0  0  0  0  0  0  0
  142.5150   80.8590  222.2960 C   0  0  0  0  0  0  0  0  0  0  0  0
  141.1680   81.2260  222.3510 C   0  0  0  0  0  0  0  0  0  0  0  0
  138.4510   74.5370  222.7760 H   0  0  0  0  0  0  0  0  0  0  0  0
  142.3000   72.3895  221.2919 H   0  0  0  0  0  0  0  0  0  0  0  0
  144.4913   72.4468  220.0967 H   0  0  0  0  0  0  0  0  0  0  0  0
  145.2928   74.5861  219.0861 H   0  0  0  0  0  0  0  0  0  0  0  0
  143.9002   76.6442  219.2824 H   0  0  0  0  0  0  0  0  0  0  0  0
  139.8270   78.8516  220.8760 H   0  0  0  0  0  0  0  0  0  0  0  0
  135.5760   77.9790  222.2770 H   0  0  0  0  0  0  0  0  0  0  0  0
  138.7561   81.9238  223.1078 H   0  0  0  0  0  0  0  0  0  0  0  0
  138.8042   80.8416  225.3995 H   0  0  0  0  0  0  0  0  0  0  0  0
  137.2039   81.2167  224.6749 H   0  0  0  0  0  0  0  0  0  0  0  0
  137.8162   79.5280  224.6749 H   0  0  0  0  0  0  0  0  0  0  0  0
  140.0373   78.7748  224.4585 H   0  0  0  0  0  0  0  0  0  0  0  0
  142.4421   78.1362  224.3544 H   0  0  0  0  0  0  0  0  0  0  0  0
  144.0345   79.4680  222.9685 H   0  0  0  0  0  0  0  0  0  0  0  0
  143.2175   81.4441  221.6843 H   0  0  0  0  0  0  0  0  0  0  0  0
  140.8138   82.0929  221.7738 H   0  0  0  0  0  0  0  0  0  0  0  0
  1  2  1  0
  2  3  2  0
  3  4  1  0
  4  5  1  0
  5  6  1  0
  6  7  2  0
  7  8  1  0
  8  9  2  0
  9 10  1  0
 10 11  2  0
 11 12  1  0
 12 13  1  0
 13 14  2  0
 13 15  1  0
 15 16  1  0
 16 17  2  0
 17 18  1  0
 18 19  1  0
 18 20  2  0
 20 21  1  0
 21 22  1  0
 21 23  1  0
 23 24  2  0
 24 25  1  0
 25 26  2  0
 26 27  1  0
 27 28  2  0
 17  3  1  0
 28 23  1  0
 15  5  2  0
 12  7  1  0
  4 29  1  0
  8 30  1  0
  9 31  1  0
 10 32  1  0
 11 33  1  0
 16 34  1  0
 19 35  1  0
 21 36  1  6
 22 37  1  0
 22 38  1  0
 22 39  1  0
 24 40  1  0
 25 41  1  0
 26 42  1  0
 27 43  1  0
 28 44  1  0
M  END
>  <meeko>  (3) 
{"free_energy": -6.56, "intermolecular_energy": -8.35, "internal_energy": -2.27, "cluster_size": 17, "cluster_id": 2, "rank_in_cluster": 17}

$$$$

     RDKit          3D

 44 47  0  0  0  0  0  0  0  0999 V2000
  134.3010   68.0910  226.1500 H   0  0  0  0  0  0  0  0  0  0  0  0
  133.6510   68.8550  226.4440 N   0  0  0  0  0  0  0  0  0  0  0  0
  133.8780   70.1030  226.1750 C   0  0  0  0  0  0  0  0  0  0  0  0
  133.1590   71.0720  226.8160 N   0  0  0  0  0  0  0  0  0  0  0  0
  133.3730   72.3970  226.5910 C   0  0  0  0  0  0  0  0  0  0  0  0
  132.6370   73.3230  227.2510 N   0  0  0  0  0  0  0  0  0  0  0  0
  132.8210   74.6530  227.0520 C   0  0  0  0  0  0  0  0  0  0  0  0
  132.0310   75.5620  227.7620 C   0  0  0  0  0  0  0  0  0  0  0  0
  132.2110   76.9280  227.5680 C   0  0  0  0  0  0  0  0  0  0  0  0
  133.1750   77.3760  226.6700 C   0  0  0  0  0  0  0  0  0  0  0  0
  133.9520   76.4480  225.9730 C   0  0  0  0  0  0  0  0  0  0  0  0
  133.7770   75.0990  226.1630 N   0  0  0  0  0  0  0  0  0  0  0  0
  134.5440   74.1890  225.4740 C   0  0  0  0  0  0  0  0  0  0  0  0
  135.4220   74.5830  224.6550 O   0  0  0  0  0  0  0  0  0  0  0  0
  134.3530   72.8090  225.6790 C   0  0  0  0  0  0  0  0  0  0  0  0
  135.1040   71.8360  225.0040 C   0  0  0  0  0  0  0  0  0  0  0  0
  134.8770   70.4670  225.2370 C   0  0  0  0  0  0  0  0  0  0  0  0
  135.6780   69.4520  224.4960 C   0  0  0  0  0  0  0  0  0  0  0  0
  135.0810   68.2390  224.1380 O   0  0  0  0  0  0  0  0  0  0  0  0
  136.9170   69.7270  224.1840 N   0  0  0  0  0  0  0  0  0  0  0  0
  138.1270   68.9350  224.4330 C   0  0  1  0  0  0  0  0  0  0  0  0
  138.7480   68.4650  223.1070 C   0  0  0  0  0  0  0  0  0  0  0  0
  139.0660   69.6380  225.4050 C   0  0  0  0  0  0  0  0  0  0  0  0
  139.7190   70.8100  224.9790 C   0  0  0  0  0  0  0  0  0  0  0  0
  140.5790   71.5000  225.8380 C   0  0  0  0  0  0  0  0  0  0  0  0
  140.7910   71.0370  227.1370 C   0  0  0  0  0  0  0  0  0  0  0  0
  140.1410   69.8840  227.5810 C   0  0  0  0  0  0  0  0  0  0  0  0
  139.2790   69.1890  226.7270 C   0  0  0  0  0  0  0  0  0  0  0  0
  132.4230   70.7980  227.5060 H   0  0  0  0  0  0  0  0  0  0  0  0
  131.2713   75.1993  228.4701 H   0  0  0  0  0  0  0  0  0  0  0  0
  131.5939   77.6507  228.1221 H   0  0  0  0  0  0  0  0  0  0  0  0
  133.3241   78.4541  226.5101 H   0  0  0  0  0  0  0  0  0  0  0  0
  134.7138   76.8020  225.2629 H   0  0  0  0  0  0  0  0  0  0  0  0
  135.8776   72.1457  224.2859 H   0  0  0  0  0  0  0  0  0  0  0  0
  134.2330   67.8800  224.5510 H   0  0  0  0  0  0  0  0  0  0  0  0
  137.8655   68.0053  224.9595 H   0  0  0  0  0  0  0  0  0  0  0  0
  139.6091   67.8133  223.3161 H   0  0  0  0  0  0  0  0  0  0  0  0
  137.9975   67.9066  222.5282 H   0  0  0  0  0  0  0  0  0  0  0  0
  139.0816   69.3389  222.5282 H   0  0  0  0  0  0  0  0  0  0  0  0
  139.5507   71.1868  223.9593 H   0  0  0  0  0  0  0  0  0  0  0  0
  141.0896   72.4097  225.4893 H   0  0  0  0  0  0  0  0  0  0  0  0
  141.4699   71.5801  227.8109 H   0  0  0  0  0  0  0  0  0  0  0  0
  140.3075   69.5211  228.6060 H   0  0  0  0  0  0  0  0  0  0  0  0
  138.7634   68.2866  227.0873 H   0  0  0  0  0  0  0  0  0  0  0  0
  1  2  1  0
  2  3  2  0
  3  4  1  0
  4  5  1  0
  5  6  1  0
  6  7  2  0
  7  8  1  0
  8  9  2  0
  9 10  1  0
 10 11  2  0
 11 12  1  0
 12 13  1  0
 13 14  2  0
 13 15  1  0
 15 16  1  0
 16 17  2  0
 17 18  1  0
 18 19  1  0
 18 20  2  0
 20 21  1  0
 21 22  1  0
 21 23  1  0
 23 24  2  0
 24 25  1  0
 25 26  2  0
 26 27  1  0
 27 28  2  0
 17  3  1  0
 28 23  1  0
 15  5  2  0
 12  7  1  0
  4 29  1  0
  8 30  1  0
  9 31  1  0
 10 32  1  0
 11 33  1  0
 16 34  1  0
 19 35  1  0
 21 36  1  1
 22 37  1  0
 22 38  1  0
 22 39  1  0
 24 40  1  0
 25 41  1  0
 26 42  1  0
 27 43  1  0
 28 44  1  0
M  END
>  <meeko>  (4) 
{"free_energy": -7.42, "intermolecular_energy": -9.21, "internal_energy": -1.46, "cluster_size": 3, "cluster_id": 1, "rank_in_cluster": 2}

$$$$

     RDKit          3D

 44 47  0  0  0  0  0  0  0  0999 V2000
  136.3120   77.1620  223.6780 H   0  0  0  0  0  0  0  0  0  0  0  0
  136.7770   76.3720  223.1760 N   0  0  0  0  0  0  0  0  0  0  0  0
  137.9090   76.5120  222.5570 C   0  0  0  0  0  0  0  0  0  0  0  0
  138.7310   75.4320  222.4030 N   0  0  0  0  0  0  0  0  0  0  0  0
  139.9170   75.5150  221.7420 C   0  0  0  0  0  0  0  0  0  0  0  0
  140.6990   74.4160  221.6130 N   0  0  0  0  0  0  0  0  0  0  0  0
  141.8880   74.4630  220.9600 C   0  0  0  0  0  0  0  0  0  0  0  0
  142.6530   73.2960  220.8590 C   0  0  0  0  0  0  0  0  0  0  0  0
  143.8730   73.3290  220.1920 C   0  0  0  0  0  0  0  0  0  0  0  0
  144.3210   74.5220  219.6310 C   0  0  0  0  0  0  0  0  0  0  0  0
  143.5390   75.6730  219.7460 C   0  0  0  0  0  0  0  0  0  0  0  0
  142.3340   75.6430  220.4040 N   0  0  0  0  0  0  0  0  0  0  0  0
  141.5670   76.7800  220.5140 C   0  0  0  0  0  0  0  0  0  0  0  0
  141.9630   77.8690  220.0110 O   0  0  0  0  0  0  0  0  0  0  0  0
  140.3340   76.7340  221.1910 C   0  0  0  0  0  0  0  0  0  0  0  0
  139.5110   77.8600  221.3370 C   0  0  0  0  0  0  0  0  0  0  0  0
  138.2870   77.7700  222.0240 C   0  0  0  0  0  0  0  0  0  0  0  0
  137.4380   78.9850  222.1780 C   0  0  0  0  0  0  0  0  0  0  0  0
  136.0580   78.8380  222.3470 O   0  0  0  0  0  0  0  0  0  0  0  0
  138.0080   80.1620  222.1670 N   0  0  0  0  0  0  0  0  0  0  0  0
  138.7610   80.8310  223.2350 C   0  0  1  0  0  0  0  0  0  0  0  0
  138.0780   80.6130  224.5950 C   0  0  0  0  0  0  0  0  0  0  0  0
  140.2460   80.4980  223.1660 C   0  0  0  0  0  0  0  0  0  0  0  0
  140.7180   79.3790  223.8760 C   0  0  0  0  0  0  0  0  0  0  0  0
  142.0690   79.0230  223.8330 C   0  0  0  0  0  0  0  0  0  0  0  0
  142.9660   79.7730  223.0720 C   0  0  0  0  0  0  0  0  0  0  0  0
  142.5130   80.8790  222.3500 C   0  0  0  0  0  0  0  0  0  0  0  0
  141.1630   81.2390  222.3880 C   0  0  0  0  0  0  0  0  0  0  0  0
  138.4460   74.5060  222.7990 H   0  0  0  0  0  0  0  0  0  0  0  0
  142.2916   72.3575  221.3046 H   0  0  0  0  0  0  0  0  0  0  0  0
  144.4814   72.4164  220.1080 H   0  0  0  0  0  0  0  0  0  0  0  0
  145.2842   74.5575  219.1009 H   0  0  0  0  0  0  0  0  0  0  0  0
  143.8927   76.6160  219.3038 H   0  0  0  0  0  0  0  0  0  0  0  0
  139.8259   78.8235  220.9099 H   0  0  0  0  0  0  0  0  0  0  0  0
  135.5740   77.9530  222.3190 H   0  0  0  0  0  0  0  0  0  0  0  0
  138.7375   81.9206  223.0857 H   0  0  0  0  0  0  0  0  0  0  0  0
  138.7891   80.8400  225.4030 H   0  0  0  0  0  0  0  0  0  0  0  0
  137.2050   81.2771  224.6775 H   0  0  0  0  0  0  0  0  0  0  0  0
  137.7512   79.5659  224.6775 H   0  0  0  0  0  0  0  0  0  0  0  0
  140.0159   78.7773  224.4718 H   0  0  0  0  0  0  0  0  0  0  0  0
  142.4254   78.1503  224.3999 H   0  0  0  0  0  0  0  0  0  0  0  0
  144.0294   79.4933  223.0408 H   0  0  0  0  0  0  0  0  0  0  0  0
  143.2209   81.4689  221.7493 H   0  0  0  0  0  0  0  0  0  0  0  0
  140.8122   82.1054  221.8080 H   0  0  0  0  0  0  0  0  0  0  0  0
  1  2  1  0
  2  3  2  0
  3  4  1  0
  4  5  1  0
  5  6  1  0
  6  7  2  0
  7  8  1  0
  8  9  2  0
  9 10  1  0
 10 11  2  0
 11 12  1  0
 12 13  1  0
 13 14  2  0
 13 15  1  0
 15 16  1  0
 16 17  2  0
 17 18  1  0
 18 19  1  0
 18 20  2  0
 20 21  1  0
 21 22  1  0
 21 23  1  0
 23 24  2  0
 24 25  1  0
 25 26  2  0
 26 27  1  0
 27 28  2  0
 17  3  1  0
 28 23  1  0
 15  5  2  0
 12  7  1  0
  4 29  1  0
  8 30  1  0
  9 31  1  0
 10 32  1  0
 11 33  1  0
 16 34  1  0
 19 35  1  0
 21 36  1  6
 22 37  1  0
 22 38  1  0
 22 39  1  0
 24 40  1  0
 25 41  1  0
 26 42  1  0
 27 43  1  0
 28 44  1  0
M  END
>  <meeko>  (5) 
{"free_energy": -6.59, "intermolecular_energy": -8.38, "internal_energy": -2.26, "cluster_size": 17, "cluster_id": 2, "rank_in_cluster": 6}

$$$$

     RDKit          3D

 44 47  0  0  0  0  0  0  0  0999 V2000
  136.3090   77.1480  223.8340 H   0  0  0  0  0  0  0  0  0  0  0  0
  136.7450   76.3740  223.2840 N   0  0  0  0  0  0  0  0  0  0  0  0
  137.8670   76.5170  222.6490 C   0  0  0  0  0  0  0  0  0  0  0  0
  138.6850   75.4370  222.4740 N   0  0  0  0  0  0  0  0  0  0  0  0
  139.8610   75.5250  221.7950 C   0  0  0  0  0  0  0  0  0  0  0  0
  140.6390   74.4260  221.6450 N   0  0  0  0  0  0  0  0  0  0  0  0
  141.8180   74.4770  220.9740 C   0  0  0  0  0  0  0  0  0  0  0  0
  142.5800   73.3100  220.8510 C   0  0  0  0  0  0  0  0  0  0  0  0
  143.7900   73.3470  220.1660 C   0  0  0  0  0  0  0  0  0  0  0  0
  144.2300   74.5440  219.6080 C   0  0  0  0  0  0  0  0  0  0  0  0
  143.4520   75.6950  219.7440 C   0  0  0  0  0  0  0  0  0  0  0  0
  142.2570   75.6620  220.4210 N   0  0  0  0  0  0  0  0  0  0  0  0
  141.4940   76.7980  220.5520 C   0  0  0  0  0  0  0  0  0  0  0  0
  141.8820   77.8910  220.0520 O   0  0  0  0  0  0  0  0  0  0  0  0
  140.2700   76.7480  221.2480 C   0  0  0  0  0  0  0  0  0  0  0  0
  139.4510   77.8740  221.4150 C   0  0  0  0  0  0  0  0  0  0  0  0
  138.2380   77.7790  222.1210 C   0  0  0  0  0  0  0  0  0  0  0  0
  137.3940   78.9940  222.2990 C   0  0  0  0  0  0  0  0  0  0  0  0
  136.0280   78.8440  222.5630 O   0  0  0  0  0  0  0  0  0  0  0  0
  137.9540   80.1720  222.2170 N   0  0  0  0  0  0  0  0  0  0  0  0
  138.7570   80.8820  223.2210 C   0  0  1  0  0  0  0  0  0  0  0  0
  138.0810   80.8140  224.6000 C   0  0  0  0  0  0  0  0  0  0  0  0
  140.2200   80.4600  223.1660 C   0  0  0  0  0  0  0  0  0  0  0  0
  141.1070   81.2120  222.3740 C   0  0  0  0  0  0  0  0  0  0  0  0
  142.4610   80.8750  222.3010 C   0  0  0  0  0  0  0  0  0  0  0  0
  142.9520   79.7880  223.0270 C   0  0  0  0  0  0  0  0  0  0  0  0
  142.0890   79.0390  223.8280 C   0  0  0  0  0  0  0  0  0  0  0  0
  140.7330   79.3710  223.9050 C   0  0  0  0  0  0  0  0  0  0  0  0
  138.4060   74.5090  222.8660 H   0  0  0  0  0  0  0  0  0  0  0  0
  142.2240   72.3681  221.2938 H   0  0  0  0  0  0  0  0  0  0  0  0
  144.3963   72.4347  220.0657 H   0  0  0  0  0  0  0  0  0  0  0  0
  145.1849   74.5826  219.0633 H   0  0  0  0  0  0  0  0  0  0  0  0
  143.8003   76.6408  219.3034 H   0  0  0  0  0  0  0  0  0  0  0  0
  139.7599   78.8404  220.9900 H   0  0  0  0  0  0  0  0  0  0  0  0
  135.5280   77.9720  222.4850 H   0  0  0  0  0  0  0  0  0  0  0  0
  138.7921   81.9557  222.9844 H   0  0  0  0  0  0  0  0  0  0  0  0
  138.8454   80.8909  225.3873 H   0  0  0  0  0  0  0  0  0  0  0  0
  137.3670   81.6449  224.6997 H   0  0  0  0  0  0  0  0  0  0  0  0
  137.5468   79.8576  224.6997 H   0  0  0  0  0  0  0  0  0  0  0  0
  140.7302   82.0752  221.8057 H   0  0  0  0  0  0  0  0  0  0  0  0
  143.1411   81.4668  221.6707 H   0  0  0  0  0  0  0  0  0  0  0  0
  144.0178   79.5224  222.9676 H   0  0  0  0  0  0  0  0  0  0  0  0
  142.4771   78.1840  224.4011 H   0  0  0  0  0  0  0  0  0  0  0  0
  140.0613   78.7803  224.5452 H   0  0  0  0  0  0  0  0  0  0  0  0
  1  2  1  0
  2  3  2  0
  3  4  1  0
  4  5  1  0
  5  6  1  0
  6  7  2  0
  7  8  1  0
  8  9  2  0
  9 10  1  0
 10 11  2  0
 11 12  1  0
 12 13  1  0
 13 14  2  0
 13 15  1  0
 15 16  1  0
 16 17  2  0
 17 18  1  0
 18 19  1  0
 18 20  2  0
 20 21  1  0
 21 22  1  0
 21 23  1  0
 23 24  2  0
 24 25  1  0
 25 26  2  0
 26 27  1  0
 27 28  2  0
 17  3  1  0
 28 23  1  0
 15  5  2  0
 12  7  1  0
  4 29  1  0
  8 30  1  0
  9 31  1  0
 10 32  1  0
 11 33  1  0
 16 34  1  0
 19 35  1  0
 21 36  1  6
 22 37  1  0
 22 38  1  0
 22 39  1  0
 24 40  1  0
 25 41  1  0
 26 42  1  0
 27 43  1  0
 28 44  1  0
M  END
>  <meeko>  (6) 
{"free_energy": -6.59, "intermolecular_energy": -8.38, "internal_energy": -2.24, "cluster_size": 17, "cluster_id": 2, "rank_in_cluster": 7}

$$$$

     RDKit          3D

 44 47  0  0  0  0  0  0  0  0999 V2000
  136.3090   77.1980  223.6510 H   0  0  0  0  0  0  0  0  0  0  0  0
  136.7830   76.4010  223.1710 N   0  0  0  0  0  0  0  0  0  0  0  0
  137.9130   76.5370  222.5470 C   0  0  0  0  0  0  0  0  0  0  0  0
  138.7360   75.4560  222.4000 N   0  0  0  0  0  0  0  0  0  0  0  0
  139.9200   75.5350  221.7350 C   0  0  0  0  0  0  0  0  0  0  0  0
  140.7020   74.4360  221.6130 N   0  0  0  0  0  0  0  0  0  0  0  0
  141.8900   74.4780  220.9570 C   0  0  0  0  0  0  0  0  0  0  0  0
  142.6550   73.3120  220.8630 C   0  0  0  0  0  0  0  0  0  0  0  0
  143.8740   73.3410  220.1920 C   0  0  0  0  0  0  0  0  0  0  0  0
  144.3190   74.5290  219.6220 C   0  0  0  0  0  0  0  0  0  0  0  0
  143.5370   75.6810  219.7290 C   0  0  0  0  0  0  0  0  0  0  0  0
  142.3330   75.6550  220.3900 N   0  0  0  0  0  0  0  0  0  0  0  0
  141.5660   76.7920  220.4930 C   0  0  0  0  0  0  0  0  0  0  0  0
  141.9590   77.8780  219.9810 O   0  0  0  0  0  0  0  0  0  0  0  0
  140.3340   76.7500  221.1740 C   0  0  0  0  0  0  0  0  0  0  0  0
  139.5100   77.8770  221.3130 C   0  0  0  0  0  0  0  0  0  0  0  0
  138.2880   77.7910  222.0040 C   0  0  0  0  0  0  0  0  0  0  0  0
  137.4390   79.0060  222.1510 C   0  0  0  0  0  0  0  0  0  0  0  0
  136.0560   78.8600  222.3040 O   0  0  0  0  0  0  0  0  0  0  0  0
  138.0100   80.1820  222.1480 N   0  0  0  0  0  0  0  0  0  0  0  0
  138.7680   80.8410  223.2190 C   0  0  1  0  0  0  0  0  0  0  0  0
  138.0830   80.6240  224.5770 C   0  0  0  0  0  0  0  0  0  0  0  0
  140.2500   80.4950  223.1480 C   0  0  0  0  0  0  0  0  0  0  0  0
  140.7120   79.3690  223.8550 C   0  0  0  0  0  0  0  0  0  0  0  0
  142.0600   79.0010  223.8110 C   0  0  0  0  0  0  0  0  0  0  0  0
  142.9640   79.7460  223.0520 C   0  0  0  0  0  0  0  0  0  0  0  0
  142.5210   80.8580  222.3340 C   0  0  0  0  0  0  0  0  0  0  0  0
  141.1740   81.2310  222.3740 C   0  0  0  0  0  0  0  0  0  0  0  0
  138.4530   74.5330  222.8040 H   0  0  0  0  0  0  0  0  0  0  0  0
  142.2956   72.3766  221.3168 H   0  0  0  0  0  0  0  0  0  0  0  0
  144.4828   72.4283  220.1128 H   0  0  0  0  0  0  0  0  0  0  0  0
  145.2813   74.5610  219.0900 H   0  0  0  0  0  0  0  0  0  0  0  0
  143.8894   76.6207  219.2786 H   0  0  0  0  0  0  0  0  0  0  0  0
  139.8228   78.8374  220.8773 H   0  0  0  0  0  0  0  0  0  0  0  0
  135.5760   77.9730  222.2990 H   0  0  0  0  0  0  0  0  0  0  0  0
  138.7538   81.9315  223.0750 H   0  0  0  0  0  0  0  0  0  0  0  0
  138.7934   80.8490  225.3861 H   0  0  0  0  0  0  0  0  0  0  0  0
  137.2113   81.2900  224.6586 H   0  0  0  0  0  0  0  0  0  0  0  0
  137.7538   79.5776  224.6586 H   0  0  0  0  0  0  0  0  0  0  0  0
  140.0044   78.7718  224.4489 H   0  0  0  0  0  0  0  0  0  0  0  0
  142.4086   78.1234  224.3751 H   0  0  0  0  0  0  0  0  0  0  0  0
  144.0249   79.4570  223.0197 H   0  0  0  0  0  0  0  0  0  0  0  0
  143.2341   81.4430  221.7346 H   0  0  0  0  0  0  0  0  0  0  0  0
  140.8316   82.1038  221.7986 H   0  0  0  0  0  0  0  0  0  0  0  0
  1  2  1  0
  2  3  2  0
  3  4  1  0
  4  5  1  0
  5  6  1  0
  6  7  2  0
  7  8  1  0
  8  9  2  0
  9 10  1  0
 10 11  2  0
 11 12  1  0
 12 13  1  0
 13 14  2  0
 13 15  1  0
 15 16  1  0
 16 17  2  0
 17 18  1  0
 18 19  1  0
 18 20  2  0
 20 21  1  0
 21 22  1  0
 21 23  1  0
 23 24  2  0
 24 25  1  0
 25 26  2  0
 26 27  1  0
 27 28  2  0
 17  3  1  0
 28 23  1  0
 15  5  2  0
 12  7  1  0
  4 29  1  0
  8 30  1  0
  9 31  1  0
 10 32  1  0
 11 33  1  0
 16 34  1  0
 19 35  1  0
 21 36  1  6
 22 37  1  0
 22 38  1  0
 22 39  1  0
 24 40  1  0
 25 41  1  0
 26 42  1  0
 27 43  1  0
 28 44  1  0
M  END
>  <meeko>  (7) 
{"free_energy": -6.58, "intermolecular_energy": -8.37, "internal_energy": -2.27, "cluster_size": 17, "cluster_id": 2, "rank_in_cluster": 10}

$$$$

     RDKit          3D

 44 47  0  0  0  0  0  0  0  0999 V2000
  136.2950   77.1650  223.8110 H   0  0  0  0  0  0  0  0  0  0  0  0
  136.7320   76.3860  223.2700 N   0  0  0  0  0  0  0  0  0  0  0  0
  137.8600   76.5210  222.6440 C   0  0  0  0  0  0  0  0  0  0  0  0
  138.6750   75.4360  222.4800 N   0  0  0  0  0  0  0  0  0  0  0  0
  139.8570   75.5160  221.8110 C   0  0  0  0  0  0  0  0  0  0  0  0
  140.6310   74.4130  221.6720 N   0  0  0  0  0  0  0  0  0  0  0  0
  141.8160   74.4540  221.0110 C   0  0  0  0  0  0  0  0  0  0  0  0
  142.5730   73.2840  220.9010 C   0  0  0  0  0  0  0  0  0  0  0  0
  143.7900   73.3120  220.2250 C   0  0  0  0  0  0  0  0  0  0  0  0
  144.2400   74.5040  219.6670 C   0  0  0  0  0  0  0  0  0  0  0  0
  143.4670   75.6600  219.7910 C   0  0  0  0  0  0  0  0  0  0  0  0
  142.2650   75.6350  220.4570 N   0  0  0  0  0  0  0  0  0  0  0  0
  141.5070   76.7750  220.5770 C   0  0  0  0  0  0  0  0  0  0  0  0
  141.9050   77.8650  220.0760 O   0  0  0  0  0  0  0  0  0  0  0  0
  140.2770   76.7340  221.2620 C   0  0  0  0  0  0  0  0  0  0  0  0
  139.4620   77.8650  221.4180 C   0  0  0  0  0  0  0  0  0  0  0  0
  138.2430   77.7790  222.1140 C   0  0  0  0  0  0  0  0  0  0  0  0
  137.4030   78.9990  222.2790 C   0  0  0  0  0  0  0  0  0  0  0  0
  136.0310   78.8570  222.5120 O   0  0  0  0  0  0  0  0  0  0  0  0
  137.9720   80.1740  222.2170 N   0  0  0  0  0  0  0  0  0  0  0  0
  138.7440   80.8790  223.2480 C   0  0  1  0  0  0  0  0  0  0  0  0
  138.0660   80.7380  224.6200 C   0  0  0  0  0  0  0  0  0  0  0  0
  140.2220   80.5160  223.1860 C   0  0  0  0  0  0  0  0  0  0  0  0
  140.6670   79.3840  223.8940 C   0  0  0  0  0  0  0  0  0  0  0  0
  142.0110   79.0000  223.8570 C   0  0  0  0  0  0  0  0  0  0  0  0
  142.9280   79.7350  223.1040 C   0  0  0  0  0  0  0  0  0  0  0  0
  142.5010   80.8530  222.3840 C   0  0  0  0  0  0  0  0  0  0  0  0
  141.1590   81.2410  222.4170 C   0  0  0  0  0  0  0  0  0  0  0  0
  138.3880   74.5110  222.8740 H   0  0  0  0  0  0  0  0  0  0  0  0
  142.2092   72.3462  221.3461 H   0  0  0  0  0  0  0  0  0  0  0  0
  144.3924   72.3962  220.1327 H   0  0  0  0  0  0  0  0  0  0  0  0
  145.1999   74.5357  219.1308 H   0  0  0  0  0  0  0  0  0  0  0  0
  143.8244   76.6024  219.3503 H   0  0  0  0  0  0  0  0  0  0  0  0
  139.7794   78.8282  220.9919 H   0  0  0  0  0  0  0  0  0  0  0  0
  135.5320   77.9830  222.4500 H   0  0  0  0  0  0  0  0  0  0  0  0
  138.7395   81.9606  223.0479 H   0  0  0  0  0  0  0  0  0  0  0  0
  138.8107   80.8929  225.4146 H   0  0  0  0  0  0  0  0  0  0  0  0
  137.2681   81.4894  224.7137 H   0  0  0  0  0  0  0  0  0  0  0  0
  137.6339   79.7308  224.7137 H   0  0  0  0  0  0  0  0  0  0  0  0
  139.9492   78.7945  224.4833 H   0  0  0  0  0  0  0  0  0  0  0  0
  142.3460   78.1176  224.4220 H   0  0  0  0  0  0  0  0  0  0  0  0
  143.9857   79.4341  223.0777 H   0  0  0  0  0  0  0  0  0  0  0  0
  143.2238   81.4302  221.7887 H   0  0  0  0  0  0  0  0  0  0  0  0
  140.8298   82.1176  221.8398 H   0  0  0  0  0  0  0  0  0  0  0  0
  1  2  1  0
  2  3  2  0
  3  4  1  0
  4  5  1  0
  5  6  1  0
  6  7  2  0
  7  8  1  0
  8  9  2  0
  9 10  1  0
 10 11  2  0
 11 12  1  0
 12 13  1  0
 13 14  2  0
 13 15  1  0
 15 16  1  0
 16 17  2  0
 17 18  1  0
 18 19  1  0
 18 20  2  0
 20 21  1  0
 21 22  1  0
 21 23  1  0
 23 24  2  0
 24 25  1  0
 25 26  2  0
 26 27  1  0
 27 28  2  0
 17  3  1  0
 28 23  1  0
 15  5  2  0
 12  7  1  0
  4 29  1  0
  8 30  1  0
  9 31  1  0
 10 32  1  0
 11 33  1  0
 16 34  1  0
 19 35  1  0
 21 36  1  6
 22 37  1  0
 22 38  1  0
 22 39  1  0
 24 40  1  0
 25 41  1  0
 26 42  1  0
 27 43  1  0
 28 44  1  0
M  END
>  <meeko>  (8) 
{"free_energy": -6.6, "intermolecular_energy": -8.39, "internal_energy": -2.24, "cluster_size": 17, "cluster_id": 2, "rank_in_cluster": 4}

$$$$

     RDKit          3D

 44 47  0  0  0  0  0  0  0  0999 V2000
  136.2840   77.1800  223.7700 H   0  0  0  0  0  0  0  0  0  0  0  0
  136.7360   76.3900  223.2560 N   0  0  0  0  0  0  0  0  0  0  0  0
  137.8620   76.5240  222.6250 C   0  0  0  0  0  0  0  0  0  0  0  0
  138.6800   75.4400  222.4680 N   0  0  0  0  0  0  0  0  0  0  0  0
  139.8590   75.5180  221.7950 C   0  0  0  0  0  0  0  0  0  0  0  0
  140.6370   74.4170  221.6630 N   0  0  0  0  0  0  0  0  0  0  0  0
  141.8200   74.4560  220.9980 C   0  0  0  0  0  0  0  0  0  0  0  0
  142.5800   73.2870  220.8950 C   0  0  0  0  0  0  0  0  0  0  0  0
  143.7940   73.3140  220.2150 C   0  0  0  0  0  0  0  0  0  0  0  0
  144.2390   74.5030  219.6450 C   0  0  0  0  0  0  0  0  0  0  0  0
  143.4620   75.6570  219.7620 C   0  0  0  0  0  0  0  0  0  0  0  0
  142.2630   75.6340  220.4330 N   0  0  0  0  0  0  0  0  0  0  0  0
  141.5010   76.7730  220.5450 C   0  0  0  0  0  0  0  0  0  0  0  0
  141.8940   77.8590  220.0340 O   0  0  0  0  0  0  0  0  0  0  0  0
  140.2740   76.7330  221.2340 C   0  0  0  0  0  0  0  0  0  0  0  0
  139.4550   77.8620  221.3830 C   0  0  0  0  0  0  0  0  0  0  0  0
  138.2380   77.7780  222.0840 C   0  0  0  0  0  0  0  0  0  0  0  0
  137.3950   78.9970  222.2410 C   0  0  0  0  0  0  0  0  0  0  0  0
  136.0170   78.8530  222.4380 O   0  0  0  0  0  0  0  0  0  0  0  0
  137.9660   80.1720  222.2060 N   0  0  0  0  0  0  0  0  0  0  0  0
  138.7420   80.8500  223.2510 C   0  0  1  0  0  0  0  0  0  0  0  0
  138.0700   80.6770  224.6220 C   0  0  0  0  0  0  0  0  0  0  0  0
  140.2200   80.4870  223.1740 C   0  0  0  0  0  0  0  0  0  0  0  0
  140.6750   79.3680  223.8960 C   0  0  0  0  0  0  0  0  0  0  0  0
  142.0190   78.9850  223.8460 C   0  0  0  0  0  0  0  0  0  0  0  0
  142.9240   79.7070  223.0680 C   0  0  0  0  0  0  0  0  0  0  0  0
  142.4870   80.8120  222.3350 C   0  0  0  0  0  0  0  0  0  0  0  0
  141.1450   81.2000  222.3790 C   0  0  0  0  0  0  0  0  0  0  0  0
  138.3960   74.5180  222.8710 H   0  0  0  0  0  0  0  0  0  0  0  0
  142.2206   72.3516  221.3487 H   0  0  0  0  0  0  0  0  0  0  0  0
  144.3991   72.3995  220.1285 H   0  0  0  0  0  0  0  0  0  0  0  0
  145.1971   74.5334  219.1055 H   0  0  0  0  0  0  0  0  0  0  0  0
  143.8141   76.5966  219.3113 H   0  0  0  0  0  0  0  0  0  0  0  0
  139.7673   78.8226  220.9474 H   0  0  0  0  0  0  0  0  0  0  0  0
  135.5280   77.9720  222.4040 H   0  0  0  0  0  0  0  0  0  0  0  0
  138.7369   81.9363  223.0777 H   0  0  0  0  0  0  0  0  0  0  0  0
  138.8058   80.8664  225.4175 H   0  0  0  0  0  0  0  0  0  0  0  0
  137.2377   81.3902  224.7150 H   0  0  0  0  0  0  0  0  0  0  0  0
  137.6855   79.6506  224.7150 H   0  0  0  0  0  0  0  0  0  0  0  0
  139.9662   78.7887  224.5059 H   0  0  0  0  0  0  0  0  0  0  0  0
  142.3631   78.1128  224.4212 H   0  0  0  0  0  0  0  0  0  0  0  0
  143.9814   79.4060  223.0320 H   0  0  0  0  0  0  0  0  0  0  0  0
  143.2016   81.3793  221.7206 H   0  0  0  0  0  0  0  0  0  0  0  0
  140.8069   82.0659  221.7909 H   0  0  0  0  0  0  0  0  0  0  0  0
  1  2  1  0
  2  3  2  0
  3  4  1  0
  4  5  1  0
  5  6  1  0
  6  7  2  0
  7  8  1  0
  8  9  2  0
  9 10  1  0
 10 11  2  0
 11 12  1  0
 12 13  1  0
 13 14  2  0
 13 15  1  0
 15 16  1  0
 16 17  2  0
 17 18  1  0
 18 19  1  0
 18 20  2  0
 20 21  1  0
 21 22  1  0
 21 23  1  0
 23 24  2  0
 24 25  1  0
 25 26  2  0
 26 27  1  0
 27 28  2  0
 17  3  1  0
 28 23  1  0
 15  5  2  0
 12  7  1  0
  4 29  1  0
  8 30  1  0
  9 31  1  0
 10 32  1  0
 11 33  1  0
 16 34  1  0
 19 35  1  0
 21 36  1  6
 22 37  1  0
 22 38  1  0
 22 39  1  0
 24 40  1  0
 25 41  1  0
 26 42  1  0
 27 43  1  0
 28 44  1  0
M  END
>  <meeko>  (9) 
{"free_energy": -6.57, "intermolecular_energy": -8.36, "internal_energy": -2.26, "cluster_size": 17, "cluster_id": 2, "rank_in_cluster": 15}

$$$$

     RDKit          3D

 44 47  0  0  0  0  0  0  0  0999 V2000
  134.3020   68.1010  226.2030 H   0  0  0  0  0  0  0  0  0  0  0  0
  133.6060   68.8550  226.4010 N   0  0  0  0  0  0  0  0  0  0  0  0
  133.8410   70.1040  226.1390 C   0  0  0  0  0  0  0  0  0  0  0  0
  133.1290   71.0740  226.7870 N   0  0  0  0  0  0  0  0  0  0  0  0
  133.3490   72.3980  226.5690 C   0  0  0  0  0  0  0  0  0  0  0  0
  132.6200   73.3250  227.2360 N   0  0  0  0  0  0  0  0  0  0  0  0
  132.8120   74.6550  227.0440 C   0  0  0  0  0  0  0  0  0  0  0  0
  132.0280   75.5640  227.7610 C   0  0  0  0  0  0  0  0  0  0  0  0
  132.2160   76.9310  227.5740 C   0  0  0  0  0  0  0  0  0  0  0  0
  133.1810   77.3780  226.6760 C   0  0  0  0  0  0  0  0  0  0  0  0
  133.9510   76.4500  225.9730 C   0  0  0  0  0  0  0  0  0  0  0  0
  133.7680   75.1000  226.1550 N   0  0  0  0  0  0  0  0  0  0  0  0
  134.5280   74.1900  225.4600 C   0  0  0  0  0  0  0  0  0  0  0  0
  135.4070   74.5830  224.6410 O   0  0  0  0  0  0  0  0  0  0  0  0
  134.3300   72.8100  225.6570 C   0  0  0  0  0  0  0  0  0  0  0  0
  135.0740   71.8360  224.9750 C   0  0  0  0  0  0  0  0  0  0  0  0
  134.8400   70.4670  225.2010 C   0  0  0  0  0  0  0  0  0  0  0  0
  135.6330   69.4520  224.4520 C   0  0  0  0  0  0  0  0  0  0  0  0
  135.0650   68.2010  224.1870 O   0  0  0  0  0  0  0  0  0  0  0  0
  136.8370   69.7610  224.0480 N   0  0  0  0  0  0  0  0  0  0  0  0
  138.0910   69.0230  224.2420 C   0  0  1  0  0  0  0  0  0  0  0  0
  138.7230   68.6660  222.8870 C   0  0  0  0  0  0  0  0  0  0  0  0
  139.0000   69.7210  225.2460 C   0  0  0  0  0  0  0  0  0  0  0  0
  139.1970   69.1210  226.5040 C   0  0  0  0  0  0  0  0  0  0  0  0
  140.0320   69.7130  227.4550 C   0  0  0  0  0  0  0  0  0  0  0  0
  140.6910   70.9080  227.1610 C   0  0  0  0  0  0  0  0  0  0  0  0
  140.5170   71.5110  225.9140 C   0  0  0  0  0  0  0  0  0  0  0  0
  139.6840   70.9230  224.9580 C   0  0  0  0  0  0  0  0  0  0  0  0
  132.3920   70.7990  227.4770 H   0  0  0  0  0  0  0  0  0  0  0  0
  131.2675   75.2016  228.4683 H   0  0  0  0  0  0  0  0  0  0  0  0
  131.6047   77.6544  228.1334 H   0  0  0  0  0  0  0  0  0  0  0  0
  133.3358   78.4560  226.5213 H   0  0  0  0  0  0  0  0  0  0  0  0
  134.7142   76.8037  225.2642 H   0  0  0  0  0  0  0  0  0  0  0  0
  135.8476   72.1452  224.2568 H   0  0  0  0  0  0  0  0  0  0  0  0
  134.1630   67.9040  224.5260 H   0  0  0  0  0  0  0  0  0  0  0  0
  137.8863   68.0512  224.7151 H   0  0  0  0  0  0  0  0  0  0  0  0
  139.6697   68.1312  223.0535 H   0  0  0  0  0  0  0  0  0  0  0  0
  138.0340   68.0236  222.3189 H   0  0  0  0  0  0  0  0  0  0  0  0
  138.9175   69.5877  222.3189 H   0  0  0  0  0  0  0  0  0  0  0  0
  138.6878   68.1752  226.7411 H   0  0  0  0  0  0  0  0  0  0  0  0
  140.1703   69.2367  228.4369 H   0  0  0  0  0  0  0  0  0  0  0  0
  141.3467   71.3741  227.9112 H   0  0  0  0  0  0  0  0  0  0  0  0
  141.0373   72.4522  225.6830 H   0  0  0  0  0  0  0  0  0  0  0  0
  139.5602   71.3996  223.9744 H   0  0  0  0  0  0  0  0  0  0  0  0
  1  2  1  0
  2  3  2  0
  3  4  1  0
  4  5  1  0
  5  6  1  0
  6  7  2  0
  7  8  1  0
  8  9  2  0
  9 10  1  0
 10 11  2  0
 11 12  1  0
 12 13  1  0
 13 14  2  0
 13 15  1  0
 15 16  1  0
 16 17  2  0
 17 18  1  0
 18 19  1  0
 18 20  2  0
 20 21  1  0
 21 22  1  0
 21 23  1  0
 23 24  2  0
 24 25  1  0
 25 26  2  0
 26 27  1  0
 27 28  2  0
 17  3  1  0
 28 23  1  0
 15  5  2  0
 12  7  1  0
  4 29  1  0
  8 30  1  0
  9 31  1  0
 10 32  1  0
 11 33  1  0
 16 34  1  0
 19 35  1  0
 21 36  1  1
 22 37  1  0
 22 38  1  0
 22 39  1  0
 24 40  1  0
 25 41  1  0
 26 42  1  0
 27 43  1  0
 28 44  1  0
M  END
>  <meeko>  (10) 
{"free_energy": -7.4, "intermolecular_energy": -9.19, "internal_energy": -1.51, "cluster_size": 3, "cluster_id": 1, "rank_in_cluster": 3}

$$$$

     RDKit          3D

 44 47  0  0  0  0  0  0  0  0999 V2000
  136.3200   77.1070  223.7730 H   0  0  0  0  0  0  0  0  0  0  0  0
  136.7570   76.3340  223.2220 N   0  0  0  0  0  0  0  0  0  0  0  0
  137.8850   76.4760  222.5980 C   0  0  0  0  0  0  0  0  0  0  0  0
  138.7040   75.3950  222.4310 N   0  0  0  0  0  0  0  0  0  0  0  0
  139.8870   75.4820  221.7640 C   0  0  0  0  0  0  0  0  0  0  0  0
  140.6650   74.3820  221.6210 N   0  0  0  0  0  0  0  0  0  0  0  0
  141.8510   74.4310  220.9620 C   0  0  0  0  0  0  0  0  0  0  0  0
  142.6130   73.2640  220.8480 C   0  0  0  0  0  0  0  0  0  0  0  0
  143.8300   73.3000  220.1740 C   0  0  0  0  0  0  0  0  0  0  0  0
  144.2770   74.4960  219.6210 C   0  0  0  0  0  0  0  0  0  0  0  0
  143.4980   75.6480  219.7490 C   0  0  0  0  0  0  0  0  0  0  0  0
  142.2960   75.6160  220.4130 N   0  0  0  0  0  0  0  0  0  0  0  0
  141.5330   76.7530  220.5370 C   0  0  0  0  0  0  0  0  0  0  0  0
  141.9280   77.8460  220.0410 O   0  0  0  0  0  0  0  0  0  0  0  0
  140.3030   76.7040  221.2200 C   0  0  0  0  0  0  0  0  0  0  0  0
  139.4830   77.8310  221.3800 C   0  0  0  0  0  0  0  0  0  0  0  0
  138.2630   77.7370  222.0740 C   0  0  0  0  0  0  0  0  0  0  0  0
  137.4180   78.9530  222.2430 C   0  0  0  0  0  0  0  0  0  0  0  0
  136.0470   78.8050  222.4750 O   0  0  0  0  0  0  0  0  0  0  0  0
  137.9830   80.1310  222.1840 N   0  0  0  0  0  0  0  0  0  0  0  0
  138.7510   80.8360  223.2170 C   0  0  1  0  0  0  0  0  0  0  0  0
  138.0830   80.6740  224.5920 C   0  0  0  0  0  0  0  0  0  0  0  0
  140.2330   80.4930  223.1430 C   0  0  0  0  0  0  0  0  0  0  0  0
  140.7020   79.3780  223.8630 C   0  0  0  0  0  0  0  0  0  0  0  0
  142.0500   79.0130  223.8170 C   0  0  0  0  0  0  0  0  0  0  0  0
  142.9480   79.7490  223.0430 C   0  0  0  0  0  0  0  0  0  0  0  0
  142.4990   80.8500  222.3120 C   0  0  0  0  0  0  0  0  0  0  0  0
  141.1510   81.2200  222.3530 C   0  0  0  0  0  0  0  0  0  0  0  0
  138.4200   74.4670  222.8210 H   0  0  0  0  0  0  0  0  0  0  0  0
  142.2525   72.3228  221.2886 H   0  0  0  0  0  0  0  0  0  0  0  0
  144.4360   72.3869  220.0788 H   0  0  0  0  0  0  0  0  0  0  0  0
  145.2377   74.5339  219.0865 H   0  0  0  0  0  0  0  0  0  0  0  0
  143.8517   76.5936  219.3122 H   0  0  0  0  0  0  0  0  0  0  0  0
  139.7970   78.7974  220.9588 H   0  0  0  0  0  0  0  0  0  0  0  0
  135.5500   77.9300  222.4030 H   0  0  0  0  0  0  0  0  0  0  0  0
  138.7306   81.9193  223.0273 H   0  0  0  0  0  0  0  0  0  0  0  0
  138.8252   80.8540  225.3837 H   0  0  0  0  0  0  0  0  0  0  0  0
  137.2612   81.3989  224.6881 H   0  0  0  0  0  0  0  0  0  0  0  0
  137.6846   79.6532  224.6881 H   0  0  0  0  0  0  0  0  0  0  0  0
  139.9992   78.7872  224.4688 H   0  0  0  0  0  0  0  0  0  0  0  0
  142.4038   78.1443  224.3917 H   0  0  0  0  0  0  0  0  0  0  0  0
  144.0093   79.4616  223.0090 H   0  0  0  0  0  0  0  0  0  0  0  0
  143.2079   81.4286  221.7015 H   0  0  0  0  0  0  0  0  0  0  0  0
  140.8032   82.0829  221.7661 H   0  0  0  0  0  0  0  0  0  0  0  0
  1  2  1  0
  2  3  2  0
  3  4  1  0
  4  5  1  0
  5  6  1  0
  6  7  2  0
  7  8  1  0
  8  9  2  0
  9 10  1  0
 10 11  2  0
 11 12  1  0
 12 13  1  0
 13 14  2  0
 13 15  1  0
 15 16  1  0
 16 17  2  0
 17 18  1  0
 18 19  1  0
 18 20  2  0
 20 21  1  0
 21 22  1  0
 21 23  1  0
 23 24  2  0
 24 25  1  0
 25 26  2  0
 26 27  1  0
 27 28  2  0
 17  3  1  0
 28 23  1  0
 15  5  2  0
 12  7  1  0
  4 29  1  0
  8 30  1  0
  9 31  1  0
 10 32  1  0
 11 33  1  0
 16 34  1  0
 19 35  1  0
 21 36  1  6
 22 37  1  0
 22 38  1  0
 22 39  1  0
 24 40  1  0
 25 41  1  0
 26 42  1  0
 27 43  1  0
 28 44  1  0
M  END
>  <meeko>  (11) 
{"free_energy": -6.6, "intermolecular_energy": -8.39, "internal_energy": -2.25, "cluster_size": 17, "cluster_id": 2, "rank_in_cluster": 1}

$$$$

     RDKit          3D

 44 47  0  0  0  0  0  0  0  0999 V2000
  136.3330   77.1730  223.7550 H   0  0  0  0  0  0  0  0  0  0  0  0
  136.7800   76.3900  223.2260 N   0  0  0  0  0  0  0  0  0  0  0  0
  137.9050   76.5300  222.5950 C   0  0  0  0  0  0  0  0  0  0  0  0
  138.7260   75.4500  222.4320 N   0  0  0  0  0  0  0  0  0  0  0  0
  139.9040   75.5340  221.7580 C   0  0  0  0  0  0  0  0  0  0  0  0
  140.6850   74.4350  221.6210 N   0  0  0  0  0  0  0  0  0  0  0  0
  141.8670   74.4810  220.9550 C   0  0  0  0  0  0  0  0  0  0  0  0
  142.6310   73.3150  220.8460 C   0  0  0  0  0  0  0  0  0  0  0  0
  143.8440   73.3480  220.1660 C   0  0  0  0  0  0  0  0  0  0  0  0
  144.2860   74.5410  219.6020 C   0  0  0  0  0  0  0  0  0  0  0  0
  143.5060   75.6920  219.7240 C   0  0  0  0  0  0  0  0  0  0  0  0
  142.3070   75.6620  220.3950 N   0  0  0  0  0  0  0  0  0  0  0  0
  141.5420   76.7990  220.5140 C   0  0  0  0  0  0  0  0  0  0  0  0
  141.9320   77.8880  220.0070 O   0  0  0  0  0  0  0  0  0  0  0  0
  140.3150   76.7530  221.2040 C   0  0  0  0  0  0  0  0  0  0  0  0
  139.4940   77.8790  221.3580 C   0  0  0  0  0  0  0  0  0  0  0  0
  138.2780   77.7880  222.0590 C   0  0  0  0  0  0  0  0  0  0  0  0
  137.4310   79.0040  222.2220 C   0  0  0  0  0  0  0  0  0  0  0  0
  136.0560   78.8550  222.4360 O   0  0  0  0  0  0  0  0  0  0  0  0
  137.9970   80.1810  222.1780 N   0  0  0  0  0  0  0  0  0  0  0  0
  138.7630   80.8750  223.2200 C   0  0  1  0  0  0  0  0  0  0  0  0
  138.0810   80.7170  224.5880 C   0  0  0  0  0  0  0  0  0  0  0  0
  140.2420   80.5150  223.1590 C   0  0  0  0  0  0  0  0  0  0  0  0
  140.6910   79.3920  223.8800 C   0  0  0  0  0  0  0  0  0  0  0  0
  142.0360   79.0120  223.8450 C   0  0  0  0  0  0  0  0  0  0  0  0
  142.9500   79.7400  223.0810 C   0  0  0  0  0  0  0  0  0  0  0  0
  142.5190   80.8480  222.3500 C   0  0  0  0  0  0  0  0  0  0  0  0
  141.1760   81.2340  222.3800 C   0  0  0  0  0  0  0  0  0  0  0  0
  138.4450   74.5240  222.8300 H   0  0  0  0  0  0  0  0  0  0  0  0
  142.2746   72.3765  221.2956 H   0  0  0  0  0  0  0  0  0  0  0  0
  144.4511   72.4353  220.0745 H   0  0  0  0  0  0  0  0  0  0  0  0
  145.2444   74.5766  219.0633 H   0  0  0  0  0  0  0  0  0  0  0  0
  143.8552   76.6347  219.2776 H   0  0  0  0  0  0  0  0  0  0  0  0
  139.8037   78.8424  220.9267 H   0  0  0  0  0  0  0  0  0  0  0  0
  135.5670   77.9740  222.3910 H   0  0  0  0  0  0  0  0  0  0  0  0
  138.7561   81.9589  223.0328 H   0  0  0  0  0  0  0  0  0  0  0  0
  138.8177   80.8877  225.3869 H   0  0  0  0  0  0  0  0  0  0  0  0
  137.2659   81.4501  224.6782 H   0  0  0  0  0  0  0  0  0  0  0  0
  137.6713   79.7002  224.6782 H   0  0  0  0  0  0  0  0  0  0  0  0
  139.9758   78.8074  224.4773 H   0  0  0  0  0  0  0  0  0  0  0  0
  142.3747   78.1379  224.4205 H   0  0  0  0  0  0  0  0  0  0  0  0
  144.0082   79.4408  223.0552 H   0  0  0  0  0  0  0  0  0  0  0  0
  143.2397   81.4202  221.7474 H   0  0  0  0  0  0  0  0  0  0  0  0
  140.8441   82.1032  221.7933 H   0  0  0  0  0  0  0  0  0  0  0  0
  1  2  1  0
  2  3  2  0
  3  4  1  0
  4  5  1  0
  5  6  1  0
  6  7  2  0
  7  8  1  0
  8  9  2  0
  9 10  1  0
 10 11  2  0
 11 12  1  0
 12 13  1  0
 13 14  2  0
 13 15  1  0
 15 16  1  0
 16 17  2  0
 17 18  1  0
 18 19  1  0
 18 20  2  0
 20 21  1  0
 21 22  1  0
 21 23  1  0
 23 24  2  0
 24 25  1  0
 25 26  2  0
 26 27  1  0
 27 28  2  0
 17  3  1  0
 28 23  1  0
 15  5  2  0
 12  7  1  0
  4 29  1  0
  8 30  1  0
  9 31  1  0
 10 32  1  0
 11 33  1  0
 16 34  1  0
 19 35  1  0
 21 36  1  6
 22 37  1  0
 22 38  1  0
 22 39  1  0
 24 40  1  0
 25 41  1  0
 26 42  1  0
 27 43  1  0
 28 44  1  0
M  END
>  <meeko>  (12) 
{"free_energy": -6.6, "intermolecular_energy": -8.39, "internal_energy": -2.25, "cluster_size": 17, "cluster_id": 2, "rank_in_cluster": 2}

$$$$

     RDKit          3D

 44 47  0  0  0  0  0  0  0  0999 V2000
  136.2740   77.1660  223.7570 H   0  0  0  0  0  0  0  0  0  0  0  0
  136.7080   76.3900  223.2090 N   0  0  0  0  0  0  0  0  0  0  0  0
  137.8380   76.5250  222.5850 C   0  0  0  0  0  0  0  0  0  0  0  0
  138.6510   75.4380  222.4210 N   0  0  0  0  0  0  0  0  0  0  0  0
  139.8340   75.5170  221.7540 C   0  0  0  0  0  0  0  0  0  0  0  0
  140.6070   74.4130  221.6150 N   0  0  0  0  0  0  0  0  0  0  0  0
  141.7930   74.4540  220.9570 C   0  0  0  0  0  0  0  0  0  0  0  0
  142.5480   73.2820  220.8440 C   0  0  0  0  0  0  0  0  0  0  0  0
  143.7660   73.3100  220.1720 C   0  0  0  0  0  0  0  0  0  0  0  0
  144.2210   74.5020  219.6170 C   0  0  0  0  0  0  0  0  0  0  0  0
  143.4490   75.6590  219.7430 C   0  0  0  0  0  0  0  0  0  0  0  0
  142.2460   75.6350  220.4060 N   0  0  0  0  0  0  0  0  0  0  0  0
  141.4890   76.7760  220.5280 C   0  0  0  0  0  0  0  0  0  0  0  0
  141.8910   77.8660  220.0300 O   0  0  0  0  0  0  0  0  0  0  0  0
  140.2580   76.7360  221.2100 C   0  0  0  0  0  0  0  0  0  0  0  0
  139.4450   77.8680  221.3670 C   0  0  0  0  0  0  0  0  0  0  0  0
  138.2240   77.7830  222.0590 C   0  0  0  0  0  0  0  0  0  0  0  0
  137.3860   79.0040  222.2250 C   0  0  0  0  0  0  0  0  0  0  0  0
  136.0130   78.8640  222.4530 O   0  0  0  0  0  0  0  0  0  0  0  0
  137.9580   80.1780  222.1690 N   0  0  0  0  0  0  0  0  0  0  0  0
  138.7260   80.8790  223.2050 C   0  0  1  0  0  0  0  0  0  0  0  0
  138.0530   80.7180  224.5780 C   0  0  0  0  0  0  0  0  0  0  0  0
  140.2070   80.5300  223.1360 C   0  0  0  0  0  0  0  0  0  0  0  0
  140.6640   79.3980  223.8360 C   0  0  0  0  0  0  0  0  0  0  0  0
  142.0110   79.0270  223.7920 C   0  0  0  0  0  0  0  0  0  0  0  0
  142.9190   79.7750  223.0410 C   0  0  0  0  0  0  0  0  0  0  0  0
  142.4800   80.8940  222.3300 C   0  0  0  0  0  0  0  0  0  0  0  0
  141.1340   81.2690  222.3690 C   0  0  0  0  0  0  0  0  0  0  0  0
  138.3600   74.5130  222.8120 H   0  0  0  0  0  0  0  0  0  0  0  0
  142.1808   72.3431  221.2841 H   0  0  0  0  0  0  0  0  0  0  0  0
  144.3669   72.3933  220.0798 H   0  0  0  0  0  0  0  0  0  0  0  0
  145.1820   74.5329  219.0827 H   0  0  0  0  0  0  0  0  0  0  0  0
  143.8089   76.6019  219.3056 H   0  0  0  0  0  0  0  0  0  0  0  0
  139.7657   78.8317  220.9446 H   0  0  0  0  0  0  0  0  0  0  0  0
  135.5110   77.9930  222.3770 H   0  0  0  0  0  0  0  0  0  0  0  0
  138.7108   81.9625  223.0155 H   0  0  0  0  0  0  0  0  0  0  0  0
  138.7932   80.8951  225.3722 H   0  0  0  0  0  0  0  0  0  0  0  0
  137.2332   81.4454  224.6721 H   0  0  0  0  0  0  0  0  0  0  0  0
  137.6511   79.6984  224.6721 H   0  0  0  0  0  0  0  0  0  0  0  0
  139.9535   78.7986  224.4242 H   0  0  0  0  0  0  0  0  0  0  0  0
  142.3559   78.1441  224.3502 H   0  0  0  0  0  0  0  0  0  0  0  0
  143.9792   79.4835  223.0092 H   0  0  0  0  0  0  0  0  0  0  0  0
  143.1959   81.4823  221.7372 H   0  0  0  0  0  0  0  0  0  0  0  0
  140.7946   82.1459  221.7982 H   0  0  0  0  0  0  0  0  0  0  0  0
  1  2  1  0
  2  3  2  0
  3  4  1  0
  4  5  1  0
  5  6  1  0
  6  7  2  0
  7  8  1  0
  8  9  2  0
  9 10  1  0
 10 11  2  0
 11 12  1  0
 12 13  1  0
 13 14  2  0
 13 15  1  0
 15 16  1  0
 16 17  2  0
 17 18  1  0
 18 19  1  0
 18 20  2  0
 20 21  1  0
 21 22  1  0
 21 23  1  0
 23 24  2  0
 24 25  1  0
 25 26  2  0
 26 27  1  0
 27 28  2  0
 17  3  1  0
 28 23  1  0
 15  5  2  0
 12  7  1  0
  4 29  1  0
  8 30  1  0
  9 31  1  0
 10 32  1  0
 11 33  1  0
 16 34  1  0
 19 35  1  0
 21 36  1  6
 22 37  1  0
 22 38  1  0
 22 39  1  0
 24 40  1  0
 25 41  1  0
 26 42  1  0
 27 43  1  0
 28 44  1  0
M  END
>  <meeko>  (13) 
{"free_energy": -6.6, "intermolecular_energy": -8.39, "internal_energy": -2.23, "cluster_size": 17, "cluster_id": 2, "rank_in_cluster": 5}

$$$$

     RDKit          3D

 44 47  0  0  0  0  0  0  0  0999 V2000
  136.3070   77.2000  223.6740 H   0  0  0  0  0  0  0  0  0  0  0  0
  136.7750   76.4060  223.1820 N   0  0  0  0  0  0  0  0  0  0  0  0
  137.9050   76.5420  222.5590 C   0  0  0  0  0  0  0  0  0  0  0  0
  138.7270   75.4610  222.4110 N   0  0  0  0  0  0  0  0  0  0  0  0
  139.9120   75.5410  221.7460 C   0  0  0  0  0  0  0  0  0  0  0  0
  140.6940   74.4420  221.6230 N   0  0  0  0  0  0  0  0  0  0  0  0
  141.8820   74.4850  220.9670 C   0  0  0  0  0  0  0  0  0  0  0  0
  142.6470   73.3180  220.8720 C   0  0  0  0  0  0  0  0  0  0  0  0
  143.8670   73.3480  220.2020 C   0  0  0  0  0  0  0  0  0  0  0  0
  144.3120   74.5370  219.6330 C   0  0  0  0  0  0  0  0  0  0  0  0
  143.5300   75.6890  219.7410 C   0  0  0  0  0  0  0  0  0  0  0  0
  142.3250   75.6630  220.4020 N   0  0  0  0  0  0  0  0  0  0  0  0
  141.5590   76.7990  220.5070 C   0  0  0  0  0  0  0  0  0  0  0  0
  141.9520   77.8860  219.9960 O   0  0  0  0  0  0  0  0  0  0  0  0
  140.3270   76.7570  221.1860 C   0  0  0  0  0  0  0  0  0  0  0  0
  139.5030   77.8840  221.3270 C   0  0  0  0  0  0  0  0  0  0  0  0
  138.2810   77.7970  222.0180 C   0  0  0  0  0  0  0  0  0  0  0  0
  137.4320   79.0130  222.1660 C   0  0  0  0  0  0  0  0  0  0  0  0
  136.0500   78.8660  222.3290 O   0  0  0  0  0  0  0  0  0  0  0  0
  138.0020   80.1890  222.1550 N   0  0  0  0  0  0  0  0  0  0  0  0
  138.7640   80.8530  223.2190 C   0  0  1  0  0  0  0  0  0  0  0  0
  138.0840   80.6460  224.5810 C   0  0  0  0  0  0  0  0  0  0  0  0
  140.2460   80.5050  223.1450 C   0  0  0  0  0  0  0  0  0  0  0  0
  140.7080   79.3800  223.8540 C   0  0  0  0  0  0  0  0  0  0  0  0
  142.0550   79.0110  223.8070 C   0  0  0  0  0  0  0  0  0  0  0  0
  142.9580   79.7530  223.0440 C   0  0  0  0  0  0  0  0  0  0  0  0
  142.5150   80.8640  222.3250 C   0  0  0  0  0  0  0  0  0  0  0  0
  141.1690   81.2380  222.3670 C   0  0  0  0  0  0  0  0  0  0  0  0
  138.4440   74.5380  222.8130 H   0  0  0  0  0  0  0  0  0  0  0  0
  142.2869   72.3820  221.3240 H   0  0  0  0  0  0  0  0  0  0  0  0
  144.4764   72.4357  220.1229 H   0  0  0  0  0  0  0  0  0  0  0  0
  145.2743   74.5695  219.1011 H   0  0  0  0  0  0  0  0  0  0  0  0
  143.8827   76.6290  219.2915 H   0  0  0  0  0  0  0  0  0  0  0  0
  139.8158   78.8451  220.8928 H   0  0  0  0  0  0  0  0  0  0  0  0
  135.5690   77.9800  222.3150 H   0  0  0  0  0  0  0  0  0  0  0  0
  138.7500   81.9425  223.0681 H   0  0  0  0  0  0  0  0  0  0  0  0
  138.8013   80.8643  225.3859 H   0  0  0  0  0  0  0  0  0  0  0  0
  137.2204   81.3220  224.6661 H   0  0  0  0  0  0  0  0  0  0  0  0
  137.7435   79.6035  224.6661 H   0  0  0  0  0  0  0  0  0  0  0  0
  140.0013   78.7852  224.4513 H   0  0  0  0  0  0  0  0  0  0  0  0
  142.4042   78.1343  224.3723 H   0  0  0  0  0  0  0  0  0  0  0  0
  144.0183   79.4622  223.0094 H   0  0  0  0  0  0  0  0  0  0  0  0
  143.2275   81.4473  221.7232 H   0  0  0  0  0  0  0  0  0  0  0  0
  140.8261   82.1095  221.7900 H   0  0  0  0  0  0  0  0  0  0  0  0
  1  2  1  0
  2  3  2  0
  3  4  1  0
  4  5  1  0
  5  6  1  0
  6  7  2  0
  7  8  1  0
  8  9  2  0
  9 10  1  0
 10 11  2  0
 11 12  1  0
 12 13  1  0
 13 14  2  0
 13 15  1  0
 15 16  1  0
 16 17  2  0
 17 18  1  0
 18 19  1  0
 18 20  2  0
 20 21  1  0
 21 22  1  0
 21 23  1  0
 23 24  2  0
 24 25  1  0
 25 26  2  0
 26 27  1  0
 27 28  2  0
 17  3  1  0
 28 23  1  0
 15  5  2  0
 12  7  1  0
  4 29  1  0
  8 30  1  0
  9 31  1  0
 10 32  1  0
 11 33  1  0
 16 34  1  0
 19 35  1  0
 21 36  1  6
 22 37  1  0
 22 38  1  0
 22 39  1  0
 24 40  1  0
 25 41  1  0
 26 42  1  0
 27 43  1  0
 28 44  1  0
M  END
>  <meeko>  (14) 
{"free_energy": -6.58, "intermolecular_energy": -8.37, "internal_energy": -2.26, "cluster_size": 17, "cluster_id": 2, "rank_in_cluster": 11}

$$$$

     RDKit          3D

 44 47  0  0  0  0  0  0  0  0999 V2000
  136.3150   77.1870  223.6890 H   0  0  0  0  0  0  0  0  0  0  0  0
  136.7770   76.3980  223.1830 N   0  0  0  0  0  0  0  0  0  0  0  0
  137.9050   76.5380  222.5590 C   0  0  0  0  0  0  0  0  0  0  0  0
  138.7280   75.4570  222.4030 N   0  0  0  0  0  0  0  0  0  0  0  0
  139.9110   75.5410  221.7370 C   0  0  0  0  0  0  0  0  0  0  0  0
  140.6930   74.4420  221.6060 N   0  0  0  0  0  0  0  0  0  0  0  0
  141.8790   74.4880  220.9480 C   0  0  0  0  0  0  0  0  0  0  0  0
  142.6440   73.3220  220.8450 C   0  0  0  0  0  0  0  0  0  0  0  0
  143.8620   73.3550  220.1730 C   0  0  0  0  0  0  0  0  0  0  0  0
  144.3070   74.5470  219.6100 C   0  0  0  0  0  0  0  0  0  0  0  0
  143.5250   75.6990  219.7270 C   0  0  0  0  0  0  0  0  0  0  0  0
  142.3220   75.6690  220.3900 N   0  0  0  0  0  0  0  0  0  0  0  0
  141.5560   76.8050  220.5020 C   0  0  0  0  0  0  0  0  0  0  0  0
  141.9490   77.8940  219.9970 O   0  0  0  0  0  0  0  0  0  0  0  0
  140.3250   76.7590  221.1840 C   0  0  0  0  0  0  0  0  0  0  0  0
  139.5020   77.8850  221.3320 C   0  0  0  0  0  0  0  0  0  0  0  0
  138.2810   77.7950  222.0240 C   0  0  0  0  0  0  0  0  0  0  0  0
  137.4330   79.0100  222.1810 C   0  0  0  0  0  0  0  0  0  0  0  0
  136.0530   78.8620  222.3580 O   0  0  0  0  0  0  0  0  0  0  0  0
  138.0020   80.1870  222.1640 N   0  0  0  0  0  0  0  0  0  0  0  0
  138.7640   80.8570  223.2250 C   0  0  1  0  0  0  0  0  0  0  0  0
  138.0870   80.6510  224.5890 C   0  0  0  0  0  0  0  0  0  0  0  0
  140.2470   80.5140  223.1490 C   0  0  0  0  0  0  0  0  0  0  0  0
  140.7150   79.3930  223.8600 C   0  0  0  0  0  0  0  0  0  0  0  0
  142.0630   79.0280  223.8110 C   0  0  0  0  0  0  0  0  0  0  0  0
  142.9620   79.7710  223.0440 C   0  0  0  0  0  0  0  0  0  0  0  0
  142.5130   80.8780  222.3220 C   0  0  0  0  0  0  0  0  0  0  0  0
  141.1650   81.2480  222.3660 C   0  0  0  0  0  0  0  0  0  0  0  0
  138.4450   74.5320  222.8000 H   0  0  0  0  0  0  0  0  0  0  0  0
  142.2848   72.3837  221.2928 H   0  0  0  0  0  0  0  0  0  0  0  0
  144.4704   72.4426  220.0872 H   0  0  0  0  0  0  0  0  0  0  0  0
  145.2682   74.5822  219.0763 H   0  0  0  0  0  0  0  0  0  0  0  0
  143.8769   76.6417  219.2827 H   0  0  0  0  0  0  0  0  0  0  0  0
  139.8147   78.8482  220.9025 H   0  0  0  0  0  0  0  0  0  0  0  0
  135.5690   77.9780  222.3270 H   0  0  0  0  0  0  0  0  0  0  0  0
  138.7460   81.9461  223.0713 H   0  0  0  0  0  0  0  0  0  0  0  0
  138.8062   80.8698  225.3921 H   0  0  0  0  0  0  0  0  0  0  0  0
  137.2237   81.3271  224.6757 H   0  0  0  0  0  0  0  0  0  0  0  0
  137.7466   79.6086  224.6757 H   0  0  0  0  0  0  0  0  0  0  0  0
  140.0118   78.7976  224.4609 H   0  0  0  0  0  0  0  0  0  0  0  0
  142.4162   78.1539  224.3777 H   0  0  0  0  0  0  0  0  0  0  0  0
  144.0234   79.4844  223.0086 H   0  0  0  0  0  0  0  0  0  0  0  0
  143.2220   81.4615  221.7162 H   0  0  0  0  0  0  0  0  0  0  0  0
  140.8175   82.1163  221.7870 H   0  0  0  0  0  0  0  0  0  0  0  0
  1  2  1  0
  2  3  2  0
  3  4  1  0
  4  5  1  0
  5  6  1  0
  6  7  2  0
  7  8  1  0
  8  9  2  0
  9 10  1  0
 10 11  2  0
 11 12  1  0
 12 13  1  0
 13 14  2  0
 13 15  1  0
 15 16  1  0
 16 17  2  0
 17 18  1  0
 18 19  1  0
 18 20  2  0
 20 21  1  0
 21 22  1  0
 21 23  1  0
 23 24  2  0
 24 25  1  0
 25 26  2  0
 26 27  1  0
 27 28  2  0
 17  3  1  0
 28 23  1  0
 15  5  2  0
 12  7  1  0
  4 29  1  0
  8 30  1  0
  9 31  1  0
 10 32  1  0
 11 33  1  0
 16 34  1  0
 19 35  1  0
 21 36  1  6
 22 37  1  0
 22 38  1  0
 22 39  1  0
 24 40  1  0
 25 41  1  0
 26 42  1  0
 27 43  1  0
 28 44  1  0
M  END
>  <meeko>  (15) 
{"free_energy": -6.58, "intermolecular_energy": -8.37, "internal_energy": -2.25, "cluster_size": 17, "cluster_id": 2, "rank_in_cluster": 8}

$$$$

     RDKit          3D

 44 47  0  0  0  0  0  0  0  0999 V2000
  136.2920   77.2000  223.6300 H   0  0  0  0  0  0  0  0  0  0  0  0
  136.7710   76.4000  223.1570 N   0  0  0  0  0  0  0  0  0  0  0  0
  137.9020   76.5360  222.5360 C   0  0  0  0  0  0  0  0  0  0  0  0
  138.7250   75.4540  222.3910 N   0  0  0  0  0  0  0  0  0  0  0  0
  139.9100   75.5330  221.7290 C   0  0  0  0  0  0  0  0  0  0  0  0
  140.6930   74.4330  221.6080 N   0  0  0  0  0  0  0  0  0  0  0  0
  141.8820   74.4750  220.9550 C   0  0  0  0  0  0  0  0  0  0  0  0
  142.6470   73.3080  220.8630 C   0  0  0  0  0  0  0  0  0  0  0  0
  143.8670   73.3360  220.1950 C   0  0  0  0  0  0  0  0  0  0  0  0
  144.3140   74.5250  219.6260 C   0  0  0  0  0  0  0  0  0  0  0  0
  143.5330   75.6770  219.7310 C   0  0  0  0  0  0  0  0  0  0  0  0
  142.3270   75.6520  220.3900 N   0  0  0  0  0  0  0  0  0  0  0  0
  141.5600   76.7890  220.4920 C   0  0  0  0  0  0  0  0  0  0  0  0
  141.9550   77.8740  219.9800 O   0  0  0  0  0  0  0  0  0  0  0  0
  140.3270   76.7480  221.1690 C   0  0  0  0  0  0  0  0  0  0  0  0
  139.5040   77.8750  221.3060 C   0  0  0  0  0  0  0  0  0  0  0  0
  138.2800   77.7900  221.9940 C   0  0  0  0  0  0  0  0  0  0  0  0
  137.4310   79.0060  222.1390 C   0  0  0  0  0  0  0  0  0  0  0  0
  136.0470   78.8610  222.2760 O   0  0  0  0  0  0  0  0  0  0  0  0
  138.0040   80.1810  222.1510 N   0  0  0  0  0  0  0  0  0  0  0  0
  138.7580   80.8270  223.2310 C   0  0  1  0  0  0  0  0  0  0  0  0
  138.0730   80.5890  224.5860 C   0  0  0  0  0  0  0  0  0  0  0  0
  140.2420   80.4880  223.1580 C   0  0  0  0  0  0  0  0  0  0  0  0
  140.7110   79.3680  223.8690 C   0  0  0  0  0  0  0  0  0  0  0  0
  142.0610   79.0070  223.8220 C   0  0  0  0  0  0  0  0  0  0  0  0
  142.9590   79.7530  223.0570 C   0  0  0  0  0  0  0  0  0  0  0  0
  142.5080   80.8590  222.3340 C   0  0  0  0  0  0  0  0  0  0  0  0
  141.1600   81.2250  222.3760 C   0  0  0  0  0  0  0  0  0  0  0  0
  138.4400   74.5320  222.7940 H   0  0  0  0  0  0  0  0  0  0  0  0
  142.2861   72.3730  221.3163 H   0  0  0  0  0  0  0  0  0  0  0  0
  144.4754   72.4229  220.1169 H   0  0  0  0  0  0  0  0  0  0  0  0
  145.2776   74.5566  219.0964 H   0  0  0  0  0  0  0  0  0  0  0  0
  143.8869   76.6163  219.2809 H   0  0  0  0  0  0  0  0  0  0  0  0
  139.8187   78.8351  220.8711 H   0  0  0  0  0  0  0  0  0  0  0  0
  135.5670   77.9730  222.2790 H   0  0  0  0  0  0  0  0  0  0  0  0
  138.7392   81.9191  223.1006 H   0  0  0  0  0  0  0  0  0  0  0  0
  138.7733   80.8323  225.3986 H   0  0  0  0  0  0  0  0  0  0  0  0
  137.1829   81.2306  224.6646 H   0  0  0  0  0  0  0  0  0  0  0  0
  137.7725   79.5338  224.6646 H   0  0  0  0  0  0  0  0  0  0  0  0
  140.0083   78.7702  224.4680 H   0  0  0  0  0  0  0  0  0  0  0  0
  142.4159   78.1337  224.3889 H   0  0  0  0  0  0  0  0  0  0  0  0
  144.0214   79.4697  223.0237 H   0  0  0  0  0  0  0  0  0  0  0  0
  143.2162   81.4443  221.7292 H   0  0  0  0  0  0  0  0  0  0  0  0
  140.8111   82.0925  221.7966 H   0  0  0  0  0  0  0  0  0  0  0  0
  1  2  1  0
  2  3  2  0
  3  4  1  0
  4  5  1  0
  5  6  1  0
  6  7  2  0
  7  8  1  0
  8  9  2  0
  9 10  1  0
 10 11  2  0
 11 12  1  0
 12 13  1  0
 13 14  2  0
 13 15  1  0
 15 16  1  0
 16 17  2  0
 17 18  1  0
 18 19  1  0
 18 20  2  0
 20 21  1  0
 21 22  1  0
 21 23  1  0
 23 24  2  0
 24 25  1  0
 25 26  2  0
 26 27  1  0
 27 28  2  0
 17  3  1  0
 28 23  1  0
 15  5  2  0
 12  7  1  0
  4 29  1  0
  8 30  1  0
  9 31  1  0
 10 32  1  0
 11 33  1  0
 16 34  1  0
 19 35  1  0
 21 36  1  6
 22 37  1  0
 22 38  1  0
 22 39  1  0
 24 40  1  0
 25 41  1  0
 26 42  1  0
 27 43  1  0
 28 44  1  0
M  END
>  <meeko>  (16) 
{"free_energy": -6.57, "intermolecular_energy": -8.36, "internal_energy": -2.26, "cluster_size": 17, "cluster_id": 2, "rank_in_cluster": 14}

$$$$

     RDKit          3D

 44 47  0  0  0  0  0  0  0  0999 V2000
  136.3090   77.1760  223.6810 H   0  0  0  0  0  0  0  0  0  0  0  0
  136.7700   76.3880  223.1740 N   0  0  0  0  0  0  0  0  0  0  0  0
  137.9030   76.5250  222.5570 C   0  0  0  0  0  0  0  0  0  0  0  0
  138.7210   75.4420  222.4000 N   0  0  0  0  0  0  0  0  0  0  0  0
  139.9080   75.5240  221.7400 C   0  0  0  0  0  0  0  0  0  0  0  0
  140.6860   74.4220  221.6080 N   0  0  0  0  0  0  0  0  0  0  0  0
  141.8760   74.4660  220.9570 C   0  0  0  0  0  0  0  0  0  0  0  0
  142.6360   73.2970  220.8520 C   0  0  0  0  0  0  0  0  0  0  0  0
  143.8580   73.3280  220.1860 C   0  0  0  0  0  0  0  0  0  0  0  0
  144.3100   74.5210  219.6310 C   0  0  0  0  0  0  0  0  0  0  0  0
  143.5330   75.6750  219.7480 C   0  0  0  0  0  0  0  0  0  0  0  0
  142.3260   75.6470  220.4050 N   0  0  0  0  0  0  0  0  0  0  0  0
  141.5640   76.7860  220.5190 C   0  0  0  0  0  0  0  0  0  0  0  0
  141.9640   77.8760  220.0200 O   0  0  0  0  0  0  0  0  0  0  0  0
  140.3300   76.7430  221.1940 C   0  0  0  0  0  0  0  0  0  0  0  0
  139.5110   77.8720  221.3430 C   0  0  0  0  0  0  0  0  0  0  0  0
  138.2860   77.7840  222.0290 C   0  0  0  0  0  0  0  0  0  0  0  0
  137.4420   79.0020  222.1870 C   0  0  0  0  0  0  0  0  0  0  0  0
  136.0610   78.8590  222.3570 O   0  0  0  0  0  0  0  0  0  0  0  0
  138.0160   80.1760  222.1770 N   0  0  0  0  0  0  0  0  0  0  0  0
  138.7800   80.8370  223.2430 C   0  0  1  0  0  0  0  0  0  0  0  0
  138.0970   80.6290  224.6040 C   0  0  0  0  0  0  0  0  0  0  0  0
  140.2600   80.4850  223.1700 C   0  0  0  0  0  0  0  0  0  0  0  0
  140.7200   79.3620  223.8830 C   0  0  0  0  0  0  0  0  0  0  0  0
  142.0660   78.9890  223.8380 C   0  0  0  0  0  0  0  0  0  0  0  0
  142.9710   79.7250  223.0710 C   0  0  0  0  0  0  0  0  0  0  0  0
  142.5300   80.8340  222.3470 C   0  0  0  0  0  0  0  0  0  0  0  0
  141.1850   81.2120  222.3880 C   0  0  0  0  0  0  0  0  0  0  0  0
  138.4330   74.5160  222.7920 H   0  0  0  0  0  0  0  0  0  0  0  0
  142.2703   72.3581  221.2932 H   0  0  0  0  0  0  0  0  0  0  0  0
  144.4633   72.4137  220.0990 H   0  0  0  0  0  0  0  0  0  0  0  0
  145.2743   74.5548  219.1029 H   0  0  0  0  0  0  0  0  0  0  0  0
  143.8911   76.6180  219.3091 H   0  0  0  0  0  0  0  0  0  0  0  0
  139.8298   78.8357  220.9192 H   0  0  0  0  0  0  0  0  0  0  0  0
  135.5740   77.9760  222.3230 H   0  0  0  0  0  0  0  0  0  0  0  0
  138.7705   81.9268  223.0938 H   0  0  0  0  0  0  0  0  0  0  0  0
  138.8126   80.8469  225.4105 H   0  0  0  0  0  0  0  0  0  0  0  0
  137.2331   81.3048  224.6878 H   0  0  0  0  0  0  0  0  0  0  0  0
  137.7564   79.5864  224.6878 H   0  0  0  0  0  0  0  0  0  0  0  0
  140.0119   78.7712  224.4825 H   0  0  0  0  0  0  0  0  0  0  0  0
  142.4129   78.1143  224.4077 H   0  0  0  0  0  0  0  0  0  0  0  0
  144.0305   79.4313  223.0372 H   0  0  0  0  0  0  0  0  0  0  0  0
  143.2436   81.4125  221.7420 H   0  0  0  0  0  0  0  0  0  0  0  0
  140.8443   82.0818  221.8072 H   0  0  0  0  0  0  0  0  0  0  0  0
  1  2  1  0
  2  3  2  0
  3  4  1  0
  4  5  1  0
  5  6  1  0
  6  7  2  0
  7  8  1  0
  8  9  2  0
  9 10  1  0
 10 11  2  0
 11 12  1  0
 12 13  1  0
 13 14  2  0
 13 15  1  0
 15 16  1  0
 16 17  2  0
 17 18  1  0
 18 19  1  0
 18 20  2  0
 20 21  1  0
 21 22  1  0
 21 23  1  0
 23 24  2  0
 24 25  1  0
 25 26  2  0
 26 27  1  0
 27 28  2  0
 17  3  1  0
 28 23  1  0
 15  5  2  0
 12  7  1  0
  4 29  1  0
  8 30  1  0
  9 31  1  0
 10 32  1  0
 11 33  1  0
 16 34  1  0
 19 35  1  0
 21 36  1  6
 22 37  1  0
 22 38  1  0
 22 39  1  0
 24 40  1  0
 25 41  1  0
 26 42  1  0
 27 43  1  0
 28 44  1  0
M  END
>  <meeko>  (17) 
{"free_energy": -6.58, "intermolecular_energy": -8.37, "internal_energy": -2.26, "cluster_size": 17, "cluster_id": 2, "rank_in_cluster": 9}

$$$$

     RDKit          3D

 44 47  0  0  0  0  0  0  0  0999 V2000
  136.3010   77.1960  223.6420 H   0  0  0  0  0  0  0  0  0  0  0  0
  136.7760   76.4000  223.1590 N   0  0  0  0  0  0  0  0  0  0  0  0
  137.9070   76.5400  222.5390 C   0  0  0  0  0  0  0  0  0  0  0  0
  138.7300   75.4590  222.3870 N   0  0  0  0  0  0  0  0  0  0  0  0
  139.9150   75.5420  221.7240 C   0  0  0  0  0  0  0  0  0  0  0  0
  140.6980   74.4430  221.5970 N   0  0  0  0  0  0  0  0  0  0  0  0
  141.8860   74.4890  220.9430 C   0  0  0  0  0  0  0  0  0  0  0  0
  142.6520   73.3220  220.8450 C   0  0  0  0  0  0  0  0  0  0  0  0
  143.8720   73.3550  220.1760 C   0  0  0  0  0  0  0  0  0  0  0  0
  144.3180   74.5460  219.6120 C   0  0  0  0  0  0  0  0  0  0  0  0
  143.5350   75.6970  219.7240 C   0  0  0  0  0  0  0  0  0  0  0  0
  142.3300   75.6680  220.3830 N   0  0  0  0  0  0  0  0  0  0  0  0
  141.5630   76.8040  220.4910 C   0  0  0  0  0  0  0  0  0  0  0  0
  141.9570   77.8930  219.9850 O   0  0  0  0  0  0  0  0  0  0  0  0
  140.3300   76.7600  221.1690 C   0  0  0  0  0  0  0  0  0  0  0  0
  139.5070   77.8860  221.3130 C   0  0  0  0  0  0  0  0  0  0  0  0
  138.2840   77.7960  222.0020 C   0  0  0  0  0  0  0  0  0  0  0  0
  137.4340   79.0110  222.1540 C   0  0  0  0  0  0  0  0  0  0  0  0
  136.0510   78.8640  222.2970 O   0  0  0  0  0  0  0  0  0  0  0  0
  138.0060   80.1870  222.1650 N   0  0  0  0  0  0  0  0  0  0  0  0
  138.7630   80.8330  223.2440 C   0  0  1  0  0  0  0  0  0  0  0  0
  138.0760   80.6010  224.5990 C   0  0  0  0  0  0  0  0  0  0  0  0
  140.2450   80.4870  223.1710 C   0  0  0  0  0  0  0  0  0  0  0  0
  140.7070   79.3600  223.8760 C   0  0  0  0  0  0  0  0  0  0  0  0
  142.0550   78.9920  223.8290 C   0  0  0  0  0  0  0  0  0  0  0  0
  142.9590   79.7380  223.0710 C   0  0  0  0  0  0  0  0  0  0  0  0
  142.5150   80.8510  222.3560 C   0  0  0  0  0  0  0  0  0  0  0  0
  141.1680   81.2240  222.3970 C   0  0  0  0  0  0  0  0  0  0  0  0
  138.4470   74.5350  222.7860 H   0  0  0  0  0  0  0  0  0  0  0  0
  142.2921   72.3845  221.2939 H   0  0  0  0  0  0  0  0  0  0  0  0
  144.4813   72.4429  220.0935 H   0  0  0  0  0  0  0  0  0  0  0  0
  145.2809   74.5809  219.0814 H   0  0  0  0  0  0  0  0  0  0  0  0
  143.8877   76.6390  219.2788 H   0  0  0  0  0  0  0  0  0  0  0  0
  139.8207   78.8487  220.8832 H   0  0  0  0  0  0  0  0  0  0  0  0
  135.5710   77.9770  222.2930 H   0  0  0  0  0  0  0  0  0  0  0  0
  138.7497   81.9250  223.1123 H   0  0  0  0  0  0  0  0  0  0  0  0
  138.7784   80.8382  225.4116 H   0  0  0  0  0  0  0  0  0  0  0  0
  137.1916   81.2503  224.6776 H   0  0  0  0  0  0  0  0  0  0  0  0
  137.7663   79.5484  224.6776 H   0  0  0  0  0  0  0  0  0  0  0  0
  140.0001   78.7624  224.4703 H   0  0  0  0  0  0  0  0  0  0  0  0
  142.4038   78.1128  224.3905 H   0  0  0  0  0  0  0  0  0  0  0  0
  144.0198   79.4490  223.0373 H   0  0  0  0  0  0  0  0  0  0  0  0
  143.2277   81.4375  221.7576 H   0  0  0  0  0  0  0  0  0  0  0  0
  140.8251   82.0972  221.8226 H   0  0  0  0  0  0  0  0  0  0  0  0
  1  2  1  0
  2  3  2  0
  3  4  1  0
  4  5  1  0
  5  6  1  0
  6  7  2  0
  7  8  1  0
  8  9  2  0
  9 10  1  0
 10 11  2  0
 11 12  1  0
 12 13  1  0
 13 14  2  0
 13 15  1  0
 15 16  1  0
 16 17  2  0
 17 18  1  0
 18 19  1  0
 18 20  2  0
 20 21  1  0
 21 22  1  0
 21 23  1  0
 23 24  2  0
 24 25  1  0
 25 26  2  0
 26 27  1  0
 27 28  2  0
 17  3  1  0
 28 23  1  0
 15  5  2  0
 12  7  1  0
  4 29  1  0
  8 30  1  0
  9 31  1  0
 10 32  1  0
 11 33  1  0
 16 34  1  0
 19 35  1  0
 21 36  1  6
 22 37  1  0
 22 38  1  0
 22 39  1  0
 24 40  1  0
 25 41  1  0
 26 42  1  0
 27 43  1  0
 28 44  1  0
M  END
>  <meeko>  (18) 
{"free_energy": -6.57, "intermolecular_energy": -8.36, "internal_energy": -2.26, "cluster_size": 17, "cluster_id": 2, "rank_in_cluster": 13}

$$$$

     RDKit          3D

 44 47  0  0  0  0  0  0  0  0999 V2000
  136.3230   77.1550  223.7530 H   0  0  0  0  0  0  0  0  0  0  0  0
  136.7640   76.3830  223.2040 N   0  0  0  0  0  0  0  0  0  0  0  0
  137.8950   76.5260  222.5860 C   0  0  0  0  0  0  0  0  0  0  0  0
  138.7140   75.4440  222.4200 N   0  0  0  0  0  0  0  0  0  0  0  0
  139.9000   75.5320  221.7600 C   0  0  0  0  0  0  0  0  0  0  0  0
  140.6790   74.4320  221.6180 N   0  0  0  0  0  0  0  0  0  0  0  0
  141.8680   74.4820  220.9660 C   0  0  0  0  0  0  0  0  0  0  0  0
  142.6290   73.3140  220.8520 C   0  0  0  0  0  0  0  0  0  0  0  0
  143.8500   73.3510  220.1840 C   0  0  0  0  0  0  0  0  0  0  0  0
  144.3010   74.5480  219.6370 C   0  0  0  0  0  0  0  0  0  0  0  0
  143.5230   75.7010  219.7650 C   0  0  0  0  0  0  0  0  0  0  0  0
  142.3170   75.6670  220.4230 N   0  0  0  0  0  0  0  0  0  0  0  0
  141.5540   76.8050  220.5460 C   0  0  0  0  0  0  0  0  0  0  0  0
  141.9530   77.8990  220.0550 O   0  0  0  0  0  0  0  0  0  0  0  0
  140.3210   76.7550  221.2220 C   0  0  0  0  0  0  0  0  0  0  0  0
  139.5020   77.8830  221.3810 C   0  0  0  0  0  0  0  0  0  0  0  0
  138.2780   77.7880  222.0680 C   0  0  0  0  0  0  0  0  0  0  0  0
  137.4330   79.0050  222.2360 C   0  0  0  0  0  0  0  0  0  0  0  0
  136.0600   78.8570  222.4590 O   0  0  0  0  0  0  0  0  0  0  0  0
  137.9990   80.1810  222.1850 N   0  0  0  0  0  0  0  0  0  0  0  0
  138.7630   80.8810  223.2260 C   0  0  1  0  0  0  0  0  0  0  0  0
  138.0850   80.7190  224.5950 C   0  0  0  0  0  0  0  0  0  0  0  0
  140.2450   80.5310  223.1620 C   0  0  0  0  0  0  0  0  0  0  0  0
  140.7030   79.4130  223.8840 C   0  0  0  0  0  0  0  0  0  0  0  0
  142.0500   79.0420  223.8460 C   0  0  0  0  0  0  0  0  0  0  0  0
  142.9570   79.7750  223.0790 C   0  0  0  0  0  0  0  0  0  0  0  0
  142.5170   80.8790  222.3470 C   0  0  0  0  0  0  0  0  0  0  0  0
  141.1720   81.2550  222.3790 C   0  0  0  0  0  0  0  0  0  0  0  0
  138.4270   74.5160  222.8060 H   0  0  0  0  0  0  0  0  0  0  0  0
  142.2650   72.3718  221.2875 H   0  0  0  0  0  0  0  0  0  0  0  0
  144.4556   72.4376  220.0892 H   0  0  0  0  0  0  0  0  0  0  0  0
  145.2642   74.5862  219.1070 H   0  0  0  0  0  0  0  0  0  0  0  0
  143.8800   76.6479  219.3338 H   0  0  0  0  0  0  0  0  0  0  0  0
  139.8198   78.8504  220.9648 H   0  0  0  0  0  0  0  0  0  0  0  0
  135.5640   77.9820  222.3840 H   0  0  0  0  0  0  0  0  0  0  0  0
  138.7485   81.9648  223.0385 H   0  0  0  0  0  0  0  0  0  0  0  0
  138.8221   80.8951  225.3923 H   0  0  0  0  0  0  0  0  0  0  0  0
  137.2650   81.4465  224.6865 H   0  0  0  0  0  0  0  0  0  0  0  0
  137.6825   79.6994  224.6865 H   0  0  0  0  0  0  0  0  0  0  0  0
  139.9933   78.8250  224.4845 H   0  0  0  0  0  0  0  0  0  0  0  0
  142.3960   78.1708  224.4216 H   0  0  0  0  0  0  0  0  0  0  0  0
  144.0172   79.4830  223.0514 H   0  0  0  0  0  0  0  0  0  0  0  0
  143.2325   81.4555  221.7423 H   0  0  0  0  0  0  0  0  0  0  0  0
  140.8323   82.1203  221.7908 H   0  0  0  0  0  0  0  0  0  0  0  0
  1  2  1  0
  2  3  2  0
  3  4  1  0
  4  5  1  0
  5  6  1  0
  6  7  2  0
  7  8  1  0
  8  9  2  0
  9 10  1  0
 10 11  2  0
 11 12  1  0
 12 13  1  0
 13 14  2  0
 13 15  1  0
 15 16  1  0
 16 17  2  0
 17 18  1  0
 18 19  1  0
 18 20  2  0
 20 21  1  0
 21 22  1  0
 21 23  1  0
 23 24  2  0
 24 25  1  0
 25 26  2  0
 26 27  1  0
 27 28  2  0
 17  3  1  0
 28 23  1  0
 15  5  2  0
 12  7  1  0
  4 29  1  0
  8 30  1  0
  9 31  1  0
 10 32  1  0
 11 33  1  0
 16 34  1  0
 19 35  1  0
 21 36  1  6
 22 37  1  0
 22 38  1  0
 22 39  1  0
 24 40  1  0
 25 41  1  0
 26 42  1  0
 27 43  1  0
 28 44  1  0
M  END
>  <meeko>  (19) 
{"free_energy": -6.6, "intermolecular_energy": -8.39, "internal_energy": -2.25, "cluster_size": 17, "cluster_id": 2, "rank_in_cluster": 3}

$$$$

     RDKit          3D

 44 47  0  0  0  0  0  0  0  0999 V2000
  136.3130   77.1740  223.7830 H   0  0  0  0  0  0  0  0  0  0  0  0
  136.7670   76.3870  223.2660 N   0  0  0  0  0  0  0  0  0  0  0  0
  137.8920   76.5270  222.6360 C   0  0  0  0  0  0  0  0  0  0  0  0
  138.7150   75.4470  222.4790 N   0  0  0  0  0  0  0  0  0  0  0  0
  139.8950   75.5300  221.8060 C   0  0  0  0  0  0  0  0  0  0  0  0
  140.6770   74.4320  221.6740 N   0  0  0  0  0  0  0  0  0  0  0  0
  141.8600   74.4770  221.0100 C   0  0  0  0  0  0  0  0  0  0  0  0
  142.6250   73.3110  220.9060 C   0  0  0  0  0  0  0  0  0  0  0  0
  143.8400   73.3440  220.2280 C   0  0  0  0  0  0  0  0  0  0  0  0
  144.2810   74.5350  219.6600 C   0  0  0  0  0  0  0  0  0  0  0  0
  143.4990   75.6860  219.7770 C   0  0  0  0  0  0  0  0  0  0  0  0
  142.2990   75.6570  220.4470 N   0  0  0  0  0  0  0  0  0  0  0  0
  141.5320   76.7930  220.5600 C   0  0  0  0  0  0  0  0  0  0  0  0
  141.9220   77.8810  220.0500 O   0  0  0  0  0  0  0  0  0  0  0  0
  140.3050   76.7470  221.2480 C   0  0  0  0  0  0  0  0  0  0  0  0
  139.4820   77.8730  221.3980 C   0  0  0  0  0  0  0  0  0  0  0  0
  138.2640   77.7830  222.0970 C   0  0  0  0  0  0  0  0  0  0  0  0
  137.4160   78.9980  222.2550 C   0  0  0  0  0  0  0  0  0  0  0  0
  136.0400   78.8490  222.4600 O   0  0  0  0  0  0  0  0  0  0  0  0
  137.9810   80.1760  222.2120 N   0  0  0  0  0  0  0  0  0  0  0  0
  138.7530   80.8650  223.2530 C   0  0  1  0  0  0  0  0  0  0  0  0
  138.0800   80.6960  224.6250 C   0  0  0  0  0  0  0  0  0  0  0  0
  140.2320   80.5100  223.1800 C   0  0  0  0  0  0  0  0  0  0  0  0
  140.6920   79.3930  223.9020 C   0  0  0  0  0  0  0  0  0  0  0  0
  142.0380   79.0170  223.8550 C   0  0  0  0  0  0  0  0  0  0  0  0
  142.9410   79.7450  223.0790 C   0  0  0  0  0  0  0  0  0  0  0  0
  142.5000   80.8480  222.3460 C   0  0  0  0  0  0  0  0  0  0  0  0
  141.1560   81.2290  222.3880 C   0  0  0  0  0  0  0  0  0  0  0  0
  138.4350   74.5220  222.8800 H   0  0  0  0  0  0  0  0  0  0  0  0
  142.2686   72.3733  221.3574 H   0  0  0  0  0  0  0  0  0  0  0  0
  144.4491   72.4321  220.1416 H   0  0  0  0  0  0  0  0  0  0  0  0
  145.2399   74.5698  219.1220 H   0  0  0  0  0  0  0  0  0  0  0  0
  143.8475   76.6275  219.3275 H   0  0  0  0  0  0  0  0  0  0  0  0
  139.7917   78.8356  220.9650 H   0  0  0  0  0  0  0  0  0  0  0  0
  135.5540   77.9660  222.4250 H   0  0  0  0  0  0  0  0  0  0  0  0
  138.7429   81.9500  223.0725 H   0  0  0  0  0  0  0  0  0  0  0  0
  138.8171   80.8811  225.4203 H   0  0  0  0  0  0  0  0  0  0  0  0
  137.2520   81.4141  224.7182 H   0  0  0  0  0  0  0  0  0  0  0  0
  137.6894   79.6719  224.7182 H   0  0  0  0  0  0  0  0  0  0  0  0
  139.9850   78.8094  224.5099 H   0  0  0  0  0  0  0  0  0  0  0  0
  142.3855   78.1463  224.4304 H   0  0  0  0  0  0  0  0  0  0  0  0
  144.0001   79.4497  223.0450 H   0  0  0  0  0  0  0  0  0  0  0  0
  143.2128   81.4193  221.7332 H   0  0  0  0  0  0  0  0  0  0  0  0
  140.8149   82.0943  221.8007 H   0  0  0  0  0  0  0  0  0  0  0  0
  1  2  1  0
  2  3  2  0
  3  4  1  0
  4  5  1  0
  5  6  1  0
  6  7  2  0
  7  8  1  0
  8  9  2  0
  9 10  1  0
 10 11  2  0
 11 12  1  0
 12 13  1  0
 13 14  2  0
 13 15  1  0
 15 16  1  0
 16 17  2  0
 17 18  1  0
 18 19  1  0
 18 20  2  0
 20 21  1  0
 21 22  1  0
 21 23  1  0
 23 24  2  0
 24 25  1  0
 25 26  2  0
 26 27  1  0
 27 28  2  0
 17  3  1  0
 28 23  1  0
 15  5  2  0
 12  7  1  0
  4 29  1  0
  8 30  1  0
  9 31  1  0
 10 32  1  0
 11 33  1  0
 16 34  1  0
 19 35  1  0
 21 36  1  6
 22 37  1  0
 22 38  1  0
 22 39  1  0
 24 40  1  0
 25 41  1  0
 26 42  1  0
 27 43  1  0
 28 44  1  0
M  END
>  <meeko>  (20) 
{"free_energy": -6.57, "intermolecular_energy": -8.36, "internal_energy": -2.26, "cluster_size": 17, "cluster_id": 2, "rank_in_cluster": 12}

$$$$
