
     RDKit          3D

 37 38  0  0  0  0  0  0  0  0999 V2000
  142.5840   74.8410  220.7020 O   0  0  0  0  0  0  0  0  0  0  0  0
  141.4100   74.3490  221.2800 C   0  0  0  0  0  0  0  0  0  0  0  0
  141.0530   73.0620  221.1930 C   0  0  0  0  0  0  0  0  0  0  0  0
  141.0540   72.1190  222.3640 C   0  0  0  0  0  0  0  0  0  0  0  0
  139.6840   71.4680  222.5860 C   0  0  0  0  0  0  0  0  0  0  0  0
  139.2530   71.6440  223.9390 O   0  0  0  0  0  0  0  0  0  0  0  0
  139.7100   70.9050  225.0420 C   0  0  0  0  0  0  0  0  0  0  0  0
  140.6200   71.4370  225.9750 C   0  0  0  0  0  0  0  0  0  0  0  0
  141.0310   70.6760  227.0730 C   0  0  0  0  0  0  0  0  0  0  0  0
  140.5540   69.3730  227.2420 C   0  0  0  0  0  0  0  0  0  0  0  0
  141.0690   68.4210  228.6220 Cl  0  0  0  0  0  0  0  0  0  0  0  0
  139.6730   68.8270  226.3050 C   0  0  0  0  0  0  0  0  0  0  0  0
  139.2570   69.5850  225.2050 C   0  0  0  0  0  0  0  0  0  0  0  0
  138.1330   68.8820  224.0520 Cl  0  0  0  0  0  0  0  0  0  0  0  0
  140.5500   75.2450  221.9790 N   0  0  0  0  0  0  0  0  0  0  0  0
  140.6610   76.6340  221.8310 N   0  0  0  0  0  0  0  0  0  0  0  0
  140.2020   77.4710  222.7120 C   0  0  0  0  0  0  0  0  0  0  0  0
  140.8340   78.7790  223.0050 C   0  0  0  0  0  0  0  0  0  0  0  0
  142.2090   78.9970  222.8090 C   0  0  0  0  0  0  0  0  0  0  0  0
  142.7720   80.2370  223.1160 C   0  0  0  0  0  0  0  0  0  0  0  0
  141.9610   81.2460  223.6380 C   0  0  0  0  0  0  0  0  0  0  0  0
  140.6390   81.0140  223.8490 N   0  0  0  0  0  0  0  0  0  0  0  0
  140.0640   79.8160  223.5580 C   0  0  0  0  0  0  0  0  0  0  0  0
  138.7390   79.6440  223.7890 F   0  0  0  0  0  0  0  0  0  0  0  0
  142.9500   75.7670  220.8910 H   0  0  0  0  0  0  0  0  0  0  0  0
  140.7421   72.6733  220.2120 H   0  0  0  0  0  0  0  0  0  0  0  0
  141.7963   71.3281  222.1810 H   0  0  0  0  0  0  0  0  0  0  0  0
  141.3011   72.7002  223.2647 H   0  0  0  0  0  0  0  0  0  0  0  0
  138.9503   71.9316  221.9102 H   0  0  0  0  0  0  0  0  0  0  0  0
  139.7669   70.3909  222.3788 H   0  0  0  0  0  0  0  0  0  0  0  0
  141.0096   72.4567  225.8393 H   0  0  0  0  0  0  0  0  0  0  0  0
  141.7314   71.1034  227.8057 H   0  0  0  0  0  0  0  0  0  0  0  0
  139.3054   67.7981  226.4325 H   0  0  0  0  0  0  0  0  0  0  0  0
  139.2957   77.1941  223.2705 H   0  0  0  0  0  0  0  0  0  0  0  0
  142.8421   78.1893  222.4132 H   0  0  0  0  0  0  0  0  0  0  0  0
  143.8441   80.4171  222.9482 H   0  0  0  0  0  0  0  0  0  0  0  0
  142.3922   82.2290  223.8785 H   0  0  0  0  0  0  0  0  0  0  0  0
  1  2  1  0
  2  3  2  0
  3  4  1  0
  4  5  1  0
  5  6  1  0
  6  7  1  0
  7  8  2  0
  8  9  1  0
  9 10  2  0
 10 11  1  0
 10 12  1  0
 12 13  2  0
 13 14  1  0
  2 15  1  0
 15 16  1  0
 16 17  2  0
 17 18  1  0
 18 19  2  0
 19 20  1  0
 20 21  2  0
 21 22  1  0
 22 23  2  0
 23 24  1  0
 13  7  1  0
 23 18  1  0
  1 25  1  0
  3 26  1  0
  4 27  1  0
  4 28  1  0
  5 29  1  0
  5 30  1  0
  8 31  1  0
  9 32  1  0
 12 33  1  0
 17 34  1  0
 19 35  1  0
 20 36  1  0
 21 37  1  0
M  CHG  1  15  -1
M  END
>  <meeko>  (1) 
{"free_energy": -6.05, "intermolecular_energy": -9.03, "internal_energy": -0.57, "cluster_size": 6, "cluster_id": 3, "rank_in_cluster": 1}

$$$$

     RDKit          3D

 37 38  0  0  0  0  0  0  0  0999 V2000
  139.9110   73.9500  222.3610 O   0  0  0  0  0  0  0  0  0  0  0  0
  140.6490   72.8290  221.9710 C   0  0  0  0  0  0  0  0  0  0  0  0
  141.5060   72.8560  220.9440 C   0  0  0  0  0  0  0  0  0  0  0  0
  141.5250   73.9450  219.9080 C   0  0  0  0  0  0  0  0  0  0  0  0
  142.1420   75.2440  220.4420 C   0  0  0  0  0  0  0  0  0  0  0  0
  141.1190   76.1730  220.8150 O   0  0  0  0  0  0  0  0  0  0  0  0
  141.3210   77.3580  221.5420 C   0  0  0  0  0  0  0  0  0  0  0  0
  141.0860   77.4340  222.9280 C   0  0  0  0  0  0  0  0  0  0  0  0
  141.3220   78.6260  223.6190 C   0  0  0  0  0  0  0  0  0  0  0  0
  141.7760   79.7560  222.9330 C   0  0  0  0  0  0  0  0  0  0  0  0
  142.0750   81.2500  223.8030 Cl  0  0  0  0  0  0  0  0  0  0  0  0
  141.9840   79.6970  221.5530 C   0  0  0  0  0  0  0  0  0  0  0  0
  141.7500   78.5060  220.8570 C   0  0  0  0  0  0  0  0  0  0  0  0
  142.0370   78.4520  219.1240 Cl  0  0  0  0  0  0  0  0  0  0  0  0
  140.4800   71.6040  222.6800 N   0  0  0  0  0  0  0  0  0  0  0  0
  139.9440   71.5730  223.9740 N   0  0  0  0  0  0  0  0  0  0  0  0
  140.6870   71.5170  225.0380 C   0  0  0  0  0  0  0  0  0  0  0  0
  140.5710   70.4520  226.0620 C   0  0  0  0  0  0  0  0  0  0  0  0
  140.2800   69.1200  225.7150 C   0  0  0  0  0  0  0  0  0  0  0  0
  140.1590   68.1480  226.7090 C   0  0  0  0  0  0  0  0  0  0  0  0
  140.3080   68.5160  228.0470 C   0  0  0  0  0  0  0  0  0  0  0  0
  140.5600   69.8100  228.3710 N   0  0  0  0  0  0  0  0  0  0  0  0
  140.6850   70.7780  227.4230 C   0  0  0  0  0  0  0  0  0  0  0  0
  140.9400   72.0530  227.8090 F   0  0  0  0  0  0  0  0  0  0  0  0
  139.9390   74.8330  221.8640 H   0  0  0  0  0  0  0  0  0  0  0  0
  142.2355   72.0378  220.8529 H   0  0  0  0  0  0  0  0  0  0  0  0
  142.1141   73.6020  219.0447 H   0  0  0  0  0  0  0  0  0  0  0  0
  140.4839   74.1582  219.6239 H   0  0  0  0  0  0  0  0  0  0  0  0
  142.7605   75.0150  221.3224 H   0  0  0  0  0  0  0  0  0  0  0  0
  142.7582   75.6949  219.6502 H   0  0  0  0  0  0  0  0  0  0  0  0
  140.7150   76.5514  223.4696 H   0  0  0  0  0  0  0  0  0  0  0  0
  141.1502   78.6748  224.7044 H   0  0  0  0  0  0  0  0  0  0  0  0
  142.3326   80.5891  221.0121 H   0  0  0  0  0  0  0  0  0  0  0  0
  141.4428   72.3022  225.1869 H   0  0  0  0  0  0  0  0  0  0  0  0
  140.1476   68.8442  224.6584 H   0  0  0  0  0  0  0  0  0  0  0  0
  139.9483   67.1023  226.4406 H   0  0  0  0  0  0  0  0  0  0  0  0
  140.2212   67.7576  228.8390 H   0  0  0  0  0  0  0  0  0  0  0  0
  1  2  1  0
  2  3  2  0
  3  4  1  0
  4  5  1  0
  5  6  1  0
  6  7  1  0
  7  8  2  0
  8  9  1  0
  9 10  2  0
 10 11  1  0
 10 12  1  0
 12 13  2  0
 13 14  1  0
  2 15  1  0
 15 16  1  0
 16 17  2  0
 17 18  1  0
 18 19  2  0
 19 20  1  0
 20 21  2  0
 21 22  1  0
 22 23  2  0
 23 24  1  0
 13  7  1  0
 23 18  1  0
  1 25  1  0
  3 26  1  0
  4 27  1  0
  4 28  1  0
  5 29  1  0
  5 30  1  0
  8 31  1  0
  9 32  1  0
 12 33  1  0
 17 34  1  0
 19 35  1  0
 20 36  1  0
 21 37  1  0
M  CHG  1  15  -1
M  END
>  <meeko>  (2) 
{"free_energy": -5.99, "intermolecular_energy": -8.97, "internal_energy": -1.05, "cluster_size": 6, "cluster_id": 1, "rank_in_cluster": 5}

$$$$

     RDKit          3D

 37 38  0  0  0  0  0  0  0  0999 V2000
  138.7580   67.7020  222.5610 O   0  0  0  0  0  0  0  0  0  0  0  0
  138.9420   68.7460  223.4730 C   0  0  0  0  0  0  0  0  0  0  0  0
  139.5450   69.8930  223.1370 C   0  0  0  0  0  0  0  0  0  0  0  0
  139.1010   71.2400  223.6330 C   0  0  0  0  0  0  0  0  0  0  0  0
  138.6620   72.1640  222.4910 C   0  0  0  0  0  0  0  0  0  0  0  0
  139.5420   73.2870  222.3810 O   0  0  0  0  0  0  0  0  0  0  0  0
  140.8040   73.2760  221.7660 C   0  0  0  0  0  0  0  0  0  0  0  0
  141.5060   72.0810  221.5190 C   0  0  0  0  0  0  0  0  0  0  0  0
  142.7510   72.1110  220.8820 C   0  0  0  0  0  0  0  0  0  0  0  0
  143.3140   73.3330  220.5030 C   0  0  0  0  0  0  0  0  0  0  0  0
  144.8740   73.3690  219.7010 Cl  0  0  0  0  0  0  0  0  0  0  0  0
  142.6370   74.5260  220.7700 C   0  0  0  0  0  0  0  0  0  0  0  0
  141.3910   74.5000  221.4060 C   0  0  0  0  0  0  0  0  0  0  0  0
  140.5510   76.0130  221.7120 Cl  0  0  0  0  0  0  0  0  0  0  0  0
  138.4870   68.5870  224.8140 N   0  0  0  0  0  0  0  0  0  0  0  0
  139.1480   67.7460  225.7180 N   0  0  0  0  0  0  0  0  0  0  0  0
  140.1790   68.1340  226.4080 C   0  0  0  0  0  0  0  0  0  0  0  0
  140.4330   69.5470  226.7760 C   0  0  0  0  0  0  0  0  0  0  0  0
  141.2030   70.3960  225.9620 C   0  0  0  0  0  0  0  0  0  0  0  0
  141.4380   71.7160  226.3520 C   0  0  0  0  0  0  0  0  0  0  0  0
  140.9210   72.1730  227.5640 C   0  0  0  0  0  0  0  0  0  0  0  0
  140.2020   71.3340  228.3560 N   0  0  0  0  0  0  0  0  0  0  0  0
  139.9560   70.0450  228.0000 C   0  0  0  0  0  0  0  0  0  0  0  0
  139.2310   69.2550  228.8310 F   0  0  0  0  0  0  0  0  0  0  0  0
  139.1930   66.7930  222.6640 H   0  0  0  0  0  0  0  0  0  0  0  0
  140.4120   69.8469  222.4616 H   0  0  0  0  0  0  0  0  0  0  0  0
  138.2546   71.1021  224.3219 H   0  0  0  0  0  0  0  0  0  0  0  0
  139.9567   71.7118  224.1380 H   0  0  0  0  0  0  0  0  0  0  0  0
  138.6753   71.6012  221.5460 H   0  0  0  0  0  0  0  0  0  0  0  0
  137.6468   72.5303  222.7034 H   0  0  0  0  0  0  0  0  0  0  0  0
  141.0731   71.1183  221.8286 H   0  0  0  0  0  0  0  0  0  0  0  0
  143.2874   71.1723  220.6792 H   0  0  0  0  0  0  0  0  0  0  0  0
  143.0847   75.4878  220.4795 H   0  0  0  0  0  0  0  0  0  0  0  0
  140.9018   67.3727  226.7364 H   0  0  0  0  0  0  0  0  0  0  0  0
  141.6210   70.0199  225.0165 H   0  0  0  0  0  0  0  0  0  0  0  0
  142.0251   72.3888  225.7096 H   0  0  0  0  0  0  0  0  0  0  0  0
  141.0950   73.2124  227.8791 H   0  0  0  0  0  0  0  0  0  0  0  0
  1  2  1  0
  2  3  2  0
  3  4  1  0
  4  5  1  0
  5  6  1  0
  6  7  1  0
  7  8  2  0
  8  9  1  0
  9 10  2  0
 10 11  1  0
 10 12  1  0
 12 13  2  0
 13 14  1  0
  2 15  1  0
 15 16  1  0
 16 17  2  0
 17 18  1  0
 18 19  2  0
 19 20  1  0
 20 21  2  0
 21 22  1  0
 22 23  2  0
 23 24  1  0
 13  7  1  0
 23 18  1  0
  1 25  1  0
  3 26  1  0
  4 27  1  0
  4 28  1  0
  5 29  1  0
  5 30  1  0
  8 31  1  0
  9 32  1  0
 12 33  1  0
 17 34  1  0
 19 35  1  0
 20 36  1  0
 21 37  1  0
M  CHG  1  15  -1
M  END
>  <meeko>  (3) 
{"free_energy": -5.96, "intermolecular_energy": -8.95, "internal_energy": -0.91, "cluster_size": 3, "cluster_id": 5, "rank_in_cluster": 1}

$$$$

     RDKit          3D

 37 38  0  0  0  0  0  0  0  0999 V2000
  139.7180   74.4760  222.3460 O   0  0  0  0  0  0  0  0  0  0  0  0
  140.1250   73.3420  221.6370 C   0  0  0  0  0  0  0  0  0  0  0  0
  140.4380   73.3850  220.3360 C   0  0  0  0  0  0  0  0  0  0  0  0
  141.7890   73.7940  219.8200 C   0  0  0  0  0  0  0  0  0  0  0  0
  142.3170   75.0570  220.5120 C   0  0  0  0  0  0  0  0  0  0  0  0
  141.2780   76.0330  220.6450 O   0  0  0  0  0  0  0  0  0  0  0  0
  141.3830   77.2440  221.3470 C   0  0  0  0  0  0  0  0  0  0  0  0
  141.0810   77.3430  222.7180 C   0  0  0  0  0  0  0  0  0  0  0  0
  141.2220   78.5630  223.3860 C   0  0  0  0  0  0  0  0  0  0  0  0
  141.6480   79.6980  222.6910 C   0  0  0  0  0  0  0  0  0  0  0  0
  141.8280   81.2270  223.5310 Cl  0  0  0  0  0  0  0  0  0  0  0  0
  141.9230   79.6150  221.3230 C   0  0  0  0  0  0  0  0  0  0  0  0
  141.7840   78.3960  220.6500 C   0  0  0  0  0  0  0  0  0  0  0  0
  142.1550   78.3140  218.9350 Cl  0  0  0  0  0  0  0  0  0  0  0  0
  140.2010   72.0890  222.3120 N   0  0  0  0  0  0  0  0  0  0  0  0
  140.3770   72.0130  223.6990 N   0  0  0  0  0  0  0  0  0  0  0  0
  139.7330   71.1620  224.4410 C   0  0  0  0  0  0  0  0  0  0  0  0
  140.1610   70.7800  225.8070 C   0  0  0  0  0  0  0  0  0  0  0  0
  140.6660   71.7260  226.7170 C   0  0  0  0  0  0  0  0  0  0  0  0
  141.0780   71.3240  227.9890 C   0  0  0  0  0  0  0  0  0  0  0  0
  141.0030   69.9740  228.3370 C   0  0  0  0  0  0  0  0  0  0  0  0
  140.5400   69.0660  227.4400 N   0  0  0  0  0  0  0  0  0  0  0  0
  140.1300   69.4300  226.1940 C   0  0  0  0  0  0  0  0  0  0  0  0
  139.6750   68.4770  225.3420 F   0  0  0  0  0  0  0  0  0  0  0  0
  139.3080   74.4330  223.2720 H   0  0  0  0  0  0  0  0  0  0  0  0
  139.6646   73.1059  219.6053 H   0  0  0  0  0  0  0  0  0  0  0  0
  142.4985   72.9717  219.9948 H   0  0  0  0  0  0  0  0  0  0  0  0
  141.6874   74.0148  218.7472 H   0  0  0  0  0  0  0  0  0  0  0  0
  142.6927   74.7911  221.5111 H   0  0  0  0  0  0  0  0  0  0  0  0
  143.1263   75.4830  219.9009 H   0  0  0  0  0  0  0  0  0  0  0  0
  140.7322   76.4558  223.2669 H   0  0  0  0  0  0  0  0  0  0  0  0
  140.9972   78.6296  224.4607 H   0  0  0  0  0  0  0  0  0  0  0  0
  142.2496   80.5105  220.7739 H   0  0  0  0  0  0  0  0  0  0  0  0
  138.8215   70.7008  224.0329 H   0  0  0  0  0  0  0  0  0  0  0  0
  140.7365   72.7845  226.4260 H   0  0  0  0  0  0  0  0  0  0  0  0
  141.4578   72.0633  228.7095 H   0  0  0  0  0  0  0  0  0  0  0  0
  141.3191   69.6459  229.3382 H   0  0  0  0  0  0  0  0  0  0  0  0
  1  2  1  0
  2  3  2  0
  3  4  1  0
  4  5  1  0
  5  6  1  0
  6  7  1  0
  7  8  2  0
  8  9  1  0
  9 10  2  0
 10 11  1  0
 10 12  1  0
 12 13  2  0
 13 14  1  0
  2 15  1  0
 15 16  1  0
 16 17  2  0
 17 18  1  0
 18 19  2  0
 19 20  1  0
 20 21  2  0
 21 22  1  0
 22 23  2  0
 23 24  1  0
 13  7  1  0
 23 18  1  0
  1 25  1  0
  3 26  1  0
  4 27  1  0
  4 28  1  0
  5 29  1  0
  5 30  1  0
  8 31  1  0
  9 32  1  0
 12 33  1  0
 17 34  1  0
 19 35  1  0
 20 36  1  0
 21 37  1  0
M  CHG  1  15  -1
M  END
>  <meeko>  (4) 
{"free_energy": -6.25, "intermolecular_energy": -9.23, "internal_energy": -0.59, "cluster_size": 6, "cluster_id": 1, "rank_in_cluster": 3}

$$$$

     RDKit          3D

 37 38  0  0  0  0  0  0  0  0999 V2000
  138.1880   73.8110  222.3020 O   0  0  0  0  0  0  0  0  0  0  0  0
  139.3720   73.7260  221.5650 C   0  0  0  0  0  0  0  0  0  0  0  0
  139.4960   72.9290  220.4970 C   0  0  0  0  0  0  0  0  0  0  0  0
  140.6840   72.0410  220.2570 C   0  0  0  0  0  0  0  0  0  0  0  0
  140.6160   70.7460  221.0760 C   0  0  0  0  0  0  0  0  0  0  0  0
  139.6200   70.8470  222.0990 O   0  0  0  0  0  0  0  0  0  0  0  0
  139.8560   70.7430  223.4790 C   0  0  0  0  0  0  0  0  0  0  0  0
  140.6860   71.6490  224.1660 C   0  0  0  0  0  0  0  0  0  0  0  0
  140.8760   71.5250  225.5460 C   0  0  0  0  0  0  0  0  0  0  0  0
  140.2580   70.4870  226.2490 C   0  0  0  0  0  0  0  0  0  0  0  0
  140.4950   70.3350  227.9800 Cl  0  0  0  0  0  0  0  0  0  0  0  0
  139.4550   69.5670  225.5690 C   0  0  0  0  0  0  0  0  0  0  0  0
  139.2600   69.6880  224.1890 C   0  0  0  0  0  0  0  0  0  0  0  0
  138.2320   68.5280  223.3620 Cl  0  0  0  0  0  0  0  0  0  0  0  0
  140.4980   74.5020  221.9650 N   0  0  0  0  0  0  0  0  0  0  0  0
  140.3640   75.8400  222.3590 N   0  0  0  0  0  0  0  0  0  0  0  0
  140.6980   76.8330  221.5900 C   0  0  0  0  0  0  0  0  0  0  0  0
  141.3110   78.0860  222.0910 C   0  0  0  0  0  0  0  0  0  0  0  0
  141.4580   78.3390  223.4670 C   0  0  0  0  0  0  0  0  0  0  0  0
  142.0220   79.5400  223.9010 C   0  0  0  0  0  0  0  0  0  0  0  0
  142.4170   80.4900  222.9590 C   0  0  0  0  0  0  0  0  0  0  0  0
  142.2440   80.2450  221.6330 N   0  0  0  0  0  0  0  0  0  0  0  0
  141.6990   79.0840  221.1820 C   0  0  0  0  0  0  0  0  0  0  0  0
  141.5530   78.8950  219.8470 F   0  0  0  0  0  0  0  0  0  0  0  0
  138.0530   74.4670  223.0620 H   0  0  0  0  0  0  0  0  0  0  0  0
  138.6842   72.9238  219.7547 H   0  0  0  0  0  0  0  0  0  0  0  0
  140.7226   71.7825  219.1885 H   0  0  0  0  0  0  0  0  0  0  0  0
  141.5842   72.5906  220.5694 H   0  0  0  0  0  0  0  0  0  0  0  0
  140.3643   69.9090  220.4081 H   0  0  0  0  0  0  0  0  0  0  0  0
  141.5939   70.5750  221.5497 H   0  0  0  0  0  0  0  0  0  0  0  0
  141.1874   72.4582  223.6149 H   0  0  0  0  0  0  0  0  0  0  0  0
  141.5132   72.2459  226.0793 H   0  0  0  0  0  0  0  0  0  0  0  0
  138.9749   68.7453  226.1206 H   0  0  0  0  0  0  0  0  0  0  0  0
  140.5160   76.7385  220.5093 H   0  0  0  0  0  0  0  0  0  0  0  0
  141.1282   77.5897  224.2017 H   0  0  0  0  0  0  0  0  0  0  0  0
  142.1537   79.7353  224.9755 H   0  0  0  0  0  0  0  0  0  0  0  0
  142.8684   81.4373  223.2890 H   0  0  0  0  0  0  0  0  0  0  0  0
  1  2  1  0
  2  3  2  0
  3  4  1  0
  4  5  1  0
  5  6  1  0
  6  7  1  0
  7  8  2  0
  8  9  1  0
  9 10  2  0
 10 11  1  0
 10 12  1  0
 12 13  2  0
 13 14  1  0
  2 15  1  0
 15 16  1  0
 16 17  2  0
 17 18  1  0
 18 19  2  0
 19 20  1  0
 20 21  2  0
 21 22  1  0
 22 23  2  0
 23 24  1  0
 13  7  1  0
 23 18  1  0
  1 25  1  0
  3 26  1  0
  4 27  1  0
  4 28  1  0
  5 29  1  0
  5 30  1  0
  8 31  1  0
  9 32  1  0
 12 33  1  0
 17 34  1  0
 19 35  1  0
 20 36  1  0
 21 37  1  0
M  CHG  1  15  -1
M  END
>  <meeko>  (5) 
{"free_energy": -5.39, "intermolecular_energy": -8.37, "internal_energy": -0.7, "cluster_size": 1, "cluster_id": 7, "rank_in_cluster": 1}

$$$$

     RDKit          3D

 37 38  0  0  0  0  0  0  0  0999 V2000
  139.3770   74.9930  222.7070 O   0  0  0  0  0  0  0  0  0  0  0  0
  140.3160   75.2450  221.7030 C   0  0  0  0  0  0  0  0  0  0  0  0
  141.2100   74.3290  221.3120 C   0  0  0  0  0  0  0  0  0  0  0  0
  140.8420   72.9300  220.9030 C   0  0  0  0  0  0  0  0  0  0  0  0
  141.0760   71.9160  222.0300 C   0  0  0  0  0  0  0  0  0  0  0  0
  140.1880   72.1640  223.1260 O   0  0  0  0  0  0  0  0  0  0  0  0
  140.2100   71.4930  224.3590 C   0  0  0  0  0  0  0  0  0  0  0  0
  141.0610   71.8860  225.4090 C   0  0  0  0  0  0  0  0  0  0  0  0
  141.0340   71.2060  226.6310 C   0  0  0  0  0  0  0  0  0  0  0  0
  140.1750   70.1190  226.8100 C   0  0  0  0  0  0  0  0  0  0  0  0
  140.1400   69.2690  228.3440 Cl  0  0  0  0  0  0  0  0  0  0  0  0
  139.3470   69.7050  225.7630 C   0  0  0  0  0  0  0  0  0  0  0  0
  139.3690   70.3830  224.5390 C   0  0  0  0  0  0  0  0  0  0  0  0
  138.3050   69.8540  223.2440 Cl  0  0  0  0  0  0  0  0  0  0  0  0
  140.3390   76.5250  221.0760 N   0  0  0  0  0  0  0  0  0  0  0  0
  139.4760   77.5520  221.4760 N   0  0  0  0  0  0  0  0  0  0  0  0
  139.5750   78.1400  222.6310 C   0  0  0  0  0  0  0  0  0  0  0  0
  140.6300   79.1290  222.9570 C   0  0  0  0  0  0  0  0  0  0  0  0
  141.9940   78.8480  222.7630 C   0  0  0  0  0  0  0  0  0  0  0  0
  142.9600   79.7970  223.1020 C   0  0  0  0  0  0  0  0  0  0  0  0
  142.5580   81.0150  223.6520 C   0  0  0  0  0  0  0  0  0  0  0  0
  141.2390   81.2640  223.8610 N   0  0  0  0  0  0  0  0  0  0  0  0
  140.2760   80.3580  223.5390 C   0  0  0  0  0  0  0  0  0  0  0  0
  138.9750   80.6640  223.7690 F   0  0  0  0  0  0  0  0  0  0  0  0
  139.1680   74.0640  223.0500 H   0  0  0  0  0  0  0  0  0  0  0  0
  142.2718   74.6154  221.2886 H   0  0  0  0  0  0  0  0  0  0  0  0
  139.7780   72.9107  220.6245 H   0  0  0  0  0  0  0  0  0  0  0  0
  141.4831   72.6465  220.0553 H   0  0  0  0  0  0  0  0  0  0  0  0
  140.8996   70.9008  221.6448 H   0  0  0  0  0  0  0  0  0  0  0  0
  142.1125   72.0145  222.3851 H   0  0  0  0  0  0  0  0  0  0  0  0
  141.7503   72.7316  225.2679 H   0  0  0  0  0  0  0  0  0  0  0  0
  141.6905   71.5278  227.4528 H   0  0  0  0  0  0  0  0  0  0  0  0
  138.6764   68.8441  225.9014 H   0  0  0  0  0  0  0  0  0  0  0  0
  138.8369   77.8905  223.4075 H   0  0  0  0  0  0  0  0  0  0  0  0
  142.3005   77.8785  222.3433 H   0  0  0  0  0  0  0  0  0  0  0  0
  144.0271   79.5869  222.9373 H   0  0  0  0  0  0  0  0  0  0  0  0
  143.3094   81.7736  223.9163 H   0  0  0  0  0  0  0  0  0  0  0  0
  1  2  1  0
  2  3  2  0
  3  4  1  0
  4  5  1  0
  5  6  1  0
  6  7  1  0
  7  8  2  0
  8  9  1  0
  9 10  2  0
 10 11  1  0
 10 12  1  0
 12 13  2  0
 13 14  1  0
  2 15  1  0
 15 16  1  0
 16 17  2  0
 17 18  1  0
 18 19  2  0
 19 20  1  0
 20 21  2  0
 21 22  1  0
 22 23  2  0
 23 24  1  0
 13  7  1  0
 23 18  1  0
  1 25  1  0
  3 26  1  0
  4 27  1  0
  4 28  1  0
  5 29  1  0
  5 30  1  0
  8 31  1  0
  9 32  1  0
 12 33  1  0
 17 34  1  0
 19 35  1  0
 20 36  1  0
 21 37  1  0
M  CHG  1  15  -1
M  END
>  <meeko>  (6) 
{"free_energy": -5.85, "intermolecular_energy": -8.83, "internal_energy": -1.07, "cluster_size": 6, "cluster_id": 3, "rank_in_cluster": 4}

$$$$

     RDKit          3D

 37 38  0  0  0  0  0  0  0  0999 V2000
  138.7470   68.1290  222.6430 O   0  0  0  0  0  0  0  0  0  0  0  0
  138.1800   68.9510  223.6210 C   0  0  0  0  0  0  0  0  0  0  0  0
  137.6430   70.1420  223.3330 C   0  0  0  0  0  0  0  0  0  0  0  0
  138.4510   71.3970  223.1570 C   0  0  0  0  0  0  0  0  0  0  0  0
  139.7440   71.1480  222.3710 C   0  0  0  0  0  0  0  0  0  0  0  0
  140.2620   72.3750  221.8470 O   0  0  0  0  0  0  0  0  0  0  0  0
  141.5820   72.5830  221.4140 C   0  0  0  0  0  0  0  0  0  0  0  0
  142.4840   71.5190  221.2230 C   0  0  0  0  0  0  0  0  0  0  0  0
  143.7820   71.7680  220.7680 C   0  0  0  0  0  0  0  0  0  0  0  0
  144.1990   73.0780  220.5180 C   0  0  0  0  0  0  0  0  0  0  0  0
  145.8270   73.3870  219.9430 Cl  0  0  0  0  0  0  0  0  0  0  0  0
  143.3190   74.1420  220.7330 C   0  0  0  0  0  0  0  0  0  0  0  0
  142.0180   73.8990  221.1870 C   0  0  0  0  0  0  0  0  0  0  0  0
  140.9260   75.2530  221.4310 Cl  0  0  0  0  0  0  0  0  0  0  0  0
  138.1820   68.5180  224.9790 N   0  0  0  0  0  0  0  0  0  0  0  0
  139.2300   67.7510  225.5030 N   0  0  0  0  0  0  0  0  0  0  0  0
  139.9070   68.1140  226.5520 C   0  0  0  0  0  0  0  0  0  0  0  0
  140.3270   69.5120  226.8110 C   0  0  0  0  0  0  0  0  0  0  0  0
  141.0530   70.2540  225.8620 C   0  0  0  0  0  0  0  0  0  0  0  0
  141.4490   71.5610  226.1510 C   0  0  0  0  0  0  0  0  0  0  0  0
  141.1360   72.1120  227.3940 C   0  0  0  0  0  0  0  0  0  0  0  0
  140.4590   71.3750  228.3130 N   0  0  0  0  0  0  0  0  0  0  0  0
  140.0590   70.1000  228.0580 C   0  0  0  0  0  0  0  0  0  0  0  0
  139.3840   69.4140  229.0140 F   0  0  0  0  0  0  0  0  0  0  0  0
  139.3900   67.3760  222.8560 H   0  0  0  0  0  0  0  0  0  0  0  0
  136.5508   70.2062  223.2188 H   0  0  0  0  0  0  0  0  0  0  0  0
  137.8435   72.1363  222.6145 H   0  0  0  0  0  0  0  0  0  0  0  0
  138.7286   71.7629  224.1565 H   0  0  0  0  0  0  0  0  0  0  0  0
  140.4918   70.6967  223.0397 H   0  0  0  0  0  0  0  0  0  0  0  0
  139.5233   70.4708  221.5328 H   0  0  0  0  0  0  0  0  0  0  0  0
  142.1658   70.4871  221.4328 H   0  0  0  0  0  0  0  0  0  0  0  0
  144.4768   70.9307  220.6064 H   0  0  0  0  0  0  0  0  0  0  0  0
  143.6502   75.1739  220.5447 H   0  0  0  0  0  0  0  0  0  0  0  0
  140.1828   67.3428  227.2863 H   0  0  0  0  0  0  0  0  0  0  0  0
  141.3089   69.8041  224.8914 H   0  0  0  0  0  0  0  0  0  0  0  0
  142.0026   72.1510  225.4057 H   0  0  0  0  0  0  0  0  0  0  0  0
  141.4374   73.1433  227.6300 H   0  0  0  0  0  0  0  0  0  0  0  0
  1  2  1  0
  2  3  2  0
  3  4  1  0
  4  5  1  0
  5  6  1  0
  6  7  1  0
  7  8  2  0
  8  9  1  0
  9 10  2  0
 10 11  1  0
 10 12  1  0
 12 13  2  0
 13 14  1  0
  2 15  1  0
 15 16  1  0
 16 17  2  0
 17 18  1  0
 18 19  2  0
 19 20  1  0
 20 21  2  0
 21 22  1  0
 22 23  2  0
 23 24  1  0
 13  7  1  0
 23 18  1  0
  1 25  1  0
  3 26  1  0
  4 27  1  0
  4 28  1  0
  5 29  1  0
  5 30  1  0
  8 31  1  0
  9 32  1  0
 12 33  1  0
 17 34  1  0
 19 35  1  0
 20 36  1  0
 21 37  1  0
M  CHG  1  15  -1
M  END
>  <meeko>  (7) 
{"free_energy": -5.53, "intermolecular_energy": -8.52, "internal_energy": -1.09, "cluster_size": 3, "cluster_id": 5, "rank_in_cluster": 3}

$$$$

     RDKit          3D

 37 38  0  0  0  0  0  0  0  0999 V2000
  142.2220   75.0110  221.0220 O   0  0  0  0  0  0  0  0  0  0  0  0
  141.0260   74.3860  221.3890 C   0  0  0  0  0  0  0  0  0  0  0  0
  140.8110   73.0800  221.1960 C   0  0  0  0  0  0  0  0  0  0  0  0
  139.4640   72.4290  221.3440 C   0  0  0  0  0  0  0  0  0  0  0  0
  139.1870   71.9900  222.7870 C   0  0  0  0  0  0  0  0  0  0  0  0
  140.2540   71.1750  223.2820 O   0  0  0  0  0  0  0  0  0  0  0  0
  140.3120   70.5960  224.5590 C   0  0  0  0  0  0  0  0  0  0  0  0
  141.0170   71.1930  225.6210 C   0  0  0  0  0  0  0  0  0  0  0  0
  141.0290   70.5960  226.8850 C   0  0  0  0  0  0  0  0  0  0  0  0
  140.3560   69.3900  227.0970 C   0  0  0  0  0  0  0  0  0  0  0  0
  140.3700   68.6440  228.6850 Cl  0  0  0  0  0  0  0  0  0  0  0  0
  139.6770   68.7750  226.0410 C   0  0  0  0  0  0  0  0  0  0  0  0
  139.6610   69.3700  224.7750 C   0  0  0  0  0  0  0  0  0  0  0  0
  138.7850   68.5870  223.4690 Cl  0  0  0  0  0  0  0  0  0  0  0  0
  139.9880   75.1640  221.9790 N   0  0  0  0  0  0  0  0  0  0  0  0
  140.2680   76.3150  222.7270 N   0  0  0  0  0  0  0  0  0  0  0  0
  139.9430   77.5070  222.3250 C   0  0  0  0  0  0  0  0  0  0  0  0
  140.6610   78.7350  222.7410 C   0  0  0  0  0  0  0  0  0  0  0  0
  142.0530   78.8660  222.5910 C   0  0  0  0  0  0  0  0  0  0  0  0
  142.6960   80.0300  223.0140 C   0  0  0  0  0  0  0  0  0  0  0  0
  141.9480   81.0490  223.6050 C   0  0  0  0  0  0  0  0  0  0  0  0
  140.6080   80.9000  223.7700 N   0  0  0  0  0  0  0  0  0  0  0  0
  139.9550   79.7770  223.3660 C   0  0  0  0  0  0  0  0  0  0  0  0
  138.6150   79.6860  223.5560 F   0  0  0  0  0  0  0  0  0  0  0  0
  142.5340   75.8880  221.4200 H   0  0  0  0  0  0  0  0  0  0  0  0
  141.6660   72.4481  220.9137 H   0  0  0  0  0  0  0  0  0  0  0  0
  138.6885   73.1462  221.0371 H   0  0  0  0  0  0  0  0  0  0  0  0
  139.4523   71.5302  220.7099 H   0  0  0  0  0  0  0  0  0  0  0  0
  139.0891   72.8820  223.4232 H   0  0  0  0  0  0  0  0  0  0  0  0
  138.2565   71.4036  222.8056 H   0  0  0  0  0  0  0  0  0  0  0  0
  141.5614   72.1344  225.4554 H   0  0  0  0  0  0  0  0  0  0  0  0
  141.5692   71.0765  227.7141 H   0  0  0  0  0  0  0  0  0  0  0  0
  139.1543   67.8213  226.2059 H   0  0  0  0  0  0  0  0  0  0  0  0
  139.0892   77.6103  221.6392 H   0  0  0  0  0  0  0  0  0  0  0  0
  142.6359   78.0497  222.1395 H   0  0  0  0  0  0  0  0  0  0  0  0
  143.7823   80.1432  222.8828 H   0  0  0  0  0  0  0  0  0  0  0  0
  142.4436   81.9731  223.9373 H   0  0  0  0  0  0  0  0  0  0  0  0
  1  2  1  0
  2  3  2  0
  3  4  1  0
  4  5  1  0
  5  6  1  0
  6  7  1  0
  7  8  2  0
  8  9  1  0
  9 10  2  0
 10 11  1  0
 10 12  1  0
 12 13  2  0
 13 14  1  0
  2 15  1  0
 15 16  1  0
 16 17  2  0
 17 18  1  0
 18 19  2  0
 19 20  1  0
 20 21  2  0
 21 22  1  0
 22 23  2  0
 23 24  1  0
 13  7  1  0
 23 18  1  0
  1 25  1  0
  3 26  1  0
  4 27  1  0
  4 28  1  0
  5 29  1  0
  5 30  1  0
  8 31  1  0
  9 32  1  0
 12 33  1  0
 17 34  1  0
 19 35  1  0
 20 36  1  0
 21 37  1  0
M  CHG  1  15  -1
M  END
>  <meeko>  (8) 
{"free_energy": -6.04, "intermolecular_energy": -9.02, "internal_energy": -0.66, "cluster_size": 6, "cluster_id": 3, "rank_in_cluster": 2}

$$$$

     RDKit          3D

 37 38  0  0  0  0  0  0  0  0999 V2000
  139.5570   73.4370  222.3390 O   0  0  0  0  0  0  0  0  0  0  0  0
  140.5810   72.5070  222.1420 C   0  0  0  0  0  0  0  0  0  0  0  0
  141.5130   72.6570  221.1940 C   0  0  0  0  0  0  0  0  0  0  0  0
  142.1660   73.9720  220.8710 C   0  0  0  0  0  0  0  0  0  0  0  0
  141.1460   75.1100  220.7410 C   0  0  0  0  0  0  0  0  0  0  0  0
  140.7430   75.5800  222.0310 O   0  0  0  0  0  0  0  0  0  0  0  0
  140.3840   76.9010  222.3410 C   0  0  0  0  0  0  0  0  0  0  0  0
  141.3440   77.9050  222.5680 C   0  0  0  0  0  0  0  0  0  0  0  0
  140.9440   79.2140  222.8500 C   0  0  0  0  0  0  0  0  0  0  0  0
  139.5850   79.5310  222.9280 C   0  0  0  0  0  0  0  0  0  0  0  0
  139.0850   81.1750  223.2790 Cl  0  0  0  0  0  0  0  0  0  0  0  0
  138.6250   78.5340  222.7320 C   0  0  0  0  0  0  0  0  0  0  0  0
  139.0210   77.2220  222.4480 C   0  0  0  0  0  0  0  0  0  0  0  0
  137.7940   75.9920  222.1880 Cl  0  0  0  0  0  0  0  0  0  0  0  0
  140.6360   71.3470  222.9680 N   0  0  0  0  0  0  0  0  0  0  0  0
  140.1630   71.3630  224.2870 N   0  0  0  0  0  0  0  0  0  0  0  0
  140.9540   71.3010  225.3150 C   0  0  0  0  0  0  0  0  0  0  0  0
  140.8810   70.2340  226.3410 C   0  0  0  0  0  0  0  0  0  0  0  0
  141.0820   68.8800  226.0180 C   0  0  0  0  0  0  0  0  0  0  0  0
  140.9840   67.9020  227.0080 C   0  0  0  0  0  0  0  0  0  0  0  0
  140.6640   68.2790  228.3130 C   0  0  0  0  0  0  0  0  0  0  0  0
  140.4450   69.5870  228.6080 N   0  0  0  0  0  0  0  0  0  0  0  0
  140.5350   70.5620  227.6630 C   0  0  0  0  0  0  0  0  0  0  0  0
  140.3070   71.8500  228.0180 F   0  0  0  0  0  0  0  0  0  0  0  0
  139.5650   74.1220  223.0850 H   0  0  0  0  0  0  0  0  0  0  0  0
  141.8181   71.7699  220.6196 H   0  0  0  0  0  0  0  0  0  0  0  0
  142.8749   74.2220  221.6741 H   0  0  0  0  0  0  0  0  0  0  0  0
  142.6779   73.8657  219.9032 H   0  0  0  0  0  0  0  0  0  0  0  0
  141.6010   75.9400  220.1806 H   0  0  0  0  0  0  0  0  0  0  0  0
  140.2599   74.7308  220.2109 H   0  0  0  0  0  0  0  0  0  0  0  0
  142.4150   77.6579  222.5232 H   0  0  0  0  0  0  0  0  0  0  0  0
  141.7003   79.9964  223.0109 H   0  0  0  0  0  0  0  0  0  0  0  0
  137.5554   78.7813  222.8012 H   0  0  0  0  0  0  0  0  0  0  0  0
  141.7194   72.0825  225.4305 H   0  0  0  0  0  0  0  0  0  0  0  0
  141.3169   68.5916  224.9828 H   0  0  0  0  0  0  0  0  0  0  0  0
  141.1573   66.8439  226.7623 H   0  0  0  0  0  0  0  0  0  0  0  0
  140.5891   67.5171  229.1029 H   0  0  0  0  0  0  0  0  0  0  0  0
  1  2  1  0
  2  3  2  0
  3  4  1  0
  4  5  1  0
  5  6  1  0
  6  7  1  0
  7  8  2  0
  8  9  1  0
  9 10  2  0
 10 11  1  0
 10 12  1  0
 12 13  2  0
 13 14  1  0
  2 15  1  0
 15 16  1  0
 16 17  2  0
 17 18  1  0
 18 19  2  0
 19 20  1  0
 20 21  2  0
 21 22  1  0
 22 23  2  0
 23 24  1  0
 13  7  1  0
 23 18  1  0
  1 25  1  0
  3 26  1  0
  4 27  1  0
  4 28  1  0
  5 29  1  0
  5 30  1  0
  8 31  1  0
  9 32  1  0
 12 33  1  0
 17 34  1  0
 19 35  1  0
 20 36  1  0
 21 37  1  0
M  CHG  1  15  -1
M  END
>  <meeko>  (9) 
{"free_energy": -5.95, "intermolecular_energy": -8.93, "internal_energy": -0.91, "cluster_size": 2, "cluster_id": 6, "rank_in_cluster": 1}

$$$$

     RDKit          3D

 37 38  0  0  0  0  0  0  0  0999 V2000
  139.8690   73.5810  222.7090 O   0  0  0  0  0  0  0  0  0  0  0  0
  138.9380   72.6480  222.2450 C   0  0  0  0  0  0  0  0  0  0  0  0
  137.8490   73.0040  221.5530 C   0  0  0  0  0  0  0  0  0  0  0  0
  137.7590   74.2630  220.7370 C   0  0  0  0  0  0  0  0  0  0  0  0
  137.5880   75.5110  221.6110 C   0  0  0  0  0  0  0  0  0  0  0  0
  138.7750   75.7650  222.3690 O   0  0  0  0  0  0  0  0  0  0  0  0
  139.4610   76.9890  222.4220 C   0  0  0  0  0  0  0  0  0  0  0  0
  138.9210   78.1230  223.0560 C   0  0  0  0  0  0  0  0  0  0  0  0
  139.6470   79.3170  223.1070 C   0  0  0  0  0  0  0  0  0  0  0  0
  140.9090   79.3950  222.5120 C   0  0  0  0  0  0  0  0  0  0  0  0
  141.8210   80.8920  222.5800 Cl  0  0  0  0  0  0  0  0  0  0  0  0
  141.4410   78.2820  221.8560 C   0  0  0  0  0  0  0  0  0  0  0  0
  140.7180   77.0850  221.8030 C   0  0  0  0  0  0  0  0  0  0  0  0
  141.4170   75.6940  220.9880 Cl  0  0  0  0  0  0  0  0  0  0  0  0
  139.1400   71.2650  222.5250 N   0  0  0  0  0  0  0  0  0  0  0  0
  139.0970   70.7680  223.8340 N   0  0  0  0  0  0  0  0  0  0  0  0
  139.9160   71.1660  224.7610 C   0  0  0  0  0  0  0  0  0  0  0  0
  140.2140   70.3800  225.9820 C   0  0  0  0  0  0  0  0  0  0  0  0
  139.9080   69.0100  226.0740 C   0  0  0  0  0  0  0  0  0  0  0  0
  140.1850   68.3090  227.2480 C   0  0  0  0  0  0  0  0  0  0  0  0
  140.7470   68.9840  228.3320 C   0  0  0  0  0  0  0  0  0  0  0  0
  141.0110   70.3130  228.2410 N   0  0  0  0  0  0  0  0  0  0  0  0
  140.7540   71.0220  227.1090 C   0  0  0  0  0  0  0  0  0  0  0  0
  141.0420   72.3470  227.0770 F   0  0  0  0  0  0  0  0  0  0  0  0
  139.6080   74.4850  223.0860 H   0  0  0  0  0  0  0  0  0  0  0  0
  136.9729   72.3395  221.5831 H   0  0  0  0  0  0  0  0  0  0  0  0
  138.6808   74.3684  220.1461 H   0  0  0  0  0  0  0  0  0  0  0  0
  136.8739   74.1818  220.0889 H   0  0  0  0  0  0  0  0  0  0  0  0
  137.3792   76.3774  220.9662 H   0  0  0  0  0  0  0  0  0  0  0  0
  136.7532   75.3431  222.3074 H   0  0  0  0  0  0  0  0  0  0  0  0
  137.9223   78.0700  223.5140 H   0  0  0  0  0  0  0  0  0  0  0  0
  139.2243   80.1958  223.6160 H   0  0  0  0  0  0  0  0  0  0  0  0
  142.4306   78.3468  221.3800 H   0  0  0  0  0  0  0  0  0  0  0  0
  140.4148   72.1380  224.6329 H   0  0  0  0  0  0  0  0  0  0  0  0
  139.4498   68.4909  225.2193 H   0  0  0  0  0  0  0  0  0  0  0  0
  139.9624   67.2341  227.3183 H   0  0  0  0  0  0  0  0  0  0  0  0
  140.9762   68.4399  229.2601 H   0  0  0  0  0  0  0  0  0  0  0  0
  1  2  1  0
  2  3  2  0
  3  4  1  0
  4  5  1  0
  5  6  1  0
  6  7  1  0
  7  8  2  0
  8  9  1  0
  9 10  2  0
 10 11  1  0
 10 12  1  0
 12 13  2  0
 13 14  1  0
  2 15  1  0
 15 16  1  0
 16 17  2  0
 17 18  1  0
 18 19  2  0
 19 20  1  0
 20 21  2  0
 21 22  1  0
 22 23  2  0
 23 24  1  0
 13  7  1  0
 23 18  1  0
  1 25  1  0
  3 26  1  0
  4 27  1  0
  4 28  1  0
  5 29  1  0
  5 30  1  0
  8 31  1  0
  9 32  1  0
 12 33  1  0
 17 34  1  0
 19 35  1  0
 20 36  1  0
 21 37  1  0
M  CHG  1  15  -1
M  END
>  <meeko>  (10) 
{"free_energy": -5.52, "intermolecular_energy": -8.5, "internal_energy": -1.07, "cluster_size": 2, "cluster_id": 6, "rank_in_cluster": 2}

$$$$

     RDKit          3D

 37 38  0  0  0  0  0  0  0  0999 V2000
  139.9380   73.7600  222.7050 O   0  0  0  0  0  0  0  0  0  0  0  0
  139.6950   74.2210  221.4080 C   0  0  0  0  0  0  0  0  0  0  0  0
  139.0680   73.4780  220.4880 C   0  0  0  0  0  0  0  0  0  0  0  0
  139.4400   72.0550  220.1770 C   0  0  0  0  0  0  0  0  0  0  0  0
  140.1430   71.3680  221.3540 C   0  0  0  0  0  0  0  0  0  0  0  0
  139.2490   71.2210  222.4620 O   0  0  0  0  0  0  0  0  0  0  0  0
  139.6200   70.8450  223.7630 C   0  0  0  0  0  0  0  0  0  0  0  0
  140.6800   71.4680  224.4490 C   0  0  0  0  0  0  0  0  0  0  0  0
  141.0020   71.0800  225.7530 C   0  0  0  0  0  0  0  0  0  0  0  0
  140.2830   70.0570  226.3780 C   0  0  0  0  0  0  0  0  0  0  0  0
  140.6860   69.5740  228.0150 Cl  0  0  0  0  0  0  0  0  0  0  0  0
  139.2490   69.4140  225.6940 C   0  0  0  0  0  0  0  0  0  0  0  0
  138.9220   69.7990  224.3890 C   0  0  0  0  0  0  0  0  0  0  0  0
  137.6040   68.9870  223.5570 Cl  0  0  0  0  0  0  0  0  0  0  0  0
  140.1390   75.5240  221.0380 N   0  0  0  0  0  0  0  0  0  0  0  0
  140.7020   76.4000  221.9750 N   0  0  0  0  0  0  0  0  0  0  0  0
  140.0820   77.4580  222.4050 C   0  0  0  0  0  0  0  0  0  0  0  0
  140.7740   78.7080  222.8000 C   0  0  0  0  0  0  0  0  0  0  0  0
  142.1540   78.8860  222.5950 C   0  0  0  0  0  0  0  0  0  0  0  0
  142.7740   80.0700  222.9990 C   0  0  0  0  0  0  0  0  0  0  0  0
  142.0160   81.0600  223.6250 C   0  0  0  0  0  0  0  0  0  0  0  0
  140.6900   80.8640  223.8430 N   0  0  0  0  0  0  0  0  0  0  0  0
  140.0590   79.7220  223.4590 C   0  0  0  0  0  0  0  0  0  0  0  0
  138.7320   79.5840  223.7010 F   0  0  0  0  0  0  0  0  0  0  0  0
  139.2570   73.2380  223.2450 H   0  0  0  0  0  0  0  0  0  0  0  0
  138.2363   73.9328  219.9299 H   0  0  0  0  0  0  0  0  0  0  0  0
  138.5248   71.4946  219.9354 H   0  0  0  0  0  0  0  0  0  0  0  0
  140.1389   72.0673  219.3276 H   0  0  0  0  0  0  0  0  0  0  0  0
  140.4907   70.3739  221.0364 H   0  0  0  0  0  0  0  0  0  0  0  0
  140.9954   71.9886  221.6676 H   0  0  0  0  0  0  0  0  0  0  0  0
  141.2577   72.2640  223.9565 H   0  0  0  0  0  0  0  0  0  0  0  0
  141.8225   71.5805  226.2880 H   0  0  0  0  0  0  0  0  0  0  0  0
  138.6899   68.6024  226.1826 H   0  0  0  0  0  0  0  0  0  0  0  0
  138.9851   77.4242  222.4799 H   0  0  0  0  0  0  0  0  0  0  0  0
  142.7454   78.0917  222.1160 H   0  0  0  0  0  0  0  0  0  0  0  0
  143.8497   80.2208  222.8254 H   0  0  0  0  0  0  0  0  0  0  0  0
  142.4925   81.9994  223.9420 H   0  0  0  0  0  0  0  0  0  0  0  0
  1  2  1  0
  2  3  2  0
  3  4  1  0
  4  5  1  0
  5  6  1  0
  6  7  1  0
  7  8  2  0
  8  9  1  0
  9 10  2  0
 10 11  1  0
 10 12  1  0
 12 13  2  0
 13 14  1  0
  2 15  1  0
 15 16  1  0
 16 17  2  0
 17 18  1  0
 18 19  2  0
 19 20  1  0
 20 21  2  0
 21 22  1  0
 22 23  2  0
 23 24  1  0
 13  7  1  0
 23 18  1  0
  1 25  1  0
  3 26  1  0
  4 27  1  0
  4 28  1  0
  5 29  1  0
  5 30  1  0
  8 31  1  0
  9 32  1  0
 12 33  1  0
 17 34  1  0
 19 35  1  0
 20 36  1  0
 21 37  1  0
M  CHG  1  15  -1
M  END
>  <meeko>  (11) 
{"free_energy": -5.51, "intermolecular_energy": -8.5, "internal_energy": -0.92, "cluster_size": 6, "cluster_id": 3, "rank_in_cluster": 6}

$$$$

     RDKit          3D

 37 38  0  0  0  0  0  0  0  0999 V2000
  138.9580   74.7080  222.1660 O   0  0  0  0  0  0  0  0  0  0  0  0
  140.2950   74.3500  221.9680 C   0  0  0  0  0  0  0  0  0  0  0  0
  141.1710   75.1600  221.3610 C   0  0  0  0  0  0  0  0  0  0  0  0
  141.2810   75.2940  219.8680 C   0  0  0  0  0  0  0  0  0  0  0  0
  142.1020   76.5220  219.4550 C   0  0  0  0  0  0  0  0  0  0  0  0
  141.3700   77.7260  219.7020 O   0  0  0  0  0  0  0  0  0  0  0  0
  141.5790   78.6000  220.7810 C   0  0  0  0  0  0  0  0  0  0  0  0
  141.4490   78.1810  222.1190 C   0  0  0  0  0  0  0  0  0  0  0  0
  141.6900   79.0770  223.1660 C   0  0  0  0  0  0  0  0  0  0  0  0
  142.0450   80.4000  222.8890 C   0  0  0  0  0  0  0  0  0  0  0  0
  142.3510   81.5200  224.2030 Cl  0  0  0  0  0  0  0  0  0  0  0  0
  142.1490   80.8310  221.5640 C   0  0  0  0  0  0  0  0  0  0  0  0
  141.9100   79.9380  220.5120 C   0  0  0  0  0  0  0  0  0  0  0  0
  142.0660   80.5000  218.8550 Cl  0  0  0  0  0  0  0  0  0  0  0  0
  140.7470   73.0750  222.4140 N   0  0  0  0  0  0  0  0  0  0  0  0
  139.9520   72.2580  223.2280 N   0  0  0  0  0  0  0  0  0  0  0  0
  140.4080   71.1840  223.8010 C   0  0  0  0  0  0  0  0  0  0  0  0
  140.4220   70.9840  225.2700 C   0  0  0  0  0  0  0  0  0  0  0  0
  141.0790   71.8800  226.1330 C   0  0  0  0  0  0  0  0  0  0  0  0
  141.0880   71.6470  227.5090 C   0  0  0  0  0  0  0  0  0  0  0  0
  140.4580   70.5090  228.0140 C   0  0  0  0  0  0  0  0  0  0  0  0
  139.8500   69.6360  227.1680 N   0  0  0  0  0  0  0  0  0  0  0  0
  139.8250   69.8390  225.8220 C   0  0  0  0  0  0  0  0  0  0  0  0
  139.2020   68.9340  225.0280 F   0  0  0  0  0  0  0  0  0  0  0  0
  138.3420   74.2180  222.8040 H   0  0  0  0  0  0  0  0  0  0  0  0
  141.8466   75.7598  221.9886 H   0  0  0  0  0  0  0  0  0  0  0  0
  141.7661   74.3922  219.4663 H   0  0  0  0  0  0  0  0  0  0  0  0
  140.2650   75.4159  219.4643 H   0  0  0  0  0  0  0  0  0  0  0  0
  143.0370   76.5426  220.0341 H   0  0  0  0  0  0  0  0  0  0  0  0
  142.3208   76.4556  218.3790 H   0  0  0  0  0  0  0  0  0  0  0  0
  141.1566   77.1443  222.3420 H   0  0  0  0  0  0  0  0  0  0  0  0
  141.5999   78.7396  224.2091 H   0  0  0  0  0  0  0  0  0  0  0  0
  142.4194   81.8748  221.3465 H   0  0  0  0  0  0  0  0  0  0  0  0
  140.8045   70.3811  223.1622 H   0  0  0  0  0  0  0  0  0  0  0  0
  141.5864   72.7655  225.7226 H   0  0  0  0  0  0  0  0  0  0  0  0
  141.5868   72.3535  228.1887 H   0  0  0  0  0  0  0  0  0  0  0  0
  140.4534   70.3183  229.0973 H   0  0  0  0  0  0  0  0  0  0  0  0
  1  2  1  0
  2  3  2  0
  3  4  1  0
  4  5  1  0
  5  6  1  0
  6  7  1  0
  7  8  2  0
  8  9  1  0
  9 10  2  0
 10 11  1  0
 10 12  1  0
 12 13  2  0
 13 14  1  0
  2 15  1  0
 15 16  1  0
 16 17  2  0
 17 18  1  0
 18 19  2  0
 19 20  1  0
 20 21  2  0
 21 22  1  0
 22 23  2  0
 23 24  1  0
 13  7  1  0
 23 18  1  0
  1 25  1  0
  3 26  1  0
  4 27  1  0
  4 28  1  0
  5 29  1  0
  5 30  1  0
  8 31  1  0
  9 32  1  0
 12 33  1  0
 17 34  1  0
 19 35  1  0
 20 36  1  0
 21 37  1  0
M  CHG  1  15  -1
M  END
>  <meeko>  (12) 
{"free_energy": -6.32, "intermolecular_energy": -9.3, "internal_energy": -0.66, "cluster_size": 6, "cluster_id": 1, "rank_in_cluster": 2}

$$$$

     RDKit          3D

 37 38  0  0  0  0  0  0  0  0999 V2000
  138.3130   72.8590  222.3160 O   0  0  0  0  0  0  0  0  0  0  0  0
  139.6090   73.3720  222.2070 C   0  0  0  0  0  0  0  0  0  0  0  0
  139.8860   74.4750  221.5010 C   0  0  0  0  0  0  0  0  0  0  0  0
  140.7340   74.4760  220.2600 C   0  0  0  0  0  0  0  0  0  0  0  0
  141.6420   75.7100  220.1790 C   0  0  0  0  0  0  0  0  0  0  0  0
  140.8990   76.9030  220.4520 O   0  0  0  0  0  0  0  0  0  0  0  0
  141.2760   77.9060  221.3590 C   0  0  0  0  0  0  0  0  0  0  0  0
  141.1520   77.7420  222.7510 C   0  0  0  0  0  0  0  0  0  0  0  0
  141.5610   78.7570  223.6210 C   0  0  0  0  0  0  0  0  0  0  0  0
  142.0790   79.9500  223.1120 C   0  0  0  0  0  0  0  0  0  0  0  0
  142.5950   81.2220  224.2050 Cl  0  0  0  0  0  0  0  0  0  0  0  0
  142.1780   80.1340  221.7300 C   0  0  0  0  0  0  0  0  0  0  0  0
  141.7720   79.1200  220.8550 C   0  0  0  0  0  0  0  0  0  0  0  0
  141.9240   79.3680  219.1220 Cl  0  0  0  0  0  0  0  0  0  0  0  0
  140.6820   72.6970  222.8570 N   0  0  0  0  0  0  0  0  0  0  0  0
  140.5110   71.4310  223.4320 N   0  0  0  0  0  0  0  0  0  0  0  0
  140.2940   71.2640  224.7030 C   0  0  0  0  0  0  0  0  0  0  0  0
  140.1800   69.9330  225.3450 C   0  0  0  0  0  0  0  0  0  0  0  0
  141.0240   69.5470  226.4020 C   0  0  0  0  0  0  0  0  0  0  0  0
  140.8990   68.2770  226.9680 C   0  0  0  0  0  0  0  0  0  0  0  0
  139.9470   67.3920  226.4610 C   0  0  0  0  0  0  0  0  0  0  0  0
  139.1570   67.7670  225.4210 N   0  0  0  0  0  0  0  0  0  0  0  0
  139.2550   68.9980  224.8510 C   0  0  0  0  0  0  0  0  0  0  0  0
  138.4380   69.3160  223.8170 F   0  0  0  0  0  0  0  0  0  0  0  0
  137.7720   72.8970  223.1710 H   0  0  0  0  0  0  0  0  0  0  0  0
  139.4705   75.4326  221.8479 H   0  0  0  0  0  0  0  0  0  0  0  0
  141.3625   73.5732  220.2598 H   0  0  0  0  0  0  0  0  0  0  0  0
  140.0601   74.4952  219.3908 H   0  0  0  0  0  0  0  0  0  0  0  0
  142.4516   75.6118  220.9172 H   0  0  0  0  0  0  0  0  0  0  0  0
  142.0583   75.7770  219.1630 H   0  0  0  0  0  0  0  0  0  0  0  0
  140.7310   76.8103  223.1568 H   0  0  0  0  0  0  0  0  0  0  0  0
  141.4747   78.6158  224.7085 H   0  0  0  0  0  0  0  0  0  0  0  0
  142.5759   81.0779  221.3292 H   0  0  0  0  0  0  0  0  0  0  0  0
  140.1895   72.1580  225.3354 H   0  0  0  0  0  0  0  0  0  0  0  0
  141.7830   70.2462  226.7828 H   0  0  0  0  0  0  0  0  0  0  0  0
  141.5452   67.9768  227.8061 H   0  0  0  0  0  0  0  0  0  0  0  0
  139.8360   66.3909  226.9031 H   0  0  0  0  0  0  0  0  0  0  0  0
  1  2  1  0
  2  3  2  0
  3  4  1  0
  4  5  1  0
  5  6  1  0
  6  7  1  0
  7  8  2  0
  8  9  1  0
  9 10  2  0
 10 11  1  0
 10 12  1  0
 12 13  2  0
 13 14  1  0
  2 15  1  0
 15 16  1  0
 16 17  2  0
 17 18  1  0
 18 19  2  0
 19 20  1  0
 20 21  2  0
 21 22  1  0
 22 23  2  0
 23 24  1  0
 13  7  1  0
 23 18  1  0
  1 25  1  0
  3 26  1  0
  4 27  1  0
  4 28  1  0
  5 29  1  0
  5 30  1  0
  8 31  1  0
  9 32  1  0
 12 33  1  0
 17 34  1  0
 19 35  1  0
 20 36  1  0
 21 37  1  0
M  CHG  1  15  -1
M  END
>  <meeko>  (13) 
{"free_energy": -6.14, "intermolecular_energy": -9.12, "internal_energy": -0.39, "cluster_size": 6, "cluster_id": 1, "rank_in_cluster": 4}

$$$$

     RDKit          3D

 37 38  0  0  0  0  0  0  0  0999 V2000
  138.4580   75.5130  220.7330 O   0  0  0  0  0  0  0  0  0  0  0  0
  139.3530   74.8510  221.5780 C   0  0  0  0  0  0  0  0  0  0  0  0
  139.2260   73.5540  221.8830 C   0  0  0  0  0  0  0  0  0  0  0  0
  140.3880   72.6610  222.2160 C   0  0  0  0  0  0  0  0  0  0  0  0
  139.9370   71.2810  222.7110 C   0  0  0  0  0  0  0  0  0  0  0  0
  139.3890   71.3710  224.0300 O   0  0  0  0  0  0  0  0  0  0  0  0
  139.8210   70.6330  225.1430 C   0  0  0  0  0  0  0  0  0  0  0  0
  140.6110   71.2040  226.1590 C   0  0  0  0  0  0  0  0  0  0  0  0
  141.0010   70.4410  227.2640 C   0  0  0  0  0  0  0  0  0  0  0  0
  140.6230   69.0990  227.3570 C   0  0  0  0  0  0  0  0  0  0  0  0
  141.1100   68.1440  228.7450 Cl  0  0  0  0  0  0  0  0  0  0  0  0
  139.8640   68.5160  226.3390 C   0  0  0  0  0  0  0  0  0  0  0  0
  139.4700   69.2760  225.2320 C   0  0  0  0  0  0  0  0  0  0  0  0
  138.4990   68.5240  223.9750 Cl  0  0  0  0  0  0  0  0  0  0  0  0
  140.4360   75.5780  222.1530 N   0  0  0  0  0  0  0  0  0  0  0  0
  140.7240   76.8920  221.7630 N   0  0  0  0  0  0  0  0  0  0  0  0
  140.2360   77.9280  222.3780 C   0  0  0  0  0  0  0  0  0  0  0  0
  141.0580   79.0770  222.8260 C   0  0  0  0  0  0  0  0  0  0  0  0
  142.4570   79.0910  222.6730 C   0  0  0  0  0  0  0  0  0  0  0  0
  143.1990   80.1820  223.1260 C   0  0  0  0  0  0  0  0  0  0  0  0
  142.5430   81.2450  223.7490 C   0  0  0  0  0  0  0  0  0  0  0  0
  141.1960   81.2080  223.9160 N   0  0  0  0  0  0  0  0  0  0  0  0
  140.4460   80.1580  223.4830 C   0  0  0  0  0  0  0  0  0  0  0  0
  139.1040   80.1780  223.6760 F   0  0  0  0  0  0  0  0  0  0  0  0
  138.5910   76.4690  220.4240 H   0  0  0  0  0  0  0  0  0  0  0  0
  138.2162   73.1179  221.8903 H   0  0  0  0  0  0  0  0  0  0  0  0
  141.0034   72.5297  221.3138 H   0  0  0  0  0  0  0  0  0  0  0  0
  140.9594   73.1391  223.0253 H   0  0  0  0  0  0  0  0  0  0  0  0
  139.1710   70.8850  222.0280 H   0  0  0  0  0  0  0  0  0  0  0  0
  140.8095   70.6115  222.7354 H   0  0  0  0  0  0  0  0  0  0  0  0
  140.9231   72.2561  226.0831 H   0  0  0  0  0  0  0  0  0  0  0  0
  141.6061   70.8978  228.0610 H   0  0  0  0  0  0  0  0  0  0  0  0
  139.5754   67.4568  226.4079 H   0  0  0  0  0  0  0  0  0  0  0  0
  139.1544   77.9533  222.5767 H   0  0  0  0  0  0  0  0  0  0  0  0
  142.9659   78.2406  222.1956 H   0  0  0  0  0  0  0  0  0  0  0  0
  144.2908   80.2044  222.9935 H   0  0  0  0  0  0  0  0  0  0  0  0
  143.1175   82.1130  224.1048 H   0  0  0  0  0  0  0  0  0  0  0  0
  1  2  1  0
  2  3  2  0
  3  4  1  0
  4  5  1  0
  5  6  1  0
  6  7  1  0
  7  8  2  0
  8  9  1  0
  9 10  2  0
 10 11  1  0
 10 12  1  0
 12 13  2  0
 13 14  1  0
  2 15  1  0
 15 16  1  0
 16 17  2  0
 17 18  1  0
 18 19  2  0
 19 20  1  0
 20 21  2  0
 21 22  1  0
 22 23  2  0
 23 24  1  0
 13  7  1  0
 23 18  1  0
  1 25  1  0
  3 26  1  0
  4 27  1  0
  4 28  1  0
  5 29  1  0
  5 30  1  0
  8 31  1  0
  9 32  1  0
 12 33  1  0
 17 34  1  0
 19 35  1  0
 20 36  1  0
 21 37  1  0
M  CHG  1  15  -1
M  END
>  <meeko>  (14) 
{"free_energy": -5.6, "intermolecular_energy": -8.58, "internal_energy": -0.57, "cluster_size": 6, "cluster_id": 3, "rank_in_cluster": 5}

$$$$

     RDKit          3D

 37 38  0  0  0  0  0  0  0  0999 V2000
  139.5280   74.3070  222.6670 O   0  0  0  0  0  0  0  0  0  0  0  0
  140.4040   74.5910  221.6160 C   0  0  0  0  0  0  0  0  0  0  0  0
  140.6030   73.7430  220.6000 C   0  0  0  0  0  0  0  0  0  0  0  0
  140.5220   72.2490  220.7370 C   0  0  0  0  0  0  0  0  0  0  0  0
  141.0980   71.7560  222.0700 C   0  0  0  0  0  0  0  0  0  0  0  0
  140.0800   71.7170  223.0770 O   0  0  0  0  0  0  0  0  0  0  0  0
  140.1910   71.0770  224.3210 C   0  0  0  0  0  0  0  0  0  0  0  0
  140.9710   71.6050  225.3680 C   0  0  0  0  0  0  0  0  0  0  0  0
  141.0350   70.9490  226.6010 C   0  0  0  0  0  0  0  0  0  0  0  0
  140.3390   69.7530  226.7960 C   0  0  0  0  0  0  0  0  0  0  0  0
  140.4170   68.9330  228.3450 Cl  0  0  0  0  0  0  0  0  0  0  0  0
  139.5850   69.2070  225.7530 C   0  0  0  0  0  0  0  0  0  0  0  0
  139.5160   69.8610  224.5180 C   0  0  0  0  0  0  0  0  0  0  0  0
  138.5460   69.1640  223.2300 Cl  0  0  0  0  0  0  0  0  0  0  0  0
  141.1260   75.8200  221.6250 N   0  0  0  0  0  0  0  0  0  0  0  0
  140.8290   76.8380  222.5390 N   0  0  0  0  0  0  0  0  0  0  0  0
  140.5930   78.0620  222.1700 C   0  0  0  0  0  0  0  0  0  0  0  0
  141.2730   79.2400  222.7610 C   0  0  0  0  0  0  0  0  0  0  0  0
  142.6710   79.3850  222.7200 C   0  0  0  0  0  0  0  0  0  0  0  0
  143.2770   80.4980  223.3050 C   0  0  0  0  0  0  0  0  0  0  0  0
  142.4840   81.4500  223.9460 C   0  0  0  0  0  0  0  0  0  0  0  0
  141.1360   81.2840  224.0040 N   0  0  0  0  0  0  0  0  0  0  0  0
  140.5190   80.2100  223.4410 C   0  0  0  0  0  0  0  0  0  0  0  0
  139.1700   80.1000  223.5290 F   0  0  0  0  0  0  0  0  0  0  0  0
  139.4660   73.3960  223.1070 H   0  0  0  0  0  0  0  0  0  0  0  0
  140.8387   74.1626  219.6109 H   0  0  0  0  0  0  0  0  0  0  0  0
  139.4670   71.9443  220.6730 H   0  0  0  0  0  0  0  0  0  0  0  0
  141.1180   71.8034  219.9269 H   0  0  0  0  0  0  0  0  0  0  0  0
  141.5102   70.7453  221.9337 H   0  0  0  0  0  0  0  0  0  0  0  0
  141.8884   72.4498  222.3923 H   0  0  0  0  0  0  0  0  0  0  0  0
  141.5327   72.5383  225.2149 H   0  0  0  0  0  0  0  0  0  0  0  0
  141.6343   71.3751  227.4191 H   0  0  0  0  0  0  0  0  0  0  0  0
  139.0446   68.2608  225.9037 H   0  0  0  0  0  0  0  0  0  0  0  0
  139.8496   78.2330  221.3775 H   0  0  0  0  0  0  0  0  0  0  0  0
  143.2881   78.6200  222.2261 H   0  0  0  0  0  0  0  0  0  0  0  0
  144.3690   80.6232  223.2610 H   0  0  0  0  0  0  0  0  0  0  0  0
  142.9494   82.3350  224.4045 H   0  0  0  0  0  0  0  0  0  0  0  0
  1  2  1  0
  2  3  2  0
  3  4  1  0
  4  5  1  0
  5  6  1  0
  6  7  1  0
  7  8  2  0
  8  9  1  0
  9 10  2  0
 10 11  1  0
 10 12  1  0
 12 13  2  0
 13 14  1  0
  2 15  1  0
 15 16  1  0
 16 17  2  0
 17 18  1  0
 18 19  2  0
 19 20  1  0
 20 21  2  0
 21 22  1  0
 22 23  2  0
 23 24  1  0
 13  7  1  0
 23 18  1  0
  1 25  1  0
  3 26  1  0
  4 27  1  0
  4 28  1  0
  5 29  1  0
  5 30  1  0
  8 31  1  0
  9 32  1  0
 12 33  1  0
 17 34  1  0
 19 35  1  0
 20 36  1  0
 21 37  1  0
M  CHG  1  15  -1
M  END
>  <meeko>  (15) 
{"free_energy": -5.9, "intermolecular_energy": -8.89, "internal_energy": -1.08, "cluster_size": 6, "cluster_id": 3, "rank_in_cluster": 3}

$$$$

     RDKit          3D

 37 38  0  0  0  0  0  0  0  0999 V2000
  145.5400   72.8710  221.3570 O   0  0  0  0  0  0  0  0  0  0  0  0
  145.2090   73.2500  220.0530 C   0  0  0  0  0  0  0  0  0  0  0  0
  144.0260   73.7950  219.7430 C   0  0  0  0  0  0  0  0  0  0  0  0
  143.8530   74.8650  218.7020 C   0  0  0  0  0  0  0  0  0  0  0  0
  143.2660   76.1550  219.2890 C   0  0  0  0  0  0  0  0  0  0  0  0
  142.1440   75.8650  220.1280 O   0  0  0  0  0  0  0  0  0  0  0  0
  141.4710   76.7930  220.9390 C   0  0  0  0  0  0  0  0  0  0  0  0
  141.8730   78.1390  221.0280 C   0  0  0  0  0  0  0  0  0  0  0  0
  141.1620   79.0380  221.8290 C   0  0  0  0  0  0  0  0  0  0  0  0
  140.0560   78.5990  222.5620 C   0  0  0  0  0  0  0  0  0  0  0  0
  139.1620   79.7280  223.5640 Cl  0  0  0  0  0  0  0  0  0  0  0  0
  139.6670   77.2580  222.5020 C   0  0  0  0  0  0  0  0  0  0  0  0
  140.3750   76.3550  221.7010 C   0  0  0  0  0  0  0  0  0  0  0  0
  139.8550   74.6790  221.6280 Cl  0  0  0  0  0  0  0  0  0  0  0  0
  146.1530   73.0400  219.0060 N   0  0  0  0  0  0  0  0  0  0  0  0
  145.8750   72.1920  217.9270 N   0  0  0  0  0  0  0  0  0  0  0  0
  144.9960   71.2370  217.9960 C   0  0  0  0  0  0  0  0  0  0  0  0
  145.3120   69.8640  218.4540 C   0  0  0  0  0  0  0  0  0  0  0  0
  146.0560   68.9720  217.6610 C   0  0  0  0  0  0  0  0  0  0  0  0
  146.3170   67.6790  218.1180 C   0  0  0  0  0  0  0  0  0  0  0  0
  145.8150   67.2770  219.3570 C   0  0  0  0  0  0  0  0  0  0  0  0
  145.0740   68.1390  220.1010 N   0  0  0  0  0  0  0  0  0  0  0  0
  144.8060   69.4050  219.6810 C   0  0  0  0  0  0  0  0  0  0  0  0
  144.0620   70.2200  220.4690 F   0  0  0  0  0  0  0  0  0  0  0  0
  145.8470   71.9380  221.6020 H   0  0  0  0  0  0  0  0  0  0  0  0
  143.1331   73.4407  220.2788 H   0  0  0  0  0  0  0  0  0  0  0  0
  144.8346   75.0914  218.2602 H   0  0  0  0  0  0  0  0  0  0  0  0
  143.1502   74.4884  217.9442 H   0  0  0  0  0  0  0  0  0  0  0  0
  144.0385   76.6654  219.8830 H   0  0  0  0  0  0  0  0  0  0  0  0
  142.9318   76.7992  218.4624 H   0  0  0  0  0  0  0  0  0  0  0  0
  142.7516   78.4857  220.4642 H   0  0  0  0  0  0  0  0  0  0  0  0
  141.4735   80.0916  221.8822 H   0  0  0  0  0  0  0  0  0  0  0  0
  138.8018   76.9113  223.0861 H   0  0  0  0  0  0  0  0  0  0  0  0
  143.9610   71.4604  217.6981 H   0  0  0  0  0  0  0  0  0  0  0  0
  146.4329   69.2938  216.6789 H   0  0  0  0  0  0  0  0  0  0  0  0
  146.9123   66.9838  217.5078 H   0  0  0  0  0  0  0  0  0  0  0  0
  146.0193   66.2628  219.7307 H   0  0  0  0  0  0  0  0  0  0  0  0
  1  2  1  0
  2  3  2  0
  3  4  1  0
  4  5  1  0
  5  6  1  0
  6  7  1  0
  7  8  2  0
  8  9  1  0
  9 10  2  0
 10 11  1  0
 10 12  1  0
 12 13  2  0
 13 14  1  0
  2 15  1  0
 15 16  1  0
 16 17  2  0
 17 18  1  0
 18 19  2  0
 19 20  1  0
 20 21  2  0
 21 22  1  0
 22 23  2  0
 23 24  1  0
 13  7  1  0
 23 18  1  0
  1 25  1  0
  3 26  1  0
  4 27  1  0
  4 28  1  0
  5 29  1  0
  5 30  1  0
  8 31  1  0
  9 32  1  0
 12 33  1  0
 17 34  1  0
 19 35  1  0
 20 36  1  0
 21 37  1  0
M  CHG  1  15  -1
M  END
>  <meeko>  (16) 
{"free_energy": -6.0, "intermolecular_energy": -8.98, "internal_energy": -0.36, "cluster_size": 1, "cluster_id": 4, "rank_in_cluster": 1}

$$$$

     RDKit          3D

 37 38  0  0  0  0  0  0  0  0999 V2000
  141.3630   75.2500  222.0440 O   0  0  0  0  0  0  0  0  0  0  0  0
  140.3470   74.3520  221.7030 C   0  0  0  0  0  0  0  0  0  0  0  0
  139.2730   74.7190  220.9940 C   0  0  0  0  0  0  0  0  0  0  0  0
  138.0620   75.3710  221.6000 C   0  0  0  0  0  0  0  0  0  0  0  0
  137.9600   76.8570  221.2340 C   0  0  0  0  0  0  0  0  0  0  0  0
  138.1050   77.6770  222.3980 O   0  0  0  0  0  0  0  0  0  0  0  0
  139.2550   78.4020  222.7450 C   0  0  0  0  0  0  0  0  0  0  0  0
  140.5520   77.9030  222.5180 C   0  0  0  0  0  0  0  0  0  0  0  0
  141.6720   78.6690  222.8560 C   0  0  0  0  0  0  0  0  0  0  0  0
  141.5110   79.9280  223.4410 C   0  0  0  0  0  0  0  0  0  0  0  0
  142.9170   80.8880  223.8610 Cl  0  0  0  0  0  0  0  0  0  0  0  0
  140.2270   80.4190  223.6960 C   0  0  0  0  0  0  0  0  0  0  0  0
  139.1030   79.6570  223.3580 C   0  0  0  0  0  0  0  0  0  0  0  0
  137.5000   80.3050  223.6720 Cl  0  0  0  0  0  0  0  0  0  0  0  0
  140.4450   72.9960  222.1330 N   0  0  0  0  0  0  0  0  0  0  0  0
  140.3220   72.6450  223.4830 N   0  0  0  0  0  0  0  0  0  0  0  0
  140.3240   71.4100  223.8880 C   0  0  0  0  0  0  0  0  0  0  0  0
  140.4090   71.0170  225.3150 C   0  0  0  0  0  0  0  0  0  0  0  0
  140.9690   71.8670  226.2850 C   0  0  0  0  0  0  0  0  0  0  0  0
  141.0500   71.4530  227.6160 C   0  0  0  0  0  0  0  0  0  0  0  0
  140.5900   70.1830  227.9660 C   0  0  0  0  0  0  0  0  0  0  0  0
  140.0770   69.3600  227.0150 N   0  0  0  0  0  0  0  0  0  0  0  0
  139.9840   69.7380  225.7110 C   0  0  0  0  0  0  0  0  0  0  0  0
  139.4600   68.8730  224.8070 F   0  0  0  0  0  0  0  0  0  0  0  0
  142.2610   75.2760  221.5760 H   0  0  0  0  0  0  0  0  0  0  0  0
  139.2767   74.5336  219.9098 H   0  0  0  0  0  0  0  0  0  0  0  0
  137.1619   74.8539  221.2362 H   0  0  0  0  0  0  0  0  0  0  0  0
  138.1509   75.2979  222.6940 H   0  0  0  0  0  0  0  0  0  0  0  0
  138.7543   77.1070  220.5153 H   0  0  0  0  0  0  0  0  0  0  0  0
  136.9708   77.0445  220.7910 H   0  0  0  0  0  0  0  0  0  0  0  0
  140.6848   76.9060  222.0727 H   0  0  0  0  0  0  0  0  0  0  0  0
  142.6822   78.2797  222.6610 H   0  0  0  0  0  0  0  0  0  0  0  0
  140.1000   81.4066  224.1634 H   0  0  0  0  0  0  0  0  0  0  0  0
  140.2592   70.6139  223.1317 H   0  0  0  0  0  0  0  0  0  0  0  0
  141.3438   72.8596  225.9948 H   0  0  0  0  0  0  0  0  0  0  0  0
  141.4722   72.1213  228.3810 H   0  0  0  0  0  0  0  0  0  0  0  0
  140.6428   69.8482  229.0125 H   0  0  0  0  0  0  0  0  0  0  0  0
  1  2  1  0
  2  3  2  0
  3  4  1  0
  4  5  1  0
  5  6  1  0
  6  7  1  0
  7  8  2  0
  8  9  1  0
  9 10  2  0
 10 11  1  0
 10 12  1  0
 12 13  2  0
 13 14  1  0
  2 15  1  0
 15 16  1  0
 16 17  2  0
 17 18  1  0
 18 19  2  0
 19 20  1  0
 20 21  2  0
 21 22  1  0
 22 23  2  0
 23 24  1  0
 13  7  1  0
 23 18  1  0
  1 25  1  0
  3 26  1  0
  4 27  1  0
  4 28  1  0
  5 29  1  0
  5 30  1  0
  8 31  1  0
  9 32  1  0
 12 33  1  0
 17 34  1  0
 19 35  1  0
 20 36  1  0
 21 37  1  0
M  CHG  1  15  -1
M  END
>  <meeko>  (17) 
{"free_energy": -6.06, "intermolecular_energy": -9.05, "internal_energy": -0.52, "cluster_size": 1, "cluster_id": 2, "rank_in_cluster": 1}

$$$$

     RDKit          3D

 37 38  0  0  0  0  0  0  0  0999 V2000
  141.4500   75.2290  222.0090 O   0  0  0  0  0  0  0  0  0  0  0  0
  140.3930   74.4460  221.5370 C   0  0  0  0  0  0  0  0  0  0  0  0
  139.8560   74.6230  220.3230 C   0  0  0  0  0  0  0  0  0  0  0  0
  140.6360   75.1070  219.1330 C   0  0  0  0  0  0  0  0  0  0  0  0
  141.1220   76.5510  219.3060 C   0  0  0  0  0  0  0  0  0  0  0  0
  140.3330   77.2370  220.2830 O   0  0  0  0  0  0  0  0  0  0  0  0
  140.8090   78.2070  221.1790 C   0  0  0  0  0  0  0  0  0  0  0  0
  141.9810   78.9470  220.9300 C   0  0  0  0  0  0  0  0  0  0  0  0
  142.4080   79.9210  221.8370 C   0  0  0  0  0  0  0  0  0  0  0  0
  141.6820   80.1530  223.0090 C   0  0  0  0  0  0  0  0  0  0  0  0
  142.2180   81.3780  224.1450 Cl  0  0  0  0  0  0  0  0  0  0  0  0
  140.5340   79.4040  223.2780 C   0  0  0  0  0  0  0  0  0  0  0  0
  140.1020   78.4290  222.3720 C   0  0  0  0  0  0  0  0  0  0  0  0
  138.6440   77.5130  222.7260 Cl  0  0  0  0  0  0  0  0  0  0  0  0
  139.8510   73.4290  222.3750 N   0  0  0  0  0  0  0  0  0  0  0  0
  140.6740   72.6010  223.1480 N   0  0  0  0  0  0  0  0  0  0  0  0
  140.2670   71.4670  223.6360 C   0  0  0  0  0  0  0  0  0  0  0  0
  140.2970   71.1390  225.0810 C   0  0  0  0  0  0  0  0  0  0  0  0
  141.0720   71.8800  225.9920 C   0  0  0  0  0  0  0  0  0  0  0  0
  141.0920   71.5290  227.3420 C   0  0  0  0  0  0  0  0  0  0  0  0
  140.3530   70.4250  227.7730 C   0  0  0  0  0  0  0  0  0  0  0  0
  139.6310   69.7000  226.8780 N   0  0  0  0  0  0  0  0  0  0  0  0
  139.5930   70.0210  225.5570 C   0  0  0  0  0  0  0  0  0  0  0  0
  138.8530   69.2610  224.7120 F   0  0  0  0  0  0  0  0  0  0  0  0
  141.7070   76.1190  221.5990 H   0  0  0  0  0  0  0  0  0  0  0  0
  138.7867   74.4023  220.1897 H   0  0  0  0  0  0  0  0  0  0  0  0
  141.5098   74.4537  218.9929 H   0  0  0  0  0  0  0  0  0  0  0  0
  139.9695   75.0780  218.2584 H   0  0  0  0  0  0  0  0  0  0  0  0
  142.1725   76.5417  219.6321 H   0  0  0  0  0  0  0  0  0  0  0  0
  141.0257   77.0741  218.3432 H   0  0  0  0  0  0  0  0  0  0  0  0
  142.5637   78.7574  220.0165 H   0  0  0  0  0  0  0  0  0  0  0  0
  143.3162   80.5056  221.6284 H   0  0  0  0  0  0  0  0  0  0  0  0
  139.9681   79.5811  224.2045 H   0  0  0  0  0  0  0  0  0  0  0  0
  139.8793   70.7098  222.9387 H   0  0  0  0  0  0  0  0  0  0  0  0
  141.6633   72.7378  225.6390 H   0  0  0  0  0  0  0  0  0  0  0  0
  141.6839   72.1158  228.0598 H   0  0  0  0  0  0  0  0  0  0  0  0
  140.3552   70.1423  228.8361 H   0  0  0  0  0  0  0  0  0  0  0  0
  1  2  1  0
  2  3  2  0
  3  4  1  0
  4  5  1  0
  5  6  1  0
  6  7  1  0
  7  8  2  0
  8  9  1  0
  9 10  2  0
 10 11  1  0
 10 12  1  0
 12 13  2  0
 13 14  1  0
  2 15  1  0
 15 16  1  0
 16 17  2  0
 17 18  1  0
 18 19  2  0
 19 20  1  0
 20 21  2  0
 21 22  1  0
 22 23  2  0
 23 24  1  0
 13  7  1  0
 23 18  1  0
  1 25  1  0
  3 26  1  0
  4 27  1  0
  4 28  1  0
  5 29  1  0
  5 30  1  0
  8 31  1  0
  9 32  1  0
 12 33  1  0
 17 34  1  0
 19 35  1  0
 20 36  1  0
 21 37  1  0
M  CHG  1  15  -1
M  END
>  <meeko>  (18) 
{"free_energy": -5.53, "intermolecular_energy": -8.52, "internal_energy": -1.13, "cluster_size": 6, "cluster_id": 1, "rank_in_cluster": 6}

$$$$

     RDKit          3D

 37 38  0  0  0  0  0  0  0  0999 V2000
  139.3900   74.4320  222.3660 O   0  0  0  0  0  0  0  0  0  0  0  0
  140.2720   73.4180  221.9800 C   0  0  0  0  0  0  0  0  0  0  0  0
  140.7140   73.2930  220.7230 C   0  0  0  0  0  0  0  0  0  0  0  0
  142.1510   73.4790  220.3260 C   0  0  0  0  0  0  0  0  0  0  0  0
  142.5170   74.9580  220.1480 C   0  0  0  0  0  0  0  0  0  0  0  0
  141.3830   75.7940  220.4000 O   0  0  0  0  0  0  0  0  0  0  0  0
  141.4010   76.9950  221.1270 C   0  0  0  0  0  0  0  0  0  0  0  0
  141.0470   77.0520  222.4880 C   0  0  0  0  0  0  0  0  0  0  0  0
  141.1020   78.2640  223.1820 C   0  0  0  0  0  0  0  0  0  0  0  0
  141.4920   79.4330  222.5220 C   0  0  0  0  0  0  0  0  0  0  0  0
  141.5640   80.9520  223.3950 Cl  0  0  0  0  0  0  0  0  0  0  0  0
  141.8180   79.3900  221.1640 C   0  0  0  0  0  0  0  0  0  0  0  0
  141.7660   78.1790  220.4650 C   0  0  0  0  0  0  0  0  0  0  0  0
  142.1990   78.1500  218.7630 Cl  0  0  0  0  0  0  0  0  0  0  0  0
  140.7110   72.4710  222.9500 N   0  0  0  0  0  0  0  0  0  0  0  0
  139.8960   71.4070  223.3580 N   0  0  0  0  0  0  0  0  0  0  0  0
  139.5900   71.1980  224.6030 C   0  0  0  0  0  0  0  0  0  0  0  0
  139.8010   69.9020  225.2910 C   0  0  0  0  0  0  0  0  0  0  0  0
  140.8360   69.7210  226.2270 C   0  0  0  0  0  0  0  0  0  0  0  0
  141.0160   68.4790  226.8390 C   0  0  0  0  0  0  0  0  0  0  0  0
  140.1750   67.4200  226.4980 C   0  0  0  0  0  0  0  0  0  0  0  0
  139.1970   67.6000  225.5710 N   0  0  0  0  0  0  0  0  0  0  0  0
  138.9970   68.7990  224.9600 C   0  0  0  0  0  0  0  0  0  0  0  0
  138.0040   68.9180  224.0450 F   0  0  0  0  0  0  0  0  0  0  0  0
  138.6780   74.3070  223.0760 H   0  0  0  0  0  0  0  0  0  0  0  0
  139.9859   73.0404  219.9381 H   0  0  0  0  0  0  0  0  0  0  0  0
  142.7931   73.0469  221.1077 H   0  0  0  0  0  0  0  0  0  0  0  0
  142.3019   72.9754  219.3597 H   0  0  0  0  0  0  0  0  0  0  0  0
  143.3210   75.2182  220.8522 H   0  0  0  0  0  0  0  0  0  0  0  0
  142.8504   75.1174  219.1119 H   0  0  0  0  0  0  0  0  0  0  0  0
  140.7253   76.1378  223.0083 H   0  0  0  0  0  0  0  0  0  0  0  0
  140.8380   78.2981  224.2493 H   0  0  0  0  0  0  0  0  0  0  0  0
  142.1165   80.3114  220.6426 H   0  0  0  0  0  0  0  0  0  0  0  0
  139.1509   72.0270  225.1774 H   0  0  0  0  0  0  0  0  0  0  0  0
  141.5038   70.5587  226.4767 H   0  0  0  0  0  0  0  0  0  0  0  0
  141.8136   68.3371  227.5831 H   0  0  0  0  0  0  0  0  0  0  0  0
  140.3030   66.4391  226.9791 H   0  0  0  0  0  0  0  0  0  0  0  0
  1  2  1  0
  2  3  2  0
  3  4  1  0
  4  5  1  0
  5  6  1  0
  6  7  1  0
  7  8  2  0
  8  9  1  0
  9 10  2  0
 10 11  1  0
 10 12  1  0
 12 13  2  0
 13 14  1  0
  2 15  1  0
 15 16  1  0
 16 17  2  0
 17 18  1  0
 18 19  2  0
 19 20  1  0
 20 21  2  0
 21 22  1  0
 22 23  2  0
 23 24  1  0
 13  7  1  0
 23 18  1  0
  1 25  1  0
  3 26  1  0
  4 27  1  0
  4 28  1  0
  5 29  1  0
  5 30  1  0
  8 31  1  0
  9 32  1  0
 12 33  1  0
 17 34  1  0
 19 35  1  0
 20 36  1  0
 21 37  1  0
M  CHG  1  15  -1
M  END
>  <meeko>  (19) 
{"free_energy": -6.48, "intermolecular_energy": -9.47, "internal_energy": -0.5, "cluster_size": 6, "cluster_id": 1, "rank_in_cluster": 1}

$$$$

     RDKit          3D

 37 38  0  0  0  0  0  0  0  0999 V2000
  137.1360   68.6140  223.6590 O   0  0  0  0  0  0  0  0  0  0  0  0
  138.5300   68.6580  223.7450 C   0  0  0  0  0  0  0  0  0  0  0  0
  139.2630   69.5400  223.0550 C   0  0  0  0  0  0  0  0  0  0  0  0
  138.8260   70.9530  222.7860 C   0  0  0  0  0  0  0  0  0  0  0  0
  139.8140   71.9830  223.3470 C   0  0  0  0  0  0  0  0  0  0  0  0
  140.1370   72.9650  222.3580 O   0  0  0  0  0  0  0  0  0  0  0  0
  141.3400   73.0310  221.6370 C   0  0  0  0  0  0  0  0  0  0  0  0
  142.1060   71.8840  221.3530 C   0  0  0  0  0  0  0  0  0  0  0  0
  143.2860   71.9890  220.6110 C   0  0  0  0  0  0  0  0  0  0  0  0
  143.7230   73.2380  220.1620 C   0  0  0  0  0  0  0  0  0  0  0  0
  145.2030   73.3680  219.2280 Cl  0  0  0  0  0  0  0  0  0  0  0  0
  142.9840   74.3850  220.4640 C   0  0  0  0  0  0  0  0  0  0  0  0
  141.8010   74.2850  221.2050 C   0  0  0  0  0  0  0  0  0  0  0  0
  140.8810   75.7400  221.5540 Cl  0  0  0  0  0  0  0  0  0  0  0  0
  139.2050   67.7250  224.5850 N   0  0  0  0  0  0  0  0  0  0  0  0
  138.9630   67.6700  225.9630 N   0  0  0  0  0  0  0  0  0  0  0  0
  139.8340   68.0640  226.8440 C   0  0  0  0  0  0  0  0  0  0  0  0
  140.2690   69.4730  226.9910 C   0  0  0  0  0  0  0  0  0  0  0  0
  141.0660   70.1070  226.0210 C   0  0  0  0  0  0  0  0  0  0  0  0
  141.4730   71.4290  226.2050 C   0  0  0  0  0  0  0  0  0  0  0  0
  141.1000   72.1040  227.3680 C   0  0  0  0  0  0  0  0  0  0  0  0
  140.3540   71.4720  228.3110 N   0  0  0  0  0  0  0  0  0  0  0  0
  139.9420   70.1840  228.1580 C   0  0  0  0  0  0  0  0  0  0  0  0
  139.1980   69.6060  229.1330 F   0  0  0  0  0  0  0  0  0  0  0  0
  136.5340   68.4890  224.4650 H   0  0  0  0  0  0  0  0  0  0  0  0
  140.2378   69.2134  222.6636 H   0  0  0  0  0  0  0  0  0  0  0  0
  138.7437   71.0972  221.6986 H   0  0  0  0  0  0  0  0  0  0  0  0
  137.8581   71.1074  223.2854 H   0  0  0  0  0  0  0  0  0  0  0  0
  139.3608   72.4817  224.2165 H   0  0  0  0  0  0  0  0  0  0  0  0
  140.7368   71.4628  223.6434 H   0  0  0  0  0  0  0  0  0  0  0  0
  141.7741   70.9004  221.7169 H   0  0  0  0  0  0  0  0  0  0  0  0
  143.8715   71.0869  220.3801 H   0  0  0  0  0  0  0  0  0  0  0  0
  143.3331   75.3692  220.1183 H   0  0  0  0  0  0  0  0  0  0  0  0
  140.2715   67.3113  227.5163 H   0  0  0  0  0  0  0  0  0  0  0  0
  141.3689   69.5600  225.1160 H   0  0  0  0  0  0  0  0  0  0  0  0
  142.0819   71.9341  225.4408 H   0  0  0  0  0  0  0  0  0  0  0  0
  141.4102   73.1482  227.5212 H   0  0  0  0  0  0  0  0  0  0  0  0
  1  2  1  0
  2  3  2  0
  3  4  1  0
  4  5  1  0
  5  6  1  0
  6  7  1  0
  7  8  2  0
  8  9  1  0
  9 10  2  0
 10 11  1  0
 10 12  1  0
 12 13  2  0
 13 14  1  0
  2 15  1  0
 15 16  1  0
 16 17  2  0
 17 18  1  0
 18 19  2  0
 19 20  1  0
 20 21  2  0
 21 22  1  0
 22 23  2  0
 23 24  1  0
 13  7  1  0
 23 18  1  0
  1 25  1  0
  3 26  1  0
  4 27  1  0
  4 28  1  0
  5 29  1  0
  5 30  1  0
  8 31  1  0
  9 32  1  0
 12 33  1  0
 17 34  1  0
 19 35  1  0
 20 36  1  0
 21 37  1  0
M  CHG  1  15  -1
M  END
>  <meeko>  (20) 
{"free_energy": -5.93, "intermolecular_energy": -8.92, "internal_energy": -0.99, "cluster_size": 3, "cluster_id": 5, "rank_in_cluster": 2}

$$$$
