
     RDKit          3D

 62 66  0  0  0  0  0  0  0  0999 V2000
  142.8740   79.7320  223.1180 C   0  0  0  0  0  0  0  0  0  0  0  0
  142.5270   80.6220  221.9870 N   0  0  0  0  0  0  0  0  0  0  0  0
  141.7280   81.7990  222.4400 C   0  0  0  0  0  0  0  0  0  0  0  0
  140.2180   81.6880  222.1310 C   0  0  0  0  0  0  0  0  0  0  0  0
  139.7930   80.2860  222.1790 N   0  0  0  0  0  0  0  0  0  0  0  0
  138.8920   79.8260  223.2020 C   0  0  0  0  0  0  0  0  0  0  0  0
  138.8180   80.4520  224.2950 O   0  0  0  0  0  0  0  0  0  0  0  0
  138.0620   78.6170  223.0110 C   0  0  0  0  0  0  0  0  0  0  0  0
  136.6820   78.6580  223.2490 C   0  0  0  0  0  0  0  0  0  0  0  0
  135.9020   77.5100  223.0750 C   0  0  0  0  0  0  0  0  0  0  0  0
  136.4920   76.3170  222.6530 C   0  0  0  0  0  0  0  0  0  0  0  0
  137.8750   76.2540  222.4060 C   0  0  0  0  0  0  0  0  0  0  0  0
  138.5100   74.9940  221.9450 C   0  0  0  0  0  0  0  0  0  0  0  0
  139.8070   74.9450  221.8430 N   0  0  0  0  0  0  0  0  0  0  0  0
  140.6010   73.8590  221.3370 C   0  0  0  0  0  0  0  0  0  0  0  0
  141.7890   74.1870  220.6700 C   0  0  0  0  0  0  0  0  0  0  0  0
  142.6470   73.1900  220.2040 C   0  0  0  0  0  0  0  0  0  0  0  0
  142.3440   71.8450  220.4290 C   0  0  0  0  0  0  0  0  0  0  0  0
  143.2320   70.8170  219.9510 C   0  0  0  0  0  0  0  0  0  0  0  0
  143.9730   69.9590  219.5410 C   0  0  0  0  0  0  0  0  0  0  0  0
  144.8550   68.9370  219.0410 C   0  0  0  0  0  0  0  0  0  0  0  0
  145.1250   67.8020  219.8180 C   0  0  0  0  0  0  0  0  0  0  0  0
  145.9950   66.8170  219.3400 C   0  0  0  0  0  0  0  0  0  0  0  0
  146.5970   66.9640  218.0850 C   0  0  0  0  0  0  0  0  0  0  0  0
  146.3280   68.0970  217.3090 C   0  0  0  0  0  0  0  0  0  0  0  0
  145.4570   69.0820  217.7840 C   0  0  0  0  0  0  0  0  0  0  0  0
  141.1760   71.4990  221.1170 C   0  0  0  0  0  0  0  0  0  0  0  0
  140.2880   72.4880  221.5650 C   0  0  0  0  0  0  0  0  0  0  0  0
  139.1380   72.0510  222.3110 N   0  0  0  0  0  0  0  0  0  0  0  0
  137.9880   72.6490  222.3890 C   0  0  0  0  0  0  0  0  0  0  0  0
  137.0300   72.1800  223.2840 O   0  0  0  0  0  0  0  0  0  0  0  0
  137.6710   73.8200  221.5220 C   0  0  0  0  0  0  0  0  0  0  0  0
  138.6570   77.4070  222.6090 C   0  0  0  0  0  0  0  0  0  0  0  0
  140.4880   79.3290  221.3070 C   0  0  0  0  0  0  0  0  0  0  0  0
  141.8700   79.8700  220.8910 C   0  0  0  0  0  0  0  0  0  0  0  0
  142.6721   80.2498  224.0673 H   0  0  0  0  0  0  0  0  0  0  0  0
  142.2670   78.8162  223.0635 H   0  0  0  0  0  0  0  0  0  0  0  0
  143.9406   79.4687  223.0635 H   0  0  0  0  0  0  0  0  0  0  0  0
  143.4390   80.9830  221.6080 H   0  0  0  0  0  0  0  0  0  0  0  0
  141.8520   81.9036  223.5280 H   0  0  0  0  0  0  0  0  0  0  0  0
  142.1037   82.6719  221.8859 H   0  0  0  0  0  0  0  0  0  0  0  0
  139.6512   82.2652  222.8764 H   0  0  0  0  0  0  0  0  0  0  0  0
  140.0277   82.0864  221.1235 H   0  0  0  0  0  0  0  0  0  0  0  0
  136.2099   79.5969  223.5740 H   0  0  0  0  0  0  0  0  0  0  0  0
  134.8203   77.5472  223.2713 H   0  0  0  0  0  0  0  0  0  0  0  0
  135.8707   75.4201  222.5128 H   0  0  0  0  0  0  0  0  0  0  0  0
  142.0486   75.2441  220.5117 H   0  0  0  0  0  0  0  0  0  0  0  0
  143.5626   73.4634  219.6591 H   0  0  0  0  0  0  0  0  0  0  0  0
  144.6522   67.6860  220.8044 H   0  0  0  0  0  0  0  0  0  0  0  0
  146.2062   65.9266  219.9504 H   0  0  0  0  0  0  0  0  0  0  0  0
  147.2813   66.1892  217.7088 H   0  0  0  0  0  0  0  0  0  0  0  0
  146.8027   68.2128  216.3235 H   0  0  0  0  0  0  0  0  0  0  0  0
  145.2444   69.9704  217.1712 H   0  0  0  0  0  0  0  0  0  0  0  0
  140.9515   70.4394  221.3088 H   0  0  0  0  0  0  0  0  0  0  0  0
  136.9320   72.5890  224.2050 H   0  0  0  0  0  0  0  0  0  0  0  0
  137.8903   73.5707  220.4733 H   0  0  0  0  0  0  0  0  0  0  0  0
  136.6054   74.0741  221.6215 H   0  0  0  0  0  0  0  0  0  0  0  0
  139.7447   77.3614  222.4516 H   0  0  0  0  0  0  0  0  0  0  0  0
  140.6201   78.3796  221.8467 H   0  0  0  0  0  0  0  0  0  0  0  0
  139.8832   79.1741  220.4014 H   0  0  0  0  0  0  0  0  0  0  0  0
  142.5119   79.0229  220.6074 H   0  0  0  0  0  0  0  0  0  0  0  0
  141.7239   80.5598  220.0467 H   0  0  0  0  0  0  0  0  0  0  0  0
  1  2  1  0
  2  3  1  0
  3  4  1  0
  4  5  1  0
  5  6  1  0
  6  7  2  0
  6  8  1  0
  8  9  2  0
  9 10  1  0
 10 11  2  0
 11 12  1  0
 12 13  1  0
 13 14  2  0
 14 15  1  0
 15 16  2  0
 16 17  1  0
 17 18  2  0
 18 19  1  0
 19 20  3  0
 20 21  1  0
 21 22  2  0
 22 23  1  0
 23 24  2  0
 24 25  1  0
 25 26  2  0
 18 27  1  0
 27 28  2  0
 28 29  1  0
 29 30  2  0
 30 31  1  0
 30 32  1  0
 12 33  2  0
  5 34  1  0
 34 35  1  0
 35  2  1  0
 33  8  1  0
 32 13  1  0
 28 15  1  0
 26 21  1  0
  1 36  1  0
  1 37  1  0
  1 38  1  0
  2 39  1  0
  3 40  1  0
  3 41  1  0
  4 42  1  0
  4 43  1  0
  9 44  1  0
 10 45  1  0
 11 46  1  0
 16 47  1  0
 17 48  1  0
 22 49  1  0
 23 50  1  0
 24 51  1  0
 25 52  1  0
 26 53  1  0
 27 54  1  0
 31 55  1  0
 32 56  1  0
 32 57  1  0
 33 58  1  0
 34 59  1  0
 34 60  1  0
 35 61  1  0
 35 62  1  0
M  CHG  1   2   1
M  END
>  <meeko>  (1) 
{"free_energy": -4.97, "intermolecular_energy": -8.25, "internal_energy": -0.96, "cluster_size": 1, "cluster_id": 6, "rank_in_cluster": 1}

$$$$

     RDKit          3D

 62 66  0  0  0  0  0  0  0  0999 V2000
  144.6890   69.6790  216.2770 C   0  0  0  0  0  0  0  0  0  0  0  0
  145.4850   69.8010  215.0340 N   0  0  0  0  0  0  0  0  0  0  0  0
  146.8840   70.2370  215.3190 C   0  0  0  0  0  0  0  0  0  0  0  0
  147.1510   71.7280  215.0130 C   0  0  0  0  0  0  0  0  0  0  0  0
  145.9370   72.5170  215.2420 N   0  0  0  0  0  0  0  0  0  0  0  0
  145.8780   73.4820  216.3080 C   0  0  0  0  0  0  0  0  0  0  0  0
  146.6380   73.3530  217.3070 O   0  0  0  0  0  0  0  0  0  0  0  0
  144.9280   74.6140  216.2700 C   0  0  0  0  0  0  0  0  0  0  0  0
  145.1190   75.6720  215.3720 C   0  0  0  0  0  0  0  0  0  0  0  0
  144.2230   76.7450  215.3450 C   0  0  0  0  0  0  0  0  0  0  0  0
  143.1240   76.7650  216.2070 C   0  0  0  0  0  0  0  0  0  0  0  0
  142.9110   75.7120  217.1140 C   0  0  0  0  0  0  0  0  0  0  0  0
  141.7390   75.7160  218.0250 C   0  0  0  0  0  0  0  0  0  0  0  0
  141.1350   74.5910  218.2760 N   0  0  0  0  0  0  0  0  0  0  0  0
  140.9410   73.9740  219.5600 C   0  0  0  0  0  0  0  0  0  0  0  0
  141.0760   72.5800  219.6310 C   0  0  0  0  0  0  0  0  0  0  0  0
  140.9640   71.9120  220.8500 C   0  0  0  0  0  0  0  0  0  0  0  0
  140.7490   72.6340  222.0270 C   0  0  0  0  0  0  0  0  0  0  0  0
  140.6380   71.9440  223.2860 C   0  0  0  0  0  0  0  0  0  0  0  0
  140.5520   71.3730  224.3450 C   0  0  0  0  0  0  0  0  0  0  0  0
  140.4380   70.6910  225.6070 C   0  0  0  0  0  0  0  0  0  0  0  0
  140.7130   71.3740  226.8000 C   0  0  0  0  0  0  0  0  0  0  0  0
  140.6180   70.7060  228.0260 C   0  0  0  0  0  0  0  0  0  0  0  0
  140.2490   69.3570  228.0610 C   0  0  0  0  0  0  0  0  0  0  0  0
  139.9750   68.6750  226.8710 C   0  0  0  0  0  0  0  0  0  0  0  0
  140.0670   69.3410  225.6450 C   0  0  0  0  0  0  0  0  0  0  0  0
  140.6390   74.0280  221.9800 C   0  0  0  0  0  0  0  0  0  0  0  0
  140.7170   74.7120  220.7580 C   0  0  0  0  0  0  0  0  0  0  0  0
  140.6490   76.1480  220.8010 N   0  0  0  0  0  0  0  0  0  0  0  0
  141.3330   76.9820  220.0770 C   0  0  0  0  0  0  0  0  0  0  0  0
  142.1870   77.8890  220.6990 O   0  0  0  0  0  0  0  0  0  0  0  0
  141.2060   77.0050  218.5860 C   0  0  0  0  0  0  0  0  0  0  0  0
  143.8330   74.6490  217.1530 C   0  0  0  0  0  0  0  0  0  0  0  0
  144.7220   72.1330  214.5110 C   0  0  0  0  0  0  0  0  0  0  0  0
  144.8050   70.6670  214.0410 C   0  0  0  0  0  0  0  0  0  0  0  0
  145.3523   69.7807  217.1486 H   0  0  0  0  0  0  0  0  0  0  0  0
  143.9257   70.4706  216.3028 H   0  0  0  0  0  0  0  0  0  0  0  0
  144.1978   68.6951  216.3028 H   0  0  0  0  0  0  0  0  0  0  0  0
  145.5310   68.8360  214.6200 H   0  0  0  0  0  0  0  0  0  0  0  0
  147.0915   70.0598  216.3846 H   0  0  0  0  0  0  0  0  0  0  0  0
  147.5409   69.6532  214.6575 H   0  0  0  0  0  0  0  0  0  0  0  0
  147.9528   72.0959  215.6701 H   0  0  0  0  0  0  0  0  0  0  0  0
  147.4521   71.8300  213.9599 H   0  0  0  0  0  0  0  0  0  0  0  0
  145.9779   75.6586  214.6849 H   0  0  0  0  0  0  0  0  0  0  0  0
  144.3841   77.5761  214.6427 H   0  0  0  0  0  0  0  0  0  0  0  0
  142.4206   77.6101  216.1760 H   0  0  0  0  0  0  0  0  0  0  0  0
  141.2728   72.0061  218.7134 H   0  0  0  0  0  0  0  0  0  0  0  0
  141.0450   70.8156  220.8851 H   0  0  0  0  0  0  0  0  0  0  0  0
  141.0033   72.4346  226.7724 H   0  0  0  0  0  0  0  0  0  0  0  0
  140.8335   71.2417  228.9623 H   0  0  0  0  0  0  0  0  0  0  0  0
  140.1743   68.8324  229.0250 H   0  0  0  0  0  0  0  0  0  0  0  0
  139.6869   67.6138  226.8996 H   0  0  0  0  0  0  0  0  0  0  0  0
  139.8479   68.8045  224.7100 H   0  0  0  0  0  0  0  0  0  0  0  0
  140.4898   74.5937  222.9115 H   0  0  0  0  0  0  0  0  0  0  0  0
  143.1020   77.6040  221.0270 H   0  0  0  0  0  0  0  0  0  0  0  0
  140.1475   77.1173  218.3085 H   0  0  0  0  0  0  0  0  0  0  0  0
  141.7798   77.8507  218.1790 H   0  0  0  0  0  0  0  0  0  0  0  0
  143.6959   73.8366  217.8819 H   0  0  0  0  0  0  0  0  0  0  0  0
  143.8510   72.2507  215.1725 H   0  0  0  0  0  0  0  0  0  0  0  0
  144.6229   72.7810  213.6276 H   0  0  0  0  0  0  0  0  0  0  0  0
  143.7851   70.2880  213.8792 H   0  0  0  0  0  0  0  0  0  0  0  0
  145.3920   70.6419  213.1111 H   0  0  0  0  0  0  0  0  0  0  0  0
  1  2  1  0
  2  3  1  0
  3  4  1  0
  4  5  1  0
  5  6  1  0
  6  7  2  0
  6  8  1  0
  8  9  2  0
  9 10  1  0
 10 11  2  0
 11 12  1  0
 12 13  1  0
 13 14  2  0
 14 15  1  0
 15 16  2  0
 16 17  1  0
 17 18  2  0
 18 19  1  0
 19 20  3  0
 20 21  1  0
 21 22  2  0
 22 23  1  0
 23 24  2  0
 24 25  1  0
 25 26  2  0
 18 27  1  0
 27 28  2  0
 28 29  1  0
 29 30  2  0
 30 31  1  0
 30 32  1  0
 12 33  2  0
  5 34  1  0
 34 35  1  0
 35  2  1  0
 33  8  1  0
 32 13  1  0
 28 15  1  0
 26 21  1  0
  1 36  1  0
  1 37  1  0
  1 38  1  0
  2 39  1  0
  3 40  1  0
  3 41  1  0
  4 42  1  0
  4 43  1  0
  9 44  1  0
 10 45  1  0
 11 46  1  0
 16 47  1  0
 17 48  1  0
 22 49  1  0
 23 50  1  0
 24 51  1  0
 25 52  1  0
 26 53  1  0
 27 54  1  0
 31 55  1  0
 32 56  1  0
 32 57  1  0
 33 58  1  0
 34 59  1  0
 34 60  1  0
 35 61  1  0
 35 62  1  0
M  CHG  1   2   1
M  END
>  <meeko>  (2) 
{"free_energy": -4.38, "intermolecular_energy": -7.66, "internal_energy": -1.14, "cluster_size": 1, "cluster_id": 10, "rank_in_cluster": 1}

$$$$

     RDKit          3D

 62 66  0  0  0  0  0  0  0  0999 V2000
  132.9750   83.2070  227.3810 C   0  0  0  0  0  0  0  0  0  0  0  0
  133.3040   82.0100  228.1900 N   0  0  0  0  0  0  0  0  0  0  0  0
  134.4580   82.2650  229.1020 C   0  0  0  0  0  0  0  0  0  0  0  0
  135.7900   81.6540  228.6140 C   0  0  0  0  0  0  0  0  0  0  0  0
  135.8350   81.6420  227.1490 N   0  0  0  0  0  0  0  0  0  0  0  0
  136.7740   82.4670  226.4350 C   0  0  0  0  0  0  0  0  0  0  0  0
  137.2300   83.5080  226.9830 O   0  0  0  0  0  0  0  0  0  0  0  0
  137.2020   82.1330  225.0600 C   0  0  0  0  0  0  0  0  0  0  0  0
  136.8220   82.9440  223.9820 C   0  0  0  0  0  0  0  0  0  0  0  0
  137.2230   82.6210  222.6820 C   0  0  0  0  0  0  0  0  0  0  0  0
  138.0130   81.4930  222.4490 C   0  0  0  0  0  0  0  0  0  0  0  0
  138.4080   80.6670  223.5160 C   0  0  0  0  0  0  0  0  0  0  0  0
  139.2590   79.4740  223.2820 C   0  0  0  0  0  0  0  0  0  0  0  0
  138.7360   78.4350  222.6970 N   0  0  0  0  0  0  0  0  0  0  0  0
  139.4050   77.2190  222.3210 C   0  0  0  0  0  0  0  0  0  0  0  0
  138.6370   76.0470  222.2850 C   0  0  0  0  0  0  0  0  0  0  0  0
  139.1950   74.8380  221.8700 C   0  0  0  0  0  0  0  0  0  0  0  0
  140.5260   74.7890  221.4500 C   0  0  0  0  0  0  0  0  0  0  0  0
  141.1010   73.5420  221.0180 C   0  0  0  0  0  0  0  0  0  0  0  0
  141.5920   72.5020  220.6540 C   0  0  0  0  0  0  0  0  0  0  0  0
  142.1870   71.2650  220.2220 C   0  0  0  0  0  0  0  0  0  0  0  0
  141.3760   70.1570  219.9410 C   0  0  0  0  0  0  0  0  0  0  0  0
  141.9560   68.9500  219.5380 C   0  0  0  0  0  0  0  0  0  0  0  0
  143.3470   68.8480  219.4150 C   0  0  0  0  0  0  0  0  0  0  0  0
  144.1570   69.9540  219.6940 C   0  0  0  0  0  0  0  0  0  0  0  0
  143.5790   71.1620  220.0960 C   0  0  0  0  0  0  0  0  0  0  0  0
  141.3020   75.9550  221.4520 C   0  0  0  0  0  0  0  0  0  0  0  0
  140.7640   77.1720  221.8970 C   0  0  0  0  0  0  0  0  0  0  0  0
  141.6100   78.3330  221.8160 N   0  0  0  0  0  0  0  0  0  0  0  0
  141.6070   79.3550  222.6180 C   0  0  0  0  0  0  0  0  0  0  0  0
  142.4990   80.4010  222.3980 O   0  0  0  0  0  0  0  0  0  0  0  0
  140.6760   79.4300  223.7830 C   0  0  0  0  0  0  0  0  0  0  0  0
  137.9790   80.9850  224.8190 C   0  0  0  0  0  0  0  0  0  0  0  0
  134.7520   80.9510  226.4360 C   0  0  0  0  0  0  0  0  0  0  0  0
  133.5040   80.8180  227.3310 C   0  0  0  0  0  0  0  0  0  0  0  0
  132.7435   84.0492  228.0497 H   0  0  0  0  0  0  0  0  0  0  0  0
  133.8347   83.4682  226.7464 H   0  0  0  0  0  0  0  0  0  0  0  0
  132.1026   82.9922  226.7464 H   0  0  0  0  0  0  0  0  0  0  0  0
  132.4610   81.8200  228.7880 H   0  0  0  0  0  0  0  0  0  0  0  0
  134.5904   83.3529  229.1968 H   0  0  0  0  0  0  0  0  0  0  0  0
  134.2187   81.7828  230.0613 H   0  0  0  0  0  0  0  0  0  0  0  0
  136.6276   82.2546  228.9983 H   0  0  0  0  0  0  0  0  0  0  0  0
  135.8677   80.6210  228.9838 H   0  0  0  0  0  0  0  0  0  0  0  0
  136.2060   83.8379  224.1593 H   0  0  0  0  0  0  0  0  0  0  0  0
  136.9151   83.2578  221.8395 H   0  0  0  0  0  0  0  0  0  0  0  0
  138.3283   81.2492  221.4237 H   0  0  0  0  0  0  0  0  0  0  0  0
  137.5801   76.0812  222.5881 H   0  0  0  0  0  0  0  0  0  0  0  0
  138.5860   73.9220  221.8735 H   0  0  0  0  0  0  0  0  0  0  0  0
  140.2832   70.2368  220.0375 H   0  0  0  0  0  0  0  0  0  0  0  0
  141.3193   68.0805  219.3176 H   0  0  0  0  0  0  0  0  0  0  0  0
  143.8030   67.8982  219.0990 H   0  0  0  0  0  0  0  0  0  0  0  0
  145.2497   69.8732  219.5970 H   0  0  0  0  0  0  0  0  0  0  0  0
  144.2168   72.0315  220.3133 H   0  0  0  0  0  0  0  0  0  0  0  0
  142.3438   75.9162  221.1011 H   0  0  0  0  0  0  0  0  0  0  0  0
  143.3430   80.2620  221.8580 H   0  0  0  0  0  0  0  0  0  0  0  0
  140.8132   78.5446  224.4211 H   0  0  0  0  0  0  0  0  0  0  0  0
  140.8891   80.3366  224.3684 H   0  0  0  0  0  0  0  0  0  0  0  0
  138.2544   80.3287  225.6577 H   0  0  0  0  0  0  0  0  0  0  0  0
  134.4899   81.5250  225.5350 H   0  0  0  0  0  0  0  0  0  0  0  0
  135.0977   79.9434  226.1615 H   0  0  0  0  0  0  0  0  0  0  0  0
  132.6195   80.6906  226.6896 H   0  0  0  0  0  0  0  0  0  0  0  0
  133.6494   79.9477  227.9878 H   0  0  0  0  0  0  0  0  0  0  0  0
  1  2  1  0
  2  3  1  0
  3  4  1  0
  4  5  1  0
  5  6  1  0
  6  7  2  0
  6  8  1  0
  8  9  2  0
  9 10  1  0
 10 11  2  0
 11 12  1  0
 12 13  1  0
 13 14  2  0
 14 15  1  0
 15 16  2  0
 16 17  1  0
 17 18  2  0
 18 19  1  0
 19 20  3  0
 20 21  1  0
 21 22  2  0
 22 23  1  0
 23 24  2  0
 24 25  1  0
 25 26  2  0
 18 27  1  0
 27 28  2  0
 28 29  1  0
 29 30  2  0
 30 31  1  0
 30 32  1  0
 12 33  2  0
  5 34  1  0
 34 35  1  0
 35  2  1  0
 33  8  1  0
 32 13  1  0
 28 15  1  0
 26 21  1  0
  1 36  1  0
  1 37  1  0
  1 38  1  0
  2 39  1  0
  3 40  1  0
  3 41  1  0
  4 42  1  0
  4 43  1  0
  9 44  1  0
 10 45  1  0
 11 46  1  0
 16 47  1  0
 17 48  1  0
 22 49  1  0
 23 50  1  0
 24 51  1  0
 25 52  1  0
 26 53  1  0
 27 54  1  0
 31 55  1  0
 32 56  1  0
 32 57  1  0
 33 58  1  0
 34 59  1  0
 34 60  1  0
 35 61  1  0
 35 62  1  0
M  CHG  1   2   1
M  END
>  <meeko>  (3) 
{"free_energy": -4.52, "intermolecular_energy": -7.8, "internal_energy": -1.05, "cluster_size": 1, "cluster_id": 9, "rank_in_cluster": 1}

$$$$

     RDKit          3D

 62 66  0  0  0  0  0  0  0  0999 V2000
  138.5440   81.7500  221.6600 C   0  0  0  0  0  0  0  0  0  0  0  0
  138.5050   80.7510  222.7540 N   0  0  0  0  0  0  0  0  0  0  0  0
  139.7430   80.8000  223.5860 C   0  0  0  0  0  0  0  0  0  0  0  0
  140.7430   79.6600  223.2890 C   0  0  0  0  0  0  0  0  0  0  0  0
  140.6670   79.2740  221.8770 N   0  0  0  0  0  0  0  0  0  0  0  0
  141.7730   79.5140  220.9880 C   0  0  0  0  0  0  0  0  0  0  0  0
  142.5990   80.4290  221.2560 O   0  0  0  0  0  0  0  0  0  0  0  0
  141.9520   78.7250  219.7510 C   0  0  0  0  0  0  0  0  0  0  0  0
  142.2480   79.3630  218.5390 C   0  0  0  0  0  0  0  0  0  0  0  0
  142.4080   78.6140  217.3690 C   0  0  0  0  0  0  0  0  0  0  0  0
  142.2850   77.2230  217.4020 C   0  0  0  0  0  0  0  0  0  0  0  0
  141.9910   76.5620  218.6080 C   0  0  0  0  0  0  0  0  0  0  0  0
  141.8700   75.0830  218.6570 C   0  0  0  0  0  0  0  0  0  0  0  0
  140.8600   74.5570  219.2860 N   0  0  0  0  0  0  0  0  0  0  0  0
  140.8980   73.7600  220.4830 C   0  0  0  0  0  0  0  0  0  0  0  0
  139.7980   73.8450  221.3480 C   0  0  0  0  0  0  0  0  0  0  0  0
  139.7290   73.0590  222.4980 C   0  0  0  0  0  0  0  0  0  0  0  0
  140.7480   72.1460  222.7840 C   0  0  0  0  0  0  0  0  0  0  0  0
  140.6750   71.3320  223.9680 C   0  0  0  0  0  0  0  0  0  0  0  0
  140.6110   70.6410  224.9540 C   0  0  0  0  0  0  0  0  0  0  0  0
  140.5350   69.8260  226.1380 C   0  0  0  0  0  0  0  0  0  0  0  0
  141.1280   68.5550  226.1550 C   0  0  0  0  0  0  0  0  0  0  0  0
  141.0390   67.7570  227.2990 C   0  0  0  0  0  0  0  0  0  0  0  0
  140.3580   68.2250  228.4290 C   0  0  0  0  0  0  0  0  0  0  0  0
  139.7660   69.4930  228.4130 C   0  0  0  0  0  0  0  0  0  0  0  0
  139.8550   70.2930  227.2710 C   0  0  0  0  0  0  0  0  0  0  0  0
  141.8410   72.0270  221.9170 C   0  0  0  0  0  0  0  0  0  0  0  0
  141.9400   72.8330  220.7740 C   0  0  0  0  0  0  0  0  0  0  0  0
  143.0670   72.6110  219.9070 N   0  0  0  0  0  0  0  0  0  0  0  0
  143.6620   73.4930  219.1630 C   0  0  0  0  0  0  0  0  0  0  0  0
  144.9990   73.8020  219.4020 O   0  0  0  0  0  0  0  0  0  0  0  0
  142.9370   74.2050  218.0640 C   0  0  0  0  0  0  0  0  0  0  0  0
  141.8050   77.3260  219.7760 C   0  0  0  0  0  0  0  0  0  0  0  0
  139.3600   78.8560  221.3510 C   0  0  0  0  0  0  0  0  0  0  0  0
  138.2160   79.3930  222.2340 C   0  0  0  0  0  0  0  0  0  0  0  0
  138.5835   82.7621  222.0890 H   0  0  0  0  0  0  0  0  0  0  0  0
  139.4362   81.5796  221.0395 H   0  0  0  0  0  0  0  0  0  0  0  0
  137.6413   81.6497  221.0395 H   0  0  0  0  0  0  0  0  0  0  0  0
  137.6970   81.0230  223.3700 H   0  0  0  0  0  0  0  0  0  0  0  0
  140.2471   81.7599  223.4005 H   0  0  0  0  0  0  0  0  0  0  0  0
  139.4283   80.6836  224.6336 H   0  0  0  0  0  0  0  0  0  0  0  0
  141.7629   80.0029  223.5174 H   0  0  0  0  0  0  0  0  0  0  0  0
  140.4904   78.7899  223.9127 H   0  0  0  0  0  0  0  0  0  0  0  0
  142.3549   80.4573  218.5078 H   0  0  0  0  0  0  0  0  0  0  0  0
  142.6315   79.1220  216.4193 H   0  0  0  0  0  0  0  0  0  0  0  0
  142.4190   76.6407  216.4784 H   0  0  0  0  0  0  0  0  0  0  0  0
  138.9783   74.5410  221.1166 H   0  0  0  0  0  0  0  0  0  0  0  0
  138.8720   73.1576  223.1805 H   0  0  0  0  0  0  0  0  0  0  0  0
  141.6633   68.1861  225.2676 H   0  0  0  0  0  0  0  0  0  0  0  0
  141.5044   66.7604  227.3114 H   0  0  0  0  0  0  0  0  0  0  0  0
  140.2882   67.5964  229.3290 H   0  0  0  0  0  0  0  0  0  0  0  0
  139.2300   69.8602  229.3006 H   0  0  0  0  0  0  0  0  0  0  0  0
  139.3909   71.2903  227.2611 H   0  0  0  0  0  0  0  0  0  0  0  0
  142.6308   71.2930  222.1350 H   0  0  0  0  0  0  0  0  0  0  0  0
  145.4870   74.4810  218.8320 H   0  0  0  0  0  0  0  0  0  0  0  0
  143.6475   74.8235  217.4960 H   0  0  0  0  0  0  0  0  0  0  0  0
  142.4745   73.4680  217.3910 H   0  0  0  0  0  0  0  0  0  0  0  0
  141.5418   76.8235  220.7185 H   0  0  0  0  0  0  0  0  0  0  0  0
  139.2408   79.2468  220.3297 H   0  0  0  0  0  0  0  0  0  0  0  0
  139.3166   77.7569  221.3486 H   0  0  0  0  0  0  0  0  0  0  0  0
  137.2937   79.4308  221.6357 H   0  0  0  0  0  0  0  0  0  0  0  0
  138.1053   78.7166  223.0944 H   0  0  0  0  0  0  0  0  0  0  0  0
  1  2  1  0
  2  3  1  0
  3  4  1  0
  4  5  1  0
  5  6  1  0
  6  7  2  0
  6  8  1  0
  8  9  2  0
  9 10  1  0
 10 11  2  0
 11 12  1  0
 12 13  1  0
 13 14  2  0
 14 15  1  0
 15 16  2  0
 16 17  1  0
 17 18  2  0
 18 19  1  0
 19 20  3  0
 20 21  1  0
 21 22  2  0
 22 23  1  0
 23 24  2  0
 24 25  1  0
 25 26  2  0
 18 27  1  0
 27 28  2  0
 28 29  1  0
 29 30  2  0
 30 31  1  0
 30 32  1  0
 12 33  2  0
  5 34  1  0
 34 35  1  0
 35  2  1  0
 33  8  1  0
 32 13  1  0
 28 15  1  0
 26 21  1  0
  1 36  1  0
  1 37  1  0
  1 38  1  0
  2 39  1  0
  3 40  1  0
  3 41  1  0
  4 42  1  0
  4 43  1  0
  9 44  1  0
 10 45  1  0
 11 46  1  0
 16 47  1  0
 17 48  1  0
 22 49  1  0
 23 50  1  0
 24 51  1  0
 25 52  1  0
 26 53  1  0
 27 54  1  0
 31 55  1  0
 32 56  1  0
 32 57  1  0
 33 58  1  0
 34 59  1  0
 34 60  1  0
 35 61  1  0
 35 62  1  0
M  CHG  1   2   1
M  END
>  <meeko>  (4) 
{"free_energy": -5.47, "intermolecular_energy": -8.75, "internal_energy": -1.19, "cluster_size": 8, "cluster_id": 2, "rank_in_cluster": 6}

$$$$

     RDKit          3D

 62 66  0  0  0  0  0  0  0  0999 V2000
  142.3790   69.1360  216.5910 C   0  0  0  0  0  0  0  0  0  0  0  0
  143.7830   68.7960  216.2650 N   0  0  0  0  0  0  0  0  0  0  0  0
  144.4150   67.9810  217.3450 C   0  0  0  0  0  0  0  0  0  0  0  0
  145.3710   68.7810  218.2570 C   0  0  0  0  0  0  0  0  0  0  0  0
  144.9130   70.1680  218.3790 N   0  0  0  0  0  0  0  0  0  0  0  0
  144.4340   70.6760  219.6370 C   0  0  0  0  0  0  0  0  0  0  0  0
  143.9740   69.8750  220.4980 O   0  0  0  0  0  0  0  0  0  0  0  0
  144.4460   72.1230  219.9390 C   0  0  0  0  0  0  0  0  0  0  0  0
  145.6000   72.7320  220.4490 C   0  0  0  0  0  0  0  0  0  0  0  0
  145.6060   74.1000  220.7400 C   0  0  0  0  0  0  0  0  0  0  0  0
  144.4630   74.8710  220.5150 C   0  0  0  0  0  0  0  0  0  0  0  0
  143.2950   74.2810  220.0020 C   0  0  0  0  0  0  0  0  0  0  0  0
  142.0790   75.0940  219.7470 C   0  0  0  0  0  0  0  0  0  0  0  0
  140.9170   74.5070  219.7620 N   0  0  0  0  0  0  0  0  0  0  0  0
  139.7960   74.8160  220.6070 C   0  0  0  0  0  0  0  0  0  0  0  0
  139.0510   73.7400  221.1080 C   0  0  0  0  0  0  0  0  0  0  0  0
  137.9870   73.9510  221.9840 C   0  0  0  0  0  0  0  0  0  0  0  0
  137.6720   75.2470  222.4020 C   0  0  0  0  0  0  0  0  0  0  0  0
  136.5770   75.4650  223.3100 C   0  0  0  0  0  0  0  0  0  0  0  0
  135.6650   75.6450  224.0790 C   0  0  0  0  0  0  0  0  0  0  0  0
  134.5840   75.8580  225.0050 C   0  0  0  0  0  0  0  0  0  0  0  0
  134.2080   74.8370  225.8900 C   0  0  0  0  0  0  0  0  0  0  0  0
  133.1460   75.0380  226.7790 C   0  0  0  0  0  0  0  0  0  0  0  0
  132.4600   76.2580  226.7850 C   0  0  0  0  0  0  0  0  0  0  0  0
  132.8350   77.2760  225.9020 C   0  0  0  0  0  0  0  0  0  0  0  0
  133.8970   77.0790  225.0150 C   0  0  0  0  0  0  0  0  0  0  0  0
  138.4220   76.3320  221.9350 C   0  0  0  0  0  0  0  0  0  0  0  0
  139.4750   76.1390  221.0280 C   0  0  0  0  0  0  0  0  0  0  0  0
  140.2300   77.3000  220.6400 N   0  0  0  0  0  0  0  0  0  0  0  0
  141.5140   77.3660  220.4520 C   0  0  0  0  0  0  0  0  0  0  0  0
  142.2780   78.2260  221.2350 O   0  0  0  0  0  0  0  0  0  0  0  0
  142.1890   76.5520  219.3960 C   0  0  0  0  0  0  0  0  0  0  0  0
  143.2900   72.8980  219.7360 C   0  0  0  0  0  0  0  0  0  0  0  0
  144.7380   70.9430  217.1430 C   0  0  0  0  0  0  0  0  0  0  0  0
  144.5680   70.0090  215.9290 C   0  0  0  0  0  0  0  0  0  0  0  0
  142.2533   69.1664  217.6834 H   0  0  0  0  0  0  0  0  0  0  0  0
  142.1318   70.1200  216.1659 H   0  0  0  0  0  0  0  0  0  0  0  0
  141.7090   68.3741  216.1659 H   0  0  0  0  0  0  0  0  0  0  0  0
  143.7480   68.2030  215.3980 H   0  0  0  0  0  0  0  0  0  0  0  0
  143.6160   67.5554  217.9699 H   0  0  0  0  0  0  0  0  0  0  0  0
  145.0205   67.2086  216.8483 H   0  0  0  0  0  0  0  0  0  0  0  0
  145.3946   68.3173  219.2542 H   0  0  0  0  0  0  0  0  0  0  0  0
  146.3783   68.7735  217.8150 H   0  0  0  0  0  0  0  0  0  0  0  0
  146.5054   72.1316  220.6213 H   0  0  0  0  0  0  0  0  0  0  0  0
  146.5133   74.5701  221.1472 H   0  0  0  0  0  0  0  0  0  0  0  0
  144.4772   75.9475  220.7409 H   0  0  0  0  0  0  0  0  0  0  0  0
  139.3093   72.7143  220.8059 H   0  0  0  0  0  0  0  0  0  0  0  0
  137.3954   73.0973  222.3462 H   0  0  0  0  0  0  0  0  0  0  0  0
  134.7477   73.8785  225.8853 H   0  0  0  0  0  0  0  0  0  0  0  0
  132.8504   74.2373  227.4729 H   0  0  0  0  0  0  0  0  0  0  0  0
  131.6258   76.4163  227.4843 H   0  0  0  0  0  0  0  0  0  0  0  0
  132.2931   78.2333  225.9057 H   0  0  0  0  0  0  0  0  0  0  0  0
  134.1934   77.8826  224.3248 H   0  0  0  0  0  0  0  0  0  0  0  0
  138.1834   77.3479  222.2829 H   0  0  0  0  0  0  0  0  0  0  0  0
  143.2780   78.0960  221.3300 H   0  0  0  0  0  0  0  0  0  0  0  0
  141.7041   76.7340  218.4256 H   0  0  0  0  0  0  0  0  0  0  0  0
  143.2495   76.8369  219.3325 H   0  0  0  0  0  0  0  0  0  0  0  0
  142.3719   72.4187  219.3654 H   0  0  0  0  0  0  0  0  0  0  0  0
  143.8437   71.5764  217.2384 H   0  0  0  0  0  0  0  0  0  0  0  0
  145.6328   71.5635  216.9870 H   0  0  0  0  0  0  0  0  0  0  0  0
  144.0488   70.5575  215.1293 H   0  0  0  0  0  0  0  0  0  0  0  0
  145.5690   69.6866  215.6063 H   0  0  0  0  0  0  0  0  0  0  0  0
  1  2  1  0
  2  3  1  0
  3  4  1  0
  4  5  1  0
  5  6  1  0
  6  7  2  0
  6  8  1  0
  8  9  2  0
  9 10  1  0
 10 11  2  0
 11 12  1  0
 12 13  1  0
 13 14  2  0
 14 15  1  0
 15 16  2  0
 16 17  1  0
 17 18  2  0
 18 19  1  0
 19 20  3  0
 20 21  1  0
 21 22  2  0
 22 23  1  0
 23 24  2  0
 24 25  1  0
 25 26  2  0
 18 27  1  0
 27 28  2  0
 28 29  1  0
 29 30  2  0
 30 31  1  0
 30 32  1  0
 12 33  2  0
  5 34  1  0
 34 35  1  0
 35  2  1  0
 33  8  1  0
 32 13  1  0
 28 15  1  0
 26 21  1  0
  1 36  1  0
  1 37  1  0
  1 38  1  0
  2 39  1  0
  3 40  1  0
  3 41  1  0
  4 42  1  0
  4 43  1  0
  9 44  1  0
 10 45  1  0
 11 46  1  0
 16 47  1  0
 17 48  1  0
 22 49  1  0
 23 50  1  0
 24 51  1  0
 25 52  1  0
 26 53  1  0
 27 54  1  0
 31 55  1  0
 32 56  1  0
 32 57  1  0
 33 58  1  0
 34 59  1  0
 34 60  1  0
 35 61  1  0
 35 62  1  0
M  CHG  1   2   1
M  END
>  <meeko>  (5) 
{"free_energy": -4.07, "intermolecular_energy": -7.35, "internal_energy": -1.13, "cluster_size": 1, "cluster_id": 12, "rank_in_cluster": 1}

$$$$

     RDKit          3D

 62 66  0  0  0  0  0  0  0  0999 V2000
  137.9110   80.3570  222.0610 C   0  0  0  0  0  0  0  0  0  0  0  0
  138.4550   79.5860  223.2030 N   0  0  0  0  0  0  0  0  0  0  0  0
  139.6350   80.2680  223.8120 C   0  0  0  0  0  0  0  0  0  0  0  0
  140.9930   79.6430  223.4210 C   0  0  0  0  0  0  0  0  0  0  0  0
  140.9220   79.0870  222.0660 N   0  0  0  0  0  0  0  0  0  0  0  0
  141.6870   79.6650  220.9930 C   0  0  0  0  0  0  0  0  0  0  0  0
  142.0450   80.8730  221.0650 O   0  0  0  0  0  0  0  0  0  0  0  0
  142.0440   78.8820  219.7920 C   0  0  0  0  0  0  0  0  0  0  0  0
  142.5810   79.5160  218.6640 C   0  0  0  0  0  0  0  0  0  0  0  0
  142.9100   78.7720  217.5270 C   0  0  0  0  0  0  0  0  0  0  0  0
  142.7150   77.3890  217.5100 C   0  0  0  0  0  0  0  0  0  0  0  0
  142.1790   76.7320  218.6310 C   0  0  0  0  0  0  0  0  0  0  0  0
  141.9800   75.2610  218.6300 C   0  0  0  0  0  0  0  0  0  0  0  0
  140.9330   74.7690  219.2260 N   0  0  0  0  0  0  0  0  0  0  0  0
  140.9100   73.9280  220.3920 C   0  0  0  0  0  0  0  0  0  0  0  0
  139.8010   74.0370  221.2430 C   0  0  0  0  0  0  0  0  0  0  0  0
  139.6730   73.2130  222.3610 C   0  0  0  0  0  0  0  0  0  0  0  0
  140.6390   72.2400  222.6270 C   0  0  0  0  0  0  0  0  0  0  0  0
  140.5040   71.3860  223.7790 C   0  0  0  0  0  0  0  0  0  0  0  0
  140.3840   70.6660  224.7390 C   0  0  0  0  0  0  0  0  0  0  0  0
  140.2350   69.8140  225.8900 C   0  0  0  0  0  0  0  0  0  0  0  0
  140.4020   70.3410  227.1780 C   0  0  0  0  0  0  0  0  0  0  0  0
  140.2740   69.5100  228.2960 C   0  0  0  0  0  0  0  0  0  0  0  0
  139.9780   68.1530  228.1280 C   0  0  0  0  0  0  0  0  0  0  0  0
  139.8100   67.6260  226.8430 C   0  0  0  0  0  0  0  0  0  0  0  0
  139.9360   68.4550  225.7240 C   0  0  0  0  0  0  0  0  0  0  0  0
  141.7390   72.0960  221.7740 C   0  0  0  0  0  0  0  0  0  0  0  0
  141.8990   72.9380  220.6630 C   0  0  0  0  0  0  0  0  0  0  0  0
  143.0270   72.6900  219.8060 N   0  0  0  0  0  0  0  0  0  0  0  0
  143.6780   73.5670  219.1030 C   0  0  0  0  0  0  0  0  0  0  0  0
  145.0230   73.8010  219.3740 O   0  0  0  0  0  0  0  0  0  0  0  0
  143.0080   74.3470  218.0220 C   0  0  0  0  0  0  0  0  0  0  0  0
  141.8260   77.4920  219.7630 C   0  0  0  0  0  0  0  0  0  0  0  0
  139.8850   78.0840  221.7900 C   0  0  0  0  0  0  0  0  0  0  0  0
  138.7400   78.1820  222.8180 C   0  0  0  0  0  0  0  0  0  0  0  0
  137.3154   81.2011  222.4389 H   0  0  0  0  0  0  0  0  0  0  0  0
  138.7407   80.7390  221.4480 H   0  0  0  0  0  0  0  0  0  0  0  0
  137.2729   79.7034  221.4480 H   0  0  0  0  0  0  0  0  0  0  0  0
  137.6940   79.5580  223.9270 H   0  0  0  0  0  0  0  0  0  0  0  0
  139.6320   81.3193  223.4883 H   0  0  0  0  0  0  0  0  0  0  0  0
  139.5372   80.1603  224.9023 H   0  0  0  0  0  0  0  0  0  0  0  0
  141.7732   80.4177  223.4557 H   0  0  0  0  0  0  0  0  0  0  0  0
  141.2342   78.8359  224.1285 H   0  0  0  0  0  0  0  0  0  0  0  0
  142.7444   80.6038  218.6730 H   0  0  0  0  0  0  0  0  0  0  0  0
  143.3241   79.2778  216.6423 H   0  0  0  0  0  0  0  0  0  0  0  0
  142.9826   76.8103  216.6136 H   0  0  0  0  0  0  0  0  0  0  0  0
  139.0216   74.7823  221.0260 H   0  0  0  0  0  0  0  0  0  0  0  0
  138.8106   73.3295  223.0338 H   0  0  0  0  0  0  0  0  0  0  0  0
  140.6337   71.4082  227.3097 H   0  0  0  0  0  0  0  0  0  0  0  0
  140.4060   69.9233  229.3068 H   0  0  0  0  0  0  0  0  0  0  0  0
  139.8772   67.4997  229.0072 H   0  0  0  0  0  0  0  0  0  0  0  0
  139.5786   66.5585  226.7128 H   0  0  0  0  0  0  0  0  0  0  0  0
  139.8005   68.0407  224.7141 H   0  0  0  0  0  0  0  0  0  0  0  0
  142.4861   71.3145  221.9766 H   0  0  0  0  0  0  0  0  0  0  0  0
  145.3880   74.7440  219.4260 H   0  0  0  0  0  0  0  0  0  0  0  0
  143.7573   74.9447  217.4823 H   0  0  0  0  0  0  0  0  0  0  0  0
  142.5170   73.6564  217.3206 H   0  0  0  0  0  0  0  0  0  0  0  0
  141.3750   76.9937  220.6338 H   0  0  0  0  0  0  0  0  0  0  0  0
  139.4795   78.2529  220.7815 H   0  0  0  0  0  0  0  0  0  0  0  0
  140.3358   77.0830  221.8592 H   0  0  0  0  0  0  0  0  0  0  0  0
  137.8315   77.7428  222.3801 H   0  0  0  0  0  0  0  0  0  0  0  0
  139.0495   77.6386  223.7229 H   0  0  0  0  0  0  0  0  0  0  0  0
  1  2  1  0
  2  3  1  0
  3  4  1  0
  4  5  1  0
  5  6  1  0
  6  7  2  0
  6  8  1  0
  8  9  2  0
  9 10  1  0
 10 11  2  0
 11 12  1  0
 12 13  1  0
 13 14  2  0
 14 15  1  0
 15 16  2  0
 16 17  1  0
 17 18  2  0
 18 19  1  0
 19 20  3  0
 20 21  1  0
 21 22  2  0
 22 23  1  0
 23 24  2  0
 24 25  1  0
 25 26  2  0
 18 27  1  0
 27 28  2  0
 28 29  1  0
 29 30  2  0
 30 31  1  0
 30 32  1  0
 12 33  2  0
  5 34  1  0
 34 35  1  0
 35  2  1  0
 33  8  1  0
 32 13  1  0
 28 15  1  0
 26 21  1  0
  1 36  1  0
  1 37  1  0
  1 38  1  0
  2 39  1  0
  3 40  1  0
  3 41  1  0
  4 42  1  0
  4 43  1  0
  9 44  1  0
 10 45  1  0
 11 46  1  0
 16 47  1  0
 17 48  1  0
 22 49  1  0
 23 50  1  0
 24 51  1  0
 25 52  1  0
 26 53  1  0
 27 54  1  0
 31 55  1  0
 32 56  1  0
 32 57  1  0
 33 58  1  0
 34 59  1  0
 34 60  1  0
 35 61  1  0
 35 62  1  0
M  CHG  1   2   1
M  END
>  <meeko>  (6) 
{"free_energy": -5.9, "intermolecular_energy": -9.18, "internal_energy": -1.02, "cluster_size": 8, "cluster_id": 2, "rank_in_cluster": 1}

$$$$

     RDKit          3D

 62 66  0  0  0  0  0  0  0  0999 V2000
  139.3880   80.2920  223.1810 C   0  0  0  0  0  0  0  0  0  0  0  0
  140.7420   80.1270  223.7580 N   0  0  0  0  0  0  0  0  0  0  0  0
  141.6680   81.2050  223.3000 C   0  0  0  0  0  0  0  0  0  0  0  0
  142.6550   80.7590  222.1990 C   0  0  0  0  0  0  0  0  0  0  0  0
  142.0380   79.7340  221.3510 N   0  0  0  0  0  0  0  0  0  0  0  0
  141.7330   80.0070  219.9720 C   0  0  0  0  0  0  0  0  0  0  0  0
  141.5540   81.1990  219.5980 O   0  0  0  0  0  0  0  0  0  0  0  0
  141.5990   78.9180  218.9820 C   0  0  0  0  0  0  0  0  0  0  0  0
  142.2740   78.9850  217.7560 C   0  0  0  0  0  0  0  0  0  0  0  0
  142.1380   77.9560  216.8190 C   0  0  0  0  0  0  0  0  0  0  0  0
  141.3380   76.8480  217.1030 C   0  0  0  0  0  0  0  0  0  0  0  0
  140.6540   76.7580  218.3270 C   0  0  0  0  0  0  0  0  0  0  0  0
  139.8100   75.5780  218.6450 C   0  0  0  0  0  0  0  0  0  0  0  0
  140.3910   74.4360  218.8760 N   0  0  0  0  0  0  0  0  0  0  0  0
  140.3020   73.6390  220.0690 C   0  0  0  0  0  0  0  0  0  0  0  0
  141.4730   73.0070  220.5100 C   0  0  0  0  0  0  0  0  0  0  0  0
  141.4860   72.2680  221.6930 C   0  0  0  0  0  0  0  0  0  0  0  0
  140.3310   72.1770  222.4740 C   0  0  0  0  0  0  0  0  0  0  0  0
  140.3450   71.4170  223.6960 C   0  0  0  0  0  0  0  0  0  0  0  0
  140.3640   70.7870  224.7240 C   0  0  0  0  0  0  0  0  0  0  0  0
  140.3950   70.0420  225.9560 C   0  0  0  0  0  0  0  0  0  0  0  0
  140.6700   68.6670  225.9370 C   0  0  0  0  0  0  0  0  0  0  0  0
  140.6840   67.9400  227.1310 C   0  0  0  0  0  0  0  0  0  0  0  0
  140.4230   68.5840  228.3460 C   0  0  0  0  0  0  0  0  0  0  0  0
  140.1490   69.9560  228.3660 C   0  0  0  0  0  0  0  0  0  0  0  0
  140.1370   70.6850  227.1730 C   0  0  0  0  0  0  0  0  0  0  0  0
  139.1590   72.8240  222.0640 C   0  0  0  0  0  0  0  0  0  0  0  0
  139.1210   73.5450  220.8620 C   0  0  0  0  0  0  0  0  0  0  0  0
  137.8960   74.2250  220.5400 N   0  0  0  0  0  0  0  0  0  0  0  0
  137.7760   75.3960  219.9900 C   0  0  0  0  0  0  0  0  0  0  0  0
  137.1240   76.4140  220.6790 O   0  0  0  0  0  0  0  0  0  0  0  0
  138.3110   75.6760  218.6220 C   0  0  0  0  0  0  0  0  0  0  0  0
  140.7750   77.8110  219.2540 C   0  0  0  0  0  0  0  0  0  0  0  0
  141.5340   78.5180  222.0030 C   0  0  0  0  0  0  0  0  0  0  0  0
  141.2750   78.7670  223.5030 C   0  0  0  0  0  0  0  0  0  0  0  0
  138.6517   80.3817  223.9933 H   0  0  0  0  0  0  0  0  0  0  0  0
  139.3620   81.2000  222.5606 H   0  0  0  0  0  0  0  0  0  0  0  0
  139.1447   79.4169  222.5606 H   0  0  0  0  0  0  0  0  0  0  0  0
  140.6310   80.2230  224.7980 H   0  0  0  0  0  0  0  0  0  0  0  0
  141.0640   82.0361  222.9071 H   0  0  0  0  0  0  0  0  0  0  0  0
  142.2732   81.4963  224.1712 H   0  0  0  0  0  0  0  0  0  0  0  0
  142.9261   81.6273  221.5806 H   0  0  0  0  0  0  0  0  0  0  0  0
  143.5550   80.3394  222.6722 H   0  0  0  0  0  0  0  0  0  0  0  0
  142.9137   79.8508  217.5296 H   0  0  0  0  0  0  0  0  0  0  0  0
  142.6633   78.0199  215.8547 H   0  0  0  0  0  0  0  0  0  0  0  0
  141.2424   76.0395  216.3633 H   0  0  0  0  0  0  0  0  0  0  0  0
  142.3941   73.0950  219.9151 H   0  0  0  0  0  0  0  0  0  0  0  0
  142.4063   71.7564  222.0113 H   0  0  0  0  0  0  0  0  0  0  0  0
  140.8747   68.1604  224.9823 H   0  0  0  0  0  0  0  0  0  0  0  0
  140.9002   66.8616  227.1156 H   0  0  0  0  0  0  0  0  0  0  0  0
  140.4333   68.0115  229.2852 H   0  0  0  0  0  0  0  0  0  0  0  0
  139.9429   70.4614  229.3210 H   0  0  0  0  0  0  0  0  0  0  0  0
  139.9248   71.7642  227.1904 H   0  0  0  0  0  0  0  0  0  0  0  0
  138.2577   72.7660  222.6920 H   0  0  0  0  0  0  0  0  0  0  0  0
  136.5320   77.0770  220.1930 H   0  0  0  0  0  0  0  0  0  0  0  0
  137.9056   74.9407  217.9114 H   0  0  0  0  0  0  0  0  0  0  0  0
  138.0128   76.6877  218.3098 H   0  0  0  0  0  0  0  0  0  0  0  0
  140.2186   77.7673  220.2019 H   0  0  0  0  0  0  0  0  0  0  0  0
  140.5935   78.2136  221.5205 H   0  0  0  0  0  0  0  0  0  0  0  0
  142.2902   77.7254  221.9029 H   0  0  0  0  0  0  0  0  0  0  0  0
  140.5463   78.0267  223.8650 H   0  0  0  0  0  0  0  0  0  0  0  0
  142.2345   78.6740  224.0328 H   0  0  0  0  0  0  0  0  0  0  0  0
  1  2  1  0
  2  3  1  0
  3  4  1  0
  4  5  1  0
  5  6  1  0
  6  7  2  0
  6  8  1  0
  8  9  2  0
  9 10  1  0
 10 11  2  0
 11 12  1  0
 12 13  1  0
 13 14  2  0
 14 15  1  0
 15 16  2  0
 16 17  1  0
 17 18  2  0
 18 19  1  0
 19 20  3  0
 20 21  1  0
 21 22  2  0
 22 23  1  0
 23 24  2  0
 24 25  1  0
 25 26  2  0
 18 27  1  0
 27 28  2  0
 28 29  1  0
 29 30  2  0
 30 31  1  0
 30 32  1  0
 12 33  2  0
  5 34  1  0
 34 35  1  0
 35  2  1  0
 33  8  1  0
 32 13  1  0
 28 15  1  0
 26 21  1  0
  1 36  1  0
  1 37  1  0
  1 38  1  0
  2 39  1  0
  3 40  1  0
  3 41  1  0
  4 42  1  0
  4 43  1  0
  9 44  1  0
 10 45  1  0
 11 46  1  0
 16 47  1  0
 17 48  1  0
 22 49  1  0
 23 50  1  0
 24 51  1  0
 25 52  1  0
 26 53  1  0
 27 54  1  0
 31 55  1  0
 32 56  1  0
 32 57  1  0
 33 58  1  0
 34 59  1  0
 34 60  1  0
 35 61  1  0
 35 62  1  0
M  CHG  1   2   1
M  END
>  <meeko>  (7) 
{"free_energy": -4.61, "intermolecular_energy": -7.89, "internal_energy": -1.02, "cluster_size": 1, "cluster_id": 8, "rank_in_cluster": 1}

$$$$

     RDKit          3D

 62 66  0  0  0  0  0  0  0  0999 V2000
  142.8700   81.2760  217.5440 C   0  0  0  0  0  0  0  0  0  0  0  0
  141.7390   82.1720  217.2060 N   0  0  0  0  0  0  0  0  0  0  0  0
  141.7500   83.4080  218.0430 C   0  0  0  0  0  0  0  0  0  0  0  0
  140.7140   83.3980  219.1890 C   0  0  0  0  0  0  0  0  0  0  0  0
  140.5080   82.0300  219.6730 N   0  0  0  0  0  0  0  0  0  0  0  0
  140.9200   81.6490  220.9980 C   0  0  0  0  0  0  0  0  0  0  0  0
  141.8370   82.2950  221.5750 O   0  0  0  0  0  0  0  0  0  0  0  0
  140.3060   80.4980  221.6950 C   0  0  0  0  0  0  0  0  0  0  0  0
  139.4930   80.6990  222.8180 C   0  0  0  0  0  0  0  0  0  0  0  0
  138.9210   79.6070  223.4780 C   0  0  0  0  0  0  0  0  0  0  0  0
  139.1480   78.3090  223.0170 C   0  0  0  0  0  0  0  0  0  0  0  0
  139.9590   78.0840  221.8910 C   0  0  0  0  0  0  0  0  0  0  0  0
  140.1960   76.7090  221.3840 C   0  0  0  0  0  0  0  0  0  0  0  0
  141.4160   76.2540  221.3510 N   0  0  0  0  0  0  0  0  0  0  0  0
  141.8430   74.9340  220.9740 C   0  0  0  0  0  0  0  0  0  0  0  0
  143.1270   74.8050  220.4280 C   0  0  0  0  0  0  0  0  0  0  0  0
  143.6400   73.5510  220.0940 C   0  0  0  0  0  0  0  0  0  0  0  0
  142.8870   72.4000  220.3340 C   0  0  0  0  0  0  0  0  0  0  0  0
  143.4180   71.1060  219.9940 C   0  0  0  0  0  0  0  0  0  0  0  0
  143.8580   70.0180  219.7170 C   0  0  0  0  0  0  0  0  0  0  0  0
  144.3940   68.7220  219.3920 C   0  0  0  0  0  0  0  0  0  0  0  0
  143.5320   67.6300  219.2230 C   0  0  0  0  0  0  0  0  0  0  0  0
  144.0540   66.3670  218.9230 C   0  0  0  0  0  0  0  0  0  0  0  0
  145.4370   66.1940  218.7920 C   0  0  0  0  0  0  0  0  0  0  0  0
  146.2970   67.2850  218.9600 C   0  0  0  0  0  0  0  0  0  0  0  0
  145.7780   68.5480  219.2570 C   0  0  0  0  0  0  0  0  0  0  0  0
  141.6130   72.5070  220.9050 C   0  0  0  0  0  0  0  0  0  0  0  0
  141.0700   73.7620  221.2160 C   0  0  0  0  0  0  0  0  0  0  0  0
  139.7790   73.7820  221.8500 N   0  0  0  0  0  0  0  0  0  0  0  0
  138.8610   74.6920  221.7180 C   0  0  0  0  0  0  0  0  0  0  0  0
  137.6510   74.5470  222.3910 O   0  0  0  0  0  0  0  0  0  0  0  0
  139.0630   75.8830  220.8420 C   0  0  0  0  0  0  0  0  0  0  0  0
  140.5520   79.1870  221.2470 C   0  0  0  0  0  0  0  0  0  0  0  0
  140.0880   81.0140  218.6980 C   0  0  0  0  0  0  0  0  0  0  0  0
  140.4450   81.4510  217.2630 C   0  0  0  0  0  0  0  0  0  0  0  0
  142.9644   81.2012  218.6374 H   0  0  0  0  0  0  0  0  0  0  0  0
  142.6848   80.2769  217.1228 H   0  0  0  0  0  0  0  0  0  0  0  0
  143.8003   81.6849  217.1228 H   0  0  0  0  0  0  0  0  0  0  0  0
  141.8850   82.4630  216.2060 H   0  0  0  0  0  0  0  0  0  0  0  0
  142.7520   83.5192  218.4831 H   0  0  0  0  0  0  0  0  0  0  0  0
  141.4843   84.2446  217.3800 H   0  0  0  0  0  0  0  0  0  0  0  0
  141.0804   84.0246  220.0155 H   0  0  0  0  0  0  0  0  0  0  0  0
  139.7589   83.7934  218.8129 H   0  0  0  0  0  0  0  0  0  0  0  0
  139.3039   81.7197  223.1819 H   0  0  0  0  0  0  0  0  0  0  0  0
  138.2898   79.7713  224.3638 H   0  0  0  0  0  0  0  0  0  0  0  0
  138.6890   77.4562  223.5386 H   0  0  0  0  0  0  0  0  0  0  0  0
  143.7385   75.7039  220.2605 H   0  0  0  0  0  0  0  0  0  0  0  0
  144.6390   73.4692  219.6410 H   0  0  0  0  0  0  0  0  0  0  0  0
  142.4453   67.7658  219.3262 H   0  0  0  0  0  0  0  0  0  0  0  0
  143.3776   65.5098  218.7901 H   0  0  0  0  0  0  0  0  0  0  0  0
  145.8475   65.2009  218.5571 H   0  0  0  0  0  0  0  0  0  0  0  0
  147.3837   67.1482  218.8581 H   0  0  0  0  0  0  0  0  0  0  0  0
  146.4554   69.4052  219.3848 H   0  0  0  0  0  0  0  0  0  0  0  0
  141.0316   71.5965  221.1119 H   0  0  0  0  0  0  0  0  0  0  0  0
  137.6040   74.6100  223.4000 H   0  0  0  0  0  0  0  0  0  0  0  0
  139.3045   75.5521  219.8211 H   0  0  0  0  0  0  0  0  0  0  0  0
  138.1433   76.4861  220.8205 H   0  0  0  0  0  0  0  0  0  0  0  0
  141.2146   79.0220  220.3846 H   0  0  0  0  0  0  0  0  0  0  0  0
  140.5976   80.0656  218.9234 H   0  0  0  0  0  0  0  0  0  0  0  0
  138.9973   80.8888  218.7672 H   0  0  0  0  0  0  0  0  0  0  0  0
  140.5086   80.5570  216.6253 H   0  0  0  0  0  0  0  0  0  0  0  0
  139.6594   82.1362  216.9119 H   0  0  0  0  0  0  0  0  0  0  0  0
  1  2  1  0
  2  3  1  0
  3  4  1  0
  4  5  1  0
  5  6  1  0
  6  7  2  0
  6  8  1  0
  8  9  2  0
  9 10  1  0
 10 11  2  0
 11 12  1  0
 12 13  1  0
 13 14  2  0
 14 15  1  0
 15 16  2  0
 16 17  1  0
 17 18  2  0
 18 19  1  0
 19 20  3  0
 20 21  1  0
 21 22  2  0
 22 23  1  0
 23 24  2  0
 24 25  1  0
 25 26  2  0
 18 27  1  0
 27 28  2  0
 28 29  1  0
 29 30  2  0
 30 31  1  0
 30 32  1  0
 12 33  2  0
  5 34  1  0
 34 35  1  0
 35  2  1  0
 33  8  1  0
 32 13  1  0
 28 15  1  0
 26 21  1  0
  1 36  1  0
  1 37  1  0
  1 38  1  0
  2 39  1  0
  3 40  1  0
  3 41  1  0
  4 42  1  0
  4 43  1  0
  9 44  1  0
 10 45  1  0
 11 46  1  0
 16 47  1  0
 17 48  1  0
 22 49  1  0
 23 50  1  0
 24 51  1  0
 25 52  1  0
 26 53  1  0
 27 54  1  0
 31 55  1  0
 32 56  1  0
 32 57  1  0
 33 58  1  0
 34 59  1  0
 34 60  1  0
 35 61  1  0
 35 62  1  0
M  CHG  1   2   1
M  END
>  <meeko>  (8) 
{"free_energy": -6.05, "intermolecular_energy": -9.33, "internal_energy": -1.02, "cluster_size": 2, "cluster_id": 1, "rank_in_cluster": 1}

$$$$

     RDKit          3D

 62 66  0  0  0  0  0  0  0  0999 V2000
  146.3070   73.6740  220.1840 C   0  0  0  0  0  0  0  0  0  0  0  0
  145.1880   72.7080  220.2750 N   0  0  0  0  0  0  0  0  0  0  0  0
  144.9170   72.0560  218.9600 C   0  0  0  0  0  0  0  0  0  0  0  0
  143.6810   72.6180  218.2230 C   0  0  0  0  0  0  0  0  0  0  0  0
  143.5110   74.0410  218.5320 N   0  0  0  0  0  0  0  0  0  0  0  0
  143.6870   75.0410  217.5120 C   0  0  0  0  0  0  0  0  0  0  0  0
  144.4090   74.7860  216.5080 O   0  0  0  0  0  0  0  0  0  0  0  0
  143.0580   76.3740  217.6230 C   0  0  0  0  0  0  0  0  0  0  0  0
  143.3050   77.3580  216.6570 C   0  0  0  0  0  0  0  0  0  0  0  0
  142.7150   78.6210  216.7700 C   0  0  0  0  0  0  0  0  0  0  0  0
  141.8660   78.9060  217.8420 C   0  0  0  0  0  0  0  0  0  0  0  0
  141.6020   77.9330  218.8210 C   0  0  0  0  0  0  0  0  0  0  0  0
  140.6900   78.2210  219.9570 C   0  0  0  0  0  0  0  0  0  0  0  0
  140.5790   79.4480  220.3760 N   0  0  0  0  0  0  0  0  0  0  0  0
  139.9260   79.9040  221.5730 C   0  0  0  0  0  0  0  0  0  0  0  0
  139.2260   81.1160  221.5030 C   0  0  0  0  0  0  0  0  0  0  0  0
  138.5150   81.5970  222.6030 C   0  0  0  0  0  0  0  0  0  0  0  0
  138.4630   80.8510  223.7830 C   0  0  0  0  0  0  0  0  0  0  0  0
  137.7250   81.3450  224.9160 C   0  0  0  0  0  0  0  0  0  0  0  0
  137.1100   81.7500  225.8710 C   0  0  0  0  0  0  0  0  0  0  0  0
  136.3820   82.2270  227.0180 C   0  0  0  0  0  0  0  0  0  0  0  0
  135.9370   83.5550  227.0630 C   0  0  0  0  0  0  0  0  0  0  0  0
  135.2440   84.0230  228.1840 C   0  0  0  0  0  0  0  0  0  0  0  0
  134.9960   83.1650  229.2620 C   0  0  0  0  0  0  0  0  0  0  0  0
  135.4390   81.8390  229.2170 C   0  0  0  0  0  0  0  0  0  0  0  0
  136.1300   81.3690  228.0960 C   0  0  0  0  0  0  0  0  0  0  0  0
  139.1320   79.6240  223.8630 C   0  0  0  0  0  0  0  0  0  0  0  0
  139.8790   79.1430  222.7770 C   0  0  0  0  0  0  0  0  0  0  0  0
  140.4910   77.8490  222.9210 N   0  0  0  0  0  0  0  0  0  0  0  0
  140.5690   76.9200  222.0170 C   0  0  0  0  0  0  0  0  0  0  0  0
  141.2400   75.7360  222.3070 O   0  0  0  0  0  0  0  0  0  0  0  0
  139.9700   77.1080  220.6660 C   0  0  0  0  0  0  0  0  0  0  0  0
  142.2210   76.6730  218.7130 C   0  0  0  0  0  0  0  0  0  0  0  0
  143.3900   74.4260  219.9450 C   0  0  0  0  0  0  0  0  0  0  0  0
  143.9800   73.3370  220.8620 C   0  0  0  0  0  0  0  0  0  0  0  0
  146.6323   73.9548  221.1966 H   0  0  0  0  0  0  0  0  0  0  0  0
  147.1468   73.2125  219.6439 H   0  0  0  0  0  0  0  0  0  0  0  0
  145.9730   74.5722  219.6439 H   0  0  0  0  0  0  0  0  0  0  0  0
  145.5000   71.9600  220.9440 H   0  0  0  0  0  0  0  0  0  0  0  0
  145.7975   72.1971  218.3160 H   0  0  0  0  0  0  0  0  0  0  0  0
  144.7093   70.9958  219.1672 H   0  0  0  0  0  0  0  0  0  0  0  0
  143.8178   72.4955  217.1384 H   0  0  0  0  0  0  0  0  0  0  0  0
  142.7863   72.0697  218.5529 H   0  0  0  0  0  0  0  0  0  0  0  0
  143.9658   77.1364  215.8060 H   0  0  0  0  0  0  0  0  0  0  0  0
  142.9201   79.3920  216.0127 H   0  0  0  0  0  0  0  0  0  0  0  0
  141.4005   79.8996  217.9205 H   0  0  0  0  0  0  0  0  0  0  0  0
  139.2372   81.6959  220.5684 H   0  0  0  0  0  0  0  0  0  0  0  0
  137.9950   82.5644  222.5410 H   0  0  0  0  0  0  0  0  0  0  0  0
  136.1328   84.2295  226.2164 H   0  0  0  0  0  0  0  0  0  0  0  0
  134.8938   85.0652  228.2187 H   0  0  0  0  0  0  0  0  0  0  0  0
  134.4527   83.5336  230.1446 H   0  0  0  0  0  0  0  0  0  0  0  0
  135.2436   81.1653  230.0643 H   0  0  0  0  0  0  0  0  0  0  0  0
  136.4757   80.3253  228.0607 H   0  0  0  0  0  0  0  0  0  0  0  0
  139.0715   79.0305  224.7872 H   0  0  0  0  0  0  0  0  0  0  0  0
  142.1720   75.5630  221.9500 H   0  0  0  0  0  0  0  0  0  0  0  0
  140.0690   76.1780  220.0869 H   0  0  0  0  0  0  0  0  0  0  0  0
  138.9044   77.3618  220.7661 H   0  0  0  0  0  0  0  0  0  0  0  0
  142.0480   75.9138  219.4900 H   0  0  0  0  0  0  0  0  0  0  0  0
  143.9325   75.3687  220.1096 H   0  0  0  0  0  0  0  0  0  0  0  0
  142.3240   74.5502  220.1863 H   0  0  0  0  0  0  0  0  0  0  0  0
  144.2503   73.7930  221.8258 H   0  0  0  0  0  0  0  0  0  0  0  0
  143.2187   72.5535  220.9908 H   0  0  0  0  0  0  0  0  0  0  0  0
  1  2  1  0
  2  3  1  0
  3  4  1  0
  4  5  1  0
  5  6  1  0
  6  7  2  0
  6  8  1  0
  8  9  2  0
  9 10  1  0
 10 11  2  0
 11 12  1  0
 12 13  1  0
 13 14  2  0
 14 15  1  0
 15 16  2  0
 16 17  1  0
 17 18  2  0
 18 19  1  0
 19 20  3  0
 20 21  1  0
 21 22  2  0
 22 23  1  0
 23 24  2  0
 24 25  1  0
 25 26  2  0
 18 27  1  0
 27 28  2  0
 28 29  1  0
 29 30  2  0
 30 31  1  0
 30 32  1  0
 12 33  2  0
  5 34  1  0
 34 35  1  0
 35  2  1  0
 33  8  1  0
 32 13  1  0
 28 15  1  0
 26 21  1  0
  1 36  1  0
  1 37  1  0
  1 38  1  0
  2 39  1  0
  3 40  1  0
  3 41  1  0
  4 42  1  0
  4 43  1  0
  9 44  1  0
 10 45  1  0
 11 46  1  0
 16 47  1  0
 17 48  1  0
 22 49  1  0
 23 50  1  0
 24 51  1  0
 25 52  1  0
 26 53  1  0
 27 54  1  0
 31 55  1  0
 32 56  1  0
 32 57  1  0
 33 58  1  0
 34 59  1  0
 34 60  1  0
 35 61  1  0
 35 62  1  0
M  CHG  1   2   1
M  END
>  <meeko>  (9) 
{"free_energy": -5.61, "intermolecular_energy": -8.89, "internal_energy": -0.78, "cluster_size": 1, "cluster_id": 3, "rank_in_cluster": 1}

$$$$

     RDKit          3D

 62 66  0  0  0  0  0  0  0  0999 V2000
  144.8020   77.9400  213.2300 C   0  0  0  0  0  0  0  0  0  0  0  0
  144.1830   76.6310  213.5430 N   0  0  0  0  0  0  0  0  0  0  0  0
  142.7930   76.5390  213.0070 C   0  0  0  0  0  0  0  0  0  0  0  0
  141.6940   76.7230  214.0770 C   0  0  0  0  0  0  0  0  0  0  0  0
  142.1560   77.6380  215.1250 N   0  0  0  0  0  0  0  0  0  0  0  0
  141.5420   78.9280  215.2970 C   0  0  0  0  0  0  0  0  0  0  0  0
  140.9530   79.4730  214.3230 O   0  0  0  0  0  0  0  0  0  0  0  0
  141.6050   79.6440  216.5890 C   0  0  0  0  0  0  0  0  0  0  0  0
  142.0350   80.9770  216.6410 C   0  0  0  0  0  0  0  0  0  0  0  0
  142.1000   81.6490  217.8660 C   0  0  0  0  0  0  0  0  0  0  0  0
  141.7280   80.9990  219.0450 C   0  0  0  0  0  0  0  0  0  0  0  0
  141.2910   79.6640  219.0150 C   0  0  0  0  0  0  0  0  0  0  0  0
  140.8800   78.9680  220.2610 C   0  0  0  0  0  0  0  0  0  0  0  0
  139.6270   78.9950  220.6100 N   0  0  0  0  0  0  0  0  0  0  0  0
  139.0590   79.6280  221.7690 C   0  0  0  0  0  0  0  0  0  0  0  0
  137.7510   80.1190  221.6590 C   0  0  0  0  0  0  0  0  0  0  0  0
  137.1060   80.6910  222.7550 C   0  0  0  0  0  0  0  0  0  0  0  0
  137.7500   80.7500  223.9940 C   0  0  0  0  0  0  0  0  0  0  0  0
  137.0820   81.3360  225.1270 C   0  0  0  0  0  0  0  0  0  0  0  0
  136.5310   81.8240  226.0820 C   0  0  0  0  0  0  0  0  0  0  0  0
  135.8690   82.3950  227.2250 C   0  0  0  0  0  0  0  0  0  0  0  0
  135.4100   83.7190  227.1800 C   0  0  0  0  0  0  0  0  0  0  0  0
  134.7820   84.2800  228.2970 C   0  0  0  0  0  0  0  0  0  0  0  0
  134.6110   83.5190  229.4600 C   0  0  0  0  0  0  0  0  0  0  0  0
  135.0690   82.1980  229.5050 C   0  0  0  0  0  0  0  0  0  0  0  0
  135.6950   81.6350  228.3890 C   0  0  0  0  0  0  0  0  0  0  0  0
  139.0460   80.2390  224.1310 C   0  0  0  0  0  0  0  0  0  0  0  0
  139.7200   79.6900  223.0300 C   0  0  0  0  0  0  0  0  0  0  0  0
  141.0270   79.1380  223.2670 N   0  0  0  0  0  0  0  0  0  0  0  0
  142.0130   79.0820  222.4230 C   0  0  0  0  0  0  0  0  0  0  0  0
  143.1920   79.7680  222.7000 O   0  0  0  0  0  0  0  0  0  0  0  0
  141.9020   78.3120  221.1480 C   0  0  0  0  0  0  0  0  0  0  0  0
  141.2530   78.9860  217.7810 C   0  0  0  0  0  0  0  0  0  0  0  0
  143.4000   77.3000  215.8300 C   0  0  0  0  0  0  0  0  0  0  0  0
  144.2590   76.3320  214.9930 C   0  0  0  0  0  0  0  0  0  0  0  0
  145.0489   78.4621  214.1662 H   0  0  0  0  0  0  0  0  0  0  0  0
  145.7203   77.7810  212.6457 H   0  0  0  0  0  0  0  0  0  0  0  0
  144.0964   78.5489  212.6457 H   0  0  0  0  0  0  0  0  0  0  0  0
  144.7630   75.9070  213.0490 H   0  0  0  0  0  0  0  0  0  0  0  0
  142.6649   77.3188  212.2418 H   0  0  0  0  0  0  0  0  0  0  0  0
  142.6750   75.5237  212.6006 H   0  0  0  0  0  0  0  0  0  0  0  0
  140.7920   77.1383  213.6038 H   0  0  0  0  0  0  0  0  0  0  0  0
  141.4654   75.7463  214.5284 H   0  0  0  0  0  0  0  0  0  0  0  0
  142.3224   81.4966  215.7150 H   0  0  0  0  0  0  0  0  0  0  0  0
  142.4452   82.6928  217.9010 H   0  0  0  0  0  0  0  0  0  0  0  0
  141.7775   81.5360  220.0037 H   0  0  0  0  0  0  0  0  0  0  0  0
  137.2259   80.0523  220.6947 H   0  0  0  0  0  0  0  0  0  0  0  0
  136.0894   81.0962  222.6443 H   0  0  0  0  0  0  0  0  0  0  0  0
  135.5437   84.3167  226.2663 H   0  0  0  0  0  0  0  0  0  0  0  0
  134.4225   85.3190  228.2618 H   0  0  0  0  0  0  0  0  0  0  0  0
  134.1165   83.9599  230.3381 H   0  0  0  0  0  0  0  0  0  0  0  0
  134.9364   81.6015  230.4197 H   0  0  0  0  0  0  0  0  0  0  0  0
  136.0511   80.5949  228.4248 H   0  0  0  0  0  0  0  0  0  0  0  0
  139.5413   80.2683  225.1127 H   0  0  0  0  0  0  0  0  0  0  0  0
  144.0460   79.5630  222.1970 H   0  0  0  0  0  0  0  0  0  0  0  0
  142.8772   78.3003  220.6393 H   0  0  0  0  0  0  0  0  0  0  0  0
  141.5932   77.2790  221.3660 H   0  0  0  0  0  0  0  0  0  0  0  0
  140.9447   77.9306  217.7493 H   0  0  0  0  0  0  0  0  0  0  0  0
  143.9715   78.2216  216.0145 H   0  0  0  0  0  0  0  0  0  0  0  0
  143.1438   76.8108  216.7813 H   0  0  0  0  0  0  0  0  0  0  0  0
  145.3065   76.4157  215.3180 H   0  0  0  0  0  0  0  0  0  0  0  0
  143.8728   75.3141  215.1498 H   0  0  0  0  0  0  0  0  0  0  0  0
  1  2  1  0
  2  3  1  0
  3  4  1  0
  4  5  1  0
  5  6  1  0
  6  7  2  0
  6  8  1  0
  8  9  2  0
  9 10  1  0
 10 11  2  0
 11 12  1  0
 12 13  1  0
 13 14  2  0
 14 15  1  0
 15 16  2  0
 16 17  1  0
 17 18  2  0
 18 19  1  0
 19 20  3  0
 20 21  1  0
 21 22  2  0
 22 23  1  0
 23 24  2  0
 24 25  1  0
 25 26  2  0
 18 27  1  0
 27 28  2  0
 28 29  1  0
 29 30  2  0
 30 31  1  0
 30 32  1  0
 12 33  2  0
  5 34  1  0
 34 35  1  0
 35  2  1  0
 33  8  1  0
 32 13  1  0
 28 15  1  0
 26 21  1  0
  1 36  1  0
  1 37  1  0
  1 38  1  0
  2 39  1  0
  3 40  1  0
  3 41  1  0
  4 42  1  0
  4 43  1  0
  9 44  1  0
 10 45  1  0
 11 46  1  0
 16 47  1  0
 17 48  1  0
 22 49  1  0
 23 50  1  0
 24 51  1  0
 25 52  1  0
 26 53  1  0
 27 54  1  0
 31 55  1  0
 32 56  1  0
 32 57  1  0
 33 58  1  0
 34 59  1  0
 34 60  1  0
 35 61  1  0
 35 62  1  0
M  CHG  1   2   1
M  END
>  <meeko>  (10) 
{"free_energy": -5.32, "intermolecular_energy": -8.6, "internal_energy": -1.11, "cluster_size": 1, "cluster_id": 5, "rank_in_cluster": 1}

$$$$

     RDKit          3D

 62 66  0  0  0  0  0  0  0  0999 V2000
  136.2170   74.6890  223.1160 C   0  0  0  0  0  0  0  0  0  0  0  0
  135.9710   73.7510  221.9960 N   0  0  0  0  0  0  0  0  0  0  0  0
  136.7060   72.4660  222.1850 C   0  0  0  0  0  0  0  0  0  0  0  0
  137.9800   72.3390  221.3190 C   0  0  0  0  0  0  0  0  0  0  0  0
  138.5860   73.6580  221.1140 N   0  0  0  0  0  0  0  0  0  0  0  0
  139.8670   73.9750  221.6860 C   0  0  0  0  0  0  0  0  0  0  0  0
  140.2660   73.3490  222.7070 O   0  0  0  0  0  0  0  0  0  0  0  0
  140.7220   75.0390  221.1190 C   0  0  0  0  0  0  0  0  0  0  0  0
  141.7970   74.7150  220.2810 C   0  0  0  0  0  0  0  0  0  0  0  0
  142.6090   75.7240  219.7530 C   0  0  0  0  0  0  0  0  0  0  0  0
  142.3470   77.0640  220.0480 C   0  0  0  0  0  0  0  0  0  0  0  0
  141.2720   77.4120  220.8840 C   0  0  0  0  0  0  0  0  0  0  0  0
  140.9760   78.8340  221.1940 C   0  0  0  0  0  0  0  0  0  0  0  0
  139.7340   79.2190  221.2460 N   0  0  0  0  0  0  0  0  0  0  0  0
  139.0550   79.8200  222.3620 C   0  0  0  0  0  0  0  0  0  0  0  0
  137.7290   79.4300  222.5940 C   0  0  0  0  0  0  0  0  0  0  0  0
  137.0200   79.9190  223.6920 C   0  0  0  0  0  0  0  0  0  0  0  0
  137.6420   80.7820  224.5970 C   0  0  0  0  0  0  0  0  0  0  0  0
  136.9120   81.2830  225.7330 C   0  0  0  0  0  0  0  0  0  0  0  0
  136.3000   81.6930  226.6870 C   0  0  0  0  0  0  0  0  0  0  0  0
  135.5650   82.1720  227.8280 C   0  0  0  0  0  0  0  0  0  0  0  0
  135.8570   81.6780  229.1080 C   0  0  0  0  0  0  0  0  0  0  0  0
  135.1320   82.1310  230.2150 C   0  0  0  0  0  0  0  0  0  0  0  0
  134.1140   83.0760  230.0460 C   0  0  0  0  0  0  0  0  0  0  0  0
  133.8220   83.5700  228.7690 C   0  0  0  0  0  0  0  0  0  0  0  0
  134.5470   83.1200  227.6620 C   0  0  0  0  0  0  0  0  0  0  0  0
  138.9750   81.1610  224.3980 C   0  0  0  0  0  0  0  0  0  0  0  0
  139.6900   80.7030  223.2820 C   0  0  0  0  0  0  0  0  0  0  0  0
  141.0710   81.0950  223.1790 N   0  0  0  0  0  0  0  0  0  0  0  0
  142.0580   80.3630  222.7570 C   0  0  0  0  0  0  0  0  0  0  0  0
  143.1190   80.0850  223.6140 O   0  0  0  0  0  0  0  0  0  0  0  0
  142.0880   79.8300  221.3640 C   0  0  0  0  0  0  0  0  0  0  0  0
  140.4760   76.3880  221.4330 C   0  0  0  0  0  0  0  0  0  0  0  0
  137.7530   74.7080  220.5130 C   0  0  0  0  0  0  0  0  0  0  0  0
  136.2550   74.3880  220.6880 C   0  0  0  0  0  0  0  0  0  0  0  0
  136.0790   74.1628  224.0720 H   0  0  0  0  0  0  0  0  0  0  0  0
  137.2461   75.0725  223.0538 H   0  0  0  0  0  0  0  0  0  0  0  0
  135.5086   75.5282  223.0538 H   0  0  0  0  0  0  0  0  0  0  0  0
  134.9420   73.5350  222.0160 H   0  0  0  0  0  0  0  0  0  0  0  0
  136.9970   72.3860  223.2428 H   0  0  0  0  0  0  0  0  0  0  0  0
  136.0257   71.6604  221.8716 H   0  0  0  0  0  0  0  0  0  0  0  0
  138.7014   71.6828  221.8279 H   0  0  0  0  0  0  0  0  0  0  0  0
  137.7089   71.9126  220.3419 H   0  0  0  0  0  0  0  0  0  0  0  0
  142.0033   73.6624  220.0372 H   0  0  0  0  0  0  0  0  0  0  0  0
  143.4568   75.4614  219.1032 H   0  0  0  0  0  0  0  0  0  0  0  0
  142.9862   77.8521  219.6233 H   0  0  0  0  0  0  0  0  0  0  0  0
  137.2405   78.7290  221.9012 H   0  0  0  0  0  0  0  0  0  0  0  0
  135.9712   79.6247  223.8447 H   0  0  0  0  0  0  0  0  0  0  0  0
  136.6564   80.9342  229.2412 H   0  0  0  0  0  0  0  0  0  0  0  0
  135.3622   81.7443  231.2187 H   0  0  0  0  0  0  0  0  0  0  0  0
  133.5430   83.4308  230.9167 H   0  0  0  0  0  0  0  0  0  0  0  0
  133.0215   84.3128  228.6368 H   0  0  0  0  0  0  0  0  0  0  0  0
  134.3180   83.5106  226.6595 H   0  0  0  0  0  0  0  0  0  0  0  0
  139.4665   81.8248  225.1245 H   0  0  0  0  0  0  0  0  0  0  0  0
  143.1980   80.5430  224.5140 H   0  0  0  0  0  0  0  0  0  0  0  0
  141.9543   80.6565  220.6505 H   0  0  0  0  0  0  0  0  0  0  0  0
  143.0551   79.3411  221.1753 H   0  0  0  0  0  0  0  0  0  0  0  0
  139.6525   76.6460  222.1151 H   0  0  0  0  0  0  0  0  0  0  0  0
  137.9758   75.6682  221.0012 H   0  0  0  0  0  0  0  0  0  0  0  0
  137.9778   74.7630  219.4376 H   0  0  0  0  0  0  0  0  0  0  0  0
  135.6815   75.3240  220.6171 H   0  0  0  0  0  0  0  0  0  0  0  0
  135.9644   73.6816  219.8965 H   0  0  0  0  0  0  0  0  0  0  0  0
  1  2  1  0
  2  3  1  0
  3  4  1  0
  4  5  1  0
  5  6  1  0
  6  7  2  0
  6  8  1  0
  8  9  2  0
  9 10  1  0
 10 11  2  0
 11 12  1  0
 12 13  1  0
 13 14  2  0
 14 15  1  0
 15 16  2  0
 16 17  1  0
 17 18  2  0
 18 19  1  0
 19 20  3  0
 20 21  1  0
 21 22  2  0
 22 23  1  0
 23 24  2  0
 24 25  1  0
 25 26  2  0
 18 27  1  0
 27 28  2  0
 28 29  1  0
 29 30  2  0
 30 31  1  0
 30 32  1  0
 12 33  2  0
  5 34  1  0
 34 35  1  0
 35  2  1  0
 33  8  1  0
 32 13  1  0
 28 15  1  0
 26 21  1  0
  1 36  1  0
  1 37  1  0
  1 38  1  0
  2 39  1  0
  3 40  1  0
  3 41  1  0
  4 42  1  0
  4 43  1  0
  9 44  1  0
 10 45  1  0
 11 46  1  0
 16 47  1  0
 17 48  1  0
 22 49  1  0
 23 50  1  0
 24 51  1  0
 25 52  1  0
 26 53  1  0
 27 54  1  0
 31 55  1  0
 32 56  1  0
 32 57  1  0
 33 58  1  0
 34 59  1  0
 34 60  1  0
 35 61  1  0
 35 62  1  0
M  CHG  1   2   1
M  END
>  <meeko>  (11) 
{"free_energy": -5.55, "intermolecular_energy": -8.83, "internal_energy": -1.18, "cluster_size": 1, "cluster_id": 4, "rank_in_cluster": 1}

$$$$

     RDKit          3D

 62 66  0  0  0  0  0  0  0  0999 V2000
  138.1400   80.7090  222.2480 C   0  0  0  0  0  0  0  0  0  0  0  0
  138.7780   79.8930  223.3060 N   0  0  0  0  0  0  0  0  0  0  0  0
  140.0720   80.4880  223.7530 C   0  0  0  0  0  0  0  0  0  0  0  0
  141.3200   79.7760  223.1840 C   0  0  0  0  0  0  0  0  0  0  0  0
  141.0320   79.2390  221.8500 N   0  0  0  0  0  0  0  0  0  0  0  0
  141.6850   79.7750  220.6850 C   0  0  0  0  0  0  0  0  0  0  0  0
  142.1310   80.9560  220.7090 O   0  0  0  0  0  0  0  0  0  0  0  0
  141.8250   78.9810  219.4470 C   0  0  0  0  0  0  0  0  0  0  0  0
  142.0460   79.6150  218.2170 C   0  0  0  0  0  0  0  0  0  0  0  0
  142.1700   78.8610  217.0470 C   0  0  0  0  0  0  0  0  0  0  0  0
  142.0840   77.4670  217.0960 C   0  0  0  0  0  0  0  0  0  0  0  0
  141.8650   76.8100  218.3190 C   0  0  0  0  0  0  0  0  0  0  0  0
  141.7850   75.3290  218.3850 C   0  0  0  0  0  0  0  0  0  0  0  0
  140.7660   74.7820  218.9820 N   0  0  0  0  0  0  0  0  0  0  0  0
  140.7800   74.0000  220.1880 C   0  0  0  0  0  0  0  0  0  0  0  0
  139.6430   74.0570  221.0060 C   0  0  0  0  0  0  0  0  0  0  0  0
  139.5520   73.2820  222.1620 C   0  0  0  0  0  0  0  0  0  0  0  0
  140.5870   72.4070  222.5000 C   0  0  0  0  0  0  0  0  0  0  0  0
  140.4920   71.6030  223.6910 C   0  0  0  0  0  0  0  0  0  0  0  0
  140.4020   70.9270  224.6850 C   0  0  0  0  0  0  0  0  0  0  0  0
  140.3000   70.1280  225.8780 C   0  0  0  0  0  0  0  0  0  0  0  0
  140.4360   70.7280  227.1380 C   0  0  0  0  0  0  0  0  0  0  0  0
  140.3530   69.9500  228.2970 C   0  0  0  0  0  0  0  0  0  0  0  0
  140.1350   68.5710  228.1990 C   0  0  0  0  0  0  0  0  0  0  0  0
  139.9990   67.9710  226.9420 C   0  0  0  0  0  0  0  0  0  0  0  0
  140.0790   68.7470  225.7830 C   0  0  0  0  0  0  0  0  0  0  0  0
  141.7190   72.3150  221.6810 C   0  0  0  0  0  0  0  0  0  0  0  0
  141.8400   73.1120  220.5330 C   0  0  0  0  0  0  0  0  0  0  0  0
  143.0080   72.9170  219.7170 N   0  0  0  0  0  0  0  0  0  0  0  0
  143.5990   73.8090  218.9800 C   0  0  0  0  0  0  0  0  0  0  0  0
  144.9110   74.1750  219.2670 O   0  0  0  0  0  0  0  0  0  0  0  0
  142.8980   74.4740  217.8450 C   0  0  0  0  0  0  0  0  0  0  0  0
  141.7150   77.5790  219.4890 C   0  0  0  0  0  0  0  0  0  0  0  0
  139.9010   78.3110  221.7150 C   0  0  0  0  0  0  0  0  0  0  0  0
  138.9130   78.4770  222.8860 C   0  0  0  0  0  0  0  0  0  0  0  0
  137.5256   81.4949  222.7115 H   0  0  0  0  0  0  0  0  0  0  0  0
  138.9178   81.1724  221.6232 H   0  0  0  0  0  0  0  0  0  0  0  0
  137.5027   80.0660  221.6232 H   0  0  0  0  0  0  0  0  0  0  0  0
  138.1200   79.9090  224.1250 H   0  0  0  0  0  0  0  0  0  0  0  0
  140.0979   81.5402  223.4332 H   0  0  0  0  0  0  0  0  0  0  0  0
  140.1128   80.3771  224.8466 H   0  0  0  0  0  0  0  0  0  0  0  0
  142.1491   80.4956  223.1149 H   0  0  0  0  0  0  0  0  0  0  0  0
  141.5969   78.9475  223.8526 H   0  0  0  0  0  0  0  0  0  0  0  0
  142.1223   80.7114  218.1722 H   0  0  0  0  0  0  0  0  0  0  0  0
  142.3359   79.3664  216.0842 H   0  0  0  0  0  0  0  0  0  0  0  0
  142.1884   76.8802  216.1714 H   0  0  0  0  0  0  0  0  0  0  0  0
  138.8109   74.7223  220.7323 H   0  0  0  0  0  0  0  0  0  0  0  0
  138.6649   73.3599  222.8077 H   0  0  0  0  0  0  0  0  0  0  0  0
  140.6082   71.8117  227.2148 H   0  0  0  0  0  0  0  0  0  0  0  0
  140.4590   70.4216  229.2851 H   0  0  0  0  0  0  0  0  0  0  0  0
  140.0705   67.9585  229.1104 H   0  0  0  0  0  0  0  0  0  0  0  0
  139.8289   66.8869  226.8664 H   0  0  0  0  0  0  0  0  0  0  0  0
  139.9686   68.2743  224.7959 H   0  0  0  0  0  0  0  0  0  0  0  0
  142.5223   71.6099  221.9407 H   0  0  0  0  0  0  0  0  0  0  0  0
  145.6410   74.0900  218.5710 H   0  0  0  0  0  0  0  0  0  0  0  0
  143.6098   75.1034  217.2907 H   0  0  0  0  0  0  0  0  0  0  0  0
  142.4840   73.7119  217.1684 H   0  0  0  0  0  0  0  0  0  0  0  0
  141.5095   77.0780  220.4465 H   0  0  0  0  0  0  0  0  0  0  0  0
  139.3773   78.5161  220.7697 H   0  0  0  0  0  0  0  0  0  0  0  0
  140.2874   77.2811  221.7235 H   0  0  0  0  0  0  0  0  0  0  0  0
  137.9265   78.1043  222.5732 H   0  0  0  0  0  0  0  0  0  0  0  0
  139.3028   77.9058  223.7414 H   0  0  0  0  0  0  0  0  0  0  0  0
  1  2  1  0
  2  3  1  0
  3  4  1  0
  4  5  1  0
  5  6  1  0
  6  7  2  0
  6  8  1  0
  8  9  2  0
  9 10  1  0
 10 11  2  0
 11 12  1  0
 12 13  1  0
 13 14  2  0
 14 15  1  0
 15 16  2  0
 16 17  1  0
 17 18  2  0
 18 19  1  0
 19 20  3  0
 20 21  1  0
 21 22  2  0
 22 23  1  0
 23 24  2  0
 24 25  1  0
 25 26  2  0
 18 27  1  0
 27 28  2  0
 28 29  1  0
 29 30  2  0
 30 31  1  0
 30 32  1  0
 12 33  2  0
  5 34  1  0
 34 35  1  0
 35  2  1  0
 33  8  1  0
 32 13  1  0
 28 15  1  0
 26 21  1  0
  1 36  1  0
  1 37  1  0
  1 38  1  0
  2 39  1  0
  3 40  1  0
  3 41  1  0
  4 42  1  0
  4 43  1  0
  9 44  1  0
 10 45  1  0
 11 46  1  0
 16 47  1  0
 17 48  1  0
 22 49  1  0
 23 50  1  0
 24 51  1  0
 25 52  1  0
 26 53  1  0
 27 54  1  0
 31 55  1  0
 32 56  1  0
 32 57  1  0
 33 58  1  0
 34 59  1  0
 34 60  1  0
 35 61  1  0
 35 62  1  0
M  CHG  1   2   1
M  END
>  <meeko>  (12) 
{"free_energy": -5.64, "intermolecular_energy": -8.92, "internal_energy": -1.12, "cluster_size": 8, "cluster_id": 2, "rank_in_cluster": 4}

$$$$

     RDKit          3D

 62 66  0  0  0  0  0  0  0  0999 V2000
  143.0300   81.2940  217.4660 C   0  0  0  0  0  0  0  0  0  0  0  0
  141.8060   82.0100  217.0380 N   0  0  0  0  0  0  0  0  0  0  0  0
  141.6420   83.3010  217.7700 C   0  0  0  0  0  0  0  0  0  0  0  0
  140.5870   83.2520  218.8980 C   0  0  0  0  0  0  0  0  0  0  0  0
  140.5400   81.9120  219.4910 N   0  0  0  0  0  0  0  0  0  0  0  0
  140.9620   81.6930  220.8480 C   0  0  0  0  0  0  0  0  0  0  0  0
  141.7780   82.4940  221.3830 O   0  0  0  0  0  0  0  0  0  0  0  0
  140.4790   80.5340  221.6280 C   0  0  0  0  0  0  0  0  0  0  0  0
  139.8100   80.7260  222.8450 C   0  0  0  0  0  0  0  0  0  0  0  0
  139.3620   79.6260  223.5830 C   0  0  0  0  0  0  0  0  0  0  0  0
  139.5690   78.3290  223.1090 C   0  0  0  0  0  0  0  0  0  0  0  0
  140.2350   78.1140  221.8900 C   0  0  0  0  0  0  0  0  0  0  0  0
  140.4480   76.7400  221.3690 C   0  0  0  0  0  0  0  0  0  0  0  0
  141.6510   76.2420  221.3850 N   0  0  0  0  0  0  0  0  0  0  0  0
  142.0480   74.9120  221.0110 C   0  0  0  0  0  0  0  0  0  0  0  0
  143.3520   74.7420  220.5270 C   0  0  0  0  0  0  0  0  0  0  0  0
  143.8360   73.4750  220.2010 C   0  0  0  0  0  0  0  0  0  0  0  0
  143.0300   72.3490  220.3880 C   0  0  0  0  0  0  0  0  0  0  0  0
  143.5300   71.0410  220.0560 C   0  0  0  0  0  0  0  0  0  0  0  0
  143.9590   69.9490  219.7780 C   0  0  0  0  0  0  0  0  0  0  0  0
  144.4670   68.6460  219.4350 C   0  0  0  0  0  0  0  0  0  0  0  0
  145.8510   68.4210  219.3990 C   0  0  0  0  0  0  0  0  0  0  0  0
  146.3450   67.1610  219.0490 C   0  0  0  0  0  0  0  0  0  0  0  0
  145.4600   66.1230  218.7360 C   0  0  0  0  0  0  0  0  0  0  0  0
  144.0790   66.3470  218.7730 C   0  0  0  0  0  0  0  0  0  0  0  0
  143.5820   67.6060  219.1240 C   0  0  0  0  0  0  0  0  0  0  0  0
  141.7340   72.4960  220.8970 C   0  0  0  0  0  0  0  0  0  0  0  0
  141.2220   73.7660  221.1990 C   0  0  0  0  0  0  0  0  0  0  0  0
  139.9030   73.8260  221.7690 N   0  0  0  0  0  0  0  0  0  0  0  0
  139.0250   74.7700  221.6030 C   0  0  0  0  0  0  0  0  0  0  0  0
  137.7790   74.6620  222.2140 O   0  0  0  0  0  0  0  0  0  0  0  0
  139.3140   75.9640  220.7590 C   0  0  0  0  0  0  0  0  0  0  0  0
  140.7060   79.2250  221.1650 C   0  0  0  0  0  0  0  0  0  0  0  0
  140.2740   80.7770  218.5960 C   0  0  0  0  0  0  0  0  0  0  0  0
  140.6090   81.1390  217.1360 C   0  0  0  0  0  0  0  0  0  0  0  0
  143.0743   81.2681  218.5648 H   0  0  0  0  0  0  0  0  0  0  0  0
  143.0088   80.2659  217.0755 H   0  0  0  0  0  0  0  0  0  0  0  0
  143.9158   81.8163  217.0755 H   0  0  0  0  0  0  0  0  0  0  0  0
  141.9390   82.2360  216.0200 H   0  0  0  0  0  0  0  0  0  0  0  0
  142.6111   83.5729  218.2138 H   0  0  0  0  0  0  0  0  0  0  0  0
  141.2906   84.0414  217.0363 H   0  0  0  0  0  0  0  0  0  0  0  0
  140.8521   83.9839  219.6752 H   0  0  0  0  0  0  0  0  0  0  0  0
  139.5999   83.4921  218.4762 H   0  0  0  0  0  0  0  0  0  0  0  0
  139.6369   81.7453  223.2206 H   0  0  0  0  0  0  0  0  0  0  0  0
  138.8444   79.7831  224.5408 H   0  0  0  0  0  0  0  0  0  0  0  0
  139.2084   77.4697  223.6935 H   0  0  0  0  0  0  0  0  0  0  0  0
  144.0030   75.6199  220.4024 H   0  0  0  0  0  0  0  0  0  0  0  0
  144.8527   73.3622  219.7965 H   0  0  0  0  0  0  0  0  0  0  0  0
  146.5475   69.2358  219.6461 H   0  0  0  0  0  0  0  0  0  0  0  0
  147.4305   66.9852  219.0196 H   0  0  0  0  0  0  0  0  0  0  0  0
  145.8496   65.1317  218.4611 H   0  0  0  0  0  0  0  0  0  0  0  0
  143.3835   65.5315  218.5256 H   0  0  0  0  0  0  0  0  0  0  0  0
  142.4962   67.7795  219.1558 H   0  0  0  0  0  0  0  0  0  0  0  0
  141.1103   71.6050  221.0619 H   0  0  0  0  0  0  0  0  0  0  0  0
  137.6830   74.2580  223.1380 H   0  0  0  0  0  0  0  0  0  0  0  0
  139.5939   75.6391  219.7460 H   0  0  0  0  0  0  0  0  0  0  0  0
  138.4192   76.6013  220.7028 H   0  0  0  0  0  0  0  0  0  0  0  0
  141.2575   79.0680  220.2263 H   0  0  0  0  0  0  0  0  0  0  0  0
  140.8918   79.9213  218.9059 H   0  0  0  0  0  0  0  0  0  0  0  0
  139.2058   80.5219  218.6591 H   0  0  0  0  0  0  0  0  0  0  0  0
  140.7980   80.2119  216.5750 H   0  0  0  0  0  0  0  0  0  0  0  0
  139.7535   81.6904  216.7187 H   0  0  0  0  0  0  0  0  0  0  0  0
  1  2  1  0
  2  3  1  0
  3  4  1  0
  4  5  1  0
  5  6  1  0
  6  7  2  0
  6  8  1  0
  8  9  2  0
  9 10  1  0
 10 11  2  0
 11 12  1  0
 12 13  1  0
 13 14  2  0
 14 15  1  0
 15 16  2  0
 16 17  1  0
 17 18  2  0
 18 19  1  0
 19 20  3  0
 20 21  1  0
 21 22  2  0
 22 23  1  0
 23 24  2  0
 24 25  1  0
 25 26  2  0
 18 27  1  0
 27 28  2  0
 28 29  1  0
 29 30  2  0
 30 31  1  0
 30 32  1  0
 12 33  2  0
  5 34  1  0
 34 35  1  0
 35  2  1  0
 33  8  1  0
 32 13  1  0
 28 15  1  0
 26 21  1  0
  1 36  1  0
  1 37  1  0
  1 38  1  0
  2 39  1  0
  3 40  1  0
  3 41  1  0
  4 42  1  0
  4 43  1  0
  9 44  1  0
 10 45  1  0
 11 46  1  0
 16 47  1  0
 17 48  1  0
 22 49  1  0
 23 50  1  0
 24 51  1  0
 25 52  1  0
 26 53  1  0
 27 54  1  0
 31 55  1  0
 32 56  1  0
 32 57  1  0
 33 58  1  0
 34 59  1  0
 34 60  1  0
 35 61  1  0
 35 62  1  0
M  CHG  1   2   1
M  END
>  <meeko>  (13) 
{"free_energy": -5.78, "intermolecular_energy": -9.06, "internal_energy": -0.96, "cluster_size": 2, "cluster_id": 1, "rank_in_cluster": 2}

$$$$

     RDKit          3D

 62 66  0  0  0  0  0  0  0  0999 V2000
  138.9170   78.2790  222.6340 C   0  0  0  0  0  0  0  0  0  0  0  0
  140.0350   79.0440  223.2350 N   0  0  0  0  0  0  0  0  0  0  0  0
  140.0500   80.4580  222.7580 C   0  0  0  0  0  0  0  0  0  0  0  0
  141.1230   80.7470  221.6850 C   0  0  0  0  0  0  0  0  0  0  0  0
  141.3460   79.5560  220.8590 N   0  0  0  0  0  0  0  0  0  0  0  0
  140.9780   79.5460  219.4680 C   0  0  0  0  0  0  0  0  0  0  0  0
  140.0790   80.3300  219.0560 O   0  0  0  0  0  0  0  0  0  0  0  0
  141.6150   78.6190  218.5090 C   0  0  0  0  0  0  0  0  0  0  0  0
  142.3580   79.1140  217.4290 C   0  0  0  0  0  0  0  0  0  0  0  0
  142.9520   78.2340  216.5200 C   0  0  0  0  0  0  0  0  0  0  0  0
  142.8190   76.8530  216.6880 C   0  0  0  0  0  0  0  0  0  0  0  0
  142.0810   76.3350  217.7660 C   0  0  0  0  0  0  0  0  0  0  0  0
  141.9440   74.8690  217.9620 C   0  0  0  0  0  0  0  0  0  0  0  0
  140.9110   74.4170  218.6120 N   0  0  0  0  0  0  0  0  0  0  0  0
  140.9080   73.7450  219.8830 C   0  0  0  0  0  0  0  0  0  0  0  0
  139.7840   73.9200  220.7010 C   0  0  0  0  0  0  0  0  0  0  0  0
  139.6760   73.2530  221.9220 C   0  0  0  0  0  0  0  0  0  0  0  0
  140.6790   72.3700  222.3280 C   0  0  0  0  0  0  0  0  0  0  0  0
  140.5650   71.6780  223.5850 C   0  0  0  0  0  0  0  0  0  0  0  0
  140.4770   71.1040  224.6420 C   0  0  0  0  0  0  0  0  0  0  0  0
  140.3840   70.4160  225.9030 C   0  0  0  0  0  0  0  0  0  0  0  0
  140.5180   71.1300  227.1020 C   0  0  0  0  0  0  0  0  0  0  0  0
  140.4440   70.4590  228.3270 C   0  0  0  0  0  0  0  0  0  0  0  0
  140.2380   69.0750  228.3560 C   0  0  0  0  0  0  0  0  0  0  0  0
  140.1040   68.3620  227.1600 C   0  0  0  0  0  0  0  0  0  0  0  0
  140.1750   69.0310  225.9340 C   0  0  0  0  0  0  0  0  0  0  0  0
  141.7960   72.1590  221.5110 C   0  0  0  0  0  0  0  0  0  0  0  0
  141.9350   72.8470  220.2960 C   0  0  0  0  0  0  0  0  0  0  0  0
  143.0840   72.5330  219.4900 N   0  0  0  0  0  0  0  0  0  0  0  0
  143.7070   73.3340  218.6780 C   0  0  0  0  0  0  0  0  0  0  0  0
  145.0380   73.6590  218.9230 O   0  0  0  0  0  0  0  0  0  0  0  0
  143.0170   73.9280  217.4910 C   0  0  0  0  0  0  0  0  0  0  0  0
  141.4640   77.2290  218.6620 C   0  0  0  0  0  0  0  0  0  0  0  0
  141.7350   78.3140  221.5400 C   0  0  0  0  0  0  0  0  0  0  0  0
  141.3320   78.3550  223.0280 C   0  0  0  0  0  0  0  0  0  0  0  0
  138.2933   77.8522  223.4333 H   0  0  0  0  0  0  0  0  0  0  0  0
  138.3068   78.9497  222.0113 H   0  0  0  0  0  0  0  0  0  0  0  0
  139.3211   77.4672  222.0113 H   0  0  0  0  0  0  0  0  0  0  0  0
  139.8570   79.0580  224.2700 H   0  0  0  0  0  0  0  0  0  0  0  0
  139.0629   80.6898  222.3315 H   0  0  0  0  0  0  0  0  0  0  0  0
  140.2928   81.0853  223.6284 H   0  0  0  0  0  0  0  0  0  0  0  0
  140.7834   81.5747  221.0451 H   0  0  0  0  0  0  0  0  0  0  0  0
  142.0649   81.0200  222.1833 H   0  0  0  0  0  0  0  0  0  0  0  0
  142.4743   80.1997  217.2960 H   0  0  0  0  0  0  0  0  0  0  0  0
  143.5262   78.6298  215.6694 H   0  0  0  0  0  0  0  0  0  0  0  0
  143.2950   76.1670  215.9719 H   0  0  0  0  0  0  0  0  0  0  0  0
  138.9759   74.5921  220.3764 H   0  0  0  0  0  0  0  0  0  0  0  0
  138.8000   73.4229  222.5653 H   0  0  0  0  0  0  0  0  0  0  0  0
  140.6813   72.2176  227.0794 H   0  0  0  0  0  0  0  0  0  0  0  0
  140.5477   71.0193  229.2679 H   0  0  0  0  0  0  0  0  0  0  0  0
  140.1815   68.5477  229.3197 H   0  0  0  0  0  0  0  0  0  0  0  0
  139.9426   67.2742  227.1839 H   0  0  0  0  0  0  0  0  0  0  0  0
  140.0668   68.4699  224.9941 H   0  0  0  0  0  0  0  0  0  0  0  0
  142.5729   71.4463  221.8248 H   0  0  0  0  0  0  0  0  0  0  0  0
  145.5510   74.2640  218.2940 H   0  0  0  0  0  0  0  0  0  0  0  0
  143.7465   74.4787  216.8790 H   0  0  0  0  0  0  0  0  0  0  0  0
  142.5664   73.1269  216.8866 H   0  0  0  0  0  0  0  0  0  0  0  0
  140.8571   76.8359  219.4909 H   0  0  0  0  0  0  0  0  0  0  0  0
  141.2335   77.4641  221.0540 H   0  0  0  0  0  0  0  0  0  0  0  0
  142.8274   78.2033  221.4739 H   0  0  0  0  0  0  0  0  0  0  0  0
  141.2497   77.3238  223.4019 H   0  0  0  0  0  0  0  0  0  0  0  0
  142.1050   78.9162  223.5734 H   0  0  0  0  0  0  0  0  0  0  0  0
  1  2  1  0
  2  3  1  0
  3  4  1  0
  4  5  1  0
  5  6  1  0
  6  7  2  0
  6  8  1  0
  8  9  2  0
  9 10  1  0
 10 11  2  0
 11 12  1  0
 12 13  1  0
 13 14  2  0
 14 15  1  0
 15 16  2  0
 16 17  1  0
 17 18  2  0
 18 19  1  0
 19 20  3  0
 20 21  1  0
 21 22  2  0
 22 23  1  0
 23 24  2  0
 24 25  1  0
 25 26  2  0
 18 27  1  0
 27 28  2  0
 28 29  1  0
 29 30  2  0
 30 31  1  0
 30 32  1  0
 12 33  2  0
  5 34  1  0
 34 35  1  0
 35  2  1  0
 33  8  1  0
 32 13  1  0
 28 15  1  0
 26 21  1  0
  1 36  1  0
  1 37  1  0
  1 38  1  0
  2 39  1  0
  3 40  1  0
  3 41  1  0
  4 42  1  0
  4 43  1  0
  9 44  1  0
 10 45  1  0
 11 46  1  0
 16 47  1  0
 17 48  1  0
 22 49  1  0
 23 50  1  0
 24 51  1  0
 25 52  1  0
 26 53  1  0
 27 54  1  0
 31 55  1  0
 32 56  1  0
 32 57  1  0
 33 58  1  0
 34 59  1  0
 34 60  1  0
 35 61  1  0
 35 62  1  0
M  CHG  1   2   1
M  END
>  <meeko>  (14) 
{"free_energy": -5.6, "intermolecular_energy": -8.88, "internal_energy": -1.19, "cluster_size": 8, "cluster_id": 2, "rank_in_cluster": 5}

$$$$

     RDKit          3D

 62 66  0  0  0  0  0  0  0  0999 V2000
  144.1330   66.2260  214.5400 C   0  0  0  0  0  0  0  0  0  0  0  0
  145.4510   66.9020  214.5730 N   0  0  0  0  0  0  0  0  0  0  0  0
  146.3150   66.3670  215.6660 C   0  0  0  0  0  0  0  0  0  0  0  0
  146.4000   67.2850  216.9050 C   0  0  0  0  0  0  0  0  0  0  0  0
  145.1430   68.0170  217.0810 N   0  0  0  0  0  0  0  0  0  0  0  0
  144.2940   67.7600  218.2140 C   0  0  0  0  0  0  0  0  0  0  0  0
  144.3570   66.6430  218.7980 O   0  0  0  0  0  0  0  0  0  0  0  0
  143.3290   68.7690  218.6990 C   0  0  0  0  0  0  0  0  0  0  0  0
  141.9550   68.5970  218.4870 C   0  0  0  0  0  0  0  0  0  0  0  0
  141.0460   69.5580  218.9400 C   0  0  0  0  0  0  0  0  0  0  0  0
  141.5010   70.6930  219.6160 C   0  0  0  0  0  0  0  0  0  0  0  0
  142.8750   70.8850  219.8410 C   0  0  0  0  0  0  0  0  0  0  0  0
  143.3680   72.0800  220.5710 C   0  0  0  0  0  0  0  0  0  0  0  0
  142.5220   73.0190  220.8810 N   0  0  0  0  0  0  0  0  0  0  0  0
  142.4990   74.3690  220.3870 C   0  0  0  0  0  0  0  0  0  0  0  0
  141.2500   74.9980  220.2910 C   0  0  0  0  0  0  0  0  0  0  0  0
  141.1480   76.3270  219.8810 C   0  0  0  0  0  0  0  0  0  0  0  0
  142.3010   77.0610  219.5910 C   0  0  0  0  0  0  0  0  0  0  0  0
  142.1960   78.4340  219.1710 C   0  0  0  0  0  0  0  0  0  0  0  0
  142.1180   79.5850  218.8210 C   0  0  0  0  0  0  0  0  0  0  0  0
  142.0340   80.9620  218.4090 C   0  0  0  0  0  0  0  0  0  0  0  0
  141.0330   81.7910  218.9330 C   0  0  0  0  0  0  0  0  0  0  0  0
  140.9420   83.1250  218.5210 C   0  0  0  0  0  0  0  0  0  0  0  0
  141.8500   83.6310  217.5840 C   0  0  0  0  0  0  0  0  0  0  0  0
  142.8490   82.8040  217.0600 C   0  0  0  0  0  0  0  0  0  0  0  0
  142.9440   81.4720  217.4730 C   0  0  0  0  0  0  0  0  0  0  0  0
  143.5590   76.4580  219.7080 C   0  0  0  0  0  0  0  0  0  0  0  0
  143.6770   75.1140  220.0890 C   0  0  0  0  0  0  0  0  0  0  0  0
  145.0070   74.5860  220.2380 N   0  0  0  0  0  0  0  0  0  0  0  0
  145.3820   73.3560  220.0500 C   0  0  0  0  0  0  0  0  0  0  0  0
  146.3010   73.0660  219.0460 O   0  0  0  0  0  0  0  0  0  0  0  0
  144.8310   72.2450  220.8750 C   0  0  0  0  0  0  0  0  0  0  0  0
  143.7850   69.9250  219.3590 C   0  0  0  0  0  0  0  0  0  0  0  0
  144.6670   68.8400  215.9600 C   0  0  0  0  0  0  0  0  0  0  0  0
  145.2990   68.3760  214.6330 C   0  0  0  0  0  0  0  0  0  0  0  0
  143.7863   66.0482  215.5687 H   0  0  0  0  0  0  0  0  0  0  0  0
  143.4072   66.8631  214.0134 H   0  0  0  0  0  0  0  0  0  0  0  0
  144.2270   65.2648  214.0134 H   0  0  0  0  0  0  0  0  0  0  0  0
  145.9180   66.6790  213.6580 H   0  0  0  0  0  0  0  0  0  0  0  0
  145.9097   65.3947  215.9829 H   0  0  0  0  0  0  0  0  0  0  0  0
  147.3333   66.2883  215.2575 H   0  0  0  0  0  0  0  0  0  0  0  0
  146.5916   66.6725  217.7983 H   0  0  0  0  0  0  0  0  0  0  0  0
  147.2178   68.0065  216.7611 H   0  0  0  0  0  0  0  0  0  0  0  0
  141.5897   67.7021  217.9619 H   0  0  0  0  0  0  0  0  0  0  0  0
  139.9690   69.4200  218.7636 H   0  0  0  0  0  0  0  0  0  0  0  0
  140.7789   71.4414  219.9745 H   0  0  0  0  0  0  0  0  0  0  0  0
  140.3384   74.4360  220.5424 H   0  0  0  0  0  0  0  0  0  0  0  0
  140.1585   76.7981  219.7858 H   0  0  0  0  0  0  0  0  0  0  0  0
  140.3185   81.3928  219.6685 H   0  0  0  0  0  0  0  0  0  0  0  0
  140.1570   83.7759  218.9335 H   0  0  0  0  0  0  0  0  0  0  0  0
  141.7781   84.6796  217.2594 H   0  0  0  0  0  0  0  0  0  0  0  0
  143.5608   83.2024  216.3220 H   0  0  0  0  0  0  0  0  0  0  0  0
  143.7330   80.8241  217.0634 H   0  0  0  0  0  0  0  0  0  0  0  0
  144.4652   77.0454  219.4986 H   0  0  0  0  0  0  0  0  0  0  0  0
  146.6500   73.7910  218.4320 H   0  0  0  0  0  0  0  0  0  0  0  0
  145.3633   71.3120  220.6378 H   0  0  0  0  0  0  0  0  0  0  0  0
  144.9621   72.4778  221.9421 H   0  0  0  0  0  0  0  0  0  0  0  0
  144.8648   70.0804  219.4999 H   0  0  0  0  0  0  0  0  0  0  0  0
  143.5728   68.7532  215.8881 H   0  0  0  0  0  0  0  0  0  0  0  0
  144.9571   69.8853  216.1421 H   0  0  0  0  0  0  0  0  0  0  0  0
  144.6562   68.7005  213.8014 H   0  0  0  0  0  0  0  0  0  0  0  0
  146.3014   68.8232  214.5605 H   0  0  0  0  0  0  0  0  0  0  0  0
  1  2  1  0
  2  3  1  0
  3  4  1  0
  4  5  1  0
  5  6  1  0
  6  7  2  0
  6  8  1  0
  8  9  2  0
  9 10  1  0
 10 11  2  0
 11 12  1  0
 12 13  1  0
 13 14  2  0
 14 15  1  0
 15 16  2  0
 16 17  1  0
 17 18  2  0
 18 19  1  0
 19 20  3  0
 20 21  1  0
 21 22  2  0
 22 23  1  0
 23 24  2  0
 24 25  1  0
 25 26  2  0
 18 27  1  0
 27 28  2  0
 28 29  1  0
 29 30  2  0
 30 31  1  0
 30 32  1  0
 12 33  2  0
  5 34  1  0
 34 35  1  0
 35  2  1  0
 33  8  1  0
 32 13  1  0
 28 15  1  0
 26 21  1  0
  1 36  1  0
  1 37  1  0
  1 38  1  0
  2 39  1  0
  3 40  1  0
  3 41  1  0
  4 42  1  0
  4 43  1  0
  9 44  1  0
 10 45  1  0
 11 46  1  0
 16 47  1  0
 17 48  1  0
 22 49  1  0
 23 50  1  0
 24 51  1  0
 25 52  1  0
 26 53  1  0
 27 54  1  0
 31 55  1  0
 32 56  1  0
 32 57  1  0
 33 58  1  0
 34 59  1  0
 34 60  1  0
 35 61  1  0
 35 62  1  0
M  CHG  1   2   1
M  END
>  <meeko>  (15) 
{"free_energy": -4.68, "intermolecular_energy": -7.96, "internal_energy": -1.13, "cluster_size": 1, "cluster_id": 7, "rank_in_cluster": 1}

$$$$

     RDKit          3D

 62 66  0  0  0  0  0  0  0  0999 V2000
  135.1630   79.2950  223.8660 C   0  0  0  0  0  0  0  0  0  0  0  0
  135.1080   80.6650  224.4260 N   0  0  0  0  0  0  0  0  0  0  0  0
  134.6870   81.6610  223.3970 C   0  0  0  0  0  0  0  0  0  0  0  0
  135.8490   82.5050  222.8280 C   0  0  0  0  0  0  0  0  0  0  0  0
  137.0860   81.7180  222.8110 N   0  0  0  0  0  0  0  0  0  0  0  0
  137.6970   81.3350  221.5660 C   0  0  0  0  0  0  0  0  0  0  0  0
  136.9890   81.2560  220.5240 O   0  0  0  0  0  0  0  0  0  0  0  0
  139.1360   81.0090  221.4820 C   0  0  0  0  0  0  0  0  0  0  0  0
  140.0890   82.0270  221.3480 C   0  0  0  0  0  0  0  0  0  0  0  0
  141.4480   81.7140  221.2600 C   0  0  0  0  0  0  0  0  0  0  0  0
  141.8680   80.3830  221.3170 C   0  0  0  0  0  0  0  0  0  0  0  0
  140.9300   79.3450  221.4540 C   0  0  0  0  0  0  0  0  0  0  0  0
  141.3660   77.9270  221.5290 C   0  0  0  0  0  0  0  0  0  0  0  0
  142.0040   77.4140  220.5180 N   0  0  0  0  0  0  0  0  0  0  0  0
  142.3300   76.0290  220.3070 C   0  0  0  0  0  0  0  0  0  0  0  0
  143.5690   75.7420  219.7190 C   0  0  0  0  0  0  0  0  0  0  0  0
  143.9870   74.4230  219.5370 C   0  0  0  0  0  0  0  0  0  0  0  0
  143.1830   73.3680  219.9730 C   0  0  0  0  0  0  0  0  0  0  0  0
  143.6160   72.0070  219.7890 C   0  0  0  0  0  0  0  0  0  0  0  0
  143.9850   70.8690  219.6430 C   0  0  0  0  0  0  0  0  0  0  0  0
  144.4200   69.5070  219.4780 C   0  0  0  0  0  0  0  0  0  0  0  0
  143.4820   68.4640  219.4970 C   0  0  0  0  0  0  0  0  0  0  0  0
  143.9070   67.1390  219.3530 C   0  0  0  0  0  0  0  0  0  0  0  0
  145.2670   66.8530  219.1910 C   0  0  0  0  0  0  0  0  0  0  0  0
  146.2030   67.8930  219.1710 C   0  0  0  0  0  0  0  0  0  0  0  0
  145.7810   69.2190  219.3120 C   0  0  0  0  0  0  0  0  0  0  0  0
  141.9540   73.6350  220.5880 C   0  0  0  0  0  0  0  0  0  0  0  0
  141.5050   74.9540  220.7500 C   0  0  0  0  0  0  0  0  0  0  0  0
  140.2580   75.1460  221.4400 N   0  0  0  0  0  0  0  0  0  0  0  0
  139.9770   76.0830  222.2940 C   0  0  0  0  0  0  0  0  0  0  0  0
  138.6870   76.1750  222.8110 O   0  0  0  0  0  0  0  0  0  0  0  0
  141.0070   77.0750  222.7140 C   0  0  0  0  0  0  0  0  0  0  0  0
  139.5600   79.6680  221.5150 C   0  0  0  0  0  0  0  0  0  0  0  0
  137.5470   81.1390  224.0810 C   0  0  0  0  0  0  0  0  0  0  0  0
  136.3850   81.0280  225.0870 C   0  0  0  0  0  0  0  0  0  0  0  0
  135.1923   78.5640  224.6875 H   0  0  0  0  0  0  0  0  0  0  0  0
  134.2713   79.1157  223.2473 H   0  0  0  0  0  0  0  0  0  0  0  0
  136.0662   79.1878  223.2473 H   0  0  0  0  0  0  0  0  0  0  0  0
  134.3690   80.6470  225.1730 H   0  0  0  0  0  0  0  0  0  0  0  0
  134.2128   81.1197  222.5651 H   0  0  0  0  0  0  0  0  0  0  0  0
  133.9986   82.3606  223.8937 H   0  0  0  0  0  0  0  0  0  0  0  0
  135.6029   82.8172  221.8023 H   0  0  0  0  0  0  0  0  0  0  0  0
  135.9954   83.3896  223.4652 H   0  0  0  0  0  0  0  0  0  0  0  0
  139.7659   83.0779  221.3119 H   0  0  0  0  0  0  0  0  0  0  0  0
  142.1895   82.5184  221.1454 H   0  0  0  0  0  0  0  0  0  0  0  0
  142.9402   80.1455  221.2543 H   0  0  0  0  0  0  0  0  0  0  0  0
  144.2209   76.5673  219.3965 H   0  0  0  0  0  0  0  0  0  0  0  0
  144.9508   74.2143  219.0496 H   0  0  0  0  0  0  0  0  0  0  0  0
  142.4127   68.6880  219.6251 H   0  0  0  0  0  0  0  0  0  0  0  0
  143.1714   66.3213  219.3671 H   0  0  0  0  0  0  0  0  0  0  0  0
  145.6004   65.8107  219.0794 H   0  0  0  0  0  0  0  0  0  0  0  0
  147.2721   67.6674  219.0442 H   0  0  0  0  0  0  0  0  0  0  0  0
  146.5177   70.0357  219.2925 H   0  0  0  0  0  0  0  0  0  0  0  0
  141.3335   72.8012  220.9482 H   0  0  0  0  0  0  0  0  0  0  0  0
  138.2000   75.3550  223.1490 H   0  0  0  0  0  0  0  0  0  0  0  0
  140.6044   77.7091  223.5176 H   0  0  0  0  0  0  0  0  0  0  0  0
  141.9012   76.5529  223.0852 H   0  0  0  0  0  0  0  0  0  0  0  0
  138.8139   78.8631  221.5892 H   0  0  0  0  0  0  0  0  0  0  0  0
  137.9571   80.1360  223.8920 H   0  0  0  0  0  0  0  0  0  0  0  0
  138.3201   81.7954  224.5071 H   0  0  0  0  0  0  0  0  0  0  0  0
  136.6318   80.2556  225.8303 H   0  0  0  0  0  0  0  0  0  0  0  0
  136.2531   82.0113  225.5622 H   0  0  0  0  0  0  0  0  0  0  0  0
  1  2  1  0
  2  3  1  0
  3  4  1  0
  4  5  1  0
  5  6  1  0
  6  7  2  0
  6  8  1  0
  8  9  2  0
  9 10  1  0
 10 11  2  0
 11 12  1  0
 12 13  1  0
 13 14  2  0
 14 15  1  0
 15 16  2  0
 16 17  1  0
 17 18  2  0
 18 19  1  0
 19 20  3  0
 20 21  1  0
 21 22  2  0
 22 23  1  0
 23 24  2  0
 24 25  1  0
 25 26  2  0
 18 27  1  0
 27 28  2  0
 28 29  1  0
 29 30  2  0
 30 31  1  0
 30 32  1  0
 12 33  2  0
  5 34  1  0
 34 35  1  0
 35  2  1  0
 33  8  1  0
 32 13  1  0
 28 15  1  0
 26 21  1  0
  1 36  1  0
  1 37  1  0
  1 38  1  0
  2 39  1  0
  3 40  1  0
  3 41  1  0
  4 42  1  0
  4 43  1  0
  9 44  1  0
 10 45  1  0
 11 46  1  0
 16 47  1  0
 17 48  1  0
 22 49  1  0
 23 50  1  0
 24 51  1  0
 25 52  1  0
 26 53  1  0
 27 54  1  0
 31 55  1  0
 32 56  1  0
 32 57  1  0
 33 58  1  0
 34 59  1  0
 34 60  1  0
 35 61  1  0
 35 62  1  0
M  CHG  1   2   1
M  END
>  <meeko>  (16) 
{"free_energy": -4.33, "intermolecular_energy": -7.61, "internal_energy": -1.12, "cluster_size": 1, "cluster_id": 11, "rank_in_cluster": 1}

$$$$

     RDKit          3D

 62 66  0  0  0  0  0  0  0  0999 V2000
  139.7020   79.5030  223.7940 C   0  0  0  0  0  0  0  0  0  0  0  0
  141.1220   79.9100  223.9040 N   0  0  0  0  0  0  0  0  0  0  0  0
  141.3260   81.3190  223.4570 C   0  0  0  0  0  0  0  0  0  0  0  0
  141.9440   81.4460  222.0470 C   0  0  0  0  0  0  0  0  0  0  0  0
  141.5170   80.3270  221.2030 N   0  0  0  0  0  0  0  0  0  0  0  0
  140.6590   80.5470  220.0690 C   0  0  0  0  0  0  0  0  0  0  0  0
  139.9100   81.5620  220.0420 O   0  0  0  0  0  0  0  0  0  0  0  0
  140.6160   79.5940  218.9390 C   0  0  0  0  0  0  0  0  0  0  0  0
  140.1180   79.9940  217.6920 C   0  0  0  0  0  0  0  0  0  0  0  0
  140.0720   79.0870  216.6280 C   0  0  0  0  0  0  0  0  0  0  0  0
  140.5320   77.7800  216.7980 C   0  0  0  0  0  0  0  0  0  0  0  0
  141.0380   77.3580  218.0400 C   0  0  0  0  0  0  0  0  0  0  0  0
  141.5410   75.9740  218.2280 C   0  0  0  0  0  0  0  0  0  0  0  0
  140.6980   75.0390  218.5590 N   0  0  0  0  0  0  0  0  0  0  0  0
  140.6620   74.2940  219.7890 C   0  0  0  0  0  0  0  0  0  0  0  0
  139.4100   73.8510  220.2360 C   0  0  0  0  0  0  0  0  0  0  0  0
  139.2970   73.0690  221.3860 C   0  0  0  0  0  0  0  0  0  0  0  0
  140.4420   72.6890  222.0900 C   0  0  0  0  0  0  0  0  0  0  0  0
  140.3260   71.8790  223.2740 C   0  0  0  0  0  0  0  0  0  0  0  0
  140.2350   71.2070  224.2710 C   0  0  0  0  0  0  0  0  0  0  0  0
  140.1380   70.4000  225.4590 C   0  0  0  0  0  0  0  0  0  0  0  0
  139.7360   69.0600  225.3650 C   0  0  0  0  0  0  0  0  0  0  0  0
  139.6260   68.2800  226.5210 C   0  0  0  0  0  0  0  0  0  0  0  0
  139.9150   68.8380  227.7720 C   0  0  0  0  0  0  0  0  0  0  0  0
  140.3160   70.1750  227.8660 C   0  0  0  0  0  0  0  0  0  0  0  0
  140.4300   70.9550  226.7120 C   0  0  0  0  0  0  0  0  0  0  0  0
  141.7040   73.0990  221.6430 C   0  0  0  0  0  0  0  0  0  0  0  0
  141.8330   73.9120  220.5070 C   0  0  0  0  0  0  0  0  0  0  0  0
  143.1660   74.2440  220.0820 N   0  0  0  0  0  0  0  0  0  0  0  0
  143.5400   75.3240  219.4660 C   0  0  0  0  0  0  0  0  0  0  0  0
  144.4370   76.1900  220.0840 O   0  0  0  0  0  0  0  0  0  0  0  0
  143.0090   75.6690  218.1200 C   0  0  0  0  0  0  0  0  0  0  0  0
  141.0560   78.2690  219.1130 C   0  0  0  0  0  0  0  0  0  0  0  0
  141.7940   78.9650  221.6800 C   0  0  0  0  0  0  0  0  0  0  0  0
  142.0120   78.9520  223.2060 C   0  0  0  0  0  0  0  0  0  0  0  0
  139.2765   79.3810  224.8010 H   0  0  0  0  0  0  0  0  0  0  0  0
  139.1400   80.2762  223.2497 H   0  0  0  0  0  0  0  0  0  0  0  0
  139.6350   78.5495  223.2497 H   0  0  0  0  0  0  0  0  0  0  0  0
  141.3610   79.8620  224.9270 H   0  0  0  0  0  0  0  0  0  0  0  0
  140.3498   81.8260  223.4541 H   0  0  0  0  0  0  0  0  0  0  0  0
  142.0380   81.7766  224.1596 H   0  0  0  0  0  0  0  0  0  0  0  0
  141.6153   82.3912  221.5903 H   0  0  0  0  0  0  0  0  0  0  0  0
  143.0405   81.4312  222.1338 H   0  0  0  0  0  0  0  0  0  0  0  0
  139.7619   81.0249  217.5491 H   0  0  0  0  0  0  0  0  0  0  0  0
  139.6719   79.4048  215.6539 H   0  0  0  0  0  0  0  0  0  0  0  0
  140.4983   77.0752  215.9541 H   0  0  0  0  0  0  0  0  0  0  0  0
  138.5049   74.1232  219.6732 H   0  0  0  0  0  0  0  0  0  0  0  0
  138.3047   72.7513  221.7388 H   0  0  0  0  0  0  0  0  0  0  0  0
  139.5071   68.6221  224.3822 H   0  0  0  0  0  0  0  0  0  0  0  0
  139.3125   67.2282  226.4471 H   0  0  0  0  0  0  0  0  0  0  0  0
  139.8268   68.2251  228.6812 H   0  0  0  0  0  0  0  0  0  0  0  0
  140.5419   70.6129  228.8495 H   0  0  0  0  0  0  0  0  0  0  0  0
  140.7491   72.0050  226.7874 H   0  0  0  0  0  0  0  0  0  0  0  0
  142.6043   72.7801  222.1887 H   0  0  0  0  0  0  0  0  0  0  0  0
  144.2160   77.1710  220.2080 H   0  0  0  0  0  0  0  0  0  0  0  0
  143.5397   76.5503  217.7305 H   0  0  0  0  0  0  0  0  0  0  0  0
  143.1597   74.8208  217.4360 H   0  0  0  0  0  0  0  0  0  0  0  0
  141.4182   77.9413  220.0986 H   0  0  0  0  0  0  0  0  0  0  0  0
  140.9412   78.3159  221.4322 H   0  0  0  0  0  0  0  0  0  0  0  0
  142.7089   78.5997  221.1905 H   0  0  0  0  0  0  0  0  0  0  0  0
  141.8097   77.9392  223.5847 H   0  0  0  0  0  0  0  0  0  0  0  0
  143.0522   79.2509  223.4024 H   0  0  0  0  0  0  0  0  0  0  0  0
  1  2  1  0
  2  3  1  0
  3  4  1  0
  4  5  1  0
  5  6  1  0
  6  7  2  0
  6  8  1  0
  8  9  2  0
  9 10  1  0
 10 11  2  0
 11 12  1  0
 12 13  1  0
 13 14  2  0
 14 15  1  0
 15 16  2  0
 16 17  1  0
 17 18  2  0
 18 19  1  0
 19 20  3  0
 20 21  1  0
 21 22  2  0
 22 23  1  0
 23 24  2  0
 24 25  1  0
 25 26  2  0
 18 27  1  0
 27 28  2  0
 28 29  1  0
 29 30  2  0
 30 31  1  0
 30 32  1  0
 12 33  2  0
  5 34  1  0
 34 35  1  0
 35  2  1  0
 33  8  1  0
 32 13  1  0
 28 15  1  0
 26 21  1  0
  1 36  1  0
  1 37  1  0
  1 38  1  0
  2 39  1  0
  3 40  1  0
  3 41  1  0
  4 42  1  0
  4 43  1  0
  9 44  1  0
 10 45  1  0
 11 46  1  0
 16 47  1  0
 17 48  1  0
 22 49  1  0
 23 50  1  0
 24 51  1  0
 25 52  1  0
 26 53  1  0
 27 54  1  0
 31 55  1  0
 32 56  1  0
 32 57  1  0
 33 58  1  0
 34 59  1  0
 34 60  1  0
 35 61  1  0
 35 62  1  0
M  CHG  1   2   1
M  END
>  <meeko>  (17) 
{"free_energy": -5.07, "intermolecular_energy": -8.35, "internal_energy": -0.74, "cluster_size": 8, "cluster_id": 2, "rank_in_cluster": 7}

$$$$

     RDKit          3D

 62 66  0  0  0  0  0  0  0  0999 V2000
  138.0520   80.0680  221.9590 C   0  0  0  0  0  0  0  0  0  0  0  0
  138.6830   79.3300  223.0780 N   0  0  0  0  0  0  0  0  0  0  0  0
  139.8890   80.0410  223.5930 C   0  0  0  0  0  0  0  0  0  0  0  0
  141.2270   79.4260  223.1250 C   0  0  0  0  0  0  0  0  0  0  0  0
  141.0760   78.8390  221.7900 N   0  0  0  0  0  0  0  0  0  0  0  0
  141.7590   79.4040  220.6570 C   0  0  0  0  0  0  0  0  0  0  0  0
  142.1030   80.6180  220.6790 O   0  0  0  0  0  0  0  0  0  0  0  0
  142.0470   78.5990  219.4510 C   0  0  0  0  0  0  0  0  0  0  0  0
  142.2430   79.2220  218.2110 C   0  0  0  0  0  0  0  0  0  0  0  0
  142.5070   78.4560  217.0720 C   0  0  0  0  0  0  0  0  0  0  0  0
  142.5890   77.0640  217.1630 C   0  0  0  0  0  0  0  0  0  0  0  0
  142.3980   76.4190  218.3970 C   0  0  0  0  0  0  0  0  0  0  0  0
  142.4960   74.9410  218.5080 C   0  0  0  0  0  0  0  0  0  0  0  0
  141.4480   74.2710  218.8920 N   0  0  0  0  0  0  0  0  0  0  0  0
  141.2940   73.5150  220.1050 C   0  0  0  0  0  0  0  0  0  0  0  0
  140.0060   73.4300  220.6510 C   0  0  0  0  0  0  0  0  0  0  0  0
  139.7610   72.6640  221.7910 C   0  0  0  0  0  0  0  0  0  0  0  0
  140.7980   71.9410  222.3850 C   0  0  0  0  0  0  0  0  0  0  0  0
  140.5450   71.1480  223.5590 C   0  0  0  0  0  0  0  0  0  0  0  0
  140.3420   70.4820  224.5440 C   0  0  0  0  0  0  0  0  0  0  0  0
  140.0900   69.6920  225.7200 C   0  0  0  0  0  0  0  0  0  0  0  0
  139.8010   68.3260  225.5990 C   0  0  0  0  0  0  0  0  0  0  0  0
  139.5390   67.5610  226.7410 C   0  0  0  0  0  0  0  0  0  0  0  0
  139.5670   68.1610  228.0050 C   0  0  0  0  0  0  0  0  0  0  0  0
  139.8570   69.5240  228.1270 C   0  0  0  0  0  0  0  0  0  0  0  0
  140.1200   70.2890  226.9880 C   0  0  0  0  0  0  0  0  0  0  0  0
  142.0860   71.9910  221.8380 C   0  0  0  0  0  0  0  0  0  0  0  0
  142.3550   72.7820  220.7110 C   0  0  0  0  0  0  0  0  0  0  0  0
  143.6910   72.7360  220.1780 N   0  0  0  0  0  0  0  0  0  0  0  0
  144.3130   73.6900  219.5540 C   0  0  0  0  0  0  0  0  0  0  0  0
  145.4700   74.2300  220.1070 O   0  0  0  0  0  0  0  0  0  0  0  0
  143.8010   74.2370  218.2630 C   0  0  0  0  0  0  0  0  0  0  0  0
  142.1060   77.1960  219.5350 C   0  0  0  0  0  0  0  0  0  0  0  0
  140.0370   77.8160  221.6060 C   0  0  0  0  0  0  0  0  0  0  0  0
  138.9620   77.9220  222.7050 C   0  0  0  0  0  0  0  0  0  0  0  0
  137.3868   80.8460  222.3618 H   0  0  0  0  0  0  0  0  0  0  0  0
  138.8330   80.5366  221.3422 H   0  0  0  0  0  0  0  0  0  0  0  0
  137.4677   79.3693  221.3422 H   0  0  0  0  0  0  0  0  0  0  0  0
  137.9710   79.3080  223.8520 H   0  0  0  0  0  0  0  0  0  0  0  0
  139.8487   81.0850  223.2488 H   0  0  0  0  0  0  0  0  0  0  0  0
  139.8653   79.9561  224.6895 H   0  0  0  0  0  0  0  0  0  0  0  0
  141.9959   80.2119  223.0913 H   0  0  0  0  0  0  0  0  0  0  0  0
  141.5258   78.6377  223.8316 H   0  0  0  0  0  0  0  0  0  0  0  0
  142.1889   80.3180  218.1338 H   0  0  0  0  0  0  0  0  0  0  0  0
  142.6508   78.9509  216.1002 H   0  0  0  0  0  0  0  0  0  0  0  0
  142.8044   76.4693  216.2631 H   0  0  0  0  0  0  0  0  0  0  0  0
  139.1774   73.9744  220.1744 H   0  0  0  0  0  0  0  0  0  0  0  0
  138.7498   72.6294  222.2226 H   0  0  0  0  0  0  0  0  0  0  0  0
  139.7801   67.8547  224.6053 H   0  0  0  0  0  0  0  0  0  0  0  0
  139.3113   66.4891  226.6453 H   0  0  0  0  0  0  0  0  0  0  0  0
  139.3608   67.5604  228.9032 H   0  0  0  0  0  0  0  0  0  0  0  0
  139.8780   69.9942  229.1212 H   0  0  0  0  0  0  0  0  0  0  0  0
  140.3507   71.3601  227.0862 H   0  0  0  0  0  0  0  0  0  0  0  0
  142.8953   71.4040  222.2967 H   0  0  0  0  0  0  0  0  0  0  0  0
  146.3210   74.3080  219.5640 H   0  0  0  0  0  0  0  0  0  0  0  0
  144.5310   74.9484  217.8495 H   0  0  0  0  0  0  0  0  0  0  0  0
  143.6492   73.4154  217.5475 H   0  0  0  0  0  0  0  0  0  0  0  0
  141.9222   76.7004  220.4997 H   0  0  0  0  0  0  0  0  0  0  0  0
  139.5629   77.9565  220.6234 H   0  0  0  0  0  0  0  0  0  0  0  0
  140.5061   76.8229  221.6671 H   0  0  0  0  0  0  0  0  0  0  0  0
  138.0329   77.4614  222.3381 H   0  0  0  0  0  0  0  0  0  0  0  0
  139.3387   77.4029  223.5987 H   0  0  0  0  0  0  0  0  0  0  0  0
  1  2  1  0
  2  3  1  0
  3  4  1  0
  4  5  1  0
  5  6  1  0
  6  7  2  0
  6  8  1  0
  8  9  2  0
  9 10  1  0
 10 11  2  0
 11 12  1  0
 12 13  1  0
 13 14  2  0
 14 15  1  0
 15 16  2  0
 16 17  1  0
 17 18  2  0
 18 19  1  0
 19 20  3  0
 20 21  1  0
 21 22  2  0
 22 23  1  0
 23 24  2  0
 24 25  1  0
 25 26  2  0
 18 27  1  0
 27 28  2  0
 28 29  1  0
 29 30  2  0
 30 31  1  0
 30 32  1  0
 12 33  2  0
  5 34  1  0
 34 35  1  0
 35  2  1  0
 33  8  1  0
 32 13  1  0
 28 15  1  0
 26 21  1  0
  1 36  1  0
  1 37  1  0
  1 38  1  0
  2 39  1  0
  3 40  1  0
  3 41  1  0
  4 42  1  0
  4 43  1  0
  9 44  1  0
 10 45  1  0
 11 46  1  0
 16 47  1  0
 17 48  1  0
 22 49  1  0
 23 50  1  0
 24 51  1  0
 25 52  1  0
 26 53  1  0
 27 54  1  0
 31 55  1  0
 32 56  1  0
 32 57  1  0
 33 58  1  0
 34 59  1  0
 34 60  1  0
 35 61  1  0
 35 62  1  0
M  CHG  1   2   1
M  END
>  <meeko>  (18) 
{"free_energy": -5.76, "intermolecular_energy": -9.04, "internal_energy": -1.13, "cluster_size": 8, "cluster_id": 2, "rank_in_cluster": 3}

$$$$

     RDKit          3D

 62 66  0  0  0  0  0  0  0  0999 V2000
  140.8800   79.3410  224.1110 C   0  0  0  0  0  0  0  0  0  0  0  0
  142.0450   80.1760  223.7370 N   0  0  0  0  0  0  0  0  0  0  0  0
  141.6310   81.5620  223.3660 C   0  0  0  0  0  0  0  0  0  0  0  0
  141.6160   81.8260  221.8440 C   0  0  0  0  0  0  0  0  0  0  0  0
  141.2700   80.6000  221.1200 N   0  0  0  0  0  0  0  0  0  0  0  0
  140.0320   80.4990  220.3940 C   0  0  0  0  0  0  0  0  0  0  0  0
  139.0550   81.2270  220.7250 O   0  0  0  0  0  0  0  0  0  0  0  0
  139.8680   79.5420  219.2800 C   0  0  0  0  0  0  0  0  0  0  0  0
  139.1870   79.9190  218.1150 C   0  0  0  0  0  0  0  0  0  0  0  0
  139.0270   79.0080  217.0660 C   0  0  0  0  0  0  0  0  0  0  0  0
  139.5540   77.7180  217.1680 C   0  0  0  0  0  0  0  0  0  0  0  0
  140.2430   77.3200  218.3270 C   0  0  0  0  0  0  0  0  0  0  0  0
  140.8190   75.9560  218.4400 C   0  0  0  0  0  0  0  0  0  0  0  0
  140.0500   74.9810  218.8300 N   0  0  0  0  0  0  0  0  0  0  0  0
  140.1600   74.2170  220.0430 C   0  0  0  0  0  0  0  0  0  0  0  0
  138.9750   73.7090  220.5930 C   0  0  0  0  0  0  0  0  0  0  0  0
  139.0010   72.9060  221.7330 C   0  0  0  0  0  0  0  0  0  0  0  0
  140.2220   72.5690  222.3230 C   0  0  0  0  0  0  0  0  0  0  0  0
  140.2490   71.7360  223.4980 C   0  0  0  0  0  0  0  0  0  0  0  0
  140.2710   71.0310  224.4750 C   0  0  0  0  0  0  0  0  0  0  0  0
  140.3070   70.1940  225.6460 C   0  0  0  0  0  0  0  0  0  0  0  0
  140.7030   70.7300  226.8790 C   0  0  0  0  0  0  0  0  0  0  0  0
  140.7530   69.9130  228.0130 C   0  0  0  0  0  0  0  0  0  0  0  0
  140.4090   68.5600  227.9170 C   0  0  0  0  0  0  0  0  0  0  0  0
  140.0130   68.0240  226.6870 C   0  0  0  0  0  0  0  0  0  0  0  0
  139.9600   68.8400  225.5520 C   0  0  0  0  0  0  0  0  0  0  0  0
  141.4180   73.0430  221.7720 C   0  0  0  0  0  0  0  0  0  0  0  0
  141.4060   73.8780  220.6450 C   0  0  0  0  0  0  0  0  0  0  0  0
  142.6790   74.2780  220.1080 N   0  0  0  0  0  0  0  0  0  0  0  0
  142.9470   75.3830  219.4810 C   0  0  0  0  0  0  0  0  0  0  0  0
  143.8590   76.2790  220.0300 O   0  0  0  0  0  0  0  0  0  0  0  0
  142.2820   75.7170  218.1910 C   0  0  0  0  0  0  0  0  0  0  0  0
  140.3770   78.2350  219.3890 C   0  0  0  0  0  0  0  0  0  0  0  0
  142.1040   79.4120  221.3480 C   0  0  0  0  0  0  0  0  0  0  0  0
  142.8620   79.5220  222.6860 C   0  0  0  0  0  0  0  0  0  0  0  0
  140.8045   79.2869  225.2071 H   0  0  0  0  0  0  0  0  0  0  0  0
  139.9620   79.7881  223.7018 H   0  0  0  0  0  0  0  0  0  0  0  0
  141.0084   78.3280  223.7018 H   0  0  0  0  0  0  0  0  0  0  0  0
  142.6470   80.2430  224.5960 H   0  0  0  0  0  0  0  0  0  0  0  0
  140.6181   81.7372  223.7576 H   0  0  0  0  0  0  0  0  0  0  0  0
  142.3764   82.2443  223.8005 H   0  0  0  0  0  0  0  0  0  0  0  0
  140.8717   82.6037  221.6177 H   0  0  0  0  0  0  0  0  0  0  0  0
  142.6157   82.1588  221.5281 H   0  0  0  0  0  0  0  0  0  0  0  0
  138.7765   80.9356  218.0251 H   0  0  0  0  0  0  0  0  0  0  0  0
  138.4844   79.3081  216.1574 H   0  0  0  0  0  0  0  0  0  0  0  0
  139.4290   77.0093  216.3361 H   0  0  0  0  0  0  0  0  0  0  0  0
  138.0113   73.9470  220.1190 H   0  0  0  0  0  0  0  0  0  0  0  0
  138.0600   72.5378  222.1678 H   0  0  0  0  0  0  0  0  0  0  0  0
  140.9745   71.7933  226.9548 H   0  0  0  0  0  0  0  0  0  0  0  0
  141.0629   70.3342  228.9808 H   0  0  0  0  0  0  0  0  0  0  0  0
  140.4500   67.9177  228.8090 H   0  0  0  0  0  0  0  0  0  0  0  0
  139.7431   66.9602  226.6123 H   0  0  0  0  0  0  0  0  0  0  0  0
  139.6459   68.4185  224.5857 H   0  0  0  0  0  0  0  0  0  0  0  0
  142.3777   72.7577  222.2276 H   0  0  0  0  0  0  0  0  0  0  0  0
  143.9290   77.2290  219.6870 H   0  0  0  0  0  0  0  0  0  0  0  0
  142.7365   76.6242  217.7662 H   0  0  0  0  0  0  0  0  0  0  0  0
  142.4065   74.8843  217.4831 H   0  0  0  0  0  0  0  0  0  0  0  0
  140.8852   77.9244  220.3138 H   0  0  0  0  0  0  0  0  0  0  0  0
  141.4614   78.5195  221.3702 H   0  0  0  0  0  0  0  0  0  0  0  0
  142.8384   79.3358  220.5327 H   0  0  0  0  0  0  0  0  0  0  0  0
  143.1326   78.5110  223.0247 H   0  0  0  0  0  0  0  0  0  0  0  0
  143.7569   80.1394  222.5190 H   0  0  0  0  0  0  0  0  0  0  0  0
  1  2  1  0
  2  3  1  0
  3  4  1  0
  4  5  1  0
  5  6  1  0
  6  7  2  0
  6  8  1  0
  8  9  2  0
  9 10  1  0
 10 11  2  0
 11 12  1  0
 12 13  1  0
 13 14  2  0
 14 15  1  0
 15 16  2  0
 16 17  1  0
 17 18  2  0
 18 19  1  0
 19 20  3  0
 20 21  1  0
 21 22  2  0
 22 23  1  0
 23 24  2  0
 24 25  1  0
 25 26  2  0
 18 27  1  0
 27 28  2  0
 28 29  1  0
 29 30  2  0
 30 31  1  0
 30 32  1  0
 12 33  2  0
  5 34  1  0
 34 35  1  0
 35  2  1  0
 33  8  1  0
 32 13  1  0
 28 15  1  0
 26 21  1  0
  1 36  1  0
  1 37  1  0
  1 38  1  0
  2 39  1  0
  3 40  1  0
  3 41  1  0
  4 42  1  0
  4 43  1  0
  9 44  1  0
 10 45  1  0
 11 46  1  0
 16 47  1  0
 17 48  1  0
 22 49  1  0
 23 50  1  0
 24 51  1  0
 25 52  1  0
 26 53  1  0
 27 54  1  0
 31 55  1  0
 32 56  1  0
 32 57  1  0
 33 58  1  0
 34 59  1  0
 34 60  1  0
 35 61  1  0
 35 62  1  0
M  CHG  1   2   1
M  END
>  <meeko>  (19) 
{"free_energy": -4.39, "intermolecular_energy": -7.68, "internal_energy": -0.95, "cluster_size": 8, "cluster_id": 2, "rank_in_cluster": 8}

$$$$

     RDKit          3D

 62 66  0  0  0  0  0  0  0  0999 V2000
  137.9900   80.2420  221.9240 C   0  0  0  0  0  0  0  0  0  0  0  0
  138.5830   79.4840  223.0500 N   0  0  0  0  0  0  0  0  0  0  0  0
  139.8220   80.1420  223.5610 C   0  0  0  0  0  0  0  0  0  0  0  0
  141.1300   79.4600  223.1000 C   0  0  0  0  0  0  0  0  0  0  0  0
  140.9520   78.8700  221.7700 N   0  0  0  0  0  0  0  0  0  0  0  0
  141.6620   79.3920  220.6330 C   0  0  0  0  0  0  0  0  0  0  0  0
  142.0640   80.5880  220.6450 O   0  0  0  0  0  0  0  0  0  0  0  0
  141.9130   78.5640  219.4340 C   0  0  0  0  0  0  0  0  0  0  0  0
  142.2480   79.1640  218.2140 C   0  0  0  0  0  0  0  0  0  0  0  0
  142.4770   78.3780  217.0810 C   0  0  0  0  0  0  0  0  0  0  0  0
  142.3830   76.9860  217.1600 C   0  0  0  0  0  0  0  0  0  0  0  0
  142.0510   76.3630  218.3750 C   0  0  0  0  0  0  0  0  0  0  0  0
  141.9610   74.8840  218.4730 C   0  0  0  0  0  0  0  0  0  0  0  0
  140.9170   74.3550  219.0430 N   0  0  0  0  0  0  0  0  0  0  0  0
  140.8810   73.5990  220.2650 C   0  0  0  0  0  0  0  0  0  0  0  0
  139.7120   73.6740  221.0340 C   0  0  0  0  0  0  0  0  0  0  0  0
  139.5730   72.9230  222.2010 C   0  0  0  0  0  0  0  0  0  0  0  0
  140.5920   72.0550  222.6000 C   0  0  0  0  0  0  0  0  0  0  0  0
  140.4470   71.2760  223.8020 C   0  0  0  0  0  0  0  0  0  0  0  0
  140.3330   70.6170  224.8060 C   0  0  0  0  0  0  0  0  0  0  0  0
  140.1900   69.8220  225.9970 C   0  0  0  0  0  0  0  0  0  0  0  0
  140.3970   70.4030  227.2560 C   0  0  0  0  0  0  0  0  0  0  0  0
  140.2750   69.6270  228.4140 C   0  0  0  0  0  0  0  0  0  0  0  0
  139.9470   68.2700  228.3150 C   0  0  0  0  0  0  0  0  0  0  0  0
  139.7390   67.6900  227.0590 C   0  0  0  0  0  0  0  0  0  0  0  0
  139.8590   68.4640  225.9010 C   0  0  0  0  0  0  0  0  0  0  0  0
  141.7560   71.9450  221.8300 C   0  0  0  0  0  0  0  0  0  0  0  0
  141.9250   72.7180  220.6720 C   0  0  0  0  0  0  0  0  0  0  0  0
  143.1250   72.5060  219.9080 N   0  0  0  0  0  0  0  0  0  0  0  0
  143.7460   73.3820  219.1770 C   0  0  0  0  0  0  0  0  0  0  0  0
  145.0450   73.7550  219.5100 O   0  0  0  0  0  0  0  0  0  0  0  0
  143.0900   74.0120  217.9990 C   0  0  0  0  0  0  0  0  0  0  0  0
  141.7960   77.1640  219.5050 C   0  0  0  0  0  0  0  0  0  0  0  0
  139.8660   77.8960  221.5930 C   0  0  0  0  0  0  0  0  0  0  0  0
  138.7960   78.0620  222.6900 C   0  0  0  0  0  0  0  0  0  0  0  0
  137.3575   81.0506  222.3191 H   0  0  0  0  0  0  0  0  0  0  0  0
  138.7935   80.6726  221.3084 H   0  0  0  0  0  0  0  0  0  0  0  0
  137.3787   79.5658  221.3084 H   0  0  0  0  0  0  0  0  0  0  0  0
  137.8710   79.5020  223.8230 H   0  0  0  0  0  0  0  0  0  0  0  0
  139.8316   81.1837  223.2078 H   0  0  0  0  0  0  0  0  0  0  0  0
  139.7932   80.0678  224.6581 H   0  0  0  0  0  0  0  0  0  0  0  0
  141.9355   80.2081  223.0608 H   0  0  0  0  0  0  0  0  0  0  0  0
  141.3906   78.6644  223.8135 H   0  0  0  0  0  0  0  0  0  0  0  0
  142.3313   80.2588  218.1469 H   0  0  0  0  0  0  0  0  0  0  0  0
  142.7321   78.8568  216.1241 H   0  0  0  0  0  0  0  0  0  0  0  0
  142.5701   76.3740  216.2653 H   0  0  0  0  0  0  0  0  0  0  0  0
  138.8928   74.3342  220.7129 H   0  0  0  0  0  0  0  0  0  0  0  0
  138.6600   73.0143  222.8077 H   0  0  0  0  0  0  0  0  0  0  0  0
  140.6555   71.4694  227.3335 H   0  0  0  0  0  0  0  0  0  0  0  0
  140.4368   70.0833  229.4017 H   0  0  0  0  0  0  0  0  0  0  0  0
  139.8527   67.6593  229.2250 H   0  0  0  0  0  0  0  0  0  0  0  0
  139.4807   66.6235  226.9825 H   0  0  0  0  0  0  0  0  0  0  0  0
  139.6935   68.0067  224.9143 H   0  0  0  0  0  0  0  0  0  0  0  0
  142.5468   71.2445  222.1366 H   0  0  0  0  0  0  0  0  0  0  0  0
  145.5730   74.3890  218.9230 H   0  0  0  0  0  0  0  0  0  0  0  0
  143.8231   74.6233  217.4522 H   0  0  0  0  0  0  0  0  0  0  0  0
  142.6994   73.2308  217.3303 H   0  0  0  0  0  0  0  0  0  0  0  0
  141.5023   76.6898  220.4531 H   0  0  0  0  0  0  0  0  0  0  0  0
  139.4000   78.0507  220.6087 H   0  0  0  0  0  0  0  0  0  0  0  0
  140.2874   76.8823  221.6628 H   0  0  0  0  0  0  0  0  0  0  0  0
  137.8467   77.6421  222.3260 H   0  0  0  0  0  0  0  0  0  0  0  0
  139.1473   77.5338  223.5887 H   0  0  0  0  0  0  0  0  0  0  0  0
  1  2  1  0
  2  3  1  0
  3  4  1  0
  4  5  1  0
  5  6  1  0
  6  7  2  0
  6  8  1  0
  8  9  2  0
  9 10  1  0
 10 11  2  0
 11 12  1  0
 12 13  1  0
 13 14  2  0
 14 15  1  0
 15 16  2  0
 16 17  1  0
 17 18  2  0
 18 19  1  0
 19 20  3  0
 20 21  1  0
 21 22  2  0
 22 23  1  0
 23 24  2  0
 24 25  1  0
 25 26  2  0
 18 27  1  0
 27 28  2  0
 28 29  1  0
 29 30  2  0
 30 31  1  0
 30 32  1  0
 12 33  2  0
  5 34  1  0
 34 35  1  0
 35  2  1  0
 33  8  1  0
 32 13  1  0
 28 15  1  0
 26 21  1  0
  1 36  1  0
  1 37  1  0
  1 38  1  0
  2 39  1  0
  3 40  1  0
  3 41  1  0
  4 42  1  0
  4 43  1  0
  9 44  1  0
 10 45  1  0
 11 46  1  0
 16 47  1  0
 17 48  1  0
 22 49  1  0
 23 50  1  0
 24 51  1  0
 25 52  1  0
 26 53  1  0
 27 54  1  0
 31 55  1  0
 32 56  1  0
 32 57  1  0
 33 58  1  0
 34 59  1  0
 34 60  1  0
 35 61  1  0
 35 62  1  0
M  CHG  1   2   1
M  END
>  <meeko>  (20) 
{"free_energy": -5.81, "intermolecular_energy": -9.1, "internal_energy": -1.1, "cluster_size": 8, "cluster_id": 2, "rank_in_cluster": 2}

$$$$
