
     RDKit          3D

 41 42  0  0  0  0  0  0  0  0999 V2000
  138.9520   72.3310  220.1400 O   0  0  0  0  0  0  0  0  0  0  0  0
  139.0770   72.8270  221.2910 C   0  0  0  0  0  0  0  0  0  0  0  0
  138.0060   72.6200  222.3160 C   0  0  0  0  0  0  0  0  0  0  0  0
  137.6690   71.1340  222.5070 C   0  0  0  0  0  0  0  0  0  0  0  0
  138.9100   70.2230  222.4970 C   0  0  0  0  0  0  0  0  0  0  0  0
  138.7980   69.1330  223.4150 O   0  0  0  0  0  0  0  0  0  0  0  0
  139.4380   68.9740  224.6600 C   0  0  0  0  0  0  0  0  0  0  0  0
  139.2860   67.7230  225.2750 C   0  0  0  0  0  0  0  0  0  0  0  0
  139.8340   67.4660  226.5320 C   0  0  0  0  0  0  0  0  0  0  0  0
  140.5640   68.4550  227.1900 C   0  0  0  0  0  0  0  0  0  0  0  0
  141.2550   68.1340  228.7710 Cl  0  0  0  0  0  0  0  0  0  0  0  0
  140.7640   69.6950  226.5790 C   0  0  0  0  0  0  0  0  0  0  0  0
  140.2200   69.9660  225.3140 C   0  0  0  0  0  0  0  0  0  0  0  0
  140.6560   71.5130  224.6000 Cl  0  0  0  0  0  0  0  0  0  0  0  0
  140.2530   73.5580  221.6340 N   0  0  0  0  0  0  0  0  0  0  0  0
  140.1770   74.7760  222.3240 N   0  0  0  0  0  0  0  0  0  0  0  0
  140.7060   75.8740  221.8740 C   0  0  0  0  0  0  0  0  0  0  0  0
  140.3640   77.2180  222.3940 C   0  0  0  0  0  0  0  0  0  0  0  0
  139.0420   77.5700  222.7160 C   0  0  0  0  0  0  0  0  0  0  0  0
  138.7500   78.8550  223.1790 C   0  0  0  0  0  0  0  0  0  0  0  0
  139.7670   79.8010  223.3210 C   0  0  0  0  0  0  0  0  0  0  0  0
  141.0960   79.4670  223.0050 C   0  0  0  0  0  0  0  0  0  0  0  0
  142.1910   80.5000  223.1010 C   0  0  0  0  0  0  0  0  0  0  0  0
  143.4340   79.8890  223.0890 F   0  0  0  0  0  0  0  0  0  0  0  0
  142.1010   81.3600  222.0210 F   0  0  0  0  0  0  0  0  0  0  0  0
  142.0790   81.2320  224.2710 F   0  0  0  0  0  0  0  0  0  0  0  0
  141.3780   78.1800  222.5120 C   0  0  0  0  0  0  0  0  0  0  0  0
  138.3496   73.0321  223.2763 H   0  0  0  0  0  0  0  0  0  0  0  0
  137.0975   73.1310  221.9647 H   0  0  0  0  0  0  0  0  0  0  0  0
  137.1551   71.0136  223.4721 H   0  0  0  0  0  0  0  0  0  0  0  0
  137.0355   70.8317  221.6601 H   0  0  0  0  0  0  0  0  0  0  0  0
  139.0416   69.8177  221.4829 H   0  0  0  0  0  0  0  0  0  0  0  0
  139.7730   70.8314  222.8053 H   0  0  0  0  0  0  0  0  0  0  0  0
  138.7251   66.9308  224.7575 H   0  0  0  0  0  0  0  0  0  0  0  0
  139.6901   66.4829  227.0040 H   0  0  0  0  0  0  0  0  0  0  0  0
  141.3540   70.4671  227.0946 H   0  0  0  0  0  0  0  0  0  0  0  0
  141.4469   75.8017  221.0641 H   0  0  0  0  0  0  0  0  0  0  0  0
  138.2348   76.8313  222.6031 H   0  0  0  0  0  0  0  0  0  0  0  0
  137.7138   79.1230  223.4330 H   0  0  0  0  0  0  0  0  0  0  0  0
  139.5276   80.8122  223.6817 H   0  0  0  0  0  0  0  0  0  0  0  0
  142.4061   77.9250  222.2154 H   0  0  0  0  0  0  0  0  0  0  0  0
  1  2  2  0
  2  3  1  0
  3  4  1  0
  4  5  1  0
  5  6  1  0
  6  7  1  0
  7  8  2  0
  8  9  1  0
  9 10  2  0
 10 11  1  0
 10 12  1  0
 12 13  2  0
 13 14  1  0
  2 15  1  0
 15 16  1  0
 16 17  2  0
 17 18  1  0
 18 19  2  0
 19 20  1  0
 20 21  2  0
 21 22  1  0
 22 23  1  0
 23 24  1  0
 23 25  1  0
 23 26  1  0
 22 27  2  0
 13  7  1  0
 27 18  1  0
  3 28  1  0
  3 29  1  0
  4 30  1  0
  4 31  1  0
  5 32  1  0
  5 33  1  0
  8 34  1  0
  9 35  1  0
 12 36  1  0
 17 37  1  0
 19 38  1  0
 20 39  1  0
 21 40  1  0
 27 41  1  0
M  CHG  1  15  -1
M  END
>  <meeko>  (1) 
{"free_energy": -6.01, "intermolecular_energy": -9.0, "internal_energy": -0.7, "cluster_size": 2, "cluster_id": 6, "rank_in_cluster": 2}

$$$$

     RDKit          3D

 41 42  0  0  0  0  0  0  0  0999 V2000
  139.5140   71.7640  222.7680 O   0  0  0  0  0  0  0  0  0  0  0  0
  139.9560   72.5740  221.9100 C   0  0  0  0  0  0  0  0  0  0  0  0
  139.6890   72.3420  220.4550 C   0  0  0  0  0  0  0  0  0  0  0  0
  139.0250   73.5570  219.7890 C   0  0  0  0  0  0  0  0  0  0  0  0
  140.0330   74.5100  219.1220 C   0  0  0  0  0  0  0  0  0  0  0  0
  141.2400   73.8500  218.7350 O   0  0  0  0  0  0  0  0  0  0  0  0
  142.4780   73.8340  219.4070 C   0  0  0  0  0  0  0  0  0  0  0  0
  142.9600   72.5710  219.7800 C   0  0  0  0  0  0  0  0  0  0  0  0
  144.1520   72.4360  220.4920 C   0  0  0  0  0  0  0  0  0  0  0  0
  144.8950   73.5660  220.8290 C   0  0  0  0  0  0  0  0  0  0  0  0
  146.3940   73.3980  221.7250 Cl  0  0  0  0  0  0  0  0  0  0  0  0
  144.4560   74.8310  220.4320 C   0  0  0  0  0  0  0  0  0  0  0  0
  143.2610   74.9820  219.7130 C   0  0  0  0  0  0  0  0  0  0  0  0
  142.8900   76.6090  219.1600 Cl  0  0  0  0  0  0  0  0  0  0  0  0
  140.6830   73.7290  222.3200 N   0  0  0  0  0  0  0  0  0  0  0  0
  140.1100   75.0070  222.2650 N   0  0  0  0  0  0  0  0  0  0  0  0
  140.7870   76.0700  221.9460 C   0  0  0  0  0  0  0  0  0  0  0  0
  140.4510   77.4280  222.4310 C   0  0  0  0  0  0  0  0  0  0  0  0
  139.1270   77.8030  222.7160 C   0  0  0  0  0  0  0  0  0  0  0  0
  138.8410   79.1010  223.1460 C   0  0  0  0  0  0  0  0  0  0  0  0
  139.8670   80.0360  223.2920 C   0  0  0  0  0  0  0  0  0  0  0  0
  141.1980   79.6790  223.0130 C   0  0  0  0  0  0  0  0  0  0  0  0
  142.3040   80.7000  223.1120 C   0  0  0  0  0  0  0  0  0  0  0  0
  142.2040   81.4070  224.3000 F   0  0  0  0  0  0  0  0  0  0  0  0
  143.5260   80.0540  223.0740 F   0  0  0  0  0  0  0  0  0  0  0  0
  142.2380   81.6040  222.0650 F   0  0  0  0  0  0  0  0  0  0  0  0
  141.4750   78.3790  222.5530 C   0  0  0  0  0  0  0  0  0  0  0  0
  140.6431   72.1366  219.9475 H   0  0  0  0  0  0  0  0  0  0  0  0
  138.9996   71.4892  220.3686 H   0  0  0  0  0  0  0  0  0  0  0  0
  138.3251   73.1956  219.0212 H   0  0  0  0  0  0  0  0  0  0  0  0
  138.5137   74.1244  220.5806 H   0  0  0  0  0  0  0  0  0  0  0  0
  139.5665   74.9452  218.2259 H   0  0  0  0  0  0  0  0  0  0  0  0
  140.2975   75.2835  219.8580 H   0  0  0  0  0  0  0  0  0  0  0  0
  142.3886   71.6717  219.5066 H   0  0  0  0  0  0  0  0  0  0  0  0
  144.5057   71.4372  220.7876 H   0  0  0  0  0  0  0  0  0  0  0  0
  145.0539   75.7187  220.6860 H   0  0  0  0  0  0  0  0  0  0  0  0
  141.6553   75.9545  221.2806 H   0  0  0  0  0  0  0  0  0  0  0  0
  138.3132   77.0721  222.6001 H   0  0  0  0  0  0  0  0  0  0  0  0
  137.8029   79.3874  223.3704 H   0  0  0  0  0  0  0  0  0  0  0  0
  139.6331   81.0573  223.6270 H   0  0  0  0  0  0  0  0  0  0  0  0
  142.5063   78.1049  222.2859 H   0  0  0  0  0  0  0  0  0  0  0  0
  1  2  2  0
  2  3  1  0
  3  4  1  0
  4  5  1  0
  5  6  1  0
  6  7  1  0
  7  8  2  0
  8  9  1  0
  9 10  2  0
 10 11  1  0
 10 12  1  0
 12 13  2  0
 13 14  1  0
  2 15  1  0
 15 16  1  0
 16 17  2  0
 17 18  1  0
 18 19  2  0
 19 20  1  0
 20 21  2  0
 21 22  1  0
 22 23  1  0
 23 24  1  0
 23 25  1  0
 23 26  1  0
 22 27  2  0
 13  7  1  0
 27 18  1  0
  3 28  1  0
  3 29  1  0
  4 30  1  0
  4 31  1  0
  5 32  1  0
  5 33  1  0
  8 34  1  0
  9 35  1  0
 12 36  1  0
 17 37  1  0
 19 38  1  0
 20 39  1  0
 21 40  1  0
 27 41  1  0
M  CHG  1  15  -1
M  END
>  <meeko>  (2) 
{"free_energy": -5.52, "intermolecular_energy": -8.5, "internal_energy": -1.64, "cluster_size": 3, "cluster_id": 7, "rank_in_cluster": 3}

$$$$

     RDKit          3D

 41 42  0  0  0  0  0  0  0  0999 V2000
  133.9500   69.1790  226.4240 O   0  0  0  0  0  0  0  0  0  0  0  0
  134.5430   69.5360  225.3710 C   0  0  0  0  0  0  0  0  0  0  0  0
  134.0080   70.6740  224.5590 C   0  0  0  0  0  0  0  0  0  0  0  0
  134.8920   71.9250  224.6650 C   0  0  0  0  0  0  0  0  0  0  0  0
  134.0850   73.2300  224.7930 C   0  0  0  0  0  0  0  0  0  0  0  0
  134.1810   73.8090  226.0960 O   0  0  0  0  0  0  0  0  0  0  0  0
  133.3810   74.8240  226.6580 C   0  0  0  0  0  0  0  0  0  0  0  0
  133.8740   76.1320  226.5410 C   0  0  0  0  0  0  0  0  0  0  0  0
  133.1920   77.2120  227.1010 C   0  0  0  0  0  0  0  0  0  0  0  0
  131.9900   77.0040  227.7760 C   0  0  0  0  0  0  0  0  0  0  0  0
  131.1300   78.3610  228.4810 Cl  0  0  0  0  0  0  0  0  0  0  0  0
  131.4590   75.7160  227.8690 C   0  0  0  0  0  0  0  0  0  0  0  0
  132.1320   74.6200  227.3080 C   0  0  0  0  0  0  0  0  0  0  0  0
  131.2940   73.0760  227.3800 Cl  0  0  0  0  0  0  0  0  0  0  0  0
  135.7430   68.8800  224.9660 N   0  0  0  0  0  0  0  0  0  0  0  0
  136.9630   69.5690  224.9070 N   0  0  0  0  0  0  0  0  0  0  0  0
  138.1100   68.9630  224.8230 C   0  0  0  0  0  0  0  0  0  0  0  0
  139.1330   68.9990  225.8930 C   0  0  0  0  0  0  0  0  0  0  0  0
  139.6790   67.8220  226.4320 C   0  0  0  0  0  0  0  0  0  0  0  0
  140.6220   67.8910  227.4600 C   0  0  0  0  0  0  0  0  0  0  0  0
  141.0270   69.1290  227.9620 C   0  0  0  0  0  0  0  0  0  0  0  0
  140.4930   70.3180  227.4340 C   0  0  0  0  0  0  0  0  0  0  0  0
  140.8820   71.6570  228.0100 C   0  0  0  0  0  0  0  0  0  0  0  0
  141.8720   71.5020  228.9670 F   0  0  0  0  0  0  0  0  0  0  0  0
  141.3580   72.4680  226.9970 F   0  0  0  0  0  0  0  0  0  0  0  0
  139.7960   72.2720  228.6090 F   0  0  0  0  0  0  0  0  0  0  0  0
  139.5220   70.2400  226.4190 C   0  0  0  0  0  0  0  0  0  0  0  0
  133.9567   70.3642  223.5048 H   0  0  0  0  0  0  0  0  0  0  0  0
  133.0116   70.9293  224.9489 H   0  0  0  0  0  0  0  0  0  0  0  0
  135.5358   71.8239  225.5512 H   0  0  0  0  0  0  0  0  0  0  0  0
  135.4758   71.9920  223.7351 H   0  0  0  0  0  0  0  0  0  0  0  0
  134.4656   73.9534  224.0569 H   0  0  0  0  0  0  0  0  0  0  0  0
  133.0274   72.9871  224.6130 H   0  0  0  0  0  0  0  0  0  0  0  0
  134.8144   76.3089  225.9984 H   0  0  0  0  0  0  0  0  0  0  0  0
  133.6027   78.2284  227.0101 H   0  0  0  0  0  0  0  0  0  0  0  0
  130.5020   75.5587  228.3881 H   0  0  0  0  0  0  0  0  0  0  0  0
  138.3324   68.3933  223.9087 H   0  0  0  0  0  0  0  0  0  0  0  0
  139.3627   66.8429  226.0431 H   0  0  0  0  0  0  0  0  0  0  0  0
  141.0474   66.9657  227.8759 H   0  0  0  0  0  0  0  0  0  0  0  0
  141.7673   69.1747  228.7744 H   0  0  0  0  0  0  0  0  0  0  0  0
  139.0627   71.1622  226.0336 H   0  0  0  0  0  0  0  0  0  0  0  0
  1  2  2  0
  2  3  1  0
  3  4  1  0
  4  5  1  0
  5  6  1  0
  6  7  1  0
  7  8  2  0
  8  9  1  0
  9 10  2  0
 10 11  1  0
 10 12  1  0
 12 13  2  0
 13 14  1  0
  2 15  1  0
 15 16  1  0
 16 17  2  0
 17 18  1  0
 18 19  2  0
 19 20  1  0
 20 21  2  0
 21 22  1  0
 22 23  1  0
 23 24  1  0
 23 25  1  0
 23 26  1  0
 22 27  2  0
 13  7  1  0
 27 18  1  0
  3 28  1  0
  3 29  1  0
  4 30  1  0
  4 31  1  0
  5 32  1  0
  5 33  1  0
  8 34  1  0
  9 35  1  0
 12 36  1  0
 17 37  1  0
 19 38  1  0
 20 39  1  0
 21 40  1  0
 27 41  1  0
M  CHG  1  15  -1
M  END
>  <meeko>  (3) 
{"free_energy": -6.88, "intermolecular_energy": -9.86, "internal_energy": -0.72, "cluster_size": 1, "cluster_id": 1, "rank_in_cluster": 1}

$$$$

     RDKit          3D

 41 42  0  0  0  0  0  0  0  0999 V2000
  137.2680   72.9150  221.1920 O   0  0  0  0  0  0  0  0  0  0  0  0
  138.0600   73.7630  221.6830 C   0  0  0  0  0  0  0  0  0  0  0  0
  137.5240   75.0180  222.2980 C   0  0  0  0  0  0  0  0  0  0  0  0
  136.9090   75.9580  221.2500 C   0  0  0  0  0  0  0  0  0  0  0  0
  137.5880   77.3380  221.1980 C   0  0  0  0  0  0  0  0  0  0  0  0
  138.0530   77.7700  222.4790 O   0  0  0  0  0  0  0  0  0  0  0  0
  139.2620   78.4220  222.7920 C   0  0  0  0  0  0  0  0  0  0  0  0
  139.1430   79.6640  223.4330 C   0  0  0  0  0  0  0  0  0  0  0  0
  140.2700   80.4230  223.7480 C   0  0  0  0  0  0  0  0  0  0  0  0
  141.5430   79.9430  223.4430 C   0  0  0  0  0  0  0  0  0  0  0  0
  142.9610   80.8960  223.8390 Cl  0  0  0  0  0  0  0  0  0  0  0  0
  141.6870   78.6900  222.8430 C   0  0  0  0  0  0  0  0  0  0  0  0
  140.5630   77.9150  222.5220 C   0  0  0  0  0  0  0  0  0  0  0  0
  140.8870   76.3050  221.8930 Cl  0  0  0  0  0  0  0  0  0  0  0  0
  139.4640   73.5170  221.6860 N   0  0  0  0  0  0  0  0  0  0  0  0
  140.1110   73.0070  222.8210 N   0  0  0  0  0  0  0  0  0  0  0  0
  140.3520   71.7410  222.9840 C   0  0  0  0  0  0  0  0  0  0  0  0
  140.2310   71.0480  224.2870 C   0  0  0  0  0  0  0  0  0  0  0  0
  139.6260   69.7840  224.3980 C   0  0  0  0  0  0  0  0  0  0  0  0
  139.5040   69.1710  225.6470 C   0  0  0  0  0  0  0  0  0  0  0  0
  139.9770   69.8100  226.7950 C   0  0  0  0  0  0  0  0  0  0  0  0
  140.5860   71.0740  226.7040 C   0  0  0  0  0  0  0  0  0  0  0  0
  141.0460   71.7950  227.9460 C   0  0  0  0  0  0  0  0  0  0  0  0
  141.8020   70.9510  228.7430 F   0  0  0  0  0  0  0  0  0  0  0  0
  141.8190   72.8830  227.5810 F   0  0  0  0  0  0  0  0  0  0  0  0
  139.9660   72.2390  228.6890 F   0  0  0  0  0  0  0  0  0  0  0  0
  140.6800   71.6980  225.4470 C   0  0  0  0  0  0  0  0  0  0  0  0
  136.7499   74.7506  223.0324 H   0  0  0  0  0  0  0  0  0  0  0  0
  138.3623   75.5458  222.7761 H   0  0  0  0  0  0  0  0  0  0  0  0
  137.0010   75.4860  220.2607 H   0  0  0  0  0  0  0  0  0  0  0  0
  135.8592   76.1216  221.5348 H   0  0  0  0  0  0  0  0  0  0  0  0
  138.4460   77.2830  220.5118 H   0  0  0  0  0  0  0  0  0  0  0  0
  136.8387   78.0655  220.8526 H   0  0  0  0  0  0  0  0  0  0  0  0
  138.1443   80.0457  223.6915 H   0  0  0  0  0  0  0  0  0  0  0  0
  140.1544   81.4012  224.2376 H   0  0  0  0  0  0  0  0  0  0  0  0
  142.6935   78.3066  222.6197 H   0  0  0  0  0  0  0  0  0  0  0  0
  140.6624   71.1527  222.1079 H   0  0  0  0  0  0  0  0  0  0  0  0
  139.2476   69.2762  223.4986 H   0  0  0  0  0  0  0  0  0  0  0  0
  139.0331   68.1801  225.7268 H   0  0  0  0  0  0  0  0  0  0  0  0
  139.8726   69.3221  227.7753 H   0  0  0  0  0  0  0  0  0  0  0  0
  141.1105   72.7075  225.3722 H   0  0  0  0  0  0  0  0  0  0  0  0
  1  2  2  0
  2  3  1  0
  3  4  1  0
  4  5  1  0
  5  6  1  0
  6  7  1  0
  7  8  2  0
  8  9  1  0
  9 10  2  0
 10 11  1  0
 10 12  1  0
 12 13  2  0
 13 14  1  0
  2 15  1  0
 15 16  1  0
 16 17  2  0
 17 18  1  0
 18 19  2  0
 19 20  1  0
 20 21  2  0
 21 22  1  0
 22 23  1  0
 23 24  1  0
 23 25  1  0
 23 26  1  0
 22 27  2  0
 13  7  1  0
 27 18  1  0
  3 28  1  0
  3 29  1  0
  4 30  1  0
  4 31  1  0
  5 32  1  0
  5 33  1  0
  8 34  1  0
  9 35  1  0
 12 36  1  0
 17 37  1  0
 19 38  1  0
 20 39  1  0
 21 40  1  0
 27 41  1  0
M  CHG  1  15  -1
M  END
>  <meeko>  (4) 
{"free_energy": -6.09, "intermolecular_energy": -9.07, "internal_energy": -0.86, "cluster_size": 8, "cluster_id": 2, "rank_in_cluster": 8}

$$$$

     RDKit          3D

 41 42  0  0  0  0  0  0  0  0999 V2000
  141.0600   75.5330  221.9640 O   0  0  0  0  0  0  0  0  0  0  0  0
  140.1330   74.7690  221.5860 C   0  0  0  0  0  0  0  0  0  0  0  0
  139.4410   75.0200  220.2830 C   0  0  0  0  0  0  0  0  0  0  0  0
  138.9970   73.7160  219.6040 C   0  0  0  0  0  0  0  0  0  0  0  0
  140.1280   73.0220  218.8220 C   0  0  0  0  0  0  0  0  0  0  0  0
  141.2640   73.8690  218.6320 O   0  0  0  0  0  0  0  0  0  0  0  0
  142.4910   73.8470  219.3230 C   0  0  0  0  0  0  0  0  0  0  0  0
  142.9500   72.5840  219.7220 C   0  0  0  0  0  0  0  0  0  0  0  0
  144.1300   72.4430  220.4540 C   0  0  0  0  0  0  0  0  0  0  0  0
  144.8830   73.5690  220.7850 C   0  0  0  0  0  0  0  0  0  0  0  0
  146.3660   73.3940  221.7060 Cl  0  0  0  0  0  0  0  0  0  0  0  0
  144.4680   74.8330  220.3620 C   0  0  0  0  0  0  0  0  0  0  0  0
  143.2860   74.9890  219.6230 C   0  0  0  0  0  0  0  0  0  0  0  0
  142.9450   76.6120  219.0400 Cl  0  0  0  0  0  0  0  0  0  0  0  0
  139.7610   73.6440  222.3800 N   0  0  0  0  0  0  0  0  0  0  0  0
  140.6960   72.6590  222.7280 N   0  0  0  0  0  0  0  0  0  0  0  0
  140.3680   71.4180  222.9330 C   0  0  0  0  0  0  0  0  0  0  0  0
  140.2330   70.8210  224.2810 C   0  0  0  0  0  0  0  0  0  0  0  0
  139.6200   69.5720  224.4770 C   0  0  0  0  0  0  0  0  0  0  0  0
  139.4850   69.0500  225.7660 C   0  0  0  0  0  0  0  0  0  0  0  0
  139.9540   69.7660  226.8690 C   0  0  0  0  0  0  0  0  0  0  0  0
  140.5720   71.0170  226.6920 C   0  0  0  0  0  0  0  0  0  0  0  0
  141.0280   71.8230  227.8830 C   0  0  0  0  0  0  0  0  0  0  0  0
  139.9370   72.2600  228.6170 F   0  0  0  0  0  0  0  0  0  0  0  0
  141.8260   71.0320  228.6890 F   0  0  0  0  0  0  0  0  0  0  0  0
  141.7520   72.9330  227.4810 F   0  0  0  0  0  0  0  0  0  0  0  0
  140.6780   71.5500  225.3950 C   0  0  0  0  0  0  0  0  0  0  0  0
  138.5540   75.6440  220.4669 H   0  0  0  0  0  0  0  0  0  0  0  0
  140.1526   75.5253  219.6134 H   0  0  0  0  0  0  0  0  0  0  0  0
  138.6329   73.0251  220.3787 H   0  0  0  0  0  0  0  0  0  0  0  0
  138.2114   73.9765  218.8794 H   0  0  0  0  0  0  0  0  0  0  0  0
  140.4443   72.1277  219.3790 H   0  0  0  0  0  0  0  0  0  0  0  0
  139.7355   72.7624  217.8277 H   0  0  0  0  0  0  0  0  0  0  0  0
  142.3702   71.6886  219.4536 H   0  0  0  0  0  0  0  0  0  0  0  0
  144.4658   71.4442  220.7696 H   0  0  0  0  0  0  0  0  0  0  0  0
  145.0745   75.7163  220.6109 H   0  0  0  0  0  0  0  0  0  0  0  0
  140.1808   70.7775  222.0585 H   0  0  0  0  0  0  0  0  0  0  0  0
  139.2453   69.0035  223.6131 H   0  0  0  0  0  0  0  0  0  0  0  0
  139.0069   68.0702  225.9125 H   0  0  0  0  0  0  0  0  0  0  0  0
  139.8397   69.3499  227.8808 H   0  0  0  0  0  0  0  0  0  0  0  0
  141.1145   72.5495  225.2518 H   0  0  0  0  0  0  0  0  0  0  0  0
  1  2  2  0
  2  3  1  0
  3  4  1  0
  4  5  1  0
  5  6  1  0
  6  7  1  0
  7  8  2  0
  8  9  1  0
  9 10  2  0
 10 11  1  0
 10 12  1  0
 12 13  2  0
 13 14  1  0
  2 15  1  0
 15 16  1  0
 16 17  2  0
 17 18  1  0
 18 19  2  0
 19 20  1  0
 20 21  2  0
 21 22  1  0
 22 23  1  0
 23 24  1  0
 23 25  1  0
 23 26  1  0
 22 27  2  0
 13  7  1  0
 27 18  1  0
  3 28  1  0
  3 29  1  0
  4 30  1  0
  4 31  1  0
  5 32  1  0
  5 33  1  0
  8 34  1  0
  9 35  1  0
 12 36  1  0
 17 37  1  0
 19 38  1  0
 20 39  1  0
 21 40  1  0
 27 41  1  0
M  CHG  1  15  -1
M  END
>  <meeko>  (5) 
{"free_energy": -6.33, "intermolecular_energy": -9.32, "internal_energy": -1.48, "cluster_size": 4, "cluster_id": 3, "rank_in_cluster": 1}

$$$$

     RDKit          3D

 41 42  0  0  0  0  0  0  0  0999 V2000
  139.5840   75.4900  222.7210 O   0  0  0  0  0  0  0  0  0  0  0  0
  139.3970   74.5600  221.8920 C   0  0  0  0  0  0  0  0  0  0  0  0
  138.1820   74.5720  221.0180 C   0  0  0  0  0  0  0  0  0  0  0  0
  137.9900   75.9220  220.3120 C   0  0  0  0  0  0  0  0  0  0  0  0
  137.5690   77.0530  221.2680 C   0  0  0  0  0  0  0  0  0  0  0  0
  138.2780   78.2700  221.0240 O   0  0  0  0  0  0  0  0  0  0  0  0
  139.4400   78.7450  221.6640 C   0  0  0  0  0  0  0  0  0  0  0  0
  139.2350   79.6190  222.7410 C   0  0  0  0  0  0  0  0  0  0  0  0
  140.3120   80.1900  223.4200 C   0  0  0  0  0  0  0  0  0  0  0  0
  141.6180   79.8800  223.0440 C   0  0  0  0  0  0  0  0  0  0  0  0
  142.9730   80.5970  223.8970 Cl  0  0  0  0  0  0  0  0  0  0  0  0
  141.8450   78.9800  222.0010 C   0  0  0  0  0  0  0  0  0  0  0  0
  140.7730   78.3960  221.3110 C   0  0  0  0  0  0  0  0  0  0  0  0
  141.1930   77.1810  220.1110 Cl  0  0  0  0  0  0  0  0  0  0  0  0
  140.3550   73.5130  221.7580 N   0  0  0  0  0  0  0  0  0  0  0  0
  140.6640   72.6690  222.8340 N   0  0  0  0  0  0  0  0  0  0  0  0
  140.0940   71.5140  223.0080 C   0  0  0  0  0  0  0  0  0  0  0  0
  140.0580   70.8100  224.3100 C   0  0  0  0  0  0  0  0  0  0  0  0
  139.4970   69.5280  224.4410 C   0  0  0  0  0  0  0  0  0  0  0  0
  139.4560   68.9030  225.6900 C   0  0  0  0  0  0  0  0  0  0  0  0
  139.9660   69.5480  226.8180 C   0  0  0  0  0  0  0  0  0  0  0  0
  140.5330   70.8310  226.7060 C   0  0  0  0  0  0  0  0  0  0  0  0
  141.0330   71.5580  227.9290 C   0  0  0  0  0  0  0  0  0  0  0  0
  141.8240   72.6340  227.5620 F   0  0  0  0  0  0  0  0  0  0  0  0
  139.9530   72.0190  228.6590 F   0  0  0  0  0  0  0  0  0  0  0  0
  141.7910   70.7180  228.7280 F   0  0  0  0  0  0  0  0  0  0  0  0
  140.5450   71.4660  225.4510 C   0  0  0  0  0  0  0  0  0  0  0  0
  138.2855   73.7852  220.2563 H   0  0  0  0  0  0  0  0  0  0  0  0
  137.3040   74.3967  221.6571 H   0  0  0  0  0  0  0  0  0  0  0  0
  138.9394   76.2042  219.8335 H   0  0  0  0  0  0  0  0  0  0  0  0
  137.1793   75.7950  219.5795 H   0  0  0  0  0  0  0  0  0  0  0  0
  136.4927   77.2404  221.1401 H   0  0  0  0  0  0  0  0  0  0  0  0
  137.8049   76.7291  222.2924 H   0  0  0  0  0  0  0  0  0  0  0  0
  138.2086   79.8584  223.0558 H   0  0  0  0  0  0  0  0  0  0  0  0
  140.1303   80.8854  224.2527 H   0  0  0  0  0  0  0  0  0  0  0  0
  142.8770   78.7261  221.7172 H   0  0  0  0  0  0  0  0  0  0  0  0
  139.6132   71.0344  222.1427 H   0  0  0  0  0  0  0  0  0  0  0  0
  139.0890   69.0151  223.5575 H   0  0  0  0  0  0  0  0  0  0  0  0
  139.0197   67.8977  225.7849 H   0  0  0  0  0  0  0  0  0  0  0  0
  139.9245   69.0512  227.7986 H   0  0  0  0  0  0  0  0  0  0  0  0
  140.9407   72.4886  225.3629 H   0  0  0  0  0  0  0  0  0  0  0  0
  1  2  2  0
  2  3  1  0
  3  4  1  0
  4  5  1  0
  5  6  1  0
  6  7  1  0
  7  8  2  0
  8  9  1  0
  9 10  2  0
 10 11  1  0
 10 12  1  0
 12 13  2  0
 13 14  1  0
  2 15  1  0
 15 16  1  0
 16 17  2  0
 17 18  1  0
 18 19  2  0
 19 20  1  0
 20 21  2  0
 21 22  1  0
 22 23  1  0
 23 24  1  0
 23 25  1  0
 23 26  1  0
 22 27  2  0
 13  7  1  0
 27 18  1  0
  3 28  1  0
  3 29  1  0
  4 30  1  0
  4 31  1  0
  5 32  1  0
  5 33  1  0
  8 34  1  0
  9 35  1  0
 12 36  1  0
 17 37  1  0
 19 38  1  0
 20 39  1  0
 21 40  1  0
 27 41  1  0
M  CHG  1  15  -1
M  END
>  <meeko>  (6) 
{"free_energy": -6.27, "intermolecular_energy": -9.25, "internal_energy": -1.0, "cluster_size": 8, "cluster_id": 2, "rank_in_cluster": 6}

$$$$

     RDKit          3D

 41 42  0  0  0  0  0  0  0  0999 V2000
  134.0180   68.5800  226.5480 O   0  0  0  0  0  0  0  0  0  0  0  0
  134.0350   69.1460  225.4220 C   0  0  0  0  0  0  0  0  0  0  0  0
  132.9590   70.1210  225.0590 C   0  0  0  0  0  0  0  0  0  0  0  0
  132.4450   70.8960  226.2810 C   0  0  0  0  0  0  0  0  0  0  0  0
  133.5640   71.6040  227.0670 C   0  0  0  0  0  0  0  0  0  0  0  0
  133.5850   73.0150  226.8420 O   0  0  0  0  0  0  0  0  0  0  0  0
  134.2840   73.7280  225.8480 C   0  0  0  0  0  0  0  0  0  0  0  0
  134.8990   72.9540  224.8530 C   0  0  0  0  0  0  0  0  0  0  0  0
  135.6580   73.5480  223.8440 C   0  0  0  0  0  0  0  0  0  0  0  0
  135.8000   74.9340  223.8030 C   0  0  0  0  0  0  0  0  0  0  0  0
  136.7540   75.6830  222.5350 Cl  0  0  0  0  0  0  0  0  0  0  0  0
  135.1620   75.7280  224.7590 C   0  0  0  0  0  0  0  0  0  0  0  0
  134.3940   75.1450  225.7770 C   0  0  0  0  0  0  0  0  0  0  0  0
  133.5380   76.2580  226.8350 Cl  0  0  0  0  0  0  0  0  0  0  0  0
  135.0950   68.8870  224.5040 N   0  0  0  0  0  0  0  0  0  0  0  0
  136.2170   69.7240  224.4340 N   0  0  0  0  0  0  0  0  0  0  0  0
  137.4290   69.2680  224.3170 C   0  0  0  0  0  0  0  0  0  0  0  0
  138.5930   69.8570  225.0180 C   0  0  0  0  0  0  0  0  0  0  0  0
  139.2670   70.9810  224.5130 C   0  0  0  0  0  0  0  0  0  0  0  0
  140.3790   71.4960  225.1850 C   0  0  0  0  0  0  0  0  0  0  0  0
  140.8310   70.8940  226.3610 C   0  0  0  0  0  0  0  0  0  0  0  0
  140.1680   69.7680  226.8830 C   0  0  0  0  0  0  0  0  0  0  0  0
  140.6860   69.0780  228.1200 C   0  0  0  0  0  0  0  0  0  0  0  0
  139.6740   68.9430  229.0570 F   0  0  0  0  0  0  0  0  0  0  0  0
  141.1550   67.8230  227.7790 F   0  0  0  0  0  0  0  0  0  0  0  0
  141.7140   69.8030  228.6980 F   0  0  0  0  0  0  0  0  0  0  0  0
  139.0680   69.2390  226.1850 C   0  0  0  0  0  0  0  0  0  0  0  0
  133.3617   70.8378  224.3282 H   0  0  0  0  0  0  0  0  0  0  0  0
  132.1156   69.5535  224.6387 H   0  0  0  0  0  0  0  0  0  0  0  0
  131.7264   71.6543  225.9367 H   0  0  0  0  0  0  0  0  0  0  0  0
  131.9820   70.1648  226.9599 H   0  0  0  0  0  0  0  0  0  0  0  0
  133.4107   71.4206  228.1407 H   0  0  0  0  0  0  0  0  0  0  0  0
  134.5248   71.1966  226.7192 H   0  0  0  0  0  0  0  0  0  0  0  0
  134.7810   71.8605  224.8684 H   0  0  0  0  0  0  0  0  0  0  0  0
  136.1443   72.9225  223.0809 H   0  0  0  0  0  0  0  0  0  0  0  0
  135.2632   76.8224  224.7127 H   0  0  0  0  0  0  0  0  0  0  0  0
  137.5986   68.3996  223.6634 H   0  0  0  0  0  0  0  0  0  0  0  0
  138.9183   71.4578  223.5850 H   0  0  0  0  0  0  0  0  0  0  0  0
  140.9000   72.3788  224.7860 H   0  0  0  0  0  0  0  0  0  0  0  0
  141.7097   71.3020  226.8819 H   0  0  0  0  0  0  0  0  0  0  0  0
  138.5738   68.3298  226.5581 H   0  0  0  0  0  0  0  0  0  0  0  0
  1  2  2  0
  2  3  1  0
  3  4  1  0
  4  5  1  0
  5  6  1  0
  6  7  1  0
  7  8  2  0
  8  9  1  0
  9 10  2  0
 10 11  1  0
 10 12  1  0
 12 13  2  0
 13 14  1  0
  2 15  1  0
 15 16  1  0
 16 17  2  0
 17 18  1  0
 18 19  2  0
 19 20  1  0
 20 21  2  0
 21 22  1  0
 22 23  1  0
 23 24  1  0
 23 25  1  0
 23 26  1  0
 22 27  2  0
 13  7  1  0
 27 18  1  0
  3 28  1  0
  3 29  1  0
  4 30  1  0
  4 31  1  0
  5 32  1  0
  5 33  1  0
  8 34  1  0
  9 35  1  0
 12 36  1  0
 17 37  1  0
 19 38  1  0
 20 39  1  0
 21 40  1  0
 27 41  1  0
M  CHG  1  15  -1
M  END
>  <meeko>  (7) 
{"free_energy": -6.1, "intermolecular_energy": -9.09, "internal_energy": -1.27, "cluster_size": 1, "cluster_id": 4, "rank_in_cluster": 1}

$$$$

     RDKit          3D

 41 42  0  0  0  0  0  0  0  0999 V2000
  140.6990   73.9570  222.3170 O   0  0  0  0  0  0  0  0  0  0  0  0
  139.6790   73.4950  221.7410 C   0  0  0  0  0  0  0  0  0  0  0  0
  138.9390   74.3310  220.7440 C   0  0  0  0  0  0  0  0  0  0  0  0
  137.8010   75.1320  221.3940 C   0  0  0  0  0  0  0  0  0  0  0  0
  138.0230   76.6550  221.3440 C   0  0  0  0  0  0  0  0  0  0  0  0
  138.3840   77.1990  222.6150 O   0  0  0  0  0  0  0  0  0  0  0  0
  139.3890   78.1430  222.9050 C   0  0  0  0  0  0  0  0  0  0  0  0
  140.7080   77.7290  222.6700 C   0  0  0  0  0  0  0  0  0  0  0  0
  141.7890   78.5610  222.9650 C   0  0  0  0  0  0  0  0  0  0  0  0
  141.5660   79.8350  223.4860 C   0  0  0  0  0  0  0  0  0  0  0  0
  142.9230   80.8830  223.8570 Cl  0  0  0  0  0  0  0  0  0  0  0  0
  140.2590   80.2840  223.6880 C   0  0  0  0  0  0  0  0  0  0  0  0
  139.1630   79.4600  223.3940 C   0  0  0  0  0  0  0  0  0  0  0  0
  137.5740   80.1910  223.5690 Cl  0  0  0  0  0  0  0  0  0  0  0  0
  139.2440   72.1640  222.0090 N   0  0  0  0  0  0  0  0  0  0  0  0
  139.1160   71.6910  223.3230 N   0  0  0  0  0  0  0  0  0  0  0  0
  139.4130   70.4730  223.6650 C   0  0  0  0  0  0  0  0  0  0  0  0
  139.8680   70.0950  225.0220 C   0  0  0  0  0  0  0  0  0  0  0  0
  139.9140   68.7530  225.4380 C   0  0  0  0  0  0  0  0  0  0  0  0
  140.3230   68.4330  226.7350 C   0  0  0  0  0  0  0  0  0  0  0  0
  140.6860   69.4430  227.6290 C   0  0  0  0  0  0  0  0  0  0  0  0
  140.6480   70.7910  227.2300 C   0  0  0  0  0  0  0  0  0  0  0  0
  140.9820   71.8900  228.2080 C   0  0  0  0  0  0  0  0  0  0  0  0
  141.9520   71.4640  229.1000 F   0  0  0  0  0  0  0  0  0  0  0  0
  141.4580   72.9870  227.5140 F   0  0  0  0  0  0  0  0  0  0  0  0
  139.8630   72.2640  228.9320 F   0  0  0  0  0  0  0  0  0  0  0  0
  140.2070   71.1070  225.9330 C   0  0  0  0  0  0  0  0  0  0  0  0
  139.6448   75.0331  220.2761 H   0  0  0  0  0  0  0  0  0  0  0  0
  138.4950   73.6554  219.9980 H   0  0  0  0  0  0  0  0  0  0  0  0
  136.8641   74.8982  220.8671 H   0  0  0  0  0  0  0  0  0  0  0  0
  137.7631   74.8427  222.4546 H   0  0  0  0  0  0  0  0  0  0  0  0
  138.8287   76.8704  220.6268 H   0  0  0  0  0  0  0  0  0  0  0  0
  137.0740   77.1205  221.0394 H   0  0  0  0  0  0  0  0  0  0  0  0
  140.8939   76.7312  222.2458 H   0  0  0  0  0  0  0  0  0  0  0  0
  142.8167   78.2118  222.7865 H   0  0  0  0  0  0  0  0  0  0  0  0
  140.0872   81.2963  224.0825 H   0  0  0  0  0  0  0  0  0  0  0  0
  139.3215   69.6816  222.9065 H   0  0  0  0  0  0  0  0  0  0  0  0
  139.6271   67.9525  224.7403 H   0  0  0  0  0  0  0  0  0  0  0  0
  140.3593   67.3808  227.0536 H   0  0  0  0  0  0  0  0  0  0  0  0
  141.0030   69.1828  228.6497 H   0  0  0  0  0  0  0  0  0  0  0  0
  140.1267   72.1610  225.6285 H   0  0  0  0  0  0  0  0  0  0  0  0
  1  2  2  0
  2  3  1  0
  3  4  1  0
  4  5  1  0
  5  6  1  0
  6  7  1  0
  7  8  2  0
  8  9  1  0
  9 10  2  0
 10 11  1  0
 10 12  1  0
 12 13  2  0
 13 14  1  0
  2 15  1  0
 15 16  1  0
 16 17  2  0
 17 18  1  0
 18 19  2  0
 19 20  1  0
 20 21  2  0
 21 22  1  0
 22 23  1  0
 23 24  1  0
 23 25  1  0
 23 26  1  0
 22 27  2  0
 13  7  1  0
 27 18  1  0
  3 28  1  0
  3 29  1  0
  4 30  1  0
  4 31  1  0
  5 32  1  0
  5 33  1  0
  8 34  1  0
  9 35  1  0
 12 36  1  0
 17 37  1  0
 19 38  1  0
 20 39  1  0
 21 40  1  0
 27 41  1  0
M  CHG  1  15  -1
M  END
>  <meeko>  (8) 
{"free_energy": -6.66, "intermolecular_energy": -9.64, "internal_energy": -0.73, "cluster_size": 8, "cluster_id": 2, "rank_in_cluster": 3}

$$$$

     RDKit          3D

 41 42  0  0  0  0  0  0  0  0999 V2000
  140.6420   74.8630  221.9480 O   0  0  0  0  0  0  0  0  0  0  0  0
  140.0650   73.7450  222.0160 C   0  0  0  0  0  0  0  0  0  0  0  0
  138.7240   73.5570  221.3790 C   0  0  0  0  0  0  0  0  0  0  0  0
  138.7990   73.6110  219.8460 C   0  0  0  0  0  0  0  0  0  0  0  0
  139.9650   72.7900  219.2660 C   0  0  0  0  0  0  0  0  0  0  0  0
  141.0860   73.6030  218.9130 O   0  0  0  0  0  0  0  0  0  0  0  0
  142.3580   73.6430  219.5190 C   0  0  0  0  0  0  0  0  0  0  0  0
  142.8820   72.4100  219.9330 C   0  0  0  0  0  0  0  0  0  0  0  0
  144.1110   72.3320  220.5870 C   0  0  0  0  0  0  0  0  0  0  0  0
  144.8510   73.4900  220.8230 C   0  0  0  0  0  0  0  0  0  0  0  0
  146.3970   73.3940  221.6460 Cl  0  0  0  0  0  0  0  0  0  0  0  0
  144.3690   74.7240  220.3820 C   0  0  0  0  0  0  0  0  0  0  0  0
  143.1350   74.8180  219.7210 C   0  0  0  0  0  0  0  0  0  0  0  0
  142.7070   76.4070  219.1020 Cl  0  0  0  0  0  0  0  0  0  0  0  0
  140.6990   72.6480  222.6690 N   0  0  0  0  0  0  0  0  0  0  0  0
  140.2350   71.3360  222.5020 N   0  0  0  0  0  0  0  0  0  0  0  0
  139.3860   70.7800  223.3140 C   0  0  0  0  0  0  0  0  0  0  0  0
  139.7440   70.3040  224.6690 C   0  0  0  0  0  0  0  0  0  0  0  0
  139.6340   68.9500  225.0290 C   0  0  0  0  0  0  0  0  0  0  0  0
  139.9550   68.5380  226.3240 C   0  0  0  0  0  0  0  0  0  0  0  0
  140.3840   69.4680  227.2730 C   0  0  0  0  0  0  0  0  0  0  0  0
  140.5020   70.8270  226.9320 C   0  0  0  0  0  0  0  0  0  0  0  0
  140.9080   71.8460  227.9670 C   0  0  0  0  0  0  0  0  0  0  0  0
  141.8600   71.3130  228.8220 F   0  0  0  0  0  0  0  0  0  0  0  0
  141.4420   72.9520  227.3320 F   0  0  0  0  0  0  0  0  0  0  0  0
  139.8190   72.2420  228.7250 F   0  0  0  0  0  0  0  0  0  0  0  0
  140.1490   71.2390  225.6340 C   0  0  0  0  0  0  0  0  0  0  0  0
  138.3226   72.5781  221.6801 H   0  0  0  0  0  0  0  0  0  0  0  0
  138.0719   74.3767  221.7149 H   0  0  0  0  0  0  0  0  0  0  0  0
  137.8569   73.2181  219.4359 H   0  0  0  0  0  0  0  0  0  0  0  0
  138.9667   74.6609  219.5639 H   0  0  0  0  0  0  0  0  0  0  0  0
  140.2861   72.0540  220.0178 H   0  0  0  0  0  0  0  0  0  0  0  0
  139.6051   72.3014  218.3486 H   0  0  0  0  0  0  0  0  0  0  0  0
  142.3138   71.4885  219.7385 H   0  0  0  0  0  0  0  0  0  0  0  0
  144.4970   71.3563  220.9170 H   0  0  0  0  0  0  0  0  0  0  0  0
  144.9637   75.6331  220.5548 H   0  0  0  0  0  0  0  0  0  0  0  0
  138.3464   70.6567  222.9763 H   0  0  0  0  0  0  0  0  0  0  0  0
  139.2937   68.2119  224.2878 H   0  0  0  0  0  0  0  0  0  0  0  0
  139.8695   67.4760  226.5977 H   0  0  0  0  0  0  0  0  0  0  0  0
  140.6308   69.1359  228.2922 H   0  0  0  0  0  0  0  0  0  0  0  0
  140.1909   72.3066  225.3724 H   0  0  0  0  0  0  0  0  0  0  0  0
  1  2  2  0
  2  3  1  0
  3  4  1  0
  4  5  1  0
  5  6  1  0
  6  7  1  0
  7  8  2  0
  8  9  1  0
  9 10  2  0
 10 11  1  0
 10 12  1  0
 12 13  2  0
 13 14  1  0
  2 15  1  0
 15 16  1  0
 16 17  2  0
 17 18  1  0
 18 19  2  0
 19 20  1  0
 20 21  2  0
 21 22  1  0
 22 23  1  0
 23 24  1  0
 23 25  1  0
 23 26  1  0
 22 27  2  0
 13  7  1  0
 27 18  1  0
  3 28  1  0
  3 29  1  0
  4 30  1  0
  4 31  1  0
  5 32  1  0
  5 33  1  0
  8 34  1  0
  9 35  1  0
 12 36  1  0
 17 37  1  0
 19 38  1  0
 20 39  1  0
 21 40  1  0
 27 41  1  0
M  CHG  1  15  -1
M  END
>  <meeko>  (9) 
{"free_energy": -6.13, "intermolecular_energy": -9.12, "internal_energy": -1.37, "cluster_size": 4, "cluster_id": 3, "rank_in_cluster": 3}

$$$$

     RDKit          3D

 41 42  0  0  0  0  0  0  0  0999 V2000
  142.6980   74.0080  220.8710 O   0  0  0  0  0  0  0  0  0  0  0  0
  141.4810   74.0390  221.1940 C   0  0  0  0  0  0  0  0  0  0  0  0
  140.7310   75.3340  221.1580 C   0  0  0  0  0  0  0  0  0  0  0  0
  139.2150   75.1200  221.0290 C   0  0  0  0  0  0  0  0  0  0  0  0
  138.3900   76.3510  221.4490 C   0  0  0  0  0  0  0  0  0  0  0  0
  138.9820   77.5800  221.0210 O   0  0  0  0  0  0  0  0  0  0  0  0
  139.9860   78.3320  221.6620 C   0  0  0  0  0  0  0  0  0  0  0  0
  139.7220   78.7090  222.9860 C   0  0  0  0  0  0  0  0  0  0  0  0
  140.6230   79.4960  223.7050 C   0  0  0  0  0  0  0  0  0  0  0  0
  141.8180   79.9050  223.1140 C   0  0  0  0  0  0  0  0  0  0  0  0
  142.9510   80.8940  224.0160 Cl  0  0  0  0  0  0  0  0  0  0  0  0
  142.1210   79.5060  221.8110 C   0  0  0  0  0  0  0  0  0  0  0  0
  141.2260   78.7130  221.0770 C   0  0  0  0  0  0  0  0  0  0  0  0
  141.7850   78.1710  219.5010 Cl  0  0  0  0  0  0  0  0  0  0  0  0
  140.8050   72.8390  221.5630 N   0  0  0  0  0  0  0  0  0  0  0  0
  140.1760   72.7120  222.8090 N   0  0  0  0  0  0  0  0  0  0  0  0
  139.5250   71.6440  223.1640 C   0  0  0  0  0  0  0  0  0  0  0  0
  139.8360   70.8670  224.3850 C   0  0  0  0  0  0  0  0  0  0  0  0
  139.6380   69.4770  224.4460 C   0  0  0  0  0  0  0  0  0  0  0  0
  139.9170   68.7780  225.6220 C   0  0  0  0  0  0  0  0  0  0  0  0
  140.3900   69.4550  226.7490 C   0  0  0  0  0  0  0  0  0  0  0  0
  140.5960   70.8450  226.7070 C   0  0  0  0  0  0  0  0  0  0  0  0
  141.0510   71.5910  227.9360 C   0  0  0  0  0  0  0  0  0  0  0  0
  139.9600   72.0620  228.6470 F   0  0  0  0  0  0  0  0  0  0  0  0
  141.7800   70.7370  228.7430 F   0  0  0  0  0  0  0  0  0  0  0  0
  141.8440   72.6730  227.5920 F   0  0  0  0  0  0  0  0  0  0  0  0
  140.2860   71.5470  225.5280 C   0  0  0  0  0  0  0  0  0  0  0  0
  140.9334   75.8872  222.0870 H   0  0  0  0  0  0  0  0  0  0  0  0
  141.0700   75.8976  220.2763 H   0  0  0  0  0  0  0  0  0  0  0  0
  138.9832   74.8854  219.9796 H   0  0  0  0  0  0  0  0  0  0  0  0
  138.9424   74.2974  221.7066 H   0  0  0  0  0  0  0  0  0  0  0  0
  137.3861   76.2703  221.0066 H   0  0  0  0  0  0  0  0  0  0  0  0
  138.3482   76.3656  222.5481 H   0  0  0  0  0  0  0  0  0  0  0  0
  138.7891   78.3791  223.4664 H   0  0  0  0  0  0  0  0  0  0  0  0
  140.3904   79.7937  224.7381 H   0  0  0  0  0  0  0  0  0  0  0  0
  143.0723   79.8169  221.3545 H   0  0  0  0  0  0  0  0  0  0  0  0
  138.6997   71.2997  222.5234 H   0  0  0  0  0  0  0  0  0  0  0  0
  139.2619   68.9378  223.5641 H   0  0  0  0  0  0  0  0  0  0  0  0
  139.7638   67.6894  225.6614 H   0  0  0  0  0  0  0  0  0  0  0  0
  140.6022   68.8978  227.6734 H   0  0  0  0  0  0  0  0  0  0  0  0
  140.3974   72.6410  225.5013 H   0  0  0  0  0  0  0  0  0  0  0  0
  1  2  2  0
  2  3  1  0
  3  4  1  0
  4  5  1  0
  5  6  1  0
  6  7  1  0
  7  8  2  0
  8  9  1  0
  9 10  2  0
 10 11  1  0
 10 12  1  0
 12 13  2  0
 13 14  1  0
  2 15  1  0
 15 16  1  0
 16 17  2  0
 17 18  1  0
 18 19  2  0
 19 20  1  0
 20 21  2  0
 21 22  1  0
 22 23  1  0
 23 24  1  0
 23 25  1  0
 23 26  1  0
 22 27  2  0
 13  7  1  0
 27 18  1  0
  3 28  1  0
  3 29  1  0
  4 30  1  0
  4 31  1  0
  5 32  1  0
  5 33  1  0
  8 34  1  0
  9 35  1  0
 12 36  1  0
 17 37  1  0
 19 38  1  0
 20 39  1  0
 21 40  1  0
 27 41  1  0
M  CHG  1  15  -1
M  END
>  <meeko>  (10) 
{"free_energy": -6.12, "intermolecular_energy": -9.1, "internal_energy": -0.88, "cluster_size": 8, "cluster_id": 2, "rank_in_cluster": 7}

$$$$

     RDKit          3D

 41 42  0  0  0  0  0  0  0  0999 V2000
  140.2460   73.3320  219.6720 O   0  0  0  0  0  0  0  0  0  0  0  0
  140.9220   73.7300  220.6590 C   0  0  0  0  0  0  0  0  0  0  0  0
  142.2980   74.2790  220.4500 C   0  0  0  0  0  0  0  0  0  0  0  0
  142.2720   75.7490  220.0040 C   0  0  0  0  0  0  0  0  0  0  0  0
  140.9010   76.1950  219.4620 C   0  0  0  0  0  0  0  0  0  0  0  0
  140.3400   77.2750  220.2110 O   0  0  0  0  0  0  0  0  0  0  0  0
  141.0000   78.1670  221.0810 C   0  0  0  0  0  0  0  0  0  0  0  0
  141.0260   77.8000  222.4340 C   0  0  0  0  0  0  0  0  0  0  0  0
  141.6080   78.6280  223.3940 C   0  0  0  0  0  0  0  0  0  0  0  0
  142.1940   79.8340  223.0120 C   0  0  0  0  0  0  0  0  0  0  0  0
  142.9280   80.8760  224.2180 Cl  0  0  0  0  0  0  0  0  0  0  0  0
  142.2170   80.2000  221.6650 C   0  0  0  0  0  0  0  0  0  0  0  0
  141.6380   79.3760  220.6880 C   0  0  0  0  0  0  0  0  0  0  0  0
  141.8510   79.8860  219.0190 Cl  0  0  0  0  0  0  0  0  0  0  0  0
  140.3670   73.6890  221.9710 N   0  0  0  0  0  0  0  0  0  0  0  0
  140.6880   72.6570  222.8650 N   0  0  0  0  0  0  0  0  0  0  0  0
  139.8930   71.6550  223.0990 C   0  0  0  0  0  0  0  0  0  0  0  0
  139.9050   70.8820  224.3610 C   0  0  0  0  0  0  0  0  0  0  0  0
  139.3610   69.5880  224.4390 C   0  0  0  0  0  0  0  0  0  0  0  0
  139.3650   68.8960  225.6520 C   0  0  0  0  0  0  0  0  0  0  0  0
  139.9050   69.4850  226.7970 C   0  0  0  0  0  0  0  0  0  0  0  0
  140.4550   70.7770  226.7390 C   0  0  0  0  0  0  0  0  0  0  0  0
  140.9870   71.4420  227.9830 C   0  0  0  0  0  0  0  0  0  0  0  0
  141.7870   72.5230  227.6500 F   0  0  0  0  0  0  0  0  0  0  0  0
  139.9260   71.8870  228.7510 F   0  0  0  0  0  0  0  0  0  0  0  0
  141.7460   70.5580  228.7310 F   0  0  0  0  0  0  0  0  0  0  0  0
  140.4220   71.4800  225.5200 C   0  0  0  0  0  0  0  0  0  0  0  0
  142.8568   74.2047  221.3946 H   0  0  0  0  0  0  0  0  0  0  0  0
  142.7797   73.6920  219.6542 H   0  0  0  0  0  0  0  0  0  0  0  0
  142.5289   76.3807  220.8671 H   0  0  0  0  0  0  0  0  0  0  0  0
  142.9975   75.8544  219.1839 H   0  0  0  0  0  0  0  0  0  0  0  0
  141.0226   76.5164  218.4171 H   0  0  0  0  0  0  0  0  0  0  0  0
  140.2148   75.3393  219.5454 H   0  0  0  0  0  0  0  0  0  0  0  0
  140.5801   76.8433  222.7436 H   0  0  0  0  0  0  0  0  0  0  0  0
  141.6046   78.3293  224.4527 H   0  0  0  0  0  0  0  0  0  0  0  0
  142.6944   81.1449  221.3662 H   0  0  0  0  0  0  0  0  0  0  0  0
  139.1739   71.3668  222.3181 H   0  0  0  0  0  0  0  0  0  0  0  0
  138.9308   69.1191  223.5417 H   0  0  0  0  0  0  0  0  0  0  0  0
  138.9409   67.8825  225.7056 H   0  0  0  0  0  0  0  0  0  0  0  0
  139.8999   68.9348  227.7495 H   0  0  0  0  0  0  0  0  0  0  0  0
  140.8059   72.5099  225.4756 H   0  0  0  0  0  0  0  0  0  0  0  0
  1  2  2  0
  2  3  1  0
  3  4  1  0
  4  5  1  0
  5  6  1  0
  6  7  1  0
  7  8  2  0
  8  9  1  0
  9 10  2  0
 10 11  1  0
 10 12  1  0
 12 13  2  0
 13 14  1  0
  2 15  1  0
 15 16  1  0
 16 17  2  0
 17 18  1  0
 18 19  2  0
 19 20  1  0
 20 21  2  0
 21 22  1  0
 22 23  1  0
 23 24  1  0
 23 25  1  0
 23 26  1  0
 22 27  2  0
 13  7  1  0
 27 18  1  0
  3 28  1  0
  3 29  1  0
  4 30  1  0
  4 31  1  0
  5 32  1  0
  5 33  1  0
  8 34  1  0
  9 35  1  0
 12 36  1  0
 17 37  1  0
 19 38  1  0
 20 39  1  0
 21 40  1  0
 27 41  1  0
M  CHG  1  15  -1
M  END
>  <meeko>  (11) 
{"free_energy": -6.68, "intermolecular_energy": -9.66, "internal_energy": -0.85, "cluster_size": 8, "cluster_id": 2, "rank_in_cluster": 2}

$$$$

     RDKit          3D

 41 42  0  0  0  0  0  0  0  0999 V2000
  143.5100   74.0500  220.6710 O   0  0  0  0  0  0  0  0  0  0  0  0
  142.2510   74.0190  220.6310 C   0  0  0  0  0  0  0  0  0  0  0  0
  141.5420   72.7250  220.3800 C   0  0  0  0  0  0  0  0  0  0  0  0
  141.4330   71.8700  221.6520 C   0  0  0  0  0  0  0  0  0  0  0  0
  140.0280   71.8940  222.2820 C   0  0  0  0  0  0  0  0  0  0  0  0
  140.0600   72.1770  223.6820 O   0  0  0  0  0  0  0  0  0  0  0  0
  140.1240   71.2640  224.7530 C   0  0  0  0  0  0  0  0  0  0  0  0
  140.8950   71.6610  225.8550 C   0  0  0  0  0  0  0  0  0  0  0  0
  141.0700   70.8190  226.9540 C   0  0  0  0  0  0  0  0  0  0  0  0
  140.4580   69.5670  226.9770 C   0  0  0  0  0  0  0  0  0  0  0  0
  140.6770   68.5070  228.3580 Cl  0  0  0  0  0  0  0  0  0  0  0  0
  139.6510   69.1670  225.9100 C   0  0  0  0  0  0  0  0  0  0  0  0
  139.4640   70.0040  224.8000 C   0  0  0  0  0  0  0  0  0  0  0  0
  138.3210   69.4400  223.5880 Cl  0  0  0  0  0  0  0  0  0  0  0  0
  141.4960   75.2070  220.8580 N   0  0  0  0  0  0  0  0  0  0  0  0
  140.7190   75.3660  222.0150 N   0  0  0  0  0  0  0  0  0  0  0  0
  139.6970   76.1660  222.0720 C   0  0  0  0  0  0  0  0  0  0  0  0
  139.7760   77.5560  222.5770 C   0  0  0  0  0  0  0  0  0  0  0  0
  138.6330   78.2510  223.0080 C   0  0  0  0  0  0  0  0  0  0  0  0
  138.7390   79.5700  223.4540 C   0  0  0  0  0  0  0  0  0  0  0  0
  139.9800   80.2100  223.4710 C   0  0  0  0  0  0  0  0  0  0  0  0
  141.1350   79.5310  223.0460 C   0  0  0  0  0  0  0  0  0  0  0  0
  142.4690   80.2340  223.0070 C   0  0  0  0  0  0  0  0  0  0  0  0
  142.4710   81.2110  222.0250 F   0  0  0  0  0  0  0  0  0  0  0  0
  142.7070   80.8270  224.2330 F   0  0  0  0  0  0  0  0  0  0  0  0
  143.4910   79.3410  222.7310 F   0  0  0  0  0  0  0  0  0  0  0  0
  141.0160   78.2120  222.5710 C   0  0  0  0  0  0  0  0  0  0  0  0
  140.5289   72.9415  220.0101 H   0  0  0  0  0  0  0  0  0  0  0  0
  142.1244   72.1576  219.6391 H   0  0  0  0  0  0  0  0  0  0  0  0
  141.6835   70.8299  221.3963 H   0  0  0  0  0  0  0  0  0  0  0  0
  142.1292   72.2938  222.3907 H   0  0  0  0  0  0  0  0  0  0  0  0
  139.4294   72.6680  221.7794 H   0  0  0  0  0  0  0  0  0  0  0  0
  139.5874   70.8943  222.1535 H   0  0  0  0  0  0  0  0  0  0  0  0
  141.3700   72.6532  225.8531 H   0  0  0  0  0  0  0  0  0  0  0  0
  141.6909   71.1434  227.8021 H   0  0  0  0  0  0  0  0  0  0  0  0
  139.1565   68.1849  225.9402 H   0  0  0  0  0  0  0  0  0  0  0  0
  138.7220   75.7914  221.7271 H   0  0  0  0  0  0  0  0  0  0  0  0
  137.6516   77.7543  222.9939 H   0  0  0  0  0  0  0  0  0  0  0  0
  137.8411   80.1072  223.7934 H   0  0  0  0  0  0  0  0  0  0  0  0
  140.0541   81.2509  223.8188 H   0  0  0  0  0  0  0  0  0  0  0  0
  141.9058   77.6890  222.1904 H   0  0  0  0  0  0  0  0  0  0  0  0
  1  2  2  0
  2  3  1  0
  3  4  1  0
  4  5  1  0
  5  6  1  0
  6  7  1  0
  7  8  2  0
  8  9  1  0
  9 10  2  0
 10 11  1  0
 10 12  1  0
 12 13  2  0
 13 14  1  0
  2 15  1  0
 15 16  1  0
 16 17  2  0
 17 18  1  0
 18 19  2  0
 19 20  1  0
 20 21  2  0
 21 22  1  0
 22 23  1  0
 23 24  1  0
 23 25  1  0
 23 26  1  0
 22 27  2  0
 13  7  1  0
 27 18  1  0
  3 28  1  0
  3 29  1  0
  4 30  1  0
  4 31  1  0
  5 32  1  0
  5 33  1  0
  8 34  1  0
  9 35  1  0
 12 36  1  0
 17 37  1  0
 19 38  1  0
 20 39  1  0
 21 40  1  0
 27 41  1  0
M  CHG  1  15  -1
M  END
>  <meeko>  (12) 
{"free_energy": -6.06, "intermolecular_energy": -9.04, "internal_energy": -0.74, "cluster_size": 2, "cluster_id": 6, "rank_in_cluster": 1}

$$$$

     RDKit          3D

 41 42  0  0  0  0  0  0  0  0999 V2000
  140.3150   71.9410  223.1940 O   0  0  0  0  0  0  0  0  0  0  0  0
  140.0670   72.7020  222.2210 C   0  0  0  0  0  0  0  0  0  0  0  0
  138.9950   72.3390  221.2420 C   0  0  0  0  0  0  0  0  0  0  0  0
  139.5230   72.2850  219.8010 C   0  0  0  0  0  0  0  0  0  0  0  0
  139.9440   73.6620  219.2550 C   0  0  0  0  0  0  0  0  0  0  0  0
  141.2610   73.6520  218.7000 O   0  0  0  0  0  0  0  0  0  0  0  0
  142.4940   73.6800  219.3810 C   0  0  0  0  0  0  0  0  0  0  0  0
  142.9890   72.4400  219.8090 C   0  0  0  0  0  0  0  0  0  0  0  0
  144.1770   72.3490  220.5350 C   0  0  0  0  0  0  0  0  0  0  0  0
  144.9030   73.5020  220.8310 C   0  0  0  0  0  0  0  0  0  0  0  0
  146.3970   73.3900  221.7440 Cl  0  0  0  0  0  0  0  0  0  0  0  0
  144.4510   74.7430  220.3790 C   0  0  0  0  0  0  0  0  0  0  0  0
  143.2600   74.8500  219.6450 C   0  0  0  0  0  0  0  0  0  0  0  0
  142.8730   76.4480  219.0240 Cl  0  0  0  0  0  0  0  0  0  0  0  0
  140.7800   73.9270  222.0680 N   0  0  0  0  0  0  0  0  0  0  0  0
  140.1100   75.1570  222.0120 N   0  0  0  0  0  0  0  0  0  0  0  0
  140.7000   76.2650  221.6740 C   0  0  0  0  0  0  0  0  0  0  0  0
  140.4230   77.5670  222.3220 C   0  0  0  0  0  0  0  0  0  0  0  0
  139.1330   77.9150  222.7590 C   0  0  0  0  0  0  0  0  0  0  0  0
  138.9000   79.1630  223.3420 C   0  0  0  0  0  0  0  0  0  0  0  0
  139.9460   80.0760  223.4910 C   0  0  0  0  0  0  0  0  0  0  0  0
  141.2430   79.7470  223.0610 C   0  0  0  0  0  0  0  0  0  0  0  0
  142.3650   80.7500  223.1650 C   0  0  0  0  0  0  0  0  0  0  0  0
  143.5910   80.1200  223.0280 F   0  0  0  0  0  0  0  0  0  0  0  0
  142.2270   81.6920  222.1620 F   0  0  0  0  0  0  0  0  0  0  0  0
  142.3430   81.3900  224.3920 F   0  0  0  0  0  0  0  0  0  0  0  0
  141.4640   78.5000  222.4480 C   0  0  0  0  0  0  0  0  0  0  0  0
  138.5906   71.3514  221.5088 H   0  0  0  0  0  0  0  0  0  0  0  0
  138.2167   73.1149  221.2888 H   0  0  0  0  0  0  0  0  0  0  0  0
  140.3963   71.6167  219.7739 H   0  0  0  0  0  0  0  0  0  0  0  0
  138.7020   71.9198  219.1665 H   0  0  0  0  0  0  0  0  0  0  0  0
  139.2333   73.9629  218.4712 H   0  0  0  0  0  0  0  0  0  0  0  0
  139.9417   74.3700  220.0969 H   0  0  0  0  0  0  0  0  0  0  0  0
  142.4311   71.5231  219.5683 H   0  0  0  0  0  0  0  0  0  0  0  0
  144.5408   71.3678  220.8738 H   0  0  0  0  0  0  0  0  0  0  0  0
  145.0356   75.6480  220.6009 H   0  0  0  0  0  0  0  0  0  0  0  0
  141.4439   76.2335  220.8643 H   0  0  0  0  0  0  0  0  0  0  0  0
  138.3038   77.2018  222.6414 H   0  0  0  0  0  0  0  0  0  0  0  0
  137.8888   79.4274  223.6849 H   0  0  0  0  0  0  0  0  0  0  0  0
  139.7538   81.0582  223.9475 H   0  0  0  0  0  0  0  0  0  0  0  0
  142.4645   78.2534  222.0629 H   0  0  0  0  0  0  0  0  0  0  0  0
  1  2  2  0
  2  3  1  0
  3  4  1  0
  4  5  1  0
  5  6  1  0
  6  7  1  0
  7  8  2  0
  8  9  1  0
  9 10  2  0
 10 11  1  0
 10 12  1  0
 12 13  2  0
 13 14  1  0
  2 15  1  0
 15 16  1  0
 16 17  2  0
 17 18  1  0
 18 19  2  0
 19 20  1  0
 20 21  2  0
 21 22  1  0
 22 23  1  0
 23 24  1  0
 23 25  1  0
 23 26  1  0
 22 27  2  0
 13  7  1  0
 27 18  1  0
  3 28  1  0
  3 29  1  0
  4 30  1  0
  4 31  1  0
  5 32  1  0
  5 33  1  0
  8 34  1  0
  9 35  1  0
 12 36  1  0
 17 37  1  0
 19 38  1  0
 20 39  1  0
 21 40  1  0
 27 41  1  0
M  CHG  1  15  -1
M  END
>  <meeko>  (13) 
{"free_energy": -5.66, "intermolecular_energy": -8.64, "internal_energy": -1.58, "cluster_size": 3, "cluster_id": 7, "rank_in_cluster": 2}

$$$$

     RDKit          3D

 41 42  0  0  0  0  0  0  0  0999 V2000
  139.2620   75.0180  222.3460 O   0  0  0  0  0  0  0  0  0  0  0  0
  140.0730   74.1640  221.8980 C   0  0  0  0  0  0  0  0  0  0  0  0
  140.6960   74.3580  220.5510 C   0  0  0  0  0  0  0  0  0  0  0  0
  141.8580   75.3610  220.5910 C   0  0  0  0  0  0  0  0  0  0  0  0
  141.4190   76.8110  220.3160 C   0  0  0  0  0  0  0  0  0  0  0  0
  141.7810   77.7030  221.3730 O   0  0  0  0  0  0  0  0  0  0  0  0
  140.9320   78.4770  222.1880 C   0  0  0  0  0  0  0  0  0  0  0  0
  139.5940   78.0610  222.2530 C   0  0  0  0  0  0  0  0  0  0  0  0
  138.6510   78.7770  222.9910 C   0  0  0  0  0  0  0  0  0  0  0  0
  139.0360   79.9170  223.6950 C   0  0  0  0  0  0  0  0  0  0  0  0
  137.8520   80.8190  224.6240 Cl  0  0  0  0  0  0  0  0  0  0  0  0
  140.3710   80.3260  223.6800 C   0  0  0  0  0  0  0  0  0  0  0  0
  141.3310   79.6140  222.9440 C   0  0  0  0  0  0  0  0  0  0  0  0
  142.9950   80.1550  223.1150 Cl  0  0  0  0  0  0  0  0  0  0  0  0
  140.4260   73.0290  222.6850 N   0  0  0  0  0  0  0  0  0  0  0  0
  139.5220   71.9770  222.8910 N   0  0  0  0  0  0  0  0  0  0  0  0
  139.9010   70.7760  223.2130 C   0  0  0  0  0  0  0  0  0  0  0  0
  139.9980   70.2990  224.6110 C   0  0  0  0  0  0  0  0  0  0  0  0
  139.6550   68.9830  224.9670 C   0  0  0  0  0  0  0  0  0  0  0  0
  139.7320   68.5730  226.3000 C   0  0  0  0  0  0  0  0  0  0  0  0
  140.1460   69.4670  227.2900 C   0  0  0  0  0  0  0  0  0  0  0  0
  140.4950   70.7870  226.9520 C   0  0  0  0  0  0  0  0  0  0  0  0
  140.8870   71.7750  228.0230 C   0  0  0  0  0  0  0  0  0  0  0  0
  141.8070   71.2080  228.8890 F   0  0  0  0  0  0  0  0  0  0  0  0
  141.4530   72.8880  227.4290 F   0  0  0  0  0  0  0  0  0  0  0  0
  139.7830   72.1680  228.7610 F   0  0  0  0  0  0  0  0  0  0  0  0
  140.3870   71.2010  225.6130 C   0  0  0  0  0  0  0  0  0  0  0  0
  141.0755   73.3896  220.1929 H   0  0  0  0  0  0  0  0  0  0  0  0
  139.9255   74.7590  219.8760 H   0  0  0  0  0  0  0  0  0  0  0  0
  142.3213   75.3193  221.5878 H   0  0  0  0  0  0  0  0  0  0  0  0
  142.5621   75.0767  219.7951 H   0  0  0  0  0  0  0  0  0  0  0  0
  141.8966   77.1537  219.3862 H   0  0  0  0  0  0  0  0  0  0  0  0
  140.3221   76.8180  220.2340 H   0  0  0  0  0  0  0  0  0  0  0  0
  139.2829   77.1547  221.7128 H   0  0  0  0  0  0  0  0  0  0  0  0
  137.6036   78.4420  223.0174 H   0  0  0  0  0  0  0  0  0  0  0  0
  140.6737   81.2160  224.2512 H   0  0  0  0  0  0  0  0  0  0  0  0
  140.1633   70.0778  222.4045 H   0  0  0  0  0  0  0  0  0  0  0  0
  139.3250   68.2740  224.1934 H   0  0  0  0  0  0  0  0  0  0  0  0
  139.4653   67.5409  226.5714 H   0  0  0  0  0  0  0  0  0  0  0  0
  140.1993   69.1375  228.3381 H   0  0  0  0  0  0  0  0  0  0  0  0
  140.6102   72.2449  225.3474 H   0  0  0  0  0  0  0  0  0  0  0  0
  1  2  2  0
  2  3  1  0
  3  4  1  0
  4  5  1  0
  5  6  1  0
  6  7  1  0
  7  8  2  0
  8  9  1  0
  9 10  2  0
 10 11  1  0
 10 12  1  0
 12 13  2  0
 13 14  1  0
  2 15  1  0
 15 16  1  0
 16 17  2  0
 17 18  1  0
 18 19  2  0
 19 20  1  0
 20 21  2  0
 21 22  1  0
 22 23  1  0
 23 24  1  0
 23 25  1  0
 23 26  1  0
 22 27  2  0
 13  7  1  0
 27 18  1  0
  3 28  1  0
  3 29  1  0
  4 30  1  0
  4 31  1  0
  5 32  1  0
  5 33  1  0
  8 34  1  0
  9 35  1  0
 12 36  1  0
 17 37  1  0
 19 38  1  0
 20 39  1  0
 21 40  1  0
 27 41  1  0
M  CHG  1  15  -1
M  END
>  <meeko>  (14) 
{"free_energy": -6.74, "intermolecular_energy": -9.72, "internal_energy": -0.84, "cluster_size": 8, "cluster_id": 2, "rank_in_cluster": 1}

$$$$

     RDKit          3D

 41 42  0  0  0  0  0  0  0  0999 V2000
  139.9540   73.7130  222.6690 O   0  0  0  0  0  0  0  0  0  0  0  0
  139.2430   73.1240  221.8120 C   0  0  0  0  0  0  0  0  0  0  0  0
  138.6970   73.8830  220.6430 C   0  0  0  0  0  0  0  0  0  0  0  0
  139.1410   75.3530  220.6510 C   0  0  0  0  0  0  0  0  0  0  0  0
  138.0650   76.3090  221.1980 C   0  0  0  0  0  0  0  0  0  0  0  0
  138.4030   76.8380  222.4820 O   0  0  0  0  0  0  0  0  0  0  0  0
  139.3190   77.8640  222.7880 C   0  0  0  0  0  0  0  0  0  0  0  0
  140.6770   77.5220  222.7030 C   0  0  0  0  0  0  0  0  0  0  0  0
  141.6740   78.4420  223.0290 C   0  0  0  0  0  0  0  0  0  0  0  0
  141.3290   79.7320  223.4300 C   0  0  0  0  0  0  0  0  0  0  0  0
  142.5810   80.8900  223.8400 Cl  0  0  0  0  0  0  0  0  0  0  0  0
  139.9850   80.1070  223.4810 C   0  0  0  0  0  0  0  0  0  0  0  0
  138.9720   79.1940  223.1530 C   0  0  0  0  0  0  0  0  0  0  0  0
  137.3330   79.8300  223.1300 Cl  0  0  0  0  0  0  0  0  0  0  0  0
  138.9830   71.7270  221.9330 N   0  0  0  0  0  0  0  0  0  0  0  0
  138.7860   71.1290  223.1860 N   0  0  0  0  0  0  0  0  0  0  0  0
  139.4460   70.0800  223.5770 C   0  0  0  0  0  0  0  0  0  0  0  0
  139.8020   69.8190  224.9900 C   0  0  0  0  0  0  0  0  0  0  0  0
  139.7450   68.5270  225.5390 C   0  0  0  0  0  0  0  0  0  0  0  0
  140.0620   68.3200  226.8840 C   0  0  0  0  0  0  0  0  0  0  0  0
  140.4330   69.3950  227.6940 C   0  0  0  0  0  0  0  0  0  0  0  0
  140.4960   70.6960  227.1620 C   0  0  0  0  0  0  0  0  0  0  0  0
  140.8390   71.8700  228.0440 C   0  0  0  0  0  0  0  0  0  0  0  0
  141.8210   71.5180  228.9570 F   0  0  0  0  0  0  0  0  0  0  0  0
  141.3050   72.9080  227.2590 F   0  0  0  0  0  0  0  0  0  0  0  0
  139.7280   72.3000  228.7490 F   0  0  0  0  0  0  0  0  0  0  0  0
  140.1480   70.9000  225.8150 C   0  0  0  0  0  0  0  0  0  0  0  0
  139.0524   73.4101  219.7156 H   0  0  0  0  0  0  0  0  0  0  0  0
  137.5991   73.8602  220.7070 H   0  0  0  0  0  0  0  0  0  0  0  0
  140.0402   75.4432  221.2782 H   0  0  0  0  0  0  0  0  0  0  0  0
  139.3344   75.6416  219.6073 H   0  0  0  0  0  0  0  0  0  0  0  0
  137.9446   77.1447  220.4930 H   0  0  0  0  0  0  0  0  0  0  0  0
  137.1333   75.7347  221.3084 H   0  0  0  0  0  0  0  0  0  0  0  0
  140.9605   76.5114  222.3738 H   0  0  0  0  0  0  0  0  0  0  0  0
  142.7327   78.1494  222.9696 H   0  0  0  0  0  0  0  0  0  0  0  0
  139.7174   81.1306  223.7820 H   0  0  0  0  0  0  0  0  0  0  0  0
  139.7566   69.3472  222.8177 H   0  0  0  0  0  0  0  0  0  0  0  0
  139.4499   67.6757  224.9080 H   0  0  0  0  0  0  0  0  0  0  0  0
  140.0191   67.3054  227.3067 H   0  0  0  0  0  0  0  0  0  0  0  0
  140.6771   69.2240  228.7529 H   0  0  0  0  0  0  0  0  0  0  0  0
  140.1470   71.9199  225.4028 H   0  0  0  0  0  0  0  0  0  0  0  0
  1  2  2  0
  2  3  1  0
  3  4  1  0
  4  5  1  0
  5  6  1  0
  6  7  1  0
  7  8  2  0
  8  9  1  0
  9 10  2  0
 10 11  1  0
 10 12  1  0
 12 13  2  0
 13 14  1  0
  2 15  1  0
 15 16  1  0
 16 17  2  0
 17 18  1  0
 18 19  2  0
 19 20  1  0
 20 21  2  0
 21 22  1  0
 22 23  1  0
 23 24  1  0
 23 25  1  0
 23 26  1  0
 22 27  2  0
 13  7  1  0
 27 18  1  0
  3 28  1  0
  3 29  1  0
  4 30  1  0
  4 31  1  0
  5 32  1  0
  5 33  1  0
  8 34  1  0
  9 35  1  0
 12 36  1  0
 17 37  1  0
 19 38  1  0
 20 39  1  0
 21 40  1  0
 27 41  1  0
M  CHG  1  15  -1
M  END
>  <meeko>  (15) 
{"free_energy": -6.51, "intermolecular_energy": -9.49, "internal_energy": -0.7, "cluster_size": 8, "cluster_id": 2, "rank_in_cluster": 4}

$$$$

     RDKit          3D

 41 42  0  0  0  0  0  0  0  0999 V2000
  140.9800   75.5500  222.1740 O   0  0  0  0  0  0  0  0  0  0  0  0
  139.8600   75.0150  221.9560 C   0  0  0  0  0  0  0  0  0  0  0  0
  138.7820   75.7930  221.2670 C   0  0  0  0  0  0  0  0  0  0  0  0
  138.7400   75.5110  219.7580 C   0  0  0  0  0  0  0  0  0  0  0  0
  139.9740   76.0420  219.0060 C   0  0  0  0  0  0  0  0  0  0  0  0
  140.8630   74.9980  218.6040 O   0  0  0  0  0  0  0  0  0  0  0  0
  142.0280   74.5480  219.2560 C   0  0  0  0  0  0  0  0  0  0  0  0
  143.0080   75.5190  219.5070 C   0  0  0  0  0  0  0  0  0  0  0  0
  144.2230   75.1800  220.1040 C   0  0  0  0  0  0  0  0  0  0  0  0
  144.4720   73.8610  220.4790 C   0  0  0  0  0  0  0  0  0  0  0  0
  145.9990   73.4330  221.2300 Cl  0  0  0  0  0  0  0  0  0  0  0  0
  143.4940   72.8850  220.2770 C   0  0  0  0  0  0  0  0  0  0  0  0
  142.2670   73.2110  219.6810 C   0  0  0  0  0  0  0  0  0  0  0  0
  141.0750   71.9210  219.6060 Cl  0  0  0  0  0  0  0  0  0  0  0  0
  139.6250   73.6610  222.3330 N   0  0  0  0  0  0  0  0  0  0  0  0
  140.6750   72.8290  222.7480 N   0  0  0  0  0  0  0  0  0  0  0  0
  140.5260   71.5530  222.9440 C   0  0  0  0  0  0  0  0  0  0  0  0
  140.2280   70.9600  224.2670 C   0  0  0  0  0  0  0  0  0  0  0  0
  139.4130   69.8220  224.4000 C   0  0  0  0  0  0  0  0  0  0  0  0
  139.1300   69.3040  225.6660 C   0  0  0  0  0  0  0  0  0  0  0  0
  139.6490   69.9150  226.8100 C   0  0  0  0  0  0  0  0  0  0  0  0
  140.4670   71.0530  226.6970 C   0  0  0  0  0  0  0  0  0  0  0  0
  140.9830   71.7520  227.9300 C   0  0  0  0  0  0  0  0  0  0  0  0
  141.8190   72.8000  227.5770 F   0  0  0  0  0  0  0  0  0  0  0  0
  139.9150   72.2510  228.6520 F   0  0  0  0  0  0  0  0  0  0  0  0
  141.7000   70.8790  228.7300 F   0  0  0  0  0  0  0  0  0  0  0  0
  140.7240   71.5860  225.4210 C   0  0  0  0  0  0  0  0  0  0  0  0
  137.8113   75.5193  221.7061 H   0  0  0  0  0  0  0  0  0  0  0  0
  138.9954   76.8631  221.4056 H   0  0  0  0  0  0  0  0  0  0  0  0
  138.6805   74.4230  219.6074 H   0  0  0  0  0  0  0  0  0  0  0  0
  137.8610   76.0335  219.3527 H   0  0  0  0  0  0  0  0  0  0  0  0
  139.6351   76.5812  218.1091 H   0  0  0  0  0  0  0  0  0  0  0  0
  140.5241   76.7025  219.6924 H   0  0  0  0  0  0  0  0  0  0  0  0
  142.8158   76.5657  219.2286 H   0  0  0  0  0  0  0  0  0  0  0  0
  144.9846   75.9543  220.2787 H   0  0  0  0  0  0  0  0  0  0  0  0
  143.6882   71.8482  220.5890 H   0  0  0  0  0  0  0  0  0  0  0  0
  140.6266   70.8781  222.0812 H   0  0  0  0  0  0  0  0  0  0  0  0
  138.9969   69.3380  223.5041 H   0  0  0  0  0  0  0  0  0  0  0  0
  138.4954   68.4107  225.7626 H   0  0  0  0  0  0  0  0  0  0  0  0
  139.4167   69.5040  227.8036 H   0  0  0  0  0  0  0  0  0  0  0  0
  141.3212   72.5049  225.3264 H   0  0  0  0  0  0  0  0  0  0  0  0
  1  2  2  0
  2  3  1  0
  3  4  1  0
  4  5  1  0
  5  6  1  0
  6  7  1  0
  7  8  2  0
  8  9  1  0
  9 10  2  0
 10 11  1  0
 10 12  1  0
 12 13  2  0
 13 14  1  0
  2 15  1  0
 15 16  1  0
 16 17  2  0
 17 18  1  0
 18 19  2  0
 19 20  1  0
 20 21  2  0
 21 22  1  0
 22 23  1  0
 23 24  1  0
 23 25  1  0
 23 26  1  0
 22 27  2  0
 13  7  1  0
 27 18  1  0
  3 28  1  0
  3 29  1  0
  4 30  1  0
  4 31  1  0
  5 32  1  0
  5 33  1  0
  8 34  1  0
  9 35  1  0
 12 36  1  0
 17 37  1  0
 19 38  1  0
 20 39  1  0
 21 40  1  0
 27 41  1  0
M  CHG  1  15  -1
M  END
>  <meeko>  (16) 
{"free_energy": -5.86, "intermolecular_energy": -8.84, "internal_energy": -1.51, "cluster_size": 4, "cluster_id": 3, "rank_in_cluster": 4}

$$$$

     RDKit          3D

 41 42  0  0  0  0  0  0  0  0999 V2000
  141.6390   74.9850  221.1380 O   0  0  0  0  0  0  0  0  0  0  0  0
  140.5310   75.1990  221.6990 C   0  0  0  0  0  0  0  0  0  0  0  0
  139.9680   76.5860  221.7370 C   0  0  0  0  0  0  0  0  0  0  0  0
  141.0580   77.6470  221.9440 C   0  0  0  0  0  0  0  0  0  0  0  0
  141.4550   77.8300  223.4210 C   0  0  0  0  0  0  0  0  0  0  0  0
  141.4440   79.2000  223.8270 O   0  0  0  0  0  0  0  0  0  0  0  0
  141.0420   80.3260  223.0810 C   0  0  0  0  0  0  0  0  0  0  0  0
  142.0290   80.9190  222.2810 C   0  0  0  0  0  0  0  0  0  0  0  0
  141.7600   82.0670  221.5360 C   0  0  0  0  0  0  0  0  0  0  0  0
  140.4860   82.6340  221.5640 C   0  0  0  0  0  0  0  0  0  0  0  0
  140.1460   84.0780  220.6270 Cl  0  0  0  0  0  0  0  0  0  0  0  0
  139.4760   82.0370  222.3210 C   0  0  0  0  0  0  0  0  0  0  0  0
  139.7320   80.8800  223.0730 C   0  0  0  0  0  0  0  0  0  0  0  0
  138.3450   80.1550  223.8730 Cl  0  0  0  0  0  0  0  0  0  0  0  0
  139.7950   74.1200  222.2700 N   0  0  0  0  0  0  0  0  0  0  0  0
  140.4450   72.9970  222.8000 N   0  0  0  0  0  0  0  0  0  0  0  0
  139.8470   71.8570  222.9790 C   0  0  0  0  0  0  0  0  0  0  0  0
  139.9780   71.0510  224.2140 C   0  0  0  0  0  0  0  0  0  0  0  0
  139.5890   69.7010  224.2590 C   0  0  0  0  0  0  0  0  0  0  0  0
  139.7020   68.9760  225.4480 C   0  0  0  0  0  0  0  0  0  0  0  0
  140.1970   69.5880  226.6020 C   0  0  0  0  0  0  0  0  0  0  0  0
  140.5930   70.9380  226.5750 C   0  0  0  0  0  0  0  0  0  0  0  0
  141.0730   71.6210  227.8310 C   0  0  0  0  0  0  0  0  0  0  0  0
  140.0050   72.1650  228.5250 F   0  0  0  0  0  0  0  0  0  0  0  0
  141.7110   70.6960  228.6370 F   0  0  0  0  0  0  0  0  0  0  0  0
  141.9580   72.6430  227.5300 F   0  0  0  0  0  0  0  0  0  0  0  0
  140.4490   71.6690  225.3820 C   0  0  0  0  0  0  0  0  0  0  0  0
  139.4544   76.7864  220.7851 H   0  0  0  0  0  0  0  0  0  0  0  0
  139.2720   76.6456  222.5867 H   0  0  0  0  0  0  0  0  0  0  0  0
  141.9511   77.3458  221.3768 H   0  0  0  0  0  0  0  0  0  0  0  0
  140.6501   78.6068  221.5942 H   0  0  0  0  0  0  0  0  0  0  0  0
  140.7454   77.2708  224.0485 H   0  0  0  0  0  0  0  0  0  0  0  0
  142.4827   77.4557  223.5387 H   0  0  0  0  0  0  0  0  0  0  0  0
  143.0329   80.4711  222.2402 H   0  0  0  0  0  0  0  0  0  0  0  0
  142.5526   82.5253  220.9263 H   0  0  0  0  0  0  0  0  0  0  0  0
  138.4685   82.4784  222.3281 H   0  0  0  0  0  0  0  0  0  0  0  0
  139.2097   71.4705  222.1700 H   0  0  0  0  0  0  0  0  0  0  0  0
  139.1944   69.2138  223.3552 H   0  0  0  0  0  0  0  0  0  0  0  0
  139.3998   67.9187  225.4755 H   0  0  0  0  0  0  0  0  0  0  0  0
  140.2776   69.0122  227.5358 H   0  0  0  0  0  0  0  0  0  0  0  0
  140.7087   72.7378  225.3646 H   0  0  0  0  0  0  0  0  0  0  0  0
  1  2  2  0
  2  3  1  0
  3  4  1  0
  4  5  1  0
  5  6  1  0
  6  7  1  0
  7  8  2  0
  8  9  1  0
  9 10  2  0
 10 11  1  0
 10 12  1  0
 12 13  2  0
 13 14  1  0
  2 15  1  0
 15 16  1  0
 16 17  2  0
 17 18  1  0
 18 19  2  0
 19 20  1  0
 20 21  2  0
 21 22  1  0
 22 23  1  0
 23 24  1  0
 23 25  1  0
 23 26  1  0
 22 27  2  0
 13  7  1  0
 27 18  1  0
  3 28  1  0
  3 29  1  0
  4 30  1  0
  4 31  1  0
  5 32  1  0
  5 33  1  0
  8 34  1  0
  9 35  1  0
 12 36  1  0
 17 37  1  0
 19 38  1  0
 20 39  1  0
 21 40  1  0
 27 41  1  0
M  CHG  1  15  -1
M  END
>  <meeko>  (17) 
{"free_energy": -6.48, "intermolecular_energy": -9.46, "internal_energy": -0.75, "cluster_size": 8, "cluster_id": 2, "rank_in_cluster": 5}

$$$$

     RDKit          3D

 41 42  0  0  0  0  0  0  0  0999 V2000
  140.7220   72.2660  223.4680 O   0  0  0  0  0  0  0  0  0  0  0  0
  140.3180   72.7470  222.3750 C   0  0  0  0  0  0  0  0  0  0  0  0
  140.1800   71.8640  221.1750 C   0  0  0  0  0  0  0  0  0  0  0  0
  139.6430   72.6270  219.9550 C   0  0  0  0  0  0  0  0  0  0  0  0
  140.5880   72.5720  218.7400 C   0  0  0  0  0  0  0  0  0  0  0  0
  141.5660   73.6150  218.7580 O   0  0  0  0  0  0  0  0  0  0  0  0
  142.7870   73.6510  219.4600 C   0  0  0  0  0  0  0  0  0  0  0  0
  143.2660   72.4180  219.9260 C   0  0  0  0  0  0  0  0  0  0  0  0
  144.4410   72.3370  220.6750 C   0  0  0  0  0  0  0  0  0  0  0  0
  145.1690   73.4920  220.9560 C   0  0  0  0  0  0  0  0  0  0  0  0
  146.6460   73.3920  221.8970 Cl  0  0  0  0  0  0  0  0  0  0  0  0
  144.7340   74.7250  220.4670 C   0  0  0  0  0  0  0  0  0  0  0  0
  143.5560   74.8220  219.7100 C   0  0  0  0  0  0  0  0  0  0  0  0
  143.1910   76.4070  219.0440 Cl  0  0  0  0  0  0  0  0  0  0  0  0
  139.9580   74.1240  222.2860 N   0  0  0  0  0  0  0  0  0  0  0  0
  140.9040   75.1020  221.9460 N   0  0  0  0  0  0  0  0  0  0  0  0
  140.5790   76.2370  221.4030 C   0  0  0  0  0  0  0  0  0  0  0  0
  140.3410   77.4750  222.1800 C   0  0  0  0  0  0  0  0  0  0  0  0
  139.0650   77.8080  222.6660 C   0  0  0  0  0  0  0  0  0  0  0  0
  138.8700   78.9970  223.3730 C   0  0  0  0  0  0  0  0  0  0  0  0
  139.9400   79.8660  223.5990 C   0  0  0  0  0  0  0  0  0  0  0  0
  141.2240   79.5490  223.1210 C   0  0  0  0  0  0  0  0  0  0  0  0
  142.3710   80.5100  223.3100 C   0  0  0  0  0  0  0  0  0  0  0  0
  143.3480   80.2890  222.3530 F   0  0  0  0  0  0  0  0  0  0  0  0
  141.9050   81.8060  223.1870 F   0  0  0  0  0  0  0  0  0  0  0  0
  142.9470   80.3530  224.5590 F   0  0  0  0  0  0  0  0  0  0  0  0
  141.4070   78.3640  222.3850 C   0  0  0  0  0  0  0  0  0  0  0  0
  141.1669   71.4468  220.9262 H   0  0  0  0  0  0  0  0  0  0  0  0
  139.4609   71.0686  221.4206 H   0  0  0  0  0  0  0  0  0  0  0  0
  138.6765   72.1884  219.6661 H   0  0  0  0  0  0  0  0  0  0  0  0
  139.5471   73.6833  220.2466 H   0  0  0  0  0  0  0  0  0  0  0  0
  141.1069   71.6021  218.7406 H   0  0  0  0  0  0  0  0  0  0  0  0
  139.9764   72.7036  217.8352 H   0  0  0  0  0  0  0  0  0  0  0  0
  142.7062   71.4991  219.6973 H   0  0  0  0  0  0  0  0  0  0  0  0
  144.7924   71.3619  221.0435 H   0  0  0  0  0  0  0  0  0  0  0  0
  145.3212   75.6311  220.6773 H   0  0  0  0  0  0  0  0  0  0  0  0
  140.4752   76.2804  220.3088 H   0  0  0  0  0  0  0  0  0  0  0  0
  138.2170   77.1301  222.4891 H   0  0  0  0  0  0  0  0  0  0  0  0
  137.8694   79.2500  223.7534 H   0  0  0  0  0  0  0  0  0  0  0  0
  139.7776   80.8022  224.1532 H   0  0  0  0  0  0  0  0  0  0  0  0
  142.3970   78.1318  221.9655 H   0  0  0  0  0  0  0  0  0  0  0  0
  1  2  2  0
  2  3  1  0
  3  4  1  0
  4  5  1  0
  5  6  1  0
  6  7  1  0
  7  8  2  0
  8  9  1  0
  9 10  2  0
 10 11  1  0
 10 12  1  0
 12 13  2  0
 13 14  1  0
  2 15  1  0
 15 16  1  0
 16 17  2  0
 17 18  1  0
 18 19  2  0
 19 20  1  0
 20 21  2  0
 21 22  1  0
 22 23  1  0
 23 24  1  0
 23 25  1  0
 23 26  1  0
 22 27  2  0
 13  7  1  0
 27 18  1  0
  3 28  1  0
  3 29  1  0
  4 30  1  0
  4 31  1  0
  5 32  1  0
  5 33  1  0
  8 34  1  0
  9 35  1  0
 12 36  1  0
 17 37  1  0
 19 38  1  0
 20 39  1  0
 21 40  1  0
 27 41  1  0
M  CHG  1  15  -1
M  END
>  <meeko>  (18) 
{"free_energy": -5.74, "intermolecular_energy": -8.73, "internal_energy": -1.56, "cluster_size": 3, "cluster_id": 7, "rank_in_cluster": 1}

$$$$

     RDKit          3D

 41 42  0  0  0  0  0  0  0  0999 V2000
  141.3840   75.3500  221.9450 O   0  0  0  0  0  0  0  0  0  0  0  0
  140.1820   75.0300  221.7450 C   0  0  0  0  0  0  0  0  0  0  0  0
  139.2790   75.9520  220.9870 C   0  0  0  0  0  0  0  0  0  0  0  0
  138.9660   75.4260  219.5780 C   0  0  0  0  0  0  0  0  0  0  0  0
  140.1940   75.4080  218.6500 C   0  0  0  0  0  0  0  0  0  0  0  0
  140.9890   74.2320  218.8130 O   0  0  0  0  0  0  0  0  0  0  0  0
  142.2690   74.1180  219.3890 C   0  0  0  0  0  0  0  0  0  0  0  0
  142.6040   72.8570  219.9030 C   0  0  0  0  0  0  0  0  0  0  0  0
  143.8260   72.6390  220.5390 C   0  0  0  0  0  0  0  0  0  0  0  0
  144.7460   73.6790  220.6580 C   0  0  0  0  0  0  0  0  0  0  0  0
  146.2840   73.4070  221.4580 Cl  0  0  0  0  0  0  0  0  0  0  0  0
  144.4520   74.9330  220.1170 C   0  0  0  0  0  0  0  0  0  0  0  0
  143.2290   75.1660  219.4710 C   0  0  0  0  0  0  0  0  0  0  0  0
  143.0380   76.7440  218.7210 Cl  0  0  0  0  0  0  0  0  0  0  0  0
  139.6860   73.7760  222.2080 N   0  0  0  0  0  0  0  0  0  0  0  0
  140.5100   72.8810  222.9060 N   0  0  0  0  0  0  0  0  0  0  0  0
  140.2500   71.6110  222.9980 C   0  0  0  0  0  0  0  0  0  0  0  0
  140.1670   70.8860  224.2860 C   0  0  0  0  0  0  0  0  0  0  0  0
  139.5770   69.6140  224.3810 C   0  0  0  0  0  0  0  0  0  0  0  0
  139.4910   68.9700  225.6170 C   0  0  0  0  0  0  0  0  0  0  0  0
  139.9850   69.5860  226.7690 C   0  0  0  0  0  0  0  0  0  0  0  0
  140.5800   70.8580  226.6940 C   0  0  0  0  0  0  0  0  0  0  0  0
  141.0630   71.5540  227.9410 C   0  0  0  0  0  0  0  0  0  0  0  0
  141.8180   70.6880  228.7160 F   0  0  0  0  0  0  0  0  0  0  0  0
  141.8450   72.6370  227.5840 F   0  0  0  0  0  0  0  0  0  0  0  0
  139.9970   71.9990  228.7040 F   0  0  0  0  0  0  0  0  0  0  0  0
  140.6370   71.5130  225.4500 C   0  0  0  0  0  0  0  0  0  0  0  0
  138.3359   76.0606  221.5426 H   0  0  0  0  0  0  0  0  0  0  0  0
  139.7937   76.9184  220.8810 H   0  0  0  0  0  0  0  0  0  0  0  0
  138.5793   74.4000  219.6659 H   0  0  0  0  0  0  0  0  0  0  0  0
  138.2287   76.1089  219.1308 H   0  0  0  0  0  0  0  0  0  0  0  0
  139.8481   75.4576  217.6070 H   0  0  0  0  0  0  0  0  0  0  0  0
  140.8214   76.2730  218.9110 H   0  0  0  0  0  0  0  0  0  0  0  0
  141.8908   72.0255  219.8029 H   0  0  0  0  0  0  0  0  0  0  0  0
  144.0638   71.6455  220.9469 H   0  0  0  0  0  0  0  0  0  0  0  0
  145.1877   75.7466  220.1986 H   0  0  0  0  0  0  0  0  0  0  0  0
  140.0828   71.0449  222.0698 H   0  0  0  0  0  0  0  0  0  0  0  0
  139.1817   69.1242  223.4789 H   0  0  0  0  0  0  0  0  0  0  0  0
  139.0319   67.9726  225.6837 H   0  0  0  0  0  0  0  0  0  0  0  0
  139.9083   69.0738  227.7395 H   0  0  0  0  0  0  0  0  0  0  0  0
  141.0550   72.5287  225.3892 H   0  0  0  0  0  0  0  0  0  0  0  0
  1  2  2  0
  2  3  1  0
  3  4  1  0
  4  5  1  0
  5  6  1  0
  6  7  1  0
  7  8  2  0
  8  9  1  0
  9 10  2  0
 10 11  1  0
 10 12  1  0
 12 13  2  0
 13 14  1  0
  2 15  1  0
 15 16  1  0
 16 17  2  0
 17 18  1  0
 18 19  2  0
 19 20  1  0
 20 21  2  0
 21 22  1  0
 22 23  1  0
 23 24  1  0
 23 25  1  0
 23 26  1  0
 22 27  2  0
 13  7  1  0
 27 18  1  0
  3 28  1  0
  3 29  1  0
  4 30  1  0
  4 31  1  0
  5 32  1  0
  5 33  1  0
  8 34  1  0
  9 35  1  0
 12 36  1  0
 17 37  1  0
 19 38  1  0
 20 39  1  0
 21 40  1  0
 27 41  1  0
M  CHG  1  15  -1
M  END
>  <meeko>  (19) 
{"free_energy": -6.24, "intermolecular_energy": -9.22, "internal_energy": -1.2, "cluster_size": 4, "cluster_id": 3, "rank_in_cluster": 2}

$$$$

     RDKit          3D

 41 42  0  0  0  0  0  0  0  0999 V2000
  146.6830   73.8110  221.1660 O   0  0  0  0  0  0  0  0  0  0  0  0
  145.8710   73.1300  220.4850 C   0  0  0  0  0  0  0  0  0  0  0  0
  144.4200   73.1070  220.8520 C   0  0  0  0  0  0  0  0  0  0  0  0
  143.6290   74.2210  220.1510 C   0  0  0  0  0  0  0  0  0  0  0  0
  142.1050   74.0020  220.1910 C   0  0  0  0  0  0  0  0  0  0  0  0
  141.3710   75.2020  219.9380 O   0  0  0  0  0  0  0  0  0  0  0  0
  141.4340   76.4250  220.6360 C   0  0  0  0  0  0  0  0  0  0  0  0
  141.0480   76.3860  221.9830 C   0  0  0  0  0  0  0  0  0  0  0  0
  141.0240   77.5440  222.7600 C   0  0  0  0  0  0  0  0  0  0  0  0
  141.4060   78.7640  222.2050 C   0  0  0  0  0  0  0  0  0  0  0  0
  141.3770   80.2220  223.1810 Cl  0  0  0  0  0  0  0  0  0  0  0  0
  141.8350   78.8200  220.8770 C   0  0  0  0  0  0  0  0  0  0  0  0
  141.8670   77.6630  220.0850 C   0  0  0  0  0  0  0  0  0  0  0  0
  142.5500   77.8460  218.4750 Cl  0  0  0  0  0  0  0  0  0  0  0  0
  146.3230   72.4050  219.3430 N   0  0  0  0  0  0  0  0  0  0  0  0
  145.7950   72.6530  218.0680 N   0  0  0  0  0  0  0  0  0  0  0  0
  144.9160   71.8770  217.5080 C   0  0  0  0  0  0  0  0  0  0  0  0
  144.4190   70.6260  218.1250 C   0  0  0  0  0  0  0  0  0  0  0  0
  143.1070   70.5160  218.6170 C   0  0  0  0  0  0  0  0  0  0  0  0
  142.6790   69.3300  219.2180 C   0  0  0  0  0  0  0  0  0  0  0  0
  143.5520   68.2470  219.3410 C   0  0  0  0  0  0  0  0  0  0  0  0
  144.8690   68.3380  218.8540 C   0  0  0  0  0  0  0  0  0  0  0  0
  145.8350   67.1940  219.0350 C   0  0  0  0  0  0  0  0  0  0  0  0
  145.1490   66.0190  219.2960 F   0  0  0  0  0  0  0  0  0  0  0  0
  146.5750   67.0370  217.8780 F   0  0  0  0  0  0  0  0  0  0  0  0
  146.6950   67.4360  220.0920 F   0  0  0  0  0  0  0  0  0  0  0  0
  145.3010   69.5450  218.2760 C   0  0  0  0  0  0  0  0  0  0  0  0
  143.9961   72.1344  220.5616 H   0  0  0  0  0  0  0  0  0  0  0  0
  144.3426   73.2682  221.9374 H   0  0  0  0  0  0  0  0  0  0  0  0
  143.8578   75.1764  220.6458 H   0  0  0  0  0  0  0  0  0  0  0  0
  143.9312   74.2199  219.0933 H   0  0  0  0  0  0  0  0  0  0  0  0
  141.8359   73.2568  219.4279 H   0  0  0  0  0  0  0  0  0  0  0  0
  141.8440   73.6586  221.2029 H   0  0  0  0  0  0  0  0  0  0  0  0
  140.7591   75.4257  222.4350 H   0  0  0  0  0  0  0  0  0  0  0  0
  140.7035   77.4944  223.8111 H   0  0  0  0  0  0  0  0  0  0  0  0
  142.1512   79.7821  220.4476 H   0  0  0  0  0  0  0  0  0  0  0  0
  144.5199   72.1648  216.5230 H   0  0  0  0  0  0  0  0  0  0  0  0
  142.4151   71.3666  218.5285 H   0  0  0  0  0  0  0  0  0  0  0  0
  141.6493   69.2487  219.5963 H   0  0  0  0  0  0  0  0  0  0  0  0
  143.2086   67.3186  219.8208 H   0  0  0  0  0  0  0  0  0  0  0  0
  146.3432   69.6430  217.9380 H   0  0  0  0  0  0  0  0  0  0  0  0
  1  2  2  0
  2  3  1  0
  3  4  1  0
  4  5  1  0
  5  6  1  0
  6  7  1  0
  7  8  2  0
  8  9  1  0
  9 10  2  0
 10 11  1  0
 10 12  1  0
 12 13  2  0
 13 14  1  0
  2 15  1  0
 15 16  1  0
 16 17  2  0
 17 18  1  0
 18 19  2  0
 19 20  1  0
 20 21  2  0
 21 22  1  0
 22 23  1  0
 23 24  1  0
 23 25  1  0
 23 26  1  0
 22 27  2  0
 13  7  1  0
 27 18  1  0
  3 28  1  0
  3 29  1  0
  4 30  1  0
  4 31  1  0
  5 32  1  0
  5 33  1  0
  8 34  1  0
  9 35  1  0
 12 36  1  0
 17 37  1  0
 19 38  1  0
 20 39  1  0
 21 40  1  0
 27 41  1  0
M  CHG  1  15  -1
M  END
>  <meeko>  (20) 
{"free_energy": -6.06, "intermolecular_energy": -9.05, "internal_energy": -1.07, "cluster_size": 1, "cluster_id": 5, "rank_in_cluster": 1}

$$$$
